drugbank_target|P51170 Amiloride-sensitive sodium channel subunit gamma (DB00384; DB00594)
 OpenBabel12092119333D

  0  0  0     0  0            999 V3000
M  V30 BEGIN CTAB
M  V30 COUNTS 10370 10506 0 0 0
M  V30 BEGIN ATOM
M  V30 1 H -0.908 1.98254 -0.117106 0
M  V30 2 N 0 1.576 0 0
M  V30 3 C 0.933 2.03868 1.02534 0
M  V30 4 C 1.911 0.928543 1.3348 0
M  V30 5 O 3.095 1.19667 1.45644 0
M  V30 6 C 0.222 2.43627 2.35294 0
M  V30 7 C -0.732 3.65373 2.2001 0
M  V30 8 S 0.101 5.13292 1.52614 0
M  V30 9 C 1.257 5.56322 2.86805 0
M  V30 10 H 1.49 2.90518 0.631377 0
M  V30 11 H -0.977 1.52953 0.210867 0
M  V30 12 H 0.981 2.67203 3.11629 0
M  V30 13 H -0.358 1.57376 2.7183 0
M  V30 14 H -1.165 3.90944 3.18086 0
M  V30 15 H -1.563 3.418 1.51819 0
M  V30 16 H 0.729 5.58782 3.83104 0
M  V30 17 H 1.672 6.56266 2.65933 0
M  V30 18 H 2.08 4.83886 2.90714 0
M  V30 19 N 1.4781 -0.272755 1.55222 0
M  V30 20 C 2.4411 -1.32041 1.87344 0
M  V30 21 C 3.4411 -1.42342 0.74803 0
M  V30 22 O 4.6311 -1.41488 1.0162 0
M  V30 23 C 1.7631 -2.70173 2.07893 0
M  V30 24 H 2.9561 -1.04789 2.80997 0
M  V30 25 H 0.5091 -0.51083 1.47717 0
M  V30 26 H 1.2441 -3.02605 1.16622 0
M  V30 27 H 1.0291 -2.64082 2.89833 0
M  V30 28 H 2.5191 -3.45869 2.34017 0
M  V30 29 N 2.9562 -1.48159 -0.537278 0
M  V30 30 C 4.3672 -1.49429 -1.11928 0
M  V30 31 C 4.7182 -0.26 -1.9447 0
M  V30 32 O 3.8432 0.633489 -2.0692 0
M  V30 33 C 4.4382 -2.70758 -2.03656 0
M  V30 34 C 2.9972 -2.74923 -2.57088 0
M  V30 35 C 2.1442 -2.42835 -1.3389 0
M  V30 36 H 5.0952 -1.55381 -0.322886 0
M  V30 37 H 5.1162 -2.48861 -2.87834 0
M  V30 38 H 4.6282 -3.60575 -1.43553 0
M  V30 39 H 2.7292 -1.89296 -3.20933 0
M  V30 40 H 2.8422 -3.76157 -2.9672 0
M  V30 41 H 1.2062 -1.93836 -1.65226 0
M  V30 42 H 1.9892 -3.34884 -0.755504 0
M  V30 43 N 4.4343 0.785586 -1.36625 0
M  V30 44 C 5.6823 1.54057 -1.30808 0
M  V30 45 C 6.0033 1.94683 0.111157 0
M  V30 46 O 5.2733 1.65241 1.05224 0
M  V30 47 H 3.8533 0.571354 -0.481211 0
M  V30 48 H 6.5153 0.935821 -1.70963 0
M  V30 49 H 5.6113 2.44637 -1.93801 0
M  V30 50 N 5.9124 1.20967 1.01018 0
M  V30 51 C 6.8224 0.980157 2.13143 0
M  V30 52 C 7.8384 -0.0660665 1.73875 0
M  V30 53 O 9.0144 0.122821 2.01025 0
M  V30 54 C 6.0794 0.54216 3.42435 0
M  V30 55 C 5.1404 1.65999 3.95908 0
M  V30 56 C 4.3734 1.2428 5.19028 0
M  V30 57 O 4.5964 0.114196 5.70286 0
M  V30 58 O 3.5304 2.05271 5.65816 0
M  V30 59 H 7.3564 1.91913 2.35379 0
M  V30 60 H 4.9414 0.994099 1.11526 0
M  V30 61 H 6.8234 0.30744 4.20277 0
M  V30 62 H 5.4984 -0.36815 3.216 0
M  V30 63 H 4.4054 1.94906 3.19316 0
M  V30 64 H 5.7384 2.54753 4.21143 0
M  V30 65 N 7.3905 -1.2043 1.01659 0
M  V30 66 C 8.3375 -2.23215 0.586822 0
M  V30 67 C 9.3075 -1.61382 -0.393085 0
M  V30 68 O 10.4925 -1.88544 -0.292525 0
M  V30 69 C 7.6325 -3.45032 -0.0687464 0
M  V30 70 C 6.7455 -4.21296 0.955724 0
M  V30 71 C 5.8805 -5.30507 0.271208 0
M  V30 72 C 4.9195 -5.98515 1.28244 0
M  V30 73 N 4.0565 -6.99316 0.62459 0
M  V30 74 H 8.8965 -2.59336 1.46796 0
M  V30 75 H 6.4335 -1.27431 0.734836 0
M  V30 76 H 8.3915 -4.1459 -0.465965 0
M  V30 77 H 7.0215 -3.09604 -0.913529 0
M  V30 78 H 6.0735 -3.50803 1.4711 0
M  V30 79 H 7.3855 -4.6803 1.72479 0
M  V30 80 H 6.5395 -6.06428 -0.18151 0
M  V30 81 H 5.2785 -4.8481 -0.530163 0
M  V30 82 H 4.2835 -5.21355 1.74554 0
M  V30 83 H 5.5085 -6.46298 2.08509 0
M  V30 84 H 3.4545 -6.55812 -0.156914 0
M  V30 85 H 3.3715 -7.44178 1.33172 0
M  V30 86 H 4.6395 -7.79255 0.195462 0
M  V30 87 N 8.8686 -0.792821 -1.36206 0
M  V30 88 C 10.1176 -0.363353 -1.984 0
M  V30 89 C 10.4306 1.07172 -1.63626 0
M  V30 90 O 11.6366 1.60362 -2.19081 0
M  V30 91 C 10.0926 -0.59872 -3.54885 0
M  V30 92 C 9.7006 -2.04543 -3.9858 0
M  V30 93 C 11.4446 -0.233926 -4.23855 0
M  V30 94 C 9.3516 -2.22727 -5.47856 0
M  V30 95 H 8.2816 -0.13212 -0.742334 0
M  V30 96 H 10.9326 -0.974935 -1.55458 0
M  V30 97 H 9.3146 0.0826222 -3.95914 0
M  V30 98 H 10.4886 -2.76345 -3.68741 0
M  V30 99 H 8.8036 -2.36879 -3.42458 0
M  V30 100 H 11.4006 -0.348027 -5.33566 0
M  V30 101 H 11.7436 0.818351 -4.08177 0
M  V30 102 H 12.2766 -0.868639 -3.882 0
M  V30 103 H 9.0156 -3.2635 -5.68486 0
M  V30 104 H 8.5356 -1.55434 -5.7931 0
M  V30 105 H 10.2146 -2.03607 -6.14128 0
M  V30 106 N 10.3467 1.47872 -0.545128 0
M  V30 107 C 11.2937 2.29849 0.2093 0
M  V30 108 C 12.2637 1.38313 0.919707 0
M  V30 109 O 13.4487 1.67277 0.917772 0
M  V30 110 C 10.5887 3.22019 1.24088 0
M  V30 111 C 9.7017 4.2864 0.537778 0
M  V30 112 C 8.8367 5.07973 1.5536 0
M  V30 113 C 7.8757 6.06381 0.8348 0
M  V30 114 N 7.0127 6.78717 1.79688 0
M  V30 115 H 11.8527 2.93845 -0.49591 0
M  V30 116 H 9.3897 1.44848 -0.256389 0
M  V30 117 H 11.3477 3.73868 1.85144 0
M  V30 118 H 9.9777 2.59914 1.91428 0
M  V30 119 H 9.0297 3.7994 -0.187046 0
M  V30 120 H 10.3417 4.98793 -0.0258907 0
M  V30 121 H 9.4957 5.63912 2.23803 0
M  V30 122 H 8.2347 4.37693 2.15118 0
M  V30 123 H 7.2397 5.49631 0.136388 0
M  V30 124 H 8.4647 6.78665 0.24313 0
M  V30 125 H 6.4107 6.11177 2.38326 0
M  V30 126 H 6.3277 7.44998 1.28505 0
M  V30 127 H 7.5957 7.39237 2.47282 0
M  V30 128 N 11.8248 0.280983 1.55075 0
M  V30 129 C 12.7878 -0.590896 2.21452 0
M  V30 130 C 13.7878 -1.07682 1.19421 0
M  V30 131 O 14.9778 -0.97605 1.44288 0
M  V30 132 C 12.1098 -1.81587 2.88511 0
M  V30 133 H 13.3028 -0.0112554 2.99898 0
M  V30 134 H 10.8558 0.0316438 1.56268 0
M  V30 135 H 11.5908 -2.43587 2.14093 0
M  V30 136 H 11.3758 -1.4753 3.63287 0
M  V30 137 H 12.8658 -2.43575 3.39206 0
M  V30 138 N 13.3029 -1.57598 0.00835791 0
M  V30 139 C 14.2499 -2.08945 -0.980346 0
M  V30 140 C 15.2199 -0.986738 -1.33614 0
M  V30 141 O 16.4049 -1.25968 -1.43306 0
M  V30 142 C 13.5449 -2.60425 -2.26435 0
M  V30 143 C 12.6579 -3.84628 -1.96685 0
M  V30 144 C 11.7929 -4.24579 -3.19228 0
M  V30 145 C 10.8319 -5.41596 -2.85202 0
M  V30 146 N 9.9689 -5.768 -4.00307 0
M  V30 147 H 14.8089 -2.93148 -0.535551 0
M  V30 148 H 12.3459 -1.44912 -0.252776 0
M  V30 149 H 14.3039 -2.88354 -3.01509 0
M  V30 150 H 12.9339 -1.79083 -2.68568 0
M  V30 151 H 11.9859 -3.63556 -1.11942 0
M  V30 152 H 13.2979 -4.69796 -1.67611 0
M  V30 153 H 12.4519 -4.53834 -4.02641 0
M  V30 154 H 11.1909 -3.38137 -3.51447 0
M  V30 155 H 10.1959 -5.12056 -2.00198 0
M  V30 156 H 11.4209 -6.29721 -2.54222 0
M  V30 157 H 9.3669 -4.93316 -4.32407 0
M  V30 158 H 9.2839 -6.5656 -3.74786 0
M  V30 159 H 10.5519 -6.10652 -4.84484 0
M  V30 160 N 14.781 0.264519 -1.55364 0
M  V30 161 C 16.03 0.992812 -1.75574 0
M  V30 162 C 16.343 1.87142 -0.568979 0
M  V30 163 O 17.549 2.63513 -0.653682 0
M  V30 164 C 16.005 1.81519 -3.10771 0
M  V30 165 C 15.613 0.984839 -4.37041 0
M  V30 166 C 17.357 2.53727 -3.40327 0
M  V30 167 C 15.264 1.80209 -5.63275 0
M  V30 168 H 14.194 0.374412 -0.65447 0
M  V30 169 H 16.845 0.248138 -1.81815 0
M  V30 170 H 15.227 2.60115 -2.98591 0
M  V30 171 H 16.401 0.242455 -4.60162 0
M  V30 172 H 14.716 0.37691 -4.14691 0
M  V30 173 H 17.313 3.15292 -4.3185 0
M  V30 174 H 17.656 3.24447 -2.60845 0
M  V30 175 H 18.189 1.82156 -3.53644 0
M  V30 176 H 14.928 1.13896 -6.45529 0
M  V30 177 H 14.448 2.52022 -5.44284 0
M  V30 178 H 16.127 2.37364 -6.01887 0
M  V30 179 N 16.2591 1.48442 0.529413 0
M  V30 180 C 17.2061 1.63007 1.63394 0
M  V30 181 C 18.1761 0.47212 1.59249 0
M  V30 182 O 19.3611 0.695673 1.77666 0
M  V30 183 C 16.5011 1.6763 3.01653 0
M  V30 184 C 15.6141 2.94535 3.16027 0
M  V30 185 C 14.7491 2.90316 4.44849 0
M  V30 186 C 13.7881 4.11923 4.52754 0
M  V30 187 N 12.9251 4.05777 5.72965 0
M  V30 188 H 17.7651 2.5733 1.50285 0
M  V30 189 H 15.3021 1.27613 0.731656 0
M  V30 190 H 17.2601 1.68292 3.81751 0
M  V30 191 H 15.8901 0.76797 3.13532 0
M  V30 192 H 14.9421 3.03615 2.29177 0
M  V30 193 H 16.2541 3.84512 3.17729 0
M  V30 194 H 15.4081 2.89382 5.33238 0
M  V30 195 H 14.1471 1.98068 4.45668 0
M  V30 196 H 13.1521 4.13131 3.62771 0
M  V30 197 H 14.3771 5.0533 4.53672 0
M  V30 198 H 12.3231 3.16351 5.74681 0
M  V30 199 H 12.2401 4.8946 5.76164 0
M  V30 200 H 13.5081 4.08904 6.6364 0
M  V30 201 N 17.7372 -0.778329 1.37039 0
M  V30 202 C 18.6842 -1.89139 1.32269 0
M  V30 203 C 19.6542 -1.65017 0.189387 0
M  V30 204 O 20.8392 -1.87024 0.377693 0
M  V30 205 C 17.9792 -3.26112 1.12894 0
M  V30 206 C 17.0922 -3.62233 2.35396 0
M  V30 207 C 16.2272 -4.8838 2.08946 0
M  V30 208 C 15.2662 -5.17212 3.2735 0
M  V30 209 N 14.4032 -6.34546 3.00492 0
M  V30 210 H 19.2432 -1.92552 2.27437 0
M  V30 211 H 16.7802 -0.941473 1.13025 0
M  V30 212 H 18.7382 -4.05116 0.996835 0
M  V30 213 H 17.3682 -3.22091 0.213758 0
M  V30 214 H 16.4202 -2.78265 2.5937 0
M  V30 215 H 17.7322 -3.79481 3.23721 0
M  V30 216 H 16.8862 -5.75274 1.92729 0
M  V30 217 H 15.6252 -4.73222 1.17949 0
M  V30 218 H 14.6302 -4.28796 3.44113 0
M  V30 219 H 15.8552 -5.34283 4.19188 0
M  V30 220 H 13.8012 -6.20759 2.12118 0
M  V30 221 H 13.7182 -6.52179 3.82358 0
M  V30 222 H 14.9862 -7.24394 2.87879 0
M  V30 223 N 19.2153 -1.21501 -1.00376 0
M  V30 224 C 20.1633 -0.972442 -2.11297 0
M  V30 225 C 21.1573 0.080731 -1.69208 0
M  V30 226 O 22.3633 -0.0707666 -1.79861 0
M  V30 227 H 18.7383 -0.297218 -0.690772 0
M  V30 228 H 20.7093 -1.91394 -2.28934 0
M  V30 229 C 19.4583 -0.555065 -3.43241 0
M  V30 230 H 18.7813 -1.35709 -3.76062 0
M  V30 231 H 20.2213 -0.424664 -4.21868 0
M  V30 232 C 18.6803 0.734147 -3.28804 0
M  V30 233 O 19.2103 1.78937 -3.59645 0
M  V30 234 N 17.4163 0.701133 -2.82015 0
M  V30 235 H 16.9633 -0.157874 -2.57116 0
M  V30 236 H 16.9213 1.56403 -2.72737 0
M  V30 237 N 20.6934 1.19889 -1.02296 0
M  V30 238 C 21.6234 2.25141 -0.619174 0
M  V30 239 C 22.6044 1.66051 0.368915 0
M  V30 240 O 23.7894 1.92546 0.252941 0
M  V30 241 C 20.9194 3.4728 0.0368783 0
M  V30 242 C 19.8734 4.19005 -0.872865 0
M  V30 243 C 19.1994 5.34637 -0.0822402 0
M  V30 244 C 20.4994 4.74452 -2.18387 0
M  V30 245 H 22.1934 2.59171 -1.49903 0
M  V30 246 H 19.7394 1.24579 -0.722222 0
M  V30 247 H 21.6924 4.20098 0.330958 0
M  V30 248 H 20.4164 3.12433 0.95149 0
M  V30 249 H 19.0754 3.48061 -1.15105 0
M  V30 250 H 18.7234 4.96034 0.83422 0
M  V30 251 H 18.4234 5.83557 -0.688149 0
M  V30 252 H 19.9474 6.10255 0.205238 0
M  V30 253 H 21.3614 5.39055 -1.95172 0
M  V30 254 H 19.7584 5.33834 -2.74119 0
M  V30 255 H 20.8284 3.92844 -2.84257 0
M  V30 256 N 22.1715 0.800033 1.35784 0
M  V30 257 C 23.5825 0.439142 1.81462 0
M  V30 258 C 23.9335 -1.03813 1.66485 0
M  V30 259 O 23.0585 -1.80626 1.19177 0
M  V30 260 C 23.6535 0.790314 3.29453 0
M  V30 261 C 22.2125 0.482111 3.733 0
M  V30 262 C 21.3595 1.01938 2.57883 0
M  V30 263 H 24.3105 0.992254 1.23855 0
M  V30 264 H 24.3315 0.0853677 3.80404 0
M  V30 265 H 23.8435 1.86554 3.40322 0
M  V30 266 H 21.9445 -0.584652 3.67984 0
M  V30 267 H 22.0575 1.01015 4.6833 0
M  V30 268 H 20.4215 0.442043 2.50835 0
M  V30 269 H 21.2045 2.10059 2.71533 0
M  V30 270 N 23.6496 -1.47581 0.552962 0
M  V30 271 C 24.8956 -2.02782 0.0273648 0
M  V30 272 C 25.2286 -1.42687 -1.31734 0
M  V30 273 O 24.5036 -0.580897 -1.85623 0
M  V30 274 C 24.7866 -3.60031 -0.0702371 0
M  V30 275 C 24.6396 -4.30566 1.30126 0
M  V30 276 C 25.9586 -4.33028 -0.785771 0
M  V30 277 H 23.0776 -0.736912 0.0114185 0
M  V30 278 H 25.7196 -1.76056 0.714432 0
M  V30 279 H 23.8696 -3.82932 -0.655382 0
M  V30 280 H 25.5416 -4.19018 1.92929 0
M  V30 281 H 23.7846 -3.91086 1.87709 0
M  V30 282 H 24.4556 -5.39114 1.18573 0
M  V30 283 H 26.9316 -4.15095 -0.288982 0
M  V30 284 H 25.8076 -5.42695 -0.823013 0
M  V30 285 H 26.0686 -4.01945 -1.841 0
M  V30 286 N 25.1277 -0.289203 -1.54924 0
M  V30 287 C 26.3557 0.326463 -2.04308 0
M  V30 288 C 26.7707 1.48413 -1.16701 0
M  V30 289 O 26.1277 1.81507 -0.190087 0
M  V30 290 C 26.1787 0.794014 -3.52672 0
M  V30 291 O 25.8997 -0.317564 -4.36948 0
M  V30 292 C 27.4007 1.47605 -4.18004 0
M  V30 293 H 24.6207 0.0726272 -0.667058 0
M  V30 294 H 27.1647 -0.425401 -2.00026 0
M  V30 295 H 25.3197 1.49593 -3.57352 0
M  V30 296 H 25.7337 0.0443186 -5.24481 0
M  V30 297 H 27.2077 1.75447 -5.23376 0
M  V30 298 H 27.6847 2.41224 -3.67025 0
M  V30 299 H 28.2907 0.81762 -4.17367 0
M  V30 300 N 26.6058 1.57591 -0.0167156 0
M  V30 301 C 27.8538 1.90906 0.663285 0
M  V30 302 C 28.1748 0.892509 1.73376 0
M  V30 303 O 27.4448 -0.0677623 1.95783 0
M  V30 304 H 26.0248 0.704637 0.247983 0
M  V30 305 H 28.6868 1.94803 -0.0615909 0
M  V30 306 H 27.7828 2.9116 1.12393 0
M  V30 307 N 28.0839 -0.256276 1.55502 0
M  V30 308 C 29.4949 -0.826068 1.67431 0
M  V30 309 C 29.8459 -1.86396 0.612446 0
M  V30 310 O 28.9709 -2.15031 -0.243025 0
M  V30 311 C 29.5659 -1.50512 3.03532 0
M  V30 312 C 28.1249 -2.02273 3.17431 0
M  V30 313 C 27.2719 -0.870548 2.63281 0
M  V30 314 H 30.2229 -0.0322728 1.58667 0
M  V30 315 H 30.2439 -2.37279 2.97454 0
M  V30 316 H 29.7559 -0.749484 3.80794 0
M  V30 317 H 27.8569 -2.80746 2.44974 0
M  V30 318 H 27.9699 -2.22655 4.24219 0
M  V30 319 H 26.3339 -1.26851 2.20864 0
M  V30 320 H 27.1169 -0.128149 3.43061 0
M  V30 321 N 29.562 -1.4872 -0.521534 0
M  V30 322 C 30.494 -1.59968 -1.64143 0
M  V30 323 C 31.507 -0.483463 -1.55456 0
M  V30 324 O 32.696 -0.75467 -1.61762 0
M  V30 325 C 29.796 -1.52127 -3.02838 0
M  V30 326 C 28.969 -2.78932 -3.36921 0
M  V30 327 C 28.028 -2.64428 -4.54933 0
M  V30 328 O 27.054 -3.38331 -4.57735 0
M  V30 329 N 28.256 -1.74606 -5.53618 0
M  V30 330 H 31.021 -2.56548 -1.54929 0
M  V30 331 H 28.582 -1.45551 -0.708988 0
M  V30 332 H 30.574 -1.40106 -3.79674 0
M  V30 333 H 29.144 -0.634868 -3.06085 0
M  V30 334 H 28.364 -3.05455 -2.4918 0
M  V30 335 H 29.652 -3.63041 -3.56481 0
M  V30 336 H 29.05 -1.13782 -5.54139 0
M  V30 337 H 27.607 -1.6852 -6.29638 0
M  V30 338 N 31.0401 0.771051 -1.3745 0
M  V30 339 C 32.0031 1.86598 -1.33093 0
M  V30 340 C 33.0031 1.59076 -0.234845 0
M  V30 341 O 34.1931 1.67145 -0.490732 0
M  V30 342 C 31.3251 3.23747 -1.06773 0
M  V30 343 H 32.5181 1.91873 -2.30488 0
M  V30 344 H 30.0711 0.970876 -1.2249 0
M  V30 345 H 30.8061 3.24148 -0.099129 0
M  V30 346 H 30.5911 3.45115 -1.86112 0
M  V30 347 H 32.0811 4.03824 -1.06377 0
M  V30 348 N 32.5182 1.22032 0.997298 0
M  V30 349 C 33.9292 1.0397 1.55071 0
M  V30 350 C 34.2802 -0.398192 1.92117 0
M  V30 351 O 33.4052 -1.28254 1.74298 0
M  V30 352 C 34.0002 1.88109 2.81781 0
M  V30 353 C 32.5592 1.74357 3.33581 0
M  V30 354 C 31.7062 1.84846 2.06706 0
M  V30 355 H 34.6572 1.35941 0.818883 0
M  V30 356 H 34.6782 1.39589 3.53971 0
M  V30 357 H 34.1902 2.92754 2.54787 0
M  V30 358 H 32.2912 0.72427 3.65493 0
M  V30 359 H 32.4042 2.56772 4.04481 0
M  V30 360 H 30.7682 1.28238 2.20062 0
M  V30 361 H 31.5512 2.91014 1.82114 0
M  V30 362 N 33.9963 -1.19345 1.0293 0
M  V30 363 C 35.2243 -1.92997 0.745644 0
M  V30 364 C 35.6393 -1.75519 -0.695589 0
M  V30 365 O 34.9963 -1.07737 -1.47306 0
M  V30 366 C 35.0473 -3.44741 1.08792 0
M  V30 367 O 34.7683 -3.61658 2.47256 0
M  V30 368 C 36.2693 -4.35515 0.827129 0
M  V30 369 H 33.4893 -0.613042 0.272801 0
M  V30 370 H 36.0333 -1.51473 1.3739 0
M  V30 371 H 34.1883 -3.84097 0.504832 0
M  V30 372 H 34.6023 -4.55514 2.60015 0
M  V30 373 H 36.0763 -5.40589 1.11658 0
M  V30 374 H 36.5533 -4.38552 -0.238436 0
M  V30 375 H 37.1593 -4.01841 1.39297 0
M  V30 376 N 35.4744 -0.807222 -1.35358 0
M  V30 377 C 36.7234 -0.384376 -1.98004 0
M  V30 378 C 37.0364 1.0543 -1.64754 0
M  V30 379 O 38.2424 1.58029 -2.20769 0
M  V30 380 C 36.6984 -0.636326 -3.5423 0
M  V30 381 C 36.3064 -2.08759 -3.96388 0
M  V30 382 C 38.0504 -0.278869 -4.23583 0
M  V30 383 C 35.9574 -2.28525 -5.45463 0
M  V30 384 H 34.8874 -0.139986 -0.740891 0
M  V30 385 H 37.5384 -0.991369 -1.54415 0
M  V30 386 H 35.9204 0.0406256 -3.95979 0
M  V30 387 H 37.0944 -2.8024 -3.6579 0
M  V30 388 H 35.4094 -2.40497 -3.39926 0
M  V30 389 H 38.0064 -0.404599 -5.33167 0
M  V30 390 H 38.3494 0.775012 -4.09022 0
M  V30 391 H 38.8824 -0.909764 -3.87257 0
M  V30 392 H 35.6214 -3.32361 -5.64992 0
M  V30 393 H 35.1414 -1.61569 -5.77629 0
M  V30 394 H 36.8204 -2.10109 -6.11934 0
M  V30 395 N 36.9525 1.47285 -0.560781 0
M  V30 396 C 37.8995 2.30058 0.18491 0
M  V30 397 C 38.8695 1.39281 0.904986 0
M  V30 398 O 40.0545 1.68241 0.899979 0
M  V30 399 C 37.1945 3.23317 1.20666 0
M  V30 400 C 36.3075 4.29186 0.492285 0
M  V30 401 C 35.4425 5.09592 1.49964 0
M  V30 402 C 34.4815 6.07232 0.770439 0
M  V30 403 N 33.6185 6.80584 1.72479 0
M  V30 404 H 38.4585 2.93302 -0.527048 0
M  V30 405 H 35.9955 1.44568 -0.271738 0
M  V30 406 H 37.9535 3.75811 1.81168 0
M  V30 407 H 36.5835 2.61929 1.88661 0
M  V30 408 H 35.6355 3.7972 -0.227333 0
M  V30 409 H 36.9475 4.98738 -0.0787929 0
M  V30 410 H 36.1015 5.66254 2.17809 0
M  V30 411 H 34.8405 4.3995 2.10464 0
M  V30 412 H 33.8455 5.49745 0.0780846 0
M  V30 413 H 35.0705 6.78884 0.171134 0
M  V30 414 H 33.0165 6.1367 2.3183 0
M  V30 415 H 32.9335 7.46319 1.20596 0
M  V30 416 H 34.2015 7.41818 2.39428 0
M  V30 417 N 38.4306 0.297415 1.54768 0
M  V30 418 C 39.3406 -0.58983 2.27064 0
M  V30 419 C 40.3566 -1.15144 1.30453 0
M  V30 420 O 41.5326 -1.17699 1.63428 0
M  V30 421 C 38.5976 -1.74714 2.9946 0
M  V30 422 C 37.6586 -1.21997 4.11601 0
M  V30 423 C 36.8916 -2.32212 4.80535 0
M  V30 424 O 37.1146 -3.52036 4.48806 0
M  V30 425 O 36.0486 -1.99106 5.68014 0
M  V30 426 H 39.8746 -0.00348199 3.037 0
M  V30 427 H 37.4596 0.0640035 1.49263 0
M  V30 428 H 39.3416 -2.42147 3.44881 0
M  V30 429 H 38.0166 -2.32016 2.25722 0
M  V30 430 H 36.9236 -0.511458 3.70587 0
M  V30 431 H 38.2566 -0.692419 4.87305 0
M  V30 432 N 39.9087 -1.5758 0.0250728 0
M  V30 433 C 40.8387 -2.13007 -0.956575 0
M  V30 434 C 41.8197 -1.0452 -1.342 0
M  V30 435 O 43.0047 -1.32332 -1.42133 0
M  V30 436 C 40.1347 -2.65386 -2.24026 0
M  V30 437 C 39.0887 -3.78623 -1.99571 0
M  V30 438 C 38.4147 -4.17414 -3.3417 0
M  V30 439 C 39.7147 -5.04867 -1.33814 0
M  V30 440 H 41.4087 -2.9528 -0.494991 0
M  V30 441 H 38.9547 -1.42042 -0.236651 0
M  V30 442 H 40.9077 -3.02794 -2.93076 0
M  V30 443 H 39.6317 -1.80268 -2.72343 0
M  V30 444 H 38.2907 -3.41646 -1.32941 0
M  V30 445 H 37.9387 -3.29284 -3.80238 0
M  V30 446 H 37.6387 -4.93719 -3.18615 0
M  V30 447 H 39.1627 -4.57402 -4.04495 0
M  V30 448 H 40.5767 -5.39888 -1.92857 0
M  V30 449 H 38.9737 -5.86144 -1.28669 0
M  V30 450 H 40.0437 -4.83904 -0.310561 0
M  V30 451 N 41.3868 0.248026 -1.55636 0
M  V30 452 C 42.3198 1.3334 -1.85191 0
M  V30 453 C 43.2978 1.46429 -0.706906 0
M  V30 454 O 44.4818 1.62662 -0.952544 0
M  V30 455 C 41.6088 2.70703 -2.03562 0
M  V30 456 C 40.6548 2.7477 -3.26196 0
M  V30 457 S 41.4878 2.31493 -4.82878 0
M  V30 458 C 42.6438 3.70783 -5.04253 0
M  V30 459 H 42.8768 1.08072 -2.76962 0
M  V30 460 H 40.4098 0.448952 -1.47729 0
M  V30 461 H 42.3678 3.49798 -2.1483 0
M  V30 462 H 41.0288 2.9321 -1.12635 0
M  V30 463 H 40.2218 3.75648 -3.36013 0
M  V30 464 H 39.8238 2.03719 -3.13647 0
M  V30 465 H 42.1158 4.6627 -4.91527 0
M  V30 466 H 43.0588 3.65901 -6.06236 0
M  V30 467 H 43.4668 3.63244 -4.32105 0
M  V30 468 N 42.8649 1.48995 0.513639 0
M  V30 469 C 44.2809 1.35478 0.843682 0
M  V30 470 C 44.4809 0.378213 1.97919 0
M  V30 471 O 43.5369 -0.194689 2.51748 0
M  V30 472 C 44.8499 2.75901 1.1958 0
M  V30 473 C 46.3979 2.84509 1.30474 0
M  V30 474 C 46.8729 4.25671 1.69021 0
M  V30 475 N 48.3639 4.28422 1.76094 0
M  V30 476 C 49.0989 5.34601 2.07338 0
M  V30 477 N 48.5949 6.5104 2.36894 0
M  V30 478 N 50.3879 5.22007 2.08483 0
M  V30 479 H 42.5389 2.11092 -0.235328 0
M  V30 480 H 44.8019 0.947039 -0.0426669 0
M  V30 481 H 44.5079 3.49001 0.434913 0
M  V30 482 H 44.3819 3.10467 2.1422 0
M  V30 483 H 46.7689 2.11655 2.05637 0
M  V30 484 H 46.8499 2.53542 0.339155 0
M  V30 485 H 46.4939 4.99048 0.944135 0
M  V30 486 H 46.4239 4.54094 2.66658 0
M  V30 487 H 48.9149 3.44441 1.55464 0
M  V30 488 H 49.2279 7.2779 2.59887 0
M  V30 489 H 47.5729 6.54287 2.34378 0
M  V30 490 H 50.7639 4.30051 1.84861 0
M  V30 491 H 50.9369 6.04854 2.325 0
M  V30 492 N 44.343 -0.763751 1.37857 0
M  V30 493 C 45.589 -1.52396 1.3471 0
M  V30 494 C 45.944 -1.92288 -0.0656435 0
M  V30 495 O 45.237 -1.6181 -1.02606 0
M  V30 496 C 45.431 -2.79499 2.22745 0
M  V30 497 C 45.26 -2.52031 3.72438 0
M  V30 498 C 44.03 -2.45759 4.4151 0
M  V30 499 C 46.228 -2.19489 4.65112 0
M  V30 500 N 44.21 -2.1046 5.76697 0
M  V30 501 C 45.581 -1.94396 5.88736 0
M  V30 502 C 47.636 -2.05712 4.53417 0
M  V30 503 C 46.339 -1.56917 7.01975 0
M  V30 504 C 48.365 -1.69634 5.66549 0
M  V30 505 C 47.727 -1.45407 6.89229 0
M  V30 506 H 43.826 -0.55765 0.548225 0
M  V30 507 H 46.41 -0.890302 1.73152 0
M  V30 508 H 44.581 -3.4069 1.86507 0
M  V30 509 H 46.313 -3.45465 2.10798 0
M  V30 510 H 43.068 -2.61885 3.94605 0
M  V30 511 H 43.492 -1.95484 6.48163 0
M  V30 512 H 48.134 -2.23123 3.59133 0
M  V30 513 H 45.852 -1.38246 7.96187 0
M  V30 514 H 49.438 -1.59621 5.59475 0
M  V30 515 H 48.318 -1.17904 7.75286 0
M  V30 516 N 45.8211 -1.22559 -0.990812 0
M  V30 517 C 47.0511 -1.07623 -1.76355 0
M  V30 518 C 47.4591 0.37601 -1.85426 0
M  V30 519 O 46.8021 1.27228 -1.32509 0
M  V30 520 C 46.8641 -1.61507 -3.21179 0
M  V30 521 C 46.5281 -3.10146 -3.35646 0
M  V30 522 C 47.5251 -4.07553 -3.22796 0
M  V30 523 C 45.2101 -3.49644 -3.60631 0
M  V30 524 C 47.2041 -5.42442 -3.34716 0
M  V30 525 C 44.8911 -4.84682 -3.72192 0
M  V30 526 C 45.8891 -5.8089 -3.59243 0
M  V30 527 O 45.5771 -7.13476 -3.70415 0
M  V30 528 H 45.3091 -0.377745 -0.560611 0
M  V30 529 H 47.8631 -1.62658 -1.25425 0
M  V30 530 H 46.0931 -1.00881 -3.73309 0
M  V30 531 H 47.7821 -1.42202 -3.80175 0
M  V30 532 H 48.5481 -3.78381 -3.03403 0
M  V30 533 H 44.4271 -2.75282 -3.69785 0
M  V30 534 H 47.9711 -6.17518 -3.24526 0
M  V30 535 H 43.8681 -5.13534 -3.91092 0
M  V30 536 H 44.6361 -7.21083 -3.87275 0
M  V30 537 N 47.2992 1.18797 -1.03562 0
M  V30 538 C 48.5392 1.90346 -0.744832 0
M  V30 539 C 48.9032 1.78231 0.713972 0
M  V30 540 O 50.1042 2.44441 1.11813 0
M  V30 541 C 48.3752 3.36942 -1.19184 0
M  V30 542 S 49.9342 4.26638 -1.02593 0
M  V30 543 H 46.7522 0.657343 -0.270963 0
M  V30 544 H 49.3542 1.43579 -1.32685 0
M  V30 545 H 48.0582 3.43287 -2.24905 0
M  V30 546 H 47.5892 3.88745 -0.603397 0
M  V30 547 H 49.6042 4.96164 0.0596033 0
M  V30 548 N 48.7773 0.814389 1.34928 0
M  V30 549 C 49.7073 0.244827 2.32213 0
M  V30 550 C 50.6883 -0.634024 1.57842 0
M  V30 551 O 51.8733 -0.562676 1.8587 0
M  V30 552 C 49.0033 -0.601106 3.42058 0
M  V30 553 C 47.9573 0.179896 4.27622 0
M  V30 554 C 47.2833 -0.788237 5.28858 0
M  V30 555 C 48.5833 1.38329 5.03649 0
M  V30 556 H 50.2773 1.05763 2.80097 0
M  V30 557 H 47.8233 0.510029 1.34665 0
M  V30 558 H 49.7763 -1.00968 4.09125 0
M  V30 559 H 48.5003 -1.44688 2.92802 0
M  V30 560 H 47.1593 0.569739 3.62146 0
M  V30 561 H 46.8073 -1.62973 4.75866 0
M  V30 562 H 46.5073 -0.269942 5.8698 0
M  V30 563 H 48.0313 -1.19485 5.98795 0
M  V30 564 H 49.4453 1.04918 5.63618 0
M  V30 565 H 47.8423 1.83662 5.71304 0
M  V30 566 H 48.9123 2.16592 4.33839 0
M  V30 567 N 50.2554 -1.46986 0.568584 0
M  V30 568 C 51.2034 -2.31858 -0.185649 0
M  V30 569 C 52.1974 -1.43624 -0.898249 0
M  V30 570 O 53.4034 -1.60327 -0.818242 0
M  V30 571 H 49.7784 -0.747866 -0.0787399 0
M  V30 572 H 51.7494 -2.93303 0.549191 0
M  V30 573 C 50.4984 -3.26513 -1.19519 0
M  V30 574 H 49.8214 -3.94377 -0.656285 0
M  V30 575 H 51.2614 -3.88707 -1.6936 0
M  V30 576 C 49.7204 -2.50847 -2.24894 0
M  V30 577 O 50.2504 -2.26119 -3.32014 0
M  V30 578 N 48.4564 -2.11656 -1.99124 0
M  V30 579 H 48.0034 -2.31966 -1.12024 0
M  V30 580 H 47.9614 -1.61347 -2.69842 0
M  V30 581 N 51.7335 -0.305618 -1.54608 0
M  V30 582 C 52.9615 0.304775 -2.04643 0
M  V30 583 C 53.3765 1.47167 -1.18268 0
M  V30 584 O 52.7335 1.81296 -0.209328 0
M  V30 585 C 52.7845 0.756564 -3.53495 0
M  V30 586 O 52.5055 -0.36389 -4.36586 0
M  V30 587 C 54.0065 1.43163 -4.19546 0
M  V30 588 H 51.2265 0.0655481 -0.667791 0
M  V30 589 H 53.7705 -0.446592 -1.99564 0
M  V30 590 H 51.9255 1.45794 -3.58919 0
M  V30 591 H 52.3395 -0.0113121 -5.24499 0
M  V30 592 H 53.8135 1.69886 -5.25207 0
M  V30 593 H 54.2905 2.37318 -3.69563 0
M  V30 594 H 54.8965 0.773307 -4.18211 0
M  V30 595 N 53.2116 1.57565 -0.0334293 0
M  V30 596 C 54.1596 2.1164 0.96496 0
M  V30 597 C 55.1536 1.04398 1.33407 0
M  V30 598 O 56.3596 1.22828 1.3158 0
M  V30 599 H 52.7346 0.676222 0.32898 0
M  V30 600 H 54.7056 2.94455 0.483614 0
M  V30 601 C 53.4546 2.66207 2.23672 0
M  V30 602 H 52.7776 3.48378 1.96145 0
M  V30 603 H 54.2176 3.07685 2.9173 0
M  V30 604 C 52.6766 1.59151 2.96939 0
M  V30 605 O 53.2066 0.993858 3.89211 0
M  V30 606 N 51.4126 1.31093 2.59351 0
M  V30 607 H 50.9596 1.7988 1.84393 0
M  V30 608 H 50.9176 0.596889 3.08682 0
M  V30 609 N 54.6897 -0.239769 1.55765 0
M  V30 610 C 55.9177 -0.98417 1.81994 0
M  V30 611 C 56.3327 -1.7867 0.610124 0
M  V30 612 O 55.6897 -1.77571 -0.421271 0
M  V30 613 C 55.7407 -1.91635 3.06526 0
M  V30 614 O 55.4617 -1.14629 4.22838 0
M  V30 615 C 56.9627 -2.77616 3.45607 0
M  V30 616 H 54.1827 -0.28928 0.605441 0
M  V30 617 H 56.7267 -0.260499 2.02834 0
M  V30 618 H 54.8817 -2.5942 2.87715 0
M  V30 619 H 55.2957 -1.77745 4.93464 0
M  V30 620 H 56.7697 -3.38759 4.35828 0
M  V30 621 H 57.2467 -3.4909 2.6652 0
M  V30 622 H 57.8527 -2.15271 3.66795 0
M  V30 623 N 56.1678 -1.49265 -0.50573 0
M  V30 624 C 57.1178 -1.6198 -1.60457 0
M  V30 625 C 58.1018 -0.47568 -1.53708 0
M  V30 626 O 59.2938 -0.728392 -1.61318 0
M  V30 627 C 56.4228 -1.68526 -2.99089 0
M  V30 628 C 55.5088 -2.885 -3.10852 0
M  V30 629 N 55.8998 -4.12635 -2.92517 0
M  V30 630 C 54.1978 -2.86338 -3.41945 0
M  V30 631 C 54.8988 -4.93258 -3.08337 0
M  V30 632 N 53.8748 -4.26533 -3.37003 0
M  V30 633 H 57.6768 -2.55681 -1.44928 0
M  V30 634 H 55.1908 -1.45972 -0.711752 0
M  V30 635 H 57.1878 -1.75732 -3.78053 0
M  V30 636 H 55.8478 -0.759584 -3.1569 0
M  V30 637 H 56.8588 -4.42689 -2.68787 0
M  V30 638 H 53.5358 -2.03129 -3.64753 0
M  V30 639 H 54.9258 -6.01856 -2.98695 0
M  V30 640 N 57.6459 0.756429 -1.3826 0
M  V30 641 C 58.8939 1.51248 -1.34047 0
M  V30 642 C 59.2149 1.94875 0.0698372 0
M  V30 643 O 58.4849 1.67436 1.01696 0
M  V30 644 H 57.0649 0.561018 -0.493222 0
M  V30 645 H 59.7269 0.899347 -1.7291 0
M  V30 646 H 58.8229 2.40472 -1.98947 0
M  V30 647 N 59.124 1.23083 0.984299 0
M  V30 648 C 60.364 1.07226 1.74017 0
M  V30 649 C 60.728 -0.384766 1.88105 0
M  V30 650 O 61.929 -0.664411 2.60459 0
M  V30 651 C 60.2 1.77348 3.10294 0
M  V30 652 S 61.759 1.77014 4.01512 0
M  V30 653 H 58.577 0.383819 0.598502 0
M  V30 654 H 61.179 1.56158 1.17622 0
M  V30 655 H 59.883 2.82506 2.97689 0
M  V30 656 H 59.414 1.28682 3.71759 0
M  V30 657 H 61.429 0.825956 4.89277 0
M  V30 658 N 60.6021 -1.18246 1.0419 0
M  V30 659 C 62.0181 -1.40269 0.761366 0
M  V30 660 C 62.2181 -1.90777 -0.648578 0
M  V30 661 O 61.2741 -2.0929 -1.41258 0
M  V30 662 C 62.5871 -2.40237 1.8085 0
M  V30 663 C 64.1351 -2.53961 1.82955 0
M  V30 664 C 64.6101 -3.57194 2.86664 0
M  V30 665 N 66.1011 -3.64702 2.85563 0
M  V30 666 C 66.8361 -4.44309 3.6246 0
M  V30 667 N 66.3321 -5.27514 4.49111 0
M  V30 668 N 68.1251 -4.39084 3.50944 0
M  V30 669 H 60.2761 -0.837882 1.95175 0
M  V30 670 H 62.5391 -0.430608 0.84456 0
M  V30 671 H 62.2451 -2.10176 2.81991 0
M  V30 672 H 62.1191 -3.39601 1.64168 0
M  V30 673 H 64.5061 -2.83338 0.824855 0
M  V30 674 H 64.5871 -1.54706 2.03715 0
M  V30 675 H 64.2311 -3.28558 3.87314 0
M  V30 676 H 64.1611 -4.5613 2.6316 0
M  V30 677 H 66.6521 -3.05289 2.22727 0
M  V30 678 H 66.9651 -5.85411 5.04493 0
M  V30 679 H 65.3101 -5.2693 4.53178 0
M  V30 680 H 68.5011 -3.7313 2.82651 0
M  V30 681 H 68.6741 -5.00883 4.11121 0
M  V30 682 N 62.0802 -0.821533 -1.34494 0
M  V30 683 C 63.4962 -0.507117 -1.51329 0
M  V30 684 C 63.6962 0.968964 -1.76673 0
M  V30 685 O 62.7522 1.75348 -1.81685 0
M  V30 686 C 64.0652 -1.36544 -2.67911 0
M  V30 687 C 65.6132 -1.36242 -2.81793 0
M  V30 688 C 66.0882 -2.2052 -4.01416 0
M  V30 689 N 67.5792 -2.18136 -4.08621 0
M  V30 690 C 68.3142 -2.80095 -5.00334 0
M  V30 691 N 67.8102 -3.51039 -5.9728 0
M  V30 692 N 69.6032 -2.69656 -4.93196 0
M  V30 693 H 61.7542 -1.77729 -1.16302 0
M  V30 694 H 64.0172 -0.757291 -0.570276 0
M  V30 695 H 63.7232 -2.41361 -2.55808 0
M  V30 696 H 63.5972 -1.02917 -3.62888 0
M  V30 697 H 65.9842 -0.322041 -2.93338 0
M  V30 698 H 66.0652 -1.73866 -1.87628 0
M  V30 699 H 65.7092 -3.24607 -3.90631 0
M  V30 700 H 65.6392 -1.80247 -4.94791 0
M  V30 701 H 68.1302 -1.6653 -3.39229 0
M  V30 702 H 68.4432 -3.95565 -6.63889 0
M  V30 703 H 66.7882 -3.55145 -5.97409 0
M  V30 704 H 69.9792 -2.13808 -4.16418 0
M  V30 705 H 70.1522 -3.1823 -5.64476 0
M  V30 706 N 63.5583 1.46682 -0.576371 0
M  V30 707 C 64.8073 2.01619 -0.0572825 0
M  V30 708 C 65.1203 1.45417 1.30818 0
M  V30 709 O 66.3263 1.92133 1.91825 0
M  V30 710 C 64.7823 3.59863 -0.0518371 0
M  V30 711 C 64.3903 4.25059 -1.41523 0
M  V30 712 C 66.1343 4.2248 0.413639 0
M  V30 713 C 64.0413 5.75364 -1.36785 0
M  V30 714 H 62.9713 0.753794 -0.0176448 0
M  V30 715 H 65.6223 1.68481 -0.727076 0
M  V30 716 H 64.0043 3.90048 0.683994 0
M  V30 717 H 65.1783 4.06491 -2.17029 0
M  V30 718 H 63.4933 3.7451 -1.8202 0
M  V30 719 H 66.0903 5.3265 0.467779 0
M  V30 720 H 66.4333 3.90976 1.42982 0
M  V30 721 H 66.9663 3.96897 -0.267929 0
M  V30 722 H 63.7053 6.11518 -2.36063 0
M  V30 723 H 63.2253 5.96214 -0.654895 0
M  V30 724 H 64.9043 6.37955 -1.07805 0
M  V30 725 N 65.0364 0.313813 1.54444 0
M  V30 726 C 66.2824 -0.292108 2.00685 0
M  V30 727 C 66.6154 -1.52548 1.20177 0
M  V30 728 O 65.8904 -1.92452 0.281531 0
M  V30 729 C 66.1734 -0.635968 3.5444 0
M  V30 730 C 66.0264 0.607437 4.4568 0
M  V30 731 C 67.3454 -1.45747 4.15266 0
M  V30 732 H 64.4644 -0.104697 0.729526 0
M  V30 733 H 67.1064 0.428457 1.85106 0
M  V30 734 H 65.2564 -1.24986 3.67846 0
M  V30 735 H 66.9284 1.24581 4.44159 0
M  V30 736 H 65.1714 1.23822 4.15753 0
M  V30 737 H 65.8424 0.322515 5.51057 0
M  V30 738 H 68.3184 -0.938645 4.05375 0
M  V30 739 H 67.1944 -1.66683 5.2298 0
M  V30 740 H 67.4554 -2.45063 3.67963 0
M  V30 741 N 66.5145 -1.57545 0.0417849 0
M  V30 742 C 67.7605 -1.92601 -0.635021 0
M  V30 743 C 68.0935 -0.919627 -1.71045 0
M  V30 744 O 67.3685 0.0557892 -1.9442 0
M  V30 745 C 67.6515 -3.38085 -1.23979 0
M  V30 746 C 67.5045 -4.49467 -0.173057 0
M  V30 747 C 68.8235 -3.83776 -2.15416 0
M  V30 748 H 65.9425 -0.700397 -0.229374 0
M  V30 749 H 68.5845 -1.89728 0.101633 0
M  V30 750 H 66.7345 -3.40664 -1.86762 0
M  V30 751 H 68.4065 -4.59018 0.458312 0
M  V30 752 H 66.6495 -4.30909 0.499996 0
M  V30 753 H 67.3205 -5.48323 -0.636054 0
M  V30 754 H 69.7965 -3.83013 -1.62605 0
M  V30 755 H 68.6725 -4.8624 -2.54679 0
M  V30 756 H 68.9335 -3.19998 -3.05047 0
M  V30 757 N 67.9926 0.231505 -1.5589 0
M  V30 758 C 69.2176 0.978689 -1.82856 0
M  V30 759 C 69.6426 1.77559 -0.620846 0
M  V30 760 O 69.0006 1.76119 0.430305 0
M  V30 761 C 69.0486 1.87997 -3.07716 0
M  V30 762 O 68.1526 2.97393 -2.85712 0
M  V30 763 H 67.4936 0.277663 -0.603158 0
M  V30 764 H 70.0236 0.24783 -2.03093 0
M  V30 765 H 70.0336 2.2917 -3.37558 0
M  V30 766 H 68.7086 1.29417 -3.95252 0
M  V30 767 H 67.2856 2.60238 -2.67078 0
M  V30 768 N 69.4707 1.49531 0.497807 0
M  V30 769 C 70.8867 1.36365 0.829266 0
M  V30 770 C 71.0867 0.399184 1.97506 0
M  V30 771 O 70.1427 -0.167977 2.51941 0
M  V30 772 C 71.4557 2.77153 1.16647 0
M  V30 773 C 73.0037 2.85877 1.27449 0
M  V30 774 C 73.4787 4.2744 1.64497 0
M  V30 775 N 74.9697 4.30265 1.7154 0
M  V30 776 C 75.7047 5.3677 2.01656 0
M  V30 777 N 75.2007 6.53516 2.29976 0
M  V30 778 N 76.9937 5.24189 2.02934 0
M  V30 779 H 69.1447 2.10831 -0.257703 0
M  V30 780 H 71.4077 0.946534 -0.0527091 0
M  V30 781 H 71.1137 3.49442 0.397872 0
M  V30 782 H 70.9877 3.12722 2.10915 0
M  V30 783 H 73.3747 2.13824 2.0338 0
M  V30 784 H 73.4557 2.53887 0.312244 0
M  V30 785 H 73.0997 5.00021 0.891151 0
M  V30 786 H 73.0297 4.56896 2.61827 0
M  V30 787 H 75.5207 3.4607 1.51802 0
M  V30 788 H 75.8337 7.30506 2.52153 0
M  V30 789 H 74.1787 6.56737 2.27425 0
M  V30 790 H 77.3697 4.31988 1.80289 0
M  V30 791 H 77.5427 6.07286 2.26071 0
M  V30 792 N 70.9488 -0.749086 1.3866 0
M  V30 793 C 72.1968 -1.50535 1.34847 0
M  V30 794 C 72.5178 -1.94909 -0.0595016 0
M  V30 795 O 71.7878 -1.67973 -1.00806 0
M  V30 796 H 70.3678 -0.558395 0.49619 0
M  V30 797 H 73.0298 -0.890165 1.73384 0
M  V30 798 H 72.1258 -2.39413 2.00219 0
M  V30 799 N 72.4269 -1.23603 -0.977757 0
M  V30 800 C 73.8429 -0.999251 -1.24447 0
M  V30 801 C 74.0429 0.298053 -1.99283 0
M  V30 802 O 73.0989 1.01681 -2.31122 0
M  V30 803 C 74.4119 -2.20784 -2.04144 0
M  V30 804 C 75.9599 -2.25303 -2.17273 0
M  V30 805 C 76.4349 -3.45755 -3.00362 0
M  V30 806 N 77.9259 -3.4601 -3.07947 0
M  V30 807 C 78.6609 -4.35868 -3.72568 0
M  V30 808 N 78.1569 -5.35966 -4.38991 0
M  V30 809 N 79.9499 -4.23605 -3.6948 0
M  V30 810 H 72.1009 -2.06986 -0.476483 0
M  V30 811 H 74.3639 -0.907801 -0.273134 0
M  V30 812 H 74.0699 -3.14945 -1.56533 0
M  V30 813 H 73.9439 -2.22085 -3.04891 0
M  V30 814 H 76.3309 -1.3168 -2.64092 0
M  V30 815 H 76.4119 -2.28033 -1.15907 0
M  V30 816 H 76.0559 -4.39687 -2.5424 0
M  V30 817 H 75.9859 -3.40266 -4.01904 0
M  V30 818 H 78.4769 -2.73588 -2.60688 0
M  V30 819 H 78.7899 -6.00783 -4.86086 0
M  V30 820 H 77.1349 -5.39863 -4.37691 0
M  V30 821 H 80.3259 -3.44647 -3.16759 0
M  V30 822 H 80.4989 -4.93836 -4.1956 0
M  V30 823 N 73.905 1.17692 -1.04816 0
M  V30 824 C 74.835 2.23777 -0.666791 0
M  V30 825 C 75.816 1.66796 0.33361 0
M  V30 826 O 77.001 1.93039 0.212042 0
M  V30 827 C 74.131 3.47281 -0.0367933 0
M  V30 828 C 73.085 4.17059 -0.961546 0
M  V30 829 C 72.411 5.34342 -0.195626 0
M  V30 830 C 73.711 4.69713 -2.28402 0
M  V30 831 H 75.405 2.55933 -1.55367 0
M  V30 832 H 72.951 1.23019 -0.748484 0
M  V30 833 H 74.904 4.20706 0.241775 0
M  V30 834 H 73.628 3.14381 0.885004 0
M  V30 835 H 72.287 3.45541 -1.22462 0
M  V30 836 H 71.935 4.97692 0.728816 0
M  V30 837 H 71.635 5.81966 -0.811775 0
M  V30 838 H 73.159 6.10553 0.0757473 0
M  V30 839 H 74.573 5.34794 -2.06563 0
M  V30 840 H 72.97 5.279 -2.8538 0
M  V30 841 H 74.04 3.86726 -2.92525 0
M  V30 842 N 75.3831 0.828654 1.34056 0
M  V30 843 C 76.7991 0.515135 1.51058 0
M  V30 844 C 76.9991 -0.959581 1.77184 0
M  V30 845 O 76.0551 -1.74382 1.82612 0
M  V30 846 C 77.3681 1.37963 2.67183 0
M  V30 847 C 78.9161 1.37735 2.81066 0
M  V30 848 C 79.3911 2.22645 4.00241 0
M  V30 849 N 80.8821 2.203 4.07458 0
M  V30 850 C 81.6171 2.82744 4.98842 0
M  V30 851 N 81.1131 3.54201 5.9541 0
M  V30 852 N 82.9061 2.72268 4.91759 0
M  V30 853 H 75.0571 1.78343 1.15358 0
M  V30 854 H 77.3201 0.760304 0.566252 0
M  V30 855 H 77.0261 2.42714 2.54525 0
M  V30 856 H 76.9001 1.0484 3.62338 0
M  V30 857 H 79.2871 0.337593 2.93163 0
M  V30 858 H 79.3681 1.74859 1.86703 0
M  V30 859 H 79.0121 3.26674 3.88905 0
M  V30 860 H 78.9421 1.82869 4.93829 0
M  V30 861 H 81.4331 1.68327 3.38341 0
M  V30 862 H 81.7461 3.9908 6.61782 0
M  V30 863 H 80.0911 3.58308 5.95517 0
M  V30 864 H 83.2821 2.16014 4.15278 0
M  V30 865 H 83.4551 3.21219 5.62781 0
M  V30 866 N 76.8612 -1.46375 0.584142 0
M  V30 867 C 78.2772 -1.57694 0.245929 0
M  V30 868 C 78.4772 -1.57903 -1.25175 0
M  V30 869 O 77.5332 -1.49676 -2.03355 0
M  V30 870 C 78.8462 -2.87028 0.896402 0
M  V30 871 C 80.3942 -3.00662 0.870127 0
M  V30 872 C 80.8692 -4.32734 1.50017 0
M  V30 873 N 82.3602 -4.39436 1.46458 0
M  V30 874 C 83.0952 -5.40248 1.92144 0
M  V30 875 N 82.5912 -6.47726 2.4581 0
M  V30 876 N 84.3842 -5.31459 1.83052 0
M  V30 877 H 76.5352 -1.44483 1.55687 0
M  V30 878 H 78.7982 -0.689291 0.650831 0
M  V30 879 H 78.5042 -2.9269 1.95002 0
M  V30 880 H 78.3782 -3.75014 0.405486 0
M  V30 881 H 80.7652 -2.94581 -0.174871 0
M  V30 882 H 80.8462 -2.14148 1.39908 0
M  V30 883 H 80.4902 -4.39573 2.54437 0
M  V30 884 H 80.4202 -5.18025 0.946432 0
M  V30 885 H 82.9112 -3.62367 1.07231 0
M  V30 886 H 83.2242 -7.20863 2.78525 0
M  V30 887 H 81.5692 -6.48542 2.49836 0
M  V30 888 H 84.7602 -4.46396 1.40883 0
M  V30 889 H 84.9332 -6.09881 2.18973 0
M  V30 890 N 78.3393 -0.321999 -1.54275 0
M  V30 891 C 79.2693 0.537411 -2.27231 0
M  V30 892 C 80.2503 1.12064 -1.27968 0
M  V30 893 O 81.4353 1.14606 -1.56777 0
M  V30 894 C 78.5653 1.69919 -3.02894 0
M  V30 895 C 77.5193 1.24534 -4.09482 0
M  V30 896 C 76.8453 2.49394 -4.72977 0
M  V30 897 C 78.1453 0.361335 -5.21049 0
M  V30 898 H 79.8393 -0.0711406 -2.99315 0
M  V30 899 H 77.3853 -0.0356555 -1.43956 0
M  V30 900 H 79.3383 2.30668 -3.52662 0
M  V30 901 H 78.0623 2.33431 -2.28424 0
M  V30 902 H 76.7213 0.660782 -3.60596 0
M  V30 903 H 76.3693 3.11265 -3.95124 0
M  V30 904 H 76.0693 2.19718 -5.44975 0
M  V30 905 H 77.5933 3.10908 -5.25517 0
M  V30 906 H 79.0073 0.875072 -5.66582 0
M  V30 907 H 77.4043 0.157428 -5.99893 0
M  V30 908 H 78.4743 -0.60822 -4.8107 0
M  V30 909 N 79.8174 1.5752 -0.0501392 0
M  V30 910 C 80.7474 2.14502 0.922566 0
M  V30 911 C 81.7284 1.06642 1.3252 0
M  V30 912 O 82.9134 1.34577 1.4001 0
M  V30 913 C 80.0434 2.68916 2.19776 0
M  V30 914 C 78.9974 3.8175 1.93523 0
M  V30 915 C 78.3234 4.22677 3.27487 0
M  V30 916 C 79.6234 5.06932 1.25765 0
M  V30 917 H 81.3174 2.9603 0.447952 0
M  V30 918 H 78.8634 1.42401 0.214024 0
M  V30 919 H 80.8164 3.07419 2.88222 0
M  V30 920 H 79.5404 1.84578 2.69441 0
M  V30 921 H 78.1994 3.43718 1.27489 0
M  V30 922 H 77.8474 3.35291 3.74952 0
M  V30 923 H 77.5474 4.98725 3.1072 0
M  V30 924 H 79.0714 4.63779 3.97166 0
M  V30 925 H 80.4854 5.42888 1.84244 0
M  V30 926 H 78.8824 5.88116 1.19328 0
M  V30 927 H 79.9524 4.84337 0.233536 0
M  V30 928 N 81.2955 -0.223234 1.56011 0
M  V30 929 C 82.5415 -0.944891 1.8012 0
M  V30 930 C 82.8965 -1.82039 0.622862 0
M  V30 931 O 82.1895 -1.8773 -0.383143 0
M  V30 932 C 82.3835 -1.81948 3.0762 0
M  V30 933 C 82.2125 -1.03014 4.37742 0
M  V30 934 C 80.9825 -0.72574 5.00061 0
M  V30 935 C 83.1805 -0.396256 5.12771 0
M  V30 936 N 81.1625 0.0851816 6.13841 0
M  V30 937 C 82.5335 0.278137 6.19376 0
M  V30 938 C 84.5885 -0.309117 4.9694 0
M  V30 939 C 83.2915 1.03133 7.11868 0
M  V30 940 C 85.3175 0.430607 5.8983 0
M  V30 941 C 84.6795 1.09355 6.9586 0
M  V30 942 H 80.7785 -0.326081 0.710771 0
M  V30 943 H 83.3625 -0.215914 1.93499 0
M  V30 944 H 81.5335 -2.52029 2.95527 0
M  V30 945 H 83.2655 -2.47848 3.19927 0
M  V30 946 H 80.0205 -1.04335 4.61964 0
M  V30 947 H 80.4445 0.479428 6.753 0
M  V30 948 H 85.0865 -0.807313 4.15021 0
M  V30 949 H 82.8045 1.54105 7.9327 0
M  V30 950 H 86.3905 0.499012 5.79656 0
M  V30 951 H 85.2705 1.65679 7.66499 0
M  V30 952 N 82.7736 -1.49793 -0.48987 0
M  V30 953 C 84.0226 -1.59085 -1.23995 0
M  V30 954 C 84.3356 -0.287907 -1.9347 0
M  V30 955 O 85.5416 -0.259506 -2.70257 0
M  V30 956 C 83.9976 -2.80736 -2.252 0
M  V30 957 C 83.6056 -4.17833 -1.61614 0
M  V30 958 C 85.3496 -2.99364 -3.00967 0
M  V30 959 C 83.2566 -5.30693 -2.60996 0
M  V30 960 H 82.1866 -0.592372 -0.466488 0
M  V30 961 H 84.8376 -1.76197 -0.51252 0
M  V30 962 H 83.2196 -2.57142 -3.01154 0
M  V30 963 H 84.3936 -4.51608 -0.915774 0
M  V30 964 H 82.7086 -4.04656 -0.981977 0
M  V30 965 H 85.3056 -3.80851 -3.75308 0
M  V30 966 H 85.6486 -2.10356 -3.59244 0
M  V30 967 H 86.1816 -3.2305 -2.32128 0
M  V30 968 H 82.9206 -6.21796 -2.07485 0
M  V30 969 H 82.4406 -5.01359 -3.2924 0
M  V30 970 H 84.1196 -5.6049 -3.23202 0
M  V30 971 N 84.2517 0.741722 -1.39055 0
M  V30 972 C 85.4997 1.49818 -1.35643 0
M  V30 973 C 85.8207 1.94938 0.0491642 0
M  V30 974 O 85.0907 1.68505 0.999141 0
M  V30 975 H 83.6707 0.555755 -0.499144 0
M  V30 976 H 86.3327 0.880957 -1.73854 0
M  V30 977 H 85.4287 2.38348 -2.01486 0
M  V30 978 N 85.7298 1.2412 0.971189 0
M  V30 979 C 86.9768 1.07881 1.71371 0
M  V30 980 C 87.3048 -0.382901 1.90694 0
M  V30 981 O 86.5598 -1.29945 1.46331 0
M  V30 982 C 86.8588 1.75983 3.11071 0
M  V30 983 C 86.5248 3.25909 3.11599 0
M  V30 984 C 85.1868 3.66813 3.11451 0
M  V30 985 C 87.5388 4.21771 3.062 0
M  V30 986 C 84.8668 5.02021 3.03631 0
M  V30 987 C 87.2188 5.56982 2.99923 0
M  V30 988 C 85.8828 5.97237 2.98102 0
M  V30 989 H 85.1528 0.394764 0.62709 0
M  V30 990 H 87.7998 1.54176 1.13587 0
M  V30 991 H 86.1048 1.22072 3.72298 0
M  V30 992 H 87.8018 1.60887 3.6731 0
M  V30 993 H 84.3918 2.93353 3.12477 0
M  V30 994 H 88.5758 3.91172 3.05447 0
M  V30 995 H 83.8318 5.32411 3.0058 0
M  V30 996 H 88.0058 6.30969 2.94704 0
M  V30 997 H 85.6328 7.01967 2.91798 0
M  V30 998 N 87.2079 -1.17134 1.05439 0
M  V30 999 C 88.4359 -1.91372 0.786414 0
M  V30 1000 C 88.8509 -1.76955 -0.658202 0
M  V30 1001 O 88.2079 -1.10838 -1.44987 0
M  V30 1002 C 88.2589 -3.42356 1.1608 0
M  V30 1003 O 87.9799 -3.56332 2.54871 0
M  V30 1004 C 89.4809 -4.33663 0.919322 0
M  V30 1005 H 86.7009 -0.607118 0.285743 0
M  V30 1006 H 89.2449 -1.48525 1.40572 0
M  V30 1007 H 87.3999 -3.82939 0.586191 0
M  V30 1008 H 87.8139 -4.49896 2.69618 0
M  V30 1009 H 89.2879 -5.38099 1.231 0
M  V30 1010 H 89.7649 -4.38959 -0.145359 0
M  V30 1011 H 90.3709 -3.98796 1.47789 0
M  V30 1012 N 88.686 -0.835752 -1.33615 0
M  V30 1013 C 89.616 -0.281739 -2.31794 0
M  V30 1014 C 90.597 0.608833 -1.58831 0
M  V30 1015 O 91.782 0.533035 -1.86741 0
M  V30 1016 C 88.912 0.546612 -3.42971 0
M  V30 1017 C 87.866 -0.247904 -4.27281 0
M  V30 1018 C 87.192 0.704001 -5.30045 0
M  V30 1019 C 88.492 -1.46324 -5.01385 0
M  V30 1020 H 90.186 -1.10206 -2.78379 0
M  V30 1021 H 87.732 -0.531388 -1.33837 0
M  V30 1022 H 89.685 0.944467 -4.1068 0
M  V30 1023 H 88.409 1.40011 -2.95067 0
M  V30 1024 H 87.068 -0.627281 -3.61194 0
M  V30 1025 H 86.716 1.55381 -4.78399 0
M  V30 1026 H 86.416 0.176524 -5.87335 0
M  V30 1027 H 87.94 1.09944 -6.0062 0
M  V30 1028 H 89.354 -1.13871 -5.61877 0
M  V30 1029 H 87.751 -1.92728 -5.6831 0
M  V30 1030 H 88.821 -2.23467 -4.30338 0
M  V30 1031 N 90.1641 1.46063 -0.591896 0
M  V30 1032 C 91.3921 2.06717 -0.0868936 0
M  V30 1033 C 91.8071 1.43916 1.22203 0
M  V30 1034 O 91.1641 0.547698 1.74088 0
M  V30 1035 C 91.2151 3.6142 0.0758725 0
M  V30 1036 O 90.9361 4.21874 -1.18126 0
M  V30 1037 C 92.4371 4.39025 0.61416 0
M  V30 1038 H 89.6571 0.668162 -0.0616518 0
M  V30 1039 H 92.2011 1.8755 -0.815175 0
M  V30 1040 H 90.3561 3.79983 0.754413 0
M  V30 1041 H 90.7701 5.14861 -1.00092 0
M  V30 1042 H 92.2441 5.4783 0.677193 0
M  V30 1043 H 92.7211 4.07708 1.63312 0
M  V30 1044 H 93.3271 4.2529 -0.0298142 0
M  V30 1045 N 91.6422 0.330177 1.54103 0
M  V30 1046 C 92.6052 -0.520144 2.2322 0
M  V30 1047 C 93.6052 -1.03828 1.22786 0
M  V30 1048 O 94.7952 -0.929652 1.4732 0
M  V30 1049 C 91.9272 -1.72317 2.94142 0
M  V30 1050 H 93.1202 0.0841605 2.99782 0
M  V30 1051 H 90.6732 0.0813433 1.56088 0
M  V30 1052 H 91.4082 -2.36653 2.21734 0
M  V30 1053 H 91.1932 -1.35898 3.67796 0
M  V30 1054 H 92.6832 -2.3266 3.46784 0
M  V30 1055 N 93.1203 -1.57491 0.0584922 0
M  V30 1056 C 94.3663 -1.93264 -0.614558 0
M  V30 1057 C 94.6993 -0.937717 -1.7006 0
M  V30 1058 O 93.9743 0.0351652 -1.94468 0
M  V30 1059 C 94.2573 -3.3938 -1.20386 0
M  V30 1060 C 94.1103 -4.49625 -0.125375 0
M  V30 1061 C 95.4293 -3.86039 -2.11334 0
M  V30 1062 H 92.5483 -0.702791 -0.221933 0
M  V30 1063 H 95.1903 -1.8961 0.12175 0
M  V30 1064 H 93.3403 -3.42626 -1.83139 0
M  V30 1065 H 95.0123 -4.58506 0.506971 0
M  V30 1066 H 93.2553 -4.30354 0.545672 0
M  V30 1067 H 93.9263 -5.48967 -0.577861 0
M  V30 1068 H 96.4023 -3.84716 -1.58534 0
M  V30 1069 H 95.2783 -4.88914 -2.49507 0
M  V30 1070 H 95.5393 -3.23215 -3.01636 0
M  V30 1071 N 94.5984 0.214957 -1.56127 0
M  V30 1072 C 95.5614 1.24997 -1.92116 0
M  V30 1073 C 96.5614 1.39467 -0.800344 0
M  V30 1074 O 97.7514 1.37619 -1.06802 0
M  V30 1075 C 94.8834 2.62271 -2.17777 0
M  V30 1076 H 96.0764 0.942875 -2.84693 0
M  V30 1077 H 93.6294 0.455654 -1.49511 0
M  V30 1078 H 94.3644 2.98068 -1.27773 0
M  V30 1079 H 94.1494 2.53143 -2.99434 0
M  V30 1080 H 95.6394 3.36946 -2.46693 0
M  V30 1081 N 96.0765 1.50051 0.48192 0
M  V30 1082 C 97.0065 1.71046 1.58951 0
M  V30 1083 C 97.9875 0.559288 1.60642 0
M  V30 1084 O 99.1725 0.797243 1.77081 0
M  V30 1085 C 96.3025 1.79462 2.97339 0
M  V30 1086 C 95.2565 2.94558 3.10515 0
M  V30 1087 C 94.5825 2.88105 4.50444 0
M  V30 1088 C 95.8825 4.35227 2.88747 0
M  V30 1089 H 97.5765 2.6378 1.41635 0
M  V30 1090 H 95.1225 1.26936 0.679942 0
M  V30 1091 H 97.0755 1.92734 3.74742 0
M  V30 1092 H 95.7995 0.833412 3.15788 0
M  V30 1093 H 94.4585 2.80918 2.35543 0
M  V30 1094 H 94.1065 1.89853 4.65795 0
M  V30 1095 H 93.8065 3.65366 4.60197 0
M  V30 1096 H 95.3305 3.03412 5.29881 0
M  V30 1097 H 96.7445 4.49449 3.55905 0
M  V30 1098 H 95.1415 5.13856 3.09955 0
M  V30 1099 H 96.2115 4.48347 1.84696 0
M  V30 1100 N 97.5546 -0.734337 1.39446 0
M  V30 1101 C 98.8036 -1.48937 1.36017 0
M  V30 1102 C 99.1166 -1.95557 -0.0409005 0
M  V30 1103 O 100.323 -2.70779 -0.19778 0
M  V30 1104 C 98.7786 -2.69125 2.38955 0
M  V30 1105 C 98.3866 -2.29452 3.8478 0
M  V30 1106 C 100.131 -3.46944 2.44603 0
M  V30 1107 C 98.0376 -3.46366 4.79358 0
M  V30 1108 H 96.9676 -0.559296 0.505672 0
M  V30 1109 H 99.6186 -0.800983 1.65095 0
M  V30 1110 H 98.0006 -3.40041 2.02948 0
M  V30 1111 H 99.1746 -1.66077 4.29831 0
M  V30 1112 H 97.4896 -1.64723 3.82433 0
M  V30 1113 H 100.087 -4.33907 3.12456 0
M  V30 1114 H 100.43 -3.89454 1.47076 0
M  V30 1115 H 100.963 -2.83056 2.79507 0
M  V30 1116 H 97.7016 -3.08905 5.78151 0
M  V30 1117 H 97.2216 -4.08719 4.38986 0
M  V30 1118 H 98.9006 -4.12691 4.98292 0
M  V30 1119 N 99.0327 -1.24633 -0.964593 0
M  V30 1120 C 99.9627 -1.06611 -2.07741 0
M  V30 1121 C 100.944 0.0218666 -1.70086 0
M  V30 1122 O 102.129 -0.145793 -1.93652 0
M  V30 1123 C 99.2587 -0.673444 -3.40708 0
M  V30 1124 C 98.2127 -1.71054 -3.92332 0
M  V30 1125 C 97.5387 -1.17285 -5.21678 0
M  V30 1126 C 98.8387 -3.10718 -4.19824 0
M  V30 1127 H 100.533 -1.99693 -2.23076 0
M  V30 1128 H 98.0787 -0.96152 -1.07195 0
M  V30 1129 H 100.032 -0.534345 -4.17998 0
M  V30 1130 H 98.7557 0.293073 -3.25282 0
M  V30 1131 H 97.4147 -1.83791 -3.17201 0
M  V30 1132 H 97.0627 -0.196847 -5.02615 0
M  V30 1133 H 96.7627 -1.86592 -5.57187 0
M  V30 1134 H 98.2867 -1.04593 -6.01575 0
M  V30 1135 H 99.7007 -3.01192 -4.87808 0
M  V30 1136 H 98.0977 -3.77406 -4.66567 0
M  V30 1137 H 99.1677 -3.58524 -3.26479 0
M  V30 1138 N 100.511 1.16574 -1.06058 0
M  V30 1139 C 101.757 1.87565 -0.78683 0
M  V30 1140 C 102.112 1.80012 0.679214 0
M  V30 1141 O 101.405 1.20327 1.49104 0
M  V30 1142 C 101.599 3.36195 -1.21275 0
M  V30 1143 C 101.428 3.58216 -2.71866 0
M  V30 1144 C 100.198 3.7444 -3.39298 0
M  V30 1145 C 102.396 3.57134 -3.70081 0
M  V30 1146 N 100.378 3.84389 -4.78663 0
M  V30 1147 C 101.749 3.73038 -4.9522 0
M  V30 1148 C 103.804 3.40332 -3.63426 0
M  V30 1149 C 102.507 3.73879 -6.14497 0
M  V30 1150 C 104.533 3.42466 -4.82153 0
M  V30 1151 C 103.895 3.58887 -6.06118 0
M  V30 1152 H 99.9938 0.704081 -0.340284 0
M  V30 1153 H 102.578 1.39885 -1.35426 0
M  V30 1154 H 100.749 3.82522 -0.673179 0
M  V30 1155 H 102.481 3.94839 -0.887917 0
M  V30 1156 H 99.2358 3.74662 -2.89699 0
M  V30 1157 H 99.6598 3.93138 -5.51155 0
M  V30 1158 H 104.302 3.26566 -2.68541 0
M  V30 1159 H 102.02 3.86427 -7.09718 0
M  V30 1160 H 105.606 3.30712 -4.78666 0
M  V30 1161 H 104.486 3.60454 -6.9645 0
M  V30 1162 N 101.989 0.842826 1.3317 0
M  V30 1163 C 102.921 0.236245 2.27979 0
M  V30 1164 C 103.934 -0.585282 1.51915 0
M  V30 1165 O 105.123 -0.411705 1.73687 0
M  V30 1166 C 102.223 -0.685717 3.3189 0
M  V30 1167 C 101.396 0.0973448 4.37292 0
M  V30 1168 C 100.455 -0.748565 5.20848 0
M  V30 1169 O 99.4809 -0.186339 5.68895 0
M  V30 1170 N 100.683 -2.06527 5.42519 0
M  V30 1171 H 103.448 1.05088 2.80672 0
M  V30 1172 H 101.009 0.701667 1.45905 0
M  V30 1173 H 103.001 -1.25669 3.84694 0
M  V30 1174 H 101.571 -1.40105 2.79445 0
M  V30 1175 H 100.791 0.849706 3.84933 0
M  V30 1176 H 102.079 0.635643 5.04814 0
M  V30 1177 H 101.477 -2.54554 5.05192 0
M  V30 1178 H 100.034 -2.58464 5.98364 0
M  V30 1179 N 103.467 -1.45747 0.599634 0
M  V30 1180 C 104.707 -2.04181 0.0946309 0
M  V30 1181 C 105.071 -1.45895 -1.24815 0
M  V30 1182 O 106.272 -1.95633 -1.8434 0
M  V30 1183 C 104.543 -3.57368 0.047581 0
M  V30 1184 S 106.102 -4.36997 -0.397387 0
M  V30 1185 H 102.92 -0.70953 0.0456954 0
M  V30 1186 H 105.522 -1.78564 0.795946 0
M  V30 1187 H 104.226 -3.97303 1.02852 0
M  V30 1188 H 103.757 -3.87549 -0.675977 0
M  V30 1189 H 105.772 -4.68012 -1.64862 0
M  V30 1190 N 104.945 -0.338344 -1.53925 0
M  V30 1191 C 105.908 0.508299 -2.23493 0
M  V30 1192 C 106.908 1.03175 -1.23335 0
M  V30 1193 O 108.098 0.921826 -1.47811 0
M  V30 1194 C 105.23 1.70754 -2.95052 0
M  V30 1195 H 106.423 -0.100058 -2.99733 0
M  V30 1196 H 103.976 -0.0896198 -1.56043 0
M  V30 1197 H 104.711 2.35474 -2.22986 0
M  V30 1198 H 104.496 1.33946 -3.68512 0
M  V30 1199 H 105.986 2.30818 -3.48013 0
M  V30 1200 N 106.423 1.57458 -0.0668435 0
M  V30 1201 C 107.353 2.15468 0.899764 0
M  V30 1202 C 108.334 1.08042 1.31381 0
M  V30 1203 O 109.519 1.36054 1.38574 0
M  V30 1204 C 106.649 2.71232 2.16911 0
M  V30 1205 C 105.603 3.83781 1.89463 0
M  V30 1206 C 104.929 4.26127 3.22986 0
M  V30 1207 C 106.229 5.08238 1.20381 0
M  V30 1208 H 107.923 2.96488 0.416529 0
M  V30 1209 H 105.469 1.4262 0.198908 0
M  V30 1210 H 107.422 3.10458 2.84945 0
M  V30 1211 H 106.146 1.87426 2.67468 0
M  V30 1212 H 104.805 3.45051 1.23836 0
M  V30 1213 H 104.453 3.39249 3.71374 0
M  V30 1214 H 104.153 5.01993 3.05413 0
M  V30 1215 H 105.677 4.67966 3.92225 0
M  V30 1216 H 107.091 5.44811 1.78475 0
M  V30 1217 H 105.488 5.89349 1.13083 0
M  V30 1218 H 106.558 4.84558 0.182153 0
M  V30 1219 N 107.901 -0.206675 1.56239 0
M  V30 1220 C 108.831 -1.25909 1.96645 0
M  V30 1221 C 109.812 -1.48097 0.836734 0
M  V30 1222 O 110.997 -1.6003 1.10019 0
M  V30 1223 C 108.127 -2.6058 2.29599 0
M  V30 1224 C 107.081 -2.53024 3.452 0
M  V30 1225 C 106.407 -3.91861 3.63798 0
M  V30 1226 C 107.707 -2.06524 4.79734 0
M  V30 1227 H 109.401 -0.923369 2.84806 0
M  V30 1228 H 106.947 -0.442735 1.37025 0
M  V30 1229 H 108.9 -3.34375 2.56459 0
M  V30 1230 H 107.624 -2.95869 1.38307 0
M  V30 1231 H 106.283 -1.81684 3.18412 0
M  V30 1232 H 105.931 -4.24483 2.69857 0
M  V30 1233 H 105.631 -3.87683 4.4156 0
M  V30 1234 H 107.155 -4.67296 3.93022 0
M  V30 1235 H 108.569 -2.70072 5.05702 0
M  V30 1236 H 106.966 -2.13374 5.60885 0
M  V30 1237 H 108.036 -1.01802 4.74093 0
M  V30 1238 N 109.379 -1.50304 -0.473955 0
M  V30 1239 C 110.625 -1.61389 -1.22806 0
M  V30 1240 C 110.958 -0.311955 -1.91678 0
M  V30 1241 O 110.233 0.686384 -1.81986 0
M  V30 1242 C 110.516 -2.79219 -2.27396 0
M  V30 1243 C 110.369 -4.19286 -1.62848 0
M  V30 1244 C 111.688 -2.92614 -3.28732 0
M  V30 1245 H 108.807 -0.587399 -0.445119 0
M  V30 1246 H 111.449 -1.82681 -0.522265 0
M  V30 1247 H 109.599 -2.61195 -2.87592 0
M  V30 1248 H 111.271 -4.48892 -1.06271 0
M  V30 1249 H 109.514 -4.23677 -0.931693 0
M  V30 1250 H 110.185 -4.97655 -2.38838 0
M  V30 1251 H 112.661 -3.09105 -2.78556 0
M  V30 1252 H 111.537 -3.76688 -3.99246 0
M  V30 1253 H 111.798 -2.03107 -3.92683 0
M  V30 1254 N 110.857 0.726932 -1.39834 0
M  V30 1255 C 112.104 1.48664 -1.37496 0
M  V30 1256 C 112.432 1.94482 0.0264678 0
M  V30 1257 O 111.687 1.67692 1.00886 0
M  V30 1258 C 111.986 2.73495 -2.30077 0
M  V30 1259 C 111.652 2.46502 -3.77555 0
M  V30 1260 C 110.314 2.3885 -4.17737 0
M  V30 1261 C 112.666 2.23604 -4.70798 0
M  V30 1262 C 109.994 2.06352 -5.49214 0
M  V30 1263 C 112.346 1.92622 -6.02561 0
M  V30 1264 C 111.01 1.83444 -6.41798 0
M  V30 1265 H 110.28 0.544001 -0.503135 0
M  V30 1266 H 112.927 0.833657 -1.72402 0
M  V30 1267 H 111.232 3.43575 -1.88317 0
M  V30 1268 H 112.929 3.31549 -2.25558 0
M  V30 1269 H 109.519 2.5334 -3.45712 0
M  V30 1270 H 113.703 2.28479 -4.40581 0
M  V30 1271 H 108.959 1.97776 -5.78528 0
M  V30 1272 H 113.133 1.73914 -6.74334 0
M  V30 1273 H 110.76 1.58029 -7.43593 0
M  V30 1274 N 112.336 1.25143 0.95797 0
M  V30 1275 C 113.561 1.12521 1.74223 0
M  V30 1276 C 113.986 -0.317402 1.85403 0
M  V30 1277 O 113.344 -1.2299 1.33204 0
M  V30 1278 C 113.392 1.78062 3.1357 0
M  V30 1279 O 112.496 1.058 3.98598 0
M  V30 1280 H 111.837 0.39304 0.535178 0
M  V30 1281 H 114.367 1.65641 1.201 0
M  V30 1282 H 114.377 1.84213 3.64046 0
M  V30 1283 H 113.052 2.83021 3.04749 0
M  V30 1284 H 111.629 1.07506 3.57067 0
M  V30 1285 N 113.814 -1.1601 1.06675 0
M  V30 1286 C 115.061 -1.86633 0.785781 0
M  V30 1287 C 115.389 -1.81929 -0.687896 0
M  V30 1288 O 114.644 -1.23253 -1.52011 0
M  V30 1289 C 114.943 -3.35547 1.23057 0
M  V30 1290 C 114.609 -3.60448 2.70902 0
M  V30 1291 C 113.271 -3.66954 3.11285 0
M  V30 1292 C 115.623 -3.7071 3.66365 0
M  V30 1293 C 112.951 -3.81225 4.45965 0
M  V30 1294 C 115.303 -3.86503 5.00797 0
M  V30 1295 C 113.967 -3.91252 5.40813 0
M  V30 1296 H 113.237 -0.682937 0.287538 0
M  V30 1297 H 115.884 -1.37146 1.33654 0
M  V30 1298 H 114.189 -3.87193 0.59907 0
M  V30 1299 H 115.886 -3.88583 0.990163 0
M  V30 1300 H 112.476 -3.56021 2.38636 0
M  V30 1301 H 116.66 -3.64991 3.36296 0
M  V30 1302 H 111.916 -3.83155 4.76447 0
M  V30 1303 H 116.09 -3.93385 5.74649 0
M  V30 1304 H 113.717 -4.02062 6.45174 0
M  V30 1305 N 115.292 -0.849877 -1.32721 0
M  V30 1306 C 116.522 -0.46408 -2.0132 0
M  V30 1307 C 116.93 0.94246 -1.64056 0
M  V30 1308 O 116.273 1.6257 -0.855379 0
M  V30 1309 C 116.335 -0.517887 -3.5575 0
M  V30 1310 C 115.999 -1.88248 -4.16427 0
M  V30 1311 C 116.996 -2.84726 -4.35002 0
M  V30 1312 C 114.681 -2.17832 -4.52609 0
M  V30 1313 C 116.675 -4.08945 -4.8892 0
M  V30 1314 C 114.362 -3.42304 -5.06232 0
M  V30 1315 C 115.36 -4.37677 -5.24335 0
M  V30 1316 O 115.048 -5.59946 -5.76815 0
M  V30 1317 H 114.78 -0.181327 -0.651227 0
M  V30 1318 H 117.334 -1.14713 -1.70382 0
M  V30 1319 H 115.564 0.221997 -3.86062 0
M  V30 1320 H 117.253 -0.148366 -4.05629 0
M  V30 1321 H 118.019 -2.63174 -4.07388 0
M  V30 1322 H 113.898 -1.44385 -4.37806 0
M  V30 1323 H 117.442 -4.83396 -5.02966 0
M  V30 1324 H 113.339 -3.63709 -5.33278 0
M  V30 1325 H 114.107 -5.61838 -5.95214 0
M  V30 1326 N 116.77 1.45427 -0.607355 0
M  V30 1327 C 117.998 2.06614 -0.108814 0
M  V30 1328 C 118.413 1.45204 1.2067 0
M  V30 1329 O 117.77 0.566132 1.73497 0
M  V30 1330 C 117.821 3.61481 0.0375347 0
M  V30 1331 O 117.542 4.20598 -1.22593 0
M  V30 1332 C 119.043 4.39652 0.567561 0
M  V30 1333 H 116.263 0.66747 -0.0687351 0
M  V30 1334 H 118.807 1.86675 -0.835022 0
M  V30 1335 H 116.962 3.80762 0.714068 0
M  V30 1336 H 117.376 5.1377 -1.05547 0
M  V30 1337 H 118.85 5.48518 0.61905 0
M  V30 1338 H 119.327 4.09417 1.58978 0
M  V30 1339 H 119.933 4.25234 -0.0749202 0
M  V30 1340 N 118.248 0.346503 1.53744 0
M  V30 1341 C 119.494 -0.249473 2.0126 0
M  V30 1342 C 119.827 -1.49965 1.23386 0
M  V30 1343 O 119.102 -1.91811 0.32229 0
M  V30 1344 C 119.385 -0.560643 3.55709 0
M  V30 1345 C 119.238 0.701836 4.44291 0
M  V30 1346 C 120.557 -1.36905 4.18264 0
M  V30 1347 H 117.676 -0.0891987 0.731582 0
M  V30 1348 H 120.318 0.467624 1.84156 0
M  V30 1349 H 118.468 -1.17156 3.70414 0
M  V30 1350 H 120.14 1.33974 4.41417 0
M  V30 1351 H 118.383 1.32612 4.13033 0
M  V30 1352 H 119.054 0.43933 5.50249 0
M  V30 1353 H 121.53 -0.852448 4.07275 0
M  V30 1354 H 120.406 -1.55553 5.26398 0
M  V30 1355 H 120.667 -2.37203 3.73078 0
M  V30 1356 N 119.726 -1.57421 0.075193 0
M  V30 1357 C 120.951 -1.98364 -0.605515 0
M  V30 1358 C 121.376 -0.953383 -1.62149 0
M  V30 1359 O 120.734 0.0806053 -1.81121 0
M  V30 1360 C 120.782 -3.38332 -1.24756 0
M  V30 1361 O 119.886 -3.37959 -2.36342 0
M  V30 1362 H 119.227 -0.645553 -0.155428 0
M  V30 1363 H 121.757 -2.04044 0.150714 0
M  V30 1364 H 121.767 -3.75591 -1.5936 0
M  V30 1365 H 120.442 -4.12846 -0.503129 0
M  V30 1366 H 119.019 -3.12474 -2.03506 0
M  V30 1367 N 121.204 0.198386 -1.56346 0
M  V30 1368 C 122.45 0.920648 -1.80698 0
M  V30 1369 C 122.783 1.83045 -0.648697 0
M  V30 1370 O 122.058 1.91308 0.350925 0
M  V30 1371 C 122.341 1.73971 -3.15287 0
M  V30 1372 C 122.194 0.85485 -4.41602 0
M  V30 1373 C 123.513 2.71296 -3.46535 0
M  V30 1374 H 120.632 0.333261 -0.657348 0
M  V30 1375 H 123.274 0.188198 -1.89066 0
M  V30 1376 H 121.424 2.36416 -3.08285 0
M  V30 1377 H 123.096 0.245362 -4.60647 0
M  V30 1378 H 121.339 0.161398 -4.335 0
M  V30 1379 H 122.01 1.46286 -5.32264 0
M  V30 1380 H 124.486 2.18983 -3.53816 0
M  V30 1381 H 123.362 3.2569 -4.41834 0
M  V30 1382 H 123.623 3.5018 -2.69864 0
M  V30 1383 N 122.682 1.50554 0.465978 0
M  V30 1384 C 123.907 1.65838 1.24549 0
M  V30 1385 C 124.332 0.343486 1.84937 0
M  V30 1386 O 123.69 -0.69324 1.67523 0
M  V30 1387 C 123.738 2.75533 2.32624 0
M  V30 1388 O 122.842 2.37142 3.37398 0
M  V30 1389 H 122.183 0.553893 0.366194 0
M  V30 1390 H 124.713 1.96959 0.553927 0
M  V30 1391 H 124.723 2.98763 2.77857 0
M  V30 1392 H 123.398 3.70962 1.88043 0
M  V30 1393 H 121.975 2.24377 2.97841 0
M  V30 1394 N 124.16 -0.719506 1.40217 0
M  V30 1395 C 125.409 -1.47486 1.37589 0
M  V30 1396 C 125.722 -1.9559 -0.0201568 0
M  V30 1397 O 126.928 -2.70973 -0.169049 0
M  V30 1398 C 125.384 -2.66575 2.41796 0
M  V30 1399 C 124.992 -2.25358 3.87192 0
M  V30 1400 C 126.736 -3.4433 2.48269 0
M  V30 1401 C 124.643 -3.41262 4.83005 0
M  V30 1402 H 123.573 -0.553901 0.511576 0
M  V30 1403 H 126.224 -0.783427 1.65936 0
M  V30 1404 H 124.606 -3.3787 2.06543 0
M  V30 1405 H 125.78 -1.61509 4.31569 0
M  V30 1406 H 124.095 -1.60657 3.84159 0
M  V30 1407 H 126.692 -4.30569 3.17041 0
M  V30 1408 H 127.035 -3.87872 1.51198 0
M  V30 1409 H 127.568 -2.80076 2.82493 0
M  V30 1410 H 124.307 -3.02755 5.81394 0
M  V30 1411 H 123.827 -4.0404 4.43297 0
M  V30 1412 H 125.506 -4.07383 5.02641 0
M  V30 1413 N 125.638 -1.25649 -0.95132 0
M  V30 1414 C 126.585 -1.06323 -2.04851 0
M  V30 1415 C 127.555 0.0286491 -1.66075 0
M  V30 1416 O 128.74 -0.12917 -1.90362 0
M  V30 1417 C 125.88 -0.691529 -3.381 0
M  V30 1418 C 124.993 -1.85861 -3.89974 0
M  V30 1419 C 124.128 -1.43096 -5.11563 0
M  V30 1420 C 123.167 -2.56696 -5.55674 0
M  V30 1421 N 122.304 -2.14684 -6.68472 0
M  V30 1422 H 127.144 -2.00222 -2.20715 0
M  V30 1423 H 124.681 -0.997027 -1.08156 0
M  V30 1424 H 126.639 -0.456963 -4.1469 0
M  V30 1425 H 125.269 0.210474 -3.22113 0
M  V30 1426 H 124.321 -2.20639 -3.09875 0
M  V30 1427 H 125.633 -2.71161 -4.18657 0
M  V30 1428 H 124.787 -1.15624 -5.9558 0
M  V30 1429 H 123.526 -0.548722 -4.84603 0
M  V30 1430 H 122.531 -2.84909 -4.7022 0
M  V30 1431 H 123.756 -3.45503 -5.8464 0
M  V30 1432 H 121.702 -1.28881 -6.43215 0
M  V30 1433 H 121.619 -2.9353 -6.96689 0
M  V30 1434 H 122.887 -1.90397 -7.5589 0
M  V30 1435 N 127.117 1.15442 -1.07289 0
M  V30 1436 C 128.363 1.86489 -0.796846 0
M  V30 1437 C 128.696 1.82078 0.675371 0
M  V30 1438 O 127.971 1.24346 1.4956 0
M  V30 1439 C 128.254 3.35626 -1.30489 0
M  V30 1440 C 128.107 3.48673 -2.84161 0
M  V30 1441 C 129.426 4.30357 -0.920907 0
M  V30 1442 H 126.545 0.677144 -0.290939 0
M  V30 1443 H 129.187 1.35633 -1.33056 0
M  V30 1444 H 127.337 3.79068 -0.850883 0
M  V30 1445 H 129.009 3.14099 -3.37846 0
M  V30 1446 H 127.252 2.90253 -3.22391 0
M  V30 1447 H 127.923 4.53453 -3.14777 0
M  V30 1448 H 130.399 3.94871 -1.3121 0
M  V30 1449 H 129.275 5.33193 -1.30372 0
M  V30 1450 H 129.536 4.4176 0.173226 0
M  V30 1451 N 128.595 0.856903 1.32268 0
M  V30 1452 C 129.545 0.274899 2.26337 0
M  V30 1453 C 130.529 -0.580543 1.50062 0
M  V30 1454 O 131.721 -0.429559 1.71708 0
M  V30 1455 C 128.85 -0.533841 3.39124 0
M  V30 1456 C 127.936 0.334114 4.22782 0
M  V30 1457 N 128.327 1.42143 4.85416 0
M  V30 1458 C 126.625 0.124256 4.45827 0
M  V30 1459 C 127.326 1.95559 5.47843 0
M  V30 1460 N 126.302 1.25444 5.28928 0
M  V30 1461 H 130.104 1.10612 2.72291 0
M  V30 1462 H 127.618 0.703258 1.46383 0
M  V30 1463 H 129.615 -0.96722 4.05525 0
M  V30 1464 H 128.275 -1.36283 2.94715 0
M  V30 1465 H 129.286 1.80436 4.85451 0
M  V30 1466 H 125.963 -0.669837 4.12092 0
M  V30 1467 H 127.353 2.86714 6.07655 0
M  V30 1468 N 130.073 -1.45103 0.615059 0
M  V30 1469 C 131.32 -2.02183 0.113179 0
M  V30 1470 C 131.648 -1.48249 -1.25906 0
M  V30 1471 O 130.903 -0.650265 -1.84581 0
M  V30 1472 C 131.202 -3.57386 0.0318797 0
M  V30 1473 C 130.868 -4.30505 1.34077 0
M  V30 1474 C 129.53 -4.50197 1.69929 0
M  V30 1475 C 131.882 -4.72238 2.20546 0
M  V30 1476 C 129.21 -5.08881 2.91988 0
M  V30 1477 C 131.562 -5.32272 3.41861 0
M  V30 1478 C 130.226 -5.50187 3.77956 0
M  V30 1479 H 129.496 -0.739842 0.0414151 0
M  V30 1480 H 132.143 -1.74073 0.798168 0
M  V30 1481 H 130.448 -3.84817 -0.736409 0
M  V30 1482 H 132.145 -3.99264 -0.372712 0
M  V30 1483 H 128.735 -4.15496 1.05173 0
M  V30 1484 H 132.919 -4.56751 1.94146 0
M  V30 1485 H 128.175 -5.20939 3.2005 0
M  V30 1486 H 132.349 -5.63563 4.09109 0
M  V30 1487 H 129.976 -5.95427 4.72622 0
M  V30 1488 N 131.551 -0.354651 -1.53558 0
M  V30 1489 C 132.967 -0.00315426 -1.596 0
M  V30 1490 C 133.167 1.47741 -1.37021 0
M  V30 1491 O 132.223 2.23759 -1.16996 0
M  V30 1492 C 133.536 -0.44929 -2.97325 0
M  V30 1493 C 135.084 -0.402578 -3.104 0
M  V30 1494 C 135.559 -0.824355 -4.5052 0
M  V30 1495 N 137.05 -0.778979 -4.56603 0
M  V30 1496 C 137.785 -1.07715 -5.63192 0
M  V30 1497 N 137.281 -1.44405 -6.77583 0
M  V30 1498 N 139.074 -1.00066 -5.53121 0
M  V30 1499 H 131.225 -1.31893 -1.66487 0
M  V30 1500 H 133.488 -0.538388 -0.780284 0
M  V30 1501 H 133.194 -1.48202 -3.1895 0
M  V30 1502 H 133.068 0.169772 -3.76818 0
M  V30 1503 H 135.455 0.621004 -2.88492 0
M  V30 1504 H 135.536 -1.05699 -2.32941 0
M  V30 1505 H 135.18 -1.846 -4.73165 0
M  V30 1506 H 135.11 -0.147304 -5.26394 0
M  V30 1507 H 137.601 -0.508528 -3.74463 0
M  V30 1508 H 137.914 -1.65612 -7.54846 0
M  V30 1509 H 136.259 -1.4826 -6.79002 0
M  V30 1510 H 139.45 -0.713293 -4.62633 0
M  V30 1511 H 139.623 -1.23638 -6.36096 0
M  V30 1512 N 133.029 1.57378 -0.0835403 0
M  V30 1513 C 133.976 2.13384 0.879539 0
M  V30 1514 C 134.946 1.04936 1.28754 0
M  V30 1515 O 136.131 1.32662 1.37133 0
M  V30 1516 C 133.271 2.70932 2.13752 0
M  V30 1517 C 132.384 3.93575 1.7811 0
M  V30 1518 C 131.519 4.39326 2.98607 0
M  V30 1519 C 130.558 5.54587 2.59037 0
M  V30 1520 N 129.695 5.95243 3.72331 0
M  V30 1521 H 134.535 2.9537 0.395076 0
M  V30 1522 H 132.072 1.45953 0.183349 0
M  V30 1523 H 134.03 3.02411 2.87408 0
M  V30 1524 H 132.66 1.91693 2.59718 0
M  V30 1525 H 131.712 3.68483 0.94469 0
M  V30 1526 H 133.024 4.77258 1.45005 0
M  V30 1527 H 132.178 4.72528 3.80529 0
M  V30 1528 H 130.917 3.5452 3.34913 0
M  V30 1529 H 129.922 5.21024 1.75539 0
M  V30 1530 H 131.147 6.41133 2.23887 0
M  V30 1531 H 129.093 5.13385 4.08378 0
M  V30 1532 H 129.01 6.73694 3.43034 0
M  V30 1533 H 130.278 6.33072 4.54797 0
M  V30 1534 N 134.507 -0.190092 1.56449 0
M  V30 1535 C 135.437 -1.23816 1.97969 0
M  V30 1536 C 136.418 -1.47201 0.852395 0
M  V30 1537 O 137.603 -1.58854 1.1171 0
M  V30 1538 C 134.733 -2.5813 2.3235 0
M  V30 1539 C 133.687 -2.49348 3.47864 0
M  V30 1540 C 133.013 -3.8798 3.67934 0
M  V30 1541 C 134.313 -2.01424 4.81898 0
M  V30 1542 H 136.007 -0.89311 2.85769 0
M  V30 1543 H 133.553 -0.428177 1.37487 0
M  V30 1544 H 135.506 -3.31637 2.59991 0
M  V30 1545 H 134.23 -2.94386 1.41438 0
M  V30 1546 H 132.889 -1.78297 3.20321 0
M  V30 1547 H 132.537 -4.21597 2.74344 0
M  V30 1548 H 132.237 -3.82978 4.45648 0
M  V30 1549 H 133.761 -4.63101 3.97957 0
M  V30 1550 H 135.175 -2.64693 5.08538 0
M  V30 1551 H 133.572 -2.07413 5.63116 0
M  V30 1552 H 134.642 -0.967677 4.75146 0
M  V30 1553 N 135.985 -1.50799 -0.457987 0
M  V30 1554 C 137.262 -1.52968 -1.21902 0
M  V30 1555 C 137.642 -0.281906 -2.09209 0
M  V30 1556 O 136.99 0.734076 -2.16388 0
M  V30 1557 C 137.2 -2.8326 -2.03875 0
M  V30 1558 C 138.548 -3.34425 -2.6162 0
M  V30 1559 O 139.572 -2.8467 -2.14106 0
M  V30 1560 O 138.431 -4.21188 -3.48228 0
M  V30 1561 H 135.525 -0.614129 -0.553873 0
M  V30 1562 H 138.071 -1.63098 -0.468739 0
M  V30 1563 H 136.843 -3.65543 -1.39621 0
M  V30 1564 H 136.466 -2.76195 -2.8601 0
M  V30 1565 N 137.463 0.71206 -1.40597 0
M  V30 1566 C 138.71 1.47197 -1.39065 0
M  V30 1567 C 139.038 1.94499 0.00583891 0
M  V30 1568 O 138.293 1.68752 0.99102 0
M  V30 1569 C 138.592 2.71039 -2.32965 0
M  V30 1570 C 138.258 2.42484 -3.80148 0
M  V30 1571 C 136.92 2.34406 -4.20247 0
M  V30 1572 C 139.272 2.18598 -4.73143 0
M  V30 1573 C 136.6 2.00516 -5.51371 0
M  V30 1574 C 138.952 1.8622 -6.0457 0
M  V30 1575 C 137.616 1.76626 -6.43708 0
M  V30 1576 H 136.886 0.538634 -0.508876 0
M  V30 1577 H 139.533 0.815325 -1.73276 0
M  V30 1578 H 137.838 3.41558 -1.91951 0
M  V30 1579 H 139.535 3.29138 -2.29061 0
M  V30 1580 H 136.125 2.49659 -3.4838 0
M  V30 1581 H 140.309 2.23793 -4.42979 0
M  V30 1582 H 135.565 1.91628 -5.80593 0
M  V30 1583 H 139.739 1.66752 -6.76141 0
M  V30 1584 H 137.366 1.50133 -7.45228 0
M  V30 1585 N 138.941 1.26152 0.944643 0
M  V30 1586 C 140.352 1.10454 1.50522 0
M  V30 1587 C 140.703 -0.31635 1.93633 0
M  V30 1588 O 139.828 -1.20746 1.79581 0
M  V30 1589 C 140.423 1.99891 2.73549 0
M  V30 1590 C 138.982 1.88348 3.25886 0
M  V30 1591 C 138.129 1.93447 1.9868 0
M  V30 1592 H 141.08 1.39292 0.760489 0
M  V30 1593 H 141.101 1.54477 3.47732 0
M  V30 1594 H 140.613 3.03297 2.42141 0
M  V30 1595 H 138.714 0.878636 3.62092 0
M  V30 1596 H 138.827 2.73696 3.93227 0
M  V30 1597 H 137.191 1.37456 2.14425 0
M  V30 1598 H 137.974 2.98476 1.69607 0
M  V30 1599 N 140.419 -1.14872 1.07899 0
M  V30 1600 C 141.382 -2.17986 0.708161 0
M  V30 1601 C 142.382 -1.58775 -0.25442 0
M  V30 1602 O 143.572 -1.74166 -0.034645 0
M  V30 1603 C 140.704 -3.40871 0.0446929 0
M  V30 1604 H 141.897 -2.52306 1.62116 0
M  V30 1605 H 139.45 -1.2943 0.876218 0
M  V30 1606 H 140.185 -3.12124 -0.880281 0
M  V30 1607 H 139.97 -3.8511 0.737091 0
M  V30 1608 H 141.46 -4.17121 -0.19991 0
M  V30 1609 N 141.898 -0.863906 -1.31812 0
M  V30 1610 C 143.144 -0.472535 -1.97218 0
M  V30 1611 C 143.477 0.971394 -1.68159 0
M  V30 1612 O 142.752 1.68309 -0.974798 0
M  V30 1613 C 143.035 -0.723054 -3.52766 0
M  V30 1614 C 142.888 -2.21608 -3.91421 0
M  V30 1615 C 144.207 -0.185522 -4.39709 0
M  V30 1616 H 141.326 -0.173158 -0.71637 0
M  V30 1617 H 143.968 -1.08403 -1.56041 0
M  V30 1618 H 142.118 -0.202577 -3.87971 0
M  V30 1619 H 143.79 -2.80334 -3.66347 0
M  V30 1620 H 142.033 -2.691 -3.40246 0
M  V30 1621 H 142.704 -2.34203 -4.99853 0
M  V30 1622 H 145.18 -0.630726 -4.11292 0
M  V30 1623 H 144.056 -0.390306 -5.47511 0
M  V30 1624 H 144.317 0.912229 -4.32586 0
M  V30 1625 N 143.376 1.44774 -0.622745 0
M  V30 1626 C 144.604 2.06487 -0.130722 0
M  V30 1627 C 145.019 1.46476 1.19123 0
M  V30 1628 O 144.376 0.584502 1.72887 0
M  V30 1629 C 144.427 3.615 -0.000807207 0
M  V30 1630 O 144.148 4.19274 -1.27048 0
M  V30 1631 C 145.649 4.40229 0.520898 0
M  V30 1632 H 142.869 0.666704 -0.0758106 0
M  V30 1633 H 145.413 1.85779 -0.854774 0
M  V30 1634 H 143.568 3.81498 0.673643 0
M  V30 1635 H 143.982 5.12622 -1.1099 0
M  V30 1636 H 145.456 5.49144 0.560838 0
M  V30 1637 H 145.933 4.1108 1.54627 0
M  V30 1638 H 146.539 4.25131 -0.120018 0
M  V30 1639 N 144.854 0.36279 1.53368 0
M  V30 1640 C 146.103 -0.22888 2.00397 0
M  V30 1641 C 146.416 -1.50096 1.25421 0
M  V30 1642 O 147.622 -2.17106 1.63025 0
M  V30 1643 C 146.078 -0.458417 3.56969 0
M  V30 1644 C 145.686 0.798877 4.4082 0
M  V30 1645 C 147.43 -1.00789 4.12361 0
M  V30 1646 C 145.337 0.539078 5.88938 0
M  V30 1647 H 144.267 -0.089305 0.748693 0
M  V30 1648 H 146.918 0.481099 1.77081 0
M  V30 1649 H 145.3 -1.22959 3.76427 0
M  V30 1650 H 146.474 1.57262 4.33134 0
M  V30 1651 H 144.789 1.27137 3.96516 0
M  V30 1652 H 147.386 -1.21754 5.20653 0
M  V30 1653 H 147.729 -1.9692 3.66781 0
M  V30 1654 H 148.262 -0.296961 3.9669 0
M  V30 1655 H 145.001 1.47064 6.3879 0
M  V30 1656 H 144.521 -0.196222 5.99479 0
M  V30 1657 H 146.2 0.163542 6.46793 0
M  V30 1658 N 146.332 -1.57332 0.0918853 0
M  V30 1659 C 147.572 -1.96117 -0.575988 0
M  V30 1660 C 147.936 -0.972499 -1.65549 0
M  V30 1661 O 149.137 -1.24872 -2.38034 0
M  V30 1662 C 147.408 -3.39407 -1.11973 0
M  V30 1663 S 148.967 -4.00185 -1.79992 0
M  V30 1664 H 145.785 -0.685682 -0.188045 0
M  V30 1665 H 148.387 -1.94755 0.170525 0
M  V30 1666 H 147.091 -4.09131 -0.322504 0
M  V30 1667 H 146.622 -3.44358 -1.90214 0
M  V30 1668 H 148.637 -3.88728 -3.08391 0
M  V30 1669 N 147.81 0.181792 -1.56548 0
M  V30 1670 C 148.758 1.24461 -1.965 0
M  V30 1671 C 149.752 1.464 -0.852261 0
M  V30 1672 O 150.958 1.47103 -1.03733 0
M  V30 1673 H 147.333 0.418138 -0.625031 0
M  V30 1674 H 149.304 0.880714 -2.85107 0
M  V30 1675 C 148.053 2.57891 -2.33212 0
M  V30 1676 H 147.376 2.41829 -3.18369 0
M  V30 1677 H 148.816 3.3097 -2.65019 0
M  V30 1678 C 147.275 3.15871 -1.17163 0
M  V30 1679 O 147.805 3.9913 -0.453708 0
M  V30 1680 N 146.011 2.74808 -0.944936 0
M  V30 1681 H 145.558 2.07205 -1.53049 0
M  V30 1682 H 145.516 3.13939 -0.170286 0
M  V30 1683 N 149.288 1.51039 0.449983 0
M  V30 1684 C 150.537 1.62317 1.19733 0
M  V30 1685 C 150.85 0.339101 1.92638 0
M  V30 1686 O 152.056 0.331069 2.69474 0
M  V30 1687 C 150.512 2.86608 2.17678 0
M  V30 1688 C 150.12 4.21972 1.50479 0
M  V30 1689 C 151.864 3.07239 2.92924 0
M  V30 1690 C 149.771 5.37426 2.46834 0
M  V30 1691 H 148.701 0.604532 0.450619 0
M  V30 1692 H 151.352 1.77494 0.465625 0
M  V30 1693 H 149.734 2.65037 2.94231 0
M  V30 1694 H 150.908 4.53878 0.795716 0
M  V30 1695 H 149.223 4.07117 0.874344 0
M  V30 1696 H 151.82 3.90668 3.65079 0
M  V30 1697 H 152.163 2.19807 3.5354 0
M  V30 1698 H 152.696 3.29091 2.23481 0
M  V30 1699 H 149.435 6.27079 1.90926 0
M  V30 1700 H 148.955 5.09912 3.15832 0
M  V30 1701 H 150.634 5.68862 3.08228 0
M  V30 1702 N 150.766 -0.704594 1.40972 0
M  V30 1703 C 151.714 -1.83994 1.42299 0
M  V30 1704 C 152.708 -1.66684 0.302111 0
M  V30 1705 O 153.914 -1.73655 0.473697 0
M  V30 1706 H 150.289 -0.606171 0.44504 0
M  V30 1707 H 152.26 -1.79992 2.38003 0
M  V30 1708 C 151.009 -3.21946 1.31323 0
M  V30 1709 H 150.332 -3.35878 2.16855 0
M  V30 1710 H 151.772 -4.01491 1.36311 0
M  V30 1711 C 150.231 -3.36891 0.0245977 0
M  V30 1712 O 150.761 -3.90687 -0.934153 0
M  V30 1713 N 148.967 -2.90559 -0.0485243 0
M  V30 1714 H 148.514 -2.46968 0.732419 0
M  V30 1715 H 148.472 -3.00937 -0.910171 0
M  V30 1716 N 152.244 -1.26651 -0.937939 0
M  V30 1717 C 153.655 -1.1125 -1.49934 0
M  V30 1718 C 154.006 0.306077 -1.93798 0
M  V30 1719 O 153.131 1.19792 -1.80219 0
M  V30 1720 C 153.726 -2.01339 -2.72485 0
M  V30 1721 C 152.285 -1.90074 -3.24883 0
M  V30 1722 C 151.432 -1.94498 -1.97651 0
M  V30 1723 H 154.383 -1.39693 -0.753091 0
M  V30 1724 H 154.404 -1.56319 -3.46907 0
M  V30 1725 H 153.916 -3.04577 -2.40529 0
M  V30 1726 H 152.017 -0.897827 -3.61621 0
M  V30 1727 H 152.13 -2.75778 -3.9177 0
M  V30 1728 H 150.494 -1.38591 -2.13693 0
M  V30 1729 H 151.277 -2.99372 -1.68022 0
M  V30 1730 N 153.722 1.14298 -1.08507 0
M  V30 1731 C 154.952 1.88945 -0.835663 0
M  V30 1732 C 155.36 1.78894 0.615928 0
M  V30 1733 O 154.703 1.1468 1.43506 0
M  V30 1734 C 154.765 3.39585 -1.17994 0
M  V30 1735 C 154.429 3.7342 -2.63451 0
M  V30 1736 C 155.426 3.73454 -3.61702 0
M  V30 1737 C 153.111 4.03368 -2.99332 0
M  V30 1738 C 155.105 4.02961 -4.93864 0
M  V30 1739 C 152.792 4.32538 -4.31687 0
M  V30 1740 C 153.79 4.32318 -5.28763 0
M  V30 1741 O 153.478 4.6078 -6.58739 0
M  V30 1742 H 153.21 0.605307 -0.300965 0
M  V30 1743 H 155.764 1.45673 -1.44806 0
M  V30 1744 H 153.994 3.83315 -0.51055 0
M  V30 1745 H 155.683 3.9554 -0.911182 0
M  V30 1746 H 156.449 3.50403 -3.35325 0
M  V30 1747 H 152.328 4.02692 -2.24411 0
M  V30 1748 H 155.872 4.02704 -5.69627 0
M  V30 1749 H 151.769 4.55059 -4.57812 0
M  V30 1750 H 152.537 4.78492 -6.64069 0
M  V30 1751 N 155.201 0.870884 1.31352 0
M  V30 1752 C 156.148 0.325425 2.28494 0
M  V30 1753 C 157.118 -0.576615 1.5577 0
M  V30 1754 O 158.303 -0.508059 1.83911 0
M  V30 1755 C 155.443 -0.466283 3.41935 0
M  V30 1756 C 154.556 0.463378 4.29508 0
M  V30 1757 C 153.691 -0.342544 5.30094 0
M  V30 1758 C 152.73 0.583486 6.09313 0
M  V30 1759 N 151.867 -0.186244 7.01853 0
M  V30 1760 H 156.707 1.15901 2.74538 0
M  V30 1761 H 154.244 0.58294 1.35056 0
M  V30 1762 H 156.202 -0.941085 4.06447 0
M  V30 1763 H 154.832 -1.26456 2.97 0
M  V30 1764 H 153.884 1.05663 3.65431 0
M  V30 1765 H 155.196 1.1734 4.84802 0
M  V30 1766 H 154.35 -0.879816 6.00287 0
M  V30 1767 H 153.089 -1.08585 4.75458 0
M  V30 1768 H 152.094 1.13251 5.3801 0
M  V30 1769 H 153.319 1.32566 6.66035 0
M  V30 1770 H 151.265 -0.912348 6.49625 0
M  V30 1771 H 151.182 0.464422 7.54572 0
M  V30 1772 H 152.45 -0.704716 7.76308 0
M  V30 1773 N 156.679 -1.44442 0.630414 0
M  V30 1774 C 157.909 -2.06115 0.141465 0
M  V30 1775 C 158.317 -1.47179 -1.1889 0
M  V30 1776 O 157.66 -0.588873 -1.74006 0
M  V30 1777 C 157.722 -3.59467 -0.0484355 0
M  V30 1778 C 157.386 -4.40864 1.20366 0
M  V30 1779 C 158.383 -4.74391 2.12719 0
M  V30 1780 C 156.068 -4.8125 1.43887 0
M  V30 1781 C 158.062 -5.47186 3.26904 0
M  V30 1782 C 155.749 -5.53795 2.5837 0
M  V30 1783 C 156.747 -5.86682 3.49705 0
M  V30 1784 O 156.435 -6.57749 4.62191 0
M  V30 1785 H 156.167 -0.671648 0.0765792 0
M  V30 1786 H 158.721 -1.86312 0.864695 0
M  V30 1787 H 156.951 -3.77758 -0.826803 0
M  V30 1788 H 158.64 -4.02909 -0.491849 0
M  V30 1789 H 159.406 -4.43728 1.95781 0
M  V30 1790 H 155.285 -4.55073 0.736853 0
M  V30 1791 H 158.829 -5.72773 3.98217 0
M  V30 1792 H 154.726 -5.83872 2.75251 0
M  V30 1793 H 155.494 -6.76217 4.61164 0
M  V30 1794 N 158.157 -0.370918 -1.53173 0
M  V30 1795 C 159.382 0.220293 -2.06227 0
M  V30 1796 C 159.807 1.41243 -1.24225 0
M  V30 1797 O 159.165 1.79387 -0.262645 0
M  V30 1798 C 159.213 0.586663 -3.55796 0
M  V30 1799 O 158.317 1.68317 -3.76488 0
M  V30 1800 H 157.658 0.0308099 -0.663285 0
M  V30 1801 H 160.188 -0.533068 -1.97534 0
M  V30 1802 H 160.198 0.85617 -3.98916 0
M  V30 1803 H 158.873 -0.285013 -4.14922 0
M  V30 1804 H 157.45 1.40881 -3.45264 0
M  V30 1805 N 159.635 1.57281 -0.100228 0
M  V30 1806 C 160.863 1.98879 0.570509 0
M  V30 1807 C 161.278 0.979476 1.61405 0
M  V30 1808 O 160.635 -0.0302288 1.82475 0
M  V30 1809 C 160.686 3.4052 1.2136 0
M  V30 1810 O 160.407 4.37588 0.211786 0
M  V30 1811 C 161.908 3.97149 1.96945 0
M  V30 1812 H 159.128 0.653428 0.152555 0
M  V30 1813 H 161.672 2.03697 -0.18103 0
M  V30 1814 H 159.827 3.367 1.91603 0
M  V30 1815 H 160.241 5.20118 0.676607 0
M  V30 1816 H 161.715 4.98393 2.37294 0
M  V30 1817 H 162.192 3.3525 2.83733 0
M  V30 1818 H 162.798 4.04458 1.31506 0
M  V30 1819 N 161.113 -0.173488 1.56642 0
M  V30 1820 C 162.359 -0.891784 1.8214 0
M  V30 1821 C 162.692 -1.8199 0.677736 0
M  V30 1822 O 161.967 -1.91842 -0.320446 0
M  V30 1823 C 162.25 -1.68933 3.18015 0
M  V30 1824 C 162.103 -0.784487 4.42906 0
M  V30 1825 C 163.422 -2.65748 3.50808 0
M  V30 1826 H 160.541 -0.322761 0.662567 0
M  V30 1827 H 163.183 -0.158095 1.89341 0
M  V30 1828 H 161.333 -2.31482 3.12007 0
M  V30 1829 H 163.005 -0.172046 4.60979 0
M  V30 1830 H 161.248 -0.0924117 4.33702 0
M  V30 1831 H 161.919 -1.37799 5.34524 0
M  V30 1832 H 164.395 -2.13327 3.57255 0
M  V30 1833 H 163.271 -3.18619 4.4696 0
M  V30 1834 H 163.532 -3.45842 2.75401 0
M  V30 1835 N 162.591 -1.51276 -0.441967 0
M  V30 1836 C 164.007 -1.39349 -0.778083 0
M  V30 1837 C 164.207 -0.472212 -1.95889 0
M  V30 1838 O 163.263 0.0743551 -2.5239 0
M  V30 1839 C 164.576 -2.81292 -1.0628 0
M  V30 1840 C 166.124 -2.9041 -1.16751 0
M  V30 1841 C 166.599 -4.33251 -1.48519 0
M  V30 1842 N 168.09 -4.36336 -1.55453 0
M  V30 1843 C 168.825 -5.43885 -1.81596 0
M  V30 1844 N 168.321 -6.61601 -2.05562 0
M  V30 1845 N 170.114 -5.3136 -1.8334 0
M  V30 1846 H 162.265 -2.09729 0.335774 0
M  V30 1847 H 164.528 -0.943925 0.0878028 0
M  V30 1848 H 164.234 -3.50678 -0.267905 0
M  V30 1849 H 164.108 -3.20334 -1.99163 0
M  V30 1850 H 166.495 -2.21225 -1.95304 0
M  V30 1851 H 166.576 -2.54871 -0.217801 0
M  V30 1852 H 166.22 -5.02984 -0.704958 0
M  V30 1853 H 166.15 -4.66299 -2.44689 0
M  V30 1854 H 168.641 -3.51466 -1.38853 0
M  V30 1855 H 168.954 -7.39361 -2.24867 0
M  V30 1856 H 167.299 -6.64725 -2.02894 0
M  V30 1857 H 170.49 -4.38382 -1.64132 0
M  V30 1858 H 170.663 -6.15258 -2.03377 0
M  V30 1859 N 164.069 0.697108 -1.41344 0
M  V30 1860 C 165.019 1.80313 -1.39539 0
M  V30 1861 C 166.003 1.58618 -0.270001 0
M  V30 1862 O 167.195 1.69477 -0.510551 0
M  V30 1863 C 164.324 3.18606 -1.27848 0
M  V30 1864 C 163.41 3.46001 -2.45244 0
M  V30 1865 N 163.801 3.44103 -3.70711 0
M  V30 1866 C 162.099 3.76542 -2.39023 0
M  V30 1867 C 162.8 3.7036 -4.48563 0
M  V30 1868 N 161.776 3.90027 -3.78655 0
M  V30 1869 H 165.578 1.77207 -2.34468 0
M  V30 1870 H 163.092 0.897031 -1.35378 0
M  V30 1871 H 165.089 3.97833 -1.24637 0
M  V30 1872 H 163.749 3.22925 -0.339032 0
M  V30 1873 H 164.76 3.2452 -4.03618 0
M  V30 1874 H 161.437 3.88241 -1.53542 0
M  V30 1875 H 162.827 3.75042 -5.57488 0
M  V30 1876 N 165.547 1.27147 0.931209 0
M  V30 1877 C 166.477 1.12081 2.04842 0
M  V30 1878 C 167.458 0.0232364 1.70084 0
M  V30 1879 O 168.643 0.197085 1.93197 0
M  V30 1880 C 165.773 0.76354 3.38803 0
M  V30 1881 C 164.727 1.81396 3.87659 0
M  V30 1882 C 164.053 1.31075 5.18385 0
M  V30 1883 C 165.353 3.21739 4.11438 0
M  V30 1884 H 167.047 2.05537 2.17703 0
M  V30 1885 H 164.593 0.989603 1.04608 0
M  V30 1886 H 166.546 0.644982 4.16435 0
M  V30 1887 H 165.27 -0.206727 3.25945 0
M  V30 1888 H 163.929 1.92136 3.12217 0
M  V30 1889 H 163.577 0.330037 5.01916 0
M  V30 1890 H 163.277 2.013 5.52044 0
M  V30 1891 H 164.801 1.20506 5.98591 0
M  V30 1892 H 166.215 3.14019 4.79651 0
M  V30 1893 H 164.612 3.89644 4.56397 0
M  V30 1894 H 165.682 3.67054 3.16859 0
M  V30 1895 N 167.025 -1.13721 1.09112 0
M  V30 1896 C 167.955 -2.21148 0.749385 0
M  V30 1897 C 168.936 -1.6792 -0.271475 0
M  V30 1898 O 170.121 -1.93693 -0.140251 0
M  V30 1899 C 167.251 -3.46905 0.165659 0
M  V30 1900 C 166.205 -4.13203 1.11567 0
M  V30 1901 C 165.531 -5.33248 0.393809 0
M  V30 1902 C 166.831 -4.60912 2.45678 0
M  V30 1903 H 168.525 -2.4999 1.64758 0
M  V30 1904 H 166.071 -1.20156 0.793626 0
M  V30 1905 H 168.024 -4.21313 -0.085466 0
M  V30 1906 H 166.748 -3.17449 -0.767714 0
M  V30 1907 H 165.407 -3.40758 1.35202 0
M  V30 1908 H 165.055 -5.00054 -0.543599 0
M  V30 1909 H 164.755 -5.78552 1.02721 0
M  V30 1910 H 166.279 -6.10413 0.150908 0
M  V30 1911 H 167.693 -5.26759 2.26269 0
M  V30 1912 H 166.09 -5.16944 3.04776 0
M  V30 1913 H 167.16 -3.75603 3.06677 0
M  V30 1914 N 168.503 -0.877838 -1.30888 0
M  V30 1915 C 169.466 -0.344265 -2.266 0
M  V30 1916 C 170.466 0.50922 -1.52524 0
M  V30 1917 O 171.656 0.317398 -1.71284 0
M  V30 1918 C 168.788 0.510198 -3.37061 0
M  V30 1919 H 169.981 -1.1893 -2.7531 0
M  V30 1920 H 167.534 -0.654088 -1.41956 0
M  V30 1921 H 168.269 1.37612 -2.93655 0
M  V30 1922 H 168.054 -0.101047 -3.9197 0
M  V30 1923 H 169.544 0.875537 -4.08319 0
M  V30 1924 N 169.982 1.44106 -0.638065 0
M  V30 1925 C 171.259 1.95453 -0.0759321 0
M  V30 1926 C 171.639 1.57984 1.40015 0
M  V30 1927 O 170.987 0.857361 2.11806 0
M  V30 1928 C 171.197 3.47655 -0.306132 0
M  V30 1929 C 172.545 4.24114 -0.203008 0
M  V30 1930 O 173.569 3.55405 -0.237871 0
M  V30 1931 O 172.428 5.46381 -0.113827 0
M  V30 1932 H 169.522 0.826797 0.0183332 0
M  V30 1933 H 172.068 1.54122 -0.710251 0
M  V30 1934 H 170.84 3.68 -1.3301 0
M  V30 1935 H 170.463 3.95949 0.361991 0
M  V30 1936 N 171.46 0.379036 1.52974 0
M  V30 1937 C 172.39 -0.452706 2.29069 0
M  V30 1938 C 173.371 -1.07237 1.32039 0
M  V30 1939 O 174.556 -1.08708 1.60923 0
M  V30 1940 C 171.686 -1.5856 3.08992 0
M  V30 1941 C 170.64 -1.0925 4.13822 0
M  V30 1942 C 169.966 -2.31668 4.81907 0
M  V30 1943 C 171.266 -0.167702 5.22031 0
M  V30 1944 H 172.96 0.182181 2.98845 0
M  V30 1945 H 170.506 0.0890592 1.43724 0
M  V30 1946 H 172.459 -2.1742 3.6098 0
M  V30 1947 H 171.183 -2.24792 2.36931 0
M  V30 1948 H 169.842 -0.526494 3.628 0
M  V30 1949 H 169.49 -2.96386 4.06404 0
M  V30 1950 H 169.19 -1.9934 5.52754 0
M  V30 1951 H 170.714 -2.91189 5.36695 0
M  V30 1952 H 172.128 -0.664186 5.6944 0
M  V30 1953 H 170.525 0.0653265 6.00064 0
M  V30 1954 H 171.595 0.786347 4.78482 0
M  V30 1955 N 172.938 -1.57226 0.108567 0
M  V30 1956 C 173.848 -2.18292 -0.859401 0
M  V30 1957 C 174.864 -1.15612 -1.30038 0
M  V30 1958 O 176.04 -1.48039 -1.36552 0
M  V30 1959 C 173.105 -2.762 -2.09558 0
M  V30 1960 C 172.166 -3.93881 -1.70752 0
M  V30 1961 C 171.399 -4.49018 -2.88477 0
M  V30 1962 O 171.622 -4.03068 -4.036 0
M  V30 1963 O 170.556 -5.39852 -2.66164 0
M  V30 1964 H 174.382 -3.01441 -0.369769 0
M  V30 1965 H 171.967 -1.48945 -0.1165 0
M  V30 1966 H 173.849 -3.13156 -2.81978 0
M  V30 1967 H 172.524 -1.96089 -2.57548 0
M  V30 1968 H 171.431 -3.61713 -0.954714 0
M  V30 1969 H 172.764 -4.75396 -1.27513 0
M  V30 1970 N 174.416 0.165178 -1.56732 0
M  V30 1971 C 175.348 1.22911 -1.93457 0
M  V30 1972 C 176.361 1.40152 -0.828333 0
M  V30 1973 O 177.55 1.40046 -1.10677 0
M  V30 1974 C 174.65 2.59686 -2.17753 0
M  V30 1975 C 173.823 2.63663 -3.48999 0
M  V30 1976 C 172.882 3.81845 -3.62051 0
M  V30 1977 O 171.908 3.67559 -4.34613 0
M  V30 1978 N 173.11 4.98557 -2.97357 0
M  V30 1979 H 175.875 0.917118 -2.85323 0
M  V30 1980 H 173.436 0.354895 -1.57962 0
M  V30 1981 H 175.428 3.37225 -2.23743 0
M  V30 1982 H 173.998 2.83251 -1.32242 0
M  V30 1983 H 173.218 1.72173 -3.54612 0
M  V30 1984 H 174.506 2.63336 -4.35352 0
M  V30 1985 H 173.904 5.13065 -2.38287 0
M  V30 1986 H 172.461 5.73936 -3.08934 0
M  V30 1987 N 175.894 1.51508 0.433938 0
M  V30 1988 C 176.804 1.75917 1.5521 0
M  V30 1989 C 177.82 0.643545 1.61662 0
M  V30 1990 O 178.996 0.926183 1.7884 0
M  V30 1991 C 176.061 1.88213 2.91164 0
M  V30 1992 C 175.122 3.12074 2.94802 0
M  V30 1993 C 174.355 3.23774 4.24271 0
M  V30 1994 O 174.578 2.4133 5.16833 0
M  V30 1995 O 173.512 4.16774 4.34262 0
M  V30 1996 H 177.338 2.70777 1.37527 0
M  V30 1997 H 174.923 1.36051 0.617293 0
M  V30 1998 H 176.805 1.98267 3.71845 0
M  V30 1999 H 175.48 0.965413 3.08968 0
M  V30 2000 H 174.387 3.07497 2.13065 0
M  V30 2001 H 175.72 4.03446 2.81943 0
M  V30 2002 N 177.372 -0.689602 1.41712 0
M  V30 2003 C 178.6 -1.47827 1.44758 0
M  V30 2004 C 179.015 -1.88721 0.0545703 0
M  V30 2005 O 178.372 -1.57176 -0.927463 0
M  V30 2006 C 178.423 -2.73698 2.3616 0
M  V30 2007 O 178.144 -2.34524 3.7004 0
M  V30 2008 C 179.645 -3.67389 2.48072 0
M  V30 2009 H 176.865 -0.455357 0.49284 0
M  V30 2010 H 179.409 -0.848574 1.86063 0
M  V30 2011 H 177.564 -3.32891 1.98148 0
M  V30 2012 H 177.978 -3.15701 4.18847 0
M  V30 2013 H 179.452 -4.52475 3.16181 0
M  V30 2014 H 179.929 -4.12284 1.51388 0
M  V30 2015 H 180.535 -3.14097 2.86746 0
M  V30 2016 N 178.85 -1.27639 -0.924453 0
M  V30 2017 C 180.266 -1.05113 -1.20097 0
M  V30 2018 C 180.466 0.213262 -2.00368 0
M  V30 2019 O 179.522 0.91787 -2.35226 0
M  V30 2020 C 180.835 -2.29244 -1.94596 0
M  V30 2021 C 182.383 -2.34315 -2.07522 0
M  V30 2022 C 182.858 -3.58183 -2.85427 0
M  V30 2023 N 184.349 -3.5876 -2.92994 0
M  V30 2024 C 185.084 -4.51277 -3.53746 0
M  V30 2025 N 184.58 -5.54102 -4.15863 0
M  V30 2026 N 186.373 -4.38894 -3.51181 0
M  V30 2027 H 178.524 -2.08821 -0.388264 0
M  V30 2028 H 180.787 -0.918568 -0.234385 0
M  V30 2029 H 180.493 -3.21301 -1.43034 0
M  V30 2030 H 180.367 -2.34816 -2.95197 0
M  V30 2031 H 182.754 -1.42762 -2.58269 0
M  V30 2032 H 182.835 -2.32744 -1.06131 0
M  V30 2033 H 182.479 -4.50074 -2.35363 0
M  V30 2034 H 182.409 -3.57006 -3.8711 0
M  V30 2035 H 184.9 -2.84398 -2.4885 0
M  V30 2036 H 185.213 -6.20859 -4.60168 0
M  V30 2037 H 183.558 -5.57941 -4.144 0
M  V30 2038 H 186.749 -3.57772 -3.01856 0
M  V30 2039 H 186.922 -5.11186 -3.98237 0
M  V30 2040 N 180.328 1.1314 -1.09713 0
M  V30 2041 C 181.238 2.22242 -0.751367 0
M  V30 2042 C 182.254 1.72224 0.247938 0
M  V30 2043 O 183.43 2.01205 0.0885463 0
M  V30 2044 C 180.495 3.46231 -0.180274 0
M  V30 2045 C 179.556 4.11125 -1.2359 0
M  V30 2046 C 178.789 5.29195 -0.691966 0
M  V30 2047 O 179.012 5.68342 0.48414 0
M  V30 2048 O 177.946 5.84214 -1.44838 0
M  V30 2049 H 181.772 2.54197 -1.66186 0
M  V30 2050 H 179.357 1.21331 -0.871735 0
M  V30 2051 H 181.239 4.21185 0.134739 0
M  V30 2052 H 179.914 3.1597 0.703185 0
M  V30 2053 H 178.821 3.37985 -1.60366 0
M  V30 2054 H 180.154 4.45524 -2.09211 0
M  V30 2055 N 181.806 0.884767 1.30421 0
M  V30 2056 C 182.769 0.356277 2.26414 0
M  V30 2057 C 183.769 -0.501124 1.52792 0
M  V30 2058 O 184.959 -0.30831 1.7145 0
M  V30 2059 C 182.091 -0.492316 3.37326 0
M  V30 2060 H 183.284 1.20389 2.74675 0
M  V30 2061 H 180.837 0.661607 1.41607 0
M  V30 2062 H 181.572 -1.36052 2.94381 0
M  V30 2063 H 181.357 0.121832 3.91911 0
M  V30 2064 H 182.847 -0.853871 4.08777 0
M  V30 2065 N 183.284 -1.43765 0.645699 0
M  V30 2066 C 184.214 -2.33471 -0.0370477 0
M  V30 2067 C 185.195 -1.49042 -0.819779 0
M  V30 2068 O 186.38 -1.77726 -0.782758 0
M  V30 2069 C 183.51 -3.32311 -1.0093 0
M  V30 2070 C 182.464 -4.2667 -0.337201 0
M  V30 2071 C 181.79 -5.1549 -1.42037 0
M  V30 2072 C 183.09 -5.16657 0.765706 0
M  V30 2073 H 184.784 -2.90809 0.712069 0
M  V30 2074 H 182.33 -1.39834 0.343876 0
M  V30 2075 H 184.283 -3.9396 -1.49578 0
M  V30 2076 H 183.007 -2.73213 -1.78948 0
M  V30 2077 H 181.666 -3.66374 0.128771 0
M  V30 2078 H 181.314 -4.52735 -2.1918 0
M  V30 2079 H 181.014 -5.79438 -0.975966 0
M  V30 2080 H 182.538 -5.80012 -1.90838 0
M  V30 2081 H 183.952 -5.72158 0.361702 0
M  V30 2082 H 182.349 -5.89286 1.13413 0
M  V30 2083 H 183.419 -4.56796 1.62683 0
M  V30 2084 N 184.763 -0.387143 -1.52771 0
M  V30 2085 C 185.71 0.449048 -2.26389 0
M  V30 2086 C 186.68 1.05961 -1.27912 0
M  V30 2087 O 187.865 1.08804 -1.56737 0
M  V30 2088 C 185.005 1.57155 -3.0724 0
M  V30 2089 C 184.118 0.984066 -4.20643 0
M  V30 2090 C 183.253 2.07745 -4.88892 0
M  V30 2091 C 182.292 1.46574 -5.94292 0
M  V30 2092 N 181.429 2.49834 -6.56146 0
M  V30 2093 H 186.269 -0.185205 -2.97424 0
M  V30 2094 H 183.806 -0.103164 -1.46738 0
M  V30 2095 H 185.764 2.23309 -3.52405 0
M  V30 2096 H 184.394 2.17615 -2.38419 0
M  V30 2097 H 183.446 0.212193 -3.79808 0
M  V30 2098 H 184.758 0.497029 -4.96318 0
M  V30 2099 H 183.912 2.81673 -5.3735 0
M  V30 2100 H 182.651 2.59807 -4.12737 0
M  V30 2101 H 181.656 0.711696 -5.45174 0
M  V30 2102 H 182.881 0.953088 -6.72379 0
M  V30 2103 H 180.827 3.0107 -5.82832 0
M  V30 2104 H 180.744 2.05879 -7.27427 0
M  V30 2105 H 182.012 3.23399 -7.09249 0
M  V30 2106 N 186.241 1.57166 -0.116904 0
M  V30 2107 C 187.466 1.999 0.55271 0
M  V30 2108 C 187.891 0.996039 1.59564 0
M  V30 2109 O 187.249 -0.032556 1.81271 0
M  V30 2110 C 187.297 3.4152 1.15742 0
M  V30 2111 O 186.401 3.44106 2.27299 0
M  V30 2112 H 185.742 0.649447 0.138258 0
M  V30 2113 H 188.272 2.03573 -0.204759 0
M  V30 2114 H 188.282 3.79684 1.49346 0
M  V30 2115 H 186.957 4.14034 0.393493 0
M  V30 2116 H 185.534 3.17759 1.9515 0
M  V30 2117 N 187.719 -0.156864 1.56817 0
M  V30 2118 C 188.649 -1.19589 2.00551 0
M  V30 2119 C 189.63 -1.4536 0.883426 0
M  V30 2120 O 190.815 -1.56449 1.15054 0
M  V30 2121 C 187.945 -2.53143 2.37773 0
M  V30 2122 C 186.899 -2.41913 3.53075 0
M  V30 2123 C 186.225 -3.80088 3.76081 0
M  V30 2124 C 187.525 -1.91157 4.86062 0
M  V30 2125 H 189.219 -0.832293 2.87599 0
M  V30 2126 H 186.765 -0.398918 1.38364 0
M  V30 2127 H 188.718 -3.26047 2.66967 0
M  V30 2128 H 187.442 -2.91319 1.4765 0
M  V30 2129 H 186.101 -1.71462 3.24031 0
M  V30 2130 H 185.749 -4.15683 2.83225 0
M  V30 2131 H 185.449 -3.73439 4.53671 0
M  V30 2132 H 186.973 -4.54556 4.0769 0
M  V30 2133 H 188.387 -2.53846 5.14038 0
M  V30 2134 H 186.784 -1.95422 5.67389 0
M  V30 2135 H 187.854 -0.866673 4.77092 0
M  V30 2136 N 189.197 -1.51736 -0.425897 0
M  V30 2137 C 190.427 -1.68549 -1.19476 0
M  V30 2138 C 190.835 -0.387288 -1.85194 0
M  V30 2139 O 190.178 0.645142 -1.71999 0
M  V30 2140 C 190.24 -2.75275 -2.31223 0
M  V30 2141 C 189.904 -4.17534 -1.8578 0
M  V30 2142 C 190.901 -5.01936 -1.35485 0
M  V30 2143 C 188.586 -4.6369 -1.93123 0
M  V30 2144 C 190.58 -6.30559 -0.931347 0
M  V30 2145 C 188.267 -5.92307 -1.50384 0
M  V30 2146 C 189.265 -6.75569 -1.00473 0
M  V30 2147 O 188.953 -8.0178 -0.583452 0
M  V30 2148 H 188.685 -0.568525 -0.365725 0
M  V30 2149 H 191.239 -1.98982 -0.509444 0
M  V30 2150 H 189.469 -2.40182 -3.03067 0
M  V30 2151 H 191.158 -2.80853 -2.93047 0
M  V30 2152 H 191.924 -4.67475 -1.29197 0
M  V30 2153 H 187.803 -3.98997 -2.30916 0
M  V30 2154 H 191.347 -6.95498 -0.541084 0
M  V30 2155 H 187.244 -6.2628 -1.56346 0
M  V30 2156 H 188.012 -8.1543 -0.708275 0
M  V30 2157 N 190.675 0.682077 -1.42076 0
M  V30 2158 C 191.923 1.4393 -1.41876 0
M  V30 2159 C 192.244 1.94971 -0.0335599 0
M  V30 2160 O 191.514 1.72591 0.926773 0
M  V30 2161 H 190.094 0.534085 -0.522267 0
M  V30 2162 H 192.756 0.806427 -1.77434 0
M  V30 2163 H 191.852 2.29588 -2.11414 0
M  V30 2164 N 192.153 1.28127 0.917671 0
M  V30 2165 C 193.4 1.15052 1.66641 0
M  V30 2166 C 193.728 -0.301677 1.92146 0
M  V30 2167 O 192.983 -1.23622 1.51711 0
M  V30 2168 C 193.282 1.89018 3.03327 0
M  V30 2169 C 192.948 3.38832 2.97496 0
M  V30 2170 C 191.61 3.79693 2.95613 0
M  V30 2171 C 193.962 4.34378 2.88036 0
M  V30 2172 C 191.29 5.14447 2.82066 0
M  V30 2173 C 193.642 5.69201 2.7603 0
M  V30 2174 C 192.306 6.09343 2.72502 0
M  V30 2175 H 191.576 0.421006 0.609783 0
M  V30 2176 H 194.223 1.58855 1.06945 0
M  V30 2177 H 192.528 1.37752 3.66785 0
M  V30 2178 H 194.225 1.76321 3.60156 0
M  V30 2179 H 190.815 3.06342 2.99754 0
M  V30 2180 H 194.999 4.03775 2.88581 0
M  V30 2181 H 190.255 5.44681 2.77728 0
M  V30 2182 H 194.429 6.42901 2.67678 0
M  V30 2183 H 192.056 7.13712 2.61762 0
M  V30 2184 N 193.631 -1.12557 1.10312 0
M  V30 2185 C 195.042 -1.65574 0.862678 0
M  V30 2186 C 195.393 -1.86566 -0.607256 0
M  V30 2187 O 194.518 -1.59121 -1.46662 0
M  V30 2188 C 195.113 -3.00776 1.55947 0
M  V30 2189 C 193.672 -3.50748 1.36576 0
M  V30 2190 C 192.819 -2.25797 1.60968 0
M  V30 2191 H 195.77 -0.963552 1.26101 0
M  V30 2192 H 195.791 -3.67185 0.997753 0
M  V30 2193 H 195.303 -2.85465 2.62928 0
M  V30 2194 H 193.404 -3.71245 0.317531 0
M  V30 2195 H 193.517 -4.30289 2.10686 0
M  V30 2196 H 191.881 -2.32841 1.03234 0
M  V30 2197 H 192.664 -2.13043 2.69198 0
M  V30 2198 N 195.109 -0.891671 -1.2995 0
M  V30 2199 C 196.019 -0.367691 -2.31701 0
M  V30 2200 C 197.035 0.533486 -1.6562 0
M  V30 2201 O 198.211 0.424997 -1.96865 0
M  V30 2202 C 195.276 0.403406 -3.44345 0
M  V30 2203 C 194.337 -0.528328 -4.26037 0
M  V30 2204 C 193.57 0.206063 -5.33302 0
M  V30 2205 O 193.793 1.43119 -5.52153 0
M  V30 2206 O 192.727 -0.447281 -6.00236 0
M  V30 2207 H 196.553 -1.21163 -2.78484 0
M  V30 2208 H 194.138 -0.655725 -1.34241 0
M  V30 2209 H 196.02 0.839753 -4.12948 0
M  V30 2210 H 194.695 1.22354 -2.99685 0
M  V30 2211 H 193.602 -1.01362 -3.60106 0
M  V30 2212 H 194.935 -1.31465 -4.74318 0
M  V30 2213 N 196.587 1.43421 -0.653314 0
M  V30 2214 C 197.812 2.06678 -0.172846 0
M  V30 2215 C 198.237 1.48648 1.15262 0
M  V30 2216 O 197.595 0.596457 1.71208 0
M  V30 2217 C 197.643 3.60474 -0.0953184 0
M  V30 2218 O 196.747 4.01487 0.942442 0
M  V30 2219 H 196.088 0.657181 -0.0949155 0
M  V30 2220 H 198.618 1.83925 -0.896265 0
M  V30 2221 H 198.628 4.07905 0.0879728 0
M  V30 2222 H 197.303 4.02088 -1.06291 0
M  V30 2223 H 195.88 3.65646 0.731932 0
M  V30 2224 N 198.065 0.39524 1.52563 0
M  V30 2225 C 199.481 0.0454682 1.59535 0
M  V30 2226 C 199.681 -1.44056 1.4089 0
M  V30 2227 O 198.737 -2.20579 1.22888 0
M  V30 2228 C 200.05 0.527963 2.96029 0
M  V30 2229 C 201.598 0.484733 3.09224 0
M  V30 2230 C 202.073 0.943512 4.48176 0
M  V30 2231 N 203.564 0.899765 4.54377 0
M  V30 2232 C 204.299 1.22609 5.60138 0
M  V30 2233 N 203.795 1.62319 6.73516 0
M  V30 2234 N 205.588 1.14696 5.50274 0
M  V30 2235 H 197.739 1.36261 1.62931 0
M  V30 2236 H 200.002 0.558887 0.765735 0
M  V30 2237 H 199.708 1.56607 3.14908 0
M  V30 2238 H 199.582 -0.0698056 3.77135 0
M  V30 2239 H 201.969 -0.544298 2.90037 0
M  V30 2240 H 202.05 1.11838 2.30056 0
M  V30 2241 H 201.694 1.9708 4.68104 0
M  V30 2242 H 201.624 0.286817 5.25818 0
M  V30 2243 H 204.115 0.607632 3.72983 0
M  V30 2244 H 204.428 1.85567 7.5019 0
M  V30 2245 H 202.773 1.66211 6.74833 0
M  V30 2246 H 205.964 0.835701 4.6058 0
M  V30 2247 H 206.137 1.40459 6.32594 0
M  V30 2248 N 199.544 -1.57102 0.125237 0
M  V30 2249 C 200.491 -2.15641 -0.822655 0
M  V30 2250 C 201.461 -1.08313 -1.25927 0
M  V30 2251 O 202.646 -1.36251 -1.33567 0
M  V30 2252 C 199.786 -2.76504 -2.06494 0
M  V30 2253 C 198.899 -3.98158 -1.67612 0
M  V30 2254 C 198.034 -4.47088 -2.86854 0
M  V30 2255 C 197.073 -5.6126 -2.44242 0
M  V30 2256 N 196.21 -6.04905 -3.56419 0
M  V30 2257 H 201.05 -2.96313 -0.316625 0
M  V30 2258 H 198.587 -1.46388 -0.144588 0
M  V30 2259 H 200.545 -3.09925 -2.79289 0
M  V30 2260 H 199.175 -1.98512 -2.54545 0
M  V30 2261 H 198.227 -3.70858 -0.846661 0
M  V30 2262 H 199.539 -4.80934 -1.32301 0
M  V30 2263 H 198.693 -4.82451 -3.67867 0
M  V30 2264 H 197.432 -3.63275 -3.25396 0
M  V30 2265 H 196.437 -5.25495 -1.61663 0
M  V30 2266 H 197.662 -6.46843 -2.0681 0
M  V30 2267 H 195.608 -5.24032 -3.94623 0
M  V30 2268 H 195.525 -6.82552 -3.25051 0
M  V30 2269 H 196.793 -6.44907 -4.37853 0
M  V30 2270 N 201.022 0.148545 -1.56898 0
M  V30 2271 C 202.438 0.501131 -1.51528 0
M  V30 2272 C 202.638 1.83458 -0.833399 0
M  V30 2273 O 201.694 2.49259 -0.40328 0
M  V30 2274 C 203.007 0.512864 -2.96294 0
M  V30 2275 C 204.555 0.598487 -3.07225 0
M  V30 2276 C 205.03 0.640897 -4.53494 0
M  V30 2277 N 206.521 0.703163 -4.57832 0
M  V30 2278 C 207.256 0.756935 -5.68382 0
M  V30 2279 N 206.752 0.770147 -6.88506 0
M  V30 2280 N 208.545 0.797698 -5.56411 0
M  V30 2281 H 200.696 -0.725532 -1.99624 0
M  V30 2282 H 202.959 -0.264358 -0.910395 0
M  V30 2283 H 202.665 -0.398691 -3.49433 0
M  V30 2284 H 202.539 1.35133 -3.52163 0
M  V30 2285 H 204.926 1.50046 -2.54106 0
M  V30 2286 H 205.007 -0.267093 -2.54402 0
M  V30 2287 H 204.651 -0.256915 -5.0725 0
M  V30 2288 H 204.581 1.52295 -5.04097 0
M  V30 2289 H 207.072 0.700314 -3.71354 0
M  V30 2290 H 207.385 0.812983 -7.68512 0
M  V30 2291 H 205.73 0.738049 -6.9107 0
M  V30 2292 H 208.921 0.784535 -4.61479 0
M  V30 2293 H 209.094 0.83614 -6.42583 0
M  V30 2294 N 202.5 1.5196 0.417844 0
M  V30 2295 C 203.916 1.40569 0.755816 0
M  V30 2296 C 204.116 0.503316 1.95113 0
M  V30 2297 O 203.172 -0.0341925 2.52477 0
M  V30 2298 C 204.485 2.82947 1.01791 0
M  V30 2299 C 206.033 2.92231 1.12116 0
M  V30 2300 C 206.508 4.35559 1.41608 0
M  V30 2301 N 207.999 4.38753 1.48491 0
M  V30 2302 C 208.734 5.46705 1.7292 0
M  V30 2303 N 208.23 6.64788 1.95011 0
M  V30 2304 N 210.023 5.34209 1.74863 0
M  V30 2305 H 202.174 2.09168 -0.369098 0
M  V30 2306 H 204.437 0.942409 -0.102809 0
M  V30 2307 H 204.143 3.5106 0.212081 0
M  V30 2308 H 204.017 3.23462 1.94042 0
M  V30 2309 H 206.404 2.24304 1.9176 0
M  V30 2310 H 206.485 2.55185 0.177225 0
M  V30 2311 H 206.129 5.04042 0.624848 0
M  V30 2312 H 206.059 4.70133 2.37239 0
M  V30 2313 H 208.55 3.5363 1.33244 0
M  V30 2314 H 208.863 7.42845 2.13076 0
M  V30 2315 H 207.208 6.67869 1.92293 0
M  V30 2316 H 210.399 4.40937 1.57137 0
M  V30 2317 H 210.572 6.18415 1.93563 0
M  V30 2318 N 203.978 -0.674533 1.42435 0
M  V30 2319 C 204.888 -1.81751 1.48337 0
M  V30 2320 C 205.904 -1.69975 0.372099 0
M  V30 2321 O 207.08 -1.91521 0.62304 0
M  V30 2322 C 204.145 -3.17895 1.38361 0
M  V30 2323 C 203.206 -3.41625 2.59982 0
M  V30 2324 C 202.439 -4.71274 2.50473 0
M  V30 2325 O 202.662 -5.49197 1.54075 0
M  V30 2326 O 201.596 -4.96254 3.4061 0
M  V30 2327 H 205.422 -1.79728 2.44809 0
M  V30 2328 H 203.007 -0.830312 1.24202 0
M  V30 2329 H 204.889 -3.99136 1.35161 0
M  V30 2330 H 203.564 -3.20555 0.450144 0
M  V30 2331 H 202.471 -2.60231 2.68757 0
M  V30 2332 H 203.804 -3.43796 3.52229 0
M  V30 2333 N 205.456 -1.28612 -0.910864 0
M  V30 2334 C 206.419 -1.12803 -1.9952 0
M  V30 2335 C 207.419 -0.0668264 -1.60661 0
M  V30 2336 O 208.609 -0.312847 -1.71368 0
M  V30 2337 C 205.741 -0.72254 -3.33155 0
M  V30 2338 H 206.934 -2.09109 -2.14973 0
M  V30 2339 H 204.487 -1.11639 -1.09391 0
M  V30 2340 H 205.222 0.241152 -3.23402 0
M  V30 2341 H 205.007 -1.48916 -3.62721 0
M  V30 2342 H 206.497 -0.634666 -4.12749 0
M  V30 2343 N 206.934 1.1197 -1.10907 0
M  V30 2344 C 207.844 2.21433 -0.774896 0
M  V30 2345 C 208.86 1.72478 0.229657 0
M  V30 2346 O 210.036 2.01288 0.0672008 0
M  V30 2347 C 207.101 3.4602 -0.216986 0
M  V30 2348 C 206.162 4.09791 -1.27944 0
M  V30 2349 C 205.395 5.28431 -0.748055 0
M  V30 2350 O 205.618 5.68823 0.423833 0
M  V30 2351 O 204.552 5.82644 -1.51027 0
M  V30 2352 H 208.378 2.5242 -1.68873 0
M  V30 2353 H 205.963 1.20399 -0.884555 0
M  V30 2354 H 207.845 4.21304 0.090059 0
M  V30 2355 H 206.52 3.16698 0.669633 0
M  V30 2356 H 205.427 3.36265 -1.63941 0
M  V30 2357 H 206.76 4.4328 -2.13925 0
M  V30 2358 N 208.412 0.89855 1.29475 0
M  V30 2359 C 209.637 0.538561 2.00285 0
M  V30 2360 C 210.062 -0.869135 1.66816 0
M  V30 2361 O 209.42 -1.57831 0.892145 0
M  V30 2362 C 209.468 0.736475 3.52999 0
M  V30 2363 O 208.572 -0.211537 4.11857 0
M  V30 2364 H 207.913 0.210563 0.62973 0
M  V30 2365 H 210.443 1.20982 1.64998 0
M  V30 2366 H 210.453 0.640685 4.02938 0
M  V30 2367 H 209.128 1.76276 3.76696 0
M  V30 2368 H 207.705 -0.0682991 3.72837 0
M  V30 2369 N 209.89 -1.43072 0.660911 0
M  V30 2370 C 211.136 -2.02545 0.186337 0
M  V30 2371 C 211.491 -1.51253 -1.18913 0
M  V30 2372 O 210.784 -0.699167 -1.78388 0
M  V30 2373 C 210.978 -3.57103 0.145563 0
M  V30 2374 C 210.807 -4.23393 1.51554 0
M  V30 2375 C 209.577 -4.59144 2.10984 0
M  V30 2376 C 211.775 -4.51897 2.45548 0
M  V30 2377 N 209.757 -5.10545 3.40907 0
M  V30 2378 C 211.128 -5.04698 3.6011 0
M  V30 2379 C 213.183 -4.33872 2.44253 0
M  V30 2380 C 211.886 -5.41371 4.73613 0
M  V30 2381 C 213.912 -4.71612 3.56842 0
M  V30 2382 C 213.274 -5.24553 4.70131 0
M  V30 2383 H 209.373 -0.773823 0.112792 0
M  V30 2384 H 211.957 -1.74137 0.870885 0
M  V30 2385 H 210.128 -3.85059 -0.508353 0
M  V30 2386 H 211.86 -4.03264 -0.340598 0
M  V30 2387 H 208.615 -4.4444 1.63615 0
M  V30 2388 H 209.039 -5.40689 4.07411 0
M  V30 2389 H 213.681 -3.92208 1.579 0
M  V30 2390 H 211.399 -5.81975 5.60652 0
M  V30 2391 H 214.985 -4.59354 3.57051 0
M  V30 2392 H 213.865 -5.53213 5.5581 0
M  V30 2393 N 211.368 -0.403325 -1.52352 0
M  V30 2394 C 212.316 0.439752 -2.28405 0
M  V30 2395 C 213.31 1.05089 -1.32863 0
M  V30 2396 O 214.516 0.989759 -1.50345 0
M  V30 2397 H 210.891 0.160587 -0.734653 0
M  V30 2398 H 212.862 -0.222983 -2.97566 0
M  V30 2399 C 211.611 1.54736 -3.11371 0
M  V30 2400 H 210.934 1.08643 -3.84755 0
M  V30 2401 H 212.374 2.1112 -3.67701 0
M  V30 2402 C 210.833 2.51141 -2.24566 0
M  V30 2403 O 211.363 3.54887 -1.88196 0
M  V30 2404 N 209.569 2.21213 -1.8845 0
M  V30 2405 H 209.116 1.36878 -2.18225 0
M  V30 2406 H 209.074 2.85963 -1.30662 0
M  V30 2407 N 212.846 1.57033 -0.133567 0
M  V30 2408 C 214.071 2.00475 0.531477 0
M  V30 2409 C 214.496 1.01291 1.58499 0
M  V30 2410 O 213.854 -0.0133279 1.81295 0
M  V30 2411 C 213.902 3.42729 1.12113 0
M  V30 2412 O 213.006 3.46498 2.23636 0
M  V30 2413 H 212.347 0.650876 0.131362 0
M  V30 2414 H 214.877 2.03344 -0.22634 0
M  V30 2415 H 214.887 3.81246 1.4531 0
M  V30 2416 H 213.562 4.14428 0.349557 0
M  V30 2417 H 212.139 3.19811 1.91769 0
M  V30 2418 N 214.325 -0.140222 1.56975 0
M  V30 2419 C 215.571 -0.852949 1.83991 0
M  V30 2420 C 215.904 -1.80512 0.716187 0
M  V30 2421 O 215.179 -1.92479 -0.279681 0
M  V30 2422 C 215.462 -1.6215 3.21527 0
M  V30 2423 C 215.315 -0.690363 4.4447 0
M  V30 2424 C 216.634 -2.58247 3.56366 0
M  V30 2425 H 213.753 -0.308634 0.669264 0
M  V30 2426 H 216.395 -0.117898 1.89634 0
M  V30 2427 H 214.545 -2.24812 3.16847 0
M  V30 2428 H 216.217 -0.0742264 4.6124 0
M  V30 2429 H 214.46 -0.000396433 4.338 0
M  V30 2430 H 215.131 -1.2643 5.37326 0
M  V30 2431 H 217.607 -2.05701 3.61699 0
M  V30 2432 H 216.483 -3.09067 4.53617 0
M  V30 2433 H 216.744 -3.39923 2.82674 0
M  V30 2434 N 215.803 -1.52179 -0.40978 0
M  V30 2435 C 217.028 -1.70347 -1.18308 0
M  V30 2436 C 217.453 -0.411887 -1.83535 0
M  V30 2437 O 216.811 0.630587 -1.6998 0
M  V30 2438 C 216.859 -2.83977 -2.22238 0
M  V30 2439 O 215.963 -2.495 -3.28365 0
M  V30 2440 H 215.304 -0.567103 -0.345384 0
M  V30 2441 H 217.834 -1.98879 -0.480445 0
M  V30 2442 H 217.844 -3.0887 -2.66577 0
M  V30 2443 H 216.519 -3.77685 -1.74146 0
M  V30 2444 H 215.096 -2.35277 -2.89308 0
M  V30 2445 N 217.281 0.66697 -1.42791 0
M  V30 2446 C 218.191 1.80962 -1.49299 0
M  V30 2447 C 219.207 1.69775 -0.381108 0
M  V30 2448 O 220.383 1.91188 -0.633188 0
M  V30 2449 C 217.448 3.17156 -1.40045 0
M  V30 2450 C 216.509 3.40242 -2.6179 0
M  V30 2451 C 215.742 4.69939 -2.52969 0
M  V30 2452 O 215.965 5.48372 -1.56985 0
M  V30 2453 O 214.899 4.94441 -3.43237 0
M  V30 2454 H 218.725 1.78427 -2.45759 0
M  V30 2455 H 216.31 0.823713 -1.24641 0
M  V30 2456 H 218.192 3.98413 -1.37276 0
M  V30 2457 H 216.867 3.20312 -0.467138 0
M  V30 2458 H 215.774 2.58802 -2.70134 0
M  V30 2459 H 217.107 3.41923 -3.54047 0
M  V30 2460 N 218.759 1.29093 0.90403 0
M  V30 2461 C 220.007 1.16583 1.65085 0
M  V30 2462 C 220.328 -0.283933 1.92922 0
M  V30 2463 O 219.598 -1.19509 1.55224 0
M  V30 2464 H 218.178 0.428467 0.611903 0
M  V30 2465 H 220.84 1.61959 1.08422 0
M  V30 2466 H 219.936 1.71266 2.6091 0
M  V30 2467 N 220.237 -1.11381 1.11499 0
M  V30 2468 C 221.184 -2.17439 0.773887 0
M  V30 2469 C 222.154 -1.64132 -0.254899 0
M  V30 2470 O 223.339 -1.90345 -0.13168 0
M  V30 2471 C 220.479 -3.44373 0.223917 0
M  V30 2472 C 219.592 -4.1168 1.30934 0
M  V30 2473 C 218.727 -5.263 0.71984 0
M  V30 2474 C 217.766 -5.85493 1.78507 0
M  V30 2475 N 216.903 -6.91507 1.21502 0
M  V30 2476 H 221.743 -2.45962 1.68246 0
M  V30 2477 H 219.28 -1.20744 0.840191 0
M  V30 2478 H 221.238 -4.17047 -0.112921 0
M  V30 2479 H 219.868 -3.16232 -0.647851 0
M  V30 2480 H 218.92 -3.37073 1.76312 0
M  V30 2481 H 220.232 -4.51729 2.11524 0
M  V30 2482 H 219.386 -6.05785 0.333094 0
M  V30 2483 H 218.125 -4.87559 -0.117377 0
M  V30 2484 H 217.13 -5.04686 2.18111 0
M  V30 2485 H 218.355 -6.26301 2.62533 0
M  V30 2486 H 216.301 -6.54783 0.399455 0
M  V30 2487 H 216.218 -7.30214 1.95763 0
M  V30 2488 H 217.486 -7.74795 0.855181 0
M  V30 2489 N 221.715 -0.905404 -1.28997 0
M  V30 2490 C 222.647 -0.344748 -2.26592 0
M  V30 2491 C 223.66 0.512135 -1.54535 0
M  V30 2492 O 224.849 0.328368 -1.75454 0
M  V30 2493 C 221.949 0.526587 -3.34784 0
M  V30 2494 C 221.122 -0.305871 -4.36329 0
M  V30 2495 C 220.181 0.499209 -5.23827 0
M  V30 2496 O 219.207 -0.0853004 -5.69136 0
M  V30 2497 N 220.409 1.80408 -5.51755 0
M  V30 2498 H 223.174 -1.18359 -2.75338 0
M  V30 2499 H 220.735 -0.770481 -1.42391 0
M  V30 2500 H 222.727 1.07171 -3.90252 0
M  V30 2501 H 221.297 1.26613 -2.85811 0
M  V30 2502 H 220.517 -1.0324 -3.80441 0
M  V30 2503 H 221.805 -0.875773 -5.01206 0
M  V30 2504 H 221.203 2.3016 -5.16762 0
M  V30 2505 H 219.76 2.29621 -6.10014 0
M  V30 2506 N 223.193 1.4272 -0.668489 0
M  V30 2507 C 224.604 1.84793 -0.266151 0
M  V30 2508 C 224.955 1.55959 1.19043 0
M  V30 2509 O 224.08 1.01622 1.91055 0
M  V30 2510 C 224.675 3.35436 -0.476271 0
M  V30 2511 C 223.234 3.76182 -0.128113 0
M  V30 2512 C 222.381 2.66344 -0.771777 0
M  V30 2513 H 225.332 1.32656 -0.871098 0
M  V30 2514 H 225.353 3.79515 0.273561 0
M  V30 2515 H 224.865 3.5639 -1.53647 0
M  V30 2516 H 222.966 3.60836 0.928891 0
M  V30 2517 H 223.079 4.75766 -0.564231 0
M  V30 2518 H 221.443 2.53885 -0.203652 0
M  V30 2519 H 222.226 2.90123 -1.83531 0
M  V30 2520 N 224.671 0.411399 1.52136 0
M  V30 2521 C 226.087 0.0623865 1.59478 0
M  V30 2522 C 226.287 -1.42554 1.4241 0
M  V30 2523 O 225.343 -2.19263 1.2522 0
M  V30 2524 C 226.656 0.559331 2.95452 0
M  V30 2525 C 228.204 0.517503 3.08692 0
M  V30 2526 C 228.679 0.990994 4.4715 0
M  V30 2527 N 230.17 0.947908 4.53397 0
M  V30 2528 C 230.905 1.28544 5.58806 0
M  V30 2529 N 230.401 1.69454 6.71757 0
M  V30 2530 N 232.194 1.20526 5.49026 0
M  V30 2531 H 224.345 1.37982 1.61477 0
M  V30 2532 H 226.608 0.566977 0.759764 0
M  V30 2533 H 226.314 1.59938 3.1323 0
M  V30 2534 H 226.188 -0.0298014 3.77188 0
M  V30 2535 H 228.575 -0.513505 2.90598 0
M  V30 2536 H 228.656 1.14272 2.28857 0
M  V30 2537 H 228.3 2.02034 4.65988 0
M  V30 2538 H 228.23 0.34257 5.25485 0
M  V30 2539 H 230.721 0.647157 3.72317 0
M  V30 2540 H 231.034 1.93513 7.48179 0
M  V30 2541 H 229.379 1.73359 6.73032 0
M  V30 2542 H 232.57 0.884505 4.59667 0
M  V30 2543 H 232.743 1.47161 6.31069 0
M  V30 2544 N 226.149 -1.5696 0.141893 0
M  V30 2545 C 227.396 -1.9596 -0.510492 0
M  V30 2546 C 227.724 -1.02648 -1.65208 0
M  V30 2547 O 226.979 -0.0546947 -1.95624 0
M  V30 2548 C 227.278 -3.41242 -1.06249 0
M  V30 2549 C 226.944 -4.50882 -0.0398791 0
M  V30 2550 C 225.606 -4.80595 0.241247 0
M  V30 2551 C 227.958 -5.17058 0.65578 0
M  V30 2552 C 225.286 -5.73792 1.22393 0
M  V30 2553 C 227.638 -6.11313 1.62724 0
M  V30 2554 C 226.302 -6.39407 1.91612 0
M  V30 2555 H 225.572 -0.717068 -0.186802 0
M  V30 2556 H 228.219 -1.90142 0.227643 0
M  V30 2557 H 226.524 -3.43866 -1.87785 0
M  V30 2558 H 228.221 -3.68742 -1.57576 0
M  V30 2559 H 224.811 -4.27754 -0.269174 0
M  V30 2560 H 228.995 -4.94239 0.451779 0
M  V30 2561 H 224.251 -5.93853 1.45424 0
M  V30 2562 H 228.425 -6.61668 2.17183 0
M  V30 2563 H 226.052 -7.11427 2.6791 0
M  V30 2564 N 227.627 0.131896 -1.57047 0
M  V30 2565 C 228.852 0.860418 -1.8871 0
M  V30 2566 C 229.277 1.73251 -0.73251 0
M  V30 2567 O 228.635 1.785 0.317429 0
M  V30 2568 C 228.683 1.68047 -3.19049 0
M  V30 2569 O 227.787 2.7862 -3.04047 0
M  V30 2570 H 227.128 0.238743 -0.619595 0
M  V30 2571 H 229.658 0.118169 -2.04258 0
M  V30 2572 H 229.668 2.07238 -3.51449 0
M  V30 2573 H 228.343 1.04018 -4.02682 0
M  V30 2574 H 226.92 2.42726 -2.83088 0
M  V30 2575 N 229.106 1.52395 0.401703 0
M  V30 2576 C 230.056 1.72649 1.48917 0
M  V30 2577 C 231.04 0.580436 1.50066 0
M  V30 2578 O 232.232 0.83779 1.55917 0
M  V30 2579 C 229.361 1.88729 2.86769 0
M  V30 2580 C 228.447 3.09228 2.90239 0
M  V30 2581 N 228.838 4.31805 2.63396 0
M  V30 2582 C 227.136 3.09214 3.21408 0
M  V30 2583 C 227.837 5.13326 2.73625 0
M  V30 2584 N 226.813 4.48735 3.06819 0
M  V30 2585 H 230.615 2.65058 1.26971 0
M  V30 2586 H 228.129 1.50528 0.609504 0
M  V30 2587 H 230.126 2.01358 3.65049 0
M  V30 2588 H 228.786 0.975252 3.09708 0
M  V30 2589 H 229.797 4.60154 2.37653 0
M  V30 2590 H 226.474 2.27774 3.49893 0
M  V30 2591 H 227.864 6.21003 2.56524 0
M  V30 2592 N 230.584 -0.659388 1.43143 0
M  V30 2593 C 232 -0.974337 1.26407 0
M  V30 2594 C 232.2 -2.007 0.179341 0
M  V30 2595 O 231.256 -2.4856 -0.444295 0
M  V30 2596 C 232.569 -1.46447 2.62628 0
M  V30 2597 C 234.117 -1.58144 2.7011 0
M  V30 2598 C 234.592 -2.1055 4.06734 0
M  V30 2599 N 236.083 -2.17861 4.08767 0
M  V30 2600 C 236.818 -2.59519 5.1131 0
M  V30 2601 N 236.314 -3.00518 6.24228 0
M  V30 2602 N 238.107 -2.59404 4.98664 0
M  V30 2603 H 230.258 0.0240528 2.12386 0
M  V30 2604 H 232.521 -0.0518065 0.946583 0
M  V30 2605 H 232.227 -0.780123 3.42939 0
M  V30 2606 H 232.101 -2.44058 2.87603 0
M  V30 2607 H 234.488 -2.25682 1.90136 0
M  V30 2608 H 234.569 -0.589828 2.48907 0
M  V30 2609 H 234.213 -1.43616 4.87172 0
M  V30 2610 H 234.143 -3.10531 4.25298 0
M  V30 2611 H 236.634 -1.88975 3.27257 0
M  V30 2612 H 236.947 -3.31036 6.98309 0
M  V30 2613 H 235.292 -2.98337 6.2771 0
M  V30 2614 H 238.483 -2.26747 4.09516 0
M  V30 2615 H 238.656 -2.91548 5.78709 0
M  V30 2616 N 232.062 -1.29571 -0.897171 0
M  V30 2617 C 233.311 -1.1706 -1.64256 0
M  V30 2618 C 233.624 0.276476 -1.93636 0
M  V30 2619 O 234.83 0.52294 -2.66416 0
M  V30 2620 C 233.286 -2.0475 -2.95982 0
M  V30 2621 C 232.894 -3.54295 -2.74187 0
M  V30 2622 C 234.638 -2.0097 -3.73914 0
M  V30 2623 C 232.545 -4.34081 -4.01656 0
M  V30 2624 H 231.475 -0.43452 -0.616205 0
M  V30 2625 H 234.126 -1.54229 -0.994268 0
M  V30 2626 H 232.508 -1.60452 -3.62038 0
M  V30 2627 H 233.682 -4.06662 -2.1671 0
M  V30 2628 H 231.997 -3.59773 -2.09648 0
M  V30 2629 H 234.594 -2.57838 -4.68427 0
M  V30 2630 H 234.937 -0.990273 -4.0435 0
M  V30 2631 H 235.47 -2.43325 -3.14703 0
M  V30 2632 H 232.209 -5.36671 -3.76384 0
M  V30 2633 H 231.729 -3.86483 -4.58684 0
M  V30 2634 H 233.408 -4.44877 -4.69781 0
M  V30 2635 N 233.54 1.10788 -1.12088 0
M  V30 2636 C 234.951 1.64181 -0.88891 0
M  V30 2637 C 235.302 1.87508 0.577498 0
M  V30 2638 O 234.427 1.61434 1.44112 0
M  V30 2639 C 235.022 2.98257 -1.60712 0
M  V30 2640 C 233.581 3.4853 -1.42139 0
M  V30 2641 C 232.728 2.23208 -1.6454 0
M  V30 2642 H 235.679 0.943368 -1.27618 0
M  V30 2643 H 235.7 3.65552 -1.05604 0
M  V30 2644 H 235.212 2.81246 -2.67436 0
M  V30 2645 H 233.313 3.70692 -0.376552 0
M  V30 2646 H 233.426 4.26882 -2.17505 0
M  V30 2647 H 231.79 2.31169 -1.06925 0
M  V30 2648 H 232.573 2.08733 -2.72554 0
M  V30 2649 N 235.018 0.912232 1.28515 0
M  V30 2650 C 235.948 0.416403 2.29757 0
M  V30 2651 C 236.929 -0.515194 1.6211 0
M  V30 2652 O 238.114 -0.423253 1.89532 0
M  V30 2653 C 235.244 -0.34572 3.45575 0
M  V30 2654 C 234.198 0.496599 4.25109 0
M  V30 2655 C 233.524 -0.393771 5.33248 0
M  V30 2656 C 234.824 1.75307 4.92001 0
M  V30 2657 H 236.518 1.26249 2.7148 0
M  V30 2658 H 234.064 0.608515 1.30511 0
M  V30 2659 H 236.017 -0.703422 4.15488 0
M  V30 2660 H 234.741 -1.2257 3.02728 0
M  V30 2661 H 233.4 0.8368 3.56922 0
M  V30 2662 H 233.048 -1.27225 4.86644 0
M  V30 2663 H 232.748 0.166209 5.87365 0
M  V30 2664 H 234.272 -0.747389 6.06009 0
M  V30 2665 H 235.686 1.46437 5.54283 0
M  V30 2666 H 234.083 2.25534 5.56106 0
M  V30 2667 H 235.153 2.48176 4.16577 0
M  V30 2668 N 236.496 -1.42363 0.676048 0
M  V30 2669 C 237.426 -2.33497 0.0124832 0
M  V30 2670 C 238.407 -1.50748 -0.787981 0
M  V30 2671 O 239.592 -1.79346 -0.744884 0
M  V30 2672 C 236.722 -3.34377 -0.938582 0
M  V30 2673 C 235.676 -4.27289 -0.246622 0
M  V30 2674 C 235.002 -5.18386 -1.31071 0
M  V30 2675 C 236.302 -5.14916 0.875125 0
M  V30 2676 H 237.996 -2.89233 0.773593 0
M  V30 2677 H 235.542 -1.39073 0.37346 0
M  V30 2678 H 237.495 -3.97044 -1.41188 0
M  V30 2679 H 236.219 -2.76947 -1.73113 0
M  V30 2680 H 234.878 -3.66018 0.206456 0
M  V30 2681 H 234.526 -4.57282 -2.09528 0
M  V30 2682 H 234.226 -5.81378 -0.852839 0
M  V30 2683 H 235.75 -5.83929 -1.78492 0
M  V30 2684 H 237.164 -5.71262 0.482983 0
M  V30 2685 H 235.561 -5.86747 1.25887 0
M  V30 2686 H 236.631 -4.53242 1.72335 0
M  V30 2687 N 237.974 -0.419461 -1.51915 0
M  V30 2688 C 239.223 0.154346 -2.01109 0
M  V30 2689 C 239.536 1.45338 -1.30905 0
M  V30 2690 O 240.742 2.10906 -1.7097 0
M  V30 2691 C 239.198 0.325615 -3.58424 0
M  V30 2692 C 238.806 -0.961934 -4.37551 0
M  V30 2693 C 240.55 0.854155 -4.15818 0
M  V30 2694 C 238.457 -0.757287 -5.86531 0
M  V30 2695 H 237.387 0.0614563 -0.751491 0
M  V30 2696 H 240.038 -0.54649 -1.75173 0
M  V30 2697 H 238.42 1.08903 -3.80731 0
M  V30 2698 H 239.594 -1.7323 -4.26999 0
M  V30 2699 H 237.909 -1.41766 -3.91524 0
M  V30 2700 H 240.506 1.02346 -5.24814 0
M  V30 2701 H 240.849 1.83172 -3.73837 0
M  V30 2702 H 241.382 0.149528 -3.97519 0
M  V30 2703 H 238.121 -1.70671 -6.32892 0
M  V30 2704 H 237.641 -0.0264061 -5.99794 0
M  V30 2705 H 239.32 -0.403482 -6.45741 0
M  V30 2706 N 239.452 1.56882 -0.150215 0
M  V30 2707 C 240.699 1.96228 0.500093 0
M  V30 2708 C 241.027 1.03522 1.64661 0
M  V30 2709 O 240.282 0.0650683 1.95592 0
M  V30 2710 C 240.581 3.41801 1.04437 0
M  V30 2711 C 240.247 4.50897 0.0159671 0
M  V30 2712 C 238.909 4.8046 -0.266731 0
M  V30 2713 C 241.261 5.16703 -0.683192 0
M  V30 2714 C 238.589 5.73135 -1.25434 0
M  V30 2715 C 240.941 6.10441 -1.65964 0
M  V30 2716 C 239.605 6.38382 -1.95 0
M  V30 2717 H 238.875 0.718048 0.182997 0
M  V30 2718 H 241.522 1.90019 -0.237724 0
M  V30 2719 H 239.827 3.44857 1.85959 0
M  V30 2720 H 241.524 3.69573 1.55618 0
M  V30 2721 H 238.114 4.27891 0.246485 0
M  V30 2722 H 242.298 4.93993 -0.477983 0
M  V30 2723 H 237.554 5.93074 -1.48571 0
M  V30 2724 H 241.728 6.60507 -2.20689 0
M  V30 2725 H 239.355 7.09996 -2.71679 0
M  V30 2726 N 240.93 -0.123565 1.57115 0
M  V30 2727 C 242.207 -0.862196 1.75572 0
M  V30 2728 C 242.587 -1.98279 0.724475 0
M  V30 2729 O 241.935 -2.27102 -0.252407 0
M  V30 2730 C 242.145 -1.38309 3.20424 0
M  V30 2731 C 243.493 -1.83724 3.82793 0
M  V30 2732 O 244.517 -1.47999 3.23998 0
M  V30 2733 O 243.376 -2.49685 4.86127 0
M  V30 2734 H 240.47 -0.409113 0.718718 0
M  V30 2735 H 243.016 -0.107661 1.69358 0
M  V30 2736 H 241.788 -0.578889 3.86994 0
M  V30 2737 H 241.411 -2.20046 3.31158 0
M  V30 2738 N 242.408 -1.52605 -0.393616 0
M  V30 2739 C 243.34 -1.73303 -1.49995 0
M  V30 2740 C 244.353 -0.613473 -1.50799 0
M  V30 2741 O 245.542 -0.889049 -1.54784 0
M  V30 2742 C 242.642 -1.77245 -2.88855 0
M  V30 2743 C 241.815 -3.06483 -3.12069 0
M  V30 2744 C 240.874 -3.02033 -4.30886 0
M  V30 2745 O 239.9 -3.75907 -4.27414 0
M  V30 2746 N 241.102 -2.20897 -5.36828 0
M  V30 2747 H 243.867 -2.68756 -1.32629 0
M  V30 2748 H 241.428 -1.51036 -0.583083 0
M  V30 2749 H 243.42 -1.7178 -3.66434 0
M  V30 2750 H 241.99 -0.891993 -2.99603 0
M  V30 2751 H 241.21 -3.25474 -2.22396 0
M  V30 2752 H 242.498 -3.91947 -3.2443 0
M  V30 2753 H 241.896 -1.60336 -5.42502 0
M  V30 2754 H 240.453 -2.21275 -6.13091 0
M  V30 2755 N 243.887 0.651787 -1.4349 0
M  V30 2756 C 245.164 1.40909 -1.35661 0
M  V30 2757 C 245.544 2.11099 -0.00511733 0
M  V30 2758 O 244.892 2.04892 1.0115 0
M  V30 2759 C 245.102 2.3926 -2.54078 0
M  V30 2760 C 246.45 3.03217 -2.97228 0
M  V30 2761 O 247.474 2.49588 -2.54135 0
M  V30 2762 O 246.333 4.00455 -3.71885 0
M  V30 2763 H 243.427 0.629625 -0.536191 0
M  V30 2764 H 245.973 0.678575 -1.55542 0
M  V30 2765 H 244.745 1.86352 -3.44076 0
M  V30 2766 H 244.368 3.1976 -2.36303 0
M  V30 2767 N 245.365 1.30045 0.890287 0
M  V30 2768 C 246.275 1.17885 2.02831 0
M  V30 2769 C 247.291 0.0999609 1.73713 0
M  V30 2770 O 248.467 0.313867 1.98939 0
M  V30 2771 C 245.532 0.866079 3.35708 0
M  V30 2772 C 244.593 2.02979 3.78283 0
M  V30 2773 C 243.826 1.73184 5.0482 0
M  V30 2774 O 244.049 0.657237 5.66601 0
M  V30 2775 O 242.983 2.58267 5.43674 0
M  V30 2776 H 246.809 2.13474 2.16015 0
M  V30 2777 H 244.394 1.09587 1.01543 0
M  V30 2778 H 246.276 0.706623 4.15433 0
M  V30 2779 H 244.951 -0.0599443 3.23644 0
M  V30 2780 H 243.858 2.24454 2.99285 0
M  V30 2781 H 245.191 2.93734 3.94944 0
M  V30 2782 N 246.843 -1.10192 1.12674 0
M  V30 2783 C 247.79 -2.16606 0.796906 0
M  V30 2784 C 248.76 -1.64394 -0.237476 0
M  V30 2785 O 249.945 -1.90474 -0.111484 0
M  V30 2786 C 247.085 -3.44116 0.26043 0
M  V30 2787 C 246.198 -4.10268 1.35293 0
M  V30 2788 C 245.333 -5.25507 0.775621 0
M  V30 2789 C 244.372 -5.83567 1.84706 0
M  V30 2790 N 243.509 -6.90179 1.28829 0
M  V30 2791 H 248.349 -2.44163 1.70846 0
M  V30 2792 H 245.886 -1.19846 0.85295 0
M  V30 2793 H 247.844 -4.17143 -0.0686814 0
M  V30 2794 H 246.474 -3.16901 -0.614274 0
M  V30 2795 H 245.526 -3.35184 1.79877 0
M  V30 2796 H 246.838 -4.4946 2.16303 0
M  V30 2797 H 245.992 -6.05398 0.397327 0
M  V30 2798 H 244.731 -4.87656 -0.0656581 0
M  V30 2799 H 243.736 -5.02344 2.23452 0
M  V30 2800 H 244.961 -6.23482 2.69161 0
M  V30 2801 H 242.907 -6.54322 0.468881 0
M  V30 2802 H 242.824 -7.28097 2.03497 0
M  V30 2803 H 244.092 -7.73844 0.937311 0
M  V30 2804 N 248.321 -0.919034 -1.28029 0
M  V30 2805 C 249.569 -0.553838 -1.94363 0
M  V30 2806 C 249.89 0.906357 -1.72656 0
M  V30 2807 O 249.16 1.64143 -1.0693 0
M  V30 2808 H 247.74 -0.201834 -0.719216 0
M  V30 2809 H 250.402 -1.16954 -1.55909 0
M  V30 2810 H 249.498 -0.752758 -3.02886 0
M  V30 2811 N 249.799 1.42003 -0.683588 0
M  V30 2812 C 250.746 2.30798 -0.0107309 0
M  V30 2813 C 251.716 1.4645 0.783688 0
M  V30 2814 O 252.901 1.75263 0.754156 0
M  V30 2815 C 250.041 3.3238 0.928306 0
M  V30 2816 C 249.154 4.31814 0.126776 0
M  V30 2817 C 248.289 5.20468 1.06236 0
M  V30 2818 C 247.328 6.11577 0.253035 0
M  V30 2819 N 246.465 6.92754 1.14179 0
M  V30 2820 H 251.305 2.8778 -0.773727 0
M  V30 2821 H 248.842 1.41745 -0.393283 0
M  V30 2822 H 250.8 3.89813 1.48666 0
M  V30 2823 H 249.43 2.76976 1.65783 0
M  V30 2824 H 248.482 3.76427 -0.54833 0
M  V30 2825 H 249.794 4.96276 -0.501192 0
M  V30 2826 H 248.948 5.82677 1.69035 0
M  V30 2827 H 247.687 4.56204 1.7242 0
M  V30 2828 H 246.692 5.48428 -0.388108 0
M  V30 2829 H 247.917 6.77892 -0.404839 0
M  V30 2830 H 245.863 6.3111 1.78987 0
M  V30 2831 H 245.78 7.53855 0.569111 0
M  V30 2832 H 247.048 7.59441 1.75697 0
M  V30 2833 N 251.277 0.427512 1.51691 0
M  V30 2834 C 252.24 -0.377132 2.26076 0
M  V30 2835 C 253.24 -0.958089 1.29141 0
M  V30 2836 O 254.43 -0.83408 1.52934 0
M  V30 2837 C 251.562 -1.53262 3.04506 0
M  V30 2838 H 252.755 0.27464 2.9864 0
M  V30 2839 H 250.308 0.180445 1.55255 0
M  V30 2840 H 251.043 -2.22072 2.36335 0
M  V30 2841 H 250.828 -1.12232 3.75694 0
M  V30 2842 H 252.318 -2.10135 3.60878 0
M  V30 2843 N 252.755 -1.56801 0.158532 0
M  V30 2844 C 254.171 -1.5837 -0.197774 0
M  V30 2845 C 254.371 -1.17334 -1.63814 0
M  V30 2846 O 253.427 -0.878988 -2.36707 0
M  V30 2847 C 254.74 -3.00615 0.0714459 0
M  V30 2848 C 256.288 -3.12999 0.00864533 0
M  V30 2849 C 256.763 -4.57313 0.250685 0
M  V30 2850 N 258.254 -4.62777 0.198014 0
M  V30 2851 C 258.989 -5.72271 0.359642 0
M  V30 2852 N 258.485 -6.90371 0.579625 0
M  V30 2853 N 260.278 -5.61318 0.296438 0
M  V30 2854 H 252.429 -1.81765 1.09887 0
M  V30 2855 H 254.692 -0.841849 0.435884 0
M  V30 2856 H 254.398 -3.35068 1.06874 0
M  V30 2857 H 254.272 -3.71683 -0.642757 0
M  V30 2858 H 256.659 -2.7838 -0.979217 0
M  V30 2859 H 256.74 -2.44393 0.755359 0
M  V30 2860 H 256.384 -4.92639 1.2357 0
M  V30 2861 H 256.314 -5.24061 -0.516489 0
M  V30 2862 H 258.805 -3.77885 0.0331115 0
M  V30 2863 H 259.118 -7.69689 0.69275 0
M  V30 2864 H 257.463 -6.92264 0.616087 0
M  V30 2865 H 260.654 -4.67932 0.125258 0
M  V30 2866 H 260.827 -6.46599 0.425831 0
M  V30 2867 N 254.233 0.115231 -1.57178 0
M  V30 2868 C 255.51 0.852873 -1.76027 0
M  V30 2869 C 255.89 1.97892 -0.73498 0
M  V30 2870 O 255.238 2.27232 0.24036 0
M  V30 2871 C 255.448 1.36608 -3.21153 0
M  V30 2872 C 256.796 1.81692 -3.83762 0
M  V30 2873 O 257.82 1.46278 -3.24779 0
M  V30 2874 O 256.679 2.47104 -4.87444 0
M  V30 2875 H 253.773 0.405296 -0.720877 0
M  V30 2876 H 256.319 0.0986785 -1.69413 0
M  V30 2877 H 255.091 0.558357 -3.87296 0
M  V30 2878 H 254.714 2.18287 -3.3232 0
M  V30 2879 N 255.711 1.52812 0.385517 0
M  V30 2880 C 256.958 1.68026 1.1302 0
M  V30 2881 C 257.286 0.421934 1.89868 0
M  V30 2882 O 256.541 -0.595749 1.86412 0
M  V30 2883 C 256.84 2.86856 2.13187 0
M  V30 2884 C 256.506 4.24159 1.5297 0
M  V30 2885 C 255.168 4.61501 1.36274 0
M  V30 2886 C 257.52 5.09627 1.09223 0
M  V30 2887 C 254.848 5.81966 0.743837 0
M  V30 2888 C 257.2 6.30719 0.487411 0
M  V30 2889 C 255.864 6.6679 0.307777 0
M  V30 2890 H 255.134 0.614849 0.413571 0
M  V30 2891 H 257.781 1.86962 0.414405 0
M  V30 2892 H 256.086 2.6235 2.90998 0
M  V30 2893 H 257.783 2.95821 2.70722 0
M  V30 2894 H 254.373 3.94746 1.66954 0
M  V30 2895 H 258.557 4.81343 1.20922 0
M  V30 2896 H 253.813 6.08519 0.592891 0
M  V30 2897 H 257.987 6.96259 0.140143 0
M  V30 2898 H 255.614 7.60001 -0.173879 0
M  V30 2899 N 257.189 -0.644168 1.43834 0
M  V30 2900 C 258.436 -1.40395 1.4593 0
M  V30 2901 C 258.764 -1.94305 0.0869658 0
M  V30 2902 O 258.019 -1.73288 -0.909378 0
M  V30 2903 C 258.318 -2.59615 2.45631 0
M  V30 2904 C 257.984 -2.2407 3.91284 0
M  V30 2905 C 256.646 -2.14089 4.30952 0
M  V30 2906 C 258.998 -1.95775 4.83034 0
M  V30 2907 C 256.326 -1.73981 5.6031 0
M  V30 2908 C 258.678 -1.57163 6.12766 0
M  V30 2909 C 257.342 -1.45713 6.51402 0
M  V30 2910 H 256.612 -0.513741 0.533995 0
M  V30 2911 H 259.259 -0.731724 1.76969 0
M  V30 2912 H 257.564 -3.32011 2.08028 0
M  V30 2913 H 259.261 -3.17834 2.44504 0
M  V30 2914 H 255.851 -2.32753 3.59895 0
M  V30 2915 H 260.035 -2.02403 4.53152 0
M  V30 2916 H 255.291 -1.63709 5.89075 0
M  V30 2917 H 259.465 -1.34303 6.83327 0
M  V30 2918 H 257.092 -1.14406 7.51542 0
M  V30 2919 N 258.668 -1.30515 -0.883378 0
M  V30 2920 C 259.896 -1.22359 -1.66841 0
M  V30 2921 C 260.311 0.213296 -1.87591 0
M  V30 2922 O 259.668 1.14075 -1.42454 0
M  V30 2923 C 259.719 -1.95011 -3.04389 0
M  V30 2924 O 259.44 -3.3309 -2.84575 0
M  V30 2925 C 260.941 -1.93532 -3.98824 0
M  V30 2926 H 258.161 -0.423371 -0.520575 0
M  V30 2927 H 260.705 -1.72167 -1.10357 0
M  V30 2928 H 258.86 -1.48997 -3.57601 0
M  V30 2929 H 259.274 -3.69907 -3.71846 0
M  V30 2930 H 260.748 -2.48902 -4.92699 0
M  V30 2931 H 261.225 -0.914627 -4.29571 0
M  V30 2932 H 261.831 -2.39364 -3.51547 0
M  V30 2933 N 260.146 1.09593 -1.13257 0
M  V30 2934 C 261.394 1.81375 -0.891492 0
M  V30 2935 C 261.715 1.86049 0.584009 0
M  V30 2936 O 260.985 1.34481 1.42449 0
M  V30 2937 H 259.565 0.671708 -0.326828 0
M  V30 2938 H 262.227 1.3256 -1.42877 0
M  V30 2939 H 261.323 2.84612 -1.28071 0
M  V30 2940 N 261.624 0.925811 1.2754 0
M  V30 2941 C 263.04 0.625767 1.46821 0
M  V30 2942 C 263.24 -0.825506 1.83814 0
M  V30 2943 O 262.296 -1.60356 1.95044 0
M  V30 2944 C 263.609 1.57402 2.56213 0
M  V30 2945 C 265.157 1.58204 2.70075 0
M  V30 2946 C 265.632 2.51721 3.82623 0
M  V30 2947 N 267.123 2.49917 3.89994 0
M  V30 2948 C 267.858 3.18968 4.76494 0
M  V30 2949 N 267.354 3.97391 5.67496 0
M  V30 2950 N 269.147 3.07996 4.70208 0
M  V30 2951 H 261.298 1.86409 1.01811 0
M  V30 2952 H 263.561 0.800213 0.508295 0
M  V30 2953 H 263.267 2.60925 2.35819 0
M  V30 2954 H 263.141 1.31428 3.53563 0
M  V30 2955 H 265.528 0.554124 2.89851 0
M  V30 2956 H 265.609 1.88226 1.73218 0
M  V30 2957 H 265.253 3.54622 3.63601 0
M  V30 2958 H 265.183 2.18996 4.78903 0
M  V30 2959 H 267.674 1.9296 3.24923 0
M  V30 2960 H 267.987 4.4707 6.30356 0
M  V30 2961 H 266.332 4.01495 5.67298 0
M  V30 2962 H 269.523 2.46223 3.9811 0
M  V30 2963 H 269.696 3.6208 5.37403 0
M  V30 2964 N 263.102 -1.41638 0.69111 0
M  V30 2965 C 264.049 -2.30789 0.0229705 0
M  V30 2966 C 265.019 -1.46863 -0.775911 0
M  V30 2967 O 266.204 -1.75661 -0.74485 0
M  V30 2968 C 263.344 -3.32868 -0.910666 0
M  V30 2969 C 262.457 -4.31875 -0.103874 0
M  V30 2970 C 261.592 -5.21024 -1.03475 0
M  V30 2971 C 260.631 -6.11702 -0.220598 0
M  V30 2972 N 259.768 -6.93349 -1.10504 0
M  V30 2973 H 264.608 -2.87366 0.788978 0
M  V30 2974 H 262.145 -1.41535 0.400794 0
M  V30 2975 H 264.103 -3.90596 -1.46597 0
M  V30 2976 H 262.733 -2.77851 -1.64312 0
M  V30 2977 H 261.785 -3.76131 0.568285 0
M  V30 2978 H 263.097 -4.96003 0.527504 0
M  V30 2979 H 262.251 -5.83565 -1.65943 0
M  V30 2980 H 260.99 -4.57112 -1.69999 0
M  V30 2981 H 259.995 -5.48215 0.417187 0
M  V30 2982 H 261.22 -6.77668 0.440784 0
M  V30 2983 H 259.166 -6.3205 -1.75638 0
M  V30 2984 H 259.083 -7.54146 -0.529125 0
M  V30 2985 H 260.351 -7.60362 -1.71667 0
M  V30 2986 N 264.58 -0.43555 -1.51462 0
M  V30 2987 C 265.996 -0.0877501 -1.59359 0
M  V30 2988 C 266.196 1.4027 -1.4466 0
M  V30 2989 O 265.252 2.17243 -1.28693 0
M  V30 2990 C 266.565 -0.606264 -2.94525 0
M  V30 2991 C 268.113 -0.566548 -3.0783 0
M  V30 2992 C 268.588 -1.06201 -4.45517 0
M  V30 2993 N 270.079 -1.01992 -4.51832 0
M  V30 2994 C 270.814 -1.37417 -5.5669 0
M  V30 2995 N 270.31 -1.80119 -6.68976 0
M  V30 2996 N 272.103 -1.29245 -5.47039 0
M  V30 2997 H 264.254 -1.40533 -1.59261 0
M  V30 2998 H 266.517 -0.578992 -0.750648 0
M  V30 2999 H 266.223 -1.64901 -3.10645 0
M  V30 3000 H 266.097 -0.0302097 -3.77188 0
M  V30 3001 H 268.484 0.467208 -2.91378 0
M  V30 3002 H 268.565 -1.17898 -2.2701 0
M  V30 3003 H 268.209 -2.09422 -4.62715 0
M  V30 3004 H 268.139 -0.426127 -5.24873 0
M  V30 3005 H 270.63 -0.706308 -3.71241 0
M  V30 3006 H 270.943 -2.05392 -7.45006 0
M  V30 3007 H 269.288 -1.84044 -6.70189 0
M  V30 3008 H 272.479 -0.957522 -4.58202 0
M  V30 3009 H 272.652 -1.57182 -6.28648 0
M  V30 3010 N 266.058 1.56714 -0.166846 0
M  V30 3011 C 267.005 2.17746 0.765193 0
M  V30 3012 C 267.975 1.11614 1.23011 0
M  V30 3013 O 269.16 1.39745 1.29908 0
M  V30 3014 C 266.3 2.81882 1.9909 0
M  V30 3015 C 265.413 4.02462 1.56997 0
M  V30 3016 C 264.548 4.54537 2.749 0
M  V30 3017 C 263.587 5.67538 2.29275 0
M  V30 3018 N 262.724 6.14142 3.40255 0
M  V30 3019 H 267.564 2.97048 0.237952 0
M  V30 3020 H 265.101 1.4672 0.105725 0
M  V30 3021 H 267.059 3.17221 2.70974 0
M  V30 3022 H 265.689 2.05191 2.49192 0
M  V30 3023 H 264.741 3.72973 0.748037 0
M  V30 3024 H 266.053 4.84273 1.19503 0
M  V30 3025 H 265.207 4.92035 3.54946 0
M  V30 3026 H 263.946 3.71774 3.1565 0
M  V30 3027 H 262.951 5.29597 1.47674 0
M  V30 3028 H 264.176 6.52099 1.89588 0
M  V30 3029 H 262.122 5.3431 3.8059 0
M  V30 3030 H 262.039 6.9093 3.06841 0
M  V30 3031 H 263.307 6.56289 4.206 0
M  V30 3032 N 267.536 -0.106894 1.57237 0
M  V30 3033 C 268.782 -0.81373 1.85759 0
M  V30 3034 C 269.115 -1.78952 0.754315 0
M  V30 3035 O 268.39 -1.93029 -0.23879 0
M  V30 3036 C 268.673 -1.55293 3.24894 0
M  V30 3037 C 268.526 -0.595929 4.45835 0
M  V30 3038 C 269.845 -2.5063 3.61763 0
M  V30 3039 H 266.964 -0.294369 0.67566 0
M  V30 3040 H 269.606 -0.0776472 1.89841 0
M  V30 3041 H 267.756 -2.1804 3.21544 0
M  V30 3042 H 269.428 0.0236262 4.61294 0
M  V30 3043 H 267.671 0.0916191 4.33703 0
M  V30 3044 H 268.342 -1.15004 5.39887 0
M  V30 3045 H 270.818 -1.97982 3.65981 0
M  V30 3046 H 269.694 -2.99376 4.60071 0
M  V30 3047 H 269.955 -3.3385 2.89821 0
M  V30 3048 N 269.014 -1.53014 -0.377408 0
M  V30 3049 C 270.262 -1.6829 -1.11906 0
M  V30 3050 C 270.583 -0.431206 -1.90173 0
M  V30 3051 O 269.853 0.554595 -1.87886 0
M  V30 3052 H 268.433 -0.620371 -0.416112 0
M  V30 3053 H 271.095 -1.90167 -0.426893 0
M  V30 3054 H 270.191 -2.53862 -1.8155 0
M  V30 3055 N 270.492 0.636531 -1.44174 0
M  V30 3056 C 271.74 1.39343 -1.46383 0
M  V30 3057 C 272.061 1.94766 -0.0955715 0
M  V30 3058 O 271.331 1.75452 0.871395 0
M  V30 3059 H 269.911 0.517199 -0.538994 0
M  V30 3060 H 272.573 0.74957 -1.7991 0
M  V30 3061 H 271.669 2.22746 -2.18611 0
M  V30 3062 N 271.97 1.30982 0.876444 0
M  V30 3063 C 273.195 1.23373 1.66715 0
M  V30 3064 C 273.62 -0.19885 1.87046 0
M  V30 3065 O 272.978 -1.1427 1.40756 0
M  V30 3066 C 273.026 1.97644 3.01611 0
M  V30 3067 O 272.13 1.30935 3.91062 0
M  V30 3068 H 271.471 0.426279 0.509099 0
M  V30 3069 H 274.001 1.72944 1.09323 0
M  V30 3070 H 274.011 2.06992 3.51594 0
M  V30 3071 H 272.686 3.01829 2.86133 0
M  V30 3072 H 271.263 1.29996 3.49507 0
M  V30 3073 N 273.449 -1.08991 1.13837 0
M  V30 3074 C 274.698 -1.80631 0.897509 0
M  V30 3075 C 275.011 -1.86872 -0.57777 0
M  V30 3076 O 276.217 -2.54866 -0.935701 0
M  V30 3077 C 274.673 -3.24517 1.55618 0
M  V30 3078 C 274.281 -3.26529 3.0673 0
M  V30 3079 C 276.025 -4.00882 1.3962 0
M  V30 3080 C 273.932 -4.64965 3.65461 0
M  V30 3081 H 272.862 -0.67691 0.332129 0
M  V30 3082 H 275.513 -1.2246 1.3666 0
M  V30 3083 H 273.895 -3.82778 1.01476 0
M  V30 3084 H 275.069 -2.78008 3.67489 0
M  V30 3085 H 273.384 -2.63656 3.22296 0
M  V30 3086 H 275.981 -5.03167 1.80906 0
M  V30 3087 H 276.324 -4.14896 0.341578 0
M  V30 3088 H 276.857 -3.49075 1.90766 0
M  V30 3089 H 273.596 -4.56153 4.70749 0
M  V30 3090 H 273.116 -5.13792 3.09481 0
M  V30 3091 H 274.795 -5.3394 3.654 0
M  V30 3092 N 274.927 -0.932562 -1.27047 0
M  V30 3093 C 276.176 -0.571351 -1.93439 0
M  V30 3094 C 276.489 0.892467 -1.74053 0
M  V30 3095 O 277.695 1.36267 -2.34826 0
M  V30 3096 C 276.151 -0.97106 -3.46552 0
M  V30 3097 C 275.759 -2.4559 -3.74686 0
M  V30 3098 C 277.503 -0.681333 -4.18997 0
M  V30 3099 C 275.41 -2.79475 -5.21198 0
M  V30 3100 H 274.34 -0.209966 -0.724176 0
M  V30 3101 H 276.991 -1.13403 -1.44263 0
M  V30 3102 H 275.373 -0.336983 -3.94564 0
M  V30 3103 H 276.547 -3.13829 -3.37414 0
M  V30 3104 H 274.862 -2.71802 -3.15456 0
M  V30 3105 H 277.459 -0.910939 -5.26883 0
M  V30 3106 H 277.802 0.381628 -4.14547 0
M  V30 3107 H 278.335 -1.27473 -3.76823 0
M  V30 3108 H 275.074 -3.847 -5.30741 0
M  V30 3109 H 274.594 -2.1589 -5.596 0
M  V30 3110 H 276.273 -2.67478 -5.89122 0
M  V30 3111 N 276.405 1.4127 -0.698611 0
M  V30 3112 C 277.355 2.27997 -0.0119836 0
M  V30 3113 C 278.339 1.42363 0.749765 0
M  V30 3114 O 279.531 1.65607 0.624758 0
M  V30 3115 C 276.66 3.30702 0.921458 0
M  V30 3116 C 275.746 4.23814 0.155796 0
M  V30 3117 N 276.137 4.98572 -0.852015 0
M  V30 3118 C 274.435 4.44284 0.390836 0
M  V30 3119 C 275.136 5.66744 -1.3106 0
M  V30 3120 N 274.112 5.39867 -0.635944 0
M  V30 3121 H 277.914 2.83232 -0.784649 0
M  V30 3122 H 275.428 1.53518 -0.529711 0
M  V30 3123 H 277.425 3.91661 1.42854 0
M  V30 3124 H 276.085 2.77028 1.69369 0
M  V30 3125 H 277.096 5.03024 -1.23235 0
M  V30 3126 H 273.773 4.01614 1.14071 0
M  V30 3127 H 275.163 6.36672 -2.14707 0
M  V30 3128 N 277.883 0.443576 1.51229 0
M  V30 3129 C 278.83 -0.364716 2.279 0
M  V30 3130 C 279.8 -1.0114 1.31757 0
M  V30 3131 O 280.985 -1.02912 1.60667 0
M  V30 3132 C 278.125 -1.45644 3.12861 0
M  V30 3133 C 277.238 -0.827269 4.24005 0
M  V30 3134 C 276.373 -1.89456 4.96266 0
M  V30 3135 C 275.412 -1.24416 5.99322 0
M  V30 3136 N 274.549 -2.25309 6.64966 0
M  V30 3137 H 279.389 0.295464 2.96532 0
M  V30 3138 H 276.926 0.157554 1.46254 0
M  V30 3139 H 278.884 -2.10076 3.6045 0
M  V30 3140 H 277.514 -2.08616 2.46331 0
M  V30 3141 H 276.566 -0.0710839 3.80334 0
M  V30 3142 H 277.878 -0.312481 4.9782 0
M  V30 3143 H 277.032 -2.61535 5.47434 0
M  V30 3144 H 275.771 -2.4431 4.22095 0
M  V30 3145 H 274.776 -0.508868 5.4744 0
M  V30 3146 H 276.001 -0.702882 6.75453 0
M  V30 3147 H 273.947 -2.79231 5.93604 0
M  V30 3148 H 273.864 -1.78739 7.34567 0
M  V30 3149 H 275.132 -2.96853 7.20763 0
M  V30 3150 N 279.361 -1.56624 0.175154 0
M  V30 3151 C 280.324 -2.16934 -0.739738 0
M  V30 3152 C 281.324 -1.11842 -1.15533 0
M  V30 3153 O 282.514 -1.37335 -1.07167 0
M  V30 3154 C 279.646 -2.75531 -2.00738 0
M  V30 3155 H 280.839 -2.99131 -0.214639 0
M  V30 3156 H 278.392 -1.56123 -0.0744197 0
M  V30 3157 H 279.127 -1.97078 -2.57548 0
M  V30 3158 H 278.912 -3.52444 -1.71831 0
M  V30 3159 H 280.402 -3.21904 -2.66021 0
M  V30 3160 N 280.839 0.0985539 -1.57292 0
M  V30 3161 C 282.064 0.820196 -1.90493 0
M  V30 3162 C 282.489 1.71658 -0.769094 0
M  V30 3163 O 281.847 1.79133 0.279495 0
M  V30 3164 C 281.895 1.61242 -3.22542 0
M  V30 3165 O 280.999 2.72108 -3.09888 0
M  V30 3166 H 280.34 0.225547 -0.62452 0
M  V30 3167 H 282.87 0.0748159 -2.04463 0
M  V30 3168 H 282.88 1.99737 -3.55766 0
M  V30 3169 H 281.555 0.954535 -4.04798 0
M  V30 3170 H 280.132 2.36667 -2.88172 0
M  V30 3171 N 282.317 1.53212 0.369288 0
M  V30 3172 C 283.265 1.80054 1.47253 0
M  V30 3173 C 284.259 0.669456 1.55611 0
M  V30 3174 O 285.465 0.852328 1.58541 0
M  V30 3175 H 281.84 0.570034 0.490475 0
M  V30 3176 H 283.811 2.72403 1.21817 0
M  V30 3177 C 282.56 2.00403 2.84137 0
M  V30 3178 H 281.883 2.86876 2.78464 0
M  V30 3179 H 283.323 2.23164 3.60519 0
M  V30 3180 C 281.782 0.782081 3.27697 0
M  V30 3181 O 282.312 -0.0310205 4.01688 0
M  V30 3182 N 280.518 0.606573 2.84199 0
M  V30 3183 H 280.065 1.26939 2.24152 0
M  V30 3184 H 280.023 -0.20962 3.137 0
M  V30 3185 N 283.795 -0.628877 1.44509 0
M  V30 3186 C 285.041 -1.39045 1.47629 0
M  V30 3187 C 285.374 -1.93892 0.109343 0
M  V30 3188 O 284.649 -1.7379 -0.87334 0
M  V30 3189 C 284.932 -2.55408 2.53848 0
M  V30 3190 C 284.785 -2.05896 3.99909 0
M  V30 3191 C 286.104 -3.5759 2.56549 0
M  V30 3192 H 283.223 -0.504232 0.537512 0
M  V30 3193 H 285.865 -0.710854 1.76201 0
M  V30 3194 H 284.015 -3.13384 2.29615 0
M  V30 3195 H 285.687 -1.52734 4.35282 0
M  V30 3196 H 283.93 -1.37061 4.11578 0
M  V30 3197 H 284.601 -2.89681 4.69882 0
M  V30 3198 H 287.077 -3.09419 2.78207 0
M  V30 3199 H 285.953 -4.36527 3.32769 0
M  V30 3200 H 286.214 -4.11808 1.60832 0
M  V30 3201 N 285.273 -1.31445 -0.869486 0
M  V30 3202 C 286.206 -1.13465 -1.97992 0
M  V30 3203 C 287.184 -0.0380291 -1.62556 0
M  V30 3204 O 288.368 -0.194544 -1.87493 0
M  V30 3205 C 285.495 -0.733822 -3.30655 0
M  V30 3206 C 284.541 -1.83356 -3.85075 0
M  V30 3207 S 285.374 -3.43909 -4.10472 0
M  V30 3208 C 286.53 -3.05763 -5.46132 0
M  V30 3209 H 286.763 -2.07471 -2.1294 0
M  V30 3210 H 284.296 -1.15936 -1.01972 0
M  V30 3211 H 286.254 -0.509306 -4.07328 0
M  V30 3212 H 284.915 0.187123 -3.13542 0
M  V30 3213 H 284.108 -1.50574 -4.80982 0
M  V30 3214 H 283.71 -2.01315 -3.15195 0
M  V30 3215 H 286.002 -2.54686 -6.27807 0
M  V30 3216 H 286.945 -4.00635 -5.83864 0
M  V30 3217 H 287.353 -2.43192 -5.09429 0
M  V30 3218 N 286.751 1.08385 -1.14413 0
M  V30 3219 C 287.701 2.13509 -0.79987 0
M  V30 3220 C 288.685 1.5951 0.211059 0
M  V30 3221 O 289.877 1.76995 0.0133694 0
M  V30 3222 C 287.006 3.42162 -0.279297 0
M  V30 3223 C 286.092 4.03042 -1.31976 0
M  V30 3224 N 286.483 4.38327 -2.52395 0
M  V30 3225 C 284.781 4.30379 -1.17004 0
M  V30 3226 C 285.482 4.86428 -3.19003 0
M  V30 3227 N 284.458 4.84547 -2.46405 0
M  V30 3228 H 288.26 2.38609 -1.7159 0
M  V30 3229 H 285.774 1.2572 -1.02802 0
M  V30 3230 H 287.771 4.16898 -0.0143688 0
M  V30 3231 H 286.431 3.18511 0.630923 0
M  V30 3232 H 287.442 4.29349 -2.89621 0
M  V30 3233 H 284.119 4.16281 -0.318854 0
M  V30 3234 H 285.509 5.23107 -4.21674 0
M  V30 3235 N 288.23 0.939286 1.26551 0
M  V30 3236 C 289.479 0.581601 1.93133 0
M  V30 3237 C 289.792 -0.883224 1.74524 0
M  V30 3238 O 290.998 -1.3502 2.35546 0
M  V30 3239 C 289.454 0.989425 3.46032 0
M  V30 3240 C 289.062 2.47573 3.73379 0
M  V30 3241 C 290.806 0.703544 4.18629 0
M  V30 3242 C 288.713 2.82235 5.19709 0
M  V30 3243 H 287.643 0.213803 0.723052 0
M  V30 3244 H 290.294 1.14167 1.4366 0
M  V30 3245 H 288.676 0.357902 3.94379 0
M  V30 3246 H 289.85 3.15614 3.35744 0
M  V30 3247 H 288.165 2.73471 3.1401 0
M  V30 3248 H 290.762 0.938869 5.26393 0
M  V30 3249 H 291.105 -0.359639 4.14744 0
M  V30 3250 H 291.638 1.2947 3.76141 0
M  V30 3251 H 288.377 3.87509 5.28694 0
M  V30 3252 H 287.897 2.18854 5.58447 0
M  V30 3253 H 289.576 2.70599 5.87695 0
M  V30 3254 N 289.708 -1.40897 0.706093 0
M  V30 3255 C 290.618 -2.3455 0.0482286 0
M  V30 3256 C 291.634 -1.56796 -0.754396 0
M  V30 3257 O 292.81 -1.89228 -0.689538 0
M  V30 3258 C 289.875 -3.35625 -0.869303 0
M  V30 3259 C 288.936 -4.29261 -0.0576994 0
M  V30 3260 C 288.169 -5.25508 -0.931531 0
M  V30 3261 O 288.392 -5.27472 -2.17092 0
M  V30 3262 O 287.326 -6.00727 -0.375587 0
M  V30 3263 H 291.152 -2.92407 0.820476 0
M  V30 3264 H 288.737 -1.4193 0.4665 0
M  V30 3265 H 290.619 -3.97635 -1.39514 0
M  V30 3266 H 289.294 -2.80196 -1.62086 0
M  V30 3267 H 288.201 -3.70566 0.512988 0
M  V30 3268 H 289.534 -4.87817 0.655426 0
M  V30 3269 N 291.186 -0.45159 -1.50991 0
M  V30 3270 C 292.411 0.110667 -2.07105 0
M  V30 3271 C 292.836 1.3446 -1.31538 0
M  V30 3272 O 292.194 1.77743 -0.357365 0
M  V30 3273 C 292.242 0.397238 -3.58405 0
M  V30 3274 O 291.346 1.48124 -3.84881 0
M  V30 3275 H 290.687 -0.00439271 -0.663985 0
M  V30 3276 H 293.217 -0.637026 -1.9443 0
M  V30 3277 H 293.227 0.64351 -4.02893 0
M  V30 3278 H 291.902 -0.504553 -4.12828 0
M  V30 3279 H 290.479 1.22381 -3.52246 0
M  V30 3280 N 292.664 1.56529 -0.183458 0
M  V30 3281 C 293.611 2.18546 0.742055 0
M  V30 3282 C 294.581 1.12912 1.2182 0
M  V30 3283 O 295.766 1.41115 1.28418 0
M  V30 3284 C 292.906 2.83977 1.96089 0
M  V30 3285 C 292.019 4.04105 1.52719 0
M  V30 3286 C 291.154 4.57427 2.70063 0
M  V30 3287 C 290.193 5.69938 2.23243 0
M  V30 3288 N 289.33 6.17717 3.33722 0
M  V30 3289 H 294.17 2.97284 0.206432 0
M  V30 3290 H 291.707 1.46823 0.0901571 0
M  V30 3291 H 293.665 3.20077 2.67594 0
M  V30 3292 H 292.295 2.07822 2.47002 0
M  V30 3293 H 291.347 3.73745 0.708436 0
M  V30 3294 H 292.659 4.85513 1.1436 0
M  V30 3295 H 291.813 4.95772 3.49708 0
M  V30 3296 H 290.552 3.75101 3.11689 0
M  V30 3297 H 289.557 5.31133 1.42048 0
M  V30 3298 H 290.782 6.54073 1.82661 0
M  V30 3299 H 288.728 5.38317 3.74902 0
M  V30 3300 H 288.645 6.94146 2.99495 0
M  V30 3301 H 289.913 6.60713 4.13616 0
M  V30 3302 N 294.142 -0.090211 1.57342 0
M  V30 3303 C 295.074 -1.13541 1.99101 0
M  V30 3304 C 296.087 -1.3604 0.894258 0
M  V30 3305 O 297.276 -1.34606 1.17233 0
M  V30 3306 C 294.376 -2.49001 2.29895 0
M  V30 3307 C 293.549 -2.46712 3.61182 0
M  V30 3308 C 292.608 -3.64136 3.79857 0
M  V30 3309 O 291.634 -3.46405 4.51655 0
M  V30 3310 N 292.836 -4.83802 3.20806 0
M  V30 3311 H 295.601 -0.779942 2.89373 0
M  V30 3312 H 293.162 -0.279125 1.59476 0
M  V30 3313 H 295.154 -3.26166 2.39578 0
M  V30 3314 H 293.724 -2.76619 1.45605 0
M  V30 3315 H 292.944 -1.55058 3.62423 0
M  V30 3316 H 294.232 -2.42265 4.4742 0
M  V30 3317 H 293.63 -5.01112 2.62494 0
M  V30 3318 H 292.187 -5.58543 3.35966 0
M  V30 3319 N 295.62 -1.53406 -0.361157 0
M  V30 3320 C 296.866 -1.70054 -1.10496 0
M  V30 3321 C 297.199 -0.453278 -1.88836 0
M  V30 3322 O 296.474 0.5495 -1.86576 0
M  V30 3323 C 296.757 -2.95317 -2.06058 0
M  V30 3324 C 296.61 -4.3021 -1.31298 0
M  V30 3325 C 297.929 -3.16193 -3.06121 0
M  V30 3326 H 295.048 -0.618799 -0.400321 0
M  V30 3327 H 297.69 -1.86052 -0.385318 0
M  V30 3328 H 295.84 -2.81809 -2.67425 0
M  V30 3329 H 297.512 -4.55538 -0.726807 0
M  V30 3330 H 295.755 -4.29421 -0.614853 0
M  V30 3331 H 296.426 -5.14 -2.01265 0
M  V30 3332 H 298.902 -3.28916 -2.5486 0
M  V30 3333 H 297.778 -4.05266 -3.70204 0
M  V30 3334 H 298.039 -2.31676 -3.76535 0
M  V30 3335 N 297.098 0.621204 -1.44841 0
M  V30 3336 C 298.344 1.3826 -1.48365 0
M  V30 3337 C 298.677 1.93831 -0.119624 0
M  V30 3338 O 297.952 1.74251 0.864111 0
M  V30 3339 C 298.235 2.54058 -2.55199 0
M  V30 3340 C 298.088 2.03772 -4.00995 0
M  V30 3341 C 299.407 3.56225 -2.58442 0
M  V30 3342 H 296.526 0.501374 -0.540179 0
M  V30 3343 H 299.168 0.7015 -1.76576 0
M  V30 3344 H 297.318 3.12162 -2.31274 0
M  V30 3345 H 298.99 1.50423 -4.36086 0
M  V30 3346 H 297.233 1.34876 -4.12299 0
M  V30 3347 H 297.904 2.87185 -4.71411 0
M  V30 3348 H 300.38 3.07939 -2.79844 0
M  V30 3349 H 299.256 4.34756 -3.3508 0
M  V30 3350 H 299.517 4.10949 -1.63013 0
M  V30 3351 N 298.576 1.31904 0.862503 0
M  V30 3352 C 299.824 1.21776 1.61292 0
M  V30 3353 C 300.145 -0.222413 1.93727 0
M  V30 3354 O 299.415 -1.1451 1.58947 0
M  V30 3355 H 297.995 0.447717 0.597962 0
M  V30 3356 H 300.657 1.65326 1.03215 0
M  V30 3357 H 299.753 1.7948 2.5533 0
M  V30 3358 N 300.054 -1.07777 1.14986 0
M  V30 3359 C 301.301 -1.8029 0.922056 0
M  V30 3360 C 301.629 -1.86531 -0.55105 0
M  V30 3361 O 300.884 -1.34189 -1.42449 0
M  V30 3362 C 301.183 -3.25495 1.47608 0
M  V30 3363 C 300.849 -3.39361 2.96893 0
M  V30 3364 C 299.511 -3.42852 3.37647 0
M  V30 3365 C 301.863 -3.42512 3.92854 0
M  V30 3366 C 299.191 -3.47094 4.73015 0
M  V30 3367 C 301.543 -3.4829 5.28088 0
M  V30 3368 C 300.207 -3.50058 5.68345 0
M  V30 3369 H 299.477 -0.659727 0.337404 0
M  V30 3370 H 302.124 -1.26854 1.43459 0
M  V30 3371 H 300.429 -3.81683 0.88463 0
M  V30 3372 H 302.126 -3.80168 1.27568 0
M  V30 3373 H 298.716 -3.37339 2.64387 0
M  V30 3374 H 302.9 -3.3904 3.62444 0
M  V30 3375 H 298.156 -3.46758 5.03556 0
M  V30 3376 H 302.33 -3.49675 6.02246 0
M  V30 3377 H 299.957 -3.53097 6.73221 0
M  V30 3378 N 301.532 -0.945985 -1.26051 0
M  V30 3379 C 302.464 -0.416662 -2.25381 0
M  V30 3380 C 303.477 0.462712 -1.56086 0
M  V30 3381 O 304.666 0.272383 -1.7641 0
M  V30 3382 C 301.766 0.419812 -3.3629 0
M  V30 3383 C 300.939 -0.444531 -4.35135 0
M  V30 3384 C 299.998 0.332305 -5.2515 0
M  V30 3385 O 299.024 -0.266324 -5.68577 0
M  V30 3386 N 300.226 1.62763 -5.57215 0
M  V30 3387 H 302.991 -1.27059 -2.71433 0
M  V30 3388 H 300.552 -0.815392 -1.39868 0
M  V30 3389 H 302.544 0.947013 -3.93464 0
M  V30 3390 H 301.114 1.17456 -2.89694 0
M  V30 3391 H 300.334 -1.15291 -3.76964 0
M  V30 3392 H 301.622 -1.03478 -4.98166 0
M  V30 3393 H 301.02 2.13603 -5.23823 0
M  V30 3394 H 299.577 2.10097 -6.17011 0
M  V30 3395 N 303.011 1.40521 -0.713556 0
M  V30 3396 C 303.941 2.33381 -0.0743864 0
M  V30 3397 C 304.922 1.52784 0.747735 0
M  V30 3398 O 306.107 1.81258 0.697071 0
M  V30 3399 C 303.237 3.36748 0.849598 0
M  V30 3400 C 302.191 4.27793 0.133247 0
M  V30 3401 C 301.517 5.21679 1.17281 0
M  V30 3402 C 302.817 5.12415 -1.01134 0
M  V30 3403 H 304.511 2.87081 -0.850007 0
M  V30 3404 H 302.057 1.38034 -0.410201 0
M  V30 3405 H 304.01 4.00648 1.30612 0
M  V30 3406 H 302.734 2.81439 1.65709 0
M  V30 3407 H 301.393 3.65342 -0.303426 0
M  V30 3408 H 301.041 4.62677 1.9733 0
M  V30 3409 H 300.741 5.83435 0.698397 0
M  V30 3410 H 302.265 5.88456 1.62947 0
M  V30 3411 H 303.679 5.69781 -0.634274 0
M  V30 3412 H 302.076 5.83203 -1.41399 0
M  V30 3413 H 303.146 4.48514 -1.84292 0
M  V30 3414 N 304.489 0.459591 1.5075 0
M  V30 3415 C 305.729 -0.09824 2.04164 0
M  V30 3416 C 306.093 -1.3801 1.33481 0
M  V30 3417 O 307.294 -2.01959 1.77387 0
M  V30 3418 C 305.565 -0.289467 3.56226 0
M  V30 3419 S 307.124 -0.807507 4.31306 0
M  V30 3420 H 303.942 -0.0213845 0.710678 0
M  V30 3421 H 306.544 0.624098 1.85271 0
M  V30 3422 H 305.248 0.649461 4.05229 0
M  V30 3423 H 304.779 -1.03825 3.79452 0
M  V30 3424 H 306.794 -2.0824 4.50389 0
M  V30 3425 N 305.967 -1.56429 0.191757 0
M  V30 3426 C 307.192 -2.02309 -0.456706 0
M  V30 3427 C 307.617 -1.07103 -1.5463 0
M  V30 3428 O 306.975 -0.0539677 -1.8122 0
M  V30 3429 C 307.023 -3.46654 -0.993159 0
M  V30 3430 O 306.127 -3.54559 -2.10622 0
M  V30 3431 H 305.468 -0.655303 -0.107114 0
M  V30 3432 H 307.998 -2.02364 0.301653 0
M  V30 3433 H 308.008 -3.86377 -1.31061 0
M  V30 3434 H 306.683 -4.1544 -0.195504 0
M  V30 3435 H 305.26 -3.26708 -1.79767 0
M  V30 3436 N 307.445 0.0818655 -1.57387 0
M  V30 3437 C 308.393 1.11712 -2.04018 0
M  V30 3438 C 309.387 1.40683 -0.94364 0
M  V30 3439 O 310.593 1.40209 -1.12878 0
M  V30 3440 H 306.968 0.377542 -0.650358 0
M  V30 3441 H 308.939 0.697614 -2.90131 0
M  V30 3442 C 307.688 2.42537 -2.49141 0
M  V30 3443 H 307.011 2.21092 -3.33104 0
M  V30 3444 H 308.451 3.13446 -2.85531 0
M  V30 3445 C 306.91 3.0778 -1.37014 0
M  V30 3446 O 307.44 3.95436 -0.706621 0
M  V30 3447 N 305.646 2.68242 -1.11779 0
M  V30 3448 H 305.193 1.97052 -1.65917 0
M  V30 3449 H 305.151 3.1222 -0.369594 0
M  V30 3450 N 308.923 1.53595 0.353017 0
M  V30 3451 C 310.2 1.61002 1.11075 0
M  V30 3452 C 310.58 0.425356 2.0677 0
M  V30 3453 O 309.928 -0.583267 2.2093 0
M  V30 3454 C 310.138 2.96631 1.83877 0
M  V30 3455 C 311.486 3.51653 2.37961 0
M  V30 3456 O 312.51 2.98743 1.93987 0
M  V30 3457 O 311.369 4.44177 3.18386 0
M  V30 3458 H 308.463 0.650825 0.510251 0
M  V30 3459 H 311.009 1.6594 0.35527 0
M  V30 3460 H 309.781 3.74293 1.14108 0
M  V30 3461 H 309.404 2.95242 2.66304 0
M  V30 3462 N 310.401 -0.613514 1.45168 0
M  V30 3463 C 311.629 -1.39946 1.5239 0
M  V30 3464 C 312.044 -1.88167 0.154531 0
M  V30 3465 O 311.401 -1.61872 -0.842843 0
M  V30 3466 C 311.452 -2.60795 2.50337 0
M  V30 3467 O 311.173 -2.1458 3.81952 0
M  V30 3468 C 312.674 -3.53723 2.67198 0
M  V30 3469 H 309.894 -0.428593 0.516284 0
M  V30 3470 H 312.438 -0.748753 1.903 0
M  V30 3471 H 310.593 -3.21919 2.15515 0
M  V30 3472 H 311.007 -2.93055 4.34993 0
M  V30 3473 H 312.481 -4.35079 3.39721 0
M  V30 3474 H 312.958 -4.0368 1.73029 0
M  V30 3475 H 313.564 -2.98456 3.02992 0
M  V30 3476 N 311.879 -1.3236 -0.855495 0
M  V30 3477 C 313.104 -1.2601 -1.64731 0
M  V30 3478 C 313.529 0.169068 -1.87339 0
M  V30 3479 O 312.887 1.12016 -1.42556 0
M  V30 3480 C 312.935 -2.02417 -2.98429 0
M  V30 3481 O 312.039 -1.3714 -3.8893 0
M  V30 3482 H 311.38 -0.434325 -0.502253 0
M  V30 3483 H 313.91 -1.74661 -1.06558 0
M  V30 3484 H 313.92 -2.12559 -3.48257 0
M  V30 3485 H 312.595 -3.06343 -2.81295 0
M  V30 3486 H 311.172 -1.3554 -3.47395 0
M  V30 3487 N 313.357 1.07166 -1.15556 0
M  V30 3488 C 314.634 1.76546 -0.842069 0
M  V30 3489 C 315.014 2.00453 0.661939 0
M  V30 3490 O 314.362 1.62452 1.60691 0
M  V30 3491 C 314.572 3.07266 -1.65495 0
M  V30 3492 C 315.92 3.81578 -1.86234 0
M  V30 3493 O 316.944 3.17083 -1.62287 0
M  V30 3494 O 315.803 4.97419 -2.26355 0
M  V30 3495 H 312.897 0.766756 -0.309862 0
M  V30 3496 H 315.443 1.13514 -1.26145 0
M  V30 3497 H 314.215 2.85494 -2.67598 0
M  V30 3498 H 313.838 3.7803 -1.23203 0
M  V30 3499 N 314.835 0.952656 1.25548 0
M  V30 3500 C 316.075 0.614013 1.9496 0
M  V30 3501 C 316.439 -0.833215 1.72978 0
M  V30 3502 O 317.64 -1.28135 2.36294 0
M  V30 3503 C 315.911 0.960562 3.4425 0
M  V30 3504 S 317.47 0.734195 4.32614 0
M  V30 3505 H 314.288 0.225754 0.674208 0
M  V30 3506 H 316.89 1.22641 1.52248 0
M  V30 3507 H 315.594 2.01103 3.57751 0
M  V30 3508 H 315.125 0.338336 3.91942 0
M  V30 3509 H 317.14 -0.395995 4.94617 0
M  V30 3510 N 316.313 -1.40141 0.720998 0
M  V30 3511 C 317.276 -2.29058 0.0805834 0
M  V30 3512 C 318.276 -1.45632 -0.681758 0
M  V30 3513 O 319.466 -1.6648 -0.512856 0
M  V30 3514 C 316.598 -3.28925 -0.895593 0
M  V30 3515 H 317.791 -2.87191 0.863793 0
M  V30 3516 H 315.344 -1.48553 0.485975 0
M  V30 3517 H 316.079 -2.75822 -1.70566 0
M  V30 3518 H 315.864 -3.90519 -0.351766 0
M  V30 3519 H 317.354 -3.95494 -1.34069 0
M  V30 3520 N 317.792 -0.46758 -1.50504 0
M  V30 3521 C 319.02 0.0864133 -2.06719 0
M  V30 3522 C 319.435 1.33819 -1.33184 0
M  V30 3523 O 318.792 1.78061 -0.400083 0
M  V30 3524 C 318.843 0.378079 -3.59517 0
M  V30 3525 O 318.564 -0.824044 -4.3028 0
M  V30 3526 C 320.065 0.979426 -4.32345 0
M  V30 3527 H 317.285 -0.00551697 -0.670977 0
M  V30 3528 H 319.829 -0.655354 -1.93715 0
M  V30 3529 H 317.984 1.06977 -3.72337 0
M  V30 3530 H 318.398 -0.566518 -5.21432 0
M  V30 3531 H 319.872 1.1333 -5.40241 0
M  V30 3532 H 320.349 1.9686 -3.9261 0
M  V30 3533 H 320.955 0.326216 -4.24047 0
M  V30 3534 N 319.27 1.56325 -0.20005 0
M  V30 3535 C 320.5 2.01811 0.442232 0
M  V30 3536 C 320.908 1.07932 1.55394 0
M  V30 3537 O 320.251 0.0772685 1.83537 0
M  V30 3538 C 320.313 3.43685 1.05457 0
M  V30 3539 C 319.977 4.56928 0.0809833 0
M  V30 3540 C 320.974 5.15009 -0.711471 0
M  V30 3541 C 318.659 5.0229 -0.0315364 0
M  V30 3542 C 320.653 6.16904 -1.60336 0
M  V30 3543 C 318.34 6.04028 -0.926981 0
M  V30 3544 C 319.338 6.6121 -1.71146 0
M  V30 3545 O 319.026 7.60971 -2.59189 0
M  V30 3546 H 318.758 0.666173 0.114848 0
M  V30 3547 H 321.312 2.03085 -0.307511 0
M  V30 3548 H 319.542 3.39413 1.85299 0
M  V30 3549 H 321.231 3.72948 1.60201 0
M  V30 3550 H 321.997 4.80827 -0.634873 0
M  V30 3551 H 317.876 4.57476 0.568902 0
M  V30 3552 H 321.42 6.61464 -2.21611 0
M  V30 3553 H 317.317 6.37634 -1.00468 0
M  V30 3554 H 318.085 7.7841 -2.53023 0
M  V30 3555 N 320.748 -0.0735177 1.57428 0
M  V30 3556 C 321.976 -0.785969 1.9139 0
M  V30 3557 C 322.391 -1.71207 0.795847 0
M  V30 3558 O 321.748 -1.81033 -0.230915 0
M  V30 3559 C 321.799 -1.58107 3.25091 0
M  V30 3560 O 321.52 -0.6922 4.32597 0
M  V30 3561 C 323.021 -2.39467 3.73055 0
M  V30 3562 H 320.241 -0.223558 0.632663 0
M  V30 3563 H 322.785 -0.044302 2.04452 0
M  V30 3564 H 320.94 -2.27503 3.13562 0
M  V30 3565 H 321.354 -1.24504 5.09508 0
M  V30 3566 H 322.828 -2.90716 4.69242 0
M  V30 3567 H 323.305 -3.18913 3.01979 0
M  V30 3568 H 323.911 -1.7523 3.87523 0
M  V30 3569 N 322.226 -1.5378 -0.344866 0
M  V30 3570 C 323.473 -1.70963 -1.08526 0
M  V30 3571 C 323.801 -0.472126 -1.88683 0
M  V30 3572 O 323.056 0.546116 -1.87926 0
M  V30 3573 C 323.355 -2.92407 -2.05506 0
M  V30 3574 C 323.021 -4.28066 -1.41671 0
M  V30 3575 C 321.683 -4.64951 -1.2399 0
M  V30 3576 C 324.035 -5.12344 -0.956726 0
M  V30 3577 C 321.363 -5.83733 -0.589277 0
M  V30 3578 C 323.715 -6.3179 -0.320015 0
M  V30 3579 C 322.379 -6.67372 -0.130881 0
M  V30 3580 H 321.649 -0.625598 -0.397124 0
M  V30 3581 H 324.296 -1.87995 -0.36469 0
M  V30 3582 H 322.601 -2.69973 -2.8394 0
M  V30 3583 H 324.298 -3.02895 -2.62784 0
M  V30 3584 H 320.888 -3.99034 -1.56429 0
M  V30 3585 H 325.072 -4.8438 -1.08118 0
M  V30 3586 H 320.328 -6.09877 -0.431344 0
M  V30 3587 H 324.502 -6.96386 0.0445072 0
M  V30 3588 H 322.129 -7.59273 0.375318 0
M  V30 3589 N 323.704 0.605807 -1.45491 0
M  V30 3590 C 324.929 1.39625 -1.53361 0
M  V30 3591 C 325.354 1.87351 -0.167645 0
M  V30 3592 O 324.712 1.60243 0.848051 0
M  V30 3593 C 324.76 2.57559 -2.5238 0
M  V30 3594 O 323.864 3.58248 -2.04285 0
M  V30 3595 H 323.205 0.416771 -0.516912 0
M  V30 3596 H 325.735 0.737103 -1.90861 0
M  V30 3597 H 325.745 3.0478 -2.71244 0
M  V30 3598 H 324.42 2.22171 -3.51586 0
M  V30 3599 H 322.997 3.17664 -1.95305 0
M  V30 3600 N 325.182 1.32811 0.848464 0
M  V30 3601 C 326.407 1.26882 1.6406 0
M  V30 3602 C 326.832 -0.15913 1.87426 0
M  V30 3603 O 326.19 -1.11258 1.43148 0
M  V30 3604 C 326.238 2.03997 2.97351 0
M  V30 3605 O 325.342 1.39201 3.88197 0
M  V30 3606 H 324.683 0.436982 0.499943 0
M  V30 3607 H 327.213 1.75224 1.0563 0
M  V30 3608 H 327.223 2.14403 3.47124 0
M  V30 3609 H 325.898 3.0783 2.79666 0
M  V30 3610 H 324.475 1.37381 3.46671 0
M  V30 3611 N 326.66 -1.06551 1.16123 0
M  V30 3612 C 327.908 -1.78947 0.939267 0
M  V30 3613 C 328.229 -1.87532 -0.534476 0
M  V30 3614 O 327.499 -1.38211 -1.38833 0
M  V30 3615 H 326.079 -0.662807 0.344523 0
M  V30 3616 H 328.741 -1.28725 1.46342 0
M  V30 3617 H 327.837 -2.81117 1.35572 0
M  V30 3618 N 328.138 -0.959301 -1.25041 0
M  V30 3619 C 329.387 -0.612254 -1.92183 0
M  V30 3620 C 329.7 0.855347 -1.75907 0
M  V30 3621 O 330.906 1.31256 -2.37664 0
M  V30 3622 C 329.362 -1.04435 -3.44414 0
M  V30 3623 C 328.97 -2.53482 -3.69393 0
M  V30 3624 C 330.714 -0.770055 -4.17457 0
M  V30 3625 C 328.621 -2.90468 -5.15153 0
M  V30 3626 H 327.551 -0.225279 -0.719559 0
M  V30 3627 H 330.202 -1.16438 -1.41825 0
M  V30 3628 H 328.584 -0.4206 -3.9376 0
M  V30 3629 H 329.758 -3.20916 -3.30681 0
M  V30 3630 H 328.073 -2.78432 -3.0962 0
M  V30 3631 H 330.67 -1.02249 -5.24832 0
M  V30 3632 H 331.013 0.293611 -4.15263 0
M  V30 3633 H 331.546 -1.35437 -3.74034 0
M  V30 3634 H 328.285 -3.95871 -5.22462 0
M  V30 3635 H 327.805 -2.27711 -5.54894 0
M  V30 3636 H 329.484 -2.79914 -5.83315 0
M  V30 3637 N 329.616 1.39756 -0.72842 0
M  V30 3638 C 330.564 2.32485 -0.0731849 0
M  V30 3639 C 331.558 1.52717 0.733063 0
M  V30 3640 O 332.764 1.68428 0.634988 0
M  V30 3641 H 329.139 0.751984 -0.00486469 0
M  V30 3642 H 331.11 2.85382 -0.871761 0
M  V30 3643 C 329.859 3.37773 0.824908 0
M  V30 3644 H 329.182 3.99227 0.213915 0
M  V30 3645 H 330.622 4.05121 1.25111 0
M  V30 3646 C 329.081 2.74287 1.95622 0
M  V30 3647 O 329.611 2.61618 3.04826 0
M  V30 3648 N 327.817 2.32475 1.74367 0
M  V30 3649 H 327.364 2.4298 0.855494 0
M  V30 3650 H 327.322 1.90337 2.50238 0
M  V30 3651 N 331.094 0.475555 1.50254 0
M  V30 3652 C 332.057 -0.305016 2.27161 0
M  V30 3653 C 333.057 -0.916519 1.32123 0
M  V30 3654 O 334.247 -0.785003 1.5551 0
M  V30 3655 C 331.379 -1.43496 3.09227 0
M  V30 3656 H 332.572 0.369511 2.97615 0
M  V30 3657 H 330.125 0.229747 1.54602 0
M  V30 3658 H 330.86 -2.14441 2.43281 0
M  V30 3659 H 330.645 -1.00223 3.79075 0
M  V30 3660 H 332.135 -1.98548 3.67381 0
M  V30 3661 N 332.573 -1.56217 0.208337 0
M  V30 3662 C 333.822 -1.97124 -0.427204 0
M  V30 3663 C 334.135 -1.09859 -1.61835 0
M  V30 3664 O 335.341 -1.40606 -2.32255 0
M  V30 3665 C 333.797 -3.50633 -0.811442 0
M  V30 3666 C 333.405 -4.46582 0.35615 0
M  V30 3667 C 335.149 -4.00282 -1.41332 0
M  V30 3668 C 333.056 -5.91379 -0.0497852 0
M  V30 3669 H 331.986 -0.736086 -0.163381 0
M  V30 3670 H 334.637 -1.8099 0.302456 0
M  V30 3671 H 333.019 -3.62319 -1.59815 0
M  V30 3672 H 334.193 -4.46636 1.1337 0
M  V30 3673 H 332.508 -4.07202 0.870396 0
M  V30 3674 H 335.105 -5.0595 -1.72972 0
M  V30 3675 H 335.448 -3.45359 -2.32449 0
M  V30 3676 H 335.981 -3.91764 -0.690323 0
M  V30 3677 H 332.72 -6.50255 0.827529 0
M  V30 3678 H 332.24 -5.94549 -0.791926 0
M  V30 3679 H 333.919 -6.45209 -0.481042 0
M  V30 3680 N 334.051 0.0651679 -1.57465 0
M  V30 3681 C 334.983 1.10359 -2.00882 0
M  V30 3682 C 335.996 1.346 -0.915788 0
M  V30 3683 O 337.185 1.32723 -1.1936 0
M  V30 3684 C 334.285 2.45312 -2.33828 0
M  V30 3685 C 333.458 2.40934 -3.65061 0
M  V30 3686 C 332.517 3.58047 -3.85602 0
M  V30 3687 O 331.543 3.39175 -4.57109 0
M  V30 3688 N 332.745 4.78637 -3.28462 0
M  V30 3689 H 335.51 0.733807 -2.90578 0
M  V30 3690 H 333.071 0.253719 -1.599 0
M  V30 3691 H 335.063 3.22314 -2.44737 0
M  V30 3692 H 333.633 2.74267 -1.49988 0
M  V30 3693 H 332.853 1.49273 -3.64844 0
M  V30 3694 H 334.141 2.35117 -4.51218 0
M  V30 3695 H 333.539 4.96872 -2.70433 0
M  V30 3696 H 332.096 5.53127 -3.44809 0
M  V30 3697 N 335.529 1.53961 0.336706 0
M  V30 3698 C 336.439 1.85432 1.43708 0
M  V30 3699 C 337.455 0.745053 1.57242 0
M  V30 3700 O 338.631 1.03804 1.72588 0
M  V30 3701 C 335.696 2.06349 2.78605 0
M  V30 3702 C 334.757 3.30191 2.74358 0
M  V30 3703 C 333.99 3.50101 4.02822 0
M  V30 3704 O 334.213 2.7371 5.00439 0
M  V30 3705 O 333.147 4.43547 4.06878 0
M  V30 3706 H 336.973 2.78975 1.20028 0
M  V30 3707 H 334.558 1.39701 0.52952 0
M  V30 3708 H 336.44 2.21513 3.58483 0
M  V30 3709 H 335.115 1.15995 3.02203 0
M  V30 3710 H 334.022 3.20425 1.93078 0
M  V30 3711 H 335.355 4.2056 2.55715 0
M  V30 3712 N 337.007 -0.598083 1.45811 0
M  V30 3713 C 338.253 -1.35679 1.51535 0
M  V30 3714 C 338.608 -1.91745 0.15864 0
M  V30 3715 O 337.901 -1.72654 -0.830724 0
M  V30 3716 C 338.095 -2.51669 2.53766 0
M  V30 3717 C 337.924 -2.06963 3.99245 0
M  V30 3718 C 336.694 -1.92693 4.67116 0
M  V30 3719 C 338.892 -1.63855 4.875 0
M  V30 3720 N 336.874 -1.41897 5.97276 0
M  V30 3721 C 338.245 -1.24541 6.07363 0
M  V30 3722 C 340.3 -1.51533 4.74281 0
M  V30 3723 C 339.003 -0.741354 7.15469 0
M  V30 3724 C 341.029 -1.0253 5.82444 0
M  V30 3725 C 340.391 -0.641869 7.01469 0
M  V30 3726 H 336.49 -0.490042 0.609412 0
M  V30 3727 H 339.074 -0.682687 1.82339 0
M  V30 3728 H 337.245 -3.16663 2.24898 0
M  V30 3729 H 338.977 -3.18578 2.4958 0
M  V30 3730 H 335.732 -2.1417 4.22408 0
M  V30 3731 H 336.156 -1.18704 6.66512 0
M  V30 3732 H 340.798 -1.798 3.82664 0
M  V30 3733 H 338.516 -0.446243 8.06867 0
M  V30 3734 H 342.102 -0.934088 5.74253 0
M  V30 3735 H 340.982 -0.268531 7.8374 0
M  V30 3736 N 338.485 -1.33259 -0.841409 0
M  V30 3737 C 339.715 -1.2742 -1.62628 0
M  V30 3738 C 340.123 0.157604 -1.88542 0
M  V30 3739 O 339.466 1.10938 -1.46419 0
M  V30 3740 C 339.528 -1.97797 -3.00194 0
M  V30 3741 C 339.192 -3.47109 -2.97261 0
M  V30 3742 C 340.189 -4.42358 -2.73159 0
M  V30 3743 C 337.874 -3.89247 -3.17478 0
M  V30 3744 C 339.868 -5.77718 -2.69296 0
M  V30 3745 C 337.555 -5.24713 -3.13241 0
M  V30 3746 C 338.553 -6.1876 -2.89181 0
M  V30 3747 O 338.241 -7.51745 -2.84843 0
M  V30 3748 H 337.973 -0.440436 -0.512827 0
M  V30 3749 H 340.527 -1.76153 -1.05638 0
M  V30 3750 H 338.757 -1.43652 -3.59028 0
M  V30 3751 H 340.446 -1.8549 -3.61038 0
M  V30 3752 H 341.212 -4.11127 -2.57294 0
M  V30 3753 H 337.091 -3.16456 -3.35226 0
M  V30 3754 H 340.635 -6.51097 -2.50436 0
M  V30 3755 H 336.532 -5.55569 -3.28654 0
M  V30 3756 H 337.3 -7.61262 -3.00702 0
M  V30 3757 N 339.963 1.05934 -1.16686 0
M  V30 3758 C 340.91 2.13499 -0.876748 0
M  V30 3759 C 341.88 1.65162 0.176299 0
M  V30 3760 O 343.065 1.90757 0.0407143 0
M  V30 3761 C 340.205 3.42912 -0.387967 0
M  V30 3762 C 339.318 4.04964 -1.50426 0
M  V30 3763 C 338.453 5.22266 -0.970125 0
M  V30 3764 C 337.492 5.76309 -2.06238 0
M  V30 3765 N 336.629 6.84922 -1.54356 0
M  V30 3766 H 341.469 2.37654 -1.7979 0
M  V30 3767 H 339.006 1.16598 -0.896843 0
M  V30 3768 H 340.964 4.17111 -0.086186 0
M  V30 3769 H 339.594 3.18963 0.496235 0
M  V30 3770 H 338.646 3.28277 -1.92193 0
M  V30 3771 H 339.958 4.41122 -2.32836 0
M  V30 3772 H 339.112 6.03506 -0.621743 0
M  V30 3773 H 337.851 4.87564 -0.115377 0
M  V30 3774 H 336.856 4.93704 -2.41942 0
M  V30 3775 H 338.081 6.13062 -2.92115 0
M  V30 3776 H 336.027 6.52131 -0.711406 0
M  V30 3777 H 335.944 7.20043 -2.30379 0
M  V30 3778 H 337.212 7.69832 -1.22387 0
M  V30 3779 N 341.441 0.965919 1.2453 0
M  V30 3780 C 342.371 0.513476 2.27784 0
M  V30 3781 C 343.352 -0.445974 1.6415 0
M  V30 3782 O 344.537 -0.342485 1.91156 0
M  V30 3783 C 341.667 -0.198839 3.4673 0
M  V30 3784 C 340.621 0.676456 4.2262 0
M  V30 3785 C 339.947 -0.167248 5.34438 0
M  V30 3786 C 341.247 1.96017 4.84123 0
M  V30 3787 H 342.941 1.3765 2.65881 0
M  V30 3788 H 340.487 0.663321 1.27813 0
M  V30 3789 H 342.44 -0.526567 4.18097 0
M  V30 3790 H 341.164 -1.0962 3.07654 0
M  V30 3791 H 339.823 0.98743 3.53052 0
M  V30 3792 H 339.471 -1.0647 4.91603 0
M  V30 3793 H 339.171 0.415181 5.86131 0
M  V30 3794 H 340.695 -0.489688 6.08633 0
M  V30 3795 H 342.109 1.69814 5.47573 0
M  V30 3796 H 340.506 2.48918 5.4604 0
M  V30 3797 H 341.576 2.65622 4.05676 0
M  V30 3798 N 342.919 -1.39368 0.735821 0
M  V30 3799 C 343.869 -2.27885 0.0724287 0
M  V30 3800 C 344.853 -1.44301 -0.711756 0
M  V30 3801 O 346.045 -1.67206 -0.58063 0
M  V30 3802 C 343.174 -3.33029 -0.833454 0
M  V30 3803 C 342.26 -4.24078 -0.0433749 0
M  V30 3804 N 342.651 -4.96138 0.983903 0
M  V30 3805 C 340.949 -4.45164 -0.272905 0
M  V30 3806 C 341.65 -5.63069 1.4604 0
M  V30 3807 N 340.626 -5.37991 0.778857 0
M  V30 3808 H 344.428 -2.81052 0.859467 0
M  V30 3809 H 341.942 -1.5206 0.570227 0
M  V30 3810 H 343.939 -3.95311 -1.32419 0
M  V30 3811 H 342.599 -2.81421 -1.61964 0
M  V30 3812 H 343.61 -4.9958 1.36528 0
M  V30 3813 H 340.287 -4.04497 -1.03383 0
M  V30 3814 H 341.677 -6.30755 2.31511 0
M  V30 3815 N 344.397 -0.483516 -1.5 0
M  V30 3816 C 345.627 0.0643896 -2.065 0
M  V30 3817 C 346.035 1.32949 -1.34615 0
M  V30 3818 O 345.378 1.79003 -0.412756 0
M  V30 3819 C 345.44 0.405983 -3.572 0
M  V30 3820 C 345.104 -0.758875 -4.50655 0
M  V30 3821 C 346.101 -1.64445 -4.93208 0
M  V30 3822 C 343.786 -0.952725 -4.93182 0
M  V30 3823 C 345.78 -2.70818 -5.77006 0
M  V30 3824 C 343.467 -2.01966 -5.76761 0
M  V30 3825 C 344.465 -2.89574 -6.18576 0
M  V30 3826 O 344.153 -3.94429 -7.00486 0
M  V30 3827 H 343.885 -0.00934786 -0.675935 0
M  V30 3828 H 346.439 -0.674959 -1.93993 0
M  V30 3829 H 344.669 1.19869 -3.67652 0
M  V30 3830 H 346.358 0.890433 -3.96013 0
M  V30 3831 H 347.124 -1.50643 -4.61012 0
M  V30 3832 H 343.003 -0.280247 -4.60147 0
M  V30 3833 H 346.547 -3.3923 -6.09565 0
M  V30 3834 H 342.444 -2.1577 -6.0837 0
M  V30 3835 H 343.212 -3.91568 -7.1876 0
M  V30 3836 N 345.875 1.56104 -0.216619 0
M  V30 3837 C 346.808 2.16026 0.735395 0
M  V30 3838 C 347.786 1.1032 1.1945 0
M  V30 3839 O 348.97 1.38549 1.27814 0
M  V30 3840 C 346.097 2.73656 1.99575 0
M  V30 3841 C 345.143 3.92146 1.67702 0
M  V30 3842 S 345.976 5.29397 0.806145 0
M  V30 3843 C 347.132 5.90463 2.07617 0
M  V30 3844 H 347.365 2.96439 0.226072 0
M  V30 3845 H 344.898 1.544 -0.00136639 0
M  V30 3846 H 346.856 3.075 2.71945 0
M  V30 3847 H 345.517 1.93245 2.47619 0
M  V30 3848 H 344.71 4.30954 2.61332 0
M  V30 3849 H 344.312 3.59423 1.03398 0
M  V30 3850 H 346.604 6.06136 3.02664 0
M  V30 3851 H 347.547 6.86589 1.73207 0
M  V30 3852 H 347.955 5.19252 2.21445 0
M  V30 3853 N 347.353 -0.0568162 1.57498 0
M  V30 3854 C 348.301 -1.08452 2.05769 0
M  V30 3855 C 349.295 -1.39164 0.965903 0
M  V30 3856 O 350.501 -1.38395 1.15095 0
M  V30 3857 H 346.876 -0.367148 0.656282 0
M  V30 3858 H 348.847 -0.651368 2.91204 0
M  V30 3859 C 347.596 -2.38543 2.52968 0
M  V30 3860 H 346.919 -2.15765 3.36579 0
M  V30 3861 H 348.359 -3.08863 2.90481 0
M  V30 3862 C 346.818 -3.05562 1.41893 0
M  V30 3863 O 347.348 -3.94262 0.769442 0
M  V30 3864 N 345.554 -2.6643 1.16032 0
M  V30 3865 H 345.101 -1.94387 1.6903 0
M  V30 3866 H 345.059 -3.11593 0.419219 0
M  V30 3867 N 348.832 -1.54138 -0.328536 0
M  V30 3868 C 350.081 -1.71318 -1.06456 0
M  V30 3869 C 350.394 -0.491109 -1.89334 0
M  V30 3870 O 351.6 -0.54416 -2.65991 0
M  V30 3871 C 350.056 -3.03 -1.94214 0
M  V30 3872 C 349.664 -4.32595 -1.16471 0
M  V30 3873 C 351.408 -3.29544 -2.67583 0
M  V30 3874 C 349.315 -5.55341 -2.03347 0
M  V30 3875 H 348.245 -0.638429 -0.401155 0
M  V30 3876 H 350.896 -1.80633 -0.323106 0
M  V30 3877 H 349.278 -2.87579 -2.72239 0
M  V30 3878 H 350.452 -4.58766 -0.432525 0
M  V30 3879 H 348.767 -4.12777 -0.548063 0
M  V30 3880 H 351.364 -4.18444 -3.3288 0
M  V30 3881 H 351.707 -2.47206 -3.34955 0
M  V30 3882 H 352.24 -3.45809 -1.96623 0
M  V30 3883 H 348.979 -6.40268 -1.40491 0
M  V30 3884 H 348.499 -5.33397 -2.74313 0
M  V30 3885 H 350.178 -5.91557 -2.62049 0
M  V30 3886 N 350.31 0.590341 -1.46126 0
M  V30 3887 C 351.243 1.71434 -1.50617 0
M  V30 3888 C 352.221 1.58543 -0.360948 0
M  V30 3889 O 353.405 1.79865 -0.563985 0
M  V30 3890 C 350.532 3.09422 -1.37753 0
M  V30 3891 C 349.578 3.40854 -2.5636 0
M  V30 3892 S 350.411 3.33773 -4.18755 0
M  V30 3893 C 351.567 4.74312 -4.08386 0
M  V30 3894 H 351.8 1.67364 -2.45717 0
M  V30 3895 H 349.333 0.76845 -1.33919 0
M  V30 3896 H 351.291 3.8903 -1.31018 0
M  V30 3897 H 349.952 3.10989 -0.440949 0
M  V30 3898 H 349.145 4.41368 -2.43332 0
M  V30 3899 H 348.747 2.68798 -2.60046 0
M  V30 3900 H 351.039 5.64522 -3.74595 0
M  V30 3901 H 351.982 4.92397 -5.08872 0
M  V30 3902 H 352.39 4.50803 -3.3976 0
M  V30 3903 N 351.788 1.33704 0.83433 0
M  V30 3904 C 352.751 1.24244 1.92603 0
M  V30 3905 C 353.751 0.160383 1.59998 0
M  V30 3906 O 354.941 0.412228 1.69252 0
M  V30 3907 C 352.073 0.91555 3.28376 0
M  V30 3908 H 353.266 2.21287 2.02416 0
M  V30 3909 H 350.819 1.17827 1.02696 0
M  V30 3910 H 351.554 -0.0521886 3.24258 0
M  V30 3911 H 351.339 1.69811 3.53422 0
M  V30 3912 H 352.829 0.874231 4.08347 0
M  V30 3913 N 353.266 -1.05314 1.17247 0
M  V30 3914 C 354.198 -2.13023 0.845812 0
M  V30 3915 C 355.211 -1.62096 -0.151246 0
M  V30 3916 O 356.4 -1.78343 0.0748818 0
M  V30 3917 C 353.5 -3.38047 0.240292 0
M  V30 3918 C 352.673 -4.18255 1.27991 0
M  V30 3919 C 351.732 -5.21625 0.692375 0
M  V30 3920 O 350.758 -5.52619 1.36385 0
M  V30 3921 N 351.96 -5.78201 -0.516178 0
M  V30 3922 H 354.725 -2.41642 1.77283 0
M  V30 3923 H 352.286 -1.21401 1.07115 0
M  V30 3924 H 354.278 -4.04359 -0.16603 0
M  V30 3925 H 352.848 -3.06972 -0.590487 0
M  V30 3926 H 352.068 -3.47451 1.86203 0
M  V30 3927 H 353.356 -4.68643 1.98119 0
M  V30 3928 H 352.754 -5.55301 -1.07969 0
M  V30 3929 H 351.311 -6.4604 -0.86458 0
M  V30 3930 N 354.744 -0.972509 -1.24016 0
M  V30 3931 C 355.99 -0.637978 -1.92504 0
M  V30 3932 C 356.323 0.825383 -1.75787 0
M  V30 3933 O 355.598 1.59442 -1.11393 0
M  V30 3934 C 355.881 -1.01942 -3.45369 0
M  V30 3935 C 355.734 -2.53983 -3.71231 0
M  V30 3936 C 357.053 -0.55751 -4.36555 0
M  V30 3937 H 354.172 -0.233248 -0.699117 0
M  V30 3938 H 356.814 -1.21238 -1.46292 0
M  V30 3939 H 354.964 -0.530656 -3.84859 0
M  V30 3940 H 356.636 -3.10374 -3.41271 0
M  V30 3941 H 354.879 -2.96968 -3.16216 0
M  V30 3942 H 355.55 -2.75723 -4.78206 0
M  V30 3943 H 358.026 -0.977029 -4.04467 0
M  V30 3944 H 356.902 -0.85292 -5.42233 0
M  V30 3945 H 357.163 0.542328 -4.38761 0
M  V30 3946 N 356.222 1.38976 -0.743202 0
M  V30 3947 C 357.633 1.83123 -0.363732 0
M  V30 3948 C 357.984 1.6205 1.10609 0
M  V30 3949 O 357.109 1.11606 1.854 0
M  V30 3950 C 357.704 3.32439 -0.653408 0
M  V30 3951 C 356.263 3.74974 -0.327338 0
M  V30 3952 C 355.41 2.61878 -0.911875 0
M  V30 3953 H 358.361 1.27852 -0.940191 0
M  V30 3954 H 358.382 3.80432 0.0720031 0
M  V30 3955 H 357.894 3.47745 -1.72323 0
M  V30 3956 H 355.995 3.65252 0.736314 0
M  V30 3957 H 356.108 4.72106 -0.815631 0
M  V30 3958 H 354.472 2.52448 -0.337944 0
M  V30 3959 H 355.255 2.79987 -1.98651 0
M  V30 3960 N 357.7 0.491464 1.49741 0
M  V30 3961 C 358.63 -0.28154 2.31796 0
M  V30 3962 C 359.611 -0.971473 1.3963 0
M  V30 3963 O 360.796 -0.964719 1.68543 0
M  V30 3964 C 357.926 -1.35203 3.19902 0
M  V30 3965 C 356.88 -0.782529 4.20786 0
M  V30 3966 C 356.206 -1.95283 4.97764 0
M  V30 3967 C 357.506 0.21999 5.21837 0
M  V30 3968 H 359.2 0.403355 2.96671 0
M  V30 3969 H 356.746 0.195425 1.42668 0
M  V30 3970 H 358.699 -1.90045 3.76113 0
M  V30 3971 H 357.423 -2.06598 2.52953 0
M  V30 3972 H 356.082 -0.255928 3.65706 0
M  V30 3973 H 355.73 -2.65423 4.2727 0
M  V30 3974 H 355.43 -1.57789 5.66018 0
M  V30 3975 H 356.954 -2.50577 5.56816 0
M  V30 3976 H 358.368 -0.23996 5.72798 0
M  V30 3977 H 356.765 0.51026 5.97927 0
M  V30 3978 H 357.835 1.13911 4.7133 0
M  V30 3979 N 359.178 -1.55987 0.224894 0
M  V30 3980 C 360.088 -2.24066 -0.69511 0
M  V30 3981 C 361.104 -1.24939 -1.21104 0
M  V30 3982 O 362.28 -1.5776 -1.25195 0
M  V30 3983 C 359.345 -2.90983 -1.88493 0
M  V30 3984 C 358.406 -4.05462 -1.41064 0
M  V30 3985 C 357.639 -4.69179 -2.54375 0
M  V30 3986 O 357.862 -4.31895 -3.72589 0
M  V30 3987 O 356.796 -5.58108 -2.25386 0
M  V30 3988 H 360.622 -3.03353 -0.145149 0
M  V30 3989 H 358.207 -1.49399 -0.00569476 0
M  V30 3990 H 360.089 -3.33209 -2.57972 0
M  V30 3991 H 358.764 -2.14653 -2.42293 0
M  V30 3992 H 357.671 -3.67798 -0.683774 0
M  V30 3993 H 359.004 -4.83545 -0.918985 0
M  V30 3994 N 360.656 0.0484629 -1.57525 0
M  V30 3995 C 361.603 1.05504 -2.05275 0
M  V30 3996 C 362.573 1.37084 -0.937927 0
M  V30 3997 O 363.758 1.47754 -1.2072 0
M  V30 3998 C 360.898 2.35676 -2.52093 0
M  V30 3999 C 360.011 2.10423 -3.77288 0
M  V30 4000 C 359.146 3.34327 -4.12794 0
M  V30 4001 C 358.185 3.04542 -5.30962 0
M  V30 4002 N 357.322 4.20841 -5.61994 0
M  V30 4003 H 362.162 0.640885 -2.91027 0
M  V30 4004 H 359.699 0.304854 -1.43906 0
M  V30 4005 H 361.657 3.11709 -2.77297 0
M  V30 4006 H 360.287 2.7485 -1.69285 0
M  V30 4007 H 359.339 1.24976 -3.59284 0
M  V30 4008 H 360.651 1.84438 -4.63448 0
M  V30 4009 H 359.805 4.1874 -4.39024 0
M  V30 4010 H 358.544 3.63408 -3.25247 0
M  V30 4011 H 357.549 2.18528 -5.04505 0
M  V30 4012 H 358.774 2.76758 -6.20146 0
M  V30 4013 H 356.72 4.4991 -4.77406 0
M  V30 4014 H 356.637 3.98212 -6.42622 0
M  V30 4015 H 357.905 5.06184 -5.92789 0
M  V30 4016 N 362.134 1.5431 0.320358 0
M  V30 4017 C 363.081 1.83918 1.39438 0
M  V30 4018 C 364.051 0.686525 1.51248 0
M  V30 4019 O 365.236 0.933269 1.66417 0
M  V30 4020 C 362.376 2.075 2.75749 0
M  V30 4021 C 361.489 3.35177 2.72544 0
M  V30 4022 C 360.624 3.48704 4.00723 0
M  V30 4023 C 359.663 4.70244 3.91838 0
M  V30 4024 N 358.8 4.80679 5.11754 0
M  V30 4025 H 363.64 2.75544 1.13489 0
M  V30 4026 H 361.177 1.36459 0.549309 0
M  V30 4027 H 363.135 2.19166 3.54996 0
M  V30 4028 H 361.765 1.19163 3 0
M  V30 4029 H 360.817 3.32233 1.85271 0
M  V30 4030 H 362.129 4.24534 2.61863 0
M  V30 4031 H 361.283 3.59928 4.88402 0
M  V30 4032 H 360.022 2.57445 4.14214 0
M  V30 4033 H 359.027 4.59072 3.02544 0
M  V30 4034 H 360.252 5.6289 3.7991 0
M  V30 4035 H 358.198 3.92337 5.25745 0
M  V30 4036 H 358.115 5.64007 5.0342 0
M  V30 4037 H 359.383 4.96239 6.01138 0
M  V30 4038 N 363.613 -0.582584 1.46437 0
M  V30 4039 C 364.862 -1.337 1.5102 0
M  V30 4040 C 365.175 -1.94891 0.166359 0
M  V30 4041 O 366.381 -2.71351 0.0899954 0
M  V30 4042 C 364.837 -2.42315 2.66104 0
M  V30 4043 C 364.445 -1.87427 4.06909 0
M  V30 4044 C 366.189 -3.19099 2.79958 0
M  V30 4045 C 364.096 -2.93672 5.13333 0
M  V30 4046 H 363.026 -0.502619 0.562041 0
M  V30 4047 H 365.677 -0.621701 1.72647 0
M  V30 4048 H 364.059 -3.16645 2.37807 0
M  V30 4049 H 365.233 -1.19639 4.44998 0
M  V30 4050 H 363.548 -1.2331 3.97723 0
M  V30 4051 H 366.145 -3.9839 3.56636 0
M  V30 4052 H 366.488 -3.71695 1.87479 0
M  V30 4053 H 367.021 -2.51875 3.07902 0
M  V30 4054 H 363.76 -2.45962 6.07604 0
M  V30 4055 H 363.28 -3.59948 4.79789 0
M  V30 4056 H 364.959 -3.5762 5.39182 0
M  V30 4057 N 365.091 -1.34144 -0.827227 0
M  V30 4058 C 366.039 -1.25364 -1.95925 0
M  V30 4059 C 367.033 -0.152608 -1.68711 0
M  V30 4060 O 368.239 -0.317311 -1.77181 0
M  V30 4061 H 364.614 -0.389342 -0.643364 0
M  V30 4062 H 366.585 -2.21045 -2.00454 0
M  V30 4063 C 365.334 -1.02158 -3.32354 0
M  V30 4064 H 364.657 -1.86111 -3.5384 0
M  V30 4065 H 366.097 -1.00048 -4.12027 0
M  V30 4066 C 364.556 0.275244 -3.35774 0
M  V30 4067 O 365.086 1.27806 -3.80826 0
M  V30 4068 N 363.292 0.306853 -2.88975 0
M  V30 4069 H 362.839 -0.509777 -2.52506 0
M  V30 4070 H 362.797 1.17432 -2.91646 0
M  V30 4071 N 366.569 1.04691 -1.17803 0
M  V30 4072 C 367.502 2.12068 -0.842765 0
M  V30 4073 C 368.48 1.61455 0.192608 0
M  V30 4074 O 369.664 1.88359 0.072995 0
M  V30 4075 C 366.791 3.37715 -0.258063 0
M  V30 4076 C 365.837 4.07164 -1.26962 0
M  V30 4077 S 366.67 4.55047 -2.82299 0
M  V30 4078 C 367.826 5.83935 -2.25323 0
M  V30 4079 H 368.059 2.4018 -1.75217 0
M  V30 4080 H 365.592 1.17366 -1.00323 0
M  V30 4081 H 367.55 4.10435 0.0727935 0
M  V30 4082 H 366.211 3.0773 0.629357 0
M  V30 4083 H 365.404 4.9746 -0.809263 0
M  V30 4084 H 365.006 3.40533 -1.54639 0
M  V30 4085 H 367.298 6.57552 -1.63192 0
M  V30 4086 H 368.241 6.34725 -3.13894 0
M  V30 4087 H 368.649 5.3874 -1.68582 0
M  V30 4088 N 368.047 0.979072 1.23499 0
M  V30 4089 C 369.272 0.664845 1.96455 0
M  V30 4090 C 369.697 -0.761287 1.72006 0
M  V30 4091 O 369.055 -1.51837 0.990713 0
M  V30 4092 C 369.103 0.959479 3.47601 0
M  V30 4093 O 368.207 0.0508168 4.12369 0
M  V30 4094 H 367.548 0.250185 0.615064 0
M  V30 4095 H 370.078 1.31231 1.5697 0
M  V30 4096 H 370.088 0.895642 3.98048 0
M  V30 4097 H 368.763 1.99876 3.64723 0
M  V30 4098 H 367.34 0.16895 3.72517 0
M  V30 4099 N 369.525 -1.3858 0.750561 0
M  V30 4100 C 370.755 -2.04175 0.31564 0
M  V30 4101 C 371.163 -1.56726 -1.05989 0
M  V30 4102 O 370.506 -0.734225 -1.68389 0
M  V30 4103 C 370.568 -3.58585 0.256389 0
M  V30 4104 C 370.232 -4.29077 1.57296 0
M  V30 4105 C 371.229 -4.54656 2.52159 0
M  V30 4106 C 368.914 -4.67324 1.84156 0
M  V30 4107 C 370.908 -5.17512 3.72103 0
M  V30 4108 C 368.595 -5.29905 3.04374 0
M  V30 4109 C 369.593 -5.54933 3.98168 0
M  V30 4110 O 369.281 -6.16212 5.16273 0
M  V30 4111 H 369.013 -0.662742 0.133226 0
M  V30 4112 H 371.567 -1.78313 1.01948 0
M  V30 4113 H 369.797 -3.83406 -0.503677 0
M  V30 4114 H 371.486 -4.05628 -0.148612 0
M  V30 4115 H 372.252 -4.25539 2.32683 0
M  V30 4116 H 368.131 -4.47191 1.11988 0
M  V30 4117 H 371.675 -5.36963 4.45327 0
M  V30 4118 H 367.572 -5.58444 3.23745 0
M  V30 4119 H 368.34 -6.34701 5.16815 0
M  V30 4120 N 371.003 -0.499398 -1.49478 0
M  V30 4121 C 372.228 0.044722 -2.07352 0
M  V30 4122 C 372.653 1.30207 -1.35749 0
M  V30 4123 O 372.011 1.76516 -0.413732 0
M  V30 4124 C 372.059 0.283013 -3.59488 0
M  V30 4125 O 371.163 1.35804 -3.89398 0
M  V30 4126 H 370.504 -0.0255147 -0.66351 0
M  V30 4127 H 373.034 -0.698561 -1.92305 0
M  V30 4128 H 373.044 0.515007 -4.04737 0
M  V30 4129 H 371.719 -0.635636 -4.11014 0
M  V30 4130 H 370.296 1.11113 -3.55961 0
M  V30 4131 N 372.481 1.55866 -0.233164 0
M  V30 4132 C 373.444 2.1953 0.658715 0
M  V30 4133 C 374.444 1.16053 1.11303 0
M  V30 4134 O 375.634 1.41218 1.01996 0
M  V30 4135 C 372.766 2.82791 1.90373 0
M  V30 4136 H 373.959 2.99721 0.10347 0
M  V30 4137 H 371.512 1.56291 0.0164245 0
M  V30 4138 H 372.247 2.06501 2.50056 0
M  V30 4139 H 372.032 3.58578 1.58632 0
M  V30 4140 H 373.522 3.31556 2.53891 0
M  V30 4141 N 373.959 -0.0401083 1.57549 0
M  V30 4142 C 374.869 -1.06133 2.0922 0
M  V30 4143 C 375.885 -1.40356 1.0284 0
M  V30 4144 O 377.061 -1.49897 1.34509 0
M  V30 4145 C 374.126 -2.34658 2.55218 0
M  V30 4146 C 373.187 -2.07117 3.76033 0
M  V30 4147 C 372.42 -3.29514 4.19829 0
M  V30 4148 O 372.643 -4.39794 3.63232 0
M  V30 4149 O 371.577 -3.15863 5.12362 0
M  V30 4150 H 375.403 -0.652244 2.96613 0
M  V30 4151 H 372.988 -0.256368 1.47184 0
M  V30 4152 H 374.87 -3.10239 2.85184 0
M  V30 4153 H 373.545 -2.74883 1.70941 0
M  V30 4154 H 372.452 -1.29139 3.51104 0
M  V30 4155 H 373.785 -1.71754 4.61261 0
M  V30 4156 N 375.437 -1.54477 -0.31217 0
M  V30 4157 C 376.347 -1.87695 -1.4074 0
M  V30 4158 C 377.363 -0.769975 -1.56036 0
M  V30 4159 O 378.539 -1.06537 -1.70915 0
M  V30 4160 C 375.604 -2.10755 -2.75287 0
M  V30 4161 C 374.665 -3.34514 -2.69071 0
M  V30 4162 C 373.898 -3.56465 -3.97201 0
M  V30 4163 O 374.121 -2.81637 -4.96021 0
M  V30 4164 O 373.055 -4.49964 -3.9977 0
M  V30 4165 H 376.881 -2.80849 -1.15574 0
M  V30 4166 H 374.466 -1.40526 -0.507228 0
M  V30 4167 H 376.348 -2.27188 -3.54913 0
M  V30 4168 H 375.023 -1.20788 -3.0032 0
M  V30 4169 H 373.93 -3.23456 -1.87955 0
M  V30 4170 H 375.263 -4.24575 -2.48992 0
M  V30 4171 N 376.915 0.57481 -1.46744 0
M  V30 4172 C 377.845 1.69337 -1.60771 0
M  V30 4173 C 378.826 1.63825 -0.457736 0
M  V30 4174 O 380.011 1.8172 -0.684947 0
M  V30 4175 C 377.141 3.0798 -1.60517 0
M  V30 4176 C 376.095 3.28327 -2.74564 0
M  V30 4177 C 375.421 4.67578 -2.59373 0
M  V30 4178 C 376.721 3.15398 -4.16319 0
M  V30 4179 H 378.415 1.57853 -2.54407 0
M  V30 4180 H 375.961 0.75799 -1.22436 0
M  V30 4181 H 377.914 3.86061 -1.68923 0
M  V30 4182 H 376.638 3.20381 -0.634305 0
M  V30 4183 H 375.297 2.52649 -2.65639 0
M  V30 4184 H 374.945 4.76755 -1.60353 0
M  V30 4185 H 374.645 4.82144 -3.35873 0
M  V30 4186 H 376.169 5.47817 -2.69682 0
M  V30 4187 H 377.583 3.83315 -4.26313 0
M  V30 4188 H 375.98 3.41482 -4.93468 0
M  V30 4189 H 377.05 2.12372 -4.3592 0
M  V30 4190 N 378.394 1.34581 0.820102 0
M  V30 4191 C 379.324 1.29038 1.94606 0
M  V30 4192 C 380.305 0.1673 1.69275 0
M  V30 4193 O 381.49 0.360112 1.90832 0
M  V30 4194 C 378.62 1.04793 3.31113 0
M  V30 4195 C 377.574 2.13597 3.70891 0
M  V30 4196 C 376.9 1.74537 5.05412 0
M  V30 4197 C 378.2 3.55451 3.8269 0
M  V30 4198 H 379.894 2.23248 1.99501 0
M  V30 4199 H 377.44 1.0747 0.958449 0
M  V30 4200 H 379.393 0.995592 4.0947 0
M  V30 4201 H 378.117 0.0702565 3.26524 0
M  V30 4202 H 376.776 2.17905 2.9481 0
M  V30 4203 H 376.424 0.754226 4.97313 0
M  V30 4204 H 376.124 2.47361 5.32997 0
M  V30 4205 H 377.648 1.70803 5.86224 0
M  V30 4206 H 379.062 3.5354 4.51312 0
M  V30 4207 H 377.459 4.26922 4.21732 0
M  V30 4208 H 378.529 3.92587 2.84611 0
M  V30 4209 N 379.872 -1.04064 1.18357 0
M  V30 4210 C 381.118 -1.77528 0.980397 0
M  V30 4211 C 381.451 -1.87948 -0.48879 0
M  V30 4212 O 380.726 -1.3876 -1.36293 0
M  V30 4213 C 381.009 -3.20797 1.63588 0
M  V30 4214 C 380.862 -3.1832 3.17793 0
M  V30 4215 C 382.181 -4.18911 1.34914 0
M  V30 4216 H 379.3 -0.644443 0.357578 0
M  V30 4217 H 381.942 -1.2156 1.46024 0
M  V30 4218 H 380.092 -3.68586 1.22788 0
M  V30 4219 H 381.764 -2.78521 3.67728 0
M  V30 4220 H 380.007 -2.56351 3.49952 0
M  V30 4221 H 380.678 -4.19489 3.58794 0
M  V30 4222 H 383.154 -3.7967 1.70265 0
M  V30 4223 H 382.03 -5.17374 1.83346 0
M  V30 4224 H 382.291 -4.41262 0.272027 0
M  V30 4225 N 381.35 -0.985608 -1.22978 0
M  V30 4226 C 382.578 -0.675582 -1.95559 0
M  V30 4227 C 382.993 0.758413 -1.72897 0
M  V30 4228 O 382.35 1.51094 -1.02357 0
M  V30 4229 C 382.401 -0.96293 -3.48439 0
M  V30 4230 O 382.122 -2.34057 -3.70336 0
M  V30 4231 C 383.623 -0.669585 -4.38214 0
M  V30 4232 H 380.843 -0.250523 -0.622478 0
M  V30 4233 H 383.387 -1.3184 -1.56328 0
M  V30 4234 H 381.542 -0.366033 -3.85667 0
M  V30 4235 H 381.956 -2.43424 -4.64591 0
M  V30 4236 H 383.43 -0.920967 -5.44263 0
M  V30 4237 H 383.907 0.396383 -4.37408 0
M  V30 4238 H 384.513 -1.2472 -4.06602 0
M  V30 4239 N 382.828 1.3818 -0.7579 0
M  V30 4240 C 384.068 2.01864 -0.320968 0
M  V30 4241 C 384.432 1.58863 1.07827 0
M  V30 4242 O 385.633 2.14908 1.61456 0
M  V30 4243 C 383.904 3.54626 -0.44446 0
M  V30 4244 S 385.463 4.38706 -0.0907467 0
M  V30 4245 H 382.281 0.700056 -0.124268 0
M  V30 4246 H 384.883 1.68611 -0.989468 0
M  V30 4247 H 383.587 3.83411 -1.4637 0
M  V30 4248 H 383.118 3.92661 0.241073 0
M  V30 4249 H 385.133 4.83435 1.11826 0
M  V30 4250 N 384.306 0.507319 1.49211 0
M  V30 4251 C 385.553 -0.0349529 2.0247 0
M  V30 4252 C 385.881 -1.36409 1.38647 0
M  V30 4253 O 385.136 -1.88841 0.513566 0
M  V30 4254 C 385.435 -0.229513 3.56662 0
M  V30 4255 C 385.101 1.02241 4.39156 0
M  V30 4256 C 383.763 1.36557 4.61417 0
M  V30 4257 C 386.115 1.85428 4.871 0
M  V30 4258 C 383.443 2.53999 5.28868 0
M  V30 4259 C 385.795 3.02028 5.55843 0
M  V30 4260 C 384.459 3.36717 5.76349 0
M  V30 4261 H 383.729 -0.0127902 0.74089 0
M  V30 4262 H 386.376 0.668756 1.79443 0
M  V30 4263 H 384.681 -1.0158 3.78403 0
M  V30 4264 H 386.378 -0.663641 3.9547 0
M  V30 4265 H 382.968 0.745124 4.22073 0
M  V30 4266 H 387.152 1.6023 4.69723 0
M  V30 4267 H 382.408 2.81105 5.42946 0
M  V30 4268 H 386.582 3.66808 5.91967 0
M  V30 4269 H 384.209 4.27821 6.28389 0
M  V30 4270 N 385.784 -1.5574 0.241426 0
M  V30 4271 C 387.031 -1.9881 -0.384836 0
M  V30 4272 C 387.359 -1.12947 -1.58346 0
M  V30 4273 O 386.614 -0.178993 -1.9488 0
M  V30 4274 C 386.913 -3.47308 -0.843317 0
M  V30 4275 C 386.579 -4.50223 0.246946 0
M  V30 4276 C 385.241 -4.78088 0.546399 0
M  V30 4277 C 387.593 -5.11841 0.983282 0
M  V30 4278 C 384.921 -5.64846 1.58636 0
M  V30 4279 C 387.273 -5.99727 2.01272 0
M  V30 4280 C 385.937 -6.25927 2.31888 0
M  V30 4281 H 385.207 -0.727496 -0.140821 0
M  V30 4282 H 387.854 -1.8831 0.348106 0
M  V30 4283 H 386.159 -3.55112 -1.65537 0
M  V30 4284 H 387.856 -3.78017 -1.33806 0
M  V30 4285 H 384.446 -4.286 0.00340639 0
M  V30 4286 H 388.63 -4.90366 0.765182 0
M  V30 4287 H 383.886 -5.83403 1.82896 0
M  V30 4288 H 388.06 -6.46517 2.58823 0
M  V30 4289 H 385.687 -6.92949 3.12611 0
M  V30 4290 N 387.262 0.0317525 -1.57568 0
M  V30 4291 C 388.539 0.758366 -1.803 0
M  V30 4292 C 388.919 1.93718 -0.838845 0
M  V30 4293 O 388.267 2.28187 0.119571 0
M  V30 4294 C 388.477 1.19392 -3.27943 0
M  V30 4295 C 389.825 1.61094 -3.92854 0
M  V30 4296 O 390.849 1.28857 -3.32076 0
M  V30 4297 O 389.708 2.20918 -4.99858 0
M  V30 4298 H 386.802 0.366514 -0.741348 0
M  V30 4299 H 389.348 0.00873765 -1.69698 0
M  V30 4300 H 388.12 0.352275 -3.89711 0
M  V30 4301 H 387.743 2.00365 -3.43424 0
M  V30 4302 N 388.74 1.54641 0.303973 0
M  V30 4303 C 389.988 1.73437 1.0375 0
M  V30 4304 C 390.309 0.521449 1.87899 0
M  V30 4305 O 389.579 -0.46432 1.90318 0
M  V30 4306 H 388.159 0.639518 0.386039 0
M  V30 4307 H 390.821 1.91988 0.335675 0
M  V30 4308 H 389.917 2.62235 1.69231 0
M  V30 4309 N 390.218 -0.567019 1.47046 0
M  V30 4310 C 391.464 -1.32658 1.53394 0
M  V30 4311 C 391.797 -1.93254 0.19148 0
M  V30 4312 O 391.072 -1.77338 -0.798844 0
M  V30 4313 C 391.355 -2.44412 2.64452 0
M  V30 4314 C 391.208 -1.88749 4.08282 0
M  V30 4315 C 392.527 -3.46387 2.71485 0
M  V30 4316 H 389.646 -0.48098 0.558415 0
M  V30 4317 H 392.288 -0.635481 1.79058 0
M  V30 4318 H 390.438 -3.03363 2.427 0
M  V30 4319 H 392.11 -1.34134 4.41368 0
M  V30 4320 H 390.353 -1.19481 4.17021 0
M  V30 4321 H 391.024 -2.69491 4.81745 0
M  V30 4322 H 393.5 -2.9734 2.91081 0
M  V30 4323 H 392.376 -4.2202 3.50985 0
M  V30 4324 H 392.637 -4.04616 1.78153 0
M  V30 4325 N 391.696 -1.35014 -0.812953 0
M  V30 4326 C 392.921 -1.31187 -1.60639 0
M  V30 4327 C 393.346 0.109382 -1.87782 0
M  V30 4328 O 392.704 1.07424 -1.46047 0
M  V30 4329 C 392.752 -2.11809 -2.91838 0
M  V30 4330 O 391.856 -1.49444 -3.8437 0
M  V30 4331 H 391.197 -0.450084 -0.488181 0
M  V30 4332 H 393.727 -1.77963 -1.00947 0
M  V30 4333 H 393.737 -2.23531 -3.41318 0
M  V30 4334 H 392.412 -3.15137 -2.71407 0
M  V30 4335 H 390.989 -1.46524 -3.42907 0
M  V30 4336 N 393.175 1.03435 -1.18907 0
M  V30 4337 C 394.415 1.78302 -0.999391 0
M  V30 4338 C 394.779 1.86353 0.462219 0
M  V30 4339 O 395.98 2.57489 0.771543 0
M  V30 4340 C 394.251 3.17362 -1.64365 0
M  V30 4341 S 395.81 4.08488 -1.6026 0
M  V30 4342 H 392.628 0.613861 -0.358742 0
M  V30 4343 H 395.23 1.23979 -1.51161 0
M  V30 4344 H 393.934 3.09116 -2.69955 0
M  V30 4345 H 393.465 3.76762 -1.13199 0
M  V30 4346 H 395.48 4.92274 -0.622932 0
M  V30 4347 N 394.653 0.992116 1.22453 0
M  V30 4348 C 395.93 0.583508 1.86694 0
M  V30 4349 C 396.31 -0.9392 1.89056 0
M  V30 4350 O 395.658 -1.82081 1.38053 0
M  V30 4351 C 395.868 1.20304 3.2761 0
M  V30 4352 C 397.216 1.30308 4.0411 0
M  V30 4353 O 398.24 1.15737 3.36873 0
M  V30 4354 O 397.099 1.53615 5.24466 0
M  V30 4355 H 394.193 0.198129 0.802916 0
M  V30 4356 H 396.739 1.08794 1.30238 0
M  V30 4357 H 395.511 2.24461 3.2052 0
M  V30 4358 H 395.134 0.684144 3.9167 0
M  V30 4359 N 396.131 -1.37776 0.765217 0
M  V30 4360 C 397.094 -2.28686 0.153416 0
M  V30 4361 C 398.094 -1.47727 -0.635081 0
M  V30 4362 O 399.284 -1.68027 -0.459632 0
M  V30 4363 C 396.416 -3.31608 -0.790495 0
M  V30 4364 H 397.609 -2.84297 0.954723 0
M  V30 4365 H 395.162 -1.46932 0.53299 0
M  V30 4366 H 395.897 -2.81109 -1.61705 0
M  V30 4367 H 395.682 -3.9144 -0.227348 0
M  V30 4368 H 397.172 -3.99559 -1.21419 0
M  V30 4369 N 397.609 -0.515225 -1.4894 0
M  V30 4370 C 399.025 -0.172099 -1.58669 0
M  V30 4371 C 399.225 1.32405 -1.51892 0
M  V30 4372 O 398.281 2.10116 -1.40027 0
M  V30 4373 C 399.594 -0.761533 -2.90897 0
M  V30 4374 C 401.142 -0.728926 -3.04394 0
M  V30 4375 C 401.617 -1.29667 -4.39261 0
M  V30 4376 N 403.108 -1.25799 -4.4579 0
M  V30 4377 C 403.843 -1.66733 -5.48623 0
M  V30 4378 N 403.339 -2.15327 -6.58488 0
M  V30 4379 N 405.132 -1.58061 -5.39419 0
M  V30 4380 H 397.283 -1.48778 -1.51588 0
M  V30 4381 H 399.546 -0.617968 -0.718901 0
M  V30 4382 H 399.252 -1.81136 -3.01468 0
M  V30 4383 H 399.126 -0.230106 -3.76497 0
M  V30 4384 H 401.513 0.312098 -2.93445 0
M  V30 4385 H 401.594 -1.29766 -2.20442 0
M  V30 4386 H 401.238 -2.33655 -4.50963 0
M  V30 4387 H 401.168 -0.703752 -5.21876 0
M  V30 4388 H 403.659 -0.902102 -3.66975 0
M  V30 4389 H 403.972 -2.44594 -7.33071 0
M  V30 4390 H 402.317 -2.19311 -6.59491 0
M  V30 4391 H 405.508 -1.19906 -4.52482 0
M  V30 4392 H 405.681 -1.90284 -6.19432 0
M  V30 4393 N 399.087 1.5561 -0.249682 0
M  V30 4394 C 400.035 2.22894 0.664906 0
M  V30 4395 C 401.029 1.21743 1.17792 0
M  V30 4396 O 402.235 1.39748 1.13449 0
M  V30 4397 H 398.61 0.715022 0.232912 0
M  V30 4398 H 400.581 2.98307 0.0742998 0
M  V30 4399 C 399.33 2.94424 1.84959 0
M  V30 4400 H 398.653 3.72031 1.46399 0
M  V30 4401 H 400.093 3.44862 2.4667 0
M  V30 4402 C 398.552 1.98454 2.72245 0
M  V30 4403 O 399.082 1.51939 3.71857 0
M  V30 4404 N 397.288 1.65496 2.38871 0
M  V30 4405 H 396.835 2.03517 1.57919 0
M  V30 4406 H 396.793 1.0155 2.97548 0
M  V30 4407 N 400.565 -0.0233959 1.57583 0
M  V30 4408 C 401.812 -0.713063 1.8953 0
M  V30 4409 C 402.14 -1.75056 0.847673 0
M  V30 4410 O 401.395 -1.95119 -0.150636 0
M  V30 4411 C 401.694 -1.41428 3.28227 0
M  V30 4412 C 401.36 -0.512222 4.47981 0
M  V30 4413 C 400.022 -0.263785 4.80476 0
M  V30 4414 C 402.374 0.110248 5.21083 0
M  V30 4415 C 399.702 0.615804 5.83459 0
M  V30 4416 C 402.054 0.977573 6.25001 0
M  V30 4417 C 400.718 1.23542 6.55968 0
M  V30 4418 H 399.988 -0.260928 0.69354 0
M  V30 4419 H 402.635 0.0271047 1.91481 0
M  V30 4420 H 400.94 -2.22791 3.22291 0
M  V30 4421 H 402.637 -1.95355 3.50196 0
M  V30 4422 H 399.227 -0.716013 4.22577 0
M  V30 4423 H 403.411 -0.0687137 4.96252 0
M  V30 4424 H 398.667 0.82382 6.05824 0
M  V30 4425 H 402.841 1.46638 6.80786 0
M  V30 4426 H 400.468 1.91871 7.35588 0
M  V30 4427 N 402.043 -1.548 -0.295768 0
M  V30 4428 C 403.271 -1.78327 -1.04914 0
M  V30 4429 C 403.686 -0.545316 -1.80753 0
M  V30 4430 O 403.043 0.485013 -1.75937 0
M  V30 4431 C 403.094 -2.99418 -2.02561 0
M  V30 4432 O 402.815 -4.18431 -1.29798 0
M  V30 4433 C 404.316 -3.35375 -2.89895 0
M  V30 4434 H 401.536 -0.594618 -0.310918 0
M  V30 4435 H 404.08 -2.01763 -0.333454 0
M  V30 4436 H 402.235 -2.78175 -2.69624 0
M  V30 4437 H 402.649 -4.86736 -1.95419 0
M  V30 4438 H 404.123 -4.23332 -3.54251 0
M  V30 4439 H 404.6 -2.53761 -3.58472 0
M  V30 4440 H 405.206 -3.58796 -2.28355 0
M  V30 4441 N 403.521 0.559213 -1.47345 0
M  V30 4442 C 404.451 1.67622 -1.62558 0
M  V30 4443 C 405.432 1.63331 -0.475087 0
M  V30 4444 O 406.617 1.80983 -0.704182 0
M  V30 4445 C 403.747 3.0626 -1.63774 0
M  V30 4446 C 402.701 3.25397 -2.7803 0
M  V30 4447 C 402.027 4.64801 -2.64318 0
M  V30 4448 C 403.327 3.10965 -4.19641 0
M  V30 4449 H 405.021 1.55146 -2.56067 0
M  V30 4450 H 402.567 0.744961 -1.23233 0
M  V30 4451 H 404.52 3.84247 -1.73008 0
M  V30 4452 H 403.244 3.1969 -0.66825 0
M  V30 4453 H 401.903 2.49817 -2.68304 0
M  V30 4454 H 401.551 4.75028 -1.65401 0
M  V30 4455 H 401.251 4.78555 -3.40968 0
M  V30 4456 H 402.775 5.44926 -2.75478 0
M  V30 4457 H 404.189 3.78772 -4.30354 0
M  V30 4458 H 402.586 3.36229 -4.97062 0
M  V30 4459 H 403.656 2.07736 -4.38148 0
M  V30 4460 N 404.999 1.35443 0.805782 0
M  V30 4461 C 406.246 1.28761 1.56291 0
M  V30 4462 C 406.574 -0.137747 1.94012 0
M  V30 4463 O 405.829 -1.1032 1.61642 0
M  V30 4464 C 406.128 2.14045 2.86216 0
M  V30 4465 C 405.794 3.62826 2.67709 0
M  V30 4466 C 404.456 4.0338 2.6237 0
M  V30 4467 C 406.808 4.57227 2.50186 0
M  V30 4468 C 404.136 5.36501 2.37451 0
M  V30 4469 C 406.488 5.90547 2.26797 0
M  V30 4470 C 405.152 6.30245 2.1988 0
M  V30 4471 H 404.422 0.471171 0.571908 0
M  V30 4472 H 407.069 1.67347 0.930974 0
M  V30 4473 H 405.374 1.68342 3.53791 0
M  V30 4474 H 407.071 2.0621 3.43917 0
M  V30 4475 H 403.661 3.30644 2.72713 0
M  V30 4476 H 407.845 4.2678 2.53323 0
M  V30 4477 H 403.101 5.66259 2.30567 0
M  V30 4478 H 407.275 6.63274 2.12228 0
M  V30 4479 H 404.902 7.33328 2.00333 0
M  V30 4480 N 406.477 -1.02803 1.19454 0
M  V30 4481 C 407.427 -2.0945 0.900827 0
M  V30 4482 C 408.411 -1.60335 -0.134715 0
M  V30 4483 O 409.603 -1.76857 0.0710924 0
M  V30 4484 C 406.732 -3.4044 0.442229 0
M  V30 4485 C 405.818 -3.96286 1.51056 0
M  V30 4486 N 406.209 -4.25785 2.73021 0
M  V30 4487 C 404.507 -4.24307 1.37404 0
M  V30 4488 C 405.208 -4.70654 3.41848 0
M  V30 4489 N 404.184 -4.72238 2.69243 0
M  V30 4490 H 407.986 -2.3015 1.82779 0
M  V30 4491 H 405.5 -1.20672 1.08683 0
M  V30 4492 H 407.497 -4.16354 0.21326 0
M  V30 4493 H 406.157 -3.21159 -0.478238 0
M  V30 4494 H 407.168 -4.15041 3.09776 0
M  V30 4495 H 403.845 -4.14285 0.517103 0
M  V30 4496 H 405.235 -5.02392 4.46152 0
M  V30 4497 N 407.956 -0.998596 -1.21925 0
M  V30 4498 C 408.906 -0.524743 -2.21879 0
M  V30 4499 C 409.89 0.41017 -1.55584 0
M  V30 4500 O 411.082 0.236063 -1.75419 0
M  V30 4501 C 408.211 0.153636 -3.42956 0
M  V30 4502 C 407.297 -0.801918 -4.16449 0
M  V30 4503 N 407.688 -1.95211 -4.66611 0
M  V30 4504 C 405.986 -0.618972 -4.41684 0
M  V30 4505 C 406.687 -2.55234 -5.22715 0
M  V30 4506 N 405.663 -1.83451 -5.1171 0
M  V30 4507 H 409.465 -1.40189 -2.58311 0
M  V30 4508 H 406.979 -0.86159 -1.3766 0
M  V30 4509 H 408.976 0.510534 -4.13762 0
M  V30 4510 H 407.636 1.02684 -3.08036 0
M  V30 4511 H 408.647 -2.33271 -4.62391 0
M  V30 4512 H 405.324 0.207694 -4.16983 0
M  V30 4513 H 406.714 -3.52471 -5.72026 0
M  V30 4514 N 409.434 1.37368 -0.772513 0
M  V30 4515 C 410.845 1.8231 -0.402493 0
M  V30 4516 C 411.196 1.6436 1.07146 0
M  V30 4517 O 410.321 1.15514 1.82991 0
M  V30 4518 C 410.916 3.30979 -0.723776 0
M  V30 4519 C 409.475 3.74195 -0.406802 0
M  V30 4520 C 408.622 2.59885 -0.967218 0
M  V30 4521 H 411.573 1.25829 -0.967099 0
M  V30 4522 H 411.594 3.80499 -0.00870832 0
M  V30 4523 H 411.106 3.44011 -1.7966 0
M  V30 4524 H 409.207 3.66732 0.658673 0
M  V30 4525 H 409.32 4.7027 -0.915588 0
M  V30 4526 H 407.684 2.51674 -0.391416 0
M  V30 4527 H 408.467 2.7571 -2.04546 0
M  V30 4528 N 410.912 0.523116 1.48665 0
M  V30 4529 C 411.845 -0.290518 2.26343 0
M  V30 4530 C 412.823 -0.950913 1.31895 0
M  V30 4531 O 414.007 -0.976662 1.61225 0
M  V30 4532 C 411.134 -1.41088 3.07915 0
M  V30 4533 C 410.18 -0.862597 4.17686 0
M  V30 4534 S 411.013 0.264135 5.34848 0
M  V30 4535 C 412.169 -0.858864 6.19979 0
M  V30 4536 H 412.402 0.368726 2.95005 0
M  V30 4537 H 409.935 0.30878 1.51281 0
M  V30 4538 H 411.893 -2.0527 3.55492 0
M  V30 4539 H 410.554 -2.04182 2.38681 0
M  V30 4540 H 409.747 -1.70287 4.74361 0
M  V30 4541 H 409.349 -0.297595 3.72814 0
M  V30 4542 H 411.641 -1.7591 6.54264 0
M  V30 4543 H 412.584 -0.330244 7.07329 0
M  V30 4544 H 412.992 -1.13617 5.52948 0
M  V30 4545 N 412.39 -1.55475 0.257931 0
M  V30 4546 C 413.34 -2.18506 -0.651094 0
M  V30 4547 C 414.324 -1.14431 -1.13112 0
M  V30 4548 O 415.516 -1.40305 -1.07905 0
M  V30 4549 C 412.645 -2.89653 -1.84272 0
M  V30 4550 C 411.731 -4.00996 -1.38068 0
M  V30 4551 N 412.122 -5.01816 -0.633609 0
M  V30 4552 C 410.42 -4.13753 -1.66506 0
M  V30 4553 C 411.121 -5.80371 -0.392922 0
M  V30 4554 N 410.097 -5.3505 -0.960359 0
M  V30 4555 H 413.899 -2.93811 -0.0722883 0
M  V30 4556 H 411.413 -1.62286 0.0607256 0
M  V30 4557 H 413.41 -3.33245 -2.50506 0
M  V30 4558 H 412.07 -2.15854 -2.42564 0
M  V30 4559 H 413.081 -5.17128 -0.282626 0
M  V30 4560 H 409.758 -3.51133 -2.25858 0
M  V30 4561 H 411.148 -6.7159 0.204235 0
M  V30 4562 N 413.868 0.0150385 -1.57593 0
M  V30 4563 C 415.116 0.701613 -1.8953 0
M  V30 4564 C 415.437 1.75139 -0.857396 0
M  V30 4565 O 414.707 1.95607 0.107194 0
M  V30 4566 H 413.287 0.26213 -0.699498 0
M  V30 4567 H 415.949 -0.0223304 -1.94887 0
M  V30 4568 H 415.045 1.18236 -2.88837 0
M  V30 4569 N 415.346 1.54954 0.287554 0
M  V30 4570 C 416.294 1.87606 1.37502 0
M  V30 4571 C 417.288 0.751001 1.51843 0
M  V30 4572 O 418.494 0.935169 1.53801 0
M  V30 4573 H 414.869 0.595231 0.459569 0
M  V30 4574 H 416.84 2.78477 1.07206 0
M  V30 4575 C 415.589 2.15183 2.73115 0
M  V30 4576 H 414.912 3.01234 2.62866 0
M  V30 4577 H 416.352 2.4196 3.48183 0
M  V30 4578 C 414.811 0.954686 3.2309 0
M  V30 4579 O 415.341 0.181949 4.01288 0
M  V30 4580 N 413.547 0.756368 2.80584 0
M  V30 4581 H 413.094 1.38643 2.17108 0
M  V30 4582 H 413.052 -0.0430391 3.14371 0
M  V30 4583 N 416.824 -0.551391 1.4764 0
M  V30 4584 C 418.064 -1.31901 1.56145 0
M  V30 4585 C 418.428 -1.90724 0.221013 0
M  V30 4586 O 419.629 -2.6819 0.180945 0
M  V30 4587 C 417.9 -2.39517 2.65267 0
M  V30 4588 S 419.459 -3.26289 2.93395 0
M  V30 4589 H 416.277 -0.448965 0.551318 0
M  V30 4590 H 418.879 -0.630599 1.85051 0
M  V30 4591 H 417.583 -1.94747 3.6125 0
M  V30 4592 H 417.114 -3.13092 2.38195 0
M  V30 4593 H 419.129 -4.39122 2.31055 0
M  V30 4594 N 418.302 -1.35869 -0.798587 0
M  V30 4595 C 419.532 -1.32529 -1.58491 0
M  V30 4596 C 419.94 0.0975405 -1.88948 0
M  V30 4597 O 419.283 1.06224 -1.49874 0
M  V30 4598 C 419.345 -2.07247 -2.9375 0
M  V30 4599 C 419.009 -3.56391 -2.86068 0
M  V30 4600 C 420.006 -4.50824 -2.58947 0
M  V30 4601 C 417.691 -3.9915 -3.04933 0
M  V30 4602 C 419.685 -5.85993 -2.5078 0
M  V30 4603 C 417.372 -5.34413 -2.96389 0
M  V30 4604 C 418.37 -6.27646 -2.69349 0
M  V30 4605 O 418.058 -7.60426 -2.60782 0
M  V30 4606 H 417.79 -0.456529 -0.498556 0
M  V30 4607 H 420.344 -1.79425 -0.999799 0
M  V30 4608 H 418.574 -1.55001 -3.54276 0
M  V30 4609 H 420.263 -1.96883 -3.54954 0
M  V30 4610 H 421.029 -4.19104 -2.44084 0
M  V30 4611 H 416.908 -3.26961 -3.24989 0
M  V30 4612 H 420.452 -6.58735 -2.29595 0
M  V30 4613 H 416.349 -5.65743 -3.10813 0
M  V30 4614 H 417.117 -7.70444 -2.76331 0
M  V30 4615 N 419.78 1.02168 -1.19998 0
M  V30 4616 C 421.008 1.79296 -1.03249 0
M  V30 4617 C 421.423 1.84103 0.418502 0
M  V30 4618 O 420.78 1.29031 1.29063 0
M  V30 4619 C 420.831 3.24007 -1.60319 0
M  V30 4620 O 420.552 3.19512 -2.99739 0
M  V30 4621 C 422.053 4.17704 -1.48453 0
M  V30 4622 H 419.273 0.564016 -0.363493 0
M  V30 4623 H 421.817 1.28639 -1.58973 0
M  V30 4624 H 419.972 3.7183 -1.08727 0
M  V30 4625 H 420.386 4.10306 -3.26725 0
M  V30 4626 H 421.86 5.17104 -1.93153 0
M  V30 4627 H 422.337 4.37029 -0.436193 0
M  V30 4628 H 422.943 3.7576 -1.99211 0
M  V30 4629 N 421.258 1.00505 1.21394 0
M  V30 4630 C 422.505 0.687774 1.90462 0
M  V30 4631 C 422.833 -0.78147 1.7811 0
M  V30 4632 O 422.088 -1.58208 1.1519 0
M  V30 4633 C 422.387 1.0546 3.41486 0
M  V30 4634 C 422.053 2.51812 3.74034 0
M  V30 4635 C 420.715 2.91804 3.82628 0
M  V30 4636 C 423.067 3.46614 3.8924 0
M  V30 4637 C 420.395 4.2556 4.03876 0
M  V30 4638 C 422.747 4.80044 4.11995 0
M  V30 4639 C 421.411 5.19759 4.18816 0
M  V30 4640 H 420.681 0.251674 0.696951 0
M  V30 4641 H 423.328 1.26349 1.43903 0
M  V30 4642 H 421.633 0.397133 3.89782 0
M  V30 4643 H 423.33 0.786976 3.93202 0
M  V30 4644 H 419.92 2.1982 3.67936 0
M  V30 4645 H 424.104 3.16883 3.81967 0
M  V30 4646 H 419.36 4.55901 4.07387 0
M  V30 4647 H 423.534 5.53439 4.22704 0
M  V30 4648 H 421.161 6.23418 4.35033 0
M  V30 4649 N 422.737 -1.36956 0.779787 0
M  V30 4650 C 423.685 -2.32053 0.15942 0
M  V30 4651 C 424.679 -1.55333 -0.675878 0
M  V30 4652 O 425.885 -1.70668 -0.57204 0
M  V30 4653 H 422.26 -0.751286 0.0327707 0
M  V30 4654 H 424.231 -2.8195 0.977078 0
M  V30 4655 C 422.98 -3.40602 -0.698977 0
M  V30 4656 H 422.303 -3.99746 -0.0655966 0
M  V30 4657 H 423.743 -4.09486 -1.09989 0
M  V30 4658 C 422.202 -2.81359 -1.85307 0
M  V30 4659 O 422.732 -2.72751 -2.94906 0
M  V30 4660 N 420.938 -2.38786 -1.65619 0
M  V30 4661 H 420.485 -2.45987 -0.764725 0
M  V30 4662 H 420.443 -1.99493 -2.43002 0
M  V30 4663 N 424.215 -0.530993 -1.48385 0
M  V30 4664 C 425.163 0.244595 -2.3131 0
M  V30 4665 C 426.157 0.93451 -1.41291 0
M  V30 4666 O 427.363 0.85878 -1.58193 0
M  V30 4667 H 423.738 0.0977472 -0.74562 0
M  V30 4668 H 425.709 -0.474369 -2.94605 0
M  V30 4669 C 424.458 1.2779 -3.23365 0
M  V30 4670 H 423.781 0.756439 -3.92579 0
M  V30 4671 H 425.221 1.79198 -3.84271 0
M  V30 4672 C 423.68 2.31205 -2.45042 0
M  V30 4673 O 424.21 3.37661 -2.17596 0
M  V30 4674 N 422.416 2.04446 -2.0652 0
M  V30 4675 H 421.963 1.17891 -2.2904 0
M  V30 4676 H 421.921 2.73861 -1.54427 0
M  V30 4677 N 425.693 1.55336 -0.266172 0
M  V30 4678 C 427.109 1.59356 0.0882065 0
M  V30 4679 C 427.309 1.2834 1.55342 0
M  V30 4680 O 426.365 1.03996 2.30089 0
M  V30 4681 C 427.678 2.99409 -0.278364 0
M  V30 4682 C 429.226 3.12196 -0.224243 0
M  V30 4683 C 429.701 4.545 -0.565123 0
M  V30 4684 N 431.192 4.60313 -0.51634 0
M  V30 4685 C 431.927 5.68434 -0.753013 0
M  V30 4686 N 431.423 6.84738 -1.05383 0
M  V30 4687 N 433.216 5.57942 -0.682414 0
M  V30 4688 H 425.367 1.73764 -1.22147 0
M  V30 4689 H 427.63 0.809822 -0.492841 0
M  V30 4690 H 427.336 3.2691 -1.29703 0
M  V30 4691 H 427.21 3.75228 0.385186 0
M  V30 4692 H 429.597 2.84464 0.78512 0
M  V30 4693 H 429.678 2.38609 -0.921922 0
M  V30 4694 H 429.322 4.82956 -1.57213 0
M  V30 4695 H 429.252 5.26374 0.154248 0
M  V30 4696 H 431.743 3.7676 -0.29335 0
M  V30 4697 H 432.056 7.63088 -1.22133 0
M  V30 4698 H 430.401 6.86375 -1.09151 0
M  V30 4699 H 433.592 4.65958 -0.44731 0
M  V30 4700 H 433.765 6.4213 -0.870248 0
M  V30 4701 N 427.171 -0.0066808 1.57599 0
M  V30 4702 C 428.081 -1.01671 2.11424 0
M  V30 4703 C 429.097 -1.38143 1.05795 0
M  V30 4704 O 430.273 -1.47011 1.37658 0
M  V30 4705 C 427.338 -2.29192 2.60139 0
M  V30 4706 C 426.399 -1.99094 3.80342 0
M  V30 4707 C 425.632 -3.20535 4.26724 0
M  V30 4708 O 425.855 -4.3199 3.72479 0
M  V30 4709 O 424.789 -3.04924 5.18946 0
M  V30 4710 H 428.615 -0.589181 2.9793 0
M  V30 4711 H 426.2 -0.225091 1.47695 0
M  V30 4712 H 428.082 -3.0412 2.917 0
M  V30 4713 H 426.757 -2.71195 1.76733 0
M  V30 4714 H 425.664 -1.21663 3.53764 0
M  V30 4715 H 426.997 -1.61931 4.648 0
M  V30 4716 N 428.649 -1.55105 -0.279332 0
M  V30 4717 C 429.597 -1.88333 -1.36505 0
M  V30 4718 C 430.591 -0.759043 -1.51443 0
M  V30 4719 O 431.797 -0.943312 -1.53302 0
M  V30 4720 H 428.172 -0.59766 -0.456406 0
M  V30 4721 H 430.143 -2.79041 -1.05728 0
M  V30 4722 C 428.892 -2.16628 -2.7197 0
M  V30 4723 H 428.215 -3.02624 -2.61264 0
M  V30 4724 H 429.655 -2.43803 -3.46895 0
M  V30 4725 C 428.114 -0.971807 -3.22579 0
M  V30 4726 O 428.644 -0.203228 -4.01186 0
M  V30 4727 N 426.85 -0.771238 -2.80179 0
M  V30 4728 H 426.397 -1.39792 -2.1637 0
M  V30 4729 H 426.355 0.0263667 -3.14389 0
M  V30 4730 N 430.127 0.543554 -1.4793 0
M  V30 4731 C 431.037 1.67657 -1.64098 0
M  V30 4732 C 432.053 1.65934 -0.523622 0
M  V30 4733 O 433.229 1.85133 -0.792943 0
M  V30 4734 C 430.294 3.04146 -1.66421 0
M  V30 4735 C 429.355 3.16831 -2.89684 0
M  V30 4736 C 428.588 4.46809 -2.91886 0
M  V30 4737 O 428.811 5.33095 -2.02895 0
M  V30 4738 O 427.745 4.63573 -3.83906 0
M  V30 4739 H 431.571 1.56957 -2.59997 0
M  V30 4740 H 429.156 0.715116 -1.31173 0
M  V30 4741 H 431.038 3.85346 -1.70548 0
M  V30 4742 H 429.713 3.152 -0.736923 0
M  V30 4743 H 428.62 2.34977 -2.91095 0
M  V30 4744 H 429.953 3.10687 -3.81752 0
M  V30 4745 N 431.605 1.3629 0.791371 0
M  V30 4746 C 432.833 1.33562 1.58016 0
M  V30 4747 C 433.248 -0.0835616 1.88615 0
M  V30 4748 O 432.605 -1.0399 1.49974 0
M  V30 4749 C 432.656 2.15517 2.90232 0
M  V30 4750 O 432.377 3.51902 2.60953 0
M  V30 4751 C 433.878 2.20546 3.84544 0
M  V30 4752 H 431.098 0.458226 0.490173 0
M  V30 4753 H 433.642 1.79361 0.982345 0
M  V30 4754 H 431.797 1.73278 3.46487 0
M  V30 4755 H 432.211 3.94644 3.4548 0
M  V30 4756 H 433.685 2.82252 4.74382 0
M  V30 4757 H 434.162 1.20838 4.2225 0
M  V30 4758 H 434.768 2.63013 3.34222 0
M  V30 4759 N 433.083 -1.0153 1.20538 0
M  V30 4760 C 434.332 -1.74558 1.01057 0
M  V30 4761 C 434.645 -1.90168 -0.457756 0
M  V30 4762 O 435.851 -2.60301 -0.771722 0
M  V30 4763 C 434.307 -3.13963 1.75941 0
M  V30 4764 C 433.915 -3.06361 3.26875 0
M  V30 4765 C 435.659 -3.91191 1.64832 0
M  V30 4766 C 433.566 -4.40782 3.94291 0
M  V30 4767 H 432.496 -0.654417 0.374505 0
M  V30 4768 H 435.147 -1.13521 1.44171 0
M  V30 4769 H 433.529 -3.75549 1.25614 0
M  V30 4770 H 434.703 -2.54074 3.84425 0
M  V30 4771 H 433.018 -2.42625 3.38411 0
M  V30 4772 H 435.615 -4.90644 2.12539 0
M  V30 4773 H 435.958 -4.11884 0.604745 0
M  V30 4774 H 436.491 -3.36236 2.12579 0
M  V30 4775 H 433.23 -4.25292 4.98805 0
M  V30 4776 H 432.75 -4.9307 3.41529 0
M  V30 4777 H 434.429 -5.09621 3.98617 0
M  V30 4778 N 434.561 -1.01147 -1.20859 0
M  V30 4779 C 435.491 -0.597663 -2.25722 0
M  V30 4780 C 436.472 0.384744 -1.65692 0
M  V30 4781 O 437.657 0.271303 -1.92296 0
M  V30 4782 C 434.787 0.0700149 -3.47229 0
M  V30 4783 C 433.741 -0.832843 -4.19819 0
M  V30 4784 C 433.067 -0.0312202 -5.34691 0
M  V30 4785 C 434.367 -2.1385 -4.76514 0
M  V30 4786 H 436.061 -1.47423 -2.60589 0
M  V30 4787 H 433.607 -0.710301 -1.25263 0
M  V30 4788 H 435.56 0.37103 -4.19763 0
M  V30 4789 H 434.284 0.981259 -3.11511 0
M  V30 4790 H 432.943 -1.11778 -3.49144 0
M  V30 4791 H 432.591 0.881515 -4.95215 0
M  V30 4792 H 432.291 -0.632434 -5.84187 0
M  V30 4793 H 433.815 0.26346 -6.10031 0
M  V30 4794 H 435.229 -1.9002 -5.40893 0
M  V30 4795 H 433.626 -2.69012 -5.36426 0
M  V30 4796 H 434.696 -2.80495 -3.95538 0
M  V30 4797 N 436.039 1.36541 -0.78704 0
M  V30 4798 C 437.264 2.0409 -0.369053 0
M  V30 4799 C 437.689 1.58957 1.00569 0
M  V30 4800 O 437.047 0.756926 1.64743 0
M  V30 4801 C 437.095 3.57924 -0.438466 0
M  V30 4802 O 436.199 4.08642 0.555479 0
M  V30 4803 H 435.54 0.645142 -0.157122 0
M  V30 4804 H 438.07 1.74545 -1.06749 0
M  V30 4805 H 438.08 4.06887 -0.301218 0
M  V30 4806 H 436.755 3.90127 -1.44132 0
M  V30 4807 H 435.332 3.70958 0.380088 0
M  V30 4808 N 437.518 0.538854 1.48102 0
M  V30 4809 C 438.746 0.0123136 2.06896 0
M  V30 4810 C 439.161 -1.27312 1.39417 0
M  V30 4811 O 438.518 -1.75949 0.484582 0
M  V30 4812 C 438.569 -0.206118 3.60912 0
M  V30 4813 O 438.29 1.0284 4.25859 0
M  V30 4814 C 439.791 -0.772033 4.36526 0
M  V30 4815 H 437.011 0.0375239 0.66995 0
M  V30 4816 H 439.555 0.747032 1.90367 0
M  V30 4817 H 437.71 -0.89091 3.77017 0
M  V30 4818 H 438.124 0.814654 5.18135 0
M  V30 4819 H 439.598 -0.874251 5.45033 0
M  V30 4820 H 440.075 -1.77904 4.01555 0
M  V30 4821 H 440.681 -0.123526 4.25121 0
M  V30 4822 N 438.996 -1.55193 0.274407 0
M  V30 4823 C 440.221 -2.04446 -0.348824 0
M  V30 4824 C 440.646 -1.15149 -1.48735 0
M  V30 4825 O 440.004 -0.149952 -1.80679 0
M  V30 4826 C 440.052 -3.51431 -0.808009 0
M  V30 4827 O 439.156 -3.65225 -1.91531 0
M  V30 4828 H 438.497 -0.66006 -0.0722276 0
M  V30 4829 H 441.027 -2.00481 0.408498 0
M  V30 4830 H 441.037 -3.92781 -1.10395 0
M  V30 4831 H 439.712 -4.15892 0.0249865 0
M  V30 4832 H 438.289 -3.35778 -1.62196 0
M  V30 4833 N 440.474 -0.00167713 -1.576 0
M  V30 4834 C 441.407 1.02317 -2.03977 0
M  V30 4835 C 442.385 1.33381 -0.929963 0
M  V30 4836 O 443.569 1.45517 -1.19822 0
M  V30 4837 C 440.696 2.35035 -2.43878 0
M  V30 4838 C 439.742 2.19621 -3.65607 0
M  V30 4839 S 440.575 1.52068 -5.13455 0
M  V30 4840 C 441.731 2.86212 -5.56627 0
M  V30 4841 H 441.964 0.628285 -2.90585 0
M  V30 4842 H 439.497 0.209239 -1.52976 0
M  V30 4843 H 441.455 3.11345 -2.67534 0
M  V30 4844 H 440.116 2.71663 -1.57665 0
M  V30 4845 H 439.309 3.1767 -3.91282 0
M  V30 4846 H 438.911 1.51455 -3.41961 0
M  V30 4847 H 441.203 3.82509 -5.59189 0
M  V30 4848 H 442.146 2.65235 -6.56549 0
M  V30 4849 H 442.554 2.90199 -4.84195 0
M  V30 4850 N 441.952 1.55251 0.271103 0
M  V30 4851 C 443.2 1.75599 1.00047 0
M  V30 4852 C 443.521 0.561188 1.8675 0
M  V30 4853 O 442.791 -0.423846 1.9126 0
M  V30 4854 H 441.371 0.647562 0.372387 0
M  V30 4855 H 444.033 1.92656 0.294876 0
M  V30 4856 H 443.129 2.65766 1.6363 0
M  V30 4857 N 443.43 -0.535701 1.48216 0
M  V30 4858 C 444.678 -1.28928 1.55634 0
M  V30 4859 C 444.999 -1.93645 0.229514 0
M  V30 4860 O 444.269 -1.81038 -0.74846 0
M  V30 4861 H 442.849 -0.47884 0.573342 0
M  V30 4862 H 445.511 -0.623853 1.84646 0
M  V30 4863 H 444.607 -2.07157 2.33436 0
M  V30 4864 N 444.908 -1.36708 -0.784132 0
M  V30 4865 C 446.133 -1.34565 -1.5782 0
M  V30 4866 C 446.558 0.0695257 -1.87971 0
M  V30 4867 O 445.916 1.04302 -1.48293 0
M  V30 4868 C 445.964 -2.17952 -2.87279 0
M  V30 4869 O 445.068 -1.57563 -3.81114 0
M  V30 4870 H 444.409 -0.460337 -0.478524 0
M  V30 4871 H 446.939 -1.80064 -0.971495 0
M  V30 4872 H 446.949 -2.30721 -3.365 0
M  V30 4873 H 445.624 -3.20823 -2.64661 0
M  V30 4874 H 444.201 -1.53764 -3.39722 0
M  V30 4875 N 446.386 1.0089 -1.21074 0
M  V30 4876 C 447.296 2.13039 -0.982425 0
M  V30 4877 C 448.312 1.73881 0.0642161 0
M  V30 4878 O 449.488 2.01012 -0.12496 0
M  V30 4879 C 446.553 3.42377 -0.545803 0
M  V30 4880 C 445.614 3.95731 -1.6642 0
M  V30 4881 C 444.847 5.18896 -1.24832 0
M  V30 4882 O 445.07 5.70273 -0.120265 0
M  V30 4883 O 444.004 5.65597 -2.05873 0
M  V30 4884 H 447.83 2.35175 -1.92163 0
M  V30 4885 H 445.415 1.1142 -0.995285 0
M  V30 4886 H 447.297 4.20244 -0.311912 0
M  V30 4887 H 445.972 3.21639 0.364727 0
M  V30 4888 H 444.879 3.19108 -1.95246 0
M  V30 4889 H 446.212 4.20872 -2.55201 0
M  V30 4890 N 447.864 1.01787 1.20321 0
M  V30 4891 C 449.094 0.72614 1.93419 0
M  V30 4892 C 449.502 -0.717317 1.75075 0
M  V30 4893 O 448.845 -1.49836 1.06278 0
M  V30 4894 C 448.907 0.983621 3.45782 0
M  V30 4895 C 448.571 2.41645 3.87888 0
M  V30 4896 C 449.568 3.39732 3.93545 0
M  V30 4897 C 447.253 2.75752 4.19841 0
M  V30 4898 C 449.247 4.69988 4.30569 0
M  V30 4899 C 446.934 4.06221 4.56539 0
M  V30 4900 C 447.932 5.0315 4.61876 0
M  V30 4901 O 447.62 6.31284 4.97731 0
M  V30 4902 H 447.352 0.265824 0.621541 0
M  V30 4903 H 449.906 1.3623 1.53722 0
M  V30 4904 H 448.136 0.290301 3.85609 0
M  V30 4905 H 449.825 0.683279 4.00108 0
M  V30 4906 H 450.591 3.14718 3.69022 0
M  V30 4907 H 446.47 2.00993 4.14877 0
M  V30 4908 H 450.014 5.45642 4.3465 0
M  V30 4909 H 445.911 4.31013 4.80518 0
M  V30 4910 H 446.679 6.35591 5.15719 0
M  V30 4911 N 449.342 -1.36122 0.79427 0
M  V30 4912 C 450.59 -1.98718 0.368177 0
M  V30 4913 C 450.911 -1.63345 -1.06506 0
M  V30 4914 O 450.181 -0.909825 -1.73491 0
M  V30 4915 H 448.761 -0.735038 0.133146 0
M  V30 4916 H 451.423 -1.66239 1.01739 0
M  V30 4917 H 450.519 -3.08633 0.463923 0
M  V30 4918 N 450.82 -0.546701 -1.47814 0
M  V30 4919 C 451.75 0.195317 -2.32682 0
M  V30 4920 C 452.731 0.918981 -1.43139 0
M  V30 4921 O 453.916 0.901501 -1.72008 0
M  V30 4922 C 451.046 1.23237 -3.247 0
M  V30 4923 C 450 0.625818 -4.234 0
M  V30 4924 C 449.326 1.76674 -5.04669 0
M  V30 4925 C 450.626 -0.413515 -5.2066 0
M  V30 4926 H 452.32 -0.513184 -2.94969 0
M  V30 4927 H 449.866 -0.248241 -1.41844 0
M  V30 4928 H 451.819 1.75955 -3.82907 0
M  V30 4929 H 450.543 1.97067 -2.60446 0
M  V30 4930 H 449.202 0.120023 -3.66403 0
M  V30 4931 H 448.85 2.49383 -4.36826 0
M  V30 4932 H 448.55 1.36673 -5.71484 0
M  V30 4933 H 450.074 2.29738 -5.65732 0
M  V30 4934 H 451.488 0.0272042 -5.73294 0
M  V30 4935 H 449.885 -0.731825 -5.95621 0
M  V30 4936 H 450.955 -1.31325 -4.66778 0
M  V30 4937 N 452.299 1.55045 -0.282633 0
M  V30 4938 C 453.231 2.2023 0.634924 0
M  V30 4939 C 454.244 1.18931 1.11172 0
M  V30 4940 O 455.433 1.4562 1.03233 0
M  V30 4941 C 452.533 2.82041 1.87899 0
M  V30 4942 C 451.706 4.091 1.54776 0
M  V30 4943 C 450.765 4.54887 2.64507 0
M  V30 4944 O 449.791 5.20496 2.30375 0
M  V30 4945 N 450.993 4.25659 3.94709 0
M  V30 4946 H 453.758 2.99601 0.0769811 0
M  V30 4947 H 451.319 1.61565 -0.104048 0
M  V30 4948 H 453.311 3.09613 2.60619 0
M  V30 4949 H 451.881 2.06618 2.3458 0
M  V30 4950 H 451.101 3.88736 0.654049 0
M  V30 4951 H 452.389 4.9187 1.30158 0
M  V30 4952 H 451.787 3.7306 4.25256 0
M  V30 4953 H 450.344 4.57984 4.63782 0
M  V30 4954 N 453.777 0.010035 1.57597 0
M  V30 4955 C 455.023 -0.673697 1.91283 0
M  V30 4956 C 455.356 -1.72863 0.884979 0
M  V30 4957 O 454.631 -1.94268 -0.0949487 0
M  V30 4958 C 454.914 -1.30766 3.35518 0
M  V30 4959 C 454.767 -0.263578 4.49027 0
M  V30 4960 C 456.086 -2.23105 3.79358 0
M  V30 4961 H 453.205 -0.243439 0.695634 0
M  V30 4962 H 455.847 0.0633864 1.89894 0
M  V30 4963 H 453.997 -1.93588 3.36832 0
M  V30 4964 H 455.669 0.365738 4.59848 0
M  V30 4965 H 453.912 0.413077 4.31829 0
M  V30 4966 H 454.583 -0.746398 5.4693 0
M  V30 4967 H 457.059 -1.70289 3.79659 0
M  V30 4968 H 455.935 -2.64424 4.81011 0
M  V30 4969 H 456.196 -3.11433 3.13787 0
M  V30 4970 N 455.255 -1.55392 -0.262866 0
M  V30 4971 C 456.504 -1.75679 -0.990943 0
M  V30 4972 C 456.817 -0.57097 -1.87081 0
M  V30 4973 O 458.023 -0.656486 -2.63444 0
M  V30 4974 C 456.479 -3.10964 -1.81188 0
M  V30 4975 C 456.087 -4.37146 -0.980188 0
M  V30 4976 C 457.831 -3.40597 -2.53365 0
M  V30 4977 C 455.738 -5.63466 -1.7961 0
M  V30 4978 H 454.668 -0.654868 -0.373716 0
M  V30 4979 H 457.319 -1.81841 -0.246203 0
M  V30 4980 H 455.701 -2.98867 -2.59797 0
M  V30 4981 H 456.875 -4.60187 -0.237558 0
M  V30 4982 H 455.19 -4.14731 -0.372497 0
M  V30 4983 H 457.787 -4.32186 -3.14833 0
M  V30 4984 H 458.13 -2.6119 -3.24169 0
M  V30 4985 H 458.663 -3.53838 -1.81779 0
M  V30 4986 H 455.402 -6.4565 -1.13209 0
M  V30 4987 H 454.922 -5.44552 -2.51443 0
M  V30 4988 H 456.601 -6.02139 -2.36723 0
M  V30 4989 N 456.733 0.527833 -1.48498 0
M  V30 4990 C 457.663 1.64136 -1.66077 0
M  V30 4991 C 458.644 1.62286 -0.509625 0
M  V30 4992 O 459.829 1.79449 -0.742413 0
M  V30 4993 C 456.959 3.02717 -1.70234 0
M  V30 4994 C 455.913 3.19426 -2.8487 0
M  V30 4995 C 455.239 4.5909 -2.74118 0
M  V30 4996 C 456.539 3.01993 -4.26142 0
M  V30 4997 H 458.233 1.4968 -2.593 0
M  V30 4998 H 455.779 0.718654 -1.24785 0
M  V30 4999 H 457.732 3.80491 -1.8112 0
M  V30 5000 H 456.456 3.18201 -0.735911 0
M  V30 5001 H 455.115 2.4407 -2.73542 0
M  V30 5002 H 454.763 4.71413 -1.7544 0
M  V30 5003 H 454.463 4.71214 -3.51042 0
M  V30 5004 H 455.987 5.3896 -2.86974 0
M  V30 5005 H 457.401 3.69558 -4.38292 0
M  V30 5006 H 455.798 3.2561 -5.04082 0
M  V30 5007 H 456.868 1.98396 -4.42456 0
M  V30 5008 N 458.211 1.37122 0.776871 0
M  V30 5009 C 459.441 1.35034 1.56363 0
M  V30 5010 C 459.849 -0.0674681 1.8908 0
M  V30 5011 O 459.192 -1.03826 1.51545 0
M  V30 5012 C 459.254 2.11894 2.90415 0
M  V30 5013 C 458.918 3.60897 2.80362 0
M  V30 5014 C 459.915 4.54887 2.51742 0
M  V30 5015 C 457.6 4.03951 2.98545 0
M  V30 5016 C 459.594 5.89909 2.41426 0
M  V30 5017 C 457.281 5.3906 2.87849 0
M  V30 5018 C 458.279 6.31852 2.5933 0
M  V30 5019 O 457.967 7.64479 2.48651 0
M  V30 5020 H 457.699 0.464402 0.49123 0
M  V30 5021 H 460.253 1.80992 0.971127 0
M  V30 5022 H 458.483 1.60618 3.51765 0
M  V30 5023 H 460.172 2.02505 3.51776 0
M  V30 5024 H 460.938 4.22934 2.37385 0
M  V30 5025 H 456.817 3.3209 3.19746 0
M  V30 5026 H 460.361 6.62304 2.19086 0
M  V30 5027 H 456.258 5.70617 3.01773 0
M  V30 5028 H 457.026 7.74742 2.64039 0
M  V30 5029 N 459.689 -1.00246 1.21608 0
M  V30 5030 C 460.938 -1.73476 1.02902 0
M  V30 5031 C 461.251 -1.90643 -0.437561 0
M  V30 5032 O 462.457 -2.61105 -0.74407 0
M  V30 5033 C 460.913 -3.12079 1.79261 0
M  V30 5034 C 460.521 -3.02877 3.30106 0
M  V30 5035 C 462.265 -3.89421 1.68972 0
M  V30 5036 C 460.172 -4.36575 3.98944 0
M  V30 5037 H 459.102 -0.650408 0.381425 0
M  V30 5038 H 461.753 -1.11985 1.45367 0
M  V30 5039 H 460.135 -3.74196 1.2959 0
M  V30 5040 H 461.309 -2.49983 3.87098 0
M  V30 5041 H 459.624 -2.39022 3.40965 0
M  V30 5042 H 462.221 -4.88362 2.17731 0
M  V30 5043 H 462.564 -4.1122 0.648397 0
M  V30 5044 H 463.097 -3.33963 2.16133 0
M  V30 5045 H 459.836 -4.19978 5.03288 0
M  V30 5046 H 459.356 -4.8942 3.4674 0
M  V30 5047 H 461.035 -5.05364 4.04 0
M  V30 5048 N 461.167 -1.02423 -1.1978 0
M  V30 5049 C 462.115 -0.594474 -2.24875 0
M  V30 5050 C 463.109 0.370598 -1.65296 0
M  V30 5051 O 464.315 0.239684 -1.78397 0
M  V30 5052 H 460.69 -0.173961 -0.731602 0
M  V30 5053 H 462.661 -1.4916 -2.58445 0
M  V30 5054 C 461.41 0.0436512 -3.47673 0
M  V30 5055 H 460.733 -0.689963 -3.93801 0
M  V30 5056 H 462.173 0.307362 -4.22884 0
M  V30 5057 C 460.632 1.28881 -3.11274 0
M  V30 5058 O 461.162 2.38135 -3.23503 0
M  V30 5059 N 459.368 1.1758 -2.6575 0
M  V30 5060 H 458.915 0.286769 -2.55999 0
M  V30 5061 H 458.873 2.00988 -2.41767 0
M  V30 5062 N 462.645 1.35699 -0.801477 0
M  V30 5063 C 463.555 2.33661 -0.209691 0
M  V30 5064 C 464.571 1.6162 0.644591 0
M  V30 5065 O 465.747 1.93529 0.557545 0
M  V30 5066 C 462.812 3.40816 0.636033 0
M  V30 5067 C 461.873 4.28639 -0.238147 0
M  V30 5068 C 461.106 5.30676 0.567307 0
M  V30 5069 O 461.329 5.41174 1.8024 0
M  V30 5070 O 460.263 6.01887 -0.0391336 0
M  V30 5071 H 464.089 2.8606 -1.01996 0
M  V30 5072 H 461.674 1.38379 -0.563164 0
M  V30 5073 H 463.556 4.06301 1.11791 0
M  V30 5074 H 462.231 2.90696 1.42399 0
M  V30 5075 H 461.138 3.66152 -0.767044 0
M  V30 5076 H 462.471 4.82143 -0.989915 0
M  V30 5077 N 464.123 0.554532 1.47522 0
M  V30 5078 C 465.033 -0.197865 2.33764 0
M  V30 5079 C 466.049 -0.914576 1.48025 0
M  V30 5080 O 467.225 -0.884067 1.80959 0
M  V30 5081 C 464.29 -1.21628 3.24665 0
M  V30 5082 C 463.351 -0.507283 4.26292 0
M  V30 5083 C 462.584 -1.47718 5.1285 0
M  V30 5084 O 462.807 -2.7118 5.01814 0
M  V30 5085 O 461.741 -1.00313 5.93482 0
M  V30 5086 H 465.567 0.50949 2.99396 0
M  V30 5087 H 463.152 0.315176 1.46038 0
M  V30 5088 H 465.034 -1.80421 3.80823 0
M  V30 5089 H 463.709 -1.9056 2.61665 0
M  V30 5090 H 462.616 0.121778 3.73902 0
M  V30 5091 H 463.949 0.140544 4.91999 0
M  V30 5092 N 465.601 -1.54893 0.290851 0
M  V30 5093 C 466.511 -2.26812 -0.59945 0
M  V30 5094 C 467.527 -1.29963 -1.15696 0
M  V30 5095 O 468.703 -1.62928 -1.18391 0
M  V30 5096 C 465.768 -2.98716 -1.75982 0
M  V30 5097 C 464.829 -4.1108 -1.2374 0
M  V30 5098 C 464.062 -4.79546 -2.34246 0
M  V30 5099 O 464.285 -4.47309 -3.53936 0
M  V30 5100 O 463.219 -5.67165 -2.01512 0
M  V30 5101 H 467.045 -3.03696 -0.0163561 0
M  V30 5102 H 464.63 -1.49289 0.0576755 0
M  V30 5103 H 466.512 -3.43851 -2.43607 0
M  V30 5104 H 465.187 -2.24737 -2.3297 0
M  V30 5105 H 464.094 -3.70367 -0.527163 0
M  V30 5106 H 465.427 -4.87007 -0.71307 0
M  V30 5107 N 467.08 -0.0183926 -1.57589 0
M  V30 5108 C 468.31 0.67207 -1.95363 0
M  V30 5109 C 468.718 1.66807 -0.892872 0
M  V30 5110 O 468.061 1.83204 0.134958 0
M  V30 5111 C 468.123 1.44397 -3.29226 0
M  V30 5112 C 467.787 0.607511 -4.52944 0
M  V30 5113 C 468.784 -0.112657 -5.19778 0
M  V30 5114 C 466.469 0.548068 -4.99301 0
M  V30 5115 C 468.463 -0.881057 -6.31281 0
M  V30 5116 C 466.15 -0.224044 -6.10689 0
M  V30 5117 C 467.148 -0.937323 -6.76538 0
M  V30 5118 O 466.836 -1.6968 -7.85789 0
M  V30 5119 H 466.568 0.190925 -0.648478 0
M  V30 5120 H 469.122 -0.0711994 -2.05277 0
M  V30 5121 H 467.352 2.23214 -3.15773 0
M  V30 5122 H 469.041 2.02152 -3.51979 0
M  V30 5123 H 469.807 -0.0759998 -4.8494 0
M  V30 5124 H 465.686 1.09281 -4.4786 0
M  V30 5125 H 469.23 -1.43832 -6.82611 0
M  V30 5126 H 465.127 -0.262457 -6.44966 0
M  V30 5127 H 465.895 -1.61544 -8.024 0
M  V30 5128 N 468.558 1.5553 0.254621 0
M  V30 5129 C 469.506 1.9048 1.33492 0
M  V30 5130 C 470.5 0.78304 1.50216 0
M  V30 5131 O 471.706 0.967582 1.51782 0
M  V30 5132 H 468.081 0.604846 0.44684 0
M  V30 5133 H 470.052 2.80688 1.01275 0
M  V30 5134 C 468.801 2.20928 2.68489 0
M  V30 5135 H 468.124 3.06742 2.56417 0
M  V30 5136 H 469.564 2.49291 3.42972 0
M  V30 5137 C 468.023 1.023 3.20993 0
M  V30 5138 O 468.553 0.267027 4.00811 0
M  V30 5139 N 466.759 0.815714 2.78917 0
M  V30 5140 H 466.306 1.43217 2.14119 0
M  V30 5141 H 466.264 0.0236532 3.14391 0
M  V30 5142 N 470.036 -0.519951 1.48776 0
M  V30 5143 C 471.447 -1.10177 1.50725 0
M  V30 5144 C 471.798 -1.94153 0.282678 0
M  V30 5145 O 470.923 -2.07645 -0.609298 0
M  V30 5146 C 471.518 -2.00482 2.73116 0
M  V30 5147 C 470.077 -2.53862 2.77905 0
M  V30 5148 C 469.224 -1.31047 2.44381 0
M  V30 5149 H 472.175 -0.30473 1.55747 0
M  V30 5150 H 472.196 -2.8491 2.52203 0
M  V30 5151 H 471.708 -1.39335 3.62225 0
M  V30 5152 H 469.809 -3.18702 1.93029 0
M  V30 5153 H 469.922 -2.9231 3.79594 0
M  V30 5154 H 468.286 -1.62953 1.95751 0
M  V30 5155 H 469.069 -0.71637 3.35743 0
M  V30 5156 N 471.514 -1.37532 -0.769588 0
M  V30 5157 C 472.761 -1.3286 -1.52822 0
M  V30 5158 C 473.089 0.0862597 -1.94309 0
M  V30 5159 O 472.344 1.05995 -1.6451 0
M  V30 5160 C 472.643 -2.21558 -2.8044 0
M  V30 5161 C 472.309 -3.69796 -2.57996 0
M  V30 5162 C 470.971 -4.10194 -2.51583 0
M  V30 5163 C 473.323 -4.63699 -2.37976 0
M  V30 5164 C 470.651 -5.42608 -2.23144 0
M  V30 5165 C 473.003 -5.96353 -2.1106 0
M  V30 5166 C 471.667 -6.35853 -2.03093 0
M  V30 5167 H 470.937 -0.486168 -0.559215 0
M  V30 5168 H 473.584 -1.69757 -0.886277 0
M  V30 5169 H 471.889 -1.77663 -3.49204 0
M  V30 5170 H 473.586 -2.15256 -3.38328 0
M  V30 5171 H 470.176 -3.37759 -2.63851 0
M  V30 5172 H 474.36 -4.33346 -2.41919 0
M  V30 5173 H 469.616 -5.72173 -2.15472 0
M  V30 5174 H 473.79 -6.68667 -1.94568 0
M  V30 5175 H 471.417 -7.38382 -1.8082 0
M  V30 5176 N 472.992 0.995999 -1.22138 0
M  V30 5177 C 473.922 2.10387 -1.01289 0
M  V30 5178 C 474.903 1.69975 0.0651454 0
M  V30 5179 O 476.088 1.9396 -0.0964628 0
M  V30 5180 C 473.218 3.42312 -0.586517 0
M  V30 5181 C 472.172 3.96558 -1.61014 0
M  V30 5182 C 471.498 5.24494 -1.0397 0
M  V30 5183 C 472.798 4.27595 -2.99933 0
M  V30 5184 H 474.492 2.28086 -1.93951 0
M  V30 5185 H 472.038 1.09607 -0.933928 0
M  V30 5186 H 473.991 4.19223 -0.427793 0
M  V30 5187 H 472.715 3.24431 0.375761 0
M  V30 5188 H 471.374 3.21776 -1.75658 0
M  V30 5189 H 471.022 5.02953 -0.0688703 0
M  V30 5190 H 470.722 5.61755 -1.72352 0
M  V30 5191 H 472.246 6.04042 -0.892494 0
M  V30 5192 H 473.66 4.95315 -2.8868 0
M  V30 5193 H 472.057 4.76021 -3.6541 0
M  V30 5194 H 473.127 3.35498 -3.50099 0
M  V30 5195 N 474.47 1.03057 1.19235 0
M  V30 5196 C 475.716 0.729098 1.89241 0
M  V30 5197 C 476.049 -0.740573 1.79525 0
M  V30 5198 O 475.324 -1.53946 1.18874 0
M  V30 5199 C 475.607 1.18304 3.40112 0
M  V30 5200 C 475.46 2.71406 3.5869 0
M  V30 5201 C 476.779 0.765161 4.33397 0
M  V30 5202 H 473.898 0.266338 0.687192 0
M  V30 5203 H 476.54 1.28079 1.40341 0
M  V30 5204 H 474.69 0.713672 3.81889 0
M  V30 5205 H 476.362 3.26303 3.26074 0
M  V30 5206 H 474.605 3.11717 3.01687 0
M  V30 5207 H 475.276 2.98225 4.64506 0
M  V30 5208 H 477.752 1.16889 3.99345 0
M  V30 5209 H 476.628 1.11065 5.37546 0
M  V30 5210 H 476.889 -0.332372 4.40849 0
M  V30 5211 N 475.948 -1.35272 0.808662 0
M  V30 5212 C 477.173 -2.03477 0.401475 0
M  V30 5213 C 477.598 -1.60537 -0.980279 0
M  V30 5214 O 476.956 -0.78304 -1.63518 0
M  V30 5215 C 477.004 -3.57181 0.495354 0
M  V30 5216 O 476.108 -4.09474 -0.490397 0
M  V30 5217 H 475.449 -0.642561 0.167366 0
M  V30 5218 H 477.979 -1.72824 1.09512 0
M  V30 5219 H 477.989 -4.06356 0.365912 0
M  V30 5220 H 476.664 -3.87784 1.5032 0
M  V30 5221 H 475.241 -3.71516 -0.321023 0
M  V30 5222 N 477.426 -0.562348 -1.47226 0
M  V30 5223 C 478.651 -0.0432632 -2.07355 0
M  V30 5224 C 479.076 1.24332 -1.41149 0
M  V30 5225 O 478.434 1.74603 -0.488226 0
M  V30 5226 C 478.482 0.130288 -3.60365 0
M  V30 5227 O 477.586 1.19166 -3.94808 0
M  V30 5228 H 476.927 -0.0536334 -0.66183 0
M  V30 5229 H 479.457 -0.779495 -1.89169 0
M  V30 5230 H 479.467 0.342881 -4.06557 0
M  V30 5231 H 478.142 -0.809389 -4.07948 0
M  V30 5232 H 476.719 0.959153 -3.60354 0
M  V30 5233 N 478.904 1.54736 -0.299062 0
M  V30 5234 C 480.132 2.04512 0.313447 0
M  V30 5235 C 480.547 1.17643 1.47667 0
M  V30 5236 O 479.904 0.20164 1.81383 0
M  V30 5237 C 479.955 3.53171 0.771542 0
M  V30 5238 O 479.676 4.36736 -0.345379 0
M  V30 5239 C 481.177 4.18936 1.4494 0
M  V30 5240 H 478.397 0.667507 0.0683784 0
M  V30 5241 H 480.941 1.99752 -0.438129 0
M  V30 5242 H 479.096 3.58298 1.47314 0
M  V30 5243 H 479.51 5.24499 0.0109219 0
M  V30 5244 H 480.984 5.24482 1.72111 0
M  V30 5245 H 481.461 3.68554 2.38883 0
M  V30 5246 H 482.067 4.17879 0.791028 0
M  V30 5247 N 480.382 0.0267497 1.57577 0
M  V30 5248 C 481.63 -0.651116 1.91324 0
M  V30 5249 C 481.951 -1.72804 0.90353 0
M  V30 5250 O 481.221 -1.95822 -0.0552946 0
M  V30 5251 H 479.801 -0.243491 0.706202 0
M  V30 5252 H 482.463 0.0739935 1.94759 0
M  V30 5253 H 481.559 -1.10536 2.9187 0
M  V30 5254 N 481.861 -1.55662 -0.24637 0
M  V30 5255 C 482.824 -1.89558 -1.28842 0
M  V30 5256 C 483.824 -0.772082 -1.41052 0
M  V30 5257 O 485.014 -1.04007 -1.39743 0
M  V30 5258 C 482.146 -2.12449 -2.66605 0
M  V30 5259 H 483.339 -2.82735 -1.00004 0
M  V30 5260 H 480.892 -1.48562 -0.485684 0
M  V30 5261 H 481.627 -1.21742 -3.00582 0
M  V30 5262 H 481.412 -2.94273 -2.59125 0
M  V30 5263 H 482.902 -2.39854 -3.41847 0
M  V30 5264 N 483.339 0.512053 -1.4905 0
M  V30 5265 C 484.286 1.6148 -1.64902 0
M  V30 5266 C 485.256 1.58687 -0.490673 0
M  V30 5267 O 486.441 1.76842 -0.71636 0
M  V30 5268 C 483.581 2.99676 -1.71139 0
M  V30 5269 C 482.694 3.12568 -2.98203 0
M  V30 5270 C 481.829 4.4143 -2.95487 0
M  V30 5271 C 480.868 4.47916 -4.17179 0
M  V30 5272 N 480.005 5.68191 -4.12437 0
M  V30 5273 H 484.845 1.47271 -2.59066 0
M  V30 5274 H 482.382 0.716713 -1.28459 0
M  V30 5275 H 484.34 3.79761 -1.72736 0
M  V30 5276 H 482.97 3.12614 -0.804508 0
M  V30 5277 H 482.022 2.25618 -3.06269 0
M  V30 5278 H 483.334 3.1322 -3.88194 0
M  V30 5279 H 482.488 5.29825 -2.95585 0
M  V30 5280 H 481.227 4.43326 -2.03256 0
M  V30 5281 H 480.232 3.57925 -4.17337 0
M  V30 5282 H 481.457 4.47744 -5.1059 0
M  V30 5283 H 479.403 5.7095 -3.23036 0
M  V30 5284 H 479.32 5.70413 -4.96151 0
M  V30 5285 H 480.588 6.58823 -4.16621 0
M  V30 5286 N 484.817 1.37938 0.762283 0
M  V30 5287 C 486.063 1.33866 1.52341 0
M  V30 5288 C 486.396 -0.0738961 1.94059 0
M  V30 5289 O 485.671 -1.03326 1.64785 0
M  V30 5290 C 485.954 2.28644 2.78197 0
M  V30 5291 C 485.807 3.78722 2.42672 0
M  V30 5292 C 487.126 2.21702 3.80179 0
M  V30 5293 H 484.245 0.487593 0.55265 0
M  V30 5294 H 486.887 1.68717 0.873767 0
M  V30 5295 H 485.037 1.99055 3.33631 0
M  V30 5296 H 486.709 4.18948 1.93081 0
M  V30 5297 H 484.952 3.96827 1.75244 0
M  V30 5298 H 485.623 4.40486 3.3268 0
M  V30 5299 H 488.099 2.47805 3.34263 0
M  V30 5300 H 486.975 2.90143 4.65949 0
M  V30 5301 H 487.236 1.21301 4.25133 0
M  V30 5302 N 486.295 -0.989507 1.22664 0
M  V30 5303 C 487.544 -1.72375 1.04737 0
M  V30 5304 C 487.857 -1.91096 -0.417316 0
M  V30 5305 O 489.063 -2.6188 -0.716334 0
M  V30 5306 C 487.519 -3.10161 1.82561 0
M  V30 5307 C 487.127 -2.99358 3.333 0
M  V30 5308 C 488.871 -3.87607 1.73093 0
M  V30 5309 C 486.778 -4.32319 4.03552 0
M  V30 5310 H 485.708 -0.646326 0.388302 0
M  V30 5311 H 488.359 -1.10437 1.46546 0
M  V30 5312 H 486.741 -3.728 1.33552 0
M  V30 5313 H 487.915 -2.45863 3.89728 0
M  V30 5314 H 486.23 -2.35392 3.43481 0
M  V30 5315 H 488.827 -4.86025 2.22899 0
M  V30 5316 H 489.17 -4.10509 0.691976 0
M  V30 5317 H 489.703 -3.31652 2.19663 0
M  V30 5318 H 486.442 -4.14616 5.07714 0
M  V30 5319 H 485.962 -4.85714 3.51911 0
M  V30 5320 H 487.641 -5.01051 4.09337 0
M  V30 5321 N 487.773 -1.03688 -1.18687 0
M  V30 5322 C 489.022 -0.733235 -1.879 0
M  V30 5323 C 489.335 0.741745 -1.8099 0
M  V30 5324 O 490.541 1.15875 -2.4553 0
M  V30 5325 C 488.997 -1.26127 -3.37076 0
M  V30 5326 C 488.605 -2.76461 -3.52524 0
M  V30 5327 C 490.349 -1.03398 -4.11715 0
M  V30 5328 C 488.256 -3.22642 -4.95637 0
M  V30 5329 H 487.186 -0.270584 -0.703776 0
M  V30 5330 H 489.837 -1.25222 -1.34133 0
M  V30 5331 H 488.219 -0.670165 -3.90288 0
M  V30 5332 H 489.393 -3.41296 -3.09602 0
M  V30 5333 H 487.708 -2.97559 -2.91286 0
M  V30 5334 H 490.305 -1.3542 -5.17267 0
M  V30 5335 H 490.648 0.0289246 -4.1629 0
M  V30 5336 H 491.181 -1.5895 -3.64664 0
M  V30 5337 H 487.92 -4.28296 -4.96228 0
M  V30 5338 H 487.44 -2.62539 -5.39289 0
M  V30 5339 H 489.119 -3.16444 -5.64333 0
M  V30 5340 N 489.251 1.34841 -0.815825 0
M  V30 5341 C 490.201 2.27075 -0.205169 0
M  V30 5342 C 491.185 1.48205 0.626414 0
M  V30 5343 O 492.377 1.70306 0.482157 0
M  V30 5344 C 489.506 3.37322 0.637871 0
M  V30 5345 C 488.592 4.23609 -0.203948 0
M  V30 5346 N 488.983 4.89558 -1.27149 0
M  V30 5347 C 487.281 4.45998 0.0128971 0
M  V30 5348 C 487.982 5.53597 -1.7862 0
M  V30 5349 N 486.958 5.32535 -1.0912 0
M  V30 5350 H 490.76 2.75563 -1.02187 0
M  V30 5351 H 488.274 1.48477 -0.657912 0
M  V30 5352 H 490.271 4.02359 1.09146 0
M  V30 5353 H 488.931 2.90385 1.45281 0
M  V30 5354 H 489.942 4.9077 -1.65423 0
M  V30 5355 H 486.619 4.09837 0.79624 0
M  V30 5356 H 488.009 6.16184 -2.67892 0
M  V30 5357 N 490.729 0.570148 1.46925 0
M  V30 5358 C 492.145 0.23087 1.57921 0
M  V30 5359 C 492.345 -1.26676 1.56702 0
M  V30 5360 O 491.401 -2.04774 1.47729 0
M  V30 5361 C 492.714 0.868973 2.8787 0
M  V30 5362 C 494.262 0.841397 3.01479 0
M  V30 5363 C 494.737 1.45881 4.34146 0
M  V30 5364 N 496.228 1.42258 4.40814 0
M  V30 5365 C 496.963 1.8698 5.42057 0
M  V30 5366 N 496.459 2.39618 6.50042 0
M  V30 5367 N 498.252 1.77972 5.33181 0
M  V30 5368 H 490.403 1.54301 1.45962 0
M  V30 5369 H 492.666 0.644224 0.69547 0
M  V30 5370 H 492.372 1.922 2.94537 0
M  V30 5371 H 492.246 0.369682 3.75384 0
M  V30 5372 H 494.633 -0.202973 2.94401 0
M  V30 5373 H 494.714 1.37858 2.15474 0
M  V30 5374 H 494.358 2.50231 4.4198 0
M  V30 5375 H 494.288 0.896958 5.18905 0
M  V30 5376 H 496.779 1.03768 3.63374 0
M  V30 5377 H 497.092 2.71633 7.23488 0
M  V30 5378 H 495.437 2.43636 6.50897 0
M  V30 5379 H 498.628 1.36617 4.4772 0
M  V30 5380 H 498.801 2.13143 6.11943 0
M  V30 5381 N 492.207 -1.54576 0.307264 0
M  V30 5382 C 493.139 -2.21212 -0.599807 0
M  V30 5383 C 494.152 -1.20685 -1.09266 0
M  V30 5384 O 495.341 -1.47244 -1.00903 0
M  V30 5385 C 492.441 -2.84994 -1.83389 0
M  V30 5386 C 491.614 -4.11511 -1.48248 0
M  V30 5387 C 490.673 -4.59038 -2.57237 0
M  V30 5388 O 489.699 -5.24095 -2.22065 0
M  V30 5389 N 490.901 -4.31884 -3.87887 0
M  V30 5390 H 493.666 -2.99686 -0.0293075 0
M  V30 5391 H 491.227 -1.61379 0.129738 0
M  V30 5392 H 493.219 -3.1372 -2.5566 0
M  V30 5393 H 491.789 -2.10324 -2.31263 0
M  V30 5394 H 491.009 -3.89728 -0.592122 0
M  V30 5395 H 492.297 -4.93879 -1.22316 0
M  V30 5396 H 491.695 -3.79778 -4.19268 0
M  V30 5397 H 490.252 -4.65304 -4.56438 0
M  V30 5398 N 493.685 -0.035106 -1.57561 0
M  V30 5399 C 494.962 0.681212 -1.83354 0
M  V30 5400 C 495.342 1.89986 -0.920252 0
M  V30 5401 O 494.69 2.28489 0.0226815 0
M  V30 5402 C 494.9 1.05376 -3.32712 0
M  V30 5403 C 496.248 1.44286 -3.99333 0
M  V30 5404 O 497.272 1.14656 -3.37242 0
M  V30 5405 O 496.131 1.99518 -5.08778 0
M  V30 5406 H 493.225 0.334741 -0.756226 0
M  V30 5407 H 495.771 -0.0632448 -1.69582 0
M  V30 5408 H 494.543 0.186668 -3.90854 0
M  V30 5409 H 494.166 1.85619 -3.51613 0
M  V30 5410 N 495.163 1.55791 0.238111 0
M  V30 5411 C 496.073 1.94196 1.31625 0
M  V30 5412 C 497.089 0.843545 1.52185 0
M  V30 5413 O 498.265 1.1457 1.65637 0
M  V30 5414 C 495.33 2.2365 2.64918 0
M  V30 5415 C 494.391 3.46971 2.52804 0
M  V30 5416 C 493.624 3.7501 3.79741 0
M  V30 5417 O 493.847 3.04982 4.82019 0
M  V30 5418 O 492.781 4.68525 3.77846 0
M  V30 5419 H 496.607 2.86044 1.02043 0
M  V30 5420 H 494.192 1.42786 0.439603 0
M  V30 5421 H 496.074 2.43863 3.4367 0
M  V30 5422 H 494.749 1.34979 2.94215 0
M  V30 5423 H 493.656 3.32055 1.72309 0
M  V30 5424 H 494.989 4.35971 2.28451 0
M  V30 5425 N 496.642 -0.504142 1.49319 0
M  V30 5426 C 497.872 -1.28071 1.62116 0
M  V30 5427 C 498.28 -1.86955 0.290566 0
M  V30 5428 O 497.623 -1.68415 -0.733616 0
M  V30 5429 C 497.685 -2.4521 2.62893 0
M  V30 5430 C 497.349 -2.07218 4.0732 0
M  V30 5431 C 498.346 -1.61375 4.94221 0
M  V30 5432 C 496.031 -2.16949 4.53033 0
M  V30 5433 C 498.025 -1.25763 6.2487 0
M  V30 5434 C 495.712 -1.80949 5.83696 0
M  V30 5435 C 496.71 -1.3543 6.69438 0
M  V30 5436 O 496.398 -0.99915 7.97667 0
M  V30 5437 H 496.13 -0.394763 0.54876 0
M  V30 5438 H 498.684 -0.612118 1.96067 0
M  V30 5439 H 496.914 -3.15134 2.24115 0
M  V30 5440 H 498.603 -3.0724 2.65252 0
M  V30 5441 H 499.369 -1.53306 4.60133 0
M  V30 5442 H 495.248 -2.5133 3.86463 0
M  V30 5443 H 498.792 -0.901631 6.91749 0
M  V30 5444 H 494.689 -1.88667 6.17313 0
M  V30 5445 H 495.457 -1.13089 8.1065 0
M  V30 5446 N 498.12 -1.38341 -0.754957 0
M  V30 5447 C 499.531 -1.30803 -1.3322 0
M  V30 5448 C 499.882 0.0368 -1.96165 0
M  V30 5449 O 499.007 0.938844 -1.94974 0
M  V30 5450 C 499.602 -2.3688 -2.42225 0
M  V30 5451 C 498.161 -2.32925 -2.95674 0
M  V30 5452 C 497.308 -2.19819 -1.69042 0
M  V30 5453 H 500.259 -1.48719 -0.553937 0
M  V30 5454 H 500.28 -2.02517 -3.22129 0
M  V30 5455 H 499.792 -3.34747 -1.96383 0
M  V30 5456 H 497.893 -1.38635 -3.45848 0
M  V30 5457 H 498.006 -3.27008 -3.50146 0
M  V30 5458 H 496.37 -1.66648 -1.92615 0
M  V30 5459 H 497.153 -3.19625 -1.25279 0
M  V30 5460 N 499.598 0.982988 -1.23187 0
M  V30 5461 C 500.845 1.72392 -1.06241 0
M  V30 5462 C 501.173 1.9032 0.40108 0
M  V30 5463 O 500.428 1.45084 1.31336 0
M  V30 5464 C 500.727 3.12736 -1.73006 0
M  V30 5465 C 500.393 3.14695 -3.22921 0
M  V30 5466 C 499.055 3.14937 -3.63824 0
M  V30 5467 C 501.407 3.10211 -4.1883 0
M  V30 5468 C 498.735 3.08408 -4.99101 0
M  V30 5469 C 501.087 3.05224 -5.54095 0
M  V30 5470 C 499.751 3.03787 -5.94365 0
M  V30 5471 H 499.021 0.630829 -0.388762 0
M  V30 5472 H 501.668 1.15053 -1.53085 0
M  V30 5473 H 499.973 3.73446 -1.18514 0
M  V30 5474 H 501.67 3.68828 -1.57374 0
M  V30 5475 H 498.26 3.15262 -2.90358 0
M  V30 5476 H 502.444 3.09166 -3.8824 0
M  V30 5477 H 497.7 3.05646 -5.29519 0
M  V30 5478 H 501.874 3.00712 -6.28128 0
M  V30 5479 H 499.501 2.98483 -6.99151 0
M  V30 5480 N 501.076 1.04316 1.18135 0
M  V30 5481 C 502.322 0.749128 1.88457 0
M  V30 5482 C 502.655 -0.72149 1.803 0
M  V30 5483 O 501.93 -1.52676 1.205 0
M  V30 5484 C 502.213 1.21905 3.38838 0
M  V30 5485 C 502.066 2.75195 3.55792 0
M  V30 5486 C 503.385 0.811085 4.32561 0
M  V30 5487 H 500.504 0.273611 0.684329 0
M  V30 5488 H 503.146 1.29561 1.38975 0
M  V30 5489 H 501.296 0.754137 3.8111 0
M  V30 5490 H 502.968 3.29743 3.22595 0
M  V30 5491 H 501.211 3.14899 2.98364 0
M  V30 5492 H 501.882 3.03135 4.61317 0
M  V30 5493 H 504.358 1.21118 3.98082 0
M  V30 5494 H 503.234 1.16761 5.36338 0
M  V30 5495 H 503.495 -0.285596 4.41177 0
M  V30 5496 N 502.554 -1.34406 0.822964 0
M  V30 5497 C 503.464 -2.33298 0.246838 0
M  V30 5498 C 504.48 -1.62625 -0.618797 0
M  V30 5499 O 505.656 -1.94391 -0.526685 0
M  V30 5500 C 502.721 -3.41785 -0.581731 0
M  V30 5501 C 501.782 -4.28206 0.306309 0
M  V30 5502 C 501.015 -5.31512 -0.48281 0
M  V30 5503 O 501.238 -5.43973 -1.71607 0
M  V30 5504 O 500.172 -6.01749 0.134884 0
M  V30 5505 H 503.998 -2.84401 1.06534 0
M  V30 5506 H 501.583 -1.37466 0.585108 0
M  V30 5507 H 503.465 -4.08028 -1.05313 0
M  V30 5508 H 502.14 -2.92925 -1.37756 0
M  V30 5509 H 501.047 -3.64885 0.825199 0
M  V30 5510 H 502.38 -4.80507 1.06649 0
M  V30 5511 N 504.032 -0.577932 -1.46621 0
M  V30 5512 C 505.309 0.00495287 -1.95599 0
M  V30 5513 C 505.689 1.46428 -1.5206 0
M  V30 5514 O 505.037 2.1517 -0.769046 0
M  V30 5515 C 505.247 -0.162114 -3.48623 0
M  V30 5516 C 506.595 -0.0274623 -4.24591 0
M  V30 5517 O 507.619 -0.0907067 -3.56084 0
M  V30 5518 O 506.478 0.1122 -5.46385 0
M  V30 5519 H 503.572 0.0525057 -0.825332 0
M  V30 5520 H 506.118 -0.645914 -1.56927 0
M  V30 5521 H 504.89 -1.17679 -3.73185 0
M  V30 5522 H 504.513 0.525407 -3.94113 0
M  V30 5523 N 505.51 1.54411 -0.315457 0
M  V30 5524 C 506.756 2.00716 0.289972 0
M  V30 5525 C 507.089 1.2034 1.5242 0
M  V30 5526 O 506.364 0.283579 1.92422 0
M  V30 5527 C 506.647 3.54507 0.632196 0
M  V30 5528 C 506.5 4.45615 -0.61218 0
M  V30 5529 C 507.819 4.15421 1.45305 0
M  V30 5530 H 504.938 0.729637 0.10392 0
M  V30 5531 H 507.58 1.8506 -0.430427 0
M  V30 5532 H 505.73 3.67979 1.24595 0
M  V30 5533 H 507.402 4.44026 -1.25053 0
M  V30 5534 H 505.645 4.15621 -1.24264 0
M  V30 5535 H 506.316 5.51022 -0.328379 0
M  V30 5536 H 508.792 4.05474 0.934331 0
M  V30 5537 H 507.668 5.23157 1.66127 0
M  V30 5538 H 507.929 3.68223 2.44671 0
M  V30 5539 N 506.988 0.0434614 1.5754 0
M  V30 5540 C 508.236 -0.630786 1.92004 0
M  V30 5541 C 508.557 -1.71836 0.921807 0
M  V30 5542 O 507.827 -1.9587 -0.034522 0
M  V30 5543 H 506.407 -0.235988 0.708745 0
M  V30 5544 H 509.069 0.0946462 1.9467 0
M  V30 5545 H 508.165 -1.07434 2.93026 0
M  V30 5546 N 508.466 -1.55915 -0.229846 0
M  V30 5547 C 509.694 -1.82617 -0.972562 0
M  V30 5548 C 510.109 -0.621488 -1.78278 0
M  V30 5549 O 509.466 0.409956 -1.77836 0
M  V30 5550 C 509.517 -3.0774 -1.89679 0
M  V30 5551 O 509.238 -4.23559 -1.11934 0
M  V30 5552 C 510.739 -3.47368 -2.75409 0
M  V30 5553 H 507.959 -0.60727 -0.285419 0
M  V30 5554 H 510.503 -2.02996 -0.247579 0
M  V30 5555 H 508.658 -2.89361 -2.57583 0
M  V30 5556 H 509.072 -4.94586 -1.74599 0
M  V30 5557 H 510.546 -4.37977 -3.35977 0
M  V30 5558 H 511.023 -2.68737 -3.47386 0
M  V30 5559 H 511.629 -3.68158 -2.12931 0
M  V30 5560 N 509.944 0.496216 -1.49584 0
M  V30 5561 C 510.854 1.62352 -1.69349 0
M  V30 5562 C 511.87 1.64184 -0.576147 0
M  V30 5563 O 513.046 1.82517 -0.85144 0
M  V30 5564 C 510.111 2.98698 -1.76013 0
M  V30 5565 C 509.172 3.07454 -2.99617 0
M  V30 5566 C 508.405 4.37296 -3.05953 0
M  V30 5567 O 508.628 5.2637 -2.19752 0
M  V30 5568 O 507.562 4.51124 -3.9846 0
M  V30 5569 H 511.388 1.48606 -2.64859 0
M  V30 5570 H 508.973 0.673022 -1.33382 0
M  V30 5571 H 510.855 3.79725 -1.82721 0
M  V30 5572 H 509.53 3.12696 -0.836828 0
M  V30 5573 H 508.437 2.25597 -2.98424 0
M  V30 5574 H 509.77 2.98385 -3.91443 0
M  V30 5575 N 511.423 1.38739 0.74761 0
M  V30 5576 C 512.672 1.3459 1.50228 0
M  V30 5577 C 512.985 -0.0595592 1.95509 0
M  V30 5578 O 514.191 -0.22361 2.70578 0
M  V30 5579 C 512.647 2.36377 2.71393 0
M  V30 5580 C 512.255 3.82573 2.33113 0
M  V30 5581 C 513.999 2.41281 3.49262 0
M  V30 5582 C 511.906 4.76032 3.50924 0
M  V30 5583 H 510.836 0.500312 0.564096 0
M  V30 5584 H 513.487 1.64324 0.8167 0
M  V30 5585 H 511.869 1.99694 3.41962 0
M  V30 5586 H 513.043 4.28227 1.70171 0
M  V30 5587 H 511.358 3.80844 1.68365 0
M  V30 5588 H 513.955 3.08301 4.36869 0
M  V30 5589 H 514.298 1.43353 3.9084 0
M  V30 5590 H 514.831 2.76793 2.85711 0
M  V30 5591 H 511.57 5.75177 3.14408 0
M  V30 5592 H 511.09 4.35066 4.12889 0
M  V30 5593 H 512.769 4.94331 4.17427 0
M  V30 5594 N 512.901 -0.976442 1.23707 0
M  V30 5595 C 513.811 -2.10359 1.03856 0
M  V30 5596 C 514.827 -1.73991 -0.0180919 0
M  V30 5597 O 516.003 -2.0061 0.178211 0
M  V30 5598 C 513.068 -3.40809 0.636387 0
M  V30 5599 C 512.129 -3.91179 1.76854 0
M  V30 5600 C 511.362 -5.15404 1.38546 0
M  V30 5601 O 511.585 -5.69754 0.27142 0
M  V30 5602 O 510.519 -5.5994 2.20797 0
M  V30 5603 H 514.345 -2.29997 1.98331 0
M  V30 5604 H 511.93 -1.08742 1.02448 0
M  V30 5605 H 513.812 -4.19269 0.423223 0
M  V30 5606 H 512.487 -3.22493 -0.279322 0
M  V30 5607 H 511.394 -3.13819 2.03638 0
M  V30 5608 H 512.727 -4.13958 2.6627 0
M  V30 5609 N 514.379 -1.04941 -1.1758 0
M  V30 5610 C 515.607 -0.778294 -1.91703 0
M  V30 5611 C 516.022 0.665697 -1.76675 0
M  V30 5612 O 515.379 1.45456 -1.10222 0
M  V30 5613 C 515.43 -1.14628 -3.42845 0
M  V30 5614 O 515.151 -2.53359 -3.57409 0
M  V30 5615 C 516.652 -0.900931 -4.34049 0
M  V30 5616 H 513.872 -0.283167 -0.608323 0
M  V30 5617 H 516.416 -1.39942 -1.49119 0
M  V30 5618 H 514.571 -0.569953 -3.83184 0
M  V30 5619 H 514.985 -2.67709 -4.51035 0
M  V30 5620 H 516.459 -1.20817 -5.38616 0
M  V30 5621 H 516.936 0.163966 -4.38894 0
M  V30 5622 H 517.542 -1.46097 -3.99419 0
M  V30 5623 N 515.857 1.33968 -0.830081 0
M  V30 5624 C 516.82 2.27694 -0.26235 0
M  V30 5625 C 517.82 1.50589 0.563876 0
M  V30 5626 O 519.01 1.70028 0.378941 0
M  V30 5627 C 516.142 3.35002 0.63138 0
M  V30 5628 H 517.335 2.79419 -1.08928 0
M  V30 5629 H 514.888 1.44221 -0.602486 0
M  V30 5630 H 515.623 2.88504 1.48109 0
M  V30 5631 H 515.408 3.92079 0.0403276 0
M  V30 5632 H 516.898 4.04897 1.02217 0
M  V30 5633 N 517.335 0.585699 1.46312 0
M  V30 5634 C 518.268 -0.194257 2.27372 0
M  V30 5635 C 519.246 -0.894116 1.3581 0
M  V30 5636 O 520.43 -0.907402 1.65222 0
M  V30 5637 C 517.557 -1.27901 3.13622 0
M  V30 5638 C 516.603 -0.684666 4.20969 0
M  V30 5639 S 517.436 0.490745 5.33247 0
M  V30 5640 C 518.592 -0.595137 6.23064 0
M  V30 5641 H 518.825 0.493515 2.93175 0
M  V30 5642 H 516.358 0.372666 1.49835 0
M  V30 5643 H 518.316 -1.90008 3.63878 0
M  V30 5644 H 516.977 -1.93875 2.47126 0
M  V30 5645 H 516.17 -1.50015 4.81156 0
M  V30 5646 H 515.772 -0.139204 3.73741 0
M  V30 5647 H 518.064 -1.48002 6.61137 0
M  V30 5648 H 519.007 -0.0299446 7.08094 0
M  V30 5649 H 519.415 -0.900627 5.57269 0
M  V30 5650 N 518.813 -1.54241 0.323641 0
M  V30 5651 C 520.059 -2.00867 -0.279323 0
M  V30 5652 C 520.392 -1.21146 -1.5178 0
M  V30 5653 O 519.667 -0.29378 -1.92269 0
M  V30 5654 C 519.95 -3.54837 -0.613387 0
M  V30 5655 C 519.803 -4.45284 0.635803 0
M  V30 5656 C 521.122 -4.16186 -1.43099 0
M  V30 5657 H 518.241 -0.730177 -0.100049 0
M  V30 5658 H 520.883 -1.84829 0.440235 0
M  V30 5659 H 519.033 -3.68634 -1.22641 0
M  V30 5660 H 520.705 -4.43357 1.27406 0
M  V30 5661 H 518.948 -4.14956 1.26466 0
M  V30 5662 H 519.619 -5.5084 0.357597 0
M  V30 5663 H 522.095 -4.05964 -0.912814 0
M  V30 5664 H 520.971 -5.24031 -1.6335 0
M  V30 5665 H 521.232 -3.69516 -2.42715 0
M  V30 5666 N 520.291 -0.0518155 -1.57515 0
M  V30 5667 C 521.519 0.631395 -1.9703 0
M  V30 5668 C 521.934 1.64341 -0.92938 0
M  V30 5669 O 521.291 1.82296 0.0863266 0
M  V30 5670 C 521.342 1.31774 -3.36627 0
M  V30 5671 O 521.063 0.346247 -4.3673 0
M  V30 5672 C 522.564 2.09065 -3.90905 0
M  V30 5673 H 519.784 0.172576 -0.648428 0
M  V30 5674 H 522.328 -0.118306 -2.04158 0
M  V30 5675 H 520.483 2.01867 -3.30649 0
M  V30 5676 H 520.897 0.836226 -5.17791 0
M  V30 5677 H 522.371 2.52508 -4.9086 0
M  V30 5678 H 522.848 2.93908 -3.26366 0
M  V30 5679 H 523.454 1.43882 -4.00223 0
M  V30 5680 N 521.769 1.56035 0.221574 0
M  V30 5681 C 522.994 1.83476 0.967026 0
M  V30 5682 C 523.419 0.632139 1.7716 0
M  V30 5683 O 522.777 -0.419082 1.7639 0
M  V30 5684 C 522.825 3.08907 1.86034 0
M  V30 5685 O 521.929 2.876 2.95567 0
M  V30 5686 H 521.27 0.604913 0.273817 0
M  V30 5687 H 523.8 2.03247 0.234893 0
M  V30 5688 H 523.81 3.3901 2.27016 0
M  V30 5689 H 522.485 3.96068 1.26898 0
M  V30 5690 H 521.062 2.6873 2.58532 0
M  V30 5691 N 523.247 -0.488276 1.49845 0
M  V30 5692 C 524.496 -1.23826 1.59217 0
M  V30 5693 C 524.809 -1.93439 0.289966 0
M  V30 5694 O 526.015 -2.70229 0.262382 0
M  V30 5695 C 524.471 -2.24902 2.80976 0
M  V30 5696 C 524.079 -1.6117 4.18005 0
M  V30 5697 C 525.823 -3.00648 2.99685 0
M  V30 5698 C 523.73 -2.60431 5.3097 0
M  V30 5699 H 522.66 -0.465858 0.592868 0
M  V30 5700 H 525.311 -0.510645 1.76252 0
M  V30 5701 H 523.693 -3.0088 2.57463 0
M  V30 5702 H 524.867 -0.910968 4.51706 0
M  V30 5703 H 523.182 -0.97767 4.0476 0
M  V30 5704 H 525.779 -3.74903 3.81251 0
M  V30 5705 H 526.122 -3.5902 2.10738 0
M  V30 5706 H 526.655 -2.31784 3.23297 0
M  V30 5707 H 523.394 -2.06823 6.22017 0
M  V30 5708 H 522.914 -3.28707 5.01709 0
M  V30 5709 H 524.593 -3.22606 5.60834 0
M  V30 5710 N 524.725 -1.39134 -0.740242 0
M  V30 5711 C 525.973 -1.35803 -1.49673 0
M  V30 5712 C 526.294 0.0470897 -1.94943 0
M  V30 5713 O 525.564 0.997347 -1.68611 0
M  V30 5714 H 524.144 -0.499736 -0.555224 0
M  V30 5715 H 526.806 -1.73947 -0.879107 0
M  V30 5716 H 525.902 -2.0174 -2.38133 0
M  V30 5717 N 526.204 0.969867 -1.24223 0
M  V30 5718 C 527.137 2.06279 -0.975926 0
M  V30 5719 C 528.115 1.62353 0.0895385 0
M  V30 5720 O 529.299 1.88442 -0.0469418 0
M  V30 5721 C 526.426 3.35391 -0.472315 0
M  V30 5722 C 525.472 3.98266 -1.526 0
M  V30 5723 S 526.305 4.36172 -3.10667 0
M  V30 5724 C 527.461 5.68423 -2.62003 0
M  V30 5725 H 527.694 2.28551 -1.90137 0
M  V30 5726 H 525.227 1.10748 -1.07584 0
M  V30 5727 H 527.185 4.10068 -0.188376 0
M  V30 5728 H 525.846 3.1111 0.432378 0
M  V30 5729 H 525.039 4.91307 -1.12399 0
M  V30 5730 H 524.641 3.30009 -1.75983 0
M  V30 5731 H 526.933 6.45842 -2.0468 0
M  V30 5732 H 527.876 6.13478 -3.53625 0
M  V30 5733 H 528.284 5.26928 -2.02502 0
M  V30 5734 N 527.682 1.05563 1.17022 0
M  V30 5735 C 528.632 0.630007 2.19123 0
M  V30 5736 C 529.616 -0.335472 1.57364 0
M  V30 5737 O 530.808 -0.1521 1.76345 0
M  V30 5738 C 527.937 0.0101676 3.43298 0
M  V30 5739 C 527.023 0.999698 4.12149 0
M  V30 5740 N 527.414 2.17251 4.56766 0
M  V30 5741 C 525.712 0.829 4.38228 0
M  V30 5742 C 526.413 2.79883 5.09942 0
M  V30 5743 N 525.389 2.07656 5.02374 0
M  V30 5744 H 529.191 1.52353 2.51328 0
M  V30 5745 H 526.705 0.926288 1.33393 0
M  V30 5746 H 528.702 -0.312541 4.15727 0
M  V30 5747 H 527.362 -0.878707 3.12584 0
M  V30 5748 H 528.373 2.55067 4.50734 0
M  V30 5749 H 525.05 -0.00850974 4.17499 0
M  V30 5750 H 526.44 3.79362 5.54558 0
M  V30 5751 N 529.16 -1.33526 0.837174 0
M  V30 5752 C 530.09 -2.31764 0.284206 0
M  V30 5753 C 531.071 -1.58896 -0.607142 0
M  V30 5754 O 532.256 -1.86798 -0.531047 0
M  V30 5755 C 529.386 -3.43029 -0.542962 0
M  V30 5756 C 528.34 -4.27255 0.252451 0
M  V30 5757 C 527.666 -5.3012 -0.69836 0
M  V30 5758 C 528.966 -5.01229 1.46858 0
M  V30 5759 H 530.66 -2.78262 1.10502 0
M  V30 5760 H 528.206 -1.3378 0.532812 0
M  V30 5761 H 530.159 -4.1078 -0.940096 0
M  V30 5762 H 528.883 -2.95216 -1.39697 0
M  V30 5763 H 527.542 -3.61127 0.631124 0
M  V30 5764 H 527.19 -4.78564 -1.54872 0
M  V30 5765 H 526.89 -5.87353 -0.170274 0
M  V30 5766 H 528.414 -6.00737 -1.09305 0
M  V30 5767 H 529.828 -5.61756 1.14469 0
M  V30 5768 H 528.225 -5.68104 1.93333 0
M  V30 5769 H 529.295 -4.301 2.23924 0
M  V30 5770 N 530.638 -0.59345 -1.46 0
M  V30 5771 C 531.866 -0.0890934 -2.06708 0
M  V30 5772 C 532.281 1.2205 -1.44046 0
M  V30 5773 O 531.638 1.74029 -0.549551 0
M  V30 5774 C 531.689 0.0720263 -3.61428 0
M  V30 5775 O 531.41 -1.18574 -4.21748 0
M  V30 5776 C 532.911 0.609487 -4.3909 0
M  V30 5777 H 530.131 -0.0623628 -0.668096 0
M  V30 5778 H 532.675 -0.817171 -1.87464 0
M  V30 5779 H 530.83 0.750369 -3.80063 0
M  V30 5780 H 531.244 -1.0064 -5.14754 0
M  V30 5781 H 532.718 0.671363 -5.47902 0
M  V30 5782 H 533.195 1.62878 -4.07882 0
M  V30 5783 H 533.801 -0.03434 -4.25286 0
M  V30 5784 N 532.116 1.54067 -0.331816 0
M  V30 5785 C 533.026 2.28322 0.539104 0
M  V30 5786 C 534.042 1.32985 1.1221 0
M  V30 5787 O 535.218 1.6601 1.1403 0
M  V30 5788 C 532.283 3.03277 1.68 0
M  V30 5789 C 531.344 4.14216 1.12798 0
M  V30 5790 C 530.577 4.85588 2.2145 0
M  V30 5791 O 530.8 4.56536 3.41952 0
M  V30 5792 O 529.734 5.72309 1.86404 0
M  V30 5793 H 533.56 3.03632 -0.0641692 0
M  V30 5794 H 531.145 1.49083 -0.0972365 0
M  V30 5795 H 533.027 3.50189 2.34405 0
M  V30 5796 H 531.702 2.30834 2.2693 0
M  V30 5797 H 530.609 3.71635 0.428782 0
M  V30 5798 H 531.942 4.88727 0.583698 0
M  V30 5799 N 533.594 0.0601682 1.57485 0
M  V30 5800 C 534.819 -0.624416 1.97777 0
M  V30 5801 C 535.244 -1.63051 0.937867 0
M  V30 5802 O 534.602 -1.81036 -0.0978845 0
M  V30 5803 C 534.65 -1.27979 3.37126 0
M  V30 5804 O 533.754 -2.39556 3.35688 0
M  V30 5805 H 533.095 -0.161581 0.64404 0
M  V30 5806 H 535.625 0.131237 2.04179 0
M  V30 5807 H 535.635 -1.62937 3.74053 0
M  V30 5808 H 534.31 -0.542501 4.12347 0
M  V30 5809 H 532.887 -2.06478 3.10517 0
M  V30 5810 N 535.072 -1.5615 -0.213296 0
M  V30 5811 C 536.319 -1.79546 -0.936462 0
M  V30 5812 C 536.647 -0.630337 -1.84003 0
M  V30 5813 O 535.902 0.384883 -1.91878 0
M  V30 5814 C 536.201 -3.08772 -1.79985 0
M  V30 5815 C 535.867 -4.38532 -1.04882 0
M  V30 5816 C 534.529 -4.73787 -0.841393 0
M  V30 5817 C 536.881 -5.18609 -0.51907 0
M  V30 5818 C 534.209 -5.86627 -0.0924403 0
M  V30 5819 C 536.561 -6.32229 0.216581 0
M  V30 5820 C 535.225 -6.6608 0.435191 0
M  V30 5821 H 534.495 -0.657004 -0.342676 0
M  V30 5822 H 537.142 -1.9041 -0.204051 0
M  V30 5823 H 535.447 -2.93065 -2.60038 0
M  V30 5824 H 537.144 -3.24077 -2.36168 0
M  V30 5825 H 533.734 -4.10855 -1.22048 0
M  V30 5826 H 537.918 -4.91801 -0.666775 0
M  V30 5827 H 533.174 -6.11338 0.087081 0
M  V30 5828 H 537.348 -6.93503 0.634538 0
M  V30 5829 H 534.975 -7.5336 1.01746 0
M  V30 5830 N 536.55 0.480323 -1.50102 0
M  V30 5831 C 537.497 1.57946 -1.6829 0
M  V30 5832 C 538.467 1.57611 -0.524223 0
M  V30 5833 O 539.652 1.75282 -0.753709 0
M  V30 5834 C 536.792 2.95978 -1.77457 0
M  V30 5835 C 535.905 3.06173 -3.04766 0
M  V30 5836 C 535.04 4.35063 -3.04784 0
M  V30 5837 C 534.079 4.38966 -4.26586 0
M  V30 5838 N 533.216 5.59314 -4.24396 0
M  V30 5839 H 538.056 1.41743 -2.62131 0
M  V30 5840 H 535.593 0.689304 -1.2995 0
M  V30 5841 H 537.551 3.76011 -1.80752 0
M  V30 5842 H 536.181 3.10837 -0.870637 0
M  V30 5843 H 535.233 2.19071 -3.10986 0
M  V30 5844 H 536.545 3.04916 -3.9475 0
M  V30 5845 H 535.699 5.23436 -3.06757 0
M  V30 5846 H 534.438 4.38915 -2.12614 0
M  V30 5847 H 533.443 3.48992 -4.24835 0
M  V30 5848 H 534.668 4.36813 -5.19972 0
M  V30 5849 H 532.614 5.63969 -3.35074 0
M  V30 5850 H 532.531 5.5976 -5.08138 0
M  V30 5851 H 533.799 6.49837 -4.30502 0
M  V30 5852 N 538.028 1.39524 0.732853 0
M  V30 5853 C 538.958 1.41153 1.86005 0
M  V30 5854 C 539.939 0.274614 1.67869 0
M  V30 5855 O 541.124 0.480745 1.88155 0
M  V30 5856 C 538.254 1.25638 3.23778 0
M  V30 5857 C 537.208 2.36752 3.56556 0
M  V30 5858 C 536.534 2.06326 4.93289 0
M  V30 5859 C 537.834 3.79069 3.5931 0
M  V30 5860 H 539.528 2.35484 1.84899 0
M  V30 5861 H 537.074 1.13348 0.888162 0
M  V30 5862 H 539.027 1.25398 4.0231 0
M  V30 5863 H 537.751 0.277772 3.25417 0
M  V30 5864 H 536.41 2.36213 2.80355 0
M  V30 5865 H 536.058 1.06897 4.9151 0
M  V30 5866 H 535.758 2.80757 5.16187 0
M  V30 5867 H 537.282 2.07739 5.74175 0
M  V30 5868 H 538.696 3.81526 4.27914 0
M  V30 5869 H 537.093 4.52878 3.93728 0
M  V30 5870 H 538.163 4.09893 2.59068 0
M  V30 5871 N 539.506 -0.963266 1.24736 0
M  V30 5872 C 540.731 -1.74699 1.11781 0
M  V30 5873 C 541.156 -1.85267 -0.325258 0
M  V30 5874 O 540.514 -1.32681 -1.23553 0
M  V30 5875 C 540.562 -3.14322 1.76731 0
M  V30 5876 O 539.666 -3.99043 1.04109 0
M  V30 5877 H 539.007 -0.53684 0.390767 0
M  V30 5878 H 541.537 -1.20801 1.65131 0
M  V30 5879 H 541.547 -3.64824 1.82668 0
M  V30 5880 H 540.222 -3.05946 2.81726 0
M  V30 5881 H 538.799 -3.5752 1.05991 0
M  V30 5882 N 540.985 -1.06182 -1.16461 0
M  V30 5883 C 541.895 -0.682671 -2.24448 0
M  V30 5884 C 542.911 0.30078 -1.71381 0
M  V30 5885 O 544.087 0.150376 -2.00838 0
M  V30 5886 C 541.152 -0.0737202 -3.46622 0
M  V30 5887 C 540.213 -1.10889 -4.14731 0
M  V30 5888 C 539.446 -0.528908 -5.31073 0
M  V30 5889 O 539.669 0.65868 -5.66584 0
M  V30 5890 O 538.603 -1.26805 -5.88391 0
M  V30 5891 H 542.429 -1.58291 -2.59187 0
M  V30 5892 H 540.014 -0.834013 -1.23954 0
M  V30 5893 H 541.896 0.264192 -4.20571 0
M  V30 5894 H 540.571 0.800015 -3.13658 0
M  V30 5895 H 539.478 -1.49896 -3.42756 0
M  V30 5896 H 540.811 -1.95412 -4.51747 0
M  V30 5897 N 542.463 1.3308 -0.844243 0
M  V30 5898 C 543.874 1.7992 -0.498566 0
M  V30 5899 C 544.225 1.69808 0.982834 0
M  V30 5900 O 543.35 1.25051 1.7661 0
M  V30 5901 C 543.945 3.26677 -0.898204 0
M  V30 5902 C 542.504 3.71513 -0.604583 0
M  V30 5903 C 541.651 2.54393 -1.10362 0
M  V30 5904 H 544.602 1.20526 -1.03244 0
M  V30 5905 H 544.623 3.79918 -0.21039 0
M  V30 5906 H 544.135 3.34004 -1.97643 0
M  V30 5907 H 542.236 3.69708 0.46335 0
M  V30 5908 H 542.349 4.64755 -1.16358 0
M  V30 5909 H 540.713 2.49246 -0.524273 0
M  V30 5910 H 541.496 2.6448 -2.18873 0
M  V30 5911 N 543.941 0.601185 1.45683 0
M  V30 5912 C 545.171 0.0999093 2.06358 0
M  V30 5913 C 545.579 -1.21831 1.44754 0
M  V30 5914 O 544.922 -1.75157 0.553695 0
M  V30 5915 C 544.984 -0.12085 3.59297 0
M  V30 5916 C 544.648 1.11459 4.432 0
M  V30 5917 C 545.645 2.03118 4.7858 0
M  V30 5918 C 543.33 1.34162 4.84051 0
M  V30 5919 C 545.324 3.15814 5.53661 0
M  V30 5920 C 543.011 2.4716 5.58888 0
M  V30 5921 C 544.009 3.37814 5.93608 0
M  V30 5922 O 543.697 4.48846 6.66928 0
M  V30 5923 H 543.429 0.0630316 0.673055 0
M  V30 5924 H 545.983 0.826982 1.88016 0
M  V30 5925 H 544.213 -0.902744 3.76015 0
M  V30 5926 H 545.902 -0.572925 4.01836 0
M  V30 5927 H 546.668 1.86801 4.47583 0
M  V30 5928 H 542.547 0.645018 4.56465 0
M  V30 5929 H 546.091 3.86596 5.8068 0
M  V30 5930 H 541.988 2.63432 5.89299 0
M  V30 5931 H 542.756 4.47446 6.85371 0
M  V30 5932 N 545.419 -1.53889 0.339982 0
M  V30 5933 C 546.644 -2.05741 -0.261798 0
M  V30 5934 C 547.069 -1.21354 -1.43718 0
M  V30 5935 O 546.427 -0.22645 -1.7988 0
M  V30 5936 C 546.475 -3.54542 -0.658228 0
M  V30 5937 O 545.579 -3.7302 -1.75869 0
M  V30 5938 H 544.92 -0.662529 -0.0441672 0
M  V30 5939 H 547.45 -1.98568 0.493161 0
M  V30 5940 H 547.46 -3.9711 -0.936368 0
M  V30 5941 H 546.135 -4.15412 0.201358 0
M  V30 5942 H 544.712 -3.42355 -1.47809 0
M  V30 5943 N 546.897 -0.0685191 -1.57451 0
M  V30 5944 C 547.829 0.929372 -2.09512 0
M  V30 5945 C 548.842 1.26354 -1.02657 0
M  V30 5946 O 550.031 1.2213 -1.30179 0
M  V30 5947 C 547.131 2.24612 -2.53777 0
M  V30 5948 C 546.304 2.09128 -3.84167 0
M  V30 5949 C 545.363 3.24079 -4.14559 0
M  V30 5950 O 544.389 2.99215 -4.8421 0
M  V30 5951 N 545.591 4.49077 -3.67845 0
M  V30 5952 H 548.356 0.484901 -2.95751 0
M  V30 5953 H 545.917 0.11729 -1.61475 0
M  V30 5954 H 547.909 3.00412 -2.71172 0
M  V30 5955 H 546.479 2.60569 -1.72692 0
M  V30 5956 H 545.699 1.17815 -3.76182 0
M  V30 5957 H 546.987 1.9603 -4.69521 0
M  V30 5958 H 546.385 4.72165 -3.11571 0
M  V30 5959 H 544.942 5.21915 -3.90446 0
M  V30 5960 N 548.375 1.56261 0.205012 0
M  V30 5961 C 549.615 1.81823 0.933806 0
M  V30 5962 C 549.979 0.644534 1.80858 0
M  V30 5963 O 551.18 0.779819 2.5724 0
M  V30 5964 C 549.451 3.12362 1.7368 0
M  V30 5965 S 551.01 3.59296 2.51897 0
M  V30 5966 H 547.828 0.638209 0.313386 0
M  V30 5967 H 550.43 1.94495 0.198001 0
M  V30 5968 H 549.134 3.95809 1.08459 0
M  V30 5969 H 548.665 3.02542 2.5146 0
M  V30 5970 H 550.68 3.23945 3.75864 0
M  V30 5971 N 549.853 -0.472356 1.50355 0
M  V30 5972 C 551.081 -1.24784 1.65035 0
M  V30 5973 C 551.496 -1.85837 0.333176 0
M  V30 5974 O 550.853 -1.69168 -0.68472 0
M  V30 5975 C 550.904 -2.35747 2.74054 0
M  V30 5976 O 550.625 -1.77197 4.00665 0
M  V30 5977 C 552.126 -3.26645 2.99696 0
M  V30 5978 H 549.346 -0.377432 0.554785 0
M  V30 5979 H 551.89 -0.563962 1.9657 0
M  V30 5980 H 550.045 -2.99912 2.45217 0
M  V30 5981 H 550.459 -2.5026 4.60945 0
M  V30 5982 H 551.933 -4.00718 3.79644 0
M  V30 5983 H 552.41 -3.8535 2.10718 0
M  V30 5984 H 553.016 -2.68218 3.3006 0
M  V30 5985 N 551.331 -1.39911 -0.725443 0
M  V30 5986 C 552.241 -1.41688 -1.8698 0
M  V30 5987 C 553.257 -0.310579 -1.71206 0
M  V30 5988 O 554.433 -0.55359 -1.93642 0
M  V30 5989 C 551.498 -1.26811 -3.22676 0
M  V30 5990 C 550.559 -2.47497 -3.50776 0
M  V30 5991 C 549.792 -2.3332 -4.79997 0
M  V30 5992 O 550.015 -1.34175 -5.54394 0
M  V30 5993 O 548.949 -3.22498 -5.08211 0
M  V30 5994 H 552.775 -2.38171 -1.88436 0
M  V30 5995 H 550.36 -1.21128 -0.874548 0
M  V30 5996 H 552.242 -1.20684 -4.03749 0
M  V30 5997 H 550.917 -0.334289 -3.21969 0
M  V30 5998 H 549.824 -2.59201 -2.69751 0
M  V30 5999 H 551.157 -3.39606 -3.5627 0
M  V30 6000 N 552.809 0.956637 -1.25245 0
M  V30 6001 C 554.086 1.67716 -1.00651 0
M  V30 6002 C 554.466 2.0585 0.467866 0
M  V30 6003 O 553.814 1.77029 1.44475 0
M  V30 6004 C 554.024 2.90093 -1.94028 0
M  V30 6005 C 555.372 3.6209 -2.21756 0
M  V30 6006 O 556.396 3.00171 -1.9177 0
M  V30 6007 O 555.255 4.7358 -2.72735 0
M  V30 6008 H 552.349 0.733731 -0.381533 0
M  V30 6009 H 554.895 1.00974 -1.3639 0
M  V30 6010 H 553.667 2.58689 -2.93591 0
M  V30 6011 H 553.29 3.64566 -1.58674 0
M  V30 6012 N 554.287 1.06798 1.15896 0
M  V30 6013 C 555.535 0.786211 1.8618 0
M  V30 6014 C 555.856 -0.689547 1.82401 0
M  V30 6015 O 555.126 -1.49913 1.26107 0
M  V30 6016 H 553.706 0.287843 0.689315 0
M  V30 6017 H 556.368 1.35055 1.40521 0
M  V30 6018 H 555.464 1.1157 2.91477 0
M  V30 6019 N 555.766 -1.3263 0.851289 0
M  V30 6020 C 556.991 -2.02097 0.466006 0
M  V30 6021 C 557.416 -1.63574 -0.928709 0
M  V30 6022 O 556.774 -0.834665 -1.60944 0
M  V30 6023 C 556.822 -3.55425 0.608737 0
M  V30 6024 O 555.926 -4.10827 -0.359878 0
M  V30 6025 H 555.267 -0.636911 0.187724 0
M  V30 6026 H 557.797 -1.69253 1.14955 0
M  V30 6027 H 557.807 -4.04986 0.495006 0
M  V30 6028 H 556.482 -3.82806 1.62581 0
M  V30 6029 H 555.059 -3.72349 -0.202666 0
M  V30 6030 N 557.244 -0.608902 -1.45362 0
M  V30 6031 C 558.521 -0.0365378 -1.95566 0
M  V30 6032 C 558.901 1.43169 -1.55131 0
M  V30 6033 O 558.249 2.1349 -0.814513 0
M  V30 6034 C 558.459 -0.236026 -3.48201 0
M  V30 6035 C 559.807 -0.117518 -4.24437 0
M  V30 6036 O 560.831 -0.166217 -3.55812 0
M  V30 6037 O 559.69 -0.00372127 -5.465 0
M  V30 6038 H 556.784 0.0349874 -0.82626 0
M  V30 6039 H 559.33 -0.679055 -1.55521 0
M  V30 6040 H 558.102 -1.25569 -3.70605 0
M  V30 6041 H 557.725 0.441691 -3.95139 0
M  V30 6042 N 558.722 1.53707 -0.348139 0
M  V30 6043 C 559.968 2.01286 0.247332 0
M  V30 6044 C 560.301 1.23546 1.49834 0
M  V30 6045 O 559.576 0.324331 1.91777 0
M  V30 6046 C 559.859 3.55768 0.556858 0
M  V30 6047 C 559.712 4.44216 -0.706564 0
M  V30 6048 C 561.031 4.1841 1.3646 0
M  V30 6049 H 558.15 0.731677 0.0884201 0
M  V30 6050 H 560.792 1.84106 -0.469584 0
M  V30 6051 H 558.942 3.70539 1.16761 0
M  V30 6052 H 560.614 4.41274 -1.34444 0
M  V30 6053 H 558.857 4.12892 -1.33052 0
M  V30 6054 H 559.528 5.50202 -0.445186 0
M  V30 6055 H 562.004 4.07365 0.848113 0
M  V30 6056 H 560.88 5.26563 1.54992 0
M  V30 6057 H 561.141 3.7333 2.36805 0
M  V30 6058 N 560.2 0.0768682 1.57412 0
M  V30 6059 C 561.611 -0.455037 1.8107 0
M  V30 6060 C 561.962 -1.69323 0.991162 0
M  V30 6061 O 561.087 -2.15328 0.215156 0
M  V30 6062 C 561.682 -0.832316 3.28417 0
M  V30 6063 C 560.241 -1.30906 3.52903 0
M  V30 6064 C 559.388 -0.296714 2.75708 0
M  V30 6065 H 562.339 0.302514 1.5579 0
M  V30 6066 H 562.36 -1.69333 3.40744 0
M  V30 6067 H 561.872 0.0690532 3.88039 0
M  V30 6068 H 559.973 -2.22875 2.98592 0
M  V30 6069 H 560.086 -1.28348 4.61588 0
M  V30 6070 H 558.45 -0.775059 2.42621 0
M  V30 6071 H 559.233 0.597015 3.38069 0
M  V30 6072 N 561.678 -1.56367 -0.196722 0
M  V30 6073 C 562.927 -1.79724 -0.915539 0
M  V30 6074 C 563.24 -0.649804 -1.84491 0
M  V30 6075 O 564.446 -0.767631 -2.60422 0
M  V30 6076 C 562.902 -3.18369 -1.67836 0
M  V30 6077 C 562.51 -4.4091 -0.793897 0
M  V30 6078 C 564.254 -3.51037 -2.38691 0
M  V30 6079 C 562.161 -5.70577 -1.55549 0
M  V30 6080 H 561.091 -0.67013 -0.345604 0
M  V30 6081 H 563.742 -1.82721 -0.168856 0
M  V30 6082 H 562.124 -3.09617 -2.46887 0
M  V30 6083 H 563.298 -4.60781 -0.042163 0
M  V30 6084 H 561.613 -4.15937 -0.19626 0
M  V30 6085 H 564.21 -4.4515 -2.96219 0
M  V30 6086 H 564.553 -2.74704 -3.12799 0
M  V30 6087 H 565.086 -3.61229 -1.66608 0
M  V30 6088 H 561.825 -6.49871 -0.857226 0
M  V30 6089 H 561.345 -5.54726 -2.2812 0
M  V30 6090 H 563.024 -6.11637 -2.10971 0
M  V30 6091 N 563.156 0.464375 -1.50603 0
M  V30 6092 C 564.572 0.798684 -1.38178 0
M  V30 6093 C 564.772 1.96568 -0.44308 0
M  V30 6094 O 563.828 2.52252 0.111814 0
M  V30 6095 C 565.141 1.10444 -2.79683 0
M  V30 6096 C 566.689 1.2105 -2.88645 0
M  V30 6097 C 567.164 1.54934 -4.30998 0
M  V30 6098 N 568.655 1.61913 -4.3398 0
M  V30 6099 C 569.39 1.8965 -5.41129 0
M  V30 6100 N 568.886 2.15361 -6.58477 0
M  V30 6101 N 570.679 1.91207 -5.28579 0
M  V30 6102 H 562.83 -0.304603 -2.10204 0
M  V30 6103 H 565.093 -0.0737804 -0.945125 0
M  V30 6104 H 564.799 0.319934 -3.50242 0
M  V30 6105 H 564.673 2.03896 -3.17342 0
M  V30 6106 H 567.06 1.98567 -2.18301 0
M  V30 6107 H 567.141 0.255613 -2.5452 0
M  V30 6108 H 566.785 0.779549 -5.01882 0
M  V30 6109 H 566.715 2.51584 -4.62615 0
M  V30 6110 H 569.206 1.44055 -3.49366 0
M  V30 6111 H 569.519 2.35818 -7.35941 0
M  V30 6112 H 567.864 2.1274 -6.6164 0
M  V30 6113 H 571.055 1.70622 -4.35897 0
M  V30 6114 H 571.228 2.12488 -6.12171 0
M  V30 6115 N 564.634 1.40294 0.718013 0
M  V30 6116 C 565.582 1.40536 1.85344 0
M  V30 6117 C 566.576 0.286192 1.66965 0
M  V30 6118 O 567.782 0.457105 1.74099 0
M  V30 6119 H 564.157 0.439236 0.61039 0
M  V30 6120 H 566.128 2.36275 1.82255 0
M  V30 6121 C 564.877 1.28245 3.23185 0
M  V30 6122 H 564.2 2.1364 3.37932 0
M  V30 6123 H 565.64 1.32474 4.02774 0
M  V30 6124 C 564.099 -0.0075503 3.36899 0
M  V30 6125 O 564.629 -0.971391 3.89778 0
M  V30 6126 N 562.835 -0.0762479 2.905 0
M  V30 6127 H 562.382 0.708819 2.47656 0
M  V30 6128 H 562.34 -0.938846 3.00055 0
M  V30 6129 N 566.112 -0.949982 1.2575 0
M  V30 6130 C 567.361 -1.68956 1.10168 0
M  V30 6131 C 567.674 -1.92327 -0.356309 0
M  V30 6132 O 568.88 -2.64026 -0.632657 0
M  V30 6133 C 567.336 -3.04196 1.92336 0
M  V30 6134 C 566.944 -2.88603 3.42655 0
M  V30 6135 C 568.688 -3.81904 1.85336 0
M  V30 6136 C 566.595 -4.19262 4.17101 0
M  V30 6137 H 565.525 -0.633645 0.408668 0
M  V30 6138 H 568.176 -1.05719 1.49986 0
M  V30 6139 H 566.558 -3.68363 1.45344 0
M  V30 6140 H 567.732 -2.3334 3.97353 0
M  V30 6141 H 566.047 -2.24345 3.50796 0
M  V30 6142 H 568.644 -4.78688 2.38248 0
M  V30 6143 H 568.987 -4.08099 0.822226 0
M  V30 6144 H 569.52 -3.24495 2.30104 0
M  V30 6145 H 566.259 -3.98254 5.20648 0
M  V30 6146 H 565.779 -4.74273 3.67186 0
M  V30 6147 H 567.458 -4.87775 4.25071 0
M  V30 6148 N 567.59 -1.07411 -1.15328 0
M  V30 6149 C 568.82 -0.817595 -1.89734 0
M  V30 6150 C 569.228 0.63297 -1.78298 0
M  V30 6151 O 568.571 1.44594 -1.13306 0
M  V30 6152 C 568.633 -1.14748 -3.40695 0
M  V30 6153 C 568.297 -2.59876 -3.75917 0
M  V30 6154 C 569.294 -3.58122 -3.76888 0
M  V30 6155 C 566.979 -2.95469 -4.06206 0
M  V30 6156 C 568.973 -4.89996 -4.07655 0
M  V30 6157 C 566.66 -4.2754 -4.36638 0
M  V30 6158 C 567.658 -5.24614 -4.37344 0
M  V30 6159 O 567.346 -6.54312 -4.67045 0
M  V30 6160 H 567.078 -0.295175 -0.608151 0
M  V30 6161 H 569.632 -1.43409 -1.47048 0
M  V30 6162 H 567.862 -0.47395 -3.83785 0
M  V30 6163 H 569.551 -0.873397 -3.96392 0
M  V30 6164 H 570.317 -3.31966 -3.53587 0
M  V30 6165 H 566.196 -2.20558 -4.04815 0
M  V30 6166 H 569.74 -5.65759 -4.08121 0
M  V30 6167 H 565.637 -4.53449 -4.59407 0
M  V30 6168 H 566.405 -6.59473 -4.84807 0
M  V30 6169 N 569.068 1.32177 -0.85831 0
M  V30 6170 C 570.016 2.30729 -0.294442 0
M  V30 6171 C 571.01 1.59009 0.584165 0
M  V30 6172 O 572.216 1.73713 0.471562 0
M  V30 6173 H 568.591 0.748097 -0.0765171 0
M  V30 6174 H 570.562 2.75774 -1.1398 0
M  V30 6175 C 569.311 3.44098 0.499208 0
M  V30 6176 H 568.634 3.99449 -0.167579 0
M  V30 6177 H 570.074 4.15202 0.859273 0
M  V30 6178 C 568.533 2.91684 1.68588 0
M  V30 6179 O 569.063 2.89481 2.78503 0
M  V30 6180 N 567.269 2.48036 1.51415 0
M  V30 6181 H 566.816 2.50027 0.620006 0
M  V30 6182 H 566.774 2.13322 2.30957 0
M  V30 6183 N 570.547 0.616602 1.45037 0
M  V30 6184 C 571.51 -0.0871112 2.29034 0
M  V30 6185 C 572.51 -0.786414 1.40258 0
M  V30 6186 O 573.7 -0.633207 1.62284 0
M  V30 6187 C 570.832 -1.13369 3.21497 0
M  V30 6188 H 572.025 0.651497 2.92738 0
M  V30 6189 H 569.578 0.376058 1.51709 0
M  V30 6190 H 570.313 -1.90277 2.62612 0
M  V30 6191 H 570.098 -0.636358 3.86902 0
M  V30 6192 H 571.588 -1.62627 3.84633 0
M  V30 6193 N 572.025 -1.5352 0.356285 0
M  V30 6194 C 572.988 -2.24071 -0.482182 0
M  V30 6195 C 573.988 -1.24531 -1.01729 0
M  V30 6196 O 575.178 -1.48876 -0.904513 0
M  V30 6197 C 572.31 -2.97025 -1.67299 0
M  V30 6198 H 573.503 -2.99596 0.135031 0
M  V30 6199 H 571.056 -1.55928 0.107825 0
M  V30 6200 H 571.791 -2.25719 -2.32855 0
M  V30 6201 H 571.576 -3.7005 -1.29636 0
M  V30 6202 H 573.066 -3.50683 -2.26741 0
M  V30 6203 N 573.503 -0.0852151 -1.57369 0
M  V30 6204 C 574.733 0.588605 -1.98038 0
M  V30 6205 C 575.141 1.62869 -0.962817 0
M  V30 6206 O 574.484 1.83611 0.057134 0
M  V30 6207 C 574.546 1.30303 -3.35054 0
M  V30 6208 C 574.21 0.414855 -4.55113 0
M  V30 6209 C 575.207 -0.333011 -5.18832 0
M  V30 6210 C 572.892 0.335804 -5.01176 0
M  V30 6211 C 574.886 -1.14801 -6.26976 0
M  V30 6212 C 572.573 -0.482857 -6.09189 0
M  V30 6213 C 573.571 -1.22342 -6.71953 0
M  V30 6214 O 573.259 -2.02855 -7.77885 0
M  V30 6215 H 572.991 0.163249 -0.655992 0
M  V30 6216 H 575.545 -0.1582 -2.0479 0
M  V30 6217 H 573.775 2.0962 -3.24956 0
M  V30 6218 H 575.464 1.87041 -3.60237 0
M  V30 6219 H 576.23 -0.281611 -4.84182 0
M  V30 6220 H 572.109 0.901869 -4.52092 0
M  V30 6221 H 575.653 -1.72654 -6.75897 0
M  V30 6222 H 571.55 -0.535773 -6.43273 0
M  V30 6223 H 572.318 -1.95432 -7.94826 0
M  V30 6224 N 574.981 1.5647 0.188427 0
M  V30 6225 C 576.206 1.85486 0.927891 0
M  V30 6226 C 576.631 0.669575 1.75779 0
M  V30 6227 O 575.989 -0.381573 1.77239 0
M  V30 6228 C 576.037 3.12784 1.7944 0
M  V30 6229 O 575.141 2.93805 2.894 0
M  V30 6230 H 574.482 0.610585 0.260925 0
M  V30 6231 H 577.012 2.037 0.191729 0
M  V30 6232 H 577.022 3.43749 2.19774 0
M  V30 6233 H 575.697 3.98671 1.18468 0
M  V30 6234 H 574.274 2.74153 2.52774 0
M  V30 6235 N 576.459 -0.456382 1.50847 0
M  V30 6236 C 577.389 -1.56025 1.73719 0
M  V30 6237 C 578.37 -1.5967 0.586473 0
M  V30 6238 O 579.555 -1.75702 0.827185 0
M  V30 6239 C 576.685 -2.94251 1.84483 0
M  V30 6240 C 575.639 -3.05471 2.99786 0
M  V30 6241 C 574.965 -4.45489 2.95709 0
M  V30 6242 C 576.265 -2.81318 4.40065 0
M  V30 6243 H 577.959 -1.37138 2.66146 0
M  V30 6244 H 575.505 -0.658299 1.28072 0
M  V30 6245 H 577.458 -3.71417 1.99067 0
M  V30 6246 H 576.182 -3.14328 0.886891 0
M  V30 6247 H 574.841 -2.30741 2.84876 0
M  V30 6248 H 574.489 -4.62505 1.97732 0
M  V30 6249 H 574.189 -4.53929 3.73125 0
M  V30 6250 H 575.713 -5.24655 3.12362 0
M  V30 6251 H 577.127 -3.48226 4.55425 0
M  V30 6252 H 575.524 -3.01188 5.19043 0
M  V30 6253 H 576.594 -1.7706 4.51418 0
M  V30 6254 N 577.937 -1.40673 -0.710563 0
M  V30 6255 C 578.869 -1.37256 -1.83558 0
M  V30 6256 C 579.882 -0.277133 -1.60424 0
M  V30 6257 O 581.071 -0.537831 -1.70205 0
M  V30 6258 C 578.171 -1.1144 -3.20054 0
M  V30 6259 C 577.344 -2.32734 -3.70342 0
M  V30 6260 C 576.403 -2.03002 -4.85465 0
M  V30 6261 O 575.429 -2.75912 -4.97857 0
M  V30 6262 N 576.631 -1.01105 -5.71627 0
M  V30 6263 H 579.396 -2.34215 -1.86985 0
M  V30 6264 H 576.957 -1.35091 -0.892301 0
M  V30 6265 H 578.949 -0.895265 -3.94673 0
M  V30 6266 H 577.519 -0.231307 -3.11743 0
M  V30 6267 H 576.739 -2.70446 -2.86798 0
M  V30 6268 H 578.027 -3.13584 -4.00678 0
M  V30 6269 H 577.425 -0.407303 -5.64232 0
M  V30 6270 H 575.982 -0.85182 -6.4621 0
M  V30 6271 N 579.415 0.9433 -1.26252 0
M  V30 6272 C 580.664 1.68369 -1.11062 0
M  V30 6273 C 580.977 1.92514 0.346104 0
M  V30 6274 O 582.183 2.64358 0.618646 0
M  V30 6275 C 580.639 3.03171 -1.93946 0
M  V30 6276 C 580.247 2.86782 -3.4418 0
M  V30 6277 C 581.991 3.80916 -1.87359 0
M  V30 6278 C 579.898 4.17044 -4.19319 0
M  V30 6279 H 578.828 0.631469 -0.412023 0
M  V30 6280 H 581.479 1.04922 -1.50544 0
M  V30 6281 H 579.861 3.67587 -1.47296 0
M  V30 6282 H 581.035 2.31229 -3.98585 0
M  V30 6283 H 579.35 2.22482 -3.51981 0
M  V30 6284 H 581.947 4.77417 -2.40784 0
M  V30 6285 H 582.29 4.07658 -0.843857 0
M  V30 6286 H 582.823 3.2327 -2.31821 0
M  V30 6287 H 579.562 3.95487 -5.22753 0
M  V30 6288 H 579.082 4.72319 -3.69696 0
M  V30 6289 H 580.761 4.85513 -4.27651 0
M  V30 6290 N 580.893 1.08022 1.14757 0
M  V30 6291 C 582.133 0.816959 1.87364 0
M  V30 6292 C 582.497 -0.645407 1.80827 0
M  V30 6293 O 583.698 -1.024 2.48531 0
M  V30 6294 C 581.969 1.31961 3.32146 0
M  V30 6295 S 583.528 1.18806 4.2241 0
M  V30 6296 H 580.346 0.295862 0.646519 0
M  V30 6297 H 582.948 1.3807 1.38408 0
M  V30 6298 H 581.652 2.37847 3.3445 0
M  V30 6299 H 581.183 0.751371 3.86158 0
M  V30 6300 H 583.198 0.129865 4.9603 0
M  V30 6301 N 582.371 -1.3172 0.865308 0
M  V30 6302 C 583.301 -2.31109 0.333302 0
M  V30 6303 C 584.282 -1.60148 -0.573301 0
M  V30 6304 O 585.467 -1.87882 -0.491305 0
M  V30 6305 C 582.597 -3.44104 -0.470078 0
M  V30 6306 C 581.551 -4.26623 0.343021 0
M  V30 6307 C 580.877 -5.31482 -0.585756 0
M  V30 6308 C 582.177 -4.98001 1.57456 0
M  V30 6309 H 583.871 -2.75855 1.1638 0
M  V30 6310 H 581.417 -1.3262 0.561069 0
M  V30 6311 H 583.37 -4.12682 -0.852752 0
M  V30 6312 H 582.094 -2.98112 -1.33404 0
M  V30 6313 H 580.753 -3.59707 0.707583 0
M  V30 6314 H 580.401 -4.81741 -1.44686 0
M  V30 6315 H 580.101 -5.87582 -0.0456494 0
M  V30 6316 H 581.625 -6.0292 -0.965375 0
M  V30 6317 H 583.039 -5.59201 1.26359 0
M  V30 6318 H 581.436 -5.63876 2.05339 0
M  V30 6319 H 582.506 -4.25253 2.32997 0
M  V30 6320 N 583.85 -0.624285 -1.44708 0
M  V30 6321 C 584.8 0.106466 -2.27751 0
M  V30 6322 C 585.784 0.822703 -1.38277 0
M  V30 6323 O 586.976 0.709939 -1.62138 0
M  V30 6324 C 584.105 1.092 -3.25469 0
M  V30 6325 C 583.191 0.375737 -4.22432 0
M  V30 6326 N 583.582 -0.591881 -5.02325 0
M  V30 6327 C 581.88 0.621093 -4.41654 0
M  V30 6328 C 582.581 -1.01443 -5.72786 0
M  V30 6329 N 581.557 -0.354651 -5.42442 0
M  V30 6330 H 585.359 -0.636464 -2.86926 0
M  V30 6331 H 582.873 -0.44925 -1.56062 0
M  V30 6332 H 584.87 1.63006 -3.83712 0
M  V30 6333 H 583.529 1.8353 -2.67856 0
M  V30 6334 H 584.541 -0.969389 -5.08747 0
M  V30 6335 H 581.218 1.34779 -3.95147 0
M  V30 6336 H 582.608 -1.81345 -6.46965 0
M  V30 6337 N 585.328 1.53329 -0.364422 0
M  V30 6338 C 586.553 2.06132 0.229033 0
M  V30 6339 C 586.978 1.23625 1.41769 0
M  V30 6340 O 586.336 0.255038 1.79497 0
M  V30 6341 C 586.384 3.55544 0.60174 0
M  V30 6342 O 585.488 3.75771 1.69912 0
M  V30 6343 H 584.829 0.663148 0.0336213 0
M  V30 6344 H 587.359 1.97758 -0.524689 0
M  V30 6345 H 587.369 3.98549 0.873073 0
M  V30 6346 H 586.044 4.15039 -0.267421 0
M  V30 6347 H 584.621 3.44663 1.42343 0
M  V30 6348 N 586.806 0.0935595 1.57322 0
M  V30 6349 C 588.046 -0.573901 1.96178 0
M  V30 6350 C 588.41 -1.65445 0.97426 0
M  V30 6351 O 589.611 -2.37901 1.25126 0
M  V30 6352 C 587.882 -1.11612 3.39526 0
M  V30 6353 S 589.441 -1.79566 4.00377 0
M  V30 6354 H 586.259 -0.187315 0.685882 0
M  V30 6355 H 588.861 0.172597 1.94737 0
M  V30 6356 H 587.565 -0.31815 4.09165 0
M  V30 6357 H 587.096 -1.89848 3.4456 0
M  V30 6358 H 589.111 -3.07978 3.89056 0
M  V30 6359 N 588.284 -1.56567 -0.180126 0
M  V30 6360 C 589.531 -1.81492 -0.898167 0
M  V30 6361 C 589.859 -0.669225 -1.82624 0
M  V30 6362 O 589.114 0.344096 -1.92651 0
M  V30 6363 C 589.413 -3.1252 -1.73395 0
M  V30 6364 C 589.079 -4.40658 -0.955567 0
M  V30 6365 C 587.741 -4.75465 -0.740707 0
M  V30 6366 C 590.093 -5.19593 -0.408948 0
M  V30 6367 C 587.421 -5.86691 0.0320128 0
M  V30 6368 C 589.773 -6.31627 0.350638 0
M  V30 6369 C 588.437 -6.65007 0.576378 0
M  V30 6370 H 587.707 -0.664125 -0.328662 0
M  V30 6371 H 590.354 -1.908 -0.163616 0
M  V30 6372 H 588.659 -2.98515 -2.53763 0
M  V30 6373 H 590.356 -3.29013 -2.29241 0
M  V30 6374 H 586.946 -4.13352 -1.13306 0
M  V30 6375 H 591.13 -4.93104 -0.562307 0
M  V30 6376 H 586.386 -6.11016 0.216735 0
M  V30 6377 H 590.56 -6.92001 0.781497 0
M  V30 6378 H 588.187 -7.51033 1.17703 0
M  V30 6379 N 589.762 0.448376 -1.51087 0
M  V30 6380 C 590.694 1.56146 -1.67783 0
M  V30 6381 C 591.707 1.52913 -0.55871 0
M  V30 6382 O 592.896 1.57889 -0.83267 0
M  V30 6383 C 589.996 2.95057 -1.66716 0
M  V30 6384 C 589.169 3.22915 -2.95033 0
M  V30 6385 C 588.228 4.41495 -2.86302 0
M  V30 6386 O 587.254 4.40688 -3.60254 0
M  V30 6387 N 588.456 5.44443 -2.014 0
M  V30 6388 H 591.221 1.42232 -2.638 0
M  V30 6389 H 588.782 0.637153 -1.48835 0
M  V30 6390 H 590.774 3.72388 -1.58458 0
M  V30 6391 H 589.344 3.02624 -0.783403 0
M  V30 6392 H 588.564 2.33985 -3.17245 0
M  V30 6393 H 589.852 3.38349 -3.79996 0
M  V30 6394 H 589.25 5.4793 -1.40674 0
M  V30 6395 H 587.807 6.2067 -1.99029 0
M  V30 6396 N 591.24 1.41047 0.703093 0
M  V30 6397 C 592.468 1.4334 1.49202 0
M  V30 6398 C 592.883 0.0365596 1.88765 0
M  V30 6399 O 592.24 -0.942419 1.56284 0
M  V30 6400 C 592.291 2.33538 2.75939 0
M  V30 6401 O 592.012 3.67786 2.38045 0
M  V30 6402 C 593.513 2.44555 3.6974 0
M  V30 6403 H 590.733 0.488472 0.460039 0
M  V30 6404 H 593.277 1.85245 0.86629 0
M  V30 6405 H 591.432 1.94962 3.34766 0
M  V30 6406 H 591.846 4.15816 3.19683 0
M  V30 6407 H 593.32 3.11849 4.55471 0
M  V30 6408 H 593.797 1.47447 4.1371 0
M  V30 6409 H 594.403 2.83735 3.16819 0
M  V30 6410 N 592.718 -0.936591 1.26751 0
M  V30 6411 C 593.665 -2.03597 1.08706 0
M  V30 6412 C 594.635 -1.66097 -0.00926542 0
M  V30 6413 O 595.82 -1.90199 0.151377 0
M  V30 6414 C 592.96 -3.3727 0.73094 0
M  V30 6415 C 592.073 -3.87778 1.90399 0
M  V30 6416 C 591.208 -5.09859 1.49056 0
M  V30 6417 C 590.247 -5.5264 2.63164 0
M  V30 6418 N 589.384 -6.65921 2.22471 0
M  V30 6419 H 594.224 -2.18364 2.02784 0
M  V30 6420 H 591.761 -1.06985 1.00958 0
M  V30 6421 H 593.719 -4.14128 0.505328 0
M  V30 6422 H 592.349 -3.22337 -0.172868 0
M  V30 6423 H 591.401 -3.07279 2.2424 0
M  V30 6424 H 592.713 -4.15464 2.76028 0
M  V30 6425 H 591.867 -5.9419 1.22567 0
M  V30 6426 H 590.606 -4.8393 0.60524 0
M  V30 6427 H 589.611 -4.66863 2.90377 0
M  V30 6428 H 590.836 -5.80568 3.52303 0
M  V30 6429 H 588.782 -6.41667 1.36379 0
M  V30 6430 H 588.699 -6.93216 3.01641 0
M  V30 6431 H 589.967 -7.53616 1.99205 0
M  V30 6432 N 594.196 -1.08629 -1.14182 0
M  V30 6433 C 595.129 -0.662329 -2.18377 0
M  V30 6434 C 596.107 0.327054 -1.59277 0
M  V30 6435 O 597.291 0.230376 -1.87087 0
M  V30 6436 C 594.418 0.0254765 -3.3869 0
M  V30 6437 C 593.464 -0.924414 -4.16361 0
M  V30 6438 S 594.297 -2.43226 -4.77076 0
M  V30 6439 C 595.453 -1.75663 -6.00744 0
M  V30 6440 H 595.686 -1.54501 -2.54001 0
M  V30 6441 H 593.219 -0.901484 -1.2535 0
M  V30 6442 H 595.177 0.416032 -4.08386 0
M  V30 6443 H 593.838 0.884689 -3.01384 0
M  V30 6444 H 593.031 -0.390099 -5.02488 0
M  V30 6445 H 592.633 -1.25598 -3.5228 0
M  V30 6446 H 594.925 -1.07589 -6.68903 0
M  V30 6447 H 595.868 -2.59673 -6.58768 0
M  V30 6448 H 596.276 -1.22903 -5.50958 0
M  V30 6449 N 595.674 1.31259 -0.872281 0
M  V30 6450 C 596.92 1.96913 -0.485083 0
M  V30 6451 C 597.253 1.68774 0.960667 0
M  V30 6452 O 596.528 0.985495 1.67685 0
M  V30 6453 C 596.811 3.52299 -0.745502 0
M  V30 6454 C 596.664 3.90002 -2.24095 0
M  V30 6455 C 597.983 4.39582 -0.213516 0
M  V30 6456 H 595.102 0.715252 -0.177716 0
M  V30 6457 H 597.744 1.55347 -1.09395 0
M  V30 6458 H 595.894 3.87835 -0.227276 0
M  V30 6459 H 597.566 3.64555 -2.82661 0
M  V30 6460 H 595.809 3.38526 -2.71261 0
M  V30 6461 H 596.48 4.98352 -2.37381 0
M  V30 6462 H 598.956 4.10882 -0.656902 0
M  V30 6463 H 597.832 5.47251 -0.42516 0
M  V30 6464 H 598.093 4.33158 0.884666 0
M  V30 6465 N 597.152 0.631951 1.44375 0
M  V30 6466 C 598.062 -0.073674 2.34484 0
M  V30 6467 C 599.078 -0.834825 1.52665 0
M  V30 6468 O 600.254 -0.786902 1.85391 0
M  V30 6469 C 597.319 -1.04247 3.30656 0
M  V30 6470 C 596.38 -0.280602 4.28382 0
M  V30 6471 C 595.613 -1.20325 5.19959 0
M  V30 6472 O 595.836 -2.44199 5.15484 0
M  V30 6473 O 594.77 -0.687128 5.97965 0
M  V30 6474 H 598.596 0.667477 2.96274 0
M  V30 6475 H 596.181 0.392144 1.44162 0
M  V30 6476 H 598.063 -1.59981 3.89851 0
M  V30 6477 H 596.738 -1.76422 2.71398 0
M  V30 6478 H 595.645 0.319804 3.72731 0
M  V30 6479 H 596.978 0.401144 4.90563 0
M  V30 6480 N 598.631 -1.53133 0.372548 0
M  V30 6481 C 599.578 -2.25951 -0.470631 0
M  V30 6482 C 600.548 -1.26895 -1.07176 0
M  V30 6483 O 601.733 -1.55691 -1.10294 0
M  V30 6484 C 598.873 -3.05726 -1.6008 0
M  V30 6485 C 597.986 -4.19684 -1.02416 0
M  V30 6486 C 597.121 -4.86888 -2.124 0
M  V30 6487 C 596.16 -5.92866 -1.52238 0
M  V30 6488 N 595.297 -6.53732 -2.56084 0
M  V30 6489 H 600.137 -2.97587 0.156816 0
M  V30 6490 H 597.674 -1.4683 0.0891571 0
M  V30 6491 H 599.632 -3.50258 -2.26661 0
M  V30 6492 H 598.262 -2.36331 -2.1988 0
M  V30 6493 H 597.314 -3.79588 -0.248426 0
M  V30 6494 H 598.626 -4.95821 -0.544366 0
M  V30 6495 H 597.78 -5.34638 -2.86787 0
M  V30 6496 H 596.519 -4.10239 -2.63734 0
M  V30 6497 H 595.524 -5.4447 -0.763685 0
M  V30 6498 H 596.749 -6.71439 -1.0172 0
M  V30 6499 H 594.695 -5.79932 -3.06618 0
M  V30 6500 H 594.612 -7.25429 -2.12811 0
M  V30 6501 H 595.88 -7.0613 -3.30152 0
M  V30 6502 N 600.109 -0.101901 -1.5727 0
M  V30 6503 C 601.349 0.563489 -1.96479 0
M  V30 6504 C 601.713 1.64926 -0.983021 0
M  V30 6505 O 602.914 2.37234 -1.26386 0
M  V30 6506 C 601.185 1.09809 -3.40113 0
M  V30 6507 S 602.744 1.7744 -4.01323 0
M  V30 6508 H 599.562 0.183675 -0.686866 0
M  V30 6509 H 602.164 -0.182922 -1.94642 0
M  V30 6510 H 600.868 0.296447 -4.09328 0
M  V30 6511 H 600.399 1.88018 -3.45562 0
M  V30 6512 H 602.414 3.0591 -3.90683 0
M  V30 6513 N 601.587 1.56661 0.17182 0
M  V30 6514 C 602.835 1.81606 0.886774 0
M  V30 6515 C 603.156 0.678818 1.82803 0
M  V30 6516 O 602.426 -0.301354 1.93568 0
M  V30 6517 H 601.006 0.669934 0.330451 0
M  V30 6518 H 603.668 1.94142 0.171757 0
M  V30 6519 H 602.764 2.75634 1.46398 0
M  V30 6520 N 603.065 -0.440357 1.51323 0
M  V30 6521 C 604.305 -1.19956 1.65499 0
M  V30 6522 C 604.669 -1.88559 0.361878 0
M  V30 6523 O 605.87 -2.66109 0.379383 0
M  V30 6524 C 604.141 -2.1918 2.82303 0
M  V30 6525 S 605.7 -3.03627 3.1679 0
M  V30 6526 H 602.518 -0.406833 0.583102 0
M  V30 6527 H 605.12 -0.491596 1.89218 0
M  V30 6528 H 603.824 -1.67414 3.74701 0
M  V30 6529 H 603.355 -2.94561 2.60763 0
M  V30 6530 H 605.37 -4.20773 2.62991 0
M  V30 6531 N 604.543 -1.41418 -0.695603 0
M  V30 6532 C 605.506 -1.42988 -1.79129 0
M  V30 6533 C 606.506 -0.320514 -1.57573 0
M  V30 6534 O 607.696 -0.58039 -1.64247 0
M  V30 6535 C 604.828 -1.24122 -3.175 0
M  V30 6536 H 606.021 -2.40526 -1.7913 0
M  V30 6537 H 603.574 -1.2756 -0.903225 0
M  V30 6538 H 604.309 -0.274253 -3.23138 0
M  V30 6539 H 604.094 -2.045 -3.34547 0
M  V30 6540 H 605.584 -1.28056 -3.97481 0
M  V30 6541 N 606.021 0.929856 -1.27246 0
M  V30 6542 C 606.953 2.03434 -1.0558 0
M  V30 6543 C 607.966 1.62795 -0.0125762 0
M  V30 6544 O 609.155 1.76685 -0.2539 0
M  V30 6545 C 606.255 3.33915 -0.57912 0
M  V30 6546 C 605.428 4.03259 -1.69415 0
M  V30 6547 C 604.487 5.12014 -1.21357 0
M  V30 6548 O 603.513 5.36097 -1.91282 0
M  V30 6549 N 604.715 5.8046 -0.0680622 0
M  V30 6550 H 607.48 2.22583 -2.00691 0
M  V30 6551 H 605.041 1.1001 -1.18783 0
M  V30 6552 H 607.033 4.03978 -0.241563 0
M  V30 6553 H 605.603 3.11355 0.278703 0
M  V30 6554 H 604.823 3.26958 -2.20209 0
M  V30 6555 H 606.111 4.46337 -2.44255 0
M  V30 6556 H 605.509 5.63345 0.515626 0
M  V30 6557 H 604.066 6.51461 0.210332 0
M  V30 6558 N 607.499 1.09233 1.13605 0
M  V30 6559 C 608.729 0.847677 1.88409 0
M  V30 6560 C 609.137 -0.604524 1.79282 0
M  V30 6561 O 608.48 -1.42773 1.15592 0
M  V30 6562 C 608.542 1.20153 3.38827 0
M  V30 6563 C 608.206 2.65824 3.71735 0
M  V30 6564 C 609.203 3.64072 3.71143 0
M  V30 6565 C 606.888 3.01894 4.01454 0
M  V30 6566 C 608.882 4.96419 3.99808 0
M  V30 6567 C 606.569 4.34433 4.29781 0
M  V30 6568 C 607.567 5.31505 4.28942 0
M  V30 6569 O 607.255 6.61659 4.56576 0
M  V30 6570 H 606.987 0.304813 0.603378 0
M  V30 6571 H 609.541 1.4573 1.44748 0
M  V30 6572 H 607.771 0.534946 3.82982 0
M  V30 6573 H 609.46 0.936349 3.94952 0
M  V30 6574 H 610.226 3.37549 3.4826 0
M  V30 6575 H 606.105 2.26971 4.01255 0
M  V30 6576 H 609.649 5.7218 3.99069 0
M  V30 6577 H 605.546 4.607 4.52135 0
M  V30 6578 H 606.314 6.67102 4.74254 0
M  V30 6579 N 608.977 -1.30795 0.87923 0
M  V30 6580 C 610.202 -2.01063 0.508769 0
M  V30 6581 C 610.627 -1.65508 -0.893803 0
M  V30 6582 O 609.985 -0.868616 -1.59138 0
M  V30 6583 C 610.033 -3.54054 0.683991 0
M  V30 6584 O 609.137 -4.11498 -0.272654 0
M  V30 6585 H 608.478 -0.632786 0.201191 0
M  V30 6586 H 611.008 -1.66776 1.18519 0
M  V30 6587 H 611.018 -4.03845 0.580798 0
M  V30 6588 H 609.693 -3.79271 1.70665 0
M  V30 6589 H 608.27 -3.72695 -0.12364 0
M  V30 6590 N 610.455 -0.639598 -1.44038 0
M  V30 6591 C 611.387 0.0987684 -2.28987 0
M  V30 6592 C 612.4 0.80058 -1.41755 0
M  V30 6593 O 613.589 0.660611 -1.65826 0
M  V30 6594 C 610.689 1.16242 -3.18341 0
M  V30 6595 C 609.862 0.541447 -4.34036 0
M  V30 6596 C 608.921 1.50017 -5.04362 0
M  V30 6597 O 607.947 1.01403 -5.60095 0
M  V30 6598 N 609.149 2.83441 -5.06598 0
M  V30 6599 H 611.914 -0.630305 -2.92997 0
M  V30 6600 H 609.475 -0.481376 -1.54578 0
M  V30 6601 H 611.467 1.80429 -3.62253 0
M  V30 6602 H 610.037 1.79362 -2.56024 0
M  V30 6603 H 609.257 -0.27923 -3.9321 0
M  V30 6604 H 610.545 0.107379 -5.08687 0
M  V30 6605 H 609.943 3.2551 -4.62666 0
M  V30 6606 H 608.5 3.42966 -5.54272 0
M  V30 6607 N 611.933 1.52934 -0.380664 0
M  V30 6608 C 613.344 1.86457 0.0952684 0
M  V30 6609 C 613.695 1.3007 1.46889 0
M  V30 6610 O 612.82 0.628636 2.07068 0
M  V30 6611 C 613.415 3.38323 0.179648 0
M  V30 6612 C 611.974 3.71589 0.599858 0
M  V30 6613 C 611.121 2.76228 -0.243572 0
M  V30 6614 H 614.072 1.46966 -0.59888 0
M  V30 6615 H 614.093 3.67113 1.00042 0
M  V30 6616 H 613.605 3.79333 -0.820228 0
M  V30 6617 H 611.706 3.36144 1.60742 0
M  V30 6618 H 611.819 4.77715 0.364003 0
M  V30 6619 H 610.183 2.53045 0.289855 0
M  V30 6620 H 610.966 3.20074 -1.24127 0
M  V30 6621 N 613.412 0.11024 1.57214 0
M  V30 6622 C 614.342 -0.840002 2.17867 0
M  V30 6623 C 615.323 -1.28352 1.11624 0
M  V30 6624 O 616.508 -1.3477 1.39824 0
M  V30 6625 C 613.638 -2.09349 2.77111 0
M  V30 6626 C 612.592 -1.78807 3.8886 0
M  V30 6627 C 611.918 -3.11112 4.34872 0
M  V30 6628 C 613.218 -1.0632 5.11364 0
M  V30 6629 H 614.912 -0.334608 2.97524 0
M  V30 6630 H 612.458 -0.159502 1.43114 0
M  V30 6631 H 614.411 -2.76275 3.18198 0
M  V30 6632 H 613.135 -2.62198 1.9473 0
M  V30 6633 H 611.794 -1.14273 3.48335 0
M  V30 6634 H 611.442 -3.61877 3.49362 0
M  V30 6635 H 611.142 -2.91453 5.10224 0
M  V30 6636 H 612.666 -3.79171 4.78604 0
M  V30 6637 H 614.08 -1.63383 5.49526 0
M  V30 6638 H 612.477 -0.967876 5.92243 0
M  V30 6639 H 613.547 -0.0484569 4.84876 0
M  V30 6640 N 614.89 -1.56749 -0.16351 0
M  V30 6641 C 616.301 -1.72039 -0.725216 0
M  V30 6642 C 616.652 -0.72202 -1.82432 0
M  V30 6643 O 615.777 0.114942 -2.16095 0
M  V30 6644 C 616.372 -3.11932 -1.32227 0
M  V30 6645 C 614.931 -3.28879 -1.83072 0
M  V30 6646 C 614.078 -2.67984 -0.712716 0
M  V30 6647 H 617.029 -1.58579 0.0619772 0
M  V30 6648 H 617.05 -3.11015 -2.19202 0
M  V30 6649 H 616.562 -3.84572 -0.522103 0
M  V30 6650 H 614.663 -2.61209 -2.65708 0
M  V30 6651 H 614.776 -4.36688 -1.97079 0
M  V30 6652 H 613.14 -2.28005 -1.13515 0
M  V30 6653 H 613.923 -3.43216 0.0757361 0
M  V30 6654 N 616.368 0.432326 -1.51554 0
M  V30 6655 C 617.779 1.01202 -1.56892 0
M  V30 6656 C 618.13 1.92175 -0.395394 0
M  V30 6657 O 617.255 2.10844 0.487198 0
M  V30 6658 C 617.85 1.84217 -2.8434 0
M  V30 6659 C 616.409 2.37228 -2.92233 0
M  V30 6660 C 615.556 1.16576 -2.51606 0
M  V30 6661 H 618.507 0.213407 -1.57259 0
M  V30 6662 H 618.528 2.69721 -2.68385 0
M  V30 6663 H 618.04 1.17979 -3.69733 0
M  V30 6664 H 616.141 3.06905 -2.11282 0
M  V30 6665 H 616.254 2.69682 -3.95991 0
M  V30 6666 H 614.618 1.51263 -2.04919 0
M  V30 6667 H 615.401 0.519404 -3.39348 0
M  V30 6668 N 617.846 1.41785 0.688094 0
M  V30 6669 C 618.809 1.43936 1.78368 0
M  V30 6670 C 619.809 0.328866 1.57401 0
M  V30 6671 O 620.999 0.589093 1.63937 0
M  V30 6672 C 618.131 1.25804 3.16838 0
M  V30 6673 H 619.324 2.41472 1.77852 0
M  V30 6674 H 616.877 1.28037 0.896448 0
M  V30 6675 H 617.612 0.291386 3.22988 0
M  V30 6676 H 617.397 2.06272 3.33458 0
M  V30 6677 H 618.887 1.30162 3.96797 0
M  V30 6678 N 619.324 -0.923095 1.27737 0
M  V30 6679 C 620.287 -2.00587 1.10894 0
M  V30 6680 C 621.287 -1.60718 0.0514927 0
M  V30 6681 O 622.477 -1.71658 0.296481 0
M  V30 6682 C 619.609 -3.33829 0.690717 0
M  V30 6683 H 620.802 -2.16959 2.07048 0
M  V30 6684 H 618.355 -1.10451 1.1059 0
M  V30 6685 H 619.09 -3.23157 -0.272 0
M  V30 6686 H 618.875 -3.64125 1.45448 0
M  V30 6687 H 620.365 -4.13336 0.595252 0
M  V30 6688 N 620.802 -1.09834 -1.13024 0
M  V30 6689 C 621.75 -0.736283 -2.20639 0
M  V30 6690 C 622.744 0.264725 -1.67319 0
M  V30 6691 O 623.95 0.125745 -1.7956 0
M  V30 6692 H 620.325 -0.220136 -0.719058 0
M  V30 6693 H 622.296 -1.65295 -2.48436 0
M  V30 6694 C 621.045 -0.177544 -3.47246 0
M  V30 6695 H 620.368 -0.939009 -3.88616 0
M  V30 6696 H 621.808 0.0378007 -4.23983 0
M  V30 6697 C 620.267 1.08824 -3.1884 0
M  V30 6698 O 620.797 2.1708 -3.37993 0
M  V30 6699 N 619.003 1.00442 -2.7269 0
M  V30 6700 H 618.55 0.123383 -2.57304 0
M  V30 6701 H 618.508 1.85206 -2.5406 0
M  V30 6702 N 622.28 1.30327 -0.886154 0
M  V30 6703 C 623.51 1.99964 -0.519421 0
M  V30 6704 C 623.918 1.66593 0.89686 0
M  V30 6705 O 623.261 0.899886 1.60149 0
M  V30 6706 C 623.323 3.54187 -0.615795 0
M  V30 6707 C 622.987 4.11078 -1.9966 0
M  V30 6708 C 623.984 4.26985 -2.96614 0
M  V30 6709 C 621.669 4.46429 -2.30231 0
M  V30 6710 C 623.663 4.77456 -4.22273 0
M  V30 6711 C 621.35 4.966 -3.56135 0
M  V30 6712 C 622.348 5.12066 -4.5197 0
M  V30 6713 O 622.036 5.61154 -5.7564 0
M  V30 6714 H 621.768 0.645979 -0.199217 0
M  V30 6715 H 624.322 1.67154 -1.19368 0
M  V30 6716 H 622.552 3.86528 0.115448 0
M  V30 6717 H 624.241 4.05065 -0.26017 0
M  V30 6718 H 625.007 3.99975 -2.74308 0
M  V30 6719 H 620.886 4.33658 -1.56404 0
M  V30 6720 H 624.43 4.89444 -4.97082 0
M  V30 6721 H 620.327 5.23045 -3.78277 0
M  V30 6722 H 621.095 5.79494 -5.78039 0
M  V30 6723 N 623.758 0.647228 1.43697 0
M  V30 6724 C 624.998 0.16171 2.03759 0
M  V30 6725 C 625.362 -1.19951 1.49919 0
M  V30 6726 O 626.563 -1.77808 2.01588 0
M  V30 6727 C 624.834 0.16505 3.57019 0
M  V30 6728 S 626.393 -0.253497 4.38067 0
M  V30 6729 H 623.211 0.0689985 0.707644 0
M  V30 6730 H 625.813 0.854224 1.7585 0
M  V30 6731 H 624.517 1.15858 3.93707 0
M  V30 6732 H 624.048 -0.548194 3.89562 0
M  V30 6733 H 626.063 -1.49385 4.73179 0
M  V30 6734 N 625.236 -1.5273 0.388769 0
M  V30 6735 C 626.184 -2.27975 -0.461527 0
M  V30 6736 C 627.178 -1.31854 -1.06352 0
M  V30 6737 O 628.384 -1.49394 -1.00406 0
M  V30 6738 H 624.759 -0.733088 -0.16759 0
M  V30 6739 H 626.73 -2.97765 0.194579 0
M  V30 6740 C 625.479 -3.09881 -1.577 0
M  V30 6741 H 624.802 -3.83701 -1.12309 0
M  V30 6742 H 626.242 -3.6567 -2.14619 0
M  V30 6743 C 624.701 -2.22159 -2.53272 0
M  V30 6744 O 625.231 -1.84802 -3.56667 0
M  V30 6745 N 623.437 -1.8633 -2.23001 0
M  V30 6746 H 622.984 -2.16909 -1.38954 0
M  V30 6747 H 622.942 -1.27927 -2.87197 0
M  V30 6748 N 626.714 -0.118576 -1.57153 0
M  V30 6749 C 627.944 0.546466 -1.99242 0
M  V30 6750 C 628.352 1.60791 -0.997148 0
M  V30 6751 O 627.695 1.83691 0.0181745 0
M  V30 6752 C 627.757 1.23167 -3.37743 0
M  V30 6753 C 627.421 0.318226 -4.55891 0
M  V30 6754 C 628.418 -0.442988 -5.18009 0
M  V30 6755 C 626.103 0.229421 -5.01776 0
M  V30 6756 C 628.097 -1.28074 -6.244 0
M  V30 6757 C 625.784 -0.611966 -6.08028 0
M  V30 6758 C 626.782 -1.36568 -6.69207 0
M  V30 6759 O 626.47 -2.1931 -7.73407 0
M  V30 6760 H 626.202 0.149297 -0.659307 0
M  V30 6761 H 628.756 -0.201603 -2.04408 0
M  V30 6762 H 626.986 2.0268 -3.29329 0
M  V30 6763 H 628.675 1.79358 -3.64123 0
M  V30 6764 H 629.441 -0.38425 -4.83475 0
M  V30 6765 H 625.32 0.805771 -4.53903 0
M  V30 6766 H 628.864 -1.86952 -6.72082 0
M  V30 6767 H 624.761 -0.6721 -6.41991 0
M  V30 6768 H 625.529 -2.12247 -7.90502 0
M  V30 6769 N 628.193 1.56834 0.155195 0
M  V30 6770 C 629.125 1.94235 1.21677 0
M  V30 6771 C 630.138 0.83724 1.39621 0
M  V30 6772 O 631.327 1.11567 1.39338 0
M  V30 6773 C 628.427 2.19402 2.58294 0
M  V30 6774 C 627.6 3.50671 2.61436 0
M  V30 6775 C 626.659 3.64475 3.79532 0
M  V30 6776 O 625.685 4.36945 3.64784 0
M  V30 6777 N 626.887 3.00526 4.96653 0
M  V30 6778 H 629.652 2.85901 0.898932 0
M  V30 6779 H 627.213 1.58185 0.34483 0
M  V30 6780 H 629.205 2.25886 3.35794 0
M  V30 6781 H 627.775 1.34042 2.82403 0
M  V30 6782 H 626.995 3.55702 1.69912 0
M  V30 6783 H 628.283 4.3702 2.60559 0
M  V30 6784 H 627.681 2.41549 5.11538 0
M  V30 6785 H 626.238 3.12583 5.71958 0
M  V30 6786 N 629.671 -0.424282 1.51781 0
M  V30 6787 C 630.603 -1.53457 1.70246 0
M  V30 6788 C 631.616 -1.52004 0.582967 0
M  V30 6789 O 632.805 -1.56544 0.857683 0
M  V30 6790 C 629.905 -2.92368 1.71389 0
M  V30 6791 C 629.078 -3.1818 3.00133 0
M  V30 6792 C 628.137 -4.36884 2.9329 0
M  V30 6793 O 627.163 -4.34901 3.67219 0
M  V30 6794 N 628.365 -5.4117 2.10036 0
M  V30 6795 H 631.13 -1.38017 2.66029 0
M  V30 6796 H 628.691 -0.613394 1.4983 0
M  V30 6797 H 630.683 -3.6982 1.64362 0
M  V30 6798 H 629.253 -3.0134 0.831449 0
M  V30 6799 H 628.473 -2.28908 3.20928 0
M  V30 6800 H 629.761 -3.32261 3.85331 0
M  V30 6801 H 629.159 -5.45623 1.49373 0
M  V30 6802 H 627.716 -6.17425 2.08878 0
M  V30 6803 N 631.149 -1.42148 -0.680565 0
M  V30 6804 C 632.099 -1.41634 -1.78672 0
M  V30 6805 C 633.083 -0.288494 -1.58293 0
M  V30 6806 O 634.275 -0.530295 -1.68869 0
M  V30 6807 C 631.404 -1.31558 -3.17092 0
M  V30 6808 C 630.49 -2.49265 -3.43115 0
M  V30 6809 N 630.881 -3.74702 -3.39753 0
M  V30 6810 C 629.179 -2.43401 -3.73727 0
M  V30 6811 C 629.88 -4.52854 -3.651 0
M  V30 6812 N 628.856 -3.83181 -3.85582 0
M  V30 6813 H 632.658 -2.3652 -1.74458 0
M  V30 6814 H 630.172 -1.36415 -0.881171 0
M  V30 6815 H 632.169 -1.29272 -3.96351 0
M  V30 6816 H 630.829 -0.376696 -3.22508 0
M  V30 6817 H 631.84 -4.07378 -3.19787 0
M  V30 6818 H 628.517 -1.58062 -3.86423 0
M  V30 6819 H 629.907 -5.61827 -3.6851 0
M  V30 6820 N 632.627 0.916307 -1.28225 0
M  V30 6821 C 634.038 1.48024 -1.13779 0
M  V30 6822 C 634.389 1.94289 0.273139 0
M  V30 6823 O 633.514 1.82226 1.16716 0
M  V30 6824 C 634.109 2.69029 -2.05935 0
M  V30 6825 C 632.668 3.2161 -1.95561 0
M  V30 6826 C 631.815 1.94321 -1.97825 0
M  V30 6827 H 634.766 0.729272 -1.40951 0
M  V30 6828 H 634.787 3.44204 -1.62184 0
M  V30 6829 H 634.299 2.35325 -3.08616 0
M  V30 6830 H 632.4 3.60045 -0.959076 0
M  V30 6831 H 632.513 3.87032 -2.82388 0
M  V30 6832 H 630.877 2.1131 -1.42198 0
M  V30 6833 H 631.66 1.62917 -3.0218 0
M  V30 6834 N 634.105 1.10431 1.1244 0
M  V30 6835 C 635.053 0.747974 2.20246 0
M  V30 6836 C 636.047 -0.255848 1.67457 0
M  V30 6837 O 637.253 -0.116221 1.79624 0
M  V30 6838 H 633.628 0.223946 0.71788 0
M  V30 6839 H 635.599 1.6661 2.47556 0
M  V30 6840 C 634.348 0.195957 3.47147 0
M  V30 6841 H 633.671 0.959606 3.88113 0
M  V30 6842 H 635.111 -0.0153154 4.23997 0
M  V30 6843 C 633.57 -1.07132 3.19413 0
M  V30 6844 O 634.1 -2.15284 3.3914 0
M  V30 6845 N 632.306 -0.98994 2.73219 0
M  V30 6846 H 631.853 -0.109736 2.57366 0
M  V30 6847 H 631.811 -1.83856 2.55038 0
M  V30 6848 N 635.583 -1.29855 0.893053 0
M  V30 6849 C 636.829 -1.96488 0.52574 0
M  V30 6850 C 637.184 -1.69164 -0.916594 0
M  V30 6851 O 636.477 -0.990405 -1.64017 0
M  V30 6852 C 636.671 -3.49515 0.746588 0
M  V30 6853 C 636.5 -3.91715 2.20884 0
M  V30 6854 C 635.27 -4.16915 2.85499 0
M  V30 6855 C 637.468 -4.03934 3.18342 0
M  V30 6856 N 635.45 -4.45634 4.22236 0
M  V30 6857 C 636.821 -4.36629 4.40176 0
M  V30 6858 C 638.876 -3.86387 3.14021 0
M  V30 6859 C 637.579 -4.53605 5.58243 0
M  V30 6860 C 639.605 -4.04569 4.31367 0
M  V30 6861 C 638.967 -4.37617 5.5197 0
M  V30 6862 H 635.066 -0.743657 0.241863 0
M  V30 6863 H 637.65 -1.56927 1.15248 0
M  V30 6864 H 635.821 -3.88113 0.149281 0
M  V30 6865 H 637.553 -4.03224 0.345372 0
M  V30 6866 H 634.308 -4.10423 2.36326 0
M  V30 6867 H 634.732 -4.64114 4.92876 0
M  V30 6868 H 639.374 -3.59906 2.21873 0
M  V30 6869 H 637.092 -4.78925 6.50889 0
M  V30 6870 H 640.678 -3.92452 4.29503 0
M  V30 6871 H 639.558 -4.51395 6.41258 0
M  V30 6872 N 637.061 -0.65484 -1.43351 0
M  V30 6873 C 637.994 0.0855537 -2.2804 0
M  V30 6874 C 638.972 0.828301 -1.39921 0
M  V30 6875 O 640.156 0.827539 -1.69364 0
M  V30 6876 C 637.283 1.12792 -3.19368 0
M  V30 6877 C 636.329 0.483037 -4.23756 0
M  V30 6878 S 637.162 -0.744605 -5.30298 0
M  V30 6879 C 638.318 0.297187 -6.25194 0
M  V30 6880 H 638.551 -0.632831 -2.90487 0
M  V30 6881 H 636.084 -0.44373 -1.47886 0
M  V30 6882 H 638.042 1.7243 -3.72529 0
M  V30 6883 H 636.703 1.81863 -2.56095 0
M  V30 6884 H 635.896 1.26888 -4.87766 0
M  V30 6885 H 635.498 -0.0392713 -3.73979 0
M  V30 6886 H 637.79 1.1629 -6.67445 0
M  V30 6887 H 638.733 -0.30793 -7.0743 0
M  V30 6888 H 639.141 0.633721 -5.60932 0
M  V30 6889 N 638.539 1.52521 -0.396863 0
M  V30 6890 C 639.769 2.05792 0.182485 0
M  V30 6891 C 640.177 1.26784 1.40436 0
M  V30 6892 O 639.52 0.309617 1.81072 0
M  V30 6893 C 639.582 3.54291 0.609781 0
M  V30 6894 C 639.246 4.5426 -0.499674 0
M  V30 6895 C 640.243 5.01812 -1.35944 0
M  V30 6896 C 637.928 4.97827 -0.668864 0
M  V30 6897 C 639.922 5.91562 -2.37346 0
M  V30 6898 C 637.609 5.87376 -1.68621 0
M  V30 6899 C 638.607 6.34137 -2.53692 0
M  V30 6900 O 638.295 7.21915 -3.53686 0
M  V30 6901 H 638.027 0.675362 0.0293583 0
M  V30 6902 H 640.581 1.97539 -0.56281 0
M  V30 6903 H 638.811 3.60188 1.40717 0
M  V30 6904 H 640.5 3.90267 1.11565 0
M  V30 6905 H 641.266 4.68879 -1.24008 0
M  V30 6906 H 637.145 4.60997 -0.0163971 0
M  V30 6907 H 640.689 6.27983 -3.03782 0
M  V30 6908 H 636.586 6.19723 -1.80593 0
M  V30 6909 H 637.354 7.39996 -3.49784 0
M  V30 6910 N 640.017 0.126909 1.57088 0
M  V30 6911 C 641.257 -0.53216 1.97351 0
M  V30 6912 C 641.621 -1.63342 1.00913 0
M  V30 6913 O 642.822 -2.35194 1.30144 0
M  V30 6914 C 641.093 -1.04385 3.41817 0
M  V30 6915 S 642.652 -1.71033 4.04095 0
M  V30 6916 H 639.47 -0.172724 0.689701 0
M  V30 6917 H 642.072 0.213865 1.94327 0
M  V30 6918 H 640.776 -0.231289 4.09748 0
M  V30 6919 H 640.307 -1.82496 3.48509 0
M  V30 6920 H 642.322 -2.99656 3.95501 0
M  V30 6921 N 641.495 -1.56914 -0.146875 0
M  V30 6922 C 642.725 -1.87243 -0.873126 0
M  V30 6923 C 643.133 -0.713127 -1.75246 0
M  V30 6924 O 642.476 0.326228 -1.8078 0
M  V30 6925 C 642.538 -3.12279 -1.78107 0
M  V30 6926 C 642.202 -4.44082 -1.07889 0
M  V30 6927 C 643.199 -5.18096 -0.432734 0
M  V30 6928 C 640.884 -4.90807 -1.06836 0
M  V30 6929 C 642.878 -6.37039 0.214569 0
M  V30 6930 C 640.565 -6.09674 -0.417243 0
M  V30 6931 C 641.563 -6.82636 0.223093 0
M  V30 6932 O 641.251 -7.99245 0.863884 0
M  V30 6933 H 640.983 -0.624896 -0.257839 0
M  V30 6934 H 643.537 -2.04892 -0.14434 0
M  V30 6935 H 641.767 -2.90639 -2.5508 0
M  V30 6936 H 643.456 -3.28854 -2.37929 0
M  V30 6937 H 644.222 -4.83066 -0.432677 0
M  V30 6938 H 640.101 -4.3394 -1.55618 0
M  V30 6939 H 643.645 -6.93927 0.714965 0
M  V30 6940 H 639.542 -6.44165 -0.414967 0
M  V30 6941 H 640.31 -8.14912 0.765564 0
M  V30 6942 N 642.974 0.416227 -1.52004 0
M  V30 6943 C 644.204 1.18401 -1.69307 0
M  V30 6944 C 644.612 1.84943 -0.399072 0
M  V30 6945 O 643.955 1.72406 0.634177 0
M  V30 6946 C 644.017 2.29465 -2.76742 0
M  V30 6947 C 643.681 1.83117 -4.18709 0
M  V30 6948 C 644.678 1.32286 -5.02789 0
M  V30 6949 C 642.363 1.90167 -4.64911 0
M  V30 6950 C 644.357 0.891178 -6.31139 0
M  V30 6951 C 642.044 1.4661 -5.93253 0
M  V30 6952 C 643.042 0.961696 -6.76196 0
M  V30 6953 O 642.73 0.532388 -8.02135 0
M  V30 6954 H 642.462 0.362098 -0.570843 0
M  V30 6955 H 645.016 0.496764 -1.99302 0
M  V30 6956 H 643.246 3.01531 -2.42107 0
M  V30 6957 H 644.935 2.91252 -2.82713 0
M  V30 6958 H 645.701 1.26218 -4.68288 0
M  V30 6959 H 641.58 2.28371 -4.00459 0
M  V30 6960 H 645.124 0.496788 -6.95829 0
M  V30 6961 H 641.021 1.52355 -6.27263 0
M  V30 6962 H 641.789 0.656339 -8.15864 0
M  V30 6963 N 644.452 1.42507 0.673017 0
M  V30 6964 C 645.384 1.42074 1.79854 0
M  V30 6965 C 646.397 0.319569 1.59633 0
M  V30 6966 O 647.586 0.582769 1.68719 0
M  V30 6967 C 644.686 1.19886 3.16987 0
M  V30 6968 C 643.859 2.42471 3.64042 0
M  V30 6969 C 642.918 2.15802 4.79913 0
M  V30 6970 O 641.944 2.89015 4.90366 0
M  V30 6971 N 643.146 1.16225 5.68746 0
M  V30 6972 H 645.911 2.3909 1.8071 0
M  V30 6973 H 643.472 1.37409 0.856171 0
M  V30 6974 H 645.464 0.999591 3.92161 0
M  V30 6975 H 644.034 0.313879 3.1102 0
M  V30 6976 H 643.254 2.77954 2.79526 0
M  V30 6977 H 644.542 3.24097 3.92223 0
M  V30 6978 H 643.94 0.556756 5.62954 0
M  V30 6979 H 642.497 1.02285 6.43724 0
M  V30 6980 N 645.93 -0.909495 1.28709 0
M  V30 6981 C 646.86 -2.0291 1.15542 0
M  V30 6982 C 647.841 -1.7002 0.0521017 0
M  V30 6983 O 649.026 -1.92835 0.229849 0
M  V30 6984 C 646.156 -3.37458 0.820935 0
M  V30 6985 C 645.11 -3.84524 1.87949 0
M  V30 6986 C 644.436 -5.16086 1.39854 0
M  V30 6987 C 645.736 -4.05918 3.28676 0
M  V30 6988 H 647.43 -2.14183 2.09203 0
M  V30 6989 H 644.976 -1.02913 1.00722 0
M  V30 6990 H 646.929 -4.1528 0.715571 0
M  V30 6991 H 645.653 -3.26249 -0.151374 0
M  V30 6992 H 644.312 -3.08911 1.97408 0
M  V30 6993 H 643.96 -5.01284 0.41518 0
M  V30 6994 H 643.66 -5.48547 2.1064 0
M  V30 6995 H 645.184 -5.96459 1.30649 0
M  V30 6996 H 646.598 -4.74252 3.22115 0
M  V30 6997 H 644.995 -4.49717 3.97334 0
M  V30 6998 H 646.065 -3.10583 3.72379 0
M  V30 6999 N 647.408 -1.11026 -1.11852 0
M  V30 7000 C 648.358 -0.733836 -2.15868 0
M  V30 7001 C 649.342 0.26001 -1.58785 0
M  V30 7002 O 650.534 0.0677901 -1.7687 0
M  V30 7003 C 647.663 -0.173948 -3.42859 0
M  V30 7004 C 646.749 -1.1952 -4.0691 0
M  V30 7005 N 647.14 -2.38797 -4.45881 0
M  V30 7006 C 645.438 -1.03714 -4.33773 0
M  V30 7007 C 646.139 -3.03894 -4.96007 0
M  V30 7008 N 645.115 -2.31389 -4.91894 0
M  V30 7009 H 648.917 -1.64171 -2.43773 0
M  V30 7010 H 646.431 -0.988877 -1.28822 0
M  V30 7011 H 648.428 0.113836 -4.16745 0
M  V30 7012 H 647.088 0.728568 -3.16421 0
M  V30 7013 H 648.099 -2.76281 -4.38051 0
M  V30 7014 H 644.776 -0.190694 -4.17064 0
M  V30 7015 H 646.166 -4.05389 -5.35826 0
M  V30 7016 N 648.886 1.2938 -0.899927 0
M  V30 7017 C 650.302 1.48052 -0.596059 0
M  V30 7018 C 650.502 1.82114 0.862372 0
M  V30 7019 O 649.558 1.91774 1.64253 0
M  V30 7020 C 650.871 2.59332 -1.52208 0
M  V30 7021 C 652.419 2.73208 -1.5273 0
M  V30 7022 C 652.894 3.87617 -2.43961 0
M  V30 7023 N 654.385 3.9495 -2.42009 0
M  V30 7024 C 655.12 4.82824 -3.09303 0
M  V30 7025 N 654.616 5.75387 -3.85877 0
M  V30 7026 N 656.409 4.76317 -2.98459 0
M  V30 7027 H 648.56 1.05546 -1.8432 0
M  V30 7028 H 650.823 0.524314 -0.78981 0
M  V30 7029 H 650.529 2.41029 -2.56121 0
M  V30 7030 H 650.403 3.56139 -1.24278 0
M  V30 7031 H 652.79 2.90908 -0.495614 0
M  V30 7032 H 652.871 1.76975 -1.84698 0
M  V30 7033 H 652.515 3.70672 -3.47224 0
M  V30 7034 H 652.445 4.83218 -2.09303 0
M  V30 7035 H 654.936 3.28744 -1.86375 0
M  V30 7036 H 655.249 6.39235 -4.34279 0
M  V30 7037 H 653.594 5.75272 -3.89984 0
M  V30 7038 H 656.785 4.0299 -2.38152 0
M  V30 7039 H 656.958 5.44589 -3.51179 0
M  V30 7040 N 650.364 0.662433 1.43002 0
M  V30 7041 C 651.327 -0.0142016 2.29196 0
M  V30 7042 C 652.327 -0.741394 1.42688 0
M  V30 7043 O 653.517 -0.581257 1.64216 0
M  V30 7044 C 650.649 -1.03084 3.24941 0
M  V30 7045 H 651.842 0.7443 2.90517 0
M  V30 7046 H 649.395 0.424133 1.50435 0
M  V30 7047 H 650.13 -1.81826 2.68533 0
M  V30 7048 H 649.915 -0.512946 3.8873 0
M  V30 7049 H 651.405 -1.50308 3.89612 0
M  V30 7050 N 651.842 -1.52309 0.404946 0
M  V30 7051 C 653.089 -2.01767 -0.1722 0
M  V30 7052 C 653.417 -1.29075 -1.45498 0
M  V30 7053 O 652.672 -0.3843 -1.9189 0
M  V30 7054 C 652.971 -3.54284 -0.470895 0
M  V30 7055 C 652.637 -4.45079 0.722194 0
M  V30 7056 C 651.299 -4.69617 1.04946 0
M  V30 7057 C 653.651 -4.98555 1.51962 0
M  V30 7058 C 650.979 -5.44878 2.17543 0
M  V30 7059 C 653.331 -5.75049 2.63632 0
M  V30 7060 C 651.995 -5.9786 2.9685 0
M  V30 7061 H 651.265 -0.738316 -0.0630125 0
M  V30 7062 H 653.912 -1.83566 0.545506 0
M  V30 7063 H 652.217 -3.70642 -1.27012 0
M  V30 7064 H 653.914 -3.90058 -0.930346 0
M  V30 7065 H 650.504 -4.26155 0.457131 0
M  V30 7066 H 654.688 -4.79509 1.28002 0
M  V30 7067 H 649.944 -5.60762 2.43631 0
M  V30 7068 H 654.118 -6.15483 3.25813 0
M  V30 7069 H 651.745 -6.5596 3.84215 0
M  V30 7070 N 653.32 -0.135238 -1.57019 0
M  V30 7071 C 654.566 0.519563 -1.96032 0
M  V30 7072 C 654.899 1.65284 -1.01955 0
M  V30 7073 O 654.174 1.94408 -0.059727 0
M  V30 7074 C 654.457 1.0369 -3.44848 0
M  V30 7075 C 654.31 -0.0940754 -4.49702 0
M  V30 7076 C 655.629 1.92254 -3.95887 0
M  V30 7077 H 652.748 0.18739 -0.712779 0
M  V30 7078 H 655.39 -0.214086 -1.8879 0
M  V30 7079 H 653.54 1.66209 -3.5115 0
M  V30 7080 H 655.212 -0.73 -4.55487 0
M  V30 7081 H 653.455 -0.754924 -4.27181 0
M  V30 7082 H 654.126 0.309419 -5.51132 0
M  V30 7083 H 656.602 1.39581 -3.9199 0
M  V30 7084 H 655.478 2.25364 -5.00502 0
M  V30 7085 H 655.739 2.85513 -3.37543 0
M  V30 7086 N 654.798 1.5699 0.138552 0
M  V30 7087 C 655.73 1.95515 1.1961 0
M  V30 7088 C 656.743 0.852002 1.38726 0
M  V30 7089 O 657.932 1.13038 1.38147 0
M  V30 7090 C 655.032 2.2213 2.55952 0
M  V30 7091 C 654.205 3.53424 2.57702 0
M  V30 7092 C 653.264 3.6848 3.75645 0
M  V30 7093 O 652.29 4.4079 3.60129 0
M  V30 7094 N 653.492 3.05777 4.93438 0
M  V30 7095 H 656.257 2.86838 0.868557 0
M  V30 7096 H 653.818 1.58542 0.328033 0
M  V30 7097 H 655.81 2.29435 3.33379 0
M  V30 7098 H 654.38 1.3703 2.80965 0
M  V30 7099 H 653.6 3.57484 1.6613 0
M  V30 7100 H 654.888 4.39759 2.55909 0
M  V30 7101 H 654.286 2.46961 5.08947 0
M  V30 7102 H 652.843 3.18631 5.6861 0
M  V30 7103 N 656.276 -0.40816 1.52223 0
M  V30 7104 C 657.186 -1.52202 1.78526 0
M  V30 7105 C 658.202 -1.60546 0.670892 0
M  V30 7106 O 659.378 -1.77242 0.956404 0
M  V30 7107 C 656.443 -2.87928 1.93128 0
M  V30 7108 C 655.504 -2.89463 3.17033 0
M  V30 7109 C 654.737 -4.18715 3.30929 0
M  V30 7110 O 654.96 -5.12662 2.50067 0
M  V30 7111 O 653.894 -4.27125 4.24084 0
M  V30 7112 H 657.72 -1.32911 2.73072 0
M  V30 7113 H 655.305 -0.594112 1.37079 0
M  V30 7114 H 657.187 -3.68426 2.04549 0
M  V30 7115 H 655.862 -3.07285 1.01772 0
M  V30 7116 H 654.769 -2.07815 3.11069 0
M  V30 7117 H 656.102 -2.75055 4.08174 0
M  V30 7118 N 657.755 -1.42862 -0.66545 0
M  V30 7119 C 658.665 -1.49491 -1.80803 0
M  V30 7120 C 659.681 -0.382914 -1.69734 0
M  V30 7121 O 660.857 -0.635223 -1.9112 0
M  V30 7122 C 657.922 -1.40383 -3.17007 0
M  V30 7123 C 656.983 -2.62152 -3.39963 0
M  V30 7124 C 656.216 -2.53469 -4.69669 0
M  V30 7125 O 656.439 -1.57568 -5.48205 0
M  V30 7126 O 655.373 -3.43763 -4.94075 0
M  V30 7127 H 659.199 -2.45949 -1.78165 0
M  V30 7128 H 656.784 -1.24728 -0.822387 0
M  V30 7129 H 658.666 -1.377 -3.98267 0
M  V30 7130 H 657.341 -0.470546 -3.20262 0
M  V30 7131 H 656.248 -2.70409 -2.58515 0
M  V30 7132 H 657.581 -3.54411 -3.41546 0
M  V30 7133 N 659.233 0.902656 -1.29189 0
M  V30 7134 C 660.163 2.02294 -1.16616 0
M  V30 7135 C 661.144 1.6999 -0.0611175 0
M  V30 7136 O 662.329 1.9271 -0.240072 0
M  V30 7137 C 659.459 3.37018 -0.83882 0
M  V30 7138 C 658.413 3.83522 -1.89986 0
M  V30 7139 C 657.739 5.15337 -1.42589 0
M  V30 7140 C 659.039 4.04169 -3.30824 0
M  V30 7141 H 660.733 2.13071 -2.10336 0
M  V30 7142 H 658.279 1.02378 -1.01266 0
M  V30 7143 H 660.232 4.14895 -0.737584 0
M  V30 7144 H 658.956 3.26325 0.134071 0
M  V30 7145 H 657.615 3.07859 -1.99043 0
M  V30 7146 H 657.263 5.01056 -0.441759 0
M  V30 7147 H 656.963 5.47423 -2.13547 0
M  V30 7148 H 658.487 5.95758 -1.3381 0
M  V30 7149 H 659.901 4.72537 -3.24626 0
M  V30 7150 H 658.298 4.47604 -3.99713 0
M  V30 7151 H 659.368 3.08604 -3.74021 0
M  V30 7152 N 660.711 1.11618 1.11262 0
M  V30 7153 C 661.959 0.864469 1.82678 0
M  V30 7154 C 662.28 -0.611564 1.85162 0
M  V30 7155 O 661.55 -1.44429 1.32352 0
M  V30 7156 H 660.13 0.316821 0.676486 0
M  V30 7157 H 662.792 1.40894 1.34666 0
M  V30 7158 H 661.888 1.23832 2.86482 0
M  V30 7159 N 662.189 -1.289 0.906776 0
M  V30 7160 C 663.429 -1.97046 0.543329 0
M  V30 7161 C 663.793 -1.69862 -0.895034 0
M  V30 7162 O 664.994 -2.31521 -1.36571 0
M  V30 7163 C 663.265 -3.47489 0.835833 0
M  V30 7164 S 664.824 -4.3498 0.577756 0
M  V30 7165 H 661.642 -0.681908 0.201302 0
M  V30 7166 H 664.244 -1.5657 1.17073 0
M  V30 7167 H 662.948 -3.64768 1.88075 0
M  V30 7168 H 662.479 -3.92907 0.196817 0
M  V30 7169 H 664.494 -4.92868 -0.574052 0
M  V30 7170 N 663.667 -0.670007 -1.42649 0
M  V30 7171 C 664.599 0.0501746 -2.29145 0
M  V30 7172 C 665.612 0.770331 -1.43422 0
M  V30 7173 O 666.801 0.625288 -1.6719 0
M  V30 7174 C 663.901 1.09463 -3.20735 0
M  V30 7175 C 663.074 0.44926 -4.35087 0
M  V30 7176 C 662.133 1.39285 -5.07431 0
M  V30 7177 O 661.159 0.894997 -5.6212 0
M  V30 7178 N 662.361 2.72631 -5.12496 0
M  V30 7179 H 665.126 -0.692312 -2.91594 0
M  V30 7180 H 662.687 -0.514056 -1.53522 0
M  V30 7181 H 664.679 1.72705 -3.65999 0
M  V30 7182 H 663.249 1.73891 -2.59771 0
M  V30 7183 H 662.469 -0.362573 -3.92529 0
M  V30 7184 H 663.757 -0.000544776 -5.088 0
M  V30 7185 H 663.155 3.15623 -4.69467 0
M  V30 7186 H 661.712 3.31132 -5.61422 0
M  V30 7187 N 665.145 1.52092 -0.413018 0
M  V30 7188 C 666.37 2.06756 0.163338 0
M  V30 7189 C 666.795 1.28073 1.37764 0
M  V30 7190 O 666.153 0.312015 1.78595 0
M  V30 7191 C 666.201 3.57278 0.488322 0
M  V30 7192 O 665.305 3.80986 1.57871 0
M  V30 7193 H 664.646 0.663882 0.0125068 0
M  V30 7194 H 667.176 1.95988 -0.587339 0
M  V30 7195 H 667.186 4.01125 0.745836 0
M  V30 7196 H 665.861 4.13978 -0.399327 0
M  V30 7197 H 664.438 3.49017 1.31306 0
M  V30 7198 N 666.623 0.143563 1.56945 0
M  V30 7199 C 667.869 -0.50916 1.96304 0
M  V30 7200 C 668.202 -1.64741 1.0283 0
M  V30 7201 O 667.477 -1.94374 0.0700361 0
M  V30 7202 C 667.76 -1.0186 3.45393 0
M  V30 7203 C 667.613 0.117923 4.49645 0
M  V30 7204 C 668.932 -1.90151 3.96901 0
M  V30 7205 H 666.051 -0.183608 0.713763 0
M  V30 7206 H 668.693 0.224095 1.88674 0
M  V30 7207 H 666.843 -1.64345 3.52027 0
M  V30 7208 H 668.515 0.754145 4.55094 0
M  V30 7209 H 666.758 0.777568 4.26774 0
M  V30 7210 H 667.429 -0.280187 5.51288 0
M  V30 7211 H 669.905 -1.375 3.92725 0
M  V30 7212 H 668.781 -2.22707 5.0169 0
M  V30 7213 H 669.042 -2.83718 3.39052 0
M  V30 7214 N 668.101 -1.57061 -0.130224 0
M  V30 7215 C 669.341 -1.86071 -0.845993 0
M  V30 7216 C 669.705 -0.73009 -1.77577 0
M  V30 7217 O 670.906 -0.901663 -2.53226 0
M  V30 7218 C 669.177 -3.20293 -1.58579 0
M  V30 7219 S 670.736 -3.70905 -2.34467 0
M  V30 7220 H 667.554 -0.652434 -0.282579 0
M  V30 7221 H 670.156 -1.95218 -0.10498 0
M  V30 7222 H 668.86 -4.00533 -0.894509 0
M  V30 7223 H 668.391 -3.14195 -2.36739 0
M  V30 7224 H 670.406 -3.41509 -3.59981 0
M  V30 7225 N 669.579 0.400081 -1.52437 0
M  V30 7226 C 670.526 1.48803 -1.76426 0
M  V30 7227 C 671.496 1.5461 -0.607032 0
M  V30 7228 O 672.681 1.71041 -0.845563 0
M  V30 7229 C 669.821 2.86156 -1.92896 0
M  V30 7230 C 668.934 2.89587 -3.20567 0
M  V30 7231 C 668.069 4.18296 -3.27417 0
M  V30 7232 C 667.108 4.15736 -4.49255 0
M  V30 7233 N 666.245 5.36032 -4.53447 0
M  V30 7234 H 671.085 1.27649 -2.69276 0
M  V30 7235 H 668.622 0.619451 -1.33421 0
M  V30 7236 H 670.58 3.65901 -2.00429 0
M  V30 7237 H 669.21 3.05785 -1.03418 0
M  V30 7238 H 668.262 2.02278 -3.22161 0
M  V30 7239 H 669.574 2.83562 -4.10358 0
M  V30 7240 H 668.728 5.06439 -3.34072 0
M  V30 7241 H 667.467 4.27028 -2.35581 0
M  V30 7242 H 666.472 3.25982 -4.42737 0
M  V30 7243 H 667.697 4.08636 -5.42396 0
M  V30 7244 H 665.643 5.45415 -3.64498 0
M  V30 7245 H 665.56 5.32038 -5.37096 0
M  V30 7246 H 666.828 6.26104 -4.64343 0
M  V30 7247 N 671.057 1.43213 0.657864 0
M  V30 7248 C 671.967 1.50448 1.80007 0
M  V30 7249 C 672.983 0.39191 1.69529 0
M  V30 7250 O 674.159 0.645349 1.90781 0
M  V30 7251 C 671.224 1.42062 3.16258 0
M  V30 7252 C 670.285 2.63951 3.38568 0
M  V30 7253 C 669.518 2.55956 4.68318 0
M  V30 7254 O 669.741 1.60473 5.47361 0
M  V30 7255 O 668.675 3.46378 4.92245 0
M  V30 7256 H 672.501 2.4689 1.76858 0
M  V30 7257 H 670.086 1.25163 0.81576 0
M  V30 7258 H 671.968 1.3981 3.97531 0
M  V30 7259 H 670.643 0.487524 3.20008 0
M  V30 7260 H 669.55 2.71776 2.57077 0
M  V30 7261 H 670.883 3.56217 3.39662 0
M  V30 7262 N 672.536 -0.895792 1.29666 0
M  V30 7263 C 673.499 -1.98189 1.15124 0
M  V30 7264 C 674.499 -1.60572 0.0855717 0
M  V30 7265 O 675.689 -1.70991 0.332826 0
M  V30 7266 C 672.821 -3.32289 0.761372 0
M  V30 7267 H 674.014 -2.12518 2.11603 0
M  V30 7268 H 671.567 -1.0808 1.12908 0
M  V30 7269 H 672.302 -3.23662 -0.203393 0
M  V30 7270 H 672.087 -3.60958 1.53139 0
M  V30 7271 H 673.577 -4.1198 0.682792 0
M  V30 7272 N 674.014 -1.12206 -1.10668 0
M  V30 7273 C 675.254 -0.885935 -1.84202 0
M  V30 7274 C 675.618 0.577849 -1.83098 0
M  V30 7275 O 676.819 0.931051 -2.5216 0
M  V30 7276 C 675.09 -1.44197 -3.2702 0
M  V30 7277 S 676.649 -1.34402 -4.1771 0
M  V30 7278 H 673.467 -0.319653 -0.635093 0
M  V30 7279 H 676.069 -1.43112 -1.33189 0
M  V30 7280 H 674.773 -2.50096 -3.25392 0
M  V30 7281 H 674.304 -0.894173 -3.83103 0
M  V30 7282 H 676.319 -0.313873 -4.95206 0
M  V30 7283 N 675.492 1.28418 -0.913599 0
M  V30 7284 C 676.717 1.99643 -0.561899 0
M  V30 7285 C 677.142 1.67819 0.849608 0
M  V30 7286 O 676.5 0.910503 1.56779 0
M  V30 7287 C 676.548 3.52116 -0.777622 0
M  V30 7288 O 675.652 4.12076 0.163457 0
M  V30 7289 H 674.993 0.627229 -0.217898 0
M  V30 7290 H 677.523 1.63575 -1.229 0
M  V30 7291 H 677.533 4.02163 -0.687666 0
M  V30 7292 H 676.208 3.74613 -1.8066 0
M  V30 7293 H 674.785 3.72892 0.0247827 0
M  V30 7294 N 676.97 0.677563 1.42291 0
M  V30 7295 C 678.217 0.200975 2.015 0
M  V30 7296 C 678.545 -1.19342 1.53583 0
M  V30 7297 O 677.8 -1.81579 0.7299 0
M  V30 7298 C 678.099 0.187229 3.56909 0
M  V30 7299 C 677.765 1.52667 4.24268 0
M  V30 7300 C 676.427 1.89341 4.42384 0
M  V30 7301 C 678.779 2.40869 4.62203 0
M  V30 7302 C 676.107 3.13836 4.95705 0
M  V30 7303 C 678.459 3.64679 5.16906 0
M  V30 7304 C 677.123 4.01519 5.33234 0
M  V30 7305 H 676.393 0.0735418 0.737342 0
M  V30 7306 H 679.04 0.873095 1.70439 0
M  V30 7307 H 677.345 -0.568407 3.87655 0
M  V30 7308 H 679.042 -0.198773 4.00507 0
M  V30 7309 H 675.632 1.23138 4.1053 0
M  V30 7310 H 679.816 2.1382 4.47878 0
M  V30 7311 H 675.072 3.42396 5.06532 0
M  V30 7312 H 679.246 4.33224 5.45243 0
M  V30 7313 H 676.873 4.98062 5.74316 0
M  V30 7314 N 678.448 -1.51871 0.421078 0
M  V30 7315 C 679.395 -2.27334 -0.398508 0
M  V30 7316 C 680.365 -1.30241 -1.03085 0
M  V30 7317 O 681.55 -1.59121 -1.05285 0
M  V30 7318 C 678.69 -3.10664 -1.50272 0
M  V30 7319 C 677.803 -4.2273 -0.890122 0
M  V30 7320 C 676.938 -4.93399 -1.96803 0
M  V30 7321 C 675.977 -5.97409 -1.333 0
M  V30 7322 N 675.114 -6.61548 -2.35156 0
M  V30 7323 H 679.954 -2.96938 0.251411 0
M  V30 7324 H 677.491 -1.46472 0.135825 0
M  V30 7325 H 679.449 -3.57292 -2.15403 0
M  V30 7326 H 678.079 -2.43207 -2.1225 0
M  V30 7327 H 677.131 -3.80186 -0.127537 0
M  V30 7328 H 678.443 -4.97302 -0.386349 0
M  V30 7329 H 677.597 -5.43491 -2.69633 0
M  V30 7330 H 676.336 -4.18421 -2.50549 0
M  V30 7331 H 675.341 -5.46624 -0.59008 0
M  V30 7332 H 676.566 -6.74335 -0.803076 0
M  V30 7333 H 674.512 -5.89394 -2.88012 0
M  V30 7334 H 674.429 -7.31832 -1.89624 0
M  V30 7335 H 675.697 -7.16276 -3.0752 0
M  V30 7336 N 679.926 -0.151884 -1.56866 0
M  V30 7337 C 680.836 0.798876 -2.20579 0
M  V30 7338 C 681.852 1.268 -1.19154 0
M  V30 7339 O 683.028 1.32418 -1.51748 0
M  V30 7340 C 680.093 2.01861 -2.81874 0
M  V30 7341 C 679.154 1.59825 -3.9844 0
M  V30 7342 C 678.387 2.75984 -4.56802 0
M  V30 7343 O 678.61 3.92331 -4.14044 0
M  V30 7344 O 677.544 2.51175 -5.46987 0
M  V30 7345 H 681.37 0.2865 -3.02346 0
M  V30 7346 H 678.955 0.0753806 -1.4921 0
M  V30 7347 H 680.837 2.73235 -3.20813 0
M  V30 7348 H 679.512 2.52042 -2.03117 0
M  V30 7349 H 678.419 0.854601 -3.64208 0
M  V30 7350 H 679.752 1.14355 -4.78731 0
M  V30 7351 N 681.404 1.57128 0.121893 0
M  V30 7352 C 682.65 1.85853 0.826451 0
M  V30 7353 C 683.005 0.739262 1.77631 0
M  V30 7354 O 682.298 -0.260959 1.89815 0
M  V30 7355 C 682.492 3.1874 1.61677 0
M  V30 7356 C 682.321 4.43487 0.744944 0
M  V30 7357 C 681.091 5.03707 0.400891 0
M  V30 7358 C 683.289 5.1426 0.0638779 0
M  V30 7359 N 681.271 6.12006 -0.481902 0
M  V30 7360 C 682.642 6.16281 -0.678033 0
M  V30 7361 C 684.697 4.97898 -0.0128424 0
M  V30 7362 C 683.4 7.0371 -1.48946 0
M  V30 7363 C 685.426 5.85812 -0.81108 0
M  V30 7364 C 684.788 6.87333 -1.54119 0
M  V30 7365 H 680.887 0.730367 0.279442 0
M  V30 7366 H 683.471 1.9449 0.0903486 0
M  V30 7367 H 681.642 3.11204 2.32393 0
M  V30 7368 H 683.374 3.35283 2.26644 0
M  V30 7369 H 680.129 4.67744 0.742469 0
M  V30 7370 H 680.553 6.70787 -0.915063 0
M  V30 7371 H 685.195 4.19372 0.537278 0
M  V30 7372 H 682.913 7.81646 -2.05074 0
M  V30 7373 H 686.499 5.75217 -0.872764 0
M  V30 7374 H 685.379 7.54182 -2.14893 0
M  V30 7375 N 682.882 -0.391992 1.52647 0
M  V30 7376 C 684.11 -1.1586 1.71418 0
M  V30 7377 C 684.525 -1.8381 0.431216 0
M  V30 7378 O 683.882 -1.7256 -0.594085 0
M  V30 7379 C 683.933 -2.20888 2.86165 0
M  V30 7380 O 683.654 -1.5571 4.09495 0
M  V30 7381 C 685.155 -3.103 3.1659 0
M  V30 7382 H 682.375 -0.347494 0.574011 0
M  V30 7383 H 684.919 -0.458972 1.99283 0
M  V30 7384 H 683.074 -2.86492 2.6077 0
M  V30 7385 H 683.488 -2.25474 4.73563 0
M  V30 7386 H 684.962 -3.8003 4.00351 0
M  V30 7387 H 685.439 -3.73639 2.30848 0
M  V30 7388 H 686.045 -2.50345 3.43813 0
M  V30 7389 N 684.36 -1.4356 -0.65026 0
M  V30 7390 C 685.29 -1.51758 -1.77459 0
M  V30 7391 C 686.271 -0.372019 -1.65982 0
M  V30 7392 O 687.456 -0.589627 -1.85033 0
M  V30 7393 C 684.586 -1.44302 -3.15902 0
M  V30 7394 C 683.54 -2.57138 -3.42146 0
M  V30 7395 C 682.866 -2.34735 -4.8042 0
M  V30 7396 C 684.166 -3.99373 -3.36598 0
M  V30 7397 H 685.86 -2.45863 -1.70855 0
M  V30 7398 H 683.406 -1.18333 -0.820566 0
M  V30 7399 H 685.359 -1.48641 -3.94314 0
M  V30 7400 H 684.083 -0.467026 -3.23244 0
M  V30 7401 H 682.742 -2.52157 -2.66106 0
M  V30 7402 H 682.39 -1.35372 -4.84441 0
M  V30 7403 H 682.09 -3.10375 -4.9894 0
M  V30 7404 H 683.614 -2.40862 -5.61086 0
M  V30 7405 H 685.028 -4.05826 -4.04942 0
M  V30 7406 H 683.425 -4.75063 -3.66654 0
M  V30 7407 H 684.495 -4.243 -2.34729 0
M  V30 7408 N 685.838 0.888903 -1.30139 0
M  V30 7409 C 687.066 1.67358 -1.21651 0
M  V30 7410 C 687.481 1.87499 0.221246 0
M  V30 7411 O 686.838 1.41969 1.14677 0
M  V30 7412 C 686.889 3.05213 -1.93719 0
M  V30 7413 O 686.61 2.85984 -3.31881 0
M  V30 7414 C 688.111 3.9964 -1.9184 0
M  V30 7415 H 685.331 0.522365 -0.42116 0
M  V30 7416 H 687.875 1.11086 -1.71698 0
M  V30 7417 H 686.03 3.5823 -1.4748 0
M  V30 7418 H 686.444 3.73411 -3.68327 0
M  V30 7419 H 687.918 4.93749 -2.46811 0
M  V30 7420 H 688.395 4.29955 -0.896409 0
M  V30 7421 H 689.001 3.52558 -2.37872 0
M  V30 7422 N 687.317 1.12792 1.10072 0
M  V30 7423 C 688.545 0.908506 1.85886 0
M  V30 7424 C 688.96 -0.542408 1.80841 0
M  V30 7425 O 688.317 -1.37517 1.1998 0
M  V30 7426 C 688.368 1.37973 3.34134 0
M  V30 7427 O 688.089 2.77378 3.39106 0
M  V30 7428 C 689.59 1.1978 4.26811 0
M  V30 7429 H 686.81 0.3244 0.587372 0
M  V30 7430 H 689.354 1.49882 1.39125 0
M  V30 7431 H 687.509 0.832566 3.78348 0
M  V30 7432 H 687.923 2.98144 4.31521 0
M  V30 7433 H 689.397 1.57635 5.29014 0
M  V30 7434 H 689.874 0.138768 4.38981 0
M  V30 7435 H 690.48 1.73266 3.88406 0
M  V30 7436 N 688.795 -1.27931 0.920396 0
M  V30 7437 C 690.02 -1.99343 0.572478 0
M  V30 7438 C 690.445 -1.68267 -0.840696 0
M  V30 7439 O 689.803 -0.918805 -1.56294 0
M  V30 7440 C 689.851 -3.51698 0.796284 0
M  V30 7441 O 688.955 -4.12157 -0.141602 0
M  V30 7442 H 688.296 -0.626065 0.221221 0
M  V30 7443 H 690.826 -1.62921 1.23765 0
M  V30 7444 H 690.836 -4.01793 0.708984 0
M  V30 7445 H 689.511 -3.73649 1.82644 0
M  V30 7446 H 688.088 -3.729 -0.005007 0
M  V30 7447 N 690.273 -0.685099 -1.4193 0
M  V30 7448 C 691.203 -0.0273506 -2.33484 0
M  V30 7449 C 692.184 0.778366 -1.51246 0
M  V30 7450 O 693.369 0.733449 -1.79817 0
M  V30 7451 C 690.499 0.917272 -3.34968 0
M  V30 7452 C 689.453 0.21941 -4.27437 0
M  V30 7453 C 688.779 1.27768 -5.1921 0
M  V30 7454 C 690.079 -0.907894 -5.14349 0
M  V30 7455 H 691.773 -0.791994 -2.88735 0
M  V30 7456 H 689.319 -0.382308 -1.38832 0
M  V30 7457 H 691.272 1.38657 -3.97935 0
M  V30 7458 H 689.996 1.71346 -2.78043 0
M  V30 7459 H 688.655 -0.229757 -3.65879 0
M  V30 7460 H 688.303 2.06612 -4.58607 0
M  V30 7461 H 688.003 0.815803 -5.81909 0
M  V30 7462 H 689.527 1.7477 -5.85054 0
M  V30 7463 H 690.941 -0.519348 -5.70943 0
M  V30 7464 H 689.338 -1.2962 -5.85934 0
M  V30 7465 H 690.408 -1.75218 -4.52136 0
M  V30 7466 N 691.751 1.51645 -0.429126 0
M  V30 7467 C 692.714 2.26116 0.374726 0
M  V30 7468 C 693.714 1.29242 0.956714 0
M  V30 7469 O 694.904 1.53022 0.832452 0
M  V30 7470 C 692.036 3.04669 1.52937 0
M  V30 7471 H 693.229 2.9861 -0.277818 0
M  V30 7472 H 690.782 1.55236 -0.182097 0
M  V30 7473 H 691.517 2.36571 2.21821 0
M  V30 7474 H 691.302 3.75814 1.11833 0
M  V30 7475 H 692.792 3.61102 2.09751 0
M  V30 7476 N 693.229 0.160201 1.56784 0
M  V30 7477 C 694.161 -0.80564 2.14574 0
M  V30 7478 C 695.174 -1.20154 1.09849 0
M  V30 7479 O 696.363 -1.14333 1.37078 0
M  V30 7480 C 693.463 -2.09434 2.6644 0
M  V30 7481 C 692.636 -1.86375 3.95706 0
M  V30 7482 C 691.695 -2.99358 4.32749 0
M  V30 7483 O 690.721 -2.70475 5.00831 0
M  V30 7484 N 691.923 -4.26867 3.93402 0
M  V30 7485 H 694.688 -0.311644 2.98075 0
M  V30 7486 H 692.249 -0.0229465 1.61884 0
M  V30 7487 H 694.241 -2.84091 2.88226 0
M  V30 7488 H 692.811 -2.50057 1.8759 0
M  V30 7489 H 692.031 -0.956821 3.82412 0
M  V30 7490 H 693.319 -1.68322 4.80151 0
M  V30 7491 H 692.717 -4.53197 3.38569 0
M  V30 7492 H 691.274 -4.98263 4.20211 0
M  V30 7493 N 694.707 -1.5719 -0.113559 0
M  V30 7494 C 695.953 -1.86289 -0.816583 0
M  V30 7495 C 696.308 -0.748672 -1.77236 0
M  V30 7496 O 695.601 0.250889 -1.8995 0
M  V30 7497 C 695.795 -3.19593 -1.59984 0
M  V30 7498 C 695.624 -4.43876 -0.721414 0
M  V30 7499 C 694.394 -5.03913 -0.374172 0
M  V30 7500 C 696.592 -5.14287 -0.0366045 0
M  V30 7501 N 694.574 -6.11741 0.514352 0
M  V30 7502 C 695.945 -6.15913 0.710706 0
M  V30 7503 C 698 -4.97885 0.039247 0
M  V30 7504 C 696.703 -7.0291 1.52675 0
M  V30 7505 C 698.729 -5.85373 0.842135 0
M  V30 7506 C 698.091 -6.86506 1.57762 0
M  V30 7507 H 694.19 -0.731839 -0.275564 0
M  V30 7508 H 696.774 -1.94535 -0.080033 0
M  V30 7509 H 694.945 -3.12432 -2.30739 0
M  V30 7510 H 696.677 -3.3648 -2.24862 0
M  V30 7511 H 693.432 -4.68131 -0.717653 0
M  V30 7512 H 693.856 -6.70293 0.950623 0
M  V30 7513 H 698.498 -4.19651 -0.51503 0
M  V30 7514 H 696.216 -7.80547 2.09217 0
M  V30 7515 H 699.802 -5.74746 0.903256 0
M  V30 7516 H 698.682 -7.53032 2.1889 0
M  V30 7517 N 696.185 0.383891 -1.52853 0
M  V30 7518 C 697.596 0.961591 -1.60032 0
M  V30 7519 C 697.947 1.90819 -0.456333 0
M  V30 7520 O 697.072 2.12288 0.419873 0
M  V30 7521 C 697.667 1.75078 -2.90057 0
M  V30 7522 C 696.226 2.2781 -2.99632 0
M  V30 7523 C 695.373 1.08512 -2.55187 0
M  V30 7524 H 698.324 0.163269 -1.57858 0
M  V30 7525 H 698.345 2.61046 -2.7683 0
M  V30 7526 H 697.857 1.06157 -3.73299 0
M  V30 7527 H 695.958 3.00028 -2.20939 0
M  V30 7528 H 696.071 2.56947 -4.0437 0
M  V30 7529 H 694.435 1.44667 -2.09627 0
M  V30 7530 H 695.218 0.41118 -3.40829 0
M  V30 7531 N 697.663 1.43903 0.642637 0
M  V30 7532 C 698.888 1.49758 1.43483 0
M  V30 7533 C 699.313 0.119911 1.87717 0
M  V30 7534 O 698.671 -0.888558 1.58033 0
M  V30 7535 C 698.719 2.45744 2.63898 0
M  V30 7536 O 697.823 1.95101 3.63331 0
M  V30 7537 H 697.164 0.506138 0.429791 0
M  V30 7538 H 699.694 1.88923 0.785438 0
M  V30 7539 H 699.704 2.63399 3.11584 0
M  V30 7540 H 698.379 3.45818 2.31046 0
M  V30 7541 H 696.956 1.87158 3.22531 0
M  V30 7542 N 699.141 -0.881989 1.30609 0
M  V30 7543 C 700.387 -1.63647 1.19781 0
M  V30 7544 C 700.72 -1.92632 -0.246265 0
M  V30 7545 O 699.995 -1.54938 -1.17577 0
M  V30 7546 C 700.278 -2.97437 2.02985 0
M  V30 7547 C 700.131 -2.75406 3.55628 0
M  V30 7548 C 701.45 -3.98397 1.86997 0
M  V30 7549 H 698.569 -0.593841 0.436488 0
M  V30 7550 H 701.211 -1.02041 1.60273 0
M  V30 7551 H 699.361 -3.50018 1.68581 0
M  V30 7552 H 701.033 -2.2959 4.00107 0
M  V30 7553 H 699.276 -2.09856 3.79662 0
M  V30 7554 H 699.947 -3.70552 4.09139 0
M  V30 7555 H 702.423 -3.54986 2.17081 0
M  V30 7556 H 701.299 -4.89916 2.47536 0
M  V30 7557 H 701.56 -4.3424 0.829943 0
M  V30 7558 N 700.619 -1.13374 -1.09472 0
M  V30 7559 C 701.865 -0.896516 -1.81908 0
M  V30 7560 C 702.198 0.575933 -1.85463 0
M  V30 7561 O 701.473 1.42618 -1.32251 0
M  V30 7562 C 701.756 -1.48445 -3.28079 0
M  V30 7563 C 701.609 -3.02598 -3.32798 0
M  V30 7564 C 702.928 -1.15226 -4.24748 0
M  V30 7565 H 700.047 -0.327127 -0.660422 0
M  V30 7566 H 702.689 -1.40195 -1.2824 0
M  V30 7567 H 700.839 -1.0546 -3.73912 0
M  V30 7568 H 702.511 -3.54335 -2.95372 0
M  V30 7569 H 700.754 -3.37613 -2.72397 0
M  V30 7570 H 701.425 -3.38835 -4.3577 0
M  V30 7571 H 703.901 -1.52369 -3.87199 0
M  V30 7572 H 702.777 -1.59012 -5.25363 0
M  V30 7573 H 703.038 -0.0658891 -4.42051 0
M  V30 7574 N 702.098 1.27442 -0.927168 0
M  V30 7575 C 703.323 1.99036 -0.583042 0
M  V30 7576 C 703.748 1.68711 0.83176 0
M  V30 7577 O 703.106 0.927081 1.55804 0
M  V30 7578 C 703.154 3.51271 -0.814925 0
M  V30 7579 O 702.258 4.12226 0.119742 0
M  V30 7580 H 701.599 0.624883 -0.224538 0
M  V30 7581 H 704.129 1.62263 -1.24628 0
M  V30 7582 H 704.139 4.01411 -0.730282 0
M  V30 7583 H 702.814 3.72676 -1.84623 0
M  V30 7584 H 701.391 3.72897 -0.0147688 0
M  V30 7585 N 703.576 0.692616 1.41565 0
M  V30 7586 C 704.486 0.0258451 2.34586 0
M  V30 7587 C 705.502 -0.769324 1.56069 0
M  V30 7588 O 706.678 -0.707563 1.88562 0
M  V30 7589 C 703.743 -0.901289 3.3478 0
M  V30 7590 C 702.804 -0.0986579 4.29187 0
M  V30 7591 C 702.037 -0.981634 5.24595 0
M  V30 7592 O 702.26 -2.22115 5.25377 0
M  V30 7593 O 701.194 -0.432892 6.00341 0
M  V30 7594 H 705.02 0.792537 2.93177 0
M  V30 7595 H 702.605 0.452935 1.42369 0
M  V30 7596 H 704.487 -1.43302 3.96286 0
M  V30 7597 H 703.162 -1.64752 2.78637 0
M  V30 7598 H 702.069 0.477604 3.71039 0
M  V30 7599 H 703.402 0.608848 4.8842 0
M  V30 7600 N 705.054 -1.51416 0.437162 0
M  V30 7601 C 706.001 -2.27743 -0.374374 0
M  V30 7602 C 706.971 -1.31327 -1.01698 0
M  V30 7603 O 708.156 -1.60229 -1.03592 0
M  V30 7604 C 705.296 -3.12241 -1.46969 0
M  V30 7605 C 704.409 -4.23651 -0.845236 0
M  V30 7606 C 703.544 -4.95458 -1.91559 0
M  V30 7607 C 702.583 -5.98789 -1.26956 0
M  V30 7608 N 701.72 -6.64005 -2.28126 0
M  V30 7609 H 706.56 -2.96654 0.282892 0
M  V30 7610 H 704.097 -1.46319 0.151352 0
M  V30 7611 H 706.055 -3.59556 -2.11602 0
M  V30 7612 H 704.685 -2.45445 -2.09659 0
M  V30 7613 H 703.737 -3.803 -0.0872059 0
M  V30 7614 H 705.049 -4.97683 -0.333582 0
M  V30 7615 H 704.203 -5.46321 -2.63854 0
M  V30 7616 H 702.942 -4.21055 -2.46097 0
M  V30 7617 H 701.947 -5.47219 -0.53207 0
M  V30 7618 H 703.172 -6.75149 -0.731509 0
M  V30 7619 H 701.118 -5.92415 -2.81745 0
M  V30 7620 H 701.035 -7.33802 -1.81852 0
M  V30 7621 H 702.303 -7.19498 -2.99905 0
M  V30 7622 N 706.532 -0.168513 -1.56696 0
M  V30 7623 C 707.778 0.471368 -1.97863 0
M  V30 7624 C 708.133 1.61049 -1.05267 0
M  V30 7625 O 707.426 1.9138 -0.0917908 0
M  V30 7626 C 707.62 1.00441 -3.42996 0
M  V30 7627 C 707.449 -0.081524 -4.49626 0
M  V30 7628 C 706.219 -0.530242 -5.0251 0
M  V30 7629 C 708.417 -0.880897 -5.067 0
M  V30 7630 N 706.399 -1.59678 -5.9277 0
M  V30 7631 C 707.77 -1.79742 -5.93374 0
M  V30 7632 C 709.825 -0.92629 -4.89208 0
M  V30 7633 C 708.528 -2.7555 -6.64428 0
M  V30 7634 C 710.554 -1.8723 -5.6098 0
M  V30 7635 C 709.916 -2.77631 -6.4738 0
M  V30 7636 H 706.015 0.140671 -0.769244 0
M  V30 7637 H 708.599 -0.268084 -1.92846 0
M  V30 7638 H 706.77 1.71339 -3.48565 0
M  V30 7639 H 708.502 1.61269 -3.7118 0
M  V30 7640 H 705.257 -0.12847 -4.73426 0
M  V30 7641 H 705.681 -2.13045 -6.42605 0
M  V30 7642 H 710.323 -0.241412 -4.2211 0
M  V30 7643 H 708.041 -3.45027 -7.30741 0
M  V30 7644 H 711.627 -1.91349 -5.49433 0
M  V30 7645 H 710.507 -3.4964 -7.01941 0
M  V30 7646 N 708.01 1.57248 0.105221 0
M  V30 7647 C 708.94 2.04374 1.12931 0
M  V30 7648 C 709.921 0.93074 1.42377 0
M  V30 7649 O 711.106 1.20136 1.52581 0
M  V30 7650 C 708.236 2.45967 2.45189 0
M  V30 7651 C 707.19 3.60838 2.30174 0
M  V30 7652 C 706.516 3.88374 3.67518 0
M  V30 7653 C 707.816 4.92084 1.75073 0
M  V30 7654 H 709.51 2.9018 0.737287 0
M  V30 7655 H 707.056 1.39601 0.353211 0
M  V30 7656 H 709.009 2.77542 3.17094 0
M  V30 7657 H 707.733 1.57148 2.86308 0
M  V30 7658 H 706.392 3.29493 1.60716 0
M  V30 7659 H 706.04 2.96739 4.06147 0
M  V30 7660 H 705.74 4.65703 3.58321 0
M  V30 7661 H 707.264 4.22415 4.40906 0
M  V30 7662 H 708.678 5.22106 2.36809 0
M  V30 7663 H 707.075 5.73507 1.76662 0
M  V30 7664 H 708.145 4.79684 0.709347 0
M  V30 7665 N 709.488 -0.375779 1.53054 0
M  V30 7666 C 710.418 -1.46598 1.81745 0
M  V30 7667 C 711.399 -1.56337 0.670286 0
M  V30 7668 O 712.584 -1.71071 0.919158 0
M  V30 7669 C 709.714 -2.84058 1.99821 0
M  V30 7670 C 708.668 -2.8915 3.15557 0
M  V30 7671 C 707.994 -4.29187 3.18908 0
M  V30 7672 C 709.294 -2.57595 4.54359 0
M  V30 7673 H 710.988 -1.22837 2.73041 0
M  V30 7674 H 708.534 -0.589485 1.31381 0
M  V30 7675 H 710.487 -3.60342 2.18475 0
M  V30 7676 H 709.211 -3.09184 1.05226 0
M  V30 7677 H 707.87 -2.15316 2.96706 0
M  V30 7678 H 707.518 -4.51374 2.2197 0
M  V30 7679 H 707.218 -4.33512 3.96662 0
M  V30 7680 H 708.742 -5.07359 3.39734 0
M  V30 7681 H 710.156 -3.23595 4.73243 0
M  V30 7682 H 708.553 -2.73252 5.34279 0
M  V30 7683 H 709.623 -1.52882 4.60169 0
M  V30 7684 N 710.966 -1.44241 -0.634997 0
M  V30 7685 C 712.377 -1.41622 -1.21655 0
M  V30 7686 C 712.728 -0.129584 -1.95772 0
M  V30 7687 O 711.853 0.770225 -2.02229 0
M  V30 7688 C 712.448 -2.56557 -2.21278 0
M  V30 7689 C 711.007 -2.57145 -2.7487 0
M  V30 7690 C 710.154 -2.33354 -1.49804 0
M  V30 7691 H 713.105 -1.52878 -0.425905 0
M  V30 7692 H 713.126 -2.29089 -3.03807 0
M  V30 7693 H 712.638 -3.50186 -1.67306 0
M  V30 7694 H 710.739 -1.67447 -3.32855 0
M  V30 7695 H 710.852 -3.55507 -3.21172 0
M  V30 7696 H 709.216 -1.82372 -1.77799 0
M  V30 7697 H 709.999 -3.29092 -0.977402 0
M  V30 7698 N 712.444 0.87505 -1.31075 0
M  V30 7699 C 713.69 1.63009 -1.20647 0
M  V30 7700 C 714.023 1.9276 0.236045 0
M  V30 7701 O 713.298 1.55559 1.16754 0
M  V30 7702 C 713.581 2.96357 -2.0456 0
M  V30 7703 C 713.434 2.73516 -3.57084 0
M  V30 7704 C 714.753 3.974 -1.89107 0
M  V30 7705 H 711.872 0.591518 -0.439631 0
M  V30 7706 H 714.514 1.0119 -1.60812 0
M  V30 7707 H 712.664 3.49119 -1.70435 0
M  V30 7708 H 714.336 2.27465 -4.01319 0
M  V30 7709 H 712.579 2.0784 -3.80769 0
M  V30 7710 H 713.25 3.68377 -4.11099 0
M  V30 7711 H 715.726 3.5383 -2.18961 0
M  V30 7712 H 714.602 4.88596 -2.5013 0
M  V30 7713 H 714.863 4.33794 -0.85296 0
M  V30 7714 N 713.922 1.13953 1.08869 0
M  V30 7715 C 714.852 0.844824 2.17681 0
M  V30 7716 C 715.833 -0.198213 1.68941 0
M  V30 7717 O 717.018 -0.0559073 1.9412 0
M  V30 7718 C 714.148 0.316325 3.45856 0
M  V30 7719 C 713.102 1.29426 4.07962 0
M  V30 7720 C 712.428 0.625275 5.31031 0
M  V30 7721 C 713.728 2.65484 4.49795 0
M  V30 7722 H 715.422 1.75471 2.42591 0
M  V30 7723 H 712.968 0.845116 1.16592 0
M  V30 7724 H 714.921 0.0977876 4.21287 0
M  V30 7725 H 713.645 -0.628972 3.20486 0
M  V30 7726 H 712.304 1.49889 3.34558 0
M  V30 7727 H 711.952 -0.325678 5.01945 0
M  V30 7728 H 711.652 1.27777 5.73539 0
M  V30 7729 H 713.176 0.416152 6.0918 0
M  V30 7730 H 714.59 2.48957 5.16424 0
M  V30 7731 H 712.987 3.26963 5.03205 0
M  V30 7732 H 714.057 3.22717 3.61914 0
M  V30 7733 N 715.4 -1.26948 0.933913 0
M  V30 7734 C 716.628 -1.98186 0.59414 0
M  V30 7735 C 717.043 -1.69614 -0.829257 0
M  V30 7736 O 716.4 -0.960213 -1.55197 0
M  V30 7737 C 716.451 -3.52123 0.818026 0
M  V30 7738 O 716.172 -3.79698 2.18543 0
M  V30 7739 C 717.673 -4.40608 0.48781 0
M  V30 7740 H 714.893 -0.632305 0.224569 0
M  V30 7741 H 717.437 -1.61646 1.25263 0
M  V30 7742 H 715.592 -3.86851 0.206246 0
M  V30 7743 H 716.006 -4.7426 2.24005 0
M  V30 7744 H 717.48 -5.47606 0.695126 0
M  V30 7745 H 717.957 -4.35394 -0.576913 0
M  V30 7746 H 718.563 -4.11411 1.078 0
M  V30 7747 N 716.879 -0.700114 -1.41195 0
M  V30 7748 C 718.125 -0.242122 -2.01954 0
M  V30 7749 C 718.48 1.14697 -1.54475 0
M  V30 7750 O 717.773 1.76392 -0.748095 0
M  V30 7751 C 717.967 -0.243986 -3.56566 0
M  V30 7752 C 717.796 -1.63172 -4.19053 0
M  V30 7753 C 716.566 -2.23566 -4.53152 0
M  V30 7754 C 718.764 -2.57916 -4.44954 0
M  V30 7755 N 716.746 -3.54856 -5.00949 0
M  V30 7756 C 718.117 -3.73892 -4.94576 0
M  V30 7757 C 720.172 -2.56125 -4.26971 0
M  V30 7758 C 718.875 -4.88363 -5.28104 0
M  V30 7759 C 720.901 -3.69712 -4.61592 0
M  V30 7760 C 720.263 -4.84418 -5.11389 0
M  V30 7761 H 716.362 -0.134088 -0.770418 0
M  V30 7762 H 718.946 -0.918576 -1.71669 0
M  V30 7763 H 717.117 0.401971 -3.86314 0
M  V30 7764 H 718.849 0.229261 -4.0405 0
M  V30 7765 H 715.604 -1.75809 -4.39759 0
M  V30 7766 H 716.028 -4.22167 -5.29249 0
M  V30 7767 H 720.67 -1.68656 -3.87705 0
M  V30 7768 H 718.388 -5.76488 -5.66292 0
M  V30 7769 H 721.974 -3.69583 -4.49332 0
M  V30 7770 H 720.854 -5.70855 -5.37675 0
M  V30 7771 N 718.357 1.51182 -0.445186 0
M  V30 7772 C 719.634 1.9478 0.178965 0
M  V30 7773 C 720.014 1.38428 1.59376 0
M  V30 7774 O 719.362 0.574552 2.21159 0
M  V30 7775 C 719.572 3.48683 0.148711 0
M  V30 7776 C 720.92 4.23152 0.35042 0
M  V30 7777 O 721.944 3.55479 0.226474 0
M  V30 7778 O 720.803 5.4322 0.597893 0
M  V30 7779 H 717.897 0.817387 0.12573 0
M  V30 7780 H 720.443 1.62051 -0.503729 0
M  V30 7781 H 719.215 3.82176 -0.84009 0
M  V30 7782 H 718.838 3.87875 0.873979 0
M  V30 7783 N 719.835 0.176821 1.56605 0
M  V30 7784 C 720.767 -0.782836 2.15417 0
M  V30 7785 C 721.78 -1.18982 1.11117 0
M  V30 7786 O 722.969 -1.12872 1.38283 0
M  V30 7787 C 720.069 -2.06596 2.68647 0
M  V30 7788 C 719.242 -1.82167 3.9766 0
M  V30 7789 C 718.301 -2.94751 4.35899 0
M  V30 7790 O 717.327 -2.65148 5.03672 0
M  V30 7791 N 718.529 -4.2267 3.97907 0
M  V30 7792 H 721.294 -0.280012 2.98389 0
M  V30 7793 H 718.855 -0.00577529 1.61899 0
M  V30 7794 H 720.847 -2.81018 2.91223 0
M  V30 7795 H 719.417 -2.48054 1.90232 0
M  V30 7796 H 718.637 -0.916208 3.83405 0
M  V30 7797 H 719.925 -1.6322 4.81909 0
M  V30 7798 H 719.323 -4.4958 3.43357 0
M  V30 7799 H 717.88 -4.93778 4.25472 0
M  V30 7800 N 721.313 -1.57302 -0.09688 0
M  V30 7801 C 722.561 -1.8563 -0.799117 0
M  V30 7802 C 722.882 -0.765263 -1.79356 0
M  V30 7803 O 722.152 0.208657 -1.94786 0
M  V30 7804 H 720.732 -0.684937 -0.298111 0
M  V30 7805 H 723.394 -1.9474 -0.0789341 0
M  V30 7806 H 722.49 -2.82305 -1.3308 0
M  V30 7807 N 722.791 0.367657 -1.53252 0
M  V30 7808 C 724.207 0.709191 -1.42978 0
M  V30 7809 C 724.407 1.93352 -0.567193 0
M  V30 7810 O 723.463 2.52453 -0.0488349 0
M  V30 7811 C 724.776 0.924338 -2.86141 0
M  V30 7812 C 726.324 1.02448 -2.95759 0
M  V30 7813 C 726.799 1.27211 -4.39979 0
M  V30 7814 N 728.29 1.33986 -4.43398 0
M  V30 7815 C 729.025 1.54852 -5.52095 0
M  V30 7816 N 728.521 1.73049 -6.7084 0
M  V30 7817 N 730.314 1.57205 -5.39669 0
M  V30 7818 H 722.465 -0.437669 -2.07842 0
M  V30 7819 H 724.728 -0.133737 -0.938519 0
M  V30 7820 H 724.434 0.0965455 -3.51567 0
M  V30 7821 H 724.308 1.83302 -3.29667 0
M  V30 7822 H 726.695 1.84282 -2.30487 0
M  V30 7823 H 726.776 0.0932301 -2.5563 0
M  V30 7824 H 726.42 0.458792 -5.05824 0
M  V30 7825 H 726.35 2.21654 -4.77679 0
M  V30 7826 H 728.841 1.21545 -3.5782 0
M  V30 7827 H 729.154 1.88538 -7.49449 0
M  V30 7828 H 727.499 1.70231 -6.7383 0
M  V30 7829 H 730.69 1.42555 -4.45865 0
M  V30 7830 H 730.863 1.73126 -6.24445 0
M  V30 7831 N 724.269 1.44576 0.627338 0
M  V30 7832 C 725.201 1.47724 1.75243 0
M  V30 7833 C 726.214 0.370193 1.58535 0
M  V30 7834 O 727.403 0.636151 1.66779 0
M  V30 7835 C 724.503 1.2991 3.13012 0
M  V30 7836 C 723.676 2.5393 3.56143 0
M  V30 7837 C 722.735 2.30961 4.72804 0
M  V30 7838 O 721.761 3.04469 4.80923 0
M  V30 7839 N 722.963 1.34261 5.6476 0
M  V30 7840 H 725.728 2.44718 1.73012 0
M  V30 7841 H 723.289 1.40064 0.812022 0
M  V30 7842 H 725.281 1.12385 3.88782 0
M  V30 7843 H 723.851 0.412668 3.09864 0
M  V30 7844 H 723.071 2.86707 2.70542 0
M  V30 7845 H 724.359 3.36411 3.81713 0
M  V30 7846 H 723.757 0.735573 5.60897 0
M  V30 7847 H 722.314 1.22713 6.40144 0
M  V30 7848 N 725.747 -0.868086 1.31537 0
M  V30 7849 C 726.993 -1.62367 1.2151 0
M  V30 7850 C 727.326 -1.92883 -0.225819 0
M  V30 7851 O 726.601 -1.56176 -1.15927 0
M  V30 7852 C 726.884 -2.95268 2.06129 0
M  V30 7853 C 726.737 -2.71619 3.58529 0
M  V30 7854 C 728.056 -3.96391 1.91212 0
M  V30 7855 H 725.175 -0.589178 0.442762 0
M  V30 7856 H 727.817 -1.00336 1.61347 0
M  V30 7857 H 725.967 -3.4821 1.72284 0
M  V30 7858 H 727.639 -2.25334 4.0252 0
M  V30 7859 H 725.882 -2.05817 3.81866 0
M  V30 7860 H 726.553 -3.66192 4.13047 0
M  V30 7861 H 729.029 -3.52663 2.20834 0
M  V30 7862 H 727.905 -4.87263 2.52718 0
M  V30 7863 H 728.166 -4.33335 0.875953 0
M  V30 7864 N 727.225 -1.14528 -1.08264 0
M  V30 7865 C 728.173 -0.829201 -2.17318 0
M  V30 7866 C 729.167 0.193521 -1.68291 0
M  V30 7867 O 730.373 0.0494744 -1.79932 0
M  V30 7868 H 726.748 -0.250435 -0.709074 0
M  V30 7869 H 728.719 -1.75683 -2.41201 0
M  V30 7870 C 727.468 -0.324663 -3.46181 0
M  V30 7871 H 726.791 -1.10299 -3.84284 0
M  V30 7872 H 728.231 -0.142059 -4.23762 0
M  V30 7873 C 726.69 0.952033 -3.23169 0
M  V30 7874 O 727.22 2.02549 -3.46896 0
M  V30 7875 N 725.426 0.887854 -2.76705 0
M  V30 7876 H 724.973 0.0141402 -2.57596 0
M  V30 7877 H 724.931 1.74263 -2.61686 0
M  V30 7878 N 728.703 1.26451 -0.940633 0
M  V30 7879 C 729.65 2.264 -0.448497 0
M  V30 7880 C 730.62 1.5866 0.491546 0
M  V30 7881 O 731.805 1.86389 0.407874 0
M  V30 7882 C 728.945 3.43956 0.280715 0
M  V30 7883 C 728.058 4.26374 -0.694937 0
M  V30 7884 C 727.193 5.31171 0.0554186 0
M  V30 7885 C 726.232 6.05266 -0.912091 0
M  V30 7886 N 725.369 7.01833 -0.193524 0
M  V30 7887 H 730.209 2.67869 -1.30576 0
M  V30 7888 H 727.746 1.31707 -0.655112 0
M  V30 7889 H 729.704 4.10941 0.71994 0
M  V30 7890 H 728.334 3.03403 1.10212 0
M  V30 7891 H 727.386 3.59183 -1.25267 0
M  V30 7892 H 728.698 4.77748 -1.43382 0
M  V30 7893 H 727.852 6.04166 0.553951 0
M  V30 7894 H 726.591 4.80634 0.827183 0
M  V30 7895 H 725.596 5.31099 -1.42175 0
M  V30 7896 H 726.821 6.57893 -1.68385 0
M  V30 7897 H 724.767 6.53607 0.559758 0
M  V30 7898 H 724.684 7.50957 -0.871744 0
M  V30 7899 H 725.952 7.78983 0.283932 0
M  V30 7900 N 730.181 0.707592 1.40822 0
M  V30 7901 C 731.128 0.0499029 2.30746 0
M  V30 7902 C 732.098 -0.758718 1.47759 0
M  V30 7903 O 733.283 -0.724299 1.76518 0
M  V30 7904 C 730.423 -0.871756 3.33908 0
M  V30 7905 C 729.536 -0.0534655 4.31967 0
M  V30 7906 C 728.671 -0.973869 5.22197 0
M  V30 7907 C 727.71 -0.149194 6.11918 0
M  V30 7908 N 726.847 -1.02404 6.94592 0
M  V30 7909 H 731.687 0.822461 2.86426 0
M  V30 7910 H 729.224 0.417285 1.41057 0
M  V30 7911 H 731.182 -1.42028 3.9228 0
M  V30 7912 H 729.812 -1.61058 2.7975 0
M  V30 7913 H 728.864 0.612142 3.75442 0
M  V30 7914 H 730.176 0.585354 4.95353 0
M  V30 7915 H 729.33 -1.59121 5.85462 0
M  V30 7916 H 728.069 -1.64652 4.59065 0
M  V30 7917 H 727.074 0.481137 5.47691 0
M  V30 7918 H 728.299 0.519841 6.77107 0
M  V30 7919 H 726.245 -1.6825 6.34057 0
M  V30 7920 H 726.162 -0.441076 7.54712 0
M  V30 7921 H 727.43 -1.62782 7.62314 0
M  V30 7922 N 731.66 -1.50943 0.453197 0
M  V30 7923 C 732.59 -2.31005 -0.34044 0
M  V30 7924 C 733.571 -1.37112 -1.00669 0
M  V30 7925 O 734.756 -1.66033 -1.0073 0
M  V30 7926 C 731.886 -3.16358 -1.433 0
M  V30 7927 C 730.84 -4.18658 -0.889363 0
M  V30 7928 C 730.166 -4.92633 -2.07887 0
M  V30 7929 C 731.466 -5.22227 0.0871142 0
M  V30 7930 H 733.16 -2.97601 0.327723 0
M  V30 7931 H 730.706 -1.43119 0.159054 0
M  V30 7932 H 732.659 -3.71155 -1.99555 0
M  V30 7933 H 731.383 -2.47613 -2.12968 0
M  V30 7934 H 730.042 -3.64936 -0.348915 0
M  V30 7935 H 729.69 -4.20376 -2.76211 0
M  V30 7936 H 729.39 -5.61819 -1.72143 0
M  V30 7937 H 730.914 -5.50258 -2.64666 0
M  V30 7938 H 732.328 -5.72001 -0.385656 0
M  V30 7939 H 730.725 -5.99032 0.357926 0
M  V30 7940 H 731.795 -4.74077 1.01879 0
M  V30 7941 N 733.138 -0.185124 -1.56509 0
M  V30 7942 C 734.086 0.756505 -2.19954 0
M  V30 7943 C 735.08 1.22725 -1.16769 0
M  V30 7944 O 736.286 1.1913 -1.34937 0
M  V30 7945 H 732.661 0.262279 -0.704779 0
M  V30 7946 H 734.632 0.197587 -2.97745 0
M  V30 7947 C 733.381 1.96975 -2.86524 0
M  V30 7948 H 732.704 1.61658 -3.65659 0
M  V30 7949 H 734.144 2.60719 -3.34367 0
M  V30 7950 C 732.603 2.80219 -1.87027 0
M  V30 7951 O 733.133 3.77821 -1.36433 0
M  V30 7952 N 731.339 2.4551 -1.55477 0
M  V30 7953 H 730.886 1.66199 -1.96813 0
M  V30 7954 H 730.844 3.01493 -0.891597 0
M  V30 7955 N 734.616 1.57351 0.0885366 0
M  V30 7956 C 735.563 2.02523 1.10693 0
M  V30 7957 C 736.533 0.902736 1.39427 0
M  V30 7958 O 737.718 1.16921 1.50779 0
M  V30 7959 C 734.858 2.46013 2.42016 0
M  V30 7960 C 733.971 3.7181 2.19957 0
M  V30 7961 C 733.106 4.04152 3.44724 0
M  V30 7962 C 732.145 5.2304 3.17956 0
M  V30 7963 N 731.282 5.51102 4.35007 0
M  V30 7964 H 736.122 2.89302 0.714742 0
M  V30 7965 H 733.659 1.43084 0.341378 0
M  V30 7966 H 735.617 2.69274 3.18665 0
M  V30 7967 H 734.247 1.62235 2.79069 0
M  V30 7968 H 733.299 3.55987 1.34079 0
M  V30 7969 H 734.611 4.58604 1.96173 0
M  V30 7970 H 733.765 4.28225 4.29777 0
M  V30 7971 H 732.504 3.15893 3.71568 0
M  V30 7972 H 731.509 4.98781 2.31296 0
M  V30 7973 H 732.734 6.12902 2.92451 0
M  V30 7974 H 730.68 4.65802 4.61914 0
M  V30 7975 H 730.597 6.3228 4.14437 0
M  V30 7976 H 731.865 5.79714 5.21106 0
M  V30 7977 N 736.094 -0.359525 1.53444 0
M  V30 7978 C 737.322 -1.12198 1.73837 0
M  V30 7979 C 737.737 -1.82854 0.470107 0
M  V30 7980 O 737.094 -1.73781 -0.557349 0
M  V30 7981 C 737.145 -2.14769 2.90786 0
M  V30 7982 O 736.866 -1.46989 4.12706 0
M  V30 7983 C 738.367 -3.03514 3.231 0
M  V30 7984 H 735.587 -0.33524 0.581253 0
M  V30 7985 H 738.131 -0.416598 2.00212 0
M  V30 7986 H 736.286 -2.80896 2.66788 0
M  V30 7987 H 736.7 -2.15378 4.78239 0
M  V30 7988 H 738.174 -3.71453 4.08322 0
M  V30 7989 H 738.651 -3.68658 2.38721 0
M  V30 7990 H 739.257 -2.42996 3.49046 0
M  V30 7991 N 737.572 -1.44907 -0.619662 0
M  V30 7992 C 738.849 -1.38766 -1.37852 0
M  V30 7993 C 739.229 -0.0521393 -2.11036 0
M  V30 7994 O 738.577 0.965613 -2.07095 0
M  V30 7995 C 738.787 -2.59344 -2.33541 0
M  V30 7996 C 740.135 -3.03909 -2.96521 0
M  V30 7997 O 741.159 -2.59631 -2.43865 0
M  V30 7998 O 740.018 -3.80713 -3.92071 0
M  V30 7999 H 737.112 -0.550083 -0.617525 0
M  V30 8000 H 739.658 -1.57015 -0.643759 0
M  V30 8001 H 738.43 -3.48142 -1.78642 0
M  V30 8002 H 738.053 -2.43367 -3.14417 0
M  V30 8003 N 739.05 0.861098 -1.31996 0
M  V30 8004 C 739.98 1.98482 -1.22993 0
M  V30 8005 C 740.961 1.6971 -0.115168 0
M  V30 8006 O 742.146 1.91849 -0.30126 0
M  V30 8007 C 739.276 3.34179 -0.945615 0
M  V30 8008 C 738.23 3.77284 -2.02091 0
M  V30 8009 C 737.556 5.1054 -1.58912 0
M  V30 8010 C 738.856 3.93439 -3.43515 0
M  V30 8011 H 740.55 2.06271 -2.17008 0
M  V30 8012 H 738.096 0.991043 -1.04472 0
M  V30 8013 H 740.049 4.12338 -0.869206 0
M  V30 8014 H 738.773 3.26586 0.0301849 0
M  V30 8015 H 737.432 3.01371 -2.08737 0
M  V30 8016 H 737.08 4.99397 -0.600942 0
M  V30 8017 H 736.78 5.40352 -2.30854 0
M  V30 8018 H 738.304 5.91199 -1.52696 0
M  V30 8019 H 739.718 4.6197 -3.39495 0
M  V30 8020 H 738.115 4.34661 -4.13751 0
M  V30 8021 H 739.185 2.96548 -3.8365 0
M  V30 8022 N 740.528 1.15101 1.07655 0
M  V30 8023 C 741.491 0.847625 2.12951 0
M  V30 8024 C 742.491 -0.151227 1.60087 0
M  V30 8025 O 743.681 0.0780399 1.74025 0
M  V30 8026 C 740.813 0.265 3.39868 0
M  V30 8027 H 742.006 1.7809 2.41296 0
M  V30 8028 H 739.559 0.958072 1.23494 0
M  V30 8029 H 740.294 -0.676625 3.17163 0
M  V30 8030 H 740.079 0.984554 3.79538 0
M  V30 8031 H 741.569 0.0702121 4.17541 0
M  V30 8032 N 742.006 -1.2595 0.947325 0
M  V30 8033 C 742.953 -2.26159 0.460497 0
M  V30 8034 C 743.923 -1.58919 -0.483125 0
M  V30 8035 O 745.108 -1.86603 -0.397983 0
M  V30 8036 C 742.248 -3.441 -0.26247 0
M  V30 8037 C 741.361 -4.25999 0.717539 0
M  V30 8038 C 740.496 -5.31193 -0.0272486 0
M  V30 8039 C 739.535 -6.04774 0.944177 0
M  V30 8040 N 738.672 -7.01721 0.230741 0
M  V30 8041 H 743.512 -2.67173 1.31995 0
M  V30 8042 H 741.049 -1.31358 0.662088 0
M  V30 8043 H 743.007 -4.11317 -0.698137 0
M  V30 8044 H 741.637 -3.03983 -1.08602 0
M  V30 8045 H 740.689 -3.58513 1.27171 0
M  V30 8046 H 742.001 -4.76981 1.45913 0
M  V30 8047 H 741.155 -6.04451 -0.521903 0
M  V30 8048 H 739.894 -4.81066 -0.801682 0
M  V30 8049 H 738.899 -5.30338 1.4499 0
M  V30 8050 H 740.124 -6.56991 1.71872 0
M  V30 8051 H 738.07 -6.53895 -0.525088 0
M  V30 8052 H 737.987 -7.50484 0.911556 0
M  V30 8053 H 739.255 -7.79122 -0.242616 0
M  V30 8054 N 743.484 -0.715051 -1.40445 0
M  V30 8055 C 744.414 -0.0768699 -2.33373 0
M  V30 8056 C 745.395 0.746109 -1.52863 0
M  V30 8057 O 746.58 0.695142 -1.81332 0
M  V30 8058 C 743.71 0.846014 -3.36838 0
M  V30 8059 C 742.664 0.128694 -4.27806 0
M  V30 8060 C 741.99 1.16726 -5.21804 0
M  V30 8061 C 743.29 -1.01679 -5.12307 0
M  V30 8062 H 744.984 -0.853061 -2.8699 0
M  V30 8063 H 742.53 -0.41167 -1.3799 0
M  V30 8064 H 744.483 1.30185 -4.00786 0
M  V30 8065 H 743.207 1.6541 -2.81615 0
M  V30 8066 H 741.866 -0.307314 -3.6531 0
M  V30 8067 H 741.514 1.96838 -4.62887 0
M  V30 8068 H 741.214 0.692188 -5.83509 0
M  V30 8069 H 742.738 1.62321 -5.88629 0
M  V30 8070 H 744.152 -0.640337 -5.69713 0
M  V30 8071 H 742.549 -1.4202 -5.83053 0
M  V30 8072 H 743.619 -1.84769 -4.48317 0
M  V30 8073 N 744.962 1.50701 -0.461195 0
M  V30 8074 C 745.892 2.31182 0.328184 0
M  V30 8075 C 746.873 1.37644 0.999408 0
M  V30 8076 O 748.058 1.66565 0.99848 0
M  V30 8077 C 745.188 3.17113 1.41621 0
M  V30 8078 C 744.142 4.19124 0.867148 0
M  V30 8079 C 743.468 4.93728 2.05272 0
M  V30 8080 C 744.768 5.22174 -0.114808 0
M  V30 8081 H 746.462 2.97423 -0.343501 0
M  V30 8082 H 744.008 1.43033 -0.166641 0
M  V30 8083 H 745.961 3.72208 1.97584 0
M  V30 8084 H 744.685 2.48739 2.11652 0
M  V30 8085 H 743.344 3.65116 0.329557 0
M  V30 8086 H 742.992 4.21835 2.73978 0
M  V30 8087 H 742.692 5.62724 1.69161 0
M  V30 8088 H 744.216 5.51654 2.61744 0
M  V30 8089 H 745.63 5.72198 0.355316 0
M  V30 8090 H 744.027 5.98833 -0.389689 0
M  V30 8091 H 745.097 4.7353 -1.04391 0
M  V30 8092 N 746.441 0.193421 1.56409 0
M  V30 8093 C 747.69 -0.445995 1.96707 0
M  V30 8094 C 748.003 -1.62876 1.08309 0
M  V30 8095 O 749.209 -2.33586 1.38383 0
M  V30 8096 C 747.665 -0.844863 3.49843 0
M  V30 8097 C 747.273 0.31352 4.46902 0
M  V30 8098 C 749.017 -1.45146 3.98915 0
M  V30 8099 C 746.924 -0.106214 5.91305 0
M  V30 8100 H 745.854 -0.170398 0.734493 0
M  V30 8101 H 748.505 0.285172 1.81271 0
M  V30 8102 H 746.887 -1.63265 3.60778 0
M  V30 8103 H 748.061 1.09103 4.47698 0
M  V30 8104 H 746.376 0.8315 4.08014 0
M  V30 8105 H 748.973 -1.77792 5.04276 0
M  V30 8106 H 749.316 -2.35734 3.43126 0
M  V30 8107 H 749.849 -0.727675 3.91088 0
M  V30 8108 H 746.588 0.765442 6.51016 0
M  V30 8109 H 746.108 -0.848623 5.93766 0
M  V30 8110 H 747.787 -0.542588 6.44721 0
M  V30 8111 N 747.919 -1.57396 -0.0801906 0
M  V30 8112 C 749.166 -1.86836 -0.780927 0
M  V30 8113 C 749.494 -0.784012 -1.77999 0
M  V30 8114 O 748.749 0.220881 -1.94449 0
M  V30 8115 C 749.048 -3.22915 -1.53169 0
M  V30 8116 C 748.714 -4.45843 -0.67339 0
M  V30 8117 C 747.376 -4.79213 -0.436829 0
M  V30 8118 C 749.728 -5.21142 -0.0776786 0
M  V30 8119 C 747.056 -5.853 0.405062 0
M  V30 8120 C 749.408 -6.28119 0.751619 0
M  V30 8121 C 748.072 -6.59995 0.998131 0
M  V30 8122 H 747.342 -0.683682 -0.285761 0
M  V30 8123 H 749.989 -1.91454 -0.0419435 0
M  V30 8124 H 748.294 -3.14049 -2.34265 0
M  V30 8125 H 749.991 -3.42926 -2.07853 0
M  V30 8126 H 746.581 -4.19721 -0.867891 0
M  V30 8127 H 750.765 -4.95682 -0.247572 0
M  V30 8128 H 746.021 -6.084 0.60488 0
M  V30 8129 H 750.195 -6.8563 1.22 0
M  V30 8130 H 747.822 -7.42027 1.65227 0
M  V30 8131 N 749.397 0.351382 -1.53633 0
M  V30 8132 C 750.627 1.11113 -1.74176 0
M  V30 8133 C 751.035 1.83084 -0.477154 0
M  V30 8134 O 750.378 1.74941 0.560483 0
M  V30 8135 C 750.44 2.17521 -2.86225 0
M  V30 8136 C 750.104 1.65193 -4.26099 0
M  V30 8137 C 751.101 1.10842 -5.07947 0
M  V30 8138 C 748.786 1.70277 -4.72558 0
M  V30 8139 C 750.78 0.622689 -6.34351 0
M  V30 8140 C 748.467 1.21316 -5.98937 0
M  V30 8141 C 749.465 0.674033 -6.79666 0
M  V30 8142 O 749.153 0.191696 -8.03671 0
M  V30 8143 H 748.885 0.33756 -0.585687 0
M  V30 8144 H 751.439 0.411786 -2.0123 0
M  V30 8145 H 749.669 2.90991 -2.54678 0
M  V30 8146 H 751.358 2.78999 -2.94812 0
M  V30 8147 H 752.124 1.06243 -4.7322 0
M  V30 8148 H 748.003 2.11181 -4.09785 0
M  V30 8149 H 751.547 0.201216 -6.9731 0
M  V30 8150 H 747.444 1.25613 -6.3316 0
M  V30 8151 H 748.212 0.309712 -8.17914 0
M  V30 8152 N 750.875 1.45233 0.611969 0
M  V30 8153 C 751.822 1.5357 1.72293 0
M  V30 8154 C 752.792 0.381912 1.6165 0
M  V30 8155 O 753.977 0.594765 1.81293 0
M  V30 8156 C 751.117 1.50419 3.10593 0
M  V30 8157 C 750.23 2.76316 3.32074 0
M  V30 8158 C 749.365 2.64866 4.60456 0
M  V30 8159 C 748.404 3.85838 4.7518 0
M  V30 8160 N 747.541 3.72949 5.94856 0
M  V30 8161 H 752.381 2.4848 1.64504 0
M  V30 8162 H 749.918 1.23302 0.802191 0
M  V30 8163 H 751.876 1.4658 3.90602 0
M  V30 8164 H 750.506 0.590621 3.17351 0
M  V30 8165 H 749.558 2.90261 2.45872 0
M  V30 8166 H 750.87 3.66055 3.38829 0
M  V30 8167 H 750.024 2.58969 5.48653 0
M  V30 8168 H 748.763 1.72719 4.56092 0
M  V30 8169 H 747.768 3.92099 3.85407 0
M  V30 8170 H 748.993 4.79045 4.81344 0
M  V30 8171 H 746.939 2.83567 5.91545 0
M  V30 8172 H 746.856 4.56319 6.02751 0
M  V30 8173 H 748.124 3.70976 6.85563 0
M  V30 8174 N 752.353 -0.854086 1.3245 0
M  V30 8175 C 753.63 -1.59188 1.1366 0
M  V30 8176 C 754.01 -2.08917 -0.302807 0
M  V30 8177 O 753.358 -1.8795 -1.29951 0
M  V30 8178 C 753.568 -2.73757 2.16467 0
M  V30 8179 C 754.916 -3.43323 2.49829 0
M  V30 8180 O 755.94 -2.83983 2.15017 0
M  V30 8181 O 754.799 -4.50409 3.09506 0
M  V30 8182 H 751.893 -0.701092 0.438633 0
M  V30 8183 H 754.439 -0.898165 1.43983 0
M  V30 8184 H 753.211 -2.3454 3.1322 0
M  V30 8185 H 752.834 -3.50804 1.87142 0
M  V30 8186 N 753.831 -1.1567 -1.07043 0
M  V30 8187 C 754.761 -0.879348 -2.16309 0
M  V30 8188 C 755.742 0.171311 -1.69235 0
M  V30 8189 O 756.927 0.0250175 -1.94184 0
M  V30 8190 C 754.057 -0.371307 -3.45309 0
M  V30 8191 C 753.011 -1.359 -4.05851 0
M  V30 8192 C 752.337 -0.709678 -5.29969 0
M  V30 8193 C 753.637 -2.72606 -4.45514 0
M  V30 8194 H 755.331 -1.79308 -2.39768 0
M  V30 8195 H 752.877 -0.863558 -1.15233 0
M  V30 8196 H 754.83 -0.164798 -4.21078 0
M  V30 8197 H 753.554 0.577906 -3.21446 0
M  V30 8198 H 752.213 -1.55193 -3.32131 0
M  V30 8199 H 751.861 0.245782 -5.02399 0
M  V30 8200 H 751.561 -1.36886 -5.71433 0
M  V30 8201 H 753.085 -0.513015 -6.08441 0
M  V30 8202 H 754.499 -2.57141 -5.12398 0
M  V30 8203 H 752.896 -3.34927 -4.97939 0
M  V30 8204 H 753.966 -3.28434 -3.56734 0
M  V30 8205 N 755.309 1.25446 -0.953992 0
M  V30 8206 C 756.257 2.27909 -0.46478 0
M  V30 8207 C 757.251 1.62904 0.464607 0
M  V30 8208 O 758.457 1.76733 0.341407 0
M  V30 8209 H 754.832 0.74036 -0.131798 0
M  V30 8210 H 756.803 2.66559 -1.34122 0
M  V30 8211 C 755.552 3.46853 0.242589 0
M  V30 8212 H 754.875 3.97105 -0.463418 0
M  V30 8213 H 756.315 4.20432 0.548919 0
M  V30 8214 C 754.774 3.03386 1.46487 0
M  V30 8215 O 755.304 3.09342 2.56262 0
M  V30 8216 N 753.51 2.58584 1.32599 0
M  V30 8217 H 753.057 2.53938 0.432834 0
M  V30 8218 H 753.015 2.29866 2.14497 0
M  V30 8219 N 756.787 0.722489 1.40064 0
M  V30 8220 C 757.719 0.0349057 2.29173 0
M  V30 8221 C 758.732 -0.716571 1.46182 0
M  V30 8222 O 759.921 -0.562806 1.69395 0
M  V30 8223 C 757.021 -0.974839 3.24577 0
M  V30 8224 C 756.194 -0.287471 4.36454 0
M  V30 8225 C 755.253 -1.20356 5.12251 0
M  V30 8226 O 754.279 -0.685753 5.65054 0
M  V30 8227 N 755.481 -2.53422 5.22262 0
M  V30 8228 H 758.246 0.800058 2.88824 0
M  V30 8229 H 755.807 0.57068 1.51509 0
M  V30 8230 H 757.799 -1.59002 3.72157 0
M  V30 8231 H 756.369 -1.6413 2.66046 0
M  V30 8232 H 755.589 0.508008 3.90913 0
M  V30 8233 H 756.877 0.189382 5.08447 0
M  V30 8234 H 756.275 -2.97981 4.80857 0
M  V30 8235 H 754.832 -3.10067 5.73325 0
M  V30 8236 N 758.265 -1.50454 0.469181 0
M  V30 8237 C 759.681 -1.59124 0.123226 0
M  V30 8238 C 759.881 -1.47749 -1.37013 0
M  V30 8239 O 758.937 -1.335 -2.14322 0
M  V30 8240 C 760.25 -2.93101 0.67172 0
M  V30 8241 C 761.798 -3.06491 0.634978 0
M  V30 8242 C 762.273 -4.43041 1.16098 0
M  V30 8243 N 763.764 -4.49448 1.12031 0
M  V30 8244 C 764.499 -5.53491 1.49784 0
M  V30 8245 N 763.995 -6.64798 1.94976 0
M  V30 8246 N 765.788 -5.44025 1.41399 0
M  V30 8247 H 757.939 -1.56091 1.44046 0
M  V30 8248 H 760.202 -0.737564 0.59557 0
M  V30 8249 H 759.908 -3.06895 1.7178 0
M  V30 8250 H 759.782 -3.77027 0.114222 0
M  V30 8251 H 762.169 -2.92346 -0.402187 0
M  V30 8252 H 762.25 -2.24328 1.22926 0
M  V30 8253 H 761.894 -4.57935 2.19677 0
M  V30 8254 H 761.824 -5.23794 0.542939 0
M  V30 8255 H 764.315 -3.69575 0.788828 0
M  V30 8256 H 764.628 -7.40246 2.21936 0
M  V30 8257 H 762.973 -6.65923 1.98927 0
M  V30 8258 H 766.164 -4.55955 1.05935 0
M  V30 8259 H 766.337 -6.2499 1.71147 0
M  V30 8260 N 759.743 -0.201713 -1.56304 0
M  V30 8261 C 760.968 0.443815 -2.02596 0
M  V30 8262 C 761.393 1.53945 -1.08086 0
M  V30 8263 O 760.751 1.81182 -0.0655056 0
M  V30 8264 C 760.799 0.971066 -3.47279 0
M  V30 8265 O 759.903 2.0836 -3.55893 0
M  V30 8266 H 759.244 0.10294 -0.655972 0
M  V30 8267 H 761.774 -0.314533 -2.02168 0
M  V30 8268 H 761.784 1.28598 -3.87204 0
M  V30 8269 H 760.459 0.169048 -4.15556 0
M  V30 8270 H 759.036 1.77683 -3.27846 0
M  V30 8271 N 761.222 1.57436 0.0718424 0
M  V30 8272 C 762.471 1.86431 0.769826 0
M  V30 8273 C 762.784 0.794355 1.78744 0
M  V30 8274 O 763.99 0.972148 2.53499 0
M  V30 8275 C 762.446 3.307 1.42006 0
M  V30 8276 C 762.054 4.45824 0.441017 0
M  V30 8277 C 763.798 3.68894 2.10041 0
M  V30 8278 C 761.705 5.81134 1.09717 0
M  V30 8279 H 760.635 0.695474 0.291259 0
M  V30 8280 H 763.286 1.83485 0.0231224 0
M  V30 8281 H 761.668 3.28257 2.21502 0
M  V30 8282 H 762.842 4.59659 -0.32413 0
M  V30 8283 H 761.157 4.16181 -0.134886 0
M  V30 8284 H 763.754 4.67281 2.59908 0
M  V30 8285 H 764.097 2.98692 2.89981 0
M  V30 8286 H 764.63 3.73326 1.37376 0
M  V30 8287 H 761.369 6.54628 0.338095 0
M  V30 8288 H 760.889 5.711 1.83317 0
M  V30 8289 H 762.568 6.26468 1.617 0
M  V30 8290 N 762.7 -0.34323 1.53817 0
M  V30 8291 C 763.633 -1.44472 1.76644 0
M  V30 8292 C 764.611 -1.50498 0.615556 0
M  V30 8293 O 765.795 -1.6821 0.850751 0
M  V30 8294 C 762.922 -2.82705 1.86536 0
M  V30 8295 C 761.968 -2.94302 3.08688 0
M  V30 8296 S 762.801 -2.60739 4.67735 0
M  V30 8297 C 763.957 -4.01079 4.80506 0
M  V30 8298 H 764.19 -1.24893 2.69794 0
M  V30 8299 H 761.723 -0.538915 1.4469 0
M  V30 8300 H 763.681 -3.62342 1.92921 0
M  V30 8301 H 762.342 -2.9958 0.943975 0
M  V30 8302 H 761.535 -3.95593 3.12286 0
M  V30 8303 H 761.137 -2.22614 3.00531 0
M  V30 8304 H 763.429 -4.95603 4.61935 0
M  V30 8305 H 764.372 -4.02475 5.82597 0
M  V30 8306 H 764.78 -3.89119 4.08958 0
M  V30 8307 N 764.178 -1.45556 -0.604258 0
M  V30 8308 C 765.088 -1.57025 -1.74299 0
M  V30 8309 C 766.104 -0.45456 -1.67958 0
M  V30 8310 O 767.28 -0.715711 -1.88254 0
M  V30 8311 C 764.345 -1.53702 -3.10768 0
M  V30 8312 C 763.406 -2.76335 -3.28538 0
M  V30 8313 C 762.639 -2.73161 -4.58496 0
M  V30 8314 O 762.862 -1.80678 -5.41028 0
M  V30 8315 O 761.796 -3.64409 -4.79051 0
M  V30 8316 H 765.622 -2.53284 -1.67573 0
M  V30 8317 H 763.207 -1.28104 -0.768745 0
M  V30 8318 H 765.089 -1.54468 -3.92068 0
M  V30 8319 H 763.764 -0.605957 -3.17978 0
M  V30 8320 H 762.671 -2.8113 -2.46813 0
M  V30 8321 H 764.004 -3.68578 -3.26207 0
M  V30 8322 N 765.656 0.84705 -1.32902 0
M  V30 8323 C 766.881 1.63925 -1.27056 0
M  V30 8324 C 767.306 1.87443 0.157136 0
M  V30 8325 O 766.664 1.43266 1.11106 0
M  V30 8326 C 766.712 2.97134 -2.04313 0
M  V30 8327 O 765.816 3.88049 -1.39614 0
M  V30 8328 H 765.157 0.499477 -0.437514 0
M  V30 8329 H 767.687 1.05443 -1.75336 0
M  V30 8330 H 767.697 3.46896 -2.14772 0
M  V30 8331 H 766.372 2.79339 -3.08128 0
M  V30 8332 H 764.949 3.46525 -1.3775 0
M  V30 8333 N 767.134 1.16236 1.06428 0
M  V30 8334 C 768.545 0.950942 1.60667 0
M  V30 8335 C 768.896 -0.505491 1.89576 0
M  V30 8336 O 768.021 -1.37843 1.66818 0
M  V30 8337 C 768.616 1.71982 2.91904 0
M  V30 8338 C 767.175 1.55342 3.4285 0
M  V30 8339 C 766.322 1.72942 2.16763 0
M  V30 8340 H 769.273 1.31126 0.893959 0
M  V30 8341 H 769.294 1.19483 3.61253 0
M  V30 8342 H 768.806 2.77978 2.70831 0
M  V30 8343 H 766.907 0.5178 3.68985 0
M  V30 8344 H 767.02 2.33643 4.18267 0
M  V30 8345 H 765.384 1.15673 2.26918 0
M  V30 8346 H 766.167 2.80324 1.98175 0
M  V30 8347 N 768.612 -1.24939 0.960631 0
M  V30 8348 C 769.575 -2.239 0.49006 0
M  V30 8349 C 770.575 -1.55497 -0.409535 0
M  V30 8350 O 771.765 -1.72978 -0.205984 0
M  V30 8351 C 768.897 -3.39654 -0.291193 0
M  V30 8352 H 770.09 -2.67044 1.36482 0
M  V30 8353 H 767.643 -1.37429 0.744505 0
M  V30 8354 H 768.378 -3.01939 -1.18336 0
M  V30 8355 H 768.163 -3.90496 0.354276 0
M  V30 8356 H 769.653 -4.13125 -0.609693 0
M  V30 8357 N 770.09 -0.729906 -1.39679 0
M  V30 8358 C 771.038 -0.0756589 -2.32477 0
M  V30 8359 C 772.032 0.731438 -1.52795 0
M  V30 8360 O 773.238 0.633195 -1.68495 0
M  V30 8361 H 769.613 -0.00566492 -0.751979 0
M  V30 8362 H 771.584 -0.874797 -2.85289 0
M  V30 8363 C 770.333 0.821313 -3.37861 0
M  V30 8364 H 769.656 0.209666 -3.9925 0
M  V30 8365 H 771.096 1.24679 -4.05254 0
M  V30 8366 C 769.555 1.9533 -2.74495 0
M  V30 8367 O 770.085 3.04548 -2.61942 0
M  V30 8368 N 768.291 1.74119 -2.3266 0
M  V30 8369 H 767.838 0.852908 -2.4307 0
M  V30 8370 H 767.796 2.50036 -1.90603 0
M  V30 8371 N 771.568 1.50203 -0.477153 0
M  V30 8372 C 772.793 2.07263 0.0754986 0
M  V30 8373 C 773.218 1.33801 1.32208 0
M  V30 8374 O 772.576 0.387482 1.77111 0
M  V30 8375 C 772.624 3.59028 0.336348 0
M  V30 8376 O 771.728 3.87339 1.4157 0
M  V30 8377 H 771.069 0.663815 -0.015662 0
M  V30 8378 H 773.599 1.93321 -0.669936 0
M  V30 8379 H 773.609 4.03927 0.575034 0
M  V30 8380 H 772.284 4.11912 -0.574551 0
M  V30 8381 H 770.861 3.54272 1.16385 0
M  V30 8382 N 773.046 0.209999 1.56195 0
M  V30 8383 C 774.295 -0.425106 1.97169 0
M  V30 8384 C 774.608 -1.61718 1.10031 0
M  V30 8385 O 775.814 -2.32105 1.40853 0
M  V30 8386 C 774.27 -0.80771 3.50719 0
M  V30 8387 C 773.878 0.360902 4.46544 0
M  V30 8388 C 775.622 -1.40906 4.00432 0
M  V30 8389 C 773.529 -0.0434919 5.91384 0
M  V30 8390 H 772.459 -0.162598 0.736259 0
M  V30 8391 H 775.11 0.304382 1.80958 0
M  V30 8392 H 773.492 -1.59429 3.62489 0
M  V30 8393 H 774.666 1.13846 4.46515 0
M  V30 8394 H 772.981 0.874729 4.07109 0
M  V30 8395 H 775.578 -1.72433 5.06133 0
M  V30 8396 H 775.921 -2.32081 3.45607 0
M  V30 8397 H 776.454 -0.686154 3.91838 0
M  V30 8398 H 773.193 0.834448 6.50167 0
M  V30 8399 H 772.713 -0.785598 5.94633 0
M  V30 8400 H 774.392 -0.474176 6.4526 0
M  V30 8401 N 774.524 -1.57472 -0.0634922 0
M  V30 8402 C 775.434 -2.07621 -1.09227 0
M  V30 8403 C 776.45 -1.00746 -1.41867 0
M  V30 8404 O 777.626 -1.32269 -1.51878 0
M  V30 8405 C 774.691 -2.51707 -2.38421 0
M  V30 8406 C 773.752 -3.72917 -2.12676 0
M  V30 8407 C 772.985 -4.14891 -3.3571 0
M  V30 8408 O 773.208 -3.56663 -4.45137 0
M  V30 8409 O 772.142 -5.07616 -3.23434 0
M  V30 8410 H 775.968 -2.95612 -0.696205 0
M  V30 8411 H 773.553 -1.46787 -0.27819 0
M  V30 8412 H 775.435 -2.80547 -3.14438 0
M  V30 8413 H 774.11 -1.66842 -2.77391 0
M  V30 8414 H 773.017 -3.49148 -1.34337 0
M  V30 8415 H 774.35 -4.5866 -1.78583 0
M  V30 8416 N 776.003 0.335068 -1.53997 0
M  V30 8417 C 776.936 1.43533 -1.77407 0
M  V30 8418 C 777.914 1.5017 -0.623529 0
M  V30 8419 O 779.098 1.67756 -0.85966 0
M  V30 8420 C 776.225 2.81712 -1.88033 0
M  V30 8421 C 775.271 2.92661 -3.10245 0
M  V30 8422 S 776.104 2.58254 -4.69111 0
M  V30 8423 C 777.26 3.98525 -4.82627 0
M  V30 8424 H 777.493 1.2346 -2.70453 0
M  V30 8425 H 775.026 0.531234 -1.44973 0
M  V30 8426 H 776.984 3.61314 -1.9484 0
M  V30 8427 H 775.645 2.99075 -0.959849 0
M  V30 8428 H 774.838 3.93931 -3.14379 0
M  V30 8429 H 774.44 2.21017 -3.01708 0
M  V30 8430 H 776.732 4.93146 -4.64557 0
M  V30 8431 H 777.675 3.9938 -5.84723 0
M  V30 8432 H 778.083 3.86945 -4.11016 0
M  V30 8433 N 777.481 1.45874 0.596531 0
M  V30 8434 C 778.411 1.5824 1.71705 0
M  V30 8435 C 779.392 0.433366 1.64487 0
M  V30 8436 O 780.577 0.657895 1.82717 0
M  V30 8437 C 777.707 1.55927 3.10329 0
M  V30 8438 C 776.661 2.69659 3.32367 0
M  V30 8439 C 775.987 2.52403 4.71377 0
M  V30 8440 C 777.287 4.11591 3.21544 0
M  V30 8441 H 778.981 2.52035 1.61613 0
M  V30 8442 H 776.527 1.21297 0.776082 0
M  V30 8443 H 778.48 1.63173 3.88526 0
M  V30 8444 H 777.204 0.586674 3.21288 0
M  V30 8445 H 775.863 2.61859 2.56564 0
M  V30 8446 H 775.511 1.53258 4.79083 0
M  V30 8447 H 775.211 3.28679 4.87077 0
M  V30 8448 H 776.735 2.6152 5.5176 0
M  V30 8449 H 778.149 4.20576 3.89601 0
M  V30 8450 H 776.546 4.88344 3.4877 0
M  V30 8451 H 777.616 4.32719 2.1882 0
M  V30 8452 N 778.959 -0.83999 1.33349 0
M  V30 8453 C 779.889 -1.965 1.26135 0
M  V30 8454 C 780.87 -1.69505 0.142152 0
M  V30 8455 O 782.055 -1.91346 0.331743 0
M  V30 8456 C 779.185 -3.32632 0.99866 0
M  V30 8457 C 778.139 -3.74021 2.08068 0
M  V30 8458 C 777.465 -5.07947 1.67014 0
M  V30 8459 C 778.765 -3.87925 3.49731 0
M  V30 8460 H 780.459 -2.02793 2.20262 0
M  V30 8461 H 778.005 -0.974297 1.06035 0
M  V30 8462 H 779.958 -4.10903 0.934696 0
M  V30 8463 H 778.682 -3.26593 0.0217759 0
M  V30 8464 H 777.341 -2.98012 2.13505 0
M  V30 8465 H 776.989 -4.98378 0.680316 0
M  V30 8466 H 776.689 -5.36611 2.39422 0
M  V30 8467 H 778.213 -5.88695 1.62082 0
M  V30 8468 H 779.627 -4.5651 3.46802 0
M  V30 8469 H 778.024 -4.28023 4.20614 0
M  V30 8470 H 779.094 -2.90407 3.88319 0
M  V30 8471 N 780.437 -1.16799 -1.0581 0
M  V30 8472 C 781.662 -0.977402 -1.82925 0
M  V30 8473 C 782.087 0.469514 -1.82146 0
M  V30 8474 O 781.445 1.33576 -1.22585 0
M  V30 8475 C 781.493 -1.51543 -3.27211 0
M  V30 8476 O 780.597 -0.725021 -4.05977 0
M  V30 8477 H 779.938 -0.347474 -0.565825 0
M  V30 8478 H 782.468 -1.55151 -1.33376 0
M  V30 8479 H 782.478 -1.53502 -3.78023 0
M  V30 8480 H 781.153 -2.56872 -3.27093 0
M  V30 8481 H 779.73 -0.77634 -3.64729 0
M  V30 8482 N 781.915 1.24427 -0.967243 0
M  V30 8483 C 782.863 2.27403 -0.488927 0
M  V30 8484 C 783.857 1.63388 0.447302 0
M  V30 8485 O 785.063 1.77085 0.322643 0
M  V30 8486 H 781.438 0.738921 -0.139643 0
M  V30 8487 H 783.409 2.65122 -1.36942 0
M  V30 8488 C 782.158 3.4709 0.205787 0
M  V30 8489 H 781.481 3.96591 -0.50551 0
M  V30 8490 H 782.921 4.2099 0.504296 0
M  V30 8491 C 781.38 3.04923 1.43261 0
M  V30 8492 O 781.91 3.12043 2.52967 0
M  V30 8493 N 780.116 2.59976 1.29849 0
M  V30 8494 H 779.663 2.54382 0.405876 0
M  V30 8495 H 779.621 2.32128 2.12047 0
M  V30 8496 N 783.393 0.737304 1.3929 0
M  V30 8497 C 784.64 0.286257 2.00467 0
M  V30 8498 C 784.968 -1.1272 1.58507 0
M  V30 8499 O 784.223 -1.7832 0.806257 0
M  V30 8500 C 784.522 0.338438 3.55794 0
M  V30 8501 C 784.188 1.70524 4.17411 0
M  V30 8502 C 782.85 2.07934 4.33955 0
M  V30 8503 C 785.202 2.60256 4.51571 0
M  V30 8504 C 782.53 3.34578 4.81948 0
M  V30 8505 C 784.882 3.86275 5.00974 0
M  V30 8506 C 783.546 4.23774 5.15725 0
M  V30 8507 H 782.816 0.104749 0.733559 0
M  V30 8508 H 785.463 0.944598 1.66582 0
M  V30 8509 H 783.768 -0.403478 3.89717 0
M  V30 8510 H 785.465 -0.0287255 4.0099 0
M  V30 8511 H 782.055 1.40439 4.04938 0
M  V30 8512 H 786.239 2.32624 4.38406 0
M  V30 8513 H 781.495 3.63572 4.91554 0
M  V30 8514 H 785.669 4.5596 5.26378 0
M  V30 8515 H 783.296 5.21972 5.52674 0
M  V30 8516 N 784.871 -1.49948 0.485112 0
M  V30 8517 C 786.119 -2.01996 -0.0648775 0
M  V30 8518 C 786.44 -1.36819 -1.38945 0
M  V30 8519 O 785.71 -0.518163 -1.88923 0
M  V30 8520 H 784.29 -0.746513 -0.0269662 0
M  V30 8521 H 786.952 -1.84136 0.638733 0
M  V30 8522 H 786.048 -3.11418 -0.20617 0
M  V30 8523 N 786.349 -0.21828 -1.56081 0
M  V30 8524 C 787.597 0.413488 -1.97825 0
M  V30 8525 C 787.918 1.60527 -1.10707 0
M  V30 8526 O 787.188 1.9504 -0.183378 0
M  V30 8527 H 785.768 0.155757 -0.730581 0
M  V30 8528 H 788.43 -0.310413 -1.92412 0
M  V30 8529 H 787.526 0.742024 -3.03151 0
M  V30 8530 N 787.827 1.57504 0.0551401 0
M  V30 8531 C 788.759 2.0158 1.09078 0
M  V30 8532 C 789.772 0.92434 1.34014 0
M  V30 8533 O 790.961 1.20202 1.31961 0
M  V30 8534 C 788.061 2.35385 2.43818 0
M  V30 8535 C 787.234 3.66588 2.38605 0
M  V30 8536 C 786.293 3.87874 3.55585 0
M  V30 8537 O 785.319 4.59259 3.36258 0
M  V30 8538 N 786.521 3.31503 4.76536 0
M  V30 8539 H 789.286 2.91039 0.71529 0
M  V30 8540 H 786.847 1.60058 0.243532 0
M  V30 8541 H 788.839 2.46784 3.20749 0
M  V30 8542 H 787.409 1.51731 2.73307 0
M  V30 8543 H 786.629 3.65787 1.46947 0
M  V30 8544 H 787.917 4.52706 2.32239 0
M  V30 8545 H 787.315 2.73592 4.9514 0
M  V30 8546 H 785.872 3.48324 5.50921 0
M  V30 8547 N 789.305 -0.326896 1.54172 0
M  V30 8548 C 790.235 -1.40741 1.86317 0
M  V30 8549 C 791.216 -1.54125 0.719684 0
M  V30 8550 O 792.401 -1.6806 0.973117 0
M  V30 8551 C 789.531 -2.77557 2.08757 0
M  V30 8552 C 788.485 -2.78965 3.24596 0
M  V30 8553 C 787.811 -4.18824 3.32401 0
M  V30 8554 C 789.111 -2.4301 4.62324 0
M  V30 8555 H 790.805 -1.14088 2.76811 0
M  V30 8556 H 788.351 -0.547389 1.3319 0
M  V30 8557 H 790.304 -3.53209 2.29829 0
M  V30 8558 H 789.028 -3.0568 1.15009 0
M  V30 8559 H 787.687 -2.05767 3.03406 0
M  V30 8560 H 787.335 -4.44083 2.36218 0
M  V30 8561 H 787.035 -4.20673 4.10253 0
M  V30 8562 H 788.559 -4.96294 3.55703 0
M  V30 8563 H 789.973 -3.08375 4.83299 0
M  V30 8564 H 788.37 -2.56116 5.42701 0
M  V30 8565 H 789.44 -1.38165 4.64799 0
M  V30 8566 N 790.784 -1.46188 -0.588786 0
M  V30 8567 C 792.032 -1.50885 -1.34455 0
M  V30 8568 C 792.353 -0.159555 -1.94346 0
M  V30 8569 O 791.623 0.813239 -1.78222 0
M  V30 8570 H 790.203 -0.555707 -0.499198 0
M  V30 8571 H 792.865 -1.82277 -0.690014 0
M  V30 8572 H 791.961 -2.25816 -2.15438 0
M  V30 8573 N 792.262 0.832906 -1.33792 0
M  V30 8574 C 793.192 1.95828 -1.27176 0
M  V30 8575 C 794.173 1.69427 -0.15114 0
M  V30 8576 O 795.358 1.91167 -0.341886 0
M  V30 8577 C 792.488 3.32098 -1.01629 0
M  V30 8578 C 791.442 3.72912 -2.10049 0
M  V30 8579 C 790.768 5.07054 -1.69706 0
M  V30 8580 C 792.068 3.86064 -3.51783 0
M  V30 8581 H 793.762 2.01622 -2.21334 0
M  V30 8582 H 791.308 0.96866 -1.0655 0
M  V30 8583 H 793.261 4.10402 -0.956474 0
M  V30 8584 H 791.985 3.26577 -0.0390956 0
M  V30 8585 H 790.644 2.96876 -2.15082 0
M  V30 8586 H 790.292 4.9801 -0.706737 0
M  V30 8587 H 789.992 5.35333 -2.42264 0
M  V30 8588 H 791.516 5.87827 -1.65202 0
M  V30 8589 H 792.93 4.54665 -3.49218 0
M  V30 8590 H 791.327 4.25787 -4.22878 0
M  V30 8591 H 792.397 2.88344 -3.89854 0
M  V30 8592 N 793.74 1.17359 1.05189 0
M  V30 8593 C 794.986 0.973414 1.78595 0
M  V30 8594 C 795.341 -0.492713 1.85984 0
M  V30 8595 O 794.634 -1.361 1.3486 0
M  V30 8596 C 794.828 1.54821 3.22126 0
M  V30 8597 C 794.657 3.06871 3.28725 0
M  V30 8598 C 793.427 3.75602 3.38011 0
M  V30 8599 C 795.625 4.04467 3.17665 0
M  V30 8600 N 793.607 5.15257 3.33741 0
M  V30 8601 C 794.978 5.30574 3.20766 0
M  V30 8602 C 797.033 3.96138 3.01627 0
M  V30 8603 C 795.736 6.49319 3.09479 0
M  V30 8604 C 797.762 5.14467 2.91681 0
M  V30 8605 C 797.124 6.3946 2.95416 0
M  V30 8606 H 793.223 0.410092 0.665844 0
M  V30 8607 H 795.807 1.48944 1.25395 0
M  V30 8608 H 793.978 1.05853 3.73697 0
M  V30 8609 H 795.71 1.28467 3.83768 0
M  V30 8610 H 792.465 3.26282 3.43273 0
M  V30 8611 H 792.889 5.88263 3.35076 0
M  V30 8612 H 797.531 3.00345 2.97578 0
M  V30 8613 H 795.249 7.45322 3.12283 0
M  V30 8614 H 798.835 5.09803 2.80343 0
M  V30 8615 H 797.715 7.29483 2.87792 0
M  V30 8616 N 795.218 -1.23913 0.973828 0
M  V30 8617 C 796.151 -2.23647 0.45355 0
M  V30 8618 C 797.129 -1.55485 -0.475724 0
M  V30 8619 O 798.313 -1.84083 -0.405689 0
M  V30 8620 C 795.44 -3.36942 -0.344594 0
M  V30 8621 C 794.486 -4.23221 0.527859 0
M  V30 8622 S 795.319 -4.97877 1.97177 0
M  V30 8623 C 796.475 -6.14627 1.18258 0
M  V30 8624 H 796.708 -2.67433 1.29873 0
M  V30 8625 H 794.241 -1.33289 0.779322 0
M  V30 8626 H 796.199 -4.02647 -0.799103 0
M  V30 8627 H 794.86 -2.91703 -1.16482 0
M  V30 8628 H 794.053 -5.03928 -0.0852555 0
M  V30 8629 H 793.655 -3.6255 0.918344 0
M  V30 8630 H 795.947 -6.76066 0.440629 0
M  V30 8631 H 796.89 -6.80311 1.96425 0
M  V30 8632 H 797.298 -5.6009 0.704256 0
M  V30 8633 N 796.696 -0.74468 -1.38897 0
M  V30 8634 C 797.921 -0.306119 -2.05128 0
M  V30 8635 C 798.346 1.0541 -1.55789 0
M  V30 8636 O 797.704 1.66993 -0.705909 0
M  V30 8637 C 797.752 -0.328195 -3.59103 0
M  V30 8638 O 796.856 0.680876 -4.06741 0
M  V30 8639 H 796.197 -0.137209 -0.649669 0
M  V30 8640 H 798.727 -1.01331 -1.77745 0
M  V30 8641 H 798.737 -0.175956 -4.0762 0
M  V30 8642 H 797.412 -1.32067 -3.94374 0
M  V30 8643 H 795.989 0.49398 -3.69614 0
M  V30 8644 N 798.174 1.49689 -0.493057 0
M  V30 8645 C 799.414 2.04332 0.0527374 0
M  V30 8646 C 799.778 1.36522 1.35003 0
M  V30 8647 O 800.979 1.81842 1.97957 0
M  V30 8648 C 799.25 3.56782 0.210044 0
M  V30 8649 S 800.809 4.32998 0.711232 0
M  V30 8650 H 797.627 0.710978 0.00554853 0
M  V30 8651 H 800.229 1.83835 -0.665213 0
M  V30 8652 H 798.933 4.03681 -0.739566 0
M  V30 8653 H 798.464 3.81671 0.953468 0
M  V30 8654 H 800.479 4.54916 1.98156 0
M  V30 8655 N 799.652 0.226554 1.55963 0
M  V30 8656 C 800.877 -0.411527 2.03276 0
M  V30 8657 C 801.302 -1.52206 1.10521 0
M  V30 8658 O 800.66 -1.81054 0.0943217 0
M  V30 8659 C 800.708 -0.915694 3.4878 0
M  V30 8660 O 799.812 -2.02672 3.59163 0
M  V30 8661 H 799.153 -0.0924907 0.657527 0
M  V30 8662 H 801.683 0.346656 2.01642 0
M  V30 8663 H 801.693 -1.22421 3.892 0
M  V30 8664 H 800.368 -0.102915 4.15773 0
M  V30 8665 H 798.945 -1.72445 3.30632 0
M  V30 8666 N 801.13 -1.57531 -0.0467866 0
M  V30 8667 C 802.376 -1.8873 -0.742218 0
M  V30 8668 C 802.709 -0.822084 -1.75941 0
M  V30 8669 O 801.984 0.164922 -1.938 0
M  V30 8670 C 802.267 -3.30586 -1.42776 0
M  V30 8671 C 802.12 -4.47785 -0.425285 0
M  V30 8672 C 803.439 -3.71068 -2.36636 0
M  V30 8673 H 800.558 -0.686406 -0.268359 0
M  V30 8674 H 803.2 -1.89999 -0.00511341 0
M  V30 8675 H 801.35 -3.29634 -2.05605 0
M  V30 8676 H 803.022 -4.60867 0.199721 0
M  V30 8677 H 801.265 -4.33037 0.25713 0
M  V30 8678 H 801.936 -5.43884 -0.943086 0
M  V30 8679 H 804.412 -3.73273 -1.83866 0
M  V30 8680 H 803.288 -4.71165 -2.81593 0
M  V30 8681 H 803.549 -3.02355 -3.22542 0
M  V30 8682 N 802.608 0.318715 -1.54344 0
M  V30 8683 C 803.854 1.05765 -1.73037 0
M  V30 8684 C 804.187 1.87514 -0.505181 0
M  V30 8685 O 803.462 1.88021 0.497838 0
M  V30 8686 C 803.745 1.97836 -3.00887 0
M  V30 8687 C 803.598 1.19384 -4.33668 0
M  V30 8688 C 804.917 2.97285 -3.24514 0
M  V30 8689 H 802.036 0.383104 -0.629603 0
M  V30 8690 H 804.678 0.333864 -1.87044 0
M  V30 8691 H 802.828 2.59552 -2.89076 0
M  V30 8692 H 804.5 0.600906 -4.57369 0
M  V30 8693 H 802.743 0.496198 -4.30953 0
M  V30 8694 H 803.414 1.87014 -5.19355 0
M  V30 8695 H 805.89 2.45693 -3.35819 0
M  V30 8696 H 804.766 3.58887 -4.15321 0
M  V30 8697 H 805.027 3.70003 -2.41971 0
M  V30 8698 N 804.086 1.46499 0.581025 0
M  V30 8699 C 805.326 1.53456 1.35021 0
M  V30 8700 C 805.69 0.182542 1.9113 0
M  V30 8701 O 806.891 0.126874 2.685 0
M  V30 8702 C 805.162 2.60387 2.44812 0
M  V30 8703 S 806.721 2.86762 3.32134 0
M  V30 8704 H 803.539 0.54216 0.459982 0
M  V30 8705 H 806.141 1.83742 0.667754 0
M  V30 8706 H 804.845 3.57253 2.01986 0
M  V30 8707 H 804.376 2.31839 3.17828 0
M  V30 8708 H 806.391 2.2216 4.43688 0
M  V30 8709 N 805.565 -0.825799 1.34232 0
M  V30 8710 C 806.811 -1.58419 1.26614 0
M  V30 8711 C 807.144 -1.93503 -0.164341 0
M  V30 8712 O 806.419 -1.59785 -1.109 0
M  V30 8713 C 806.702 -2.8856 2.15418 0
M  V30 8714 C 806.555 -2.60075 3.66989 0
M  V30 8715 C 807.874 -3.90107 2.03726 0
M  V30 8716 H 804.993 -0.574794 0.461282 0
M  V30 8717 H 807.635 -0.951519 1.64457 0
M  V30 8718 H 805.785 -3.42553 1.83275 0
M  V30 8719 H 807.457 -2.12414 4.09485 0
M  V30 8720 H 805.7 -1.93565 3.88221 0
M  V30 8721 H 806.371 -3.52866 4.24488 0
M  V30 8722 H 808.847 -3.45459 2.31942 0
M  V30 8723 H 807.723 -4.78976 2.68092 0
M  V30 8724 H 807.984 -4.30329 1.01337 0
M  V30 8725 N 807.043 -1.17915 -1.04565 0
M  V30 8726 C 808.292 -0.965816 -1.77073 0
M  V30 8727 C 808.605 0.506005 -1.88942 0
M  V30 8728 O 809.811 0.837717 -2.58253 0
M  V30 8729 C 808.267 -1.67894 -3.18339 0
M  V30 8730 C 807.875 -3.18972 -3.1458 0
M  V30 8731 C 809.619 -1.54823 -3.9526 0
M  V30 8732 C 807.526 -3.82946 -4.50674 0
M  V30 8733 H 806.456 -0.357729 -0.663736 0
M  V30 8734 H 809.107 -1.41235 -1.17153 0
M  V30 8735 H 807.489 -1.16016 -3.78624 0
M  V30 8736 H 808.663 -3.77835 -2.63776 0
M  V30 8737 H 806.978 -3.32127 -2.51159 0
M  V30 8738 H 809.575 -1.99984 -4.95894 0
M  V30 8739 H 809.918 -0.499727 -4.1329 0
M  V30 8740 H 810.451 -2.03953 -3.41538 0
M  V30 8741 H 807.19 -4.8782 -4.37849 0
M  V30 8742 H 806.71 -3.2887 -5.01602 0
M  V30 8743 H 808.389 -3.85518 -5.196 0
M  V30 8744 N 808.521 1.23394 -0.980386 0
M  V30 8745 C 809.431 2.28561 -0.528864 0
M  V30 8746 C 810.447 1.68946 0.416329 0
M  V30 8747 O 811.623 1.99355 0.286251 0
M  V30 8748 C 808.688 3.46323 0.16155 0
M  V30 8749 C 807.749 4.21297 -0.825044 0
M  V30 8750 C 806.982 5.33437 -0.167483 0
M  V30 8751 O 807.205 5.60812 1.04146 0
M  V30 8752 O 806.139 5.95637 -0.866047 0
M  V30 8753 H 809.965 2.69326 -1.40346 0
M  V30 8754 H 807.55 1.29325 -0.748019 0
M  V30 8755 H 809.432 4.17811 0.548841 0
M  V30 8756 H 808.107 3.0751 1.01092 0
M  V30 8757 H 807.014 3.52134 -1.26303 0
M  V30 8758 H 808.347 4.6396 -1.64322 0
M  V30 8759 N 809.999 0.752036 1.385 0
M  V30 8760 C 811.248 0.304294 1.99391 0
M  V30 8761 C 811.561 -1.11982 1.60373 0
M  V30 8762 O 812.767 -1.66795 2.14223 0
M  V30 8763 C 811.223 0.493101 3.56506 0
M  V30 8764 C 810.831 1.9262 4.04477 0
M  V30 8765 C 812.575 0.107994 4.24363 0
M  V30 8766 C 810.482 2.06365 5.54227 0
M  V30 8767 H 809.412 0.110024 0.745929 0
M  V30 8768 H 812.063 0.928355 1.58284 0
M  V30 8769 H 810.445 -0.20012 3.95494 0
M  V30 8770 H 811.619 2.65276 3.76783 0
M  V30 8771 H 809.934 2.26608 3.49339 0
M  V30 8772 H 812.531 0.189474 5.34364 0
M  V30 8773 H 812.874 -0.939165 4.05568 0
M  V30 8774 H 813.407 0.753011 3.90608 0
M  V30 8775 H 810.146 3.0933 5.77923 0
M  V30 8776 H 809.666 1.38167 5.83669 0
M  V30 8777 H 811.345 1.85286 6.19902 0
M  V30 8778 N 811.477 -1.49425 0.500989 0
M  V30 8779 C 812.726 -2.01649 -0.04538 0
M  V30 8780 C 813.039 -1.38572 -1.38047 0
M  V30 8781 O 814.245 -1.82124 -2.01353 0
M  V30 8782 C 812.701 -3.5966 -0.131337 0
M  V30 8783 C 812.309 -4.3171 1.19711 0
M  V30 8784 C 814.053 -4.19828 -0.628071 0
M  V30 8785 C 811.96 -5.81579 1.07332 0
M  V30 8786 H 810.89 -0.753715 -0.0207329 0
M  V30 8787 H 813.541 -1.71962 0.640407 0
M  V30 8788 H 811.923 -3.86063 -0.881574 0
M  V30 8789 H 813.097 -4.17008 1.96064 0
M  V30 8790 H 811.412 -3.83286 1.62729 0
M  V30 8791 H 814.009 -5.2958 -0.738198 0
M  V30 8792 H 814.352 -3.83194 -1.6269 0
M  V30 8793 H 814.885 -3.97746 0.0656314 0
M  V30 8794 H 811.624 -6.22738 2.04642 0
M  V30 8795 H 811.144 -5.98774 0.350679 0
M  V30 8796 H 812.823 -6.42614 0.752047 0
M  V30 8797 N 812.955 -0.234822 -1.55841 0
M  V30 8798 C 813.865 0.680828 -2.24504 0
M  V30 8799 C 814.881 1.20306 -1.25708 0
M  V30 8800 O 816.057 1.24188 -1.58554 0
M  V30 8801 C 813.122 1.86636 -2.92178 0
M  V30 8802 C 812.183 1.3848 -4.06352 0
M  V30 8803 C 811.416 2.51382 -4.70789 0
M  V30 8804 O 811.639 3.69831 -4.34259 0
M  V30 8805 O 810.573 2.21828 -5.59532 0
M  V30 8806 H 814.399 0.12583 -3.03439 0
M  V30 8807 H 811.984 -0.00381817 -1.494 0
M  V30 8808 H 813.866 2.55845 -3.34845 0
M  V30 8809 H 812.541 2.40921 -2.16192 0
M  V30 8810 H 811.448 0.660341 -3.68226 0
M  V30 8811 H 812.781 0.888177 -4.8412 0
M  V30 8812 N 814.433 1.57553 0.0384317 0
M  V30 8813 C 815.679 1.89121 0.732199 0
M  V30 8814 C 816.012 0.831404 1.75503 0
M  V30 8815 O 815.287 -0.154642 1.93884 0
M  V30 8816 C 815.57 3.31338 1.41021 0
M  V30 8817 C 815.423 4.48004 0.401532 0
M  V30 8818 C 816.742 3.72318 2.34665 0
M  V30 8819 H 813.861 0.687819 0.264715 0
M  V30 8820 H 816.503 1.89999 -0.00496279 0
M  V30 8821 H 814.653 3.3072 2.03854 0
M  V30 8822 H 816.325 4.60755 -0.224159 0
M  V30 8823 H 814.568 4.32895 -0.280092 0
M  V30 8824 H 815.239 5.44377 0.91423 0
M  V30 8825 H 817.715 3.74243 1.81883 0
M  V30 8826 H 816.591 4.72652 2.7909 0
M  V30 8827 H 816.852 3.04062 3.20934 0
M  V30 8828 N 815.911 -0.310526 1.54511 0
M  V30 8829 C 817.158 -1.04691 1.73338 0
M  V30 8830 C 817.486 -1.87584 0.514038 0
M  V30 8831 O 816.741 -1.89096 -0.504119 0
M  V30 8832 C 817.04 -1.98942 2.96912 0
M  V30 8833 C 816.706 -1.321 4.31115 0
M  V30 8834 C 815.368 -1.13603 4.67598 0
M  V30 8835 C 817.72 -0.842362 5.14348 0
M  V30 8836 C 815.048 -0.459102 5.84901 0
M  V30 8837 C 817.4 -0.179202 6.32346 0
M  V30 8838 C 816.064 0.0178111 6.67498 0
M  V30 8839 H 815.334 -0.38309 0.634289 0
M  V30 8840 H 817.981 -0.322723 1.88761 0
M  V30 8841 H 816.286 -2.77856 2.76231 0
M  V30 8842 H 817.983 -2.55972 3.08674 0
M  V30 8843 H 814.573 -1.47502 4.02419 0
M  V30 8844 H 818.757 -0.973013 4.86668 0
M  V30 8845 H 814.013 -0.295385 6.10686 0
M  V30 8846 H 818.187 0.199619 6.96114 0
M  V30 8847 H 815.814 0.544356 7.58249 0
M  V30 8848 N 817.389 -1.46805 -0.573248 0
M  V30 8849 C 818.636 -1.52604 -1.3311 0
M  V30 8850 C 818.964 -0.181633 -1.9365 0
M  V30 8851 O 818.219 0.823775 -1.77517 0
M  V30 8852 C 818.518 -2.58001 -2.47326 0
M  V30 8853 C 818.184 -4.01747 -2.04719 0
M  V30 8854 C 816.846 -4.40881 -1.92814 0
M  V30 8855 C 819.198 -4.92008 -1.71982 0
M  V30 8856 C 816.526 -5.68129 -1.46445 0
M  V30 8857 C 818.878 -6.19703 -1.27089 0
M  V30 8858 C 817.542 -6.57733 -1.13768 0
M  V30 8859 H 816.812 -0.558417 -0.487084 0
M  V30 8860 H 819.459 -1.80327 -0.644538 0
M  V30 8861 H 817.764 -2.23974 -3.2147 0
M  V30 8862 H 819.461 -2.59715 -3.05531 0
M  V30 8863 H 816.051 -3.70819 -2.14922 0
M  V30 8864 H 820.235 -4.62485 -1.8006 0
M  V30 8865 H 815.491 -5.96359 -1.34783 0
M  V30 8866 H 819.665 -6.89064 -1.00814 0
M  V30 8867 H 817.292 -7.56228 -0.776142 0
M  V30 8868 N 818.867 0.818669 -1.34668 0
M  V30 8869 C 820.116 1.57017 -1.26604 0
M  V30 8870 C 820.429 1.94936 0.161036 0
M  V30 8871 O 821.635 2.69051 0.36386 0
M  V30 8872 C 820.091 2.83305 -2.2196 0
M  V30 8873 C 819.699 2.52671 -3.69948 0
M  V30 8874 C 821.443 3.61324 -2.22813 0
M  V30 8875 C 819.35 3.75178 -4.5716 0
M  V30 8876 H 818.28 0.589323 -0.470335 0
M  V30 8877 H 820.931 0.900956 -1.59859 0
M  V30 8878 H 819.313 3.51874 -1.81661 0
M  V30 8879 H 820.487 1.92186 -4.18809 0
M  V30 8880 H 818.802 1.8792 -3.71584 0
M  V30 8881 H 821.399 4.52294 -2.85192 0
M  V30 8882 H 821.742 3.97759 -1.22857 0
M  V30 8883 H 822.275 2.99703 -2.61578 0
M  V30 8884 H 819.014 3.43861 -5.58068 0
M  V30 8885 H 818.534 4.34931 -4.13031 0
M  V30 8886 H 820.213 4.42542 -4.71981 0
M  V30 8887 N 820.346 1.18468 1.03938 0
M  V30 8888 C 821.623 0.890435 1.74157 0
M  V30 8889 C 822.003 -0.606409 2.02203 0
M  V30 8890 O 821.351 -1.5615 1.66822 0
M  V30 8891 C 821.561 1.73906 3.02585 0
M  V30 8892 C 822.909 1.96686 3.76297 0
M  V30 8893 O 823.933 1.70969 3.12487 0
M  V30 8894 O 822.792 2.39986 4.90988 0
M  V30 8895 H 819.886 0.330889 0.757919 0
M  V30 8896 H 822.432 1.29228 1.09992 0
M  V30 8897 H 821.204 2.75369 2.78006 0
M  V30 8898 H 820.827 1.33581 3.74489 0
M  V30 8899 N 821.824 -1.22873 0.986916 0
M  V30 8900 C 823.071 -1.91462 0.659424 0
M  V30 8901 C 823.399 -1.76931 -0.807825 0
M  V30 8902 O 822.654 -1.12829 -1.59901 0
M  V30 8903 C 822.953 -3.43014 1.00379 0
M  V30 8904 C 822.619 -3.77731 2.46232 0
M  V30 8905 C 821.281 -3.86918 2.86091 0
M  V30 8906 C 823.633 -3.94343 3.40798 0
M  V30 8907 C 820.961 -4.10149 4.19518 0
M  V30 8908 C 823.313 -4.19076 4.73875 0
M  V30 8909 C 821.977 -4.26486 5.13484 0
M  V30 8910 H 821.247 -0.700611 0.2413 0
M  V30 8911 H 823.894 -1.45763 1.24199 0
M  V30 8912 H 822.199 -3.90329 0.339226 0
M  V30 8913 H 823.896 -3.94327 0.728518 0
M  V30 8914 H 820.486 -3.71159 2.14334 0
M  V30 8915 H 824.67 -3.86629 3.11178 0
M  V30 8916 H 819.926 -4.1411 4.49803 0
M  V30 8917 H 824.1 -4.30873 5.47102 0
M  V30 8918 H 821.727 -4.4424 6.16891 0
M  V30 8919 N 823.302 -0.75937 -1.38099 0
M  V30 8920 C 824.549 -0.318113 -1.99986 0
M  V30 8921 C 824.877 1.10184 -1.6028 0
M  V30 8922 O 824.132 1.77015 -0.834524 0
M  V30 8923 C 824.431 -0.394999 -3.55211 0
M  V30 8924 C 824.097 -1.77143 -4.14646 0
M  V30 8925 C 822.759 -2.14811 -4.30592 0
M  V30 8926 C 825.111 -2.67407 -4.47373 0
M  V30 8927 C 822.439 -3.42203 -4.76565 0
M  V30 8928 C 824.791 -3.94196 -4.94765 0
M  V30 8929 C 823.455 -4.31925 -5.08918 0
M  V30 8930 H 822.725 -0.116406 -0.7318 0
M  V30 8931 H 825.372 -0.97098 -1.65058 0
M  V30 8932 H 823.677 0.341426 -3.9031 0
M  V30 8933 H 825.374 -0.0350722 -4.00985 0
M  V30 8934 H 821.964 -1.46864 -4.02652 0
M  V30 8935 H 826.148 -2.39569 -4.3465 0
M  V30 8936 H 821.404 -3.71346 -4.85708 0
M  V30 8937 H 825.578 -4.64276 -5.19057 0
M  V30 8938 H 823.205 -5.30699 -5.443 0
M  V30 8939 N 824.78 1.49157 -0.508906 0
M  V30 8940 C 826.005 2.07376 0.0315182 0
M  V30 8941 C 826.43 1.36575 1.2934 0
M  V30 8942 O 825.788 0.424963 1.76249 0
M  V30 8943 C 825.836 3.59661 0.260118 0
M  V30 8944 O 824.94 3.90255 1.33322 0
M  V30 8945 H 824.281 0.663334 -0.029739 0
M  V30 8946 H 826.811 1.91857 -0.710791 0
M  V30 8947 H 826.821 4.05056 0.489225 0
M  V30 8948 H 825.496 4.10601 -0.661794 0
M  V30 8949 H 824.073 3.56661 1.08844 0
M  V30 8950 N 826.258 0.243083 1.55714 0
M  V30 8951 C 827.507 -0.383188 1.98027 0
M  V30 8952 C 827.82 -1.59347 1.13436 0
M  V30 8953 O 829.026 -2.29065 1.45745 0
M  V30 8954 C 827.482 -0.733135 3.52354 0
M  V30 8955 C 827.09 0.455539 4.45678 0
M  V30 8956 C 828.834 -1.32381 4.03331 0
M  V30 8957 C 826.741 0.0819591 5.91343 0
M  V30 8958 H 825.671 -0.146944 0.739543 0
M  V30 8959 H 828.322 0.342697 1.80272 0
M  V30 8960 H 826.704 -1.51704 3.65789 0
M  V30 8961 H 827.878 1.23291 4.44 0
M  V30 8962 H 826.193 0.960886 4.05162 0
M  V30 8963 H 828.79 -1.61658 5.09677 0
M  V30 8964 H 829.133 -2.24698 3.50452 0
M  V30 8965 H 829.666 -0.602885 3.93205 0
M  V30 8966 H 826.405 0.972171 6.48251 0
M  V30 8967 H 825.925 -0.659291 5.96166 0
M  V30 8968 H 827.604 -0.3372 6.46121 0
M  V30 8969 N 827.736 -1.57571 -0.0300757 0
M  V30 8970 C 828.985 -1.88407 -0.720126 0
M  V30 8971 C 829.298 -0.841466 -1.76575 0
M  V30 8972 O 830.504 -1.03902 -2.50832 0
M  V30 8973 C 828.96 -3.34348 -1.33188 0
M  V30 8974 C 828.568 -4.46837 -0.32266 0
M  V30 8975 C 830.312 -3.74333 -2.00187 0
M  V30 8976 C 828.219 -5.83838 -0.942703 0
M  V30 8977 H 827.149 -0.702952 -0.272718 0
M  V30 8978 H 829.8 -1.83482 0.0255337 0
M  V30 8979 H 828.182 -3.34014 -2.12721 0
M  V30 8980 H 829.356 -4.58638 0.445887 0
M  V30 8981 H 827.671 -4.15678 0.245181 0
M  V30 8982 H 830.268 -4.74008 -2.47428 0
M  V30 8983 H 830.611 -3.06275 -2.81959 0
M  V30 8984 H 831.144 -3.76837 -1.2743 0
M  V30 8985 H 827.883 -6.55294 -0.164413 0
M  V30 8986 H 827.403 -5.75759 -1.68111 0
M  V30 8987 H 829.082 -6.30535 -1.45034 0
M  V30 8988 N 829.214 0.302327 -1.54673 0
M  V30 8989 C 830.177 1.35592 -1.8479 0
M  V30 8990 C 831.177 1.43743 -0.72073 0
M  V30 8991 O 832.367 1.43402 -0.989017 0
M  V30 8992 C 829.499 2.74091 -2.02699 0
M  V30 8993 H 830.692 1.10132 -2.78946 0
M  V30 8994 H 828.245 0.538926 -1.46715 0
M  V30 8995 H 828.98 3.04775 -1.10826 0
M  V30 8996 H 828.765 2.69565 -2.8474 0
M  V30 8997 H 830.255 3.50272 -2.27374 0
M  V30 8998 N 830.692 1.47107 0.565454 0
M  V30 8999 C 832.108 1.32443 0.890566 0
M  V30 9000 C 832.308 0.308735 1.99121 0
M  V30 9001 O 831.364 -0.28265 2.50913 0
M  V30 9002 C 832.677 2.71548 1.2916 0
M  V30 9003 C 834.225 2.7977 1.40349 0
M  V30 9004 C 834.7 4.19497 1.83811 0
M  V30 9005 N 836.191 4.21998 1.90975 0
M  V30 9006 C 836.926 5.2702 2.25916 0
M  V30 9007 N 836.422 6.42353 2.59527 0
M  V30 9008 N 838.215 5.14393 2.26619 0
M  V30 9009 H 830.366 2.11786 -0.161328 0
M  V30 9010 H 832.629 0.947952 -0.00950631 0
M  V30 9011 H 832.335 3.47265 0.556753 0
M  V30 9012 H 832.209 3.02782 2.24951 0
M  V30 9013 H 834.596 2.0433 2.12916 0
M  V30 9014 H 834.677 2.522 0.427655 0
M  V30 9015 H 834.321 4.95439 1.11816 0
M  V30 9016 H 834.251 4.44486 2.82382 0
M  V30 9017 H 836.742 3.38791 1.6742 0
M  V30 9018 H 837.055 7.18252 2.85191 0
M  V30 9019 H 835.4 6.45687 2.57126 0
M  V30 9020 H 838.591 4.2332 1.99794 0
M  V30 9021 H 838.764 5.96349 2.5352 0
M  V30 9022 N 832.17 -0.811516 1.35101 0
M  V30 9023 C 833.586 -1.10634 1.15031 0
M  V30 9024 C 833.786 -2.01459 -0.0405379 0
M  V30 9025 O 832.842 -2.42235 -0.712635 0
M  V30 9026 C 834.155 -1.74207 2.45097 0
M  V30 9027 C 835.703 -1.8665 2.51258 0
M  V30 9028 C 836.178 -2.53638 3.81355 0
M  V30 9029 N 837.669 -2.61128 3.82579 0
M  V30 9030 C 838.404 -3.13717 4.79968 0
M  V30 9031 N 837.9 -3.66782 5.87744 0
M  V30 9032 N 839.693 -3.12224 4.67411 0
M  V30 9033 H 831.844 -0.207641 2.11383 0
M  V30 9034 H 834.107 -0.154697 0.935293 0
M  V30 9035 H 833.813 -1.14936 3.32389 0
M  V30 9036 H 833.687 -2.73958 2.59281 0
M  V30 9037 H 836.074 -2.45066 1.64398 0
M  V30 9038 H 836.155 -0.857678 2.40993 0
M  V30 9039 H 835.799 -1.95873 4.68611 0
M  V30 9040 H 835.729 -3.55047 3.88907 0
M  V30 9041 H 838.22 -2.23527 3.04703 0
M  V30 9042 H 838.533 -4.05194 6.58056 0
M  V30 9043 H 836.878 -3.64994 5.91443 0
M  V30 9044 H 840.069 -2.70042 3.82354 0
M  V30 9045 H 840.242 -3.52903 5.43474 0
M  V30 9046 N 833.648 -1.19017 -1.03309 0
M  V30 9047 C 834.58 -0.881847 -2.11556 0
M  V30 9048 C 835.593 0.123711 -1.62329 0
M  V30 9049 O 836.782 -0.105141 -1.7819 0
M  V30 9050 C 833.882 -0.297634 -3.37591 0
M  V30 9051 C 833.055 -1.35072 -4.16022 0
M  V30 9052 C 832.114 -0.780812 -5.20375 0
M  V30 9053 O 831.14 -1.45745 -5.50224 0
M  V30 9054 N 832.342 0.417964 -5.78993 0
M  V30 9055 H 835.107 -1.81359 -2.38598 0
M  V30 9056 H 832.668 -1.0916 -1.19565 0
M  V30 9057 H 834.66 0.097374 -4.04583 0
M  V30 9058 H 833.23 0.538299 -3.0793 0
M  V30 9059 H 832.45 -1.92074 -3.4424 0
M  V30 9060 H 833.738 -2.06044 -4.65213 0
M  V30 9061 H 833.136 0.985281 -5.57054 0
M  V30 9062 H 831.693 0.754802 -6.47415 0
M  V30 9063 N 835.127 1.22348 -0.993418 0
M  V30 9064 C 836.373 1.91689 -0.680217 0
M  V30 9065 C 836.728 1.75912 0.779269 0
M  V30 9066 O 836.021 1.11761 1.55628 0
M  V30 9067 C 836.215 3.42477 -1.02197 0
M  V30 9068 C 836.044 3.72923 -2.51313 0
M  V30 9069 C 834.814 3.9291 -3.17726 0
M  V30 9070 C 837.012 3.7736 -3.49434 0
M  V30 9071 N 834.994 4.10672 -4.56313 0
M  V30 9072 C 836.365 4.00269 -4.73481 0
M  V30 9073 C 838.42 3.60211 -3.43733 0
M  V30 9074 C 837.123 4.0781 -5.92523 0
M  V30 9075 C 839.149 3.69011 -4.62152 0
M  V30 9076 C 838.511 3.92371 -5.85 0
M  V30 9077 H 834.61 0.722086 -0.300193 0
M  V30 9078 H 837.194 1.47273 -1.27353 0
M  V30 9079 H 835.365 3.85699 -0.457223 0
M  V30 9080 H 837.097 3.99204 -0.664702 0
M  V30 9081 H 833.852 3.90345 -2.68193 0
M  V30 9082 H 834.276 4.2348 -5.28199 0
M  V30 9083 H 838.918 3.41137 -2.49771 0
M  V30 9084 H 836.636 4.25688 -6.86888 0
M  V30 9085 H 840.222 3.5708 -4.59331 0
M  V30 9086 H 839.102 3.9901 -6.75101 0
M  V30 9087 N 836.605 0.766683 1.37694 0
M  V30 9088 C 837.537 0.107798 2.28946 0
M  V30 9089 C 838.55 -0.669701 1.48387 0
M  V30 9090 O 839.739 -0.508629 1.711 0
M  V30 9091 C 836.839 -0.871084 3.27514 0
M  V30 9092 C 836.012 -0.148471 4.37148 0
M  V30 9093 C 835.071 -1.03998 5.1582 0
M  V30 9094 O 834.097 -0.505639 5.6695 0
M  V30 9095 N 835.299 -2.36679 5.3006 0
M  V30 9096 H 838.064 0.89154 2.86132 0
M  V30 9097 H 835.625 0.618593 1.49616 0
M  V30 9098 H 837.617 -1.47081 3.77027 0
M  V30 9099 H 836.187 -1.55582 2.71133 0
M  V30 9100 H 835.407 0.632117 3.89099 0
M  V30 9101 H 836.695 0.351045 5.07588 0
M  V30 9102 H 836.093 -2.82532 4.90094 0
M  V30 9103 H 834.65 -2.9167 5.82899 0
M  V30 9104 N 838.083 -1.48885 0.516809 0
M  V30 9105 C 839.03 -2.29408 -0.253125 0
M  V30 9106 C 840 -1.36533 -0.945935 0
M  V30 9107 O 841.185 -1.65495 -0.949527 0
M  V30 9108 C 838.325 -3.19592 -1.30211 0
M  V30 9109 C 837.438 -4.27535 -0.61948 0
M  V30 9110 C 836.573 -5.04916 -1.65026 0
M  V30 9111 C 835.612 -6.04677 -0.950368 0
M  V30 9112 N 834.749 -6.75164 -1.92608 0
M  V30 9113 H 839.589 -2.94738 0.439744 0
M  V30 9114 H 837.126 -1.45311 0.2287 0
M  V30 9115 H 839.084 -3.70267 -1.92245 0
M  V30 9116 H 837.714 -2.56213 -1.96353 0
M  V30 9117 H 836.766 -3.80228 0.114505 0
M  V30 9118 H 838.078 -4.98752 -0.0693016 0
M  V30 9119 H 837.232 -5.59539 -2.34523 0
M  V30 9120 H 835.971 -4.33508 -2.23432 0
M  V30 9121 H 834.976 -5.4927 -0.241252 0
M  V30 9122 H 836.201 -6.78077 -0.372599 0
M  V30 9123 H 834.147 -6.06517 -2.49946 0
M  V30 9124 H 834.064 -7.4241 -1.42699 0
M  V30 9125 H 835.332 -7.34384 -2.61345 0
M  V30 9126 N 839.561 -0.251338 -1.55583 0
M  V30 9127 C 840.524 0.63305 -2.20284 0
M  V30 9128 C 841.524 1.09941 -1.17344 0
M  V30 9129 O 842.714 1.00341 -1.42399 0
M  V30 9130 C 839.846 1.8706 -2.84993 0
M  V30 9131 H 841.039 0.0684846 -2.99822 0
M  V30 9132 H 838.592 -0.00181653 -1.563 0
M  V30 9133 H 839.327 2.47629 -2.09405 0
M  V30 9134 H 839.112 1.54436 -3.60405 0
M  V30 9135 H 840.602 2.50004 -3.34496 0
M  V30 9136 N 841.039 1.57585 0.0217189 0
M  V30 9137 C 841.986 2.07036 1.02004 0
M  V30 9138 C 842.956 0.96106 1.35473 0
M  V30 9139 O 844.141 1.23211 1.45684 0
M  V30 9140 C 841.281 2.56056 2.31364 0
M  V30 9141 C 840.394 3.80805 2.03989 0
M  V30 9142 C 839.529 4.18409 3.27272 0
M  V30 9143 C 838.568 5.36055 2.95486 0
M  V30 9144 N 837.705 5.69056 4.11242 0
M  V30 9145 H 842.545 2.92073 0.591396 0
M  V30 9146 H 840.082 1.44403 0.280384 0
M  V30 9147 H 842.04 2.82548 3.06957 0
M  V30 9148 H 840.67 1.73925 2.71937 0
M  V30 9149 H 839.722 3.61354 1.1886 0
M  V30 9150 H 841.034 4.66512 1.76546 0
M  V30 9151 H 840.188 4.46068 4.11228 0
M  V30 9152 H 838.927 3.31369 3.57835 0
M  V30 9153 H 837.932 5.08142 2.09933 0
M  V30 9154 H 839.157 6.24755 2.66193 0
M  V30 9155 H 837.103 4.84974 4.41742 0
M  V30 9156 H 837.02 6.49288 3.87247 0
M  V30 9157 H 838.288 6.01295 4.96049 0
M  V30 9158 N 842.517 -0.29412 1.54831 0
M  V30 9159 C 843.427 -1.3854 1.89325 0
M  V30 9160 C 844.443 -1.55127 0.788133 0
M  V30 9161 O 845.619 -1.6966 1.08524 0
M  V30 9162 C 842.684 -2.72809 2.13954 0
M  V30 9163 C 841.745 -2.65148 3.37631 0
M  V30 9164 C 840.978 -3.93014 3.61076 0
M  V30 9165 O 841.201 -4.927 2.87406 0
M  V30 9166 O 840.135 -3.94491 4.54599 0
M  V30 9167 H 843.961 -1.12289 2.82179 0
M  V30 9168 H 841.546 -0.490793 1.41108 0
M  V30 9169 H 843.428 -3.52238 2.31315 0
M  V30 9170 H 842.103 -2.9889 1.24285 0
M  V30 9171 H 841.01 -1.84168 3.25627 0
M  V30 9172 H 842.343 -2.4402 4.27452 0
M  V30 9173 N 843.995 -1.47404 -0.557645 0
M  V30 9174 C 845.241 -1.55219 -1.31449 0
M  V30 9175 C 845.596 -0.211457 -1.91234 0
M  V30 9176 O 844.889 0.782795 -1.7488 0
M  V30 9177 C 845.083 -2.6061 -2.44575 0
M  V30 9178 C 844.912 -4.048 -1.95875 0
M  V30 9179 C 843.682 -4.72252 -1.79738 0
M  V30 9180 C 845.88 -4.91833 -1.50348 0
M  V30 9181 N 843.862 -6.00962 -1.25372 0
M  V30 9182 C 845.233 -6.10566 -1.07745 0
M  V30 9183 C 847.288 -4.78279 -1.38396 0
M  V30 9184 C 845.991 -7.17242 -0.543767 0
M  V30 9185 C 848.017 -5.8505 -0.864293 0
M  V30 9186 C 847.379 -7.02973 -0.44818 0
M  V30 9187 H 843.478 -0.622694 -0.47305 0
M  V30 9188 H 846.062 -1.84152 -0.632144 0
M  V30 9189 H 844.233 -2.33545 -3.10341 0
M  V30 9190 H 845.965 -2.5827 -3.11574 0
M  V30 9191 H 842.72 -4.28153 -2.0244 0
M  V30 9192 H 843.144 -6.69532 -1.00278 0
M  V30 9193 H 847.786 -3.87477 -1.69179 0
M  V30 9194 H 845.504 -8.07791 -0.223563 0
M  V30 9195 H 849.09 -5.7661 -0.775371 0
M  V30 9196 H 847.97 -7.84183 -0.0522964 0
M  V30 9197 N 845.473 0.80434 -1.35529 0
M  V30 9198 C 846.719 1.56328 -1.30127 0
M  V30 9199 C 847.074 1.92008 0.122699 0
M  V30 9200 O 846.367 1.58693 1.07364 0
M  V30 9201 C 846.561 2.85988 -2.14349 0
M  V30 9202 C 846.39 2.62977 -3.64792 0
M  V30 9203 C 845.16 2.58757 -4.34019 0
M  V30 9204 C 847.358 2.332 -4.58391 0
M  V30 9205 N 845.34 2.27487 -5.70195 0
M  V30 9206 C 846.711 2.11788 -5.82706 0
M  V30 9207 C 848.766 2.19082 -4.4711 0
M  V30 9208 C 847.469 1.77688 -6.97008 0
M  V30 9209 C 849.495 1.86378 -5.61264 0
M  V30 9210 C 848.857 1.65804 -6.84608 0
M  V30 9211 H 844.956 0.57368 -0.531428 0
M  V30 9212 H 847.54 0.941313 -1.70433 0
M  V30 9213 H 845.711 3.46077 -1.76311 0
M  V30 9214 H 847.443 3.51571 -2.00449 0
M  V30 9215 H 844.198 2.73484 -3.86656 0
M  V30 9216 H 844.622 2.1464 -6.42074 0
M  V30 9217 H 849.264 2.33686 -3.5235 0
M  V30 9218 H 846.982 1.61822 -7.91732 0
M  V30 9219 H 850.568 1.7616 -5.5449 0
M  V30 9220 H 849.448 1.40868 -7.71444 0
M  V30 9221 N 846.951 1.19563 1.02676 0
M  V30 9222 C 847.914 0.937182 2.09164 0
M  V30 9223 C 848.914 -0.0831927 1.60585 0
M  V30 9224 O 850.104 0.15178 1.73538 0
M  V30 9225 C 847.236 0.408912 3.38439 0
M  V30 9226 H 848.429 1.88164 2.33526 0
M  V30 9227 H 845.982 1.00959 1.19319 0
M  V30 9228 H 846.717 -0.541497 3.19747 0
M  V30 9229 H 846.502 1.14464 3.7502 0
M  V30 9230 H 847.992 0.247242 4.16867 0
M  V30 9231 N 848.429 -1.21819 0.999893 0
M  V30 9232 C 849.675 -1.91325 0.690373 0
M  V30 9233 C 850.03 -1.76323 -0.769929 0
M  V30 9234 O 849.323 -1.12585 -1.55033 0
M  V30 9235 C 849.517 -3.4193 1.04012 0
M  V30 9236 C 849.346 -3.71585 2.53287 0
M  V30 9237 C 848.116 -3.91219 3.19806 0
M  V30 9238 C 850.314 -3.75502 3.5143 0
M  V30 9239 N 848.296 -4.08246 4.58485 0
M  V30 9240 C 849.667 -3.97753 4.75597 0
M  V30 9241 C 851.722 -3.58383 3.45638 0
M  V30 9242 C 850.425 -4.04662 5.94677 0
M  V30 9243 C 852.451 -3.66555 4.64103 0
M  V30 9244 C 851.813 -3.89263 5.87072 0
M  V30 9245 H 847.912 -0.720484 0.304018 0
M  V30 9246 H 850.496 -1.46595 1.28133 0
M  V30 9247 H 848.667 -3.85452 0.477671 0
M  V30 9248 H 850.399 -3.98846 0.685864 0
M  V30 9249 H 847.154 -3.88917 2.7026 0
M  V30 9250 H 847.578 -4.20673 5.30437 0
M  V30 9251 H 852.22 -3.39807 2.51576 0
M  V30 9252 H 849.938 -4.22039 6.89136 0
M  V30 9253 H 853.524 -3.54639 4.61218 0
M  V30 9254 H 852.404 -3.95424 6.77207 0
M  V30 9255 N 849.908 -0.773975 -1.37286 0
M  V30 9256 C 850.855 -0.159938 -2.30245 0
M  V30 9257 C 851.825 0.687356 -1.51211 0
M  V30 9258 O 853.01 0.639255 -1.79773 0
M  V30 9259 C 850.15 0.711452 -3.37687 0
M  V30 9260 C 849.263 -0.152692 -4.3173 0
M  V30 9261 C 848.398 0.723613 -5.26248 0
M  V30 9262 C 847.437 -0.14293 -6.11933 0
M  V30 9263 N 846.574 0.691479 -6.98687 0
M  V30 9264 H 851.414 -0.958182 -2.82175 0
M  V30 9265 H 848.951 -0.48411 -1.38906 0
M  V30 9266 H 850.909 1.2315 -3.9861 0
M  V30 9267 H 849.539 1.47528 -2.87116 0
M  V30 9268 H 848.591 -0.790574 -3.72094 0
M  V30 9269 H 849.903 -0.821027 -4.91997 0
M  V30 9270 H 849.057 1.31006 -5.92387 0
M  V30 9271 H 847.796 1.42562 -4.66398 0
M  V30 9272 H 846.801 -0.7419 -5.44771 0
M  V30 9273 H 848.026 -0.842305 -6.73856 0
M  V30 9274 H 845.972 1.37806 -6.41362 0
M  V30 9275 H 845.889 0.0804911 -7.55957 0
M  V30 9276 H 847.157 1.26225 -7.69212 0
M  V30 9277 N 851.386 1.48609 -0.524698 0
M  V30 9278 C 852.318 2.27508 0.278 0
M  V30 9279 C 853.331 1.35042 0.909258 0
M  V30 9280 O 854.52 1.60136 0.788592 0
M  V30 9281 C 851.62 3.08247 1.40843 0
M  V30 9282 C 850.793 4.28455 0.880083 0
M  V30 9283 C 849.852 4.91048 1.891 0
M  V30 9284 O 848.878 5.5042 1.45005 0
M  V30 9285 N 850.08 4.82816 3.22288 0
M  V30 9286 H 852.845 2.97037 -0.398642 0
M  V30 9287 H 850.406 1.57876 -0.358698 0
M  V30 9288 H 852.398 3.46992 2.08276 0
M  V30 9289 H 850.968 2.41173 1.98883 0
M  V30 9290 H 850.188 3.94189 0.0299228 0
M  V30 9291 H 851.476 5.06279 0.505881 0
M  V30 9292 H 850.874 4.3572 3.60783 0
M  V30 9293 H 849.431 5.25676 3.85368 0
M  V30 9294 N 852.864 0.259585 1.55447 0
M  V30 9295 C 853.827 -0.621359 2.20617 0
M  V30 9296 C 854.827 -1.09317 1.17925 0
M  V30 9297 O 856.017 -0.995842 1.42929 0
M  V30 9298 C 853.149 -1.85546 2.85982 0
M  V30 9299 H 854.342 -0.0525833 2.99854 0
M  V30 9300 H 851.895 0.0101055 1.56297 0
M  V30 9301 H 852.63 -2.46515 2.10715 0
M  V30 9302 H 852.415 -1.52523 3.61219 0
M  V30 9303 H 853.905 -2.48227 3.35817 0
M  V30 9304 N 854.342 -1.57594 -0.0133615 0
M  V30 9305 C 855.753 -1.78168 -0.557937 0
M  V30 9306 C 856.104 -0.892616 -1.74719 0
M  V30 9307 O 855.229 -0.0915491 -2.16206 0
M  V30 9308 C 855.824 -3.23115 -1.01894 0
M  V30 9309 C 854.383 -3.44831 -1.50892 0
M  V30 9310 C 853.53 -2.73558 -0.454044 0
M  V30 9311 H 856.481 -1.57266 0.212843 0
M  V30 9312 H 856.502 -3.30493 -1.8856 0
M  V30 9313 H 856.014 -3.87798 -0.153175 0
M  V30 9314 H 854.115 -2.85345 -2.39602 0
M  V30 9315 H 854.228 -4.53485 -1.54559 0
M  V30 9316 H 852.592 -2.37787 -0.912666 0
M  V30 9317 H 853.375 -3.40932 0.402524 0
M  V30 9318 N 855.82 0.285905 -1.54985 0
M  V30 9319 C 857.231 0.857869 -1.65824 0
M  V30 9320 C 857.582 1.87531 -0.576763 0
M  V30 9321 O 856.707 2.14528 0.284016 0
M  V30 9322 C 857.302 1.56277 -3.00604 0
M  V30 9323 C 855.861 2.08294 -3.13513 0
M  V30 9324 C 855.008 0.920633 -2.61571 0
M  V30 9325 H 857.959 0.0625463 -1.58577 0
M  V30 9326 H 857.98 2.42912 -2.92872 0
M  V30 9327 H 857.492 0.822017 -3.79295 0
M  V30 9328 H 855.593 2.8537 -2.39572 0
M  V30 9329 H 855.706 2.3071 -4.19892 0
M  V30 9330 H 854.07 1.31043 -2.18403 0
M  V30 9331 H 854.853 0.193594 -3.42754 0
M  V30 9332 N 857.298 1.47698 0.54982 0
M  V30 9333 C 858.538 1.56286 1.31735 0
M  V30 9334 C 858.902 0.223042 1.907 0
M  V30 9335 O 860.103 0.183798 2.68171 0
M  V30 9336 C 858.374 2.65522 2.39234 0
M  V30 9337 S 859.933 2.93742 3.25977 0
M  V30 9338 H 856.751 0.551795 0.448378 0
M  V30 9339 H 859.353 1.85118 0.628629 0
M  V30 9340 H 858.057 3.61457 1.94362 0
M  V30 9341 H 857.588 2.38528 3.12838 0
M  V30 9342 H 859.603 2.31522 4.38876 0
M  V30 9343 N 858.776 -0.797141 1.35954 0
M  V30 9344 C 860.187 -1.37179 1.26644 0
M  V30 9345 C 860.538 -1.9596 -0.0971046 0
M  V30 9346 O 859.663 -1.91994 -0.998355 0
M  V30 9347 C 860.258 -2.49395 2.2932 0
M  V30 9348 C 858.817 -3.02697 2.23722 0
M  V30 9349 C 857.964 -1.75721 2.14517 0
M  V30 9350 H 860.915 -0.599407 1.46945 0
M  V30 9351 H 860.936 -3.28204 1.92515 0
M  V30 9352 H 860.448 -2.06584 3.2855 0
M  V30 9353 H 858.549 -3.49948 1.27934 0
M  V30 9354 H 858.662 -3.60036 3.16087 0
M  V30 9355 H 857.026 -1.97649 1.60646 0
M  V30 9356 H 857.809 -1.35049 3.15621 0
M  V30 9357 N 860.254 -1.20106 -1.0204 0
M  V30 9358 C 861.164 -0.962051 -2.13967 0
M  V30 9359 C 862.18 0.0808053 -1.73812 0
M  V30 9360 O 863.356 -0.105774 -2.01122 0
M  V30 9361 C 860.421 -0.513108 -3.42882 0
M  V30 9362 C 859.482 -1.62636 -3.97301 0
M  V30 9363 C 858.715 -1.19875 -5.20063 0
M  V30 9364 O 858.938 -0.0658423 -5.70362 0
M  V30 9365 O 857.872 -2.00467 -5.67536 0
M  V30 9366 H 861.698 -1.8991 -2.36998 0
M  V30 9367 H 859.283 -0.984608 -1.12365 0
M  V30 9368 H 861.165 -0.271797 -4.20523 0
M  V30 9369 H 859.84 0.395402 -3.21276 0
M  V30 9370 H 858.747 -1.92192 -3.20957 0
M  V30 9371 H 860.08 -2.51174 -4.23288 0
M  V30 9372 N 861.732 1.21287 -1.00634 0
M  V30 9373 C 862.695 2.21927 -0.572821 0
M  V30 9374 C 863.695 1.5691 0.351541 0
M  V30 9375 O 864.885 1.73623 0.141643 0
M  V30 9376 C 862.017 3.40501 0.164932 0
M  V30 9377 H 863.21 2.61795 -1.463 0
M  V30 9378 H 860.763 1.34571 -0.794998 0
M  V30 9379 H 861.498 3.06123 1.07049 0
M  V30 9380 H 861.283 3.88912 -0.498962 0
M  V30 9381 H 862.773 4.15103 0.455945 0
M  V30 9382 N 863.21 0.781244 1.36873 0
M  V30 9383 C 864.621 0.414093 1.8205 0
M  V30 9384 C 864.972 -1.06098 1.65039 0
M  V30 9385 O 864.097 -1.82251 1.16677 0
M  V30 9386 C 864.692 0.744837 3.30511 0
M  V30 9387 C 863.251 0.430621 3.73929 0
M  V30 9388 C 862.398 0.983746 2.59264 0
M  V30 9389 H 865.349 0.975091 1.2521 0
M  V30 9390 H 865.37 0.032936 3.80486 0
M  V30 9391 H 864.882 1.81847 3.42861 0
M  V30 9392 H 862.983 -0.635308 3.67144 0
M  V30 9393 H 863.096 0.945514 4.69677 0
M  V30 9394 H 861.46 0.407433 2.5142 0
M  V30 9395 H 862.243 2.06297 2.74402 0
M  V30 9396 N 864.689 -1.48329 0.532571 0
M  V30 9397 C 866.105 -1.58458 0.190605 0
M  V30 9398 C 866.305 -1.53427 -1.30623 0
M  V30 9399 O 865.361 -1.4247 -2.08467 0
M  V30 9400 C 866.674 -2.89989 0.79543 0
M  V30 9401 C 868.222 -3.03523 0.7644 0
M  V30 9402 C 868.697 -4.37718 1.34785 0
M  V30 9403 N 870.188 -4.44292 1.30993 0
M  V30 9404 C 870.923 -5.4664 1.73124 0
M  V30 9405 N 870.419 -6.5593 2.22997 0
M  V30 9406 N 872.212 -5.37538 1.64346 0
M  V30 9407 H 864.363 -1.49842 1.50537 0
M  V30 9408 H 866.626 -0.71164 0.626316 0
M  V30 9409 H 866.332 -2.99333 1.84642 0
M  V30 9410 H 866.206 -3.76203 0.27403 0
M  V30 9411 H 868.593 -2.93789 -0.277831 0
M  V30 9412 H 868.674 -2.18912 1.3233 0
M  V30 9413 H 868.318 -4.48206 2.38902 0
M  V30 9414 H 868.248 -5.21019 0.764609 0
M  V30 9415 H 870.739 -3.65897 0.944868 0
M  V30 9416 H 871.052 -7.30167 2.53133 0
M  V30 9417 H 869.397 -6.56886 2.26992 0
M  V30 9418 H 872.588 -4.51052 1.25178 0
M  V30 9419 H 872.761 -6.17169 1.97501 0
M  V30 9420 N 866.167 -0.267825 -1.55308 0
M  V30 9421 C 867.392 0.357487 -2.04296 0
M  V30 9422 C 867.817 1.49222 -1.14518 0
M  V30 9423 O 867.175 1.80741 -0.142292 0
M  V30 9424 C 867.223 0.822899 -3.51085 0
M  V30 9425 O 866.327 1.93078 -3.6441 0
M  V30 9426 H 865.668 0.075025 -0.659748 0
M  V30 9427 H 868.198 -0.399996 -2.00652 0
M  V30 9428 H 868.208 1.12059 -3.92309 0
M  V30 9429 H 866.883 -0.0073562 -4.15899 0
M  V30 9430 H 865.46 1.63618 -3.35087 0
M  V30 9431 N 867.645 1.57599 0.00500368 0
M  V30 9432 C 869.056 1.78462 0.54848 0
M  V30 9433 C 869.407 0.901869 1.74243 0
M  V30 9434 O 868.532 0.103014 2.16155 0
M  V30 9435 C 869.127 3.2365 1.00179 0
M  V30 9436 C 867.686 3.45627 1.49061 0
M  V30 9437 C 866.833 2.73794 0.439531 0
M  V30 9438 H 869.784 1.57151 -0.22118 0
M  V30 9439 H 869.805 3.31488 1.86805 0
M  V30 9440 H 869.317 3.87873 0.132607 0
M  V30 9441 H 867.418 2.86612 2.38085 0
M  V30 9442 H 867.531 4.54298 1.52152 0
M  V30 9443 H 865.895 2.38267 0.900043 0
M  V30 9444 H 866.678 3.40714 -0.420599 0
M  V30 9445 N 869.123 -0.277682 1.55134 0
M  V30 9446 C 870.055 -1.36531 1.84098 0
M  V30 9447 C 871.068 -1.45756 0.725194 0
M  V30 9448 O 872.257 -1.47656 1.00299 0
M  V30 9449 C 869.357 -2.74701 1.98476 0
M  V30 9450 C 868.53 -2.88125 3.29094 0
M  V30 9451 C 867.589 -4.0694 3.33596 0
M  V30 9452 O 866.615 -3.9792 4.06999 0
M  V30 9453 N 867.817 -5.18687 2.60661 0
M  V30 9454 H 870.582 -1.12032 2.77973 0
M  V30 9455 H 868.143 -0.467793 1.54995 0
M  V30 9456 H 870.135 -3.52471 1.98863 0
M  V30 9457 H 868.705 -2.92043 1.11488 0
M  V30 9458 H 867.925 -1.97277 3.41285 0
M  V30 9459 H 869.213 -2.94021 4.15246 0
M  V30 9460 H 868.611 -5.28901 2.00699 0
M  V30 9461 H 867.168 -5.94705 2.66776 0
M  V30 9462 N 870.601 -1.47988 -0.541979 0
M  V30 9463 C 871.849 -1.55086 -1.29587 0
M  V30 9464 C 872.17 -0.221304 -1.9374 0
M  V30 9465 O 871.44 0.756128 -1.80719 0
M  V30 9466 H 870.02 -0.571307 -0.481266 0
M  V30 9467 H 872.682 -1.8438 -0.631675 0
M  V30 9468 H 871.778 -2.32556 -2.08144 0
M  V30 9469 N 872.079 0.78992 -1.36375 0
M  V30 9470 C 873.011 1.91113 -1.26524 0
M  V30 9471 C 874.024 1.61747 -0.184851 0
M  V30 9472 O 875.213 1.73004 -0.439524 0
M  V30 9473 C 872.313 3.25908 -0.92937 0
M  V30 9474 C 871.486 3.83057 -2.11154 0
M  V30 9475 C 870.545 4.96289 -1.74881 0
M  V30 9476 O 869.571 5.12834 -2.46962 0
M  V30 9477 N 870.773 5.76478 -0.682193 0
M  V30 9478 H 873.538 2.00085 -2.23128 0
M  V30 9479 H 871.099 0.968165 -1.29762 0
M  V30 9480 H 873.091 3.99151 -0.667884 0
M  V30 9481 H 871.661 3.12556 -0.0524843 0
M  V30 9482 H 870.881 3.01808 -2.53586 0
M  V30 9483 H 872.169 4.1797 -2.90135 0
M  V30 9484 H 871.567 5.65638 -0.0836661 0
M  V30 9485 H 870.124 6.50026 -0.480529 0
M  V30 9486 N 873.557 1.20646 1.01402 0
M  V30 9487 C 874.834 0.927176 1.72229 0
M  V30 9488 C 875.214 -0.563382 2.03443 0
M  V30 9489 O 874.562 -1.52576 1.70096 0
M  V30 9490 C 874.772 1.80285 2.98828 0
M  V30 9491 C 876.12 2.04624 3.72041 0
M  V30 9492 O 877.144 1.77559 3.0879 0
M  V30 9493 O 876.003 2.50347 4.85787 0
M  V30 9494 H 873.097 0.346891 0.75073 0
M  V30 9495 H 875.643 1.31532 1.07227 0
M  V30 9496 H 874.415 2.81204 2.72102 0
M  V30 9497 H 874.038 1.41495 3.71571 0
M  V30 9498 N 875.035 -1.20752 1.01276 0
M  V30 9499 C 875.983 -2.25432 0.572989 0
M  V30 9500 C 876.977 -1.64935 -0.386354 0
M  V30 9501 O 878.183 -1.7816 -0.256696 0
M  V30 9502 H 874.558 -0.733229 0.166972 0
M  V30 9503 H 876.529 -2.59856 1.46687 0
M  V30 9504 C 875.278 -3.47615 -0.0768249 0
M  V30 9505 H 874.601 -3.94442 0.652354 0
M  V30 9506 H 876.041 -4.22572 -0.3477 0
M  V30 9507 C 874.5 -3.1003 -1.31845 0
M  V30 9508 O 875.03 -3.21216 -2.41211 0
M  V30 9509 N 873.236 -2.64616 -1.20111 0
M  V30 9510 H 872.783 -2.55714 -0.311184 0
M  V30 9511 H 872.741 -2.39838 -2.03286 0
M  V30 9512 N 876.513 -0.788492 -1.36457 0
M  V30 9513 C 877.924 -0.423742 -1.81828 0
M  V30 9514 C 878.275 1.05221 -1.65599 0
M  V30 9515 O 877.4 1.8163 -1.17641 0
M  V30 9516 C 877.995 -0.762354 -3.30112 0
M  V30 9517 C 876.554 -0.450445 -3.73695 0
M  V30 9518 C 875.701 -0.997482 -2.58738 0
M  V30 9519 H 878.652 -0.981718 -1.24692 0
M  V30 9520 H 878.673 -0.0531136 -3.80463 0
M  V30 9521 H 878.185 -1.83662 -3.41891 0
M  V30 9522 H 876.286 0.615829 -3.67476 0
M  V30 9523 H 876.399 -0.970408 -4.69169 0
M  V30 9524 H 874.763 -0.420761 -2.51201 0
M  V30 9525 H 875.546 -2.07749 -2.73304 0
M  V30 9526 N 877.991 1.48044 -0.54043 0
M  V30 9527 C 878.954 2.28273 0.205966 0
M  V30 9528 C 879.954 1.35983 0.858209 0
M  V30 9529 O 881.144 1.58776 0.716651 0
M  V30 9530 C 878.276 3.15174 1.29917 0
M  V30 9531 H 879.469 2.95727 -0.498555 0
M  V30 9532 H 877.022 1.53457 -0.296745 0
M  V30 9533 H 877.757 2.52374 2.03661 0
M  V30 9534 H 877.542 3.83074 0.836475 0
M  V30 9535 H 879.032 3.75666 1.82387 0
M  V30 9536 N 879.47 0.276058 1.55163 0
M  V30 9537 C 880.4 -0.604633 2.25536 0
M  V30 9538 C 881.381 -1.15813 1.24585 0
M  V30 9539 O 882.566 -1.1921 1.53306 0
M  V30 9540 C 879.696 -1.78836 2.97716 0
M  V30 9541 C 878.65 -1.36635 4.05604 0
M  V30 9542 C 877.976 -2.63325 4.65364 0
M  V30 9543 C 879.276 -0.515858 5.19746 0
M  V30 9544 H 880.97 -0.0177483 2.99395 0
M  V30 9545 H 878.516 -0.00709627 1.43998 0
M  V30 9546 H 880.469 -2.41036 3.45658 0
M  V30 9547 H 879.193 -2.40109 2.21394 0
M  V30 9548 H 877.852 -0.767541 3.58475 0
M  V30 9549 H 877.5 -3.22858 3.85709 0
M  V30 9550 H 877.2 -2.358 5.38212 0
M  V30 9551 H 878.724 -3.26372 5.16056 0
M  V30 9552 H 880.138 -1.04289 5.63735 0
M  V30 9553 H 878.535 -0.335449 5.99162 0
M  V30 9554 H 879.605 0.465137 4.82664 0
M  V30 9555 N 880.948 -1.576 0.00335426 0
M  V30 9556 C 882.225 -1.81945 -0.718015 0
M  V30 9557 C 882.605 -0.881788 -1.91801 0
M  V30 9558 O 881.953 0.0687118 -2.28397 0
M  V30 9559 C 882.163 -3.30521 -1.12058 0
M  V30 9560 C 883.511 -3.96345 -1.52303 0
M  V30 9561 O 884.535 -3.34864 -1.21428 0
M  V30 9562 O 883.394 -5.04655 -2.09728 0
M  V30 9563 H 880.488 -0.749328 -0.34991 0
M  V30 9564 H 883.034 -1.69675 0.0290654 0
M  V30 9565 H 881.806 -3.90399 -0.265378 0
M  V30 9566 H 881.429 -3.47802 -1.92665 0
M  V30 9567 N 882.426 0.269451 -1.5528 0
M  V30 9568 C 883.675 0.998381 -1.75258 0
M  V30 9569 C 883.988 1.87321 -0.563034 0
M  V30 9570 O 885.194 2.63719 -0.645313 0
M  V30 9571 C 883.65 1.82505 -3.10193 0
M  V30 9572 C 883.258 0.99871 -4.36726 0
M  V30 9573 C 885.002 2.54807 -3.3952 0
M  V30 9574 C 882.909 1.81997 -5.627 0
M  V30 9575 H 881.839 0.376488 -0.653278 0
M  V30 9576 H 884.49 0.253909 -1.81735 0
M  V30 9577 H 882.872 2.61061 -2.97763 0
M  V30 9578 H 884.046 0.257064 -4.60082 0
M  V30 9579 H 882.361 0.390074 -4.14569 0
M  V30 9580 H 884.958 3.16662 -4.30847 0
M  V30 9581 H 885.301 3.25273 -2.59813 0
M  V30 9582 H 885.834 1.83278 -3.53064 0
M  V30 9583 H 882.573 1.15945 -6.45164 0
M  V30 9584 H 882.093 2.53749 -5.43481 0
M  V30 9585 H 883.772 2.39274 -6.0113 0
M  V30 9586 N 883.904 1.48273 0.534124 0
M  V30 9587 C 885.181 1.46567 1.29528 0
M  V30 9588 C 885.561 0.17509 2.10373 0
M  V30 9589 O 884.909 -0.843228 2.12372 0
M  V30 9590 C 885.119 2.72519 2.18023 0
M  V30 9591 C 886.467 3.2068 2.78298 0
M  V30 9592 O 887.491 2.73408 2.28313 0
M  V30 9593 O 886.35 4.02924 3.69208 0
M  V30 9594 H 883.444 0.585151 0.584403 0
M  V30 9595 H 885.99 1.60502 0.551119 0
M  V30 9596 H 884.762 3.57965 1.5804 0
M  V30 9597 H 884.385 2.61285 2.99693 0
M  V30 9598 N 885.382 -0.782676 1.36792 0
M  V30 9599 C 886.659 -1.52939 1.21939 0
M  V30 9600 C 887.039 -2.10228 -0.191639 0
M  V30 9601 O 886.387 -1.94574 -1.19805 0
M  V30 9602 C 886.597 -2.61898 2.30674 0
M  V30 9603 C 887.945 -3.29598 2.67676 0
M  V30 9604 O 888.969 -2.72186 2.29768 0
M  V30 9605 O 887.828 -4.3337 3.32946 0
M  V30 9606 H 884.922 -0.676856 0.47518 0
M  V30 9607 H 887.468 -0.82058 1.48542 0
M  V30 9608 H 886.24 -2.17607 3.25212 0
M  V30 9609 H 885.863 -3.40391 2.05475 0
M  V30 9610 N 886.86 -1.21182 -1.00761 0
M  V30 9611 C 888.137 -0.936297 -1.71735 0
M  V30 9612 C 888.517 0.552585 -2.03739 0
M  V30 9613 O 887.865 1.51672 -1.70903 0
M  V30 9614 C 888.075 -1.81867 -2.97868 0
M  V30 9615 C 889.423 -2.06594 -3.7095 0
M  V30 9616 O 890.447 -1.79194 -3.07844 0
M  V30 9617 O 889.306 -2.5292 -4.84452 0
M  V30 9618 H 886.4 -0.350867 -0.74888 0
M  V30 9619 H 888.946 -1.32098 -1.06527 0
M  V30 9620 H 887.718 -2.82643 -2.70607 0
M  V30 9621 H 887.341 -1.43463 -3.70815 0
M  V30 9622 N 888.338 1.20213 -1.01915 0
M  V30 9623 C 889.268 2.25336 -0.612023 0
M  V30 9624 C 890.249 1.65933 0.374186 0
M  V30 9625 O 891.434 1.92464 0.259053 0
M  V30 9626 C 888.564 3.47267 0.047904 0
M  V30 9627 C 887.518 4.1928 -0.859557 0
M  V30 9628 C 886.844 5.3466 -0.0652655 0
M  V30 9629 C 888.144 4.75143 -2.1688 0
M  V30 9630 H 889.838 2.59645 -1.49079 0
M  V30 9631 H 887.384 1.24808 -0.718263 0
M  V30 9632 H 889.337 4.19991 0.344294 0
M  V30 9633 H 888.061 3.12129 0.961404 0
M  V30 9634 H 886.72 3.48425 -1.13999 0
M  V30 9635 H 886.368 4.95767 0.849964 0
M  V30 9636 H 886.068 5.83772 -0.669618 0
M  V30 9637 H 887.592 6.10187 0.224612 0
M  V30 9638 H 889.006 5.39672 -1.9346 0
M  V30 9639 H 887.403 5.34702 -2.72422 0
M  V30 9640 H 888.473 3.93744 -2.83008 0
M  V30 9641 N 889.816 0.795718 1.36037 0
M  V30 9642 C 891.227 0.433379 1.816 0
M  V30 9643 C 891.578 -1.04341 1.66155 0
M  V30 9644 O 890.703 -1.81004 1.18603 0
M  V30 9645 C 891.298 0.77985 3.29703 0
M  V30 9646 C 889.857 0.470256 3.73451 0
M  V30 9647 C 889.004 1.01119 2.58206 0
M  V30 9648 H 891.955 0.988317 1.24169 0
M  V30 9649 H 891.976 0.0732898 3.80429 0
M  V30 9650 H 891.488 1.85473 3.40913 0
M  V30 9651 H 889.589 -0.596332 3.67797 0
M  V30 9652 H 889.702 0.995276 4.68648 0
M  V30 9653 H 888.066 0.434077 2.50974 0
M  V30 9654 H 888.849 2.09196 2.72198 0
M  V30 9655 N 891.294 -1.47756 0.548274 0
M  V30 9656 C 892.522 -2.06884 0.0254873 0
M  V30 9657 C 892.937 -1.40225 -1.26422 0
M  V30 9658 O 892.294 -0.495776 -1.75637 0
M  V30 9659 C 892.345 -3.61036 -0.183134 0
M  V30 9660 O 892.066 -4.25195 1.05549 0
M  V30 9661 C 893.567 -4.37008 -0.744222 0
M  V30 9662 H 890.787 -0.669697 0.041789 0
M  V30 9663 H 893.331 -1.89888 0.759138 0
M  V30 9664 H 891.486 -3.77576 -0.866886 0
M  V30 9665 H 891.9 -5.17606 0.847629 0
M  V30 9666 H 893.374 -5.45579 -0.839529 0
M  V30 9667 H 893.851 -4.0268 -1.75344 0
M  V30 9668 H 894.457 -4.25191 -0.0964542 0
M  V30 9669 N 892.772 -0.284283 -1.55015 0
M  V30 9670 C 894.019 0.329864 -1.99795 0
M  V30 9671 C 894.347 1.55171 -1.1727 0
M  V30 9672 O 893.602 1.94312 -0.232667 0
M  V30 9673 C 893.901 0.747219 -3.49502 0
M  V30 9674 C 893.567 -0.37101 -4.49371 0
M  V30 9675 C 892.229 -0.678034 -4.76399 0
M  V30 9676 C 894.581 -1.12406 -5.08935 0
M  V30 9677 C 891.909 -1.74152 -5.60257 0
M  V30 9678 C 894.261 -2.17734 -5.93948 0
M  V30 9679 C 892.925 -2.49061 -6.19294 0
M  V30 9680 H 892.195 0.120706 -0.731103 0
M  V30 9681 H 894.842 -0.399904 -1.87278 0
M  V30 9682 H 893.147 1.55681 -3.59542 0
M  V30 9683 H 894.844 1.2333 -3.81563 0
M  V30 9684 H 891.434 -0.1216 -4.28427 0
M  V30 9685 H 895.618 -0.900119 -4.88069 0
M  V30 9686 H 890.874 -1.98915 -5.78137 0
M  V30 9687 H 895.048 -2.76553 -6.39133 0
M  V30 9688 H 892.675 -3.31602 -6.84064 0
M  V30 9689 N 894.251 1.57596 -0.0117121 0
M  V30 9690 C 895.199 2.1029 0.994035 0
M  V30 9691 C 896.193 1.02549 1.34833 0
M  V30 9692 O 897.399 1.21003 1.3326 0
M  V30 9693 H 893.774 0.671624 0.338268 0
M  V30 9694 H 895.745 2.93761 0.524147 0
M  V30 9695 C 894.494 2.63099 2.27319 0
M  V30 9696 H 893.817 3.45642 2.00927 0
M  V30 9697 H 895.257 3.03635 2.95942 0
M  V30 9698 C 893.716 1.55044 2.99104 0
M  V30 9699 O 894.246 0.940127 3.90544 0
M  V30 9700 N 892.452 1.27506 2.61133 0
M  V30 9701 H 891.999 1.77322 1.86855 0
M  V30 9702 H 891.957 0.554292 3.09475 0
M  V30 9703 N 895.729 -0.261212 1.5542 0
M  V30 9704 C 896.954 -1.01341 1.80955 0
M  V30 9705 C 897.379 -1.78711 0.586849 0
M  V30 9706 O 896.737 -1.75266 -0.463837 0
M  V30 9707 C 896.785 -1.93835 3.04073 0
M  V30 9708 O 895.889 -3.02791 2.79985 0
M  V30 9709 H 895.23 -0.289123 0.597749 0
M  V30 9710 H 897.76 -0.286543 2.02584 0
M  V30 9711 H 897.77 -2.3557 3.33123 0
M  V30 9712 H 896.445 -1.36936 3.9271 0
M  V30 9713 H 895.022 -2.65287 2.62063 0
M  V30 9714 N 897.207 -1.48554 -0.526253 0
M  V30 9715 C 898.17 -1.62868 -1.61266 0
M  V30 9716 C 899.17 -0.501762 -1.52771 0
M  V30 9717 O 900.36 -0.76764 -1.56374 0
M  V30 9718 C 897.492 -1.60238 -3.00893 0
M  V30 9719 H 898.685 -2.59742 -1.49913 0
M  V30 9720 H 896.238 -1.37207 -0.748595 0
M  V30 9721 H 896.973 -0.648545 -3.17749 0
M  V30 9722 H 896.758 -2.42054 -3.08468 0
M  V30 9723 H 898.248 -1.73455 -3.79872 0
M  V30 9724 N 898.685 0.775411 -1.37205 0
M  V30 9725 C 899.615 1.90258 -1.35367 0
M  V30 9726 C 900.596 1.68634 -0.222864 0
M  V30 9727 O 901.781 1.89545 -0.422659 0
M  V30 9728 C 898.911 3.27488 -1.15623 0
M  V30 9729 C 897.865 3.63668 -2.25676 0
M  V30 9730 C 897.191 4.994 -1.91059 0
M  V30 9731 C 898.491 3.70797 -3.67841 0
M  V30 9732 H 900.185 1.92053 -2.29687 0
M  V30 9733 H 897.731 0.922597 -1.10563 0
M  V30 9734 H 899.684 4.05976 -1.12968 0
M  V30 9735 H 898.408 3.26117 -0.177573 0
M  V30 9736 H 897.067 2.87486 -2.2748 0
M  V30 9737 H 896.715 4.94565 -0.917324 0
M  V30 9738 H 896.415 5.24576 -2.64751 0
M  V30 9739 H 897.939 5.80291 -1.89985 0
M  V30 9740 H 899.353 4.39444 -3.68187 0
M  V30 9741 H 897.75 4.07468 -4.40556 0
M  V30 9742 H 898.82 2.71549 -4.01732 0
M  V30 9743 N 900.163 1.21714 1.00117 0
M  V30 9744 C 901.113 0.947259 2.07391 0
M  V30 9745 C 902.097 -0.0989662 1.60595 0
M  V30 9746 O 903.289 0.11047 1.76655 0
M  V30 9747 C 900.418 0.517954 3.3937 0
M  V30 9748 C 899.504 1.59846 3.92823 0
M  V30 9749 N 899.895 2.82438 4.19598 0
M  V30 9750 C 898.193 1.46822 4.2114 0
M  V30 9751 C 898.894 3.52247 4.62922 0
M  V30 9752 N 897.87 2.79696 4.66124 0
M  V30 9753 H 901.672 1.8786 2.26022 0
M  V30 9754 H 899.186 1.11344 1.18221 0
M  V30 9755 H 901.183 0.305951 4.15776 0
M  V30 9756 H 899.843 -0.40658 3.22144 0
M  V30 9757 H 900.854 3.18944 4.08038 0
M  V30 9758 H 897.531 0.609259 4.13031 0
M  V30 9759 H 898.921 4.57232 4.9233 0
M  V30 9760 N 901.641 -1.19671 1.02551 0
M  V30 9761 C 902.571 -2.25009 0.623965 0
M  V30 9762 C 903.552 -1.66129 -0.36538 0
M  V30 9763 O 904.737 -1.92599 -0.248842 0
M  V30 9764 C 901.867 -3.47287 -0.0294869 0
M  V30 9765 C 900.821 -4.18818 0.881781 0
M  V30 9766 C 900.147 -5.34618 0.0936189 0
M  V30 9767 C 901.447 -4.73986 2.19396 0
M  V30 9768 H 903.141 -2.58851 1.50454 0
M  V30 9769 H 900.687 -1.24425 0.724872 0
M  V30 9770 H 902.64 -4.20168 -0.322016 0
M  V30 9771 H 901.364 -3.12635 -0.944838 0
M  V30 9772 H 900.023 -3.47815 1.15845 0
M  V30 9773 H 899.671 -4.9621 -0.823661 0
M  V30 9774 H 899.371 -5.83409 0.700568 0
M  V30 9775 H 900.895 -6.10297 -0.192249 0
M  V30 9776 H 902.309 -5.38639 1.96319 0
M  V30 9777 H 900.706 -5.3325 2.75254 0
M  V30 9778 H 901.776 -3.92238 2.85092 0
M  V30 9779 N 903.119 -0.802921 -1.35613 0
M  V30 9780 C 904.53 -0.443004 -1.81368 0
M  V30 9781 C 904.881 1.03459 -1.66706 0
M  V30 9782 O 904.006 1.80372 -1.19561 0
M  V30 9783 C 904.601 -0.797324 -3.29284 0
M  V30 9784 C 903.16 -0.490055 -3.73196 0
M  V30 9785 C 902.307 -1.02487 -2.57666 0
M  V30 9786 H 905.258 -0.994888 -1.23643 0
M  V30 9787 H 905.279 -0.0934638 -3.80385 0
M  V30 9788 H 904.791 -1.87278 -3.39924 0
M  V30 9789 H 902.892 0.576818 -3.68108 0
M  V30 9790 H 903.005 -1.02012 -4.68114 0
M  V30 9791 H 901.369 -0.44738 -2.5074 0
M  V30 9792 H 902.152 -2.10636 -2.71085 0
M  V30 9793 N 904.597 1.47463 -0.556102 0
M  V30 9794 C 906.008 1.86298 -0.122429 0
M  V30 9795 C 906.359 1.46285 1.30749 0
M  V30 9796 O 905.484 0.865405 1.98342 0
M  V30 9797 C 906.079 3.38115 -0.215407 0
M  V30 9798 C 904.638 3.76046 0.163223 0
M  V30 9799 C 903.785 2.71515 -0.563466 0
M  V30 9800 H 906.736 1.38996 -0.765888 0
M  V30 9801 H 906.757 3.76263 0.566271 0
M  V30 9802 H 906.269 3.67207 -1.25622 0
M  V30 9803 H 904.37 3.5257 1.20519 0
M  V30 9804 H 904.483 4.78705 -0.194568 0
M  V30 9805 H 902.847 2.54699 -0.00667879 0
M  V30 9806 H 903.63 3.03449 -1.60542 0
M  V30 9807 N 906.075 0.2925 1.54862 0
M  V30 9808 C 907.038 -0.574423 2.21885 0
M  V30 9809 C 908.038 -1.06791 1.20218 0
M  V30 9810 O 909.228 -0.9653 1.45009 0
M  V30 9811 C 906.36 -1.79438 2.89853 0
M  V30 9812 H 907.553 0.0110319 2.99898 0
M  V30 9813 H 905.106 0.043256 1.5624 0
M  V30 9814 H 905.841 -2.4199 2.15897 0
M  V30 9815 H 905.626 -1.44827 3.64373 0
M  V30 9816 H 907.116 -2.41048 3.41007 0
M  V30 9817 N 907.553 -1.57587 0.0200696 0
M  V30 9818 C 908.483 -2.12702 -0.963333 0
M  V30 9819 C 909.464 -1.04094 -1.34531 0
M  V30 9820 O 910.649 -1.31881 -1.42552 0
M  V30 9821 C 907.779 -2.64673 -2.24868 0
M  V30 9822 C 906.733 -3.77987 -2.00772 0
M  V30 9823 C 906.059 -4.16351 -3.35494 0
M  V30 9824 C 907.359 -5.0444 -1.35416 0
M  V30 9825 H 909.053 -2.95121 -0.504363 0
M  V30 9826 H 906.599 -1.41966 -0.24116 0
M  V30 9827 H 908.552 -3.01862 -2.94036 0
M  V30 9828 H 907.276 -1.79403 -2.72914 0
M  V30 9829 H 905.935 -3.41223 -1.34025 0
M  V30 9830 H 905.583 -3.28075 -3.81282 0
M  V30 9831 H 905.283 -4.92705 -3.20181 0
M  V30 9832 H 906.807 -4.56115 -4.05945 0
M  V30 9833 H 908.221 -5.39273 -1.94571 0
M  V30 9834 H 906.618 -5.85732 -1.30529 0
M  V30 9835 H 907.688 -4.83803 -0.325923 0
M  V30 9836 N 909.032 0.252966 -1.55557 0
M  V30 9837 C 910.28 0.979912 -1.76754 0
M  V30 9838 C 910.601 1.86083 -0.582944 0
M  V30 9839 O 909.871 1.91742 0.401497 0
M  V30 9840 H 908.451 0.364805 -0.651864 0
M  V30 9841 H 911.113 0.272372 -1.92987 0
M  V30 9842 H 910.209 1.60518 -2.67657 0
M  V30 9843 N 910.51 1.48831 0.518367 0
M  V30 9844 C 911.738 1.6112 1.298 0
M  V30 9845 C 912.153 0.275872 1.86774 0
M  V30 9846 O 911.51 -0.736416 1.66983 0
M  V30 9847 C 911.561 2.66675 2.44063 0
M  V30 9848 O 911.282 3.95027 1.89434 0
M  V30 9849 C 912.783 2.8951 3.35706 0
M  V30 9850 H 910.003 0.542916 0.394314 0
M  V30 9851 H 912.547 1.94743 0.624142 0
M  V30 9852 H 910.702 2.35879 3.07311 0
M  V30 9853 H 911.116 4.53031 2.64316 0
M  V30 9854 H 912.59 3.67142 4.12202 0
M  V30 9855 H 913.067 1.98768 3.91648 0
M  V30 9856 H 913.673 3.21656 2.7824 0
M  V30 9857 N 911.988 -0.768124 1.37614 0
M  V30 9858 C 912.92 -1.89076 1.29548 0
M  V30 9859 C 913.933 -1.61433 0.21056 0
M  V30 9860 O 915.122 -1.72283 0.466992 0
M  V30 9861 C 912.222 -3.24388 0.981102 0
M  V30 9862 C 911.395 -3.79649 2.17222 0
M  V30 9863 C 910.454 -4.93444 1.82754 0
M  V30 9864 O 909.48 -5.0884 2.5509 0
M  V30 9865 N 910.682 -5.75319 0.773819 0
M  V30 9866 H 913.447 -1.9651 2.26283 0
M  V30 9867 H 911.008 -0.947399 1.31286 0
M  V30 9868 H 913 -3.98038 0.731301 0
M  V30 9869 H 911.57 -3.12433 0.102203 0
M  V30 9870 H 910.79 -2.97735 2.58355 0
M  V30 9871 H 912.078 -4.13302 2.96748 0
M  V30 9872 H 911.476 -5.65433 0.173644 0
M  V30 9873 H 910.033 -6.4918 0.583882 0
M  V30 9874 N 913.466 -1.22244 -0.994698 0
M  V30 9875 C 914.712 -1.04746 -1.73655 0
M  V30 9876 C 915.045 0.41668 -1.89677 0
M  V30 9877 O 914.32 1.30897 -1.43862 0
M  V30 9878 C 914.603 -1.75716 -3.14318 0
M  V30 9879 C 914.456 -3.29714 -3.05955 0
M  V30 9880 C 915.775 -1.50809 -4.13455 0
M  V30 9881 H 912.894 -0.381921 -0.630322 0
M  V30 9882 H 915.536 -1.50559 -1.15897 0
M  V30 9883 H 913.686 -1.3677 -3.63629 0
M  V30 9884 H 915.358 -3.78093 -2.64279 0
M  V30 9885 H 913.601 -3.59484 -2.42804 0
M  V30 9886 H 914.272 -3.74547 -4.05485 0
M  V30 9887 H 916.748 -1.84636 -3.72892 0
M  V30 9888 H 915.624 -2.02964 -5.09997 0
M  V30 9889 H 915.885 -0.440292 -4.39902 0
M  V30 9890 N 914.944 1.19125 -1.03184 0
M  V30 9891 C 916.355 1.70564 -0.759264 0
M  V30 9892 C 916.706 1.8248 0.720794 0
M  V30 9893 O 915.831 1.49804 1.56166 0
M  V30 9894 C 916.426 3.09793 -1.37163 0
M  V30 9895 C 914.985 3.5848 -1.14757 0
M  V30 9896 C 914.132 2.35265 -1.46784 0
M  V30 9897 H 917.083 1.03925 -1.19939 0
M  V30 9898 H 917.104 3.72624 -0.77015 0
M  V30 9899 H 916.616 3.01088 -2.44882 0
M  V30 9900 H 914.717 3.72494 -0.0887182 0
M  V30 9901 H 914.83 4.42426 -1.83836 0
M  V30 9902 H 913.194 2.38747 -0.887254 0
M  V30 9903 H 913.977 2.29188 -2.55593 0
M  V30 9904 N 916.422 0.810101 1.35185 0
M  V30 9905 C 917.67 0.391343 1.98275 0
M  V30 9906 C 917.991 -1.04592 1.64577 0
M  V30 9907 O 917.261 -1.72417 0.93001 0
M  V30 9908 H 915.841 0.141715 0.733434 0
M  V30 9909 H 918.503 1.03672 1.6504 0
M  V30 9910 H 917.599 0.49991 3.0807 0
M  V30 9911 N 917.9 -1.47166 0.563914 0
M  V30 9912 C 919.128 -2.06846 0.0474287 0
M  V30 9913 C 919.543 -1.41557 -1.24928 0
M  V30 9914 O 918.9 -0.514376 -1.75101 0
M  V30 9915 C 918.951 -3.6121 -0.144831 0
M  V30 9916 O 918.672 -4.24052 1.10053 0
M  V30 9917 C 920.173 -4.37773 -0.69783 0
M  V30 9918 H 917.393 -0.669217 0.0488896 0
M  V30 9919 H 919.937 -1.89072 0.779235 0
M  V30 9920 H 918.092 -3.78474 -0.82679 0
M  V30 9921 H 918.506 -5.16677 0.902481 0
M  V30 9922 H 919.98 -5.46438 -0.781616 0
M  V30 9923 H 920.457 -4.04517 -1.71063 0
M  V30 9924 H 921.063 -4.25269 -0.0513516 0
M  V30 9925 N 919.378 -0.300708 -1.54705 0
M  V30 9926 C 920.789 0.191995 -1.8571 0
M  V30 9927 C 921.14 1.53447 -1.22264 0
M  V30 9928 O 920.265 2.10054 -0.520226 0
M  V30 9929 C 920.86 0.355148 -3.36933 0
M  V30 9930 C 919.419 0.792071 -3.67972 0
M  V30 9931 C 918.566 -0.099756 -2.77121 0
M  V30 9932 H 921.517 -0.521729 -1.49879 0
M  V30 9933 H 921.538 1.18977 -3.61421 0
M  V30 9934 H 921.05 -0.622075 -3.83082 0
M  V30 9935 H 919.151 1.77986 -3.27341 0
M  V30 9936 H 919.264 0.611661 -4.75179 0
M  V30 9937 H 917.628 0.420909 -2.51198 0
M  V30 9938 H 918.411 -1.07333 -3.2609 0
M  V30 9939 N 920.856 1.57574 -0.0284266 0
M  V30 9940 C 922.267 1.79585 0.510502 0
M  V30 9941 C 922.618 0.938625 1.72291 0
M  V30 9942 O 921.743 0.14884 2.15888 0
M  V30 9943 C 922.338 3.25703 0.932912 0
M  V30 9944 C 920.897 3.48711 1.41696 0
M  V30 9945 C 920.044 2.74665 0.381356 0
M  V30 9946 H 922.995 1.56647 -0.254464 0
M  V30 9947 H 923.016 3.35376 1.79731 0
M  V30 9948 H 922.528 3.88067 0.0503036 0
M  V30 9949 H 920.629 2.91597 2.31952 0
M  V30 9950 H 920.742 4.57423 1.42481 0
M  V30 9951 H 919.106 2.40123 0.8493 0
M  V30 9952 H 919.889 3.39745 -0.492775 0
M  V30 9953 N 922.334 -0.244713 1.55689 0
M  V30 9954 C 923.745 -0.813603 1.6804 0
M  V30 9955 C 924.096 -1.85936 0.626281 0
M  V30 9956 O 923.221 -2.15206 -0.227038 0
M  V30 9957 C 923.816 -1.48252 3.04642 0
M  V30 9958 C 922.375 -1.99908 3.18926 0
M  V30 9959 C 921.522 -0.850958 2.6392 0
M  V30 9960 H 924.473 -0.0204805 1.58687 0
M  V30 9961 H 924.494 -2.35062 2.99209 0
M  V30 9962 H 924.006 -0.721164 3.81341 0
M  V30 9963 H 922.107 -2.78918 2.47054 0
M  V30 9964 H 922.22 -2.19497 4.25862 0
M  V30 9965 H 920.584 -1.25206 2.21801 0
M  V30 9966 H 921.367 -0.10265 3.43146 0
M  V30 9967 N 923.813 -1.49104 -0.510467 0
M  V30 9968 C 924.76 -1.65074 -1.61305 0
M  V30 9969 C 925.73 -0.492362 -1.58635 0
M  V30 9970 O 926.915 -0.718241 -1.76765 0
M  V30 9971 C 924.055 -1.71457 -2.99493 0
M  V30 9972 C 923.168 -2.98536 -3.12251 0
M  V30 9973 C 922.303 -2.95957 -4.41116 0
M  V30 9974 C 921.342 -4.17655 -4.47471 0
M  V30 9975 N 920.479 -4.13041 -5.67751 0
M  V30 9976 H 925.319 -2.59222 -1.46996 0
M  V30 9977 H 922.856 -1.28535 -0.715346 0
M  V30 9978 H 924.814 -1.7314 -3.79577 0
M  V30 9979 H 923.444 -0.807834 -3.12528 0
M  V30 9980 H 922.496 -3.06509 -2.25292 0
M  V30 9981 H 923.808 -3.88527 -3.12807 0
M  V30 9982 H 922.962 -2.96149 -5.2951 0
M  V30 9983 H 921.701 -2.03728 -4.4311 0
M  V30 9984 H 920.706 -4.17717 -3.57481 0
M  V30 9985 H 921.931 -5.11066 -4.472 0
M  V30 9986 H 919.877 -3.23643 -5.70606 0
M  V30 9987 H 919.794 -4.96757 -5.69884 0
M  V30 9988 H 921.062 -4.17322 -6.58379 0
M  V30 9989 N 925.291 0.760815 -1.38019 0
M  V30 9990 C 926.521 1.54776 -1.3685 0
M  V30 9991 C 926.929 1.89146 0.0453971 0
M  V30 9992 O 926.272 1.52746 1.0205 0
M  V30 9993 C 926.334 2.87923 -2.15269 0
M  V30 9994 C 925.998 2.76131 -3.64144 0
M  V30 9995 C 926.995 2.46417 -4.57794 0
M  V30 9996 C 924.68 2.9381 -4.07408 0
M  V30 9997 C 926.674 2.34525 -5.92686 0
M  V30 9998 C 924.361 2.81539 -5.42383 0
M  V30 9999 C 925.359 2.51938 -6.34836 0
M  V30 10000 O 925.047 2.39713 -7.67329 0
M  V30 10001 H 924.779 0.485776 -0.470104 0
M  V30 10002 H 927.333 0.949939 -1.82113 0
M  V30 10003 H 925.563 3.49867 -1.64712 0
M  V30 10004 H 927.252 3.49389 -2.06596 0
M  V30 10005 H 928.018 2.32433 -4.25676 0
M  V30 10006 H 923.897 3.15849 -3.35799 0
M  V30 10007 H 927.441 2.11342 -6.64816 0
M  V30 10008 H 923.338 2.95093 -5.741 0
M  V30 10009 H 924.106 2.5498 -7.77771 0
M  V30 10010 N 926.769 1.22769 0.988202 0
M  V30 10011 C 927.717 0.999271 2.10041 0
M  V30 10012 C 928.711 -0.0591767 1.69297 0
M  V30 10013 O 929.917 0.0936653 1.79756 0
M  V30 10014 H 926.292 0.30599 0.686931 0
M  V30 10015 H 928.263 1.94294 2.26478 0
M  V30 10016 C 927.012 0.59873 3.42506 0
M  V30 10017 H 926.335 1.40487 3.74304 0
M  V30 10018 H 927.775 0.478353 4.21293 0
M  V30 10019 C 926.234 -0.692216 3.29712 0
M  V30 10020 O 926.764 -1.74342 3.61895 0
M  V30 10021 N 924.97 -0.665163 2.82885 0
M  V30 10022 H 924.517 0.190604 2.56894 0
M  V30 10023 H 924.475 -1.52917 2.74706 0
M  V30 10024 N 928.247 -1.18576 1.03814 0
M  V30 10025 C 929.475 -1.92437 0.759966 0
M  V30 10026 C 929.89 -1.76031 -0.682526 0
M  V30 10027 O 929.247 -1.08829 -1.46501 0
M  V30 10028 C 929.298 -3.43923 1.11351 0
M  V30 10029 O 929.019 -3.5981 2.49937 0
M  V30 10030 C 930.52 -4.34888 0.859472 0
M  V30 10031 H 927.74 -0.610998 0.277349 0
M  V30 10032 H 930.284 -1.50448 1.38512 0
M  V30 10033 H 928.439 -3.83711 0.533362 0
M  V30 10034 H 928.853 -4.53569 2.63393 0
M  V30 10035 H 930.327 -5.39744 1.15672 0
M  V30 10036 H 930.804 -4.38717 -0.205839 0
M  V30 10037 H 931.41 -4.00795 1.42279 0
M  V30 10038 N 929.725 -0.817259 -1.34754 0
M  V30 10039 C 930.655 -0.249769 -2.3216 0
M  V30 10040 C 931.636 0.630663 -1.57977 0
M  V30 10041 O 932.821 0.558719 -1.85989 0
M  V30 10042 C 929.951 0.593825 -3.42186 0
M  V30 10043 C 928.905 -0.188997 -4.27583 0
M  V30 10044 C 928.231 0.776979 -5.29025 0
M  V30 10045 C 929.531 -1.39401 -5.03354 0
M  V30 10046 H 931.225 -1.06359 -2.79872 0
M  V30 10047 H 928.771 -0.512894 -1.34556 0
M  V30 10048 H 930.724 1.00097 -4.09339 0
M  V30 10049 H 929.448 1.44064 -2.93109 0
M  V30 10050 H 928.107 -0.577445 -3.62024 0
M  V30 10051 H 927.755 1.61959 -4.76212 0
M  V30 10052 H 927.455 0.257448 -5.87036 0
M  V30 10053 H 928.979 1.18211 -5.99048 0
M  V30 10054 H 930.393 -1.06117 -5.63393 0
M  V30 10055 H 928.79 -1.84878 -5.70912 0
M  V30 10056 H 929.86 -2.17515 -4.33377 0
M  V30 10057 N 931.203 1.46865 -0.571711 0
M  V30 10058 C 932.619 1.57897 -0.23255 0
M  V30 10059 C 932.819 1.56836 1.26509 0
M  V30 10060 O 931.875 1.47947 2.04617 0
M  V30 10061 C 933.188 2.87778 -0.872036 0
M  V30 10062 C 934.736 3.01389 -0.844605 0
M  V30 10063 C 935.211 4.33991 -1.46343 0
M  V30 10064 N 936.702 4.40662 -1.42727 0
M  V30 10065 C 937.437 5.41858 -1.87557 0
M  V30 10066 N 936.933 6.49787 -2.4031 0
M  V30 10067 N 938.726 5.32992 -1.7854 0
M  V30 10068 H 930.877 1.45798 -1.54457 0
M  V30 10069 H 933.14 0.694785 -0.644964 0
M  V30 10070 H 932.846 2.94332 -1.92513 0
M  V30 10071 H 932.72 3.75345 -0.373677 0
M  V30 10072 H 935.107 2.94423 0.19984 0
M  V30 10073 H 935.188 2.15327 -1.38087 0
M  V30 10074 H 934.832 4.41714 -2.50701 0
M  V30 10075 H 934.762 5.18809 -0.902479 0
M  V30 10076 H 937.253 3.63263 -1.04155 0
M  V30 10077 H 937.566 7.23199 -2.72403 0
M  V30 10078 H 935.911 6.50637 -2.44329 0
M  V30 10079 H 939.102 4.47575 -1.37093 0
M  V30 10080 H 939.275 6.11716 -2.13794 0
M  V30 10081 N 932.681 0.308908 1.54543 0
M  V30 10082 C 933.611 -0.556657 2.26768 0
M  V30 10083 C 934.592 -1.13145 1.27013 0
M  V30 10084 O 935.777 -1.15931 1.558 0
M  V30 10085 C 932.907 -1.72481 3.01443 0
M  V30 10086 C 931.861 -1.28001 4.08411 0
M  V30 10087 C 931.187 -2.53395 4.70845 0
M  V30 10088 C 932.487 -0.405497 5.20724 0
M  V30 10089 H 934.181 0.0457618 2.99365 0
M  V30 10090 H 931.727 0.0234495 1.43981 0
M  V30 10091 H 933.68 -2.3365 3.50693 0
M  V30 10092 H 932.404 -2.35359 2.26437 0
M  V30 10093 H 931.063 -0.69133 3.60022 0
M  V30 10094 H 930.711 -3.14604 3.92471 0
M  V30 10095 H 930.411 -2.2433 5.43093 0
M  V30 10096 H 931.935 -3.15352 5.22863 0
M  V30 10097 H 933.349 -0.923076 5.6582 0
M  V30 10098 H 931.746 -0.208282 5.99738 0
M  V30 10099 H 932.816 0.567412 4.81569 0
M  V30 10100 N 934.159 -1.57557 0.0367827 0
M  V30 10101 C 935.069 -2.14148 -0.958017 0
M  V30 10102 C 936.085 -1.09564 -1.35173 0
M  V30 10103 O 937.261 -1.4166 -1.43158 0
M  V30 10104 C 934.326 -2.6636 -2.21931 0
M  V30 10105 C 933.387 -3.85688 -1.8853 0
M  V30 10106 C 932.62 -4.35401 -3.08645 0
M  V30 10107 O 932.843 -3.8425 -4.21554 0
M  V30 10108 O 931.777 -5.27158 -2.90497 0
M  V30 10109 H 935.603 -2.99442 -0.506797 0
M  V30 10110 H 933.188 -1.48259 -0.184275 0
M  V30 10111 H 935.07 -2.99976 -2.9596 0
M  V30 10112 H 933.745 -1.84145 -2.66219 0
M  V30 10113 H 932.652 -3.56985 -1.11861 0
M  V30 10114 H 933.985 -4.69089 -1.49052 0
M  V30 10115 N 935.637 0.236453 -1.55816 0
M  V30 10116 C 937.053 0.585465 -1.48474 0
M  V30 10117 C 937.253 1.8785 -0.72902 0
M  V30 10118 O 936.309 2.51131 -0.262614 0
M  V30 10119 C 937.622 0.678506 -2.92945 0
M  V30 10120 C 939.17 0.770135 -3.03378 0
M  V30 10121 C 939.645 0.894649 -4.49177 0
M  V30 10122 N 941.136 0.959253 -4.53158 0
M  V30 10123 C 941.871 1.07505 -5.63232 0
M  V30 10124 N 941.367 1.15572 -6.83092 0
M  V30 10125 N 943.16 1.10902 -5.51051 0
M  V30 10126 H 935.311 -0.612241 -2.03385 0
M  V30 10127 H 937.574 -0.212796 -0.923808 0
M  V30 10128 H 937.28 -0.201757 -3.51121 0
M  V30 10129 H 937.154 1.54703 -3.44016 0
M  V30 10130 H 939.541 1.64085 -2.45276 0
M  V30 10131 H 939.622 -0.123753 -2.555 0
M  V30 10132 H 939.266 0.0284537 -5.07892 0
M  V30 10133 H 939.196 1.80373 -4.94745 0
M  V30 10134 H 941.687 0.907827 -3.66834 0
M  V30 10135 H 942 1.24343 -7.62731 0
M  V30 10136 H 940.345 1.12511 -6.85833 0
M  V30 10137 H 943.536 1.04255 -4.56343 0
M  V30 10138 H 943.709 1.19581 -6.36871 0
M  V30 10139 N 937.115 1.49373 0.502552 0
M  V30 10140 C 938.078 1.65413 1.58654 0
M  V30 10141 C 939.078 0.526003 1.51953 0
M  V30 10142 O 940.268 0.792421 1.55133 0
M  V30 10143 C 937.4 1.65005 2.98306 0
M  V30 10144 H 938.593 2.62095 1.45762 0
M  V30 10145 H 936.146 1.38381 0.726672 0
M  V30 10146 H 936.881 0.699014 3.16677 0
M  V30 10147 H 936.666 2.46931 3.04578 0
M  V30 10148 H 938.156 1.79477 3.77065 0
M  V30 10149 N 938.594 -0.753485 1.38421 0
M  V30 10150 C 939.841 -1.51261 1.34634 0
M  V30 10151 C 940.169 -1.94396 -0.0635771 0
M  V30 10152 O 939.424 -1.65736 -1.04068 0
M  V30 10153 C 939.723 -2.77836 2.24816 0
M  V30 10154 C 939.389 -2.53662 3.72782 0
M  V30 10155 C 938.051 -2.46779 4.13103 0
M  V30 10156 C 940.403 -2.32548 4.66445 0
M  V30 10157 C 937.731 -2.16796 5.45176 0
M  V30 10158 C 940.083 -2.04085 5.98775 0
M  V30 10159 C 938.747 -1.95658 6.3818 0
M  V30 10160 H 938.017 -0.553503 0.492661 0
M  V30 10161 H 940.664 -0.866406 1.7078 0
M  V30 10162 H 938.969 -3.47106 1.81726 0
M  V30 10163 H 940.666 -3.35793 2.19189 0
M  V30 10164 H 937.256 -2.59891 3.40815 0
M  V30 10165 H 941.44 -2.36845 4.3614 0
M  V30 10166 H 936.696 -2.0878 5.74648 0
M  V30 10167 H 940.87 -1.86751 6.70893 0
M  V30 10168 H 938.497 -1.7219 7.40442 0
M  V30 10169 N 940.072 -1.23292 -0.981677 0
M  V30 10170 C 941.297 -1.09176 -1.76339 0
M  V30 10171 C 941.722 0.352726 -1.84763 0
M  V30 10172 O 941.08 1.25509 -1.30832 0
M  V30 10173 C 941.128 -1.72046 -3.16911 0
M  V30 10174 O 940.232 -0.98174 -4.00544 0
M  V30 10175 H 939.573 -0.382755 -0.542581 0
M  V30 10176 H 942.103 -1.63319 -1.23239 0
M  V30 10177 H 942.113 -1.77232 -3.67495 0
M  V30 10178 H 940.788 -2.77154 -3.10095 0
M  V30 10179 H 939.365 -1.00672 -3.59054 0
M  V30 10180 N 941.55 1.18024 -1.04442 0
M  V30 10181 C 942.498 2.23834 -0.632557 0
M  V30 10182 C 943.492 1.65902 0.342488 0
M  V30 10183 O 944.698 1.78778 0.20937 0
M  V30 10184 H 941.073 0.728544 -0.186353 0
M  V30 10185 H 943.044 2.55876 -1.53526 0
M  V30 10186 C 941.793 3.47697 -0.0153661 0
M  V30 10187 H 941.116 3.92574 -0.756704 0
M  V30 10188 H 942.556 4.23345 0.235541 0
M  V30 10189 C 941.015 3.13416 1.23579 0
M  V30 10190 O 941.545 3.27499 2.3261 0
M  V30 10191 N 939.751 2.67708 1.13053 0
M  V30 10192 H 939.298 2.56449 0.243277 0
M  V30 10193 H 939.256 2.45143 1.96855 0
M  V30 10194 N 943.028 0.824394 1.34319 0
M  V30 10195 C 943.96 0.204805 2.28283 0
M  V30 10196 C 944.973 -0.606162 1.51094 0
M  V30 10197 O 946.162 -0.435602 1.73103 0
M  V30 10198 C 943.262 -0.73139 3.30914 0
M  V30 10199 C 942.435 0.0370723 4.37384 0
M  V30 10200 C 941.494 -0.820272 5.19767 0
M  V30 10201 O 940.52 -0.264721 5.68584 0
M  V30 10202 N 941.722 -2.13984 5.39621 0
M  V30 10203 H 944.487 1.0121 2.82093 0
M  V30 10204 H 942.048 0.681494 1.46858 0
M  V30 10205 H 944.04 -1.30958 3.82926 0
M  V30 10206 H 942.61 -1.43943 2.77487 0
M  V30 10207 H 941.83 0.796578 3.86068 0
M  V30 10208 H 943.118 0.566014 5.05642 0
M  V30 10209 H 942.516 -2.61492 5.01636 0
M  V30 10210 H 941.073 -2.66685 5.94746 0
M  V30 10211 N 944.506 -1.46559 0.579492 0
M  V30 10212 C 945.436 -2.33059 -0.143437 0
M  V30 10213 C 946.417 -1.4515 -0.886868 0
M  V30 10214 O 947.602 -1.73973 -0.862961 0
M  V30 10215 C 944.732 -3.27364 -1.15973 0
M  V30 10216 C 943.686 -4.24689 -0.531348 0
M  V30 10217 C 943.012 -5.08479 -1.65388 0
M  V30 10218 C 944.312 -5.1961 0.529391 0
M  V30 10219 H 946.006 -2.93753 0.578762 0
M  V30 10220 H 943.552 -1.41256 0.279775 0
M  V30 10221 H 945.505 -3.86732 -1.67382 0
M  V30 10222 H 944.229 -2.64771 -1.91217 0
M  V30 10223 H 942.888 -3.6658 -0.0383749 0
M  V30 10224 H 942.536 -4.42273 -2.3959 0
M  V30 10225 H 942.236 -5.74387 -1.23909 0
M  V30 10226 H 943.76 -5.70709 -2.17079 0
M  V30 10227 H 945.174 -5.73212 0.100506 0
M  V30 10228 H 943.571 -5.93843 0.86432 0
M  V30 10229 H 944.641 -4.63737 1.4169 0
M  V30 10230 N 945.984 -0.3171 -1.54377 0
M  V30 10231 C 947.212 0.289558 -2.04864 0
M  V30 10232 C 947.627 1.46284 -1.19359 0
M  V30 10233 O 946.984 1.81135 -0.222795 0
M  V30 10234 C 947.035 0.730273 -3.54047 0
M  V30 10235 O 946.756 -0.396325 -4.36304 0
M  V30 10236 C 948.257 1.40041 -4.20599 0
M  V30 10237 H 945.477 0.0605836 -0.668259 0
M  V30 10238 H 948.021 -0.461411 -1.99227 0
M  V30 10239 H 946.176 1.43123 -3.59992 0
M  V30 10240 H 946.59 -0.0502901 -5.24476 0
M  V30 10241 H 948.064 1.65979 -5.26455 0
M  V30 10242 H 948.541 2.34565 -3.71316 0
M  V30 10243 H 949.147 0.742206 -4.18774 0
M  V30 10244 N 947.462 1.57535 -0.0451378 0
M  V30 10245 C 948.739 1.83785 0.669523 0
M  V30 10246 C 949.119 0.932331 1.89396 0
M  V30 10247 O 948.467 -0.00813229 2.28499 0
M  V30 10248 C 948.677 3.33376 1.03255 0
M  V30 10249 C 950.025 4.00243 1.41741 0
M  V30 10250 O 951.049 3.37965 1.12507 0
M  V30 10251 O 949.908 5.10038 1.96275 0
M  V30 10252 H 947.002 0.758342 0.329919 0
M  V30 10253 H 949.548 1.69538 -0.0740415 0
M  V30 10254 H 948.32 3.90965 0.161777 0
M  V30 10255 H 947.943 3.52787 1.83376 0
M  V30 10256 N 948.94 -0.228186 1.55939 0
M  V30 10257 C 950.168 -0.970618 1.8272 0
M  V30 10258 C 950.583 -1.78212 0.623385 0
M  V30 10259 O 949.94 -1.77879 -0.408063 0
M  V30 10260 C 949.991 -1.89352 3.07942 0
M  V30 10261 O 949.712 -1.11483 4.23678 0
M  V30 10262 C 951.213 -2.75039 3.47661 0
M  V30 10263 H 948.433 -0.284772 0.607574 0
M  V30 10264 H 950.977 -0.245419 2.03022 0
M  V30 10265 H 949.132 -2.57275 2.89635 0
M  V30 10266 H 949.546 -1.74073 4.94772 0
M  V30 10267 H 951.02 -3.35511 4.38334 0
M  V30 10268 H 951.497 -3.471 2.69106 0
M  V30 10269 H 952.103 -2.1254 3.68384 0
M  V30 10270 N 950.418 -1.49637 -0.494624 0
M  V30 10271 C 951.35 -1.62902 -1.61231 0
M  V30 10272 C 952.363 -0.511425 -1.54558 0
M  V30 10273 O 953.552 -0.783724 -1.60375 0
M  V30 10274 C 950.652 -1.57564 -3.00045 0
M  V30 10275 C 949.825 -2.84964 -3.31835 0
M  V30 10276 C 948.884 -2.72591 -4.5009 0
M  V30 10277 O 947.91 -3.46532 -4.51558 0
M  V30 10278 N 949.112 -1.84563 -5.50379 0
M  V30 10279 H 951.877 -2.59301 -1.50276 0
M  V30 10280 H 949.438 -1.46806 -0.68262 0
M  V30 10281 H 951.43 -1.46932 -3.77085 0
M  V30 10282 H 950 -0.689974 -3.0489 0
M  V30 10283 H 949.22 -3.099 -2.4363 0
M  V30 10284 H 950.508 -3.69412 -3.49875 0
M  V30 10285 H 949.906 -1.23758 -5.51997 0
M  V30 10286 H 948.463 -1.79849 -6.26496 0
M  V30 10287 N 951.896 0.746133 -1.38819 0
M  V30 10288 C 952.829 1.86833 -1.31029 0
M  V30 10289 C 953.807 1.61533 -0.185948 0
M  V30 10290 O 954.991 1.84942 -0.364529 0
M  V30 10291 C 952.118 3.22596 -1.03198 0
M  V30 10292 C 951.164 3.66772 -2.17671 0
M  V30 10293 S 951.997 3.77438 -3.7987 0
M  V30 10294 C 953.153 5.16008 -3.54241 0
M  V30 10295 H 953.386 1.93155 -2.26005 0
M  V30 10296 H 950.919 0.909872 -1.24742 0
M  V30 10297 H 952.877 4.00995 -0.878237 0
M  V30 10298 H 951.538 3.13943 -0.0992704 0
M  V30 10299 H 950.731 4.65266 -1.93762 0
M  V30 10300 H 950.333 2.95547 -2.2919 0
M  V30 10301 H 952.625 6.01996 -3.10816 0
M  V30 10302 H 953.568 5.44941 -4.52156 0
M  V30 10303 H 953.976 4.85158 -2.88587 0
M  V30 10304 N 953.375 1.23811 0.975125 0
M  V30 10305 C 954.305 1.04846 2.08638 0
M  V30 10306 C 955.286 -0.0362859 1.70061 0
M  V30 10307 O 956.471 0.12937 1.93769 0
M  V30 10308 C 953.601 0.644534 3.41267 0
M  V30 10309 C 952.555 1.67722 3.93768 0
M  V30 10310 C 951.881 1.12857 5.22654 0
M  V30 10311 C 953.181 3.07147 4.22443 0
M  V30 10312 H 954.875 1.97795 2.24761 0
M  V30 10313 H 952.421 0.952397 1.08006 0
M  V30 10314 H 954.374 0.498887 4.18436 0
M  V30 10315 H 953.098 -0.320641 3.25022 0
M  V30 10316 H 951.757 1.81095 3.18748 0
M  V30 10317 H 951.405 0.154227 5.02764 0
M  V30 10318 H 951.105 1.81862 5.58749 0
M  V30 10319 H 952.629 0.994891 6.0244 0
M  V30 10320 H 954.043 2.97045 4.90344 0
M  V30 10321 H 952.44 3.73437 4.6975 0
M  V30 10322 H 953.51 3.55743 3.29507 0
M  V30 10323 N 954.853 -1.17469 1.05066 0
M  V30 10324 C 956.13 -1.83625 0.673872 0
M  V30 10325 C 956.51 -1.93412 -0.845871 0
M  V30 10326 O 955.858 -1.4677 -1.75131 0
M  V30 10327 C 956.068 -3.21352 1.36139 0
M  V30 10328 C 957.416 -3.97274 1.49863 0
M  V30 10329 O 958.44 -3.30827 1.3203 0
M  V30 10330 O 957.299 -5.16349 1.79013 0
M  V30 10331 H 954.393 -0.792297 0.237055 0
M  V30 10332 H 956.939 -1.24776 1.15017 0
M  V30 10333 H 955.711 -3.0919 2.39827 0
M  V30 10334 H 955.334 -3.87867 0.874364 0
M  V30 10335 N 956.331 -0.831506 -1.3388 0
M  V30 10336 C 957.241 -0.261688 -2.33136 0
M  V30 10337 C 958.257 0.608429 -1.63016 0
M  V30 10338 O 959.433 0.514297 -1.94723 0
M  V30 10339 C 956.498 0.559957 -3.42148 0
M  V30 10340 C 955.559 -0.333569 -4.28002 0
M  V30 10341 C 954.792 0.448956 -5.31808 0
M  V30 10342 O 955.015 1.6814 -5.45055 0
M  V30 10343 O 953.949 -0.173197 -6.01651 0
M  V30 10344 H 957.775 -1.08343 -2.83717 0
M  V30 10345 H 955.36 -0.593849 -1.3709 0
M  V30 10346 H 957.242 1.02712 -4.08691 0
M  V30 10347 H 955.917 1.35888 -2.93796 0
M  V30 10348 H 954.824 -0.848416 -3.64352 0
M  V30 10349 H 956.157 -1.09707 -4.79818 0
M  V30 10350 N 957.809 1.4625 -0.587256 0
M  V30 10351 C 958.739 2.33132 0.131076 0
M  V30 10352 C 959.72 1.45619 0.879158 0
M  V30 10353 O 960.905 1.74428 0.853723 0
M  V30 10354 C 958.035 3.27975 1.14236 0
M  V30 10355 C 956.989 4.24965 0.508819 0
M  V30 10356 C 956.315 5.09349 1.62689 0
M  V30 10357 C 957.615 5.19322 -0.55694 0
M  V30 10358 H 959.309 2.93442 -0.594333 0
M  V30 10359 H 956.855 1.41106 -0.287263 0
M  V30 10360 H 958.808 3.87614 1.65328 0
M  V30 10361 H 957.532 2.65781 1.8981 0
M  V30 10362 H 956.191 3.66595 0.0189337 0
M  V30 10363 H 955.839 4.43537 2.37242 0
M  V30 10364 H 955.539 5.75036 1.20861 0
M  V30 10365 H 957.063 5.71852 2.14049 0
M  V30 10366 H 958.477 5.73151 -0.130903 0
M  V30 10367 H 956.874 5.93376 -0.895801 0
M  V30 10368 H 957.944 4.62979 -1.44148 0
M  V30 10369 O 959.326 0.46743 1.54588 0
M  V30 10370 H 960.017 -0.0588145 1.93611 0
M  V30 END ATOM
M  V30 BEGIN BOND
M  V30 END BOND
M  V30 END CTAB
M  END
$$$$
