drugbank_target|P9WIQ1 UDP-galactopyranose mutase (DB03147; DB03709)
 OpenBabel12092120263D

  0  0  0     0  0            999 V3000
M  V30 BEGIN CTAB
M  V30 COUNTS 6340 6431 0 0 0
M  V30 BEGIN ATOM
M  V30 1 H -0.908 1.98254 -0.117106 0
M  V30 2 N 0 1.576 0 0
M  V30 3 C 0.933 2.03868 1.02534 0
M  V30 4 C 1.911 0.928543 1.3348 0
M  V30 5 O 3.095 1.19667 1.45644 0
M  V30 6 C 0.222 2.43627 2.35294 0
M  V30 7 C -0.732 3.65373 2.2001 0
M  V30 8 S 0.101 5.13292 1.52614 0
M  V30 9 C 1.257 5.56322 2.86805 0
M  V30 10 H 1.49 2.90518 0.631377 0
M  V30 11 H -0.977 1.52953 0.210867 0
M  V30 12 H 0.981 2.67203 3.11629 0
M  V30 13 H -0.358 1.57376 2.7183 0
M  V30 14 H -1.165 3.90944 3.18086 0
M  V30 15 H -1.563 3.418 1.51819 0
M  V30 16 H 0.729 5.58782 3.83104 0
M  V30 17 H 1.672 6.56266 2.65933 0
M  V30 18 H 2.08 4.83886 2.90714 0
M  V30 19 N 1.4781 -0.272755 1.55222 0
M  V30 20 C 2.4101 -1.35946 1.8453 0
M  V30 21 C 3.4231 -1.45525 0.729818 0
M  V30 22 O 4.6121 -1.47337 1.00767 0
M  V30 23 C 1.7121 -2.74069 1.99347 0
M  V30 24 C 0.8851 -2.87079 3.30007 0
M  V30 25 C -0.0559 -4.05879 3.34886 0
M  V30 26 O -1.0299 -3.96626 4.08261 0
M  V30 27 N 0.1721 -5.17857 2.62307 0
M  V30 28 H 2.9371 -1.11149 2.78327 0
M  V30 29 H 0.4981 -0.462869 1.55142 0
M  V30 30 H 2.4901 -3.51838 1.99981 0
M  V30 31 H 1.0601 -2.91688 1.12415 0
M  V30 32 H 0.2801 -1.96193 3.41909 0
M  V30 33 H 1.5681 -2.92701 4.16177 0
M  V30 34 H 0.9661 -5.28261 2.02377 0
M  V30 35 H -0.4769 -5.93855 2.68663 0
M  V30 36 N 2.9562 -1.48159 -0.537278 0
M  V30 37 C 4.3672 -1.49429 -1.11928 0
M  V30 38 C 4.7182 -0.26 -1.9447 0
M  V30 39 O 3.8432 0.633489 -2.0692 0
M  V30 40 C 4.4382 -2.70758 -2.03656 0
M  V30 41 C 2.9972 -2.74923 -2.57088 0
M  V30 42 C 2.1442 -2.42835 -1.3389 0
M  V30 43 H 5.0952 -1.55381 -0.322886 0
M  V30 44 H 5.1162 -2.48861 -2.87834 0
M  V30 45 H 4.6282 -3.60575 -1.43553 0
M  V30 46 H 2.7292 -1.89296 -3.20933 0
M  V30 47 H 2.8422 -3.76157 -2.9672 0
M  V30 48 H 1.2062 -1.93836 -1.65226 0
M  V30 49 H 1.9892 -3.34884 -0.755504 0
M  V30 50 N 4.4343 0.785586 -1.36625 0
M  V30 51 C 5.3673 1.90509 -1.25625 0
M  V30 52 C 6.3453 1.62 -0.139607 0
M  V30 53 O 7.5293 1.8591 -0.31141 0
M  V30 54 C 4.6563 3.25419 -0.939158 0
M  V30 55 C 3.7023 3.72856 -2.07077 0
M  V30 56 S 4.5353 3.88162 -3.68904 0
M  V30 57 C 5.6913 5.25942 -3.39317 0
M  V30 58 H 5.9243 1.99549 -2.20381 0
M  V30 59 H 3.4573 0.945226 -1.22085 0
M  V30 60 H 5.4153 4.03346 -0.763029 0
M  V30 61 H 4.0763 3.14099 -0.00931402 0
M  V30 62 H 3.2693 4.70624 -1.80357 0
M  V30 63 H 2.8713 3.01989 -2.20632 0
M  V30 64 H 5.1633 6.10651 -2.93447 0
M  V30 65 H 6.1063 5.57668 -4.36363 0
M  V30 66 H 6.5143 4.93224 -2.74573 0
M  V30 67 N 5.9124 1.20967 1.01018 0
M  V30 68 C 7.1404 1.04956 1.78303 0
M  V30 69 C 7.5554 -0.400915 1.84494 0
M  V30 70 O 6.9124 -1.27826 1.30257 0
M  V30 71 C 6.9634 1.63403 3.22462 0
M  V30 72 O 6.6844 3.02775 3.16637 0
M  V30 73 C 8.1854 1.52432 4.16268 0
M  V30 74 H 5.4054 0.368858 0.560522 0
M  V30 75 H 7.9494 1.60193 1.27116 0
M  V30 76 H 6.1044 1.1227 3.70775 0
M  V30 77 H 6.5184 3.30626 4.07169 0
M  V30 78 H 7.9924 1.98078 5.15237 0
M  V30 79 H 8.4694 0.477875 4.36592 0
M  V30 80 H 9.0754 2.02787 3.73841 0
M  V30 81 N 7.3905 -1.2043 1.01659 0
M  V30 82 C 8.3535 -2.21433 0.591616 0
M  V30 83 C 9.3535 -1.57203 -0.338226 0
M  V30 84 O 10.5435 -1.73737 -0.126918 0
M  V30 85 C 7.6755 -3.40628 -0.136058 0
M  V30 86 H 8.8685 -2.60545 1.48514 0
M  V30 87 H 6.4215 -1.33893 0.806379 0
M  V30 88 H 7.1565 -3.07019 -1.04449 0
M  V30 89 H 6.9415 -3.88475 0.531917 0
M  V30 90 H 8.4315 -4.15475 -0.420735 0
M  V30 91 N 8.8686 -0.792821 -1.36206 0
M  V30 92 C 10.2846 -0.474903 -1.52371 0
M  V30 93 C 10.4846 1.00622 -1.74578 0
M  V30 94 O 9.5406 1.79162 -1.77924 0
M  V30 95 C 10.8536 -1.3083 -2.70747 0
M  V30 96 C 12.4016 -1.30234 -2.84619 0
M  V30 97 C 12.8766 -2.11956 -4.06004 0
M  V30 98 N 14.3676 -2.09419 -4.13156 0
M  V30 99 C 15.1026 -2.69419 -5.06163 0
M  V30 100 N 14.5986 -3.3829 -6.04592 0
M  V30 101 N 16.3916 -2.59134 -4.98804 0
M  V30 102 H 8.5426 -1.75222 -1.20046 0
M  V30 103 H 10.8056 -0.745024 -0.586211 0
M  V30 104 H 10.5116 -2.35881 -2.6087 0
M  V30 105 H 10.3856 -0.95196 -3.6499 0
M  V30 106 H 12.7726 -0.259748 -2.93955 0
M  V30 107 H 12.8536 -1.69847 -1.91274 0
M  V30 108 H 12.4976 -3.16248 -3.97429 0
M  V30 109 H 12.4276 -1.69711 -4.98503 0
M  V30 110 H 14.9186 -1.59297 -3.42685 0
M  V30 111 H 15.2316 -3.81394 -6.7213 0
M  V30 112 H 13.5766 -3.42393 -6.04807 0
M  V30 113 H 16.7676 -2.04927 -4.20859 0
M  V30 114 H 16.9406 -3.06185 -5.711 0
M  V30 115 N 10.3467 1.47872 -0.545128 0
M  V30 116 C 11.5937 2.02493 -0.0165858 0
M  V30 117 C 11.9217 1.42073 1.32836 0
M  V30 118 O 11.1767 0.561459 1.87473 0
M  V30 119 C 11.4757 3.57131 0.13867 0
M  V30 120 C 11.1417 4.36411 -1.13384 0
M  V30 121 C 9.8037 4.57792 -1.48256 0
M  V30 122 C 12.1557 4.82223 -1.97764 0
M  V30 123 C 9.4837 5.22233 -2.67376 0
M  V30 124 C 11.8357 5.47977 -3.16076 0
M  V30 125 C 10.4997 5.67593 -3.51275 0
M  V30 126 H 9.7697 0.740975 -0.00606918 0
M  V30 127 H 12.4167 1.77683 -0.714207 0
M  V30 128 H 10.7217 3.80865 0.919172 0
M  V30 129 H 12.4187 3.97031 0.562782 0
M  V30 130 H 9.0087 4.2004 -0.852297 0
M  V30 131 H 13.1927 4.65493 -1.72132 0
M  V30 132 H 8.4487 5.35616 -2.94831 0
M  V30 133 H 12.6227 5.8244 -3.81755 0
M  V30 134 H 10.2497 6.17298 -4.43675 0
M  V30 135 N 11.8248 0.280983 1.55075 0
M  V30 136 C 13.1018 -0.386207 1.91749 0
M  V30 137 C 13.4818 -1.73264 1.20594 0
M  V30 138 O 12.8298 -2.26034 0.334784 0
M  V30 139 C 13.0398 -0.520687 3.45094 0
M  V30 140 C 14.3878 -0.800865 4.16979 0
M  V30 141 O 15.4118 -0.605271 3.5102 0
M  V30 142 O 14.2708 -1.1753 5.33712 0
M  V30 143 H 11.3648 -0.212408 0.799257 0
M  V30 144 H 13.9108 0.327568 1.66509 0
M  V30 145 H 12.6828 0.426633 3.88967 0
M  V30 146 H 12.3058 -1.2837 3.76307 0
M  V30 147 N 13.3029 -1.57598 0.00835791 0
M  V30 148 C 14.2329 -2.1198 -0.979113 0
M  V30 149 C 15.2139 -1.03091 -1.35301 0
M  V30 150 O 16.3989 -1.30818 -1.43528 0
M  V30 151 C 13.5289 -2.62995 -2.26828 0
M  V30 152 C 12.4829 -3.76485 -2.03576 0
M  V30 153 C 11.8089 -4.13846 -3.38579 0
M  V30 154 C 13.1089 -5.0342 -1.39161 0
M  V30 155 H 14.8029 -2.94738 -0.526281 0
M  V30 156 H 12.3489 -1.41783 -0.251704 0
M  V30 157 H 14.3019 -2.99669 -2.96271 0
M  V30 158 H 13.0259 -1.7737 -2.7424 0
M  V30 159 H 11.6849 -3.40217 -1.36557 0
M  V30 160 H 11.3329 -3.25232 -3.83709 0
M  V30 161 H 11.0329 -4.90312 -3.23834 0
M  V30 162 H 12.5569 -4.53086 -4.09323 0
M  V30 163 H 13.9709 -5.37812 -1.98573 0
M  V30 164 H 12.3679 -5.84746 -1.34878 0
M  V30 165 H 13.4379 -4.83548 -0.361868 0
M  V30 166 N 14.781 0.264519 -1.55364 0
M  V30 167 C 16.028 0.994986 -1.7637 0
M  V30 168 C 16.356 1.85976 -0.5695 0
M  V30 169 O 15.611 1.90509 0.44776 0
M  V30 170 C 15.91 1.9004 -3.02687 0
M  V30 171 C 15.576 1.19243 -4.34847 0
M  V30 172 C 14.238 0.996709 -4.70764 0
M  V30 173 C 16.59 0.689296 -5.16622 0
M  V30 174 C 13.918 0.285261 -5.86006 0
M  V30 175 C 16.27 -0.00860079 -6.32599 0
M  V30 176 C 14.934 -0.215963 -6.67151 0
M  V30 177 H 14.204 0.364091 -0.645383 0
M  V30 178 H 16.851 0.266543 -1.89636 0
M  V30 179 H 15.156 2.69533 -2.84357 0
M  V30 180 H 16.853 2.46695 -3.16137 0
M  V30 181 H 13.443 1.3549 -4.06621 0
M  V30 182 H 17.627 0.828108 -4.89342 0
M  V30 183 H 12.883 0.113961 -6.11294 0
M  V30 184 H 17.057 -0.406186 -6.95214 0
M  V30 185 H 14.684 -0.769217 -7.56298 0
M  V30 186 N 16.2591 1.48442 0.529413 0
M  V30 187 C 17.5051 1.5672 1.28711 0
M  V30 188 C 17.8381 0.2406 1.92704 0
M  V30 189 O 17.1131 -0.753454 1.79313 0
M  V30 190 C 17.3961 2.70587 2.37603 0
M  V30 191 C 17.2491 4.12953 1.78297 0
M  V30 192 C 18.5681 2.80212 3.39366 0
M  V30 193 H 15.6871 0.570474 0.466613 0
M  V30 194 H 18.3291 1.80617 0.589706 0
M  V30 195 H 16.4791 2.50342 2.97088 0
M  V30 196 H 18.1511 4.44639 1.22858 0
M  V30 197 H 16.3941 4.19927 1.0883 0
M  V30 198 H 17.0651 4.88448 2.57144 0
M  V30 199 H 19.5411 2.98553 2.89836 0
M  V30 200 H 18.4171 3.61611 4.12951 0
M  V30 201 H 18.6781 1.88393 3.99951 0
M  V30 202 N 17.7372 -0.778329 1.37039 0
M  V30 203 C 18.9832 -1.53892 1.32079 0
M  V30 204 C 19.3162 -1.9396 -0.0965386 0
M  V30 205 O 18.5912 -1.63568 -1.05242 0
M  V30 206 C 18.8742 -2.80847 2.25382 0
M  V30 207 C 18.7272 -2.47076 3.75864 0
M  V30 208 C 20.0462 -3.82741 2.1725 0
M  V30 209 H 17.1652 -0.558303 0.48111 0
M  V30 210 H 19.8072 -0.893397 1.67685 0
M  V30 211 H 17.9572 -3.35931 1.95148 0
M  V30 212 H 19.6292 -1.97957 4.16666 0
M  V30 213 H 17.8722 -1.79863 3.94755 0
M  V30 214 H 18.5432 -3.37798 4.36574 0
M  V30 215 H 21.0192 -3.37133 2.43887 0
M  V30 216 H 19.8952 -4.69303 2.84686 0
M  V30 217 H 20.1562 -4.2652 1.16331 0
M  V30 218 N 19.2153 -1.21501 -1.00376 0
M  V30 219 C 20.4633 -1.03095 -1.73827 0
M  V30 220 C 20.7843 0.436341 -1.90055 0
M  V30 221 O 20.0543 1.31466 -1.45236 0
M  V30 222 H 18.6343 -0.378487 -0.644016 0
M  V30 223 H 21.2963 -1.52831 -1.20949 0
M  V30 224 H 20.3923 -1.49991 -2.73695 0
M  V30 225 N 20.6934 1.19889 -1.02296 0
M  V30 226 C 21.9184 1.9393 -0.735237 0
M  V30 227 C 22.3434 1.74639 0.698782 0
M  V30 228 O 21.7014 1.04481 1.48167 0
M  V30 229 C 21.7494 3.43916 -1.08417 0
M  V30 230 O 20.8534 4.11917 -0.199446 0
M  V30 231 H 20.1944 0.605645 -0.272196 0
M  V30 232 H 22.7244 1.52137 -1.36804 0
M  V30 233 H 22.7344 3.9456 -1.03856 0
M  V30 234 H 21.4094 3.5728 -2.12894 0
M  V30 235 H 19.9864 3.71666 -0.303136 0
M  V30 236 N 22.1715 0.800033 1.35784 0
M  V30 237 C 23.4195 0.376597 1.9856 0
M  V30 238 C 23.7405 -1.05812 1.63795 0
M  V30 239 O 23.0105 -1.73103 0.917171 0
M  V30 240 H 21.5905 0.136261 0.734467 0
M  V30 241 H 24.2525 1.02442 1.65806 0
M  V30 242 H 23.3485 0.477002 3.08433 0
M  V30 243 N 23.6496 -1.47581 0.552962 0
M  V30 244 C 24.8966 -2.02482 0.0273243 0
M  V30 245 C 25.2246 -1.42776 -1.32081 0
M  V30 246 O 24.4796 -0.571393 -1.87173 0
M  V30 247 C 24.7786 -3.57199 -0.119728 0
M  V30 248 C 24.4446 -4.35804 1.15697 0
M  V30 249 C 23.1066 -4.57 1.50681 0
M  V30 250 C 25.4586 -4.81167 2.00319 0
M  V30 251 C 22.7866 -5.20807 2.70142 0
M  V30 252 C 25.1386 -5.46293 3.18978 0
M  V30 253 C 23.8026 -5.65722 3.54281 0
M  V30 254 H 23.0726 -0.740933 0.00999866 0
M  V30 255 H 25.7196 -1.77302 0.72362 0
M  V30 256 H 24.0246 -3.81348 -0.89896 0
M  V30 257 H 25.7216 -3.97324 -0.541718 0
M  V30 258 H 22.3116 -4.19582 0.874561 0
M  V30 259 H 26.4956 -4.64574 1.74599 0
M  V30 260 H 21.7516 -5.34045 2.97668 0
M  V30 261 H 25.9256 -5.80407 3.84838 0
M  V30 262 H 23.5526 -6.14936 4.46942 0
M  V30 263 N 25.1277 -0.289203 -1.54924 0
M  V30 264 C 26.3747 0.323519 -1.99899 0
M  V30 265 C 26.7027 1.54797 -1.17762 0
M  V30 266 O 25.9577 1.94237 -0.238835 0
M  V30 267 C 26.2567 0.736119 -3.49737 0
M  V30 268 C 25.9227 -0.385276 -4.49251 0
M  V30 269 C 24.5847 -0.693156 -4.76181 0
M  V30 270 C 26.9367 -1.14021 -5.08575 0
M  V30 271 C 24.2647 -1.7593 -5.59701 0
M  V30 272 C 26.6167 -2.19619 -5.93254 0
M  V30 273 C 25.2807 -2.51026 -6.185 0
M  V30 274 H 24.5507 0.118384 -0.731482 0
M  V30 275 H 27.1977 -0.405847 -1.8715 0
M  V30 276 H 25.5027 1.54539 -3.60035 0
M  V30 277 H 27.1997 1.22118 -3.81953 0
M  V30 278 H 23.7897 -0.135202 -4.28387 0
M  V30 279 H 27.9737 -0.915611 -4.87781 0
M  V30 280 H 23.2297 -2.0075 -5.77503 0
M  V30 281 H 27.4037 -2.78581 -6.38252 0
M  V30 282 H 25.0307 -3.33772 -6.83008 0
M  V30 283 N 26.6058 1.57591 -0.0167156 0
M  V30 284 C 27.8538 1.90906 0.663285 0
M  V30 285 C 28.1748 0.892509 1.73376 0
M  V30 286 O 27.4448 -0.0677623 1.95783 0
M  V30 287 H 26.0248 0.704637 0.247983 0
M  V30 288 H 28.6868 1.94803 -0.0615909 0
M  V30 289 H 27.7828 2.9116 1.12393 0
M  V30 290 N 28.0839 -0.256276 1.55502 0
M  V30 291 C 29.0139 -1.32102 1.92539 0
M  V30 292 C 29.9949 -1.50684 0.789194 0
M  V30 293 O 31.1799 -1.63449 1.04872 0
M  V30 294 C 28.3099 -2.67752 2.21192 0
M  V30 295 C 27.2639 -2.63878 3.36975 0
M  V30 296 C 26.5899 -4.03236 3.51147 0
M  V30 297 C 27.8899 -2.21682 4.72921 0
M  V30 298 H 29.5839 -1.01351 2.81724 0
M  V30 299 H 27.1299 -0.486105 1.35547 0
M  V30 300 H 29.0829 -3.42365 2.45691 0
M  V30 301 H 27.8069 -3.0012 1.28824 0
M  V30 302 H 26.4659 -1.91722 3.12471 0
M  V30 303 H 26.1139 -4.32854 2.56216 0
M  V30 304 H 25.8139 -4.01535 4.29003 0
M  V30 305 H 27.3379 -4.79563 3.77957 0
M  V30 306 H 28.7519 -2.86023 4.96854 0
M  V30 307 H 27.1489 -2.3111 5.53812 0
M  V30 308 H 28.2189 -1.16833 4.70615 0
M  V30 309 N 29.562 -1.4872 -0.521534 0
M  V30 310 C 30.79 -1.60843 -1.30142 0
M  V30 311 C 31.205 -0.271897 -1.86832 0
M  V30 312 O 30.562 0.739969 -1.66825 0
M  V30 313 C 30.613 -2.66155 -2.4463 0
M  V30 314 O 30.334 -3.94623 -1.90275 0
M  V30 315 C 31.835 -2.88795 -3.36322 0
M  V30 316 H 29.055 -0.542075 -0.395468 0
M  V30 317 H 31.599 -1.94609 -0.628285 0
M  V30 318 H 29.754 -2.35224 -3.07812 0
M  V30 319 H 30.168 -4.52468 -2.65279 0
M  V30 320 H 31.642 -3.66264 -4.12983 0
M  V30 321 H 32.119 -1.97934 -3.9207 0
M  V30 322 H 32.725 -3.21063 -2.78924 0
M  V30 323 N 31.0401 0.771051 -1.3745 0
M  V30 324 C 32.2891 1.52491 -1.3202 0
M  V30 325 C 32.6021 1.9538 0.0927347 0
M  V30 326 O 33.8081 2.70159 0.269503 0
M  V30 327 C 32.2641 2.75366 -2.31736 0
M  V30 328 C 31.8721 2.39573 -3.78562 0
M  V30 329 C 33.6161 3.53307 -2.35318 0
M  V30 330 C 31.5231 3.58954 -4.70007 0
M  V30 331 H 30.4531 0.572506 -0.490666 0
M  V30 332 H 33.1041 0.844474 -1.62914 0
M  V30 333 H 31.4861 3.45303 -1.93861 0
M  V30 334 H 32.6601 1.77415 -4.25277 0
M  V30 335 H 30.9751 1.74805 -3.77932 0
M  V30 336 H 33.5721 4.42039 -3.00842 0
M  V30 337 H 33.9151 3.93217 -1.36698 0
M  V30 338 H 34.4481 2.90367 -2.71904 0
M  V30 339 H 31.1871 3.24125 -5.69757 0
M  V30 340 H 30.7071 4.20214 -4.27996 0
M  V30 341 H 32.3861 4.25758 -4.87175 0
M  V30 342 N 32.5182 1.22032 0.997298 0
M  V30 343 C 33.4812 0.987909 2.06816 0
M  V30 344 C 34.4812 -0.0440084 1.6074 0
M  V30 345 O 35.6712 0.194053 1.73116 0
M  V30 346 C 32.8032 0.49132 3.37341 0
M  V30 347 H 33.9962 1.93803 2.28868 0
M  V30 348 H 31.5492 1.03838 1.16822 0
M  V30 349 H 32.2842 -0.463364 3.20973 0
M  V30 350 H 32.0692 1.23575 3.72118 0
M  V30 351 H 33.5592 0.348824 4.16141 0
M  V30 352 N 33.9963 -1.19345 1.0293 0
M  V30 353 C 34.9063 -2.26245 0.620515 0
M  V30 354 C 35.9223 -1.70486 -0.347928 0
M  V30 355 O 37.0983 -2.00347 -0.205704 0
M  V30 356 C 34.1633 -3.46693 -0.0218957 0
M  V30 357 C 33.2243 -4.17632 0.994102 0
M  V30 358 C 32.4573 -5.32329 0.382253 0
M  V30 359 O 32.6803 -5.64552 -0.814676 0
M  V30 360 O 31.6143 -5.91664 1.10531 0
M  V30 361 H 35.4403 -2.63453 1.51083 0
M  V30 362 H 33.0253 -1.26207 0.799513 0
M  V30 363 H 34.9073 -4.19683 -0.380072 0
M  V30 364 H 33.5823 -3.11333 -0.886209 0
M  V30 365 H 32.4893 -3.4676 1.40387 0
M  V30 366 H 33.8223 -4.56964 1.8288 0
M  V30 367 N 35.4744 -0.807222 -1.35358 0
M  V30 368 C 36.8904 -0.491038 -1.51858 0
M  V30 369 C 37.0904 0.987648 -1.75635 0
M  V30 370 O 36.1464 1.77265 -1.79815 0
M  V30 371 C 37.4594 -1.33695 -2.69344 0
M  V30 372 C 39.0074 -1.33246 -2.83222 0
M  V30 373 C 39.4824 -2.1625 -4.03733 0
M  V30 374 N 40.9734 -2.1379 -4.10911 0
M  V30 375 C 41.7084 -2.74772 -5.03277 0
M  V30 376 N 41.2044 -3.44684 -6.0097 0
M  V30 377 N 42.9974 -2.6441 -4.96028 0
M  V30 378 H 35.1484 -1.76485 -1.18181 0
M  V30 379 H 37.4114 -0.751199 -0.578276 0
M  V30 380 H 37.1174 -2.38634 -2.58354 0
M  V30 381 H 36.9914 -0.990618 -3.6396 0
M  V30 382 H 39.3784 -0.290911 -2.93663 0
M  V30 383 H 39.4594 -1.71866 -1.89461 0
M  V30 384 H 39.1034 -3.20445 -3.94052 0
M  V30 385 H 39.0334 -1.74989 -4.96675 0
M  V30 386 H 41.5244 -1.62923 -3.40976 0
M  V30 387 H 41.8374 -3.88501 -6.68047 0
M  V30 388 H 40.1824 -3.48788 -6.01142 0
M  V30 389 H 43.3734 -2.0938 -4.18662 0
M  V30 390 H 43.5464 -3.12225 -5.6782 0
M  V30 391 N 36.9525 1.47285 -0.560781 0
M  V30 392 C 38.1985 2.02764 -0.0381184 0
M  V30 393 C 38.5315 1.43384 1.30976 0
M  V30 394 O 37.8065 0.590733 1.85312 0
M  V30 395 C 38.0895 3.60064 0.0511427 0
M  V30 396 C 37.9425 4.2987 -1.32408 0
M  V30 397 C 39.2615 4.33439 0.762795 0
M  V30 398 H 36.3805 0.736841 -0.0153264 0
M  V30 399 H 39.0225 1.75675 -0.723759 0
M  V30 400 H 37.1725 3.83274 0.635065 0
M  V30 401 H 38.8445 4.17989 -1.95148 0
M  V30 402 H 37.0875 3.90085 -1.8978 0
M  V30 403 H 37.7585 5.38478 -1.21431 0
M  V30 404 H 40.2345 4.15243 0.266965 0
M  V30 405 H 39.1105 5.43124 0.794221 0
M  V30 406 H 39.3715 4.02915 1.81966 0
M  V30 407 N 38.4306 0.297415 1.54768 0
M  V30 408 C 39.3936 -0.567375 2.22066 0
M  V30 409 C 40.3936 -1.06409 1.20556 0
M  V30 410 O 41.5836 -0.960691 1.45315 0
M  V30 411 C 38.7156 -1.78517 2.90421 0
M  V30 412 H 39.9086 0.0205534 2.99893 0
M  V30 413 H 37.4616 0.0482163 1.56226 0
M  V30 414 H 38.1966 -2.41303 2.16664 0
M  V30 415 H 37.9816 -1.43669 3.64831 0
M  V30 416 H 39.4716 -2.39964 3.41771 0
M  V30 417 N 39.9087 -1.5758 0.0250728 0
M  V30 418 C 41.1367 -1.9593 -0.664747 0
M  V30 419 C 41.5517 -0.901352 -1.65895 0
M  V30 420 O 40.9087 0.117255 -1.82123 0
M  V30 421 C 40.9597 -3.34342 -1.37468 0
M  V30 422 O 40.6807 -4.36079 -0.420324 0
M  V30 423 C 42.1817 -3.873 -2.1567 0
M  V30 424 H 39.4017 -0.645405 -0.183557 0
M  V30 425 H 41.9457 -2.04329 0.0836372 0
M  V30 426 H 40.1007 -3.27175 -2.0745 0
M  V30 427 H 40.5147 -5.16297 -0.923991 0
M  V30 428 H 41.9887 -4.86504 -2.60803 0
M  V30 429 H 42.4657 -3.21331 -2.99405 0
M  V30 430 H 43.0717 -3.97723 -1.50654 0
M  V30 431 N 41.3868 0.248026 -1.55636 0
M  V30 432 C 42.3188 1.32993 -1.8667 0
M  V30 433 C 43.3318 1.44345 -0.752877 0
M  V30 434 O 44.5208 1.45715 -1.03098 0
M  V30 435 C 41.6208 2.70863 -2.03682 0
M  V30 436 C 40.7938 2.81792 -3.34532 0
M  V30 437 C 39.8528 4.005 -3.41301 0
M  V30 438 O 38.8788 3.9008 -4.14519 0
M  V30 439 N 40.0808 5.13618 -2.70512 0
M  V30 440 H 42.8458 1.06707 -2.8006 0
M  V30 441 H 40.4068 0.438129 -1.55859 0
M  V30 442 H 42.3988 3.48612 -2.05553 0
M  V30 443 H 40.9688 2.89862 -1.17041 0
M  V30 444 H 40.1888 1.90729 -3.44987 0
M  V30 445 H 41.4768 2.86043 -4.20781 0
M  V30 446 H 40.8748 5.24975 -2.10755 0
M  V30 447 H 39.4318 5.89505 -2.78077 0
M  V30 448 N 42.8649 1.48995 0.513639 0
M  V30 449 C 43.7949 1.67636 1.62544 0
M  V30 450 C 44.7759 0.525087 1.61793 0
M  V30 451 O 45.9609 0.759502 1.78732 0
M  V30 452 C 43.0909 1.73114 3.01079 0
M  V30 453 C 42.0449 2.87905 3.16693 0
M  V30 454 C 41.3709 2.78486 4.56453 0
M  V30 455 C 42.6709 4.29005 2.97913 0
M  V30 456 H 44.3649 2.60716 1.47198 0
M  V30 457 H 41.9109 1.25465 0.706714 0
M  V30 458 H 43.8639 1.84742 3.78746 0
M  V30 459 H 42.5879 0.766241 3.17484 0
M  V30 460 H 41.2469 2.75859 2.41448 0
M  V30 461 H 40.8949 1.7993 4.69717 0
M  V30 462 H 40.5949 3.55523 4.67843 0
M  V30 463 H 42.1189 2.92104 5.36197 0
M  V30 464 H 43.5329 4.41798 3.65359 0
M  V30 465 H 41.9299 5.07166 3.20785 0
M  V30 466 H 42.9999 4.44329 1.94165 0
M  V30 467 N 44.343 -0.763751 1.37857 0
M  V30 468 C 45.62 -1.51244 1.24035 0
M  V30 469 C 46 -2.10472 -0.162649 0
M  V30 470 O 45.348 -1.96206 -1.17112 0
M  V30 471 C 45.558 -2.58694 2.34261 0
M  V30 472 C 46.906 -3.25878 2.72193 0
M  V30 473 O 47.93 -2.68993 2.33497 0
M  V30 474 O 46.789 -4.2874 3.38887 0
M  V30 475 H 43.883 -0.670243 0.484462 0
M  V30 476 H 46.429 -0.800031 1.49658 0
M  V30 477 H 45.201 -2.13105 3.2818 0
M  V30 478 H 44.824 -3.37527 2.10146 0
M  V30 479 N 45.8211 -1.22559 -0.990812 0
M  V30 480 C 46.7681 -0.997519 -2.0813 0
M  V30 481 C 47.7381 0.0814702 -1.659 0
M  V30 482 O 48.9231 -0.0685424 -1.90677 0
M  V30 483 C 46.0631 -0.583615 -3.40129 0
M  V30 484 C 45.1761 -1.7336 -3.9569 0
M  V30 485 C 44.3111 -1.26748 -5.15857 0
M  V30 486 C 43.3501 -2.38888 -5.63559 0
M  V30 487 N 42.4871 -1.93308 -6.74964 0
M  V30 488 H 47.3271 -1.93099 -2.26973 0
M  V30 489 H 44.8641 -0.962114 -1.11273 0
M  V30 490 H 46.8221 -0.324801 -4.15934 0
M  V30 491 H 45.4521 0.312845 -3.2128 0
M  V30 492 H 44.5041 -2.10669 -3.16738 0
M  V30 493 H 45.8161 -2.57704 -4.27071 0
M  V30 494 H 44.9701 -0.966173 -5.98957 0
M  V30 495 H 43.7091 -0.394272 -4.86104 0
M  V30 496 H 42.7141 -2.69805 -4.79046 0
M  V30 497 H 43.9391 -3.26728 -5.95336 0
M  V30 498 H 41.8851 -1.08352 -6.4699 0
M  V30 499 H 41.8021 -2.71217 -7.05675 0
M  V30 500 H 43.0701 -1.66252 -7.61564 0
M  V30 501 N 47.2992 1.18797 -1.03562 0
M  V30 502 C 48.7152 1.40671 -0.753917 0
M  V30 503 C 48.9152 1.9043 0.658686 0
M  V30 504 O 47.9712 2.08538 1.42366 0
M  V30 505 C 49.2842 2.41192 -1.79574 0
M  V30 506 C 50.8322 2.54928 -1.81606 0
M  V30 507 C 51.3072 3.58709 -2.84766 0
M  V30 508 N 52.7982 3.66212 -2.83625 0
M  V30 509 C 53.5332 4.46225 -3.60098 0
M  V30 510 N 53.0292 5.29888 -4.46308 0
M  V30 511 N 54.8222 4.40939 -3.4861 0
M  V30 512 H 46.9732 0.848221 -1.94728 0
M  V30 513 H 49.2362 0.435081 -0.842264 0
M  V30 514 H 48.9422 2.11669 -2.80872 0
M  V30 515 H 48.8162 3.40467 -1.62365 0
M  V30 516 H 51.2032 2.83771 -0.809817 0
M  V30 517 H 51.2842 1.55784 -2.02891 0
M  V30 518 H 50.9282 3.30607 -3.85566 0
M  V30 519 H 50.8582 4.57519 -2.60737 0
M  V30 520 H 53.3492 3.06466 -2.21105 0
M  V30 521 H 53.6622 5.88078 -5.01382 0
M  V30 522 H 52.0072 5.29326 -4.50377 0
M  V30 523 H 55.1982 3.74624 -2.80668 0
M  V30 524 H 55.3712 5.03056 -4.08459 0
M  V30 525 N 48.7773 0.814389 1.34928 0
M  V30 526 C 50.0233 0.399013 1.98836 0
M  V30 527 C 50.3563 -1.03314 1.64438 0
M  V30 528 O 49.6313 -1.71811 0.911659 0
M  V30 529 C 49.9143 0.591629 3.55207 0
M  V30 530 C 49.7673 2.06928 3.99376 0
M  V30 531 C 51.0863 0.022199 4.40094 0
M  V30 532 H 48.2053 0.146451 0.722303 0
M  V30 533 H 50.8473 1.02537 1.59957 0
M  V30 534 H 48.9973 0.0584441 3.88456 0
M  V30 535 H 50.6693 2.66544 3.76499 0
M  V30 536 H 48.9123 2.56287 3.49999 0
M  V30 537 H 49.5833 2.1549 5.08201 0
M  V30 538 H 52.0593 0.477643 4.13349 0
M  V30 539 H 50.9353 0.186832 5.48582 0
M  V30 540 H 51.1963 -1.07215 4.28902 0
M  V30 541 N 50.2554 -1.46986 0.568584 0
M  V30 542 C 51.1854 -2.32946 -0.160753 0
M  V30 543 C 52.1664 -1.44487 -0.897631 0
M  V30 544 O 53.3514 -1.73327 -0.875867 0
M  V30 545 C 50.4814 -3.26494 -1.18403 0
M  V30 546 C 49.4354 -4.24282 -0.562895 0
M  V30 547 C 48.7614 -5.07236 -1.69163 0
M  V30 548 C 50.0614 -5.19989 0.490761 0
M  V30 549 H 51.7554 -2.94175 0.556916 0
M  V30 550 H 49.3014 -1.4146 0.26927 0
M  V30 551 H 51.2544 -3.85477 -1.70251 0
M  V30 552 H 49.9784 -2.63343 -1.93179 0
M  V30 553 H 48.6374 -3.66541 -0.0656164 0
M  V30 554 H 48.2854 -4.4048 -2.42871 0
M  V30 555 H 47.9854 -5.7345 -1.28174 0
M  V30 556 H 49.5094 -5.6908 -2.21314 0
M  V30 557 H 50.9234 -5.73271 0.0579047 0
M  V30 558 H 49.3204 -5.94469 0.820165 0
M  V30 559 H 50.3904 -4.64777 1.3824 0
M  V30 560 N 51.7335 -0.305618 -1.54608 0
M  V30 561 C 52.9795 0.302746 -2.00528 0
M  V30 562 C 53.3125 1.53184 -1.19367 0
M  V30 563 O 52.5875 1.92598 -0.271321 0
M  V30 564 C 52.8705 0.654756 -3.54097 0
M  V30 565 C 52.7235 -0.583793 -4.45995 0
M  V30 566 C 54.0425 1.47947 -4.14487 0
M  V30 567 H 51.1615 0.108564 -0.72896 0
M  V30 568 H 53.8035 -0.418634 -1.85331 0
M  V30 569 H 51.9535 1.26935 -3.67178 0
M  V30 570 H 53.6255 -1.22224 -4.44814 0
M  V30 571 H 51.8685 -1.21615 -4.16404 0
M  V30 572 H 52.5395 -0.293287 -5.5122 0
M  V30 573 H 55.0155 0.96013 -4.04871 0
M  V30 574 H 53.8915 1.69454 -5.22088 0
M  V30 575 H 54.1525 2.47011 -3.66658 0
M  V30 576 N 53.2116 1.57565 -0.0334293 0
M  V30 577 C 54.1416 2.13511 0.945265 0
M  V30 578 C 55.1226 1.05231 1.33643 0
M  V30 579 O 56.3076 1.33084 1.41429 0
M  V30 580 C 53.4376 2.6657 2.22616 0
M  V30 581 C 52.3916 3.79676 1.97561 0
M  V30 582 C 51.7176 4.1918 3.31952 0
M  V30 583 C 53.0176 5.0557 1.31135 0
M  V30 584 H 54.7116 2.95538 0.479325 0
M  V30 585 H 52.2576 1.42166 0.229115 0
M  V30 586 H 54.2106 3.04344 2.91466 0
M  V30 587 H 52.9346 1.8171 2.71384 0
M  V30 588 H 51.5936 3.42347 1.31127 0
M  V30 589 H 51.2416 3.31296 3.78487 0
M  V30 590 H 50.9416 4.95402 3.15992 0
M  V30 591 H 52.4656 4.59541 4.02063 0
M  V30 592 H 53.8796 5.40903 1.89992 0
M  V30 593 H 52.2766 5.86818 1.25559 0
M  V30 594 H 53.3466 4.84062 0.284894 0
M  V30 595 N 54.6897 -0.239769 1.55765 0
M  V30 596 C 55.5997 -1.31831 1.94056 0
M  V30 597 C 56.6157 -1.52275 0.841925 0
M  V30 598 O 57.7917 -1.65759 1.14394 0
M  V30 599 C 54.8567 -2.65156 2.23368 0
M  V30 600 C 53.9177 -2.53173 3.46701 0
M  V30 601 C 53.1507 -3.8014 3.74606 0
M  V30 602 O 53.3737 -4.82343 3.04469 0
M  V30 603 O 52.3077 -3.78344 4.68123 0
M  V30 604 H 56.1337 -1.02347 2.85935 0
M  V30 605 H 53.7187 -0.441123 1.42739 0
M  V30 606 H 55.6007 -3.43929 2.43497 0
M  V30 607 H 54.2757 -2.94358 1.34666 0
M  V30 608 H 53.1827 -1.72662 3.31871 0
M  V30 609 H 54.5157 -2.28915 4.35728 0
M  V30 610 N 56.1678 -1.49265 -0.50573 0
M  V30 611 C 57.5838 -1.35923 -0.836486 0
M  V30 612 C 57.7838 -0.388704 -1.97715 0
M  V30 613 O 56.8398 0.181336 -2.51848 0
M  V30 614 C 58.1528 -2.76531 -1.18115 0
M  V30 615 C 59.7008 -2.85197 -1.28964 0
M  V30 616 C 60.1758 -4.26561 -1.66761 0
M  V30 617 N 61.6668 -4.2935 -1.73819 0
M  V30 618 C 62.4018 -5.35693 -2.045 0
M  V30 619 N 61.8978 -6.52287 -2.33438 0
M  V30 620 N 63.6908 -5.23105 -2.05711 0
M  V30 621 H 55.8418 -2.10965 0.246519 0
M  V30 622 H 58.1048 -0.9468 0.0476887 0
M  V30 623 H 57.8108 -3.49226 -0.416398 0
M  V30 624 H 57.6848 -3.11599 -2.1257 0
M  V30 625 H 60.0718 -2.12742 -2.04511 0
M  V30 626 H 60.1528 -2.53718 -0.325704 0
M  V30 627 H 59.7968 -4.99541 -0.917656 0
M  V30 628 H 59.7268 -4.55502 -2.64246 0
M  V30 629 H 62.2178 -3.4526 -1.53635 0
M  V30 630 H 62.5308 -7.29158 -2.56024 0
M  V30 631 H 60.8758 -6.55521 -2.30905 0
M  V30 632 H 64.0668 -4.31026 -1.82577 0
M  V30 633 H 64.2398 -6.06078 -2.29289 0
M  V30 634 N 57.6459 0.756429 -1.3826 0
M  V30 635 C 59.0619 1.0591 -1.19395 0
M  V30 636 C 59.2619 2.01459 -0.0406567 0
M  V30 637 O 58.3179 2.44909 0.614467 0
M  V30 638 C 59.6309 1.64191 -2.51916 0
M  V30 639 C 61.1789 1.76376 -2.58574 0
M  V30 640 C 61.6539 2.38069 -3.91264 0
M  V30 641 N 63.1449 2.45503 -3.92788 0
M  V30 642 C 63.8799 2.94126 -4.92217 0
M  V30 643 N 63.3759 3.42805 -6.02043 0
M  V30 644 N 65.1689 2.9314 -4.7961 0
M  V30 645 H 57.3199 0.122313 -2.12048 0
M  V30 646 H 59.5829 0.116892 -0.940766 0
M  V30 647 H 59.2889 1.01451 -3.3675 0
M  V30 648 H 59.1629 2.6329 -2.70108 0
M  V30 649 H 61.5499 2.38244 -1.74137 0
M  V30 650 H 61.6309 0.759894 -2.44252 0
M  V30 651 H 61.2749 1.76835 -4.76121 0
M  V30 652 H 61.2049 3.39091 -4.02895 0
M  V30 653 H 63.6959 2.1107 -3.13461 0
M  V30 654 H 64.0089 3.78354 -6.73846 0
M  V30 655 H 62.3539 3.4087 -6.05667 0
M  V30 656 H 65.5449 2.54419 -3.92923 0
M  V30 657 H 65.7179 3.30721 -5.5725 0
M  V30 658 N 59.124 1.23083 0.984299 0
M  V30 659 C 60.535 1.05609 1.5396 0
M  V30 660 C 60.886 -0.377793 1.92528 0
M  V30 661 O 60.011 -1.26398 1.75649 0
M  V30 662 C 60.606 1.91087 2.7977 0
M  V30 663 C 59.165 1.77885 3.31713 0
M  V30 664 C 58.312 1.87028 2.04733 0
M  V30 665 H 61.263 1.36802 0.804419 0
M  V30 666 H 61.284 1.43336 3.5247 0
M  V30 667 H 60.796 2.9544 2.51668 0
M  V30 668 H 58.897 0.762995 3.64704 0
M  V30 669 H 59.01 2.61047 4.01735 0
M  V30 670 H 57.374 1.30565 2.18689 0
M  V30 671 H 58.157 2.92929 1.79017 0
M  V30 672 N 60.6021 -1.18246 1.0419 0
M  V30 673 C 61.5521 -2.19843 0.604392 0
M  V30 674 C 62.5361 -1.56962 -0.353814 0
M  V30 675 O 63.7281 -1.76156 -0.17267 0
M  V30 676 C 60.8571 -3.43287 -0.0298975 0
M  V30 677 C 59.9431 -4.13288 0.951531 0
M  V30 678 N 60.3341 -4.59271 2.11906 0
M  V30 679 C 58.6321 -4.39165 0.7778 0
M  V30 680 C 59.3331 -5.13173 2.73912 0
M  V30 681 N 58.3091 -5.04763 2.01779 0
M  V30 682 H 62.1111 -2.53089 1.4941 0
M  V30 683 H 59.6251 -1.34465 0.910658 0
M  V30 684 H 61.6221 -4.15334 -0.361037 0
M  V30 685 H 60.2821 -3.11537 -0.915127 0
M  V30 686 H 61.2931 -4.5368 2.49789 0
M  V30 687 H 57.9701 -4.17461 -0.0572331 0
M  V30 688 H 59.3601 -5.58947 3.72864 0
M  V30 689 N 62.0802 -0.821533 -1.34494 0
M  V30 690 C 63.3292 -0.405355 -1.97585 0
M  V30 691 C 63.6422 1.03677 -1.65863 0
M  V30 692 O 64.8482 1.55679 -2.22433 0
M  V30 693 C 63.3042 -0.673861 -3.53535 0
M  V30 694 C 62.9122 -2.12951 -3.94152 0
M  V30 695 C 64.6562 -0.32378 -4.23263 0
M  V30 696 C 62.5632 -2.34298 -5.43009 0
M  V30 697 H 61.4932 -0.147836 -0.739365 0
M  V30 698 H 64.1442 -1.00769 -1.53355 0
M  V30 699 H 62.5262 -0.00137554 -3.96 0
M  V30 700 H 63.7002 -2.84104 -3.62797 0
M  V30 701 H 62.0152 -2.44089 -3.37356 0
M  V30 702 H 64.6122 -0.461126 -5.32708 0
M  V30 703 H 64.9552 0.731586 -4.09821 0
M  V30 704 H 65.4882 -0.950786 -3.8627 0
M  V30 705 H 62.2272 -3.38335 -5.61435 0
M  V30 706 H 61.7472 -1.67687 -5.75883 0
M  V30 707 H 63.4262 -2.16588 -6.09671 0
M  V30 708 N 63.5583 1.46682 -0.576371 0
M  V30 709 C 64.8063 2.02013 -0.0594163 0
M  V30 710 C 65.1273 1.45101 1.30271 0
M  V30 711 O 64.3973 0.633317 1.8538 0
M  V30 712 H 62.9773 0.746759 -0.0189745 0
M  V30 713 H 65.6393 1.79862 -0.750717 0
M  V30 714 H 64.7353 3.12097 0.014345 0
M  V30 715 N 65.0364 0.313813 1.54444 0
M  V30 716 C 66.2844 -0.291099 1.99993 0
M  V30 717 C 66.6054 -1.53418 1.20366 0
M  V30 718 O 65.8754 -1.93544 0.302927 0
M  V30 719 H 64.4554 -0.110552 0.738774 0
M  V30 720 H 67.1174 0.428106 1.9014 0
M  V30 721 H 66.2134 -0.554268 3.07139 0
M  V30 722 N 66.5145 -1.57545 0.0417849 0
M  V30 723 C 67.4625 -2.12148 -0.953723 0
M  V30 724 C 68.4565 -1.05104 -1.32852 0
M  V30 725 O 69.6625 -1.23524 -1.30927 0
M  V30 726 H 66.0375 -0.677957 -0.325389 0
M  V30 727 H 68.0085 -2.94707 -0.467991 0
M  V30 728 C 66.7575 -2.6739 -2.22257 0
M  V30 729 H 66.0805 -3.49413 -1.94295 0
M  V30 730 H 67.5205 -3.09227 -2.90094 0
M  V30 731 C 65.9795 -1.60723 -2.96091 0
M  V30 732 O 66.5095 -1.01449 -3.88679 0
M  V30 733 N 64.7155 -1.32466 -2.58652 0
M  V30 734 H 64.2625 -1.80856 -1.83437 0
M  V30 735 H 64.2205 -0.61325 -3.08361 0
M  V30 736 N 67.9926 0.231505 -1.5589 0
M  V30 737 C 68.9556 1.27028 -1.90779 0
M  V30 738 C 69.9556 1.40308 -0.785507 0
M  V30 739 O 71.1456 1.38744 -1.05336 0
M  V30 740 C 68.2776 2.64566 -2.14983 0
M  V30 741 H 69.4706 0.973017 -2.83677 0
M  V30 742 H 67.0236 0.471486 -1.49019 0
M  V30 743 H 67.7586 2.99406 -1.24604 0
M  V30 744 H 67.5436 2.56305 -2.96732 0
M  V30 745 H 69.0336 3.39543 -2.43105 0
M  V30 746 N 69.4707 1.49531 0.497807 0
M  V30 747 C 70.7007 1.62657 1.27382 0
M  V30 748 C 71.1087 0.298488 1.86831 0
M  V30 749 O 70.4517 -0.72647 1.68725 0
M  V30 750 C 70.5137 2.6393 2.44093 0
M  V30 751 C 70.1777 4.08195 2.05489 0
M  V30 752 C 71.1747 4.949 1.59279 0
M  V30 753 C 68.8597 4.53948 2.15026 0
M  V30 754 C 70.8537 6.25397 1.23113 0
M  V30 755 C 68.5407 5.84458 1.78473 0
M  V30 756 C 69.5387 6.70006 1.32591 0
M  V30 757 O 69.2267 7.98083 0.965327 0
M  V30 758 H 68.9587 0.550429 0.392434 0
M  V30 759 H 71.5127 1.96325 0.603801 0
M  V30 760 H 69.7427 2.25449 3.14181 0
M  V30 761 H 71.4317 2.66552 3.06113 0
M  V30 762 H 72.1977 4.60779 1.51354 0
M  V30 763 H 68.0767 3.87525 2.4969 0
M  V30 764 H 71.6207 6.92125 0.872299 0
M  V30 765 H 67.5177 6.18107 1.86048 0
M  V30 766 H 68.2857 8.11122 1.09652 0
M  V30 767 N 70.9488 -0.749086 1.3866 0
M  V30 768 C 72.1738 -1.54344 1.38538 0
M  V30 769 C 72.5988 -1.88088 -0.0216655 0
M  V30 770 O 71.9568 -1.50899 -1.00494 0
M  V30 771 C 72.0048 -2.8164 2.25192 0
M  V30 772 O 71.1088 -3.7698 1.67212 0
M  V30 773 H 70.4498 -0.466654 0.472367 0
M  V30 774 H 72.9798 -0.925355 1.82478 0
M  V30 775 H 72.9898 -3.30519 2.3921 0
M  V30 776 H 71.6648 -2.56411 3.27454 0
M  V30 777 H 70.2418 -3.35699 1.6236 0
M  V30 778 N 72.4269 -1.23603 -0.977757 0
M  V30 779 C 73.3369 -1.03632 -2.1047 0
M  V30 780 C 74.3529 0.0199435 -1.73989 0
M  V30 781 O 75.5289 -0.176076 -2.00629 0
M  V30 782 C 72.5939 -0.63276 -3.40877 0
M  V30 783 C 71.6549 -1.76437 -3.91367 0
M  V30 784 C 70.8879 -1.37997 -5.15551 0
M  V30 785 O 71.1109 -0.265357 -5.69782 0
M  V30 786 O 70.0449 -2.20201 -5.60174 0
M  V30 787 H 73.8709 -1.98086 -2.30208 0
M  V30 788 H 71.4559 -1.02332 -1.08851 0
M  V30 789 H 73.3379 -0.418761 -4.19314 0
M  V30 790 H 72.0129 0.282754 -3.22463 0
M  V30 791 H 70.9199 -2.03304 -3.14036 0
M  V30 792 H 72.2529 -2.6583 -4.14241 0
M  V30 793 N 73.905 1.17692 -1.04816 0
M  V30 794 C 74.868 2.19787 -0.650117 0
M  V30 795 C 75.868 1.58044 0.296427 0
M  V30 796 O 77.058 1.74012 0.0808097 0
M  V30 797 C 74.19 3.40869 0.0456987 0
M  V30 798 H 75.383 2.56516 -1.5537 0
M  V30 799 H 72.936 1.31708 -0.841594 0
M  V30 800 H 73.671 3.09681 0.962726 0
M  V30 801 H 73.456 3.86928 -0.634727 0
M  V30 802 H 74.946 4.16445 0.310432 0
M  V30 803 N 75.3831 0.828654 1.34056 0
M  V30 804 C 76.2931 0.256725 2.33191 0
M  V30 805 C 77.3091 -0.611898 1.62886 0
M  V30 806 O 78.4851 -0.51844 1.94613 0
M  V30 807 C 75.5501 -0.567238 3.42028 0
M  V30 808 C 74.6111 0.324458 4.28072 0
M  V30 809 C 73.8441 -0.460274 5.31712 0
M  V30 810 O 74.0671 -1.693 5.44696 0
M  V30 811 O 73.0011 0.160391 6.01686 0
M  V30 812 H 76.8271 1.07739 2.83947 0
M  V30 813 H 74.4121 0.59093 1.37217 0
M  V30 814 H 76.2941 -1.03582 4.08471 0
M  V30 815 H 74.9691 -1.36513 2.93506 0
M  V30 816 H 73.8761 0.840659 3.64532 0
M  V30 817 H 75.2091 1.08685 4.8005 0
M  V30 818 N 76.8612 -1.46375 0.584142 0
M  V30 819 C 78.2722 -1.86031 0.157959 0
M  V30 820 C 78.6232 -1.48753 -1.27933 0
M  V30 821 O 77.7482 -0.903098 -1.96655 0
M  V30 822 C 78.3432 -3.37642 0.279892 0
M  V30 823 C 76.9022 -3.76289 -0.09143 0
M  V30 824 C 76.0492 -2.7039 0.615178 0
M  V30 825 H 79.0002 -1.37509 0.792274 0
M  V30 826 H 79.0212 -3.77275 -0.494364 0
M  V30 827 H 78.5332 -3.64742 1.32607 0
M  V30 828 H 76.6342 -3.54806 -1.13769 0
M  V30 829 H 76.7472 -4.78246 0.285886 0
M  V30 830 H 75.1112 -2.5464 0.0552833 0
M  V30 831 H 75.8942 -3.0033 1.66303 0
M  V30 832 N 78.3393 -0.321999 -1.54275 0
M  V30 833 C 79.2713 0.578671 -2.21775 0
M  V30 834 C 80.2843 1.08109 -1.21722 0
M  V30 835 O 81.4733 0.994938 -1.482 0
M  V30 836 C 78.5733 1.80661 -2.86731 0
M  V30 837 C 77.7463 1.44314 -4.12907 0
M  V30 838 C 76.8053 2.52845 -4.61472 0
M  V30 839 O 75.8313 2.17054 -5.2619 0
M  V30 840 N 77.0333 3.83748 -4.35566 0
M  V30 841 H 79.7983 0.000709447 -2.997 0
M  V30 842 H 77.3593 -0.145132 -1.61248 0
M  V30 843 H 79.3513 2.52655 -3.16145 0
M  V30 844 H 77.9213 2.29245 -2.12521 0
M  V30 845 H 77.1413 0.554906 -3.90275 0
M  V30 846 H 78.4293 1.17598 -4.95023 0
M  V30 847 H 77.8273 4.15625 -3.83761 0
M  V30 848 H 76.3843 4.51977 -4.69638 0
M  V30 849 N 79.8174 1.5752 -0.0501392 0
M  V30 850 C 81.0454 1.96963 0.633492 0
M  V30 851 C 81.4604 0.927631 1.6444 0
M  V30 852 O 80.8174 -0.0882665 1.82286 0
M  V30 853 C 80.8684 3.36487 1.32132 0
M  V30 854 O 80.5894 4.36693 0.350894 0
M  V30 855 C 82.0904 3.90682 2.09481 0
M  V30 856 H 79.3104 0.648244 0.173266 0
M  V30 857 H 81.8544 2.0417 -0.116134 0
M  V30 858 H 80.0094 3.30434 2.02218 0
M  V30 859 H 80.4234 5.17702 0.841735 0
M  V30 860 H 81.8974 4.90591 2.5303 0
M  V30 861 H 82.3744 3.26053 2.94255 0
M  V30 862 H 82.9804 4.00069 1.44307 0
M  V30 863 N 81.2955 -0.223234 1.56011 0
M  V30 864 C 82.5435 -0.946003 1.78592 0
M  V30 865 C 82.8645 -1.84936 0.618349 0
M  V30 866 O 82.1345 -1.92473 -0.364833 0
M  V30 867 H 80.7145 -0.352298 0.658707 0
M  V30 868 H 83.3765 -0.235494 1.93472 0
M  V30 869 H 82.4725 -1.55381 2.70672 0
M  V30 870 N 82.7736 -1.49793 -0.48987 0
M  V30 871 C 84.0226 -1.59085 -1.23995 0
M  V30 872 C 84.3356 -0.287907 -1.9347 0
M  V30 873 O 85.5416 -0.259506 -2.70257 0
M  V30 874 C 83.9976 -2.80736 -2.252 0
M  V30 875 C 83.6056 -4.17833 -1.61614 0
M  V30 876 C 85.3496 -2.99364 -3.00967 0
M  V30 877 C 83.2566 -5.30693 -2.60996 0
M  V30 878 H 82.1866 -0.592372 -0.466488 0
M  V30 879 H 84.8376 -1.76197 -0.51252 0
M  V30 880 H 83.2196 -2.57142 -3.01154 0
M  V30 881 H 84.3936 -4.51608 -0.915774 0
M  V30 882 H 82.7086 -4.04656 -0.981977 0
M  V30 883 H 85.3056 -3.80851 -3.75308 0
M  V30 884 H 85.6486 -2.10356 -3.59244 0
M  V30 885 H 86.1816 -3.2305 -2.32128 0
M  V30 886 H 82.9206 -6.21796 -2.07485 0
M  V30 887 H 82.4406 -5.01359 -3.2924 0
M  V30 888 H 84.1196 -5.6049 -3.23202 0
M  V30 889 N 84.2517 0.741722 -1.39055 0
M  V30 890 C 85.1617 1.88621 -1.39496 0
M  V30 891 C 86.1777 1.71557 -0.290578 0
M  V30 892 O 87.3537 1.94275 -0.530954 0
M  V30 893 C 84.4187 3.24134 -1.23037 0
M  V30 894 C 83.4797 3.5364 -2.43387 0
M  V30 895 C 82.7127 4.82687 -2.27703 0
M  V30 896 O 82.9357 5.55922 -1.27696 0
M  V30 897 O 81.8697 5.1194 -3.16545 0
M  V30 898 H 85.6957 1.91203 -2.35956 0
M  V30 899 H 83.2807 0.888625 -1.20099 0
M  V30 900 H 85.1627 4.0513 -1.15964 0
M  V30 901 H 83.8377 3.22337 -0.296691 0
M  V30 902 H 82.7447 2.72758 -2.56035 0
M  V30 903 H 84.0777 3.60209 -3.35425 0
M  V30 904 N 85.7298 1.2412 0.971189 0
M  V30 905 C 86.9758 1.08041 1.71625 0
M  V30 906 C 87.3088 -0.380407 1.90438 0
M  V30 907 O 86.5838 -1.28127 1.46334 0
M  V30 908 C 86.8668 1.81682 3.10908 0
M  V30 909 C 86.7198 3.35493 2.99608 0
M  V30 910 C 88.0388 1.58671 4.10501 0
M  V30 911 H 85.1578 0.39388 0.622919 0
M  V30 912 H 87.7998 1.52743 1.13003 0
M  V30 913 H 85.9498 1.43684 3.60953 0
M  V30 914 H 87.6218 3.83068 2.57015 0
M  V30 915 H 85.8648 3.64052 2.35899 0
M  V30 916 H 86.5358 3.82217 3.98264 0
M  V30 917 H 89.0118 1.91719 3.69301 0
M  V30 918 H 87.8878 2.1266 5.06031 0
M  V30 919 H 88.1488 0.524161 4.38982 0
M  V30 920 N 87.2079 -1.17134 1.05439 0
M  V30 921 C 88.1579 -2.1919 0.627675 0
M  V30 922 C 89.1419 -1.57328 -0.337147 0
M  V30 923 O 90.3339 -1.76329 -0.153976 0
M  V30 924 C 87.4629 -3.43299 0.00651435 0
M  V30 925 C 86.5489 -4.12255 0.995312 0
M  V30 926 N 86.9399 -4.56997 2.16765 0
M  V30 927 C 85.2379 -4.38316 0.824336 0
M  V30 928 C 85.9389 -5.10239 2.7934 0
M  V30 929 N 84.9149 -5.02595 2.07122 0
M  V30 930 H 88.7169 -2.5149 1.52086 0
M  V30 931 H 86.2309 -1.33491 0.924868 0
M  V30 932 H 88.2279 -4.15693 -0.316965 0
M  V30 933 H 86.8879 -3.1249 -0.882033 0
M  V30 934 H 87.8989 -4.51006 2.54587 0
M  V30 935 H 84.5759 -4.17498 -0.0129526 0
M  V30 936 H 85.9659 -5.54961 3.78772 0
M  V30 937 N 88.686 -0.835752 -1.33615 0
M  V30 938 C 89.633 -0.26473 -2.29277 0
M  V30 939 C 90.603 0.617712 -1.54187 0
M  V30 940 O 91.788 0.556641 -1.825 0
M  V30 941 C 88.928 0.556777 -3.40579 0
M  V30 942 C 88.041 -0.349339 -4.30585 0
M  V30 943 C 87.176 0.482969 -5.29 0
M  V30 944 C 86.215 -0.421732 -6.10645 0
M  V30 945 N 85.352 0.372262 -7.01112 0
M  V30 946 H 90.192 -1.08582 -2.77514 0
M  V30 947 H 87.729 -0.546927 -1.36554 0
M  V30 948 H 89.687 1.04852 -4.03809 0
M  V30 949 H 88.317 1.34286 -2.93542 0
M  V30 950 H 87.369 -0.959372 -3.68104 0
M  V30 951 H 88.681 -1.04445 -4.87742 0
M  V30 952 H 87.835 1.03866 -5.97743 0
M  V30 953 H 86.574 1.21153 -4.72412 0
M  V30 954 H 85.579 -0.989464 -5.40823 0
M  V30 955 H 86.804 -1.14861 -6.69316 0
M  V30 956 H 84.75 1.08426 -6.46977 0
M  V30 957 H 84.667 -0.264198 -7.55538 0
M  V30 958 H 85.935 0.910293 -7.74167 0
M  V30 959 N 90.1641 1.46063 -0.591896 0
M  V30 960 C 91.3941 2.06418 -0.0867676 0
M  V30 961 C 91.8021 1.43975 1.22751 0
M  V30 962 O 91.1451 0.542531 1.75506 0
M  V30 963 C 91.2071 3.59213 0.143725 0
M  V30 964 C 90.8711 4.439 -1.08635 0
M  V30 965 C 91.8681 4.79864 -2.00067 0
M  V30 966 C 89.5531 4.84896 -1.31077 0
M  V30 967 C 91.5471 5.55661 -3.12282 0
M  V30 968 C 89.2341 5.6045 -2.43596 0
M  V30 969 C 90.2321 5.95747 -3.34027 0
M  V30 970 O 89.9201 6.69772 -4.4459 0
M  V30 971 H 89.6521 0.673443 -0.0587447 0
M  V30 972 H 92.2061 1.88539 -0.814994 0
M  V30 973 H 90.4361 3.75433 0.926668 0
M  V30 974 H 92.1251 4.01463 0.5985 0
M  V30 975 H 92.8911 4.48763 -1.83947 0
M  V30 976 H 88.7701 4.56867 -0.61594 0
M  V30 977 H 92.3141 5.8313 -3.82891 0
M  V30 978 H 88.2111 5.90965 -2.59674 0
M  V30 979 H 88.9791 6.88207 -4.43073 0
M  V30 980 N 91.6422 0.330177 1.54103 0
M  V30 981 C 92.8902 -0.269871 2.0029 0
M  V30 982 C 93.2112 -1.52133 1.21986 0
M  V30 983 O 92.4812 -1.93212 0.323438 0
M  V30 984 H 91.0612 -0.10271 0.739905 0
M  V30 985 H 93.7232 0.448249 1.89675 0
M  V30 986 H 92.8192 -0.52166 3.07709 0
M  V30 987 N 93.1203 -1.57491 0.0584922 0
M  V30 988 C 94.0833 -2.1085 -0.898617 0
M  V30 989 C 95.0833 -1.02964 -1.23511 0
M  V30 990 O 96.2733 -1.29007 -1.17059 0
M  V30 991 C 93.4053 -2.59881 -2.20623 0
M  V30 992 H 94.5983 -2.96715 -0.435936 0
M  V30 993 H 92.1513 -1.55141 -0.190023 0
M  V30 994 H 92.8863 -1.77431 -2.71457 0
M  V30 995 H 92.6713 -3.38727 -1.97501 0
M  V30 996 H 94.1613 -3.01285 -2.89166 0
M  V30 997 N 94.5984 0.214957 -1.56127 0
M  V30 998 C 95.5484 1.27006 -1.8935 0
M  V30 999 C 96.5324 1.41969 -0.757202 0
M  V30 1000 O 97.7244 1.44673 -1.01973 0
M  V30 1001 C 94.8534 2.61911 -2.2194 0
M  V30 1002 C 93.9394 2.50822 -3.41978 0
M  V30 1003 N 94.3304 2.09391 -4.60423 0
M  V30 1004 C 92.6284 2.81765 -3.45723 0
M  V30 1005 C 93.3294 2.09712 -5.42582 0
M  V30 1006 N 92.3054 2.50454 -4.82466 0
M  V30 1007 H 96.1074 0.940734 -2.78437 0
M  V30 1008 H 93.6214 0.423492 -1.56781 0
M  V30 1009 H 95.6184 3.38096 -2.43919 0
M  V30 1010 H 94.2784 2.95684 -1.34169 0
M  V30 1011 H 95.2894 1.80416 -4.85459 0
M  V30 1012 H 91.9664 3.19865 -2.68314 0
M  V30 1013 H 93.3564 1.79748 -6.4741 0
M  V30 1014 N 96.0765 1.50051 0.48192 0
M  V30 1015 C 97.0065 1.71046 1.58951 0
M  V30 1016 C 97.9875 0.559288 1.60642 0
M  V30 1017 O 99.1725 0.797243 1.77081 0
M  V30 1018 C 96.3025 1.79462 2.97339 0
M  V30 1019 C 95.2565 2.94558 3.10515 0
M  V30 1020 C 94.5825 2.88105 4.50444 0
M  V30 1021 C 95.8825 4.35227 2.88747 0
M  V30 1022 H 97.5765 2.6378 1.41635 0
M  V30 1023 H 95.1225 1.26936 0.679942 0
M  V30 1024 H 97.0755 1.92734 3.74742 0
M  V30 1025 H 95.7995 0.833412 3.15788 0
M  V30 1026 H 94.4585 2.80918 2.35543 0
M  V30 1027 H 94.1065 1.89853 4.65795 0
M  V30 1028 H 93.8065 3.65366 4.60197 0
M  V30 1029 H 95.3305 3.03412 5.29881 0
M  V30 1030 H 96.7445 4.49449 3.55905 0
M  V30 1031 H 95.1415 5.13856 3.09955 0
M  V30 1032 H 96.2115 4.48347 1.84696 0
M  V30 1033 N 97.5546 -0.734337 1.39446 0
M  V30 1034 C 98.8016 -1.49391 1.36706 0
M  V30 1035 C 99.1296 -1.94465 -0.0367813 0
M  V30 1036 O 98.3846 -1.67154 -1.01774 0
M  V30 1037 C 98.6836 -2.74711 2.28623 0
M  V30 1038 C 98.3496 -2.48501 3.76242 0
M  V30 1039 C 97.0116 -2.41062 4.16464 0
M  V30 1040 C 99.3636 -2.26098 4.69606 0
M  V30 1041 C 96.6916 -2.09262 5.48112 0
M  V30 1042 C 99.0436 -1.95814 6.01531 0
M  V30 1043 C 97.7076 -1.86845 6.40816 0
M  V30 1044 H 96.9776 -0.546661 0.500243 0
M  V30 1045 H 99.6246 -0.842788 1.71957 0
M  V30 1046 H 97.9296 -3.44569 1.86492 0
M  V30 1047 H 99.6266 -3.32741 2.23796 0
M  V30 1048 H 96.2166 -2.55169 3.44364 0
M  V30 1049 H 100.401 -2.30812 4.39363 0
M  V30 1050 H 95.6566 -2.00841 5.77471 0
M  V30 1051 H 99.8306 -1.77488 6.73403 0
M  V30 1052 H 97.4576 -1.6197 7.42745 0
M  V30 1053 N 99.0327 -1.24633 -0.964593 0
M  V30 1054 C 99.9827 -1.00841 -2.04487 0
M  V30 1055 C 100.967 0.0512468 -1.60818 0
M  V30 1056 O 102.159 -0.162865 -1.76249 0
M  V30 1057 C 99.2877 -0.618474 -3.37683 0
M  V30 1058 C 98.3737 -1.71437 -3.87905 0
M  V30 1059 N 98.7647 -2.9477 -4.11029 0
M  V30 1060 C 97.0627 -1.5926 -4.16596 0
M  V30 1061 C 97.7637 -3.65834 -4.52261 0
M  V30 1062 N 96.7397 -2.9341 -4.57615 0
M  V30 1063 H 100.542 -1.94487 -2.20345 0
M  V30 1064 H 98.0557 -1.14805 -1.14863 0
M  V30 1065 H 100.053 -0.429247 -4.14684 0
M  V30 1066 H 98.7127 0.310766 -3.23209 0
M  V30 1067 H 99.7237 -3.30917 -3.9839 0
M  V30 1068 H 96.4007 -0.731606 -4.1104 0
M  V30 1069 H 97.7907 -4.71646 -4.78539 0
M  V30 1070 N 100.511 1.16574 -1.06058 0
M  V30 1071 C 101.739 1.90952 -0.796552 0
M  V30 1072 C 102.154 1.77302 0.648808 0
M  V30 1073 O 101.511 1.11605 1.44397 0
M  V30 1074 C 101.562 3.41736 -1.17894 0
M  V30 1075 O 101.283 3.54975 -2.56758 0
M  V30 1076 C 102.784 4.33169 -0.942308 0
M  V30 1077 H 100.004 0.605594 -0.288959 0
M  V30 1078 H 102.548 1.47777 -1.41358 0
M  V30 1079 H 100.703 3.82623 -0.606491 0
M  V30 1080 H 101.117 4.4846 -2.72 0
M  V30 1081 H 102.591 5.37439 -1.25952 0
M  V30 1082 H 103.068 4.3903 0.122078 0
M  V30 1083 H 103.674 3.98007 -1.49902 0
M  V30 1084 N 101.989 0.842826 1.3317 0
M  V30 1085 C 103.214 0.453129 2.02389 0
M  V30 1086 C 103.639 -0.939105 1.6298 0
M  V30 1087 O 102.997 -1.61472 0.8244 0
M  V30 1088 C 103.045 0.586094 3.55805 0
M  V30 1089 O 102.149 -0.386029 4.10589 0
M  V30 1090 H 101.49 0.183664 0.638094 0
M  V30 1091 H 104.02 1.13875 1.69981 0
M  V30 1092 H 104.03 0.469209 4.05293 0
M  V30 1093 H 102.705 1.6014 3.83833 0
M  V30 1094 H 101.282 -0.226371 3.72212 0
M  V30 1095 N 103.467 -1.45747 0.599634 0
M  V30 1096 C 104.415 -2.322 -0.136426 0
M  V30 1097 C 105.409 -1.45497 -0.867583 0
M  V30 1098 O 106.615 -1.62027 -0.78405 0
M  V30 1099 H 102.99 -0.749368 -0.0628588 0
M  V30 1100 H 104.961 -2.92072 0.611281 0
M  V30 1101 C 103.71 -3.28974 -1.12567 0
M  V30 1102 H 103.033 -3.9568 -0.572484 0
M  V30 1103 H 104.473 -3.92212 -1.61077 0
M  V30 1104 C 102.932 -2.55561 -2.19523 0
M  V30 1105 O 103.462 -2.33111 -3.27143 0
M  V30 1106 N 101.668 -2.15832 -1.94589 0
M  V30 1107 H 101.215 -2.3429 -1.07078 0
M  V30 1108 H 101.173 -1.67034 -2.66359 0
M  V30 1109 N 104.945 -0.338344 -1.53925 0
M  V30 1110 C 105.892 0.520845 -2.24846 0
M  V30 1111 C 106.862 1.09976 -1.24477 0
M  V30 1112 O 108.047 1.13735 -1.53196 0
M  V30 1113 C 105.187 1.6685 -3.02084 0
M  V30 1114 C 104.3 1.11739 -4.17299 0
M  V30 1115 C 103.435 2.23193 -4.82036 0
M  V30 1116 C 102.474 1.65407 -5.89328 0
M  V30 1117 N 101.611 2.70582 -6.47866 0
M  V30 1118 H 106.451 -0.0904881 -2.97863 0
M  V30 1119 H 103.988 -0.0564282 -1.46992 0
M  V30 1120 H 105.946 2.34407 -3.45122 0
M  V30 1121 H 104.576 2.2509 -2.31375 0
M  V30 1122 H 103.628 0.332919 -3.7894 0
M  V30 1123 H 104.94 0.654677 -4.94485 0
M  V30 1124 H 104.094 2.98626 -5.28117 0
M  V30 1125 H 102.833 2.72807 -4.04262 0
M  V30 1126 H 101.838 0.884779 -5.42634 0
M  V30 1127 H 103.063 1.16652 -6.69006 0
M  V30 1128 H 101.009 3.1946 -5.72959 0
M  V30 1129 H 100.926 2.28917 -7.20509 0
M  V30 1130 H 102.194 3.45799 -6.98601 0
M  V30 1131 N 106.423 1.57458 -0.0668435 0
M  V30 1132 C 107.839 1.56947 0.289772 0
M  V30 1133 C 108.039 1.07584 1.70376 0
M  V30 1134 O 107.095 0.739486 2.41429 0
M  V30 1135 C 108.408 3.0052 0.103943 0
M  V30 1136 C 109.956 3.12517 0.173857 0
M  V30 1137 C 110.431 4.57997 0.0163682 0
M  V30 1138 N 111.922 4.63144 0.0721352 0
M  V30 1139 C 112.657 5.73394 -0.0253794 0
M  V30 1140 N 112.153 6.92576 -0.176133 0
M  V30 1141 N 113.946 5.62091 0.0313305 0
M  V30 1142 H 106.097 1.87863 -0.991027 0
M  V30 1143 H 108.36 0.86583 -0.38606 0
M  V30 1144 H 108.066 3.40729 -0.871572 0
M  V30 1145 H 107.94 3.67304 0.858366 0
M  V30 1146 H 110.327 2.72197 1.13985 0
M  V30 1147 H 110.408 2.48381 -0.611586 0
M  V30 1148 H 110.052 4.99005 -0.946374 0
M  V30 1149 H 109.982 5.20158 0.821153 0
M  V30 1150 H 112.473 3.77436 0.187263 0
M  V30 1151 H 112.786 7.72418 -0.242821 0
M  V30 1152 H 111.131 6.94678 -0.211429 0
M  V30 1153 H 114.322 4.67867 0.147773 0
M  V30 1154 H 114.495 6.47982 -0.048121 0
M  V30 1155 N 107.901 -0.206675 1.56239 0
M  V30 1156 C 109.147 -0.930218 1.80208 0
M  V30 1157 C 109.48 -1.83387 0.638981 0
M  V30 1158 O 108.755 -1.91119 -0.361066 0
M  V30 1159 C 109.038 -1.75641 3.1436 0
M  V30 1160 C 108.891 -0.878257 4.41142 0
M  V30 1161 C 110.21 -2.73129 3.45092 0
M  V30 1162 H 107.329 -0.336742 0.655571 0
M  V30 1163 H 109.971 -0.198222 1.88963 0
M  V30 1164 H 108.121 -2.38048 3.07027 0
M  V30 1165 H 109.793 -0.269787 4.6051 0
M  V30 1166 H 108.036 -0.184385 4.33408 0
M  V30 1167 H 108.707 -1.49106 5.3148 0
M  V30 1168 H 111.183 -2.20856 3.52649 0
M  V30 1169 H 110.059 -3.28028 4.40101 0
M  V30 1170 H 110.32 -3.51606 2.68003 0
M  V30 1171 N 109.379 -1.50304 -0.473955 0
M  V30 1172 C 110.625 -1.62358 -1.22521 0
M  V30 1173 C 110.98 -0.318555 -1.89745 0
M  V30 1174 O 110.273 0.683315 -1.79001 0
M  V30 1175 C 110.467 -2.73938 -2.29549 0
M  V30 1176 C 110.296 -4.15165 -1.72825 0
M  V30 1177 C 109.066 -4.81604 -1.52924 0
M  V30 1178 C 111.264 -4.99503 -1.22481 0
M  V30 1179 N 109.246 -6.07056 -0.91413 0
M  V30 1180 C 110.617 -6.15655 -0.732743 0
M  V30 1181 C 112.672 -4.85299 -1.11308 0
M  V30 1182 C 111.375 -7.19164 -0.139976 0
M  V30 1183 C 113.401 -5.88982 -0.534258 0
M  V30 1184 C 112.763 -7.0438 -0.0525562 0
M  V30 1185 H 108.862 -0.648286 -0.437321 0
M  V30 1186 H 111.446 -1.87413 -0.527692 0
M  V30 1187 H 109.617 -2.50611 -2.9673 0
M  V30 1188 H 111.349 -2.75366 -2.96573 0
M  V30 1189 H 108.104 -4.3885 -1.78067 0
M  V30 1190 H 108.528 -6.74108 -0.625071 0
M  V30 1191 H 113.17 -3.96369 -1.47144 0
M  V30 1192 H 110.888 -8.07771 0.230591 0
M  V30 1193 H 114.474 -5.80055 -0.450219 0
M  V30 1194 H 113.354 -7.83238 0.388324 0
M  V30 1195 N 110.857 0.726932 -1.39834 0
M  V30 1196 C 112.134 1.47902 -1.28001 0
M  V30 1197 C 112.514 2.1083 0.106789 0
M  V30 1198 O 111.862 1.99242 1.11869 0
M  V30 1199 C 112.072 2.52392 -2.41038 0
M  V30 1200 C 113.42 3.18546 -2.80737 0
M  V30 1201 O 114.444 2.62708 -2.40547 0
M  V30 1202 O 113.303 4.19604 -3.50135 0
M  V30 1203 H 110.397 0.657163 -0.502062 0
M  V30 1204 H 112.943 0.760071 -1.51727 0
M  V30 1205 H 111.715 2.04329 -3.33715 0
M  V30 1206 H 111.338 3.31837 -2.19021 0
M  V30 1207 N 112.336 1.25143 0.95797 0
M  V30 1208 C 113.566 1.12261 1.73439 0
M  V30 1209 C 113.974 -0.326715 1.86358 0
M  V30 1210 O 113.317 -1.2367 1.35836 0
M  V30 1211 C 113.379 1.69966 3.16784 0
M  V30 1212 C 113.043 3.18936 3.27305 0
M  V30 1213 C 114.04 4.15968 3.11877 0
M  V30 1214 C 111.725 3.59083 3.51234 0
M  V30 1215 C 113.719 5.51126 3.20217 0
M  V30 1216 C 111.406 4.9438 3.5921 0
M  V30 1217 C 112.404 5.90211 3.43716 0
M  V30 1218 O 112.092 7.23046 3.51368 0
M  V30 1219 H 111.824 0.392476 0.550399 0
M  V30 1220 H 114.378 1.65927 1.21068 0
M  V30 1221 H 112.608 1.10744 3.70503 0
M  V30 1222 H 114.297 1.52232 3.76272 0
M  V30 1223 H 115.063 3.86292 2.93264 0
M  V30 1224 H 110.942 2.84989 3.62356 0
M  V30 1225 H 114.486 6.25905 3.0804 0
M  V30 1226 H 110.383 5.23723 3.77339 0
M  V30 1227 H 111.151 7.31097 3.6802 0
M  V30 1228 N 113.814 -1.1601 1.06675 0
M  V30 1229 C 115.06 -1.86909 0.786945 0
M  V30 1230 C 115.393 -1.81717 -0.685018 0
M  V30 1231 O 114.668 -1.23551 -1.50218 0
M  V30 1232 C 114.951 -3.36313 1.28707 0
M  V30 1233 C 114.804 -3.50175 2.82308 0
M  V30 1234 C 116.123 -4.3084 0.898071 0
M  V30 1235 H 113.242 -0.678677 0.287343 0
M  V30 1236 H 115.884 -1.36336 1.32334 0
M  V30 1237 H 114.034 -3.79513 0.830768 0
M  V30 1238 H 115.706 -3.15886 3.36175 0
M  V30 1239 H 113.949 -2.91959 3.20847 0
M  V30 1240 H 114.62 -4.55116 3.12368 0
M  V30 1241 H 117.096 -3.95561 1.29114 0
M  V30 1242 H 115.972 -5.33876 1.27543 0
M  V30 1243 H 116.233 -4.41662 -0.196651 0
M  V30 1244 N 115.292 -0.849877 -1.32721 0
M  V30 1245 C 116.708 -0.539102 -1.50219 0
M  V30 1246 C 116.908 0.931271 -1.78689 0
M  V30 1247 O 115.964 1.71455 -1.85363 0
M  V30 1248 C 117.277 -1.42196 -2.64954 0
M  V30 1249 C 118.825 -1.42189 -2.78839 0
M  V30 1250 C 119.3 -2.28985 -3.96648 0
M  V30 1251 N 120.791 -2.26754 -4.03902 0
M  V30 1252 C 121.526 -2.90644 -4.94281 0
M  V30 1253 N 121.022 -3.63629 -5.897 0
M  V30 1254 N 122.815 -2.80057 -4.87365 0
M  V30 1255 H 114.966 -1.80156 -1.12506 0
M  V30 1256 H 117.229 -0.769217 -0.554085 0
M  V30 1257 H 116.935 -2.46733 -2.50631 0
M  V30 1258 H 116.809 -1.10591 -3.60624 0
M  V30 1259 H 119.196 -0.38419 -2.92588 0
M  V30 1260 H 119.277 -1.77807 -1.83898 0
M  V30 1261 H 118.921 -3.32819 -3.83658 0
M  V30 1262 H 118.851 -1.90702 -4.90857 0
M  V30 1263 H 121.342 -1.73688 -3.3562 0
M  V30 1264 H 121.655 -4.09558 -6.55349 0
M  V30 1265 H 120 -3.67737 -5.89741 0
M  V30 1266 H 123.191 -2.22593 -4.11789 0
M  V30 1267 H 123.364 -3.30132 -5.57599 0
M  V30 1268 N 116.77 1.45427 -0.607355 0
M  V30 1269 C 117.702 2.2871 0.149752 0
M  V30 1270 C 118.715 1.39937 0.831958 0
M  V30 1271 O 119.904 1.64313 0.697385 0
M  V30 1272 C 117.004 3.15673 1.23304 0
M  V30 1273 C 116.177 4.32722 0.637996 0
M  V30 1274 C 115.236 5.00895 1.61215 0
M  V30 1275 O 114.262 5.57697 1.13854 0
M  V30 1276 N 115.464 5.00159 2.94655 0
M  V30 1277 H 118.229 2.94328 -0.564882 0
M  V30 1278 H 115.79 1.55612 -0.446823 0
M  V30 1279 H 117.782 3.58144 1.88454 0
M  V30 1280 H 116.352 2.51965 1.8502 0
M  V30 1281 H 115.572 3.93734 -0.191572 0
M  V30 1282 H 116.86 5.08321 0.220665 0
M  V30 1283 H 116.258 4.553 3.35735 0
M  V30 1284 H 114.815 5.46495 3.55228 0
M  V30 1285 N 118.248 0.346503 1.53744 0
M  V30 1286 C 119.495 -0.249104 2.00962 0
M  V30 1287 C 119.823 -1.5032 1.23426 0
M  V30 1288 O 119.078 -1.93217 0.310761 0
M  V30 1289 C 119.377 -0.605809 3.52228 0
M  V30 1290 C 119.043 0.551747 4.47512 0
M  V30 1291 C 117.705 0.86941 4.73281 0
M  V30 1292 C 120.057 1.32818 5.03993 0
M  V30 1293 C 117.385 1.96582 5.52786 0
M  V30 1294 C 119.737 2.41486 5.84694 0
M  V30 1295 C 118.401 2.73808 6.08757 0
M  V30 1296 H 117.671 -0.0911538 0.735372 0
M  V30 1297 H 120.318 0.475027 1.85515 0
M  V30 1298 H 118.623 -1.4107 3.65522 0
M  V30 1299 H 120.32 -1.07858 3.86222 0
M  V30 1300 H 116.91 0.294102 4.2759 0
M  V30 1301 H 121.094 1.09602 4.84047 0
M  V30 1302 H 116.35 2.22045 5.69654 0
M  V30 1303 H 120.524 3.02078 6.27473 0
M  V30 1304 H 118.151 3.58892 6.7015 0
M  V30 1305 N 119.726 -1.57421 0.075193 0
M  V30 1306 C 120.954 -1.97946 -0.602076 0
M  V30 1307 C 121.369 -0.953674 -1.62943 0
M  V30 1308 O 120.726 0.0592551 -1.82404 0
M  V30 1309 C 120.777 -3.38546 -1.26762 0
M  V30 1310 O 120.498 -4.37195 -0.281376 0
M  V30 1311 C 121.999 -3.93966 -2.03239 0
M  V30 1312 H 119.219 -0.650918 -0.162931 0
M  V30 1313 H 121.763 -2.03959 0.148601 0
M  V30 1314 H 119.918 -3.33609 -1.96936 0
M  V30 1315 H 120.332 -5.18975 -0.759267 0
M  V30 1316 H 121.806 -4.94555 -2.45193 0
M  V30 1317 H 122.283 -3.30693 -2.8903 0
M  V30 1318 H 122.889 -4.02315 -1.37924 0
M  V30 1319 N 121.204 0.198386 -1.56346 0
M  V30 1320 C 122.481 0.944982 -1.71258 0
M  V30 1321 C 122.861 2.0151 -0.629048 0
M  V30 1322 O 122.209 2.25639 0.360473 0
M  V30 1323 C 122.419 1.5344 -3.1346 0
M  V30 1324 C 123.767 2.01778 -3.73591 0
M  V30 1325 O 124.791 1.63288 -3.16568 0
M  V30 1326 O 123.65 2.72594 -4.73661 0
M  V30 1327 H 120.744 0.442939 -0.69838 0
M  V30 1328 H 123.29 0.188342 -1.68652 0
M  V30 1329 H 122.062 0.762869 -3.83792 0
M  V30 1330 H 121.685 2.35596 -3.20282 0
M  V30 1331 N 122.682 1.50554 0.465978 0
M  V30 1332 C 123.929 1.61798 1.21768 0
M  V30 1333 C 124.257 0.320696 1.91838 0
M  V30 1334 O 123.512 -0.693724 1.82992 0
M  V30 1335 C 123.811 2.75152 2.28093 0
M  V30 1336 C 123.477 4.15454 1.75239 0
M  V30 1337 C 122.139 4.53628 1.60546 0
M  V30 1338 C 124.491 5.03121 1.36083 0
M  V30 1339 C 121.819 5.77204 1.05128 0
M  V30 1340 C 124.171 6.27249 0.821056 0
M  V30 1341 C 122.835 6.64221 0.660795 0
M  V30 1342 H 122.105 0.592063 0.445582 0
M  V30 1343 H 124.752 1.84503 0.512927 0
M  V30 1344 H 123.057 2.46556 3.04496 0
M  V30 1345 H 124.754 2.81055 2.86023 0
M  V30 1346 H 121.344 3.85341 1.87644 0
M  V30 1347 H 125.528 4.74257 1.46267 0
M  V30 1348 H 120.784 6.0452 0.91462 0
M  V30 1349 H 124.958 6.94537 0.509018 0
M  V30 1350 H 122.585 7.59854 0.229226 0
M  V30 1351 N 124.16 -0.719506 1.40217 0
M  V30 1352 C 125.388 -1.50864 1.41589 0
M  V30 1353 C 125.803 -1.88794 0.0145275 0
M  V30 1354 O 125.16 -1.55174 -0.960594 0
M  V30 1355 C 125.211 -2.78646 2.30302 0
M  V30 1356 O 124.932 -2.42321 3.64983 0
M  V30 1357 C 126.433 -3.72569 2.40224 0
M  V30 1358 H 123.653 -0.465709 0.48307 0
M  V30 1359 H 126.197 -0.88785 1.84221 0
M  V30 1360 H 124.352 -3.37019 1.91042 0
M  V30 1361 H 124.766 -3.24514 4.12057 0
M  V30 1362 H 126.24 -4.5908 3.06512 0
M  V30 1363 H 126.717 -4.15403 1.42608 0
M  V30 1364 H 127.323 -3.20109 2.80019 0
M  V30 1365 N 125.638 -1.25649 -0.95132 0
M  V30 1366 C 126.915 -1.01361 -1.67288 0
M  V30 1367 C 127.295 0.459135 -2.06046 0
M  V30 1368 O 126.643 1.43723 -1.7764 0
M  V30 1369 C 126.853 -1.95256 -2.89268 0
M  V30 1370 C 128.201 -2.23289 -3.61147 0
M  V30 1371 O 129.225 -1.93041 -2.99355 0
M  V30 1372 O 128.084 -2.74741 -4.72419 0
M  V30 1373 H 125.178 -0.38464 -0.732107 0
M  V30 1374 H 127.724 -1.36817 -1.00395 0
M  V30 1375 H 126.496 -2.94685 -2.57442 0
M  V30 1376 H 126.119 -1.60218 -3.6389 0
M  V30 1377 N 127.117 1.15442 -1.07289 0
M  V30 1378 C 128.347 1.89821 -0.815576 0
M  V30 1379 C 128.755 1.7823 0.634867 0
M  V30 1380 O 128.098 1.13152 1.44715 0
M  V30 1381 C 128.16 3.40817 -1.14385 0
M  V30 1382 C 127.824 3.76193 -2.59476 0
M  V30 1383 C 128.821 3.77269 -3.57721 0
M  V30 1384 C 126.506 4.0652 -2.95037 0
M  V30 1385 C 128.5 4.08176 -4.89562 0
M  V30 1386 C 126.187 4.37092 -4.27076 0
M  V30 1387 C 127.185 4.37902 -5.24148 0
M  V30 1388 O 126.873 4.67741 -6.53815 0
M  V30 1389 H 126.605 0.608465 -0.294528 0
M  V30 1390 H 129.159 1.472 -1.43252 0
M  V30 1391 H 127.389 3.83835 -0.469865 0
M  V30 1392 H 129.078 3.96485 -0.869179 0
M  V30 1393 H 129.844 3.5394 -3.3159 0
M  V30 1394 H 125.723 4.05049 -2.20128 0
M  V30 1395 H 129.267 4.08723 -5.65324 0
M  V30 1396 H 125.164 4.59889 -4.5296 0
M  V30 1397 H 125.932 4.85509 -6.58957 0
M  V30 1398 N 128.595 0.856903 1.32268 0
M  V30 1399 C 130.011 0.547061 1.49931 0
M  V30 1400 C 130.211 -0.921781 1.7918 0
M  V30 1401 O 129.267 -1.70469 1.8627 0
M  V30 1402 C 130.58 1.43599 2.64196 0
M  V30 1403 C 132.128 1.43665 2.78081 0
M  V30 1404 C 132.603 2.31085 3.95428 0
M  V30 1405 N 134.094 2.28893 4.02694 0
M  V30 1406 C 134.829 2.93262 4.92732 0
M  V30 1407 N 134.325 3.66751 5.87763 0
M  V30 1408 N 136.118 2.82638 4.85873 0
M  V30 1409 H 128.269 1.8075 1.11549 0
M  V30 1410 H 130.532 0.772144 0.549997 0
M  V30 1411 H 130.238 2.48058 2.49319 0
M  V30 1412 H 130.112 1.12502 3.60032 0
M  V30 1413 H 132.499 0.399701 2.92381 0
M  V30 1414 H 132.58 1.7878 1.82952 0
M  V30 1415 H 132.224 3.34849 3.81888 0
M  V30 1416 H 132.154 1.93302 4.89839 0
M  V30 1417 H 134.645 1.75466 3.34694 0
M  V30 1418 H 134.958 4.13027 6.53168 0
M  V30 1419 H 133.303 3.70859 5.87783 0
M  V30 1420 H 136.494 2.24774 4.10602 0
M  V30 1421 H 136.667 3.33084 5.55841 0
M  V30 1422 N 130.073 -1.45103 0.615059 0
M  V30 1423 C 131.023 -2.27679 -0.120966 0
M  V30 1424 C 132.007 -1.3775 -0.831491 0
M  V30 1425 O 133.199 -1.61683 -0.720249 0
M  V30 1426 C 130.328 -3.24767 -1.1127 0
M  V30 1427 C 129.414 -4.22184 -0.402627 0
M  V30 1428 N 129.805 -5.02692 0.559884 0
M  V30 1429 C 128.103 -4.4125 -0.649202 0
M  V30 1430 C 128.804 -5.73421 0.977942 0
M  V30 1431 N 127.78 -5.42657 0.320104 0
M  V30 1432 H 131.582 -2.87325 0.618181 0
M  V30 1433 H 129.096 -1.56345 0.439304 0
M  V30 1434 H 131.093 -3.82666 -1.65446 0
M  V30 1435 H 129.753 -2.66682 -1.85232 0
M  V30 1436 H 130.764 -5.09354 0.936976 0
M  V30 1437 H 127.441 -3.9428 -1.37293 0
M  V30 1438 H 128.831 -6.48107 1.77222 0
M  V30 1439 N 131.551 -0.354651 -1.53558 0
M  V30 1440 C 132.967 -0.00315426 -1.596 0
M  V30 1441 C 133.167 1.47741 -1.37021 0
M  V30 1442 O 132.223 2.23759 -1.16996 0
M  V30 1443 C 133.536 -0.44929 -2.97325 0
M  V30 1444 C 135.084 -0.402578 -3.104 0
M  V30 1445 C 135.559 -0.824355 -4.5052 0
M  V30 1446 N 137.05 -0.778979 -4.56603 0
M  V30 1447 C 137.785 -1.07715 -5.63192 0
M  V30 1448 N 137.281 -1.44405 -6.77583 0
M  V30 1449 N 139.074 -1.00066 -5.53121 0
M  V30 1450 H 131.225 -1.31893 -1.66487 0
M  V30 1451 H 133.488 -0.538388 -0.780284 0
M  V30 1452 H 133.194 -1.48202 -3.1895 0
M  V30 1453 H 133.068 0.169772 -3.76818 0
M  V30 1454 H 135.455 0.621004 -2.88492 0
M  V30 1455 H 135.536 -1.05699 -2.32941 0
M  V30 1456 H 135.18 -1.846 -4.73165 0
M  V30 1457 H 135.11 -0.147304 -5.26394 0
M  V30 1458 H 137.601 -0.508528 -3.74463 0
M  V30 1459 H 137.914 -1.65612 -7.54846 0
M  V30 1460 H 136.259 -1.4826 -6.79002 0
M  V30 1461 H 139.45 -0.713293 -4.62633 0
M  V30 1462 H 139.623 -1.23638 -6.36096 0
M  V30 1463 N 133.029 1.57378 -0.0835403 0
M  V30 1464 C 134.275 1.94217 0.583733 0
M  V30 1465 C 134.608 0.964653 1.68547 0
M  V30 1466 O 133.883 -0.00422258 1.945 0
M  V30 1467 C 134.166 3.41253 1.14972 0
M  V30 1468 C 134.019 4.49768 0.0538277 0
M  V30 1469 C 135.338 3.89352 2.05166 0
M  V30 1470 H 132.457 0.706233 0.210724 0
M  V30 1471 H 135.099 1.89392 -0.1519 0
M  V30 1472 H 133.249 3.45496 1.77665 0
M  V30 1473 H 134.921 4.57641 -0.579851 0
M  V30 1474 H 133.164 4.29432 -0.614068 0
M  V30 1475 H 133.835 5.49817 0.490452 0
M  V30 1476 H 136.311 3.87189 1.52393 0
M  V30 1477 H 135.187 4.92822 2.41698 0
M  V30 1478 H 135.448 3.27973 2.96456 0
M  V30 1479 N 134.507 -0.190092 1.56449 0
M  V30 1480 C 135.754 -0.909705 1.80916 0
M  V30 1481 C 136.082 -1.83047 0.657583 0
M  V30 1482 O 135.337 -1.92428 -0.356356 0
M  V30 1483 C 135.636 -1.75382 3.1141 0
M  V30 1484 C 135.302 -0.983606 4.40041 0
M  V30 1485 C 133.964 -0.770967 4.74984 0
M  V30 1486 C 136.316 -0.442024 5.19322 0
M  V30 1487 C 133.644 -0.0053448 5.867 0
M  V30 1488 C 135.996 0.310412 6.31838 0
M  V30 1489 C 134.66 0.534023 6.6536 0
M  V30 1490 H 133.93 -0.332885 0.662019 0
M  V30 1491 H 136.577 -0.175762 1.90692 0
M  V30 1492 H 134.882 -2.55659 2.96893 0
M  V30 1493 H 136.579 -2.31331 3.27547 0
M  V30 1494 H 133.169 -1.15936 4.12622 0
M  V30 1495 H 137.353 -0.593693 4.92736 0
M  V30 1496 H 132.609 0.177825 6.11141 0
M  V30 1497 H 136.783 0.737419 6.92485 0
M  V30 1498 H 134.41 1.12918 7.51767 0
M  V30 1499 N 135.985 -1.50799 -0.457987 0
M  V30 1500 C 136.948 -1.7005 -1.53674 0
M  V30 1501 C 137.948 -0.570881 -1.50325 0
M  V30 1502 O 139.138 -0.838126 -1.52712 0
M  V30 1503 C 136.27 -1.73788 -2.93276 0
M  V30 1504 H 137.463 -2.66306 -1.37917 0
M  V30 1505 H 135.016 -1.40477 -0.685271 0
M  V30 1506 H 135.751 -0.792717 -3.14462 0
M  V30 1507 H 135.536 -2.55864 -2.97113 0
M  V30 1508 H 137.026 -1.90591 -3.71571 0
M  V30 1509 N 137.463 0.71206 -1.40597 0
M  V30 1510 C 138.396 1.83582 -1.35546 0
M  V30 1511 C 139.374 1.61032 -0.225284 0
M  V30 1512 O 140.558 1.83998 -0.409519 0
M  V30 1513 C 137.685 3.19983 -1.11034 0
M  V30 1514 C 136.731 3.61355 -2.2655 0
M  V30 1515 S 137.564 3.68062 -3.88961 0
M  V30 1516 C 138.72 5.07216 -3.66719 0
M  V30 1517 H 138.953 1.87586 -2.30648 0
M  V30 1518 H 136.486 0.879182 -1.26924 0
M  V30 1519 H 138.444 3.98734 -0.975761 0
M  V30 1520 H 137.105 3.13608 -0.175798 0
M  V30 1521 H 136.298 4.60403 -2.0505 0
M  V30 1522 H 135.9 2.8987 -2.36329 0
M  V30 1523 H 138.192 5.94238 -3.25404 0
M  V30 1524 H 139.135 5.33753 -4.6531 0
M  V30 1525 H 139.543 4.77976 -3.00332 0
M  V30 1526 N 138.941 1.26152 0.944643 0
M  V30 1527 C 139.891 1.04081 2.02857 0
M  V30 1528 C 140.875 -0.0256555 1.6088 0
M  V30 1529 O 142.067 0.190884 1.75968 0
M  V30 1530 C 139.196 0.672118 3.36656 0
M  V30 1531 C 138.282 1.77586 3.85128 0
M  V30 1532 N 138.673 3.01272 4.06287 0
M  V30 1533 C 136.971 1.65867 4.1401 0
M  V30 1534 C 137.672 3.72983 4.46384 0
M  V30 1535 N 136.648 3.00653 4.52889 0
M  V30 1536 H 140.45 1.97968 2.17223 0
M  V30 1537 H 137.964 1.16618 1.13022 0
M  V30 1538 H 139.961 0.495166 4.13949 0
M  V30 1539 H 138.621 -0.259307 3.23663 0
M  V30 1540 H 139.632 3.37213 3.93075 0
M  V30 1541 H 136.309 0.796907 4.09824 0
M  V30 1542 H 137.699 4.792 4.70975 0
M  V30 1543 N 140.419 -1.14872 1.07899 0
M  V30 1544 C 141.367 -2.21857 0.698727 0
M  V30 1545 C 142.361 -1.66845 -0.293086 0
M  V30 1546 O 143.567 -1.79321 -0.156204 0
M  V30 1547 H 139.942 -0.722691 0.207899 0
M  V30 1548 H 141.913 -2.51205 1.61054 0
M  V30 1549 C 140.662 -3.47498 0.11858 0
M  V30 1550 H 139.985 -3.90154 0.872914 0
M  V30 1551 H 141.425 -4.23858 -0.109759 0
M  V30 1552 C 139.884 -3.16947 -1.1422 0
M  V30 1553 O 140.414 -3.3426 -2.22785 0
M  V30 1554 N 138.62 -2.70946 -1.05055 0
M  V30 1555 H 138.167 -2.57058 -0.167038 0
M  V30 1556 H 138.125 -2.50879 -1.89491 0
M  V30 1557 N 141.898 -0.863906 -1.31812 0
M  V30 1558 C 143.146 -0.470904 -1.96537 0
M  V30 1559 C 143.467 0.978771 -1.68657 0
M  V30 1560 O 142.737 1.6853 -0.998717 0
M  V30 1561 H 141.317 -0.171148 -0.72713 0
M  V30 1562 H 143.979 -1.10236 -1.60729 0
M  V30 1563 H 143.075 -0.623616 -3.05806 0
M  V30 1564 N 143.376 1.44774 -0.622745 0
M  V30 1565 C 144.308 2.28856 0.125485 0
M  V30 1566 C 145.321 1.40811 0.817069 0
M  V30 1567 O 146.51 1.65044 0.679918 0
M  V30 1568 C 143.61 3.16963 1.19949 0
M  V30 1569 C 142.783 4.33374 0.592064 0
M  V30 1570 C 141.842 5.02577 1.55893 0
M  V30 1571 O 140.868 5.58873 1.07933 0
M  V30 1572 N 142.07 5.03256 2.89334 0
M  V30 1573 H 144.835 2.93713 -0.596068 0
M  V30 1574 H 142.396 1.55129 -0.463303 0
M  V30 1575 H 144.388 3.60123 1.84644 0
M  V30 1576 H 142.958 2.53913 1.82337 0
M  V30 1577 H 142.178 3.93509 -0.233322 0
M  V30 1578 H 143.466 5.08527 0.166738 0
M  V30 1579 H 142.864 4.58836 3.30887 0
M  V30 1580 H 141.421 5.50232 3.49412 0
M  V30 1581 N 144.854 0.36279 1.53368 0
M  V30 1582 C 145.817 -0.472679 2.24273 0
M  V30 1583 C 146.817 -1.012 1.24961 0
M  V30 1584 O 148.007 -0.898194 1.49259 0
M  V30 1585 C 145.139 -1.66039 2.97731 0
M  V30 1586 H 146.332 0.14773 2.99536 0
M  V30 1587 H 143.885 0.114434 1.55881 0
M  V30 1588 H 144.62 -2.31896 2.26704 0
M  V30 1589 H 144.405 -1.28066 3.70596 0
M  V30 1590 H 145.895 -2.25252 3.51641 0
M  V30 1591 N 146.332 -1.57332 0.0918853 0
M  V30 1592 C 147.562 -1.98286 -0.580205 0
M  V30 1593 C 147.97 -0.969713 -1.6246 0
M  V30 1594 O 147.313 0.0493501 -1.83634 0
M  V30 1595 C 147.375 -3.35603 -1.28882 0
M  V30 1596 C 147.039 -4.55285 -0.395559 0
M  V30 1597 C 148.036 -5.18687 0.355002 0
M  V30 1598 C 145.721 -5.01314 -0.314556 0
M  V30 1599 C 147.715 -6.26484 1.17458 0
M  V30 1600 C 145.402 -6.08979 0.508677 0
M  V30 1601 C 146.4 -6.71429 1.2519 0
M  V30 1602 O 146.088 -7.77018 2.06151 0
M  V30 1603 H 145.82 -0.656678 -0.160466 0
M  V30 1604 H 148.374 -2.04721 0.16688 0
M  V30 1605 H 146.604 -3.25842 -2.08241 0
M  V30 1606 H 148.293 -3.61026 -1.85512 0
M  V30 1607 H 149.059 -4.84058 0.302134 0
M  V30 1608 H 144.938 -4.5247 -0.882697 0
M  V30 1609 H 148.482 -6.75159 1.75518 0
M  V30 1610 H 144.379 -6.4304 0.563037 0
M  V30 1611 H 145.147 -7.93991 1.98799 0
M  V30 1612 N 147.81 0.181792 -1.56548 0
M  V30 1613 C 148.742 1.24956 -1.92142 0
M  V30 1614 C 149.755 1.41022 -0.813422 0
M  V30 1615 O 150.944 1.41212 -1.09186 0
M  V30 1616 C 148.044 2.61981 -2.14987 0
M  V30 1617 C 147.217 2.6735 -3.46183 0
M  V30 1618 C 146.276 3.85664 -3.5798 0
M  V30 1619 O 145.302 3.72148 -4.30691 0
M  V30 1620 N 146.504 5.01683 -2.92053 0
M  V30 1621 H 149.269 0.947329 -2.84334 0
M  V30 1622 H 146.83 0.371629 -1.57577 0
M  V30 1623 H 148.822 3.3958 -2.20154 0
M  V30 1624 H 147.392 2.84637 -1.2923 0
M  V30 1625 H 146.612 1.75925 -3.52766 0
M  V30 1626 H 147.9 2.67939 -4.32534 0
M  V30 1627 H 147.298 5.15564 -2.32832 0
M  V30 1628 H 145.855 5.77181 -3.0283 0
M  V30 1629 N 149.288 1.51039 0.449983 0
M  V30 1630 C 150.535 1.63081 1.20045 0
M  V30 1631 C 150.863 0.341024 1.91487 0
M  V30 1632 O 150.118 -0.674276 1.83717 0
M  V30 1633 C 150.417 2.77556 2.25161 0
M  V30 1634 C 150.083 4.17289 1.70823 0
M  V30 1635 C 148.745 4.55305 1.55725 0
M  V30 1636 C 151.097 5.04536 1.3074 0
M  V30 1637 C 148.425 5.78287 0.989999 0
M  V30 1638 C 150.777 6.28085 0.754482 0
M  V30 1639 C 149.441 6.64885 0.590308 0
M  V30 1640 H 148.711 0.596755 0.439277 0
M  V30 1641 H 151.358 1.85037 0.49333 0
M  V30 1642 H 149.663 2.49771 3.01863 0
M  V30 1643 H 151.36 2.84073 2.83026 0
M  V30 1644 H 147.95 3.8731 1.83546 0
M  V30 1645 H 152.134 4.75782 1.41229 0
M  V30 1646 H 147.39 6.05456 0.850451 0
M  V30 1647 H 151.564 6.95038 0.435324 0
M  V30 1648 H 149.191 7.60055 0.14862 0
M  V30 1649 N 150.766 -0.704594 1.40972 0
M  V30 1650 C 152.177 -1.28418 1.3552 0
M  V30 1651 C 152.528 -1.96171 0.0339434 0
M  V30 1652 O 151.653 -1.98231 -0.867944 0
M  V30 1653 C 152.248 -2.33528 2.45459 0
M  V30 1654 C 150.807 -2.87085 2.43433 0
M  V30 1655 C 149.954 -1.61007 2.2577 0
M  V30 1656 H 152.905 -0.499963 1.50619 0
M  V30 1657 H 152.926 -3.14619 2.13998 0
M  V30 1658 H 152.438 -1.84187 3.41609 0
M  V30 1659 H 150.539 -3.40626 1.51013 0
M  V30 1660 H 150.652 -3.3813 3.39419 0
M  V30 1661 H 149.016 -1.86482 1.73483 0
M  V30 1662 H 149.799 -1.13675 3.23933 0
M  V30 1663 N 152.244 -1.26651 -0.937939 0
M  V30 1664 C 153.177 -1.02811 -2.03728 0
M  V30 1665 C 154.155 0.0481915 -1.62529 0
M  V30 1666 O 155.339 -0.0948839 -1.88261 0
M  V30 1667 C 152.466 -0.557517 -3.3408 0
M  V30 1668 C 151.512 -1.62686 -3.94253 0
M  V30 1669 S 152.345 -3.21667 -4.28125 0
M  V30 1670 C 153.501 -2.76384 -5.61572 0
M  V30 1671 H 153.734 -1.95891 -2.23638 0
M  V30 1672 H 151.267 -1.10367 -1.07974 0
M  V30 1673 H 153.225 -0.292674 -4.09455 0
M  V30 1674 H 151.886 0.353062 -3.12109 0
M  V30 1675 H 151.079 -1.24866 -4.88287 0
M  V30 1676 H 150.681 -1.84324 -3.25424 0
M  V30 1677 H 152.973 -2.2105 -6.40424 0
M  V30 1678 H 153.916 -3.69123 -6.0428 0
M  V30 1679 H 154.324 -2.15847 -5.21604 0
M  V30 1680 N 153.722 1.14298 -1.08507 0
M  V30 1681 C 154.97 1.84993 -0.813763 0
M  V30 1682 C 155.291 1.83405 0.662393 0
M  V30 1683 O 154.561 1.28319 1.48024 0
M  V30 1684 H 153.141 0.684966 -0.298045 0
M  V30 1685 H 155.803 1.385 -1.37126 0
M  V30 1686 H 154.899 2.89788 -1.15884 0
M  V30 1687 N 155.201 0.870884 1.31352 0
M  V30 1688 C 156.131 0.343096 2.30966 0
M  V30 1689 C 157.112 -0.566507 1.60389 0
M  V30 1690 O 158.297 -0.483336 1.88089 0
M  V30 1691 C 155.427 -0.455487 3.443 0
M  V30 1692 C 154.381 0.361103 4.26474 0
M  V30 1693 C 153.707 -0.563221 5.31725 0
M  V30 1694 C 155.007 1.59566 4.97329 0
M  V30 1695 H 156.701 1.17548 2.75359 0
M  V30 1696 H 154.247 0.566686 1.32381 0
M  V30 1697 H 156.2 -0.83525 4.13039 0
M  V30 1698 H 154.924 -1.32139 2.98675 0
M  V30 1699 H 153.583 0.722825 3.59403 0
M  V30 1700 H 153.231 -1.42643 4.82351 0
M  V30 1701 H 152.931 -0.0207409 5.87596 0
M  V30 1702 H 154.455 -0.939808 6.03324 0
M  V30 1703 H 155.869 1.28728 5.58661 0
M  V30 1704 H 154.266 2.07728 5.63 0
M  V30 1705 H 155.336 2.34798 4.24262 0
M  V30 1706 N 156.679 -1.44442 0.630414 0
M  V30 1707 C 157.927 -2.01653 0.134351 0
M  V30 1708 C 158.248 -1.49836 -1.24796 0
M  V30 1709 O 157.518 -0.701684 -1.82902 0
M  V30 1710 H 156.098 -0.74554 0.0466769 0
M  V30 1711 H 158.76 -1.76952 0.816955 0
M  V30 1712 H 157.856 -3.11935 0.101498 0
M  V30 1713 N 158.157 -0.370918 -1.53173 0
M  V30 1714 C 159.087 0.464847 -2.28826 0
M  V30 1715 C 160.068 1.07936 -1.31468 0
M  V30 1716 O 161.253 1.0956 -1.60344 0
M  V30 1717 C 158.383 1.60196 -3.08147 0
M  V30 1718 C 157.337 1.11443 -4.13237 0
M  V30 1719 C 156.663 2.3422 -4.80672 0
M  V30 1720 C 157.963 0.195384 -5.21934 0
M  V30 1721 H 159.657 -0.166329 -2.98938 0
M  V30 1722 H 157.203 -0.0814359 -1.4377 0
M  V30 1723 H 159.156 2.19332 -3.59822 0
M  V30 1724 H 157.88 2.26045 -2.35735 0
M  V30 1725 H 156.539 0.545727 -3.62515 0
M  V30 1726 H 156.187 2.98537 -4.04827 0
M  V30 1727 H 155.887 2.02269 -5.51689 0
M  V30 1728 H 157.411 2.94032 -5.35143 0
M  V30 1729 H 158.825 0.694375 -5.69079 0
M  V30 1730 H 157.222 -0.0335027 -6.00091 0
M  V30 1731 H 158.292 -0.760961 -4.78892 0
M  V30 1732 N 159.635 1.57281 -0.100228 0
M  V30 1733 C 160.881 1.94826 0.563101 0
M  V30 1734 C 161.214 0.982475 1.67514 0
M  V30 1735 O 160.489 0.0164069 1.94493 0
M  V30 1736 C 160.772 3.42453 1.11346 0
M  V30 1737 C 160.625 4.498 0.00612081 0
M  V30 1738 C 161.944 3.91506 2.01024 0
M  V30 1739 H 159.063 0.708428 0.203221 0
M  V30 1740 H 161.705 1.8922 -0.171979 0
M  V30 1741 H 159.855 3.47361 1.7399 0
M  V30 1742 H 161.527 4.57 -0.628357 0
M  V30 1743 H 159.77 4.28756 -0.659581 0
M  V30 1744 H 160.441 5.50306 0.432109 0
M  V30 1745 H 162.917 3.88784 1.48278 0
M  V30 1746 H 161.793 4.95358 2.36457 0
M  V30 1747 H 162.054 3.31099 2.92961 0
M  V30 1748 N 161.113 -0.173488 1.56642 0
M  V30 1749 C 162.338 -0.910149 1.86363 0
M  V30 1750 C 162.763 -1.75132 0.686318 0
M  V30 1751 O 162.121 -1.77595 -0.364643 0
M  V30 1752 C 162.169 -1.76447 3.14482 0
M  V30 1753 O 161.273 -2.86584 2.96553 0
M  V30 1754 H 160.614 -0.255086 0.613047 0
M  V30 1755 H 163.144 -0.172283 2.03873 0
M  V30 1756 H 163.154 -2.16483 3.45831 0
M  V30 1757 H 161.829 -1.14658 3.99783 0
M  V30 1758 H 160.406 -2.50146 2.76553 0
M  V30 1759 N 162.591 -1.51276 -0.441967 0
M  V30 1760 C 163.523 -1.68444 -1.55433 0
M  V30 1761 C 164.536 -0.565187 -1.52674 0
M  V30 1762 O 165.725 -0.839356 -1.57534 0
M  V30 1763 C 162.825 -1.67966 -2.94348 0
M  V30 1764 C 161.998 -2.964 -3.21661 0
M  V30 1765 C 161.057 -2.88171 -4.40277 0
M  V30 1766 O 160.083 -3.62119 -4.39157 0
M  V30 1767 N 161.285 -2.03706 -5.43584 0
M  V30 1768 H 164.05 -2.644 -1.41112 0
M  V30 1769 H 161.611 -1.49104 -0.630838 0
M  V30 1770 H 163.603 -1.60035 -3.71713 0
M  V30 1771 H 162.173 -0.796225 -3.0229 0
M  V30 1772 H 161.393 -3.18234 -2.32638 0
M  V30 1773 H 162.681 -3.81427 -3.36736 0
M  V30 1774 H 162.079 -1.42995 -5.47329 0
M  V30 1775 H 160.636 -2.01658 -6.1982 0
M  V30 1776 N 164.069 0.697108 -1.41344 0
M  V30 1777 C 165.316 1.45714 -1.40619 0
M  V30 1778 C 165.644 1.94494 -0.0147907 0
M  V30 1779 O 164.899 1.69794 0.973066 0
M  V30 1780 C 165.198 2.68553 -2.35826 0
M  V30 1781 C 164.864 2.38438 -3.82698 0
M  V30 1782 C 163.526 2.29936 -4.22709 0
M  V30 1783 C 165.878 2.13567 -4.75435 0
M  V30 1784 C 163.206 1.94656 -5.53467 0
M  V30 1785 C 165.558 1.79797 -6.06511 0
M  V30 1786 C 164.222 1.69789 -6.45545 0
M  V30 1787 H 163.492 0.533206 -0.51456 0
M  V30 1788 H 166.139 0.796901 -1.74131 0
M  V30 1789 H 164.444 3.39503 -1.95563 0
M  V30 1790 H 166.141 3.2669 -2.32539 0
M  V30 1791 H 162.731 2.4595 -3.51008 0
M  V30 1792 H 166.915 2.19082 -4.45328 0
M  V30 1793 H 162.171 1.8546 -5.82593 0
M  V30 1794 H 166.345 1.59572 -6.77872 0
M  V30 1795 H 163.972 1.4222 -7.46778 0
M  V30 1796 N 165.547 1.27147 0.931209 0
M  V30 1797 C 166.794 1.13278 1.67852 0
M  V30 1798 C 167.122 -0.32204 1.91815 0
M  V30 1799 O 166.377 -1.25224 1.50391 0
M  V30 1800 C 166.676 1.8579 3.05314 0
M  V30 1801 C 166.342 3.35657 3.01073 0
M  V30 1802 C 165.004 3.76536 2.99623 0
M  V30 1803 C 167.356 4.31299 2.92627 0
M  V30 1804 C 164.684 5.11426 2.87506 0
M  V30 1805 C 167.036 5.66242 2.82051 0
M  V30 1806 C 165.7 6.06418 2.7895 0
M  V30 1807 H 164.97 0.414515 0.614214 0
M  V30 1808 H 167.617 1.57712 1.08624 0
M  V30 1809 H 165.922 1.33854 3.68226 0
M  V30 1810 H 167.619 1.72491 3.62005 0
M  V30 1811 H 164.209 3.03146 3.02986 0
M  V30 1812 H 168.393 4.00692 2.92848 0
M  V30 1813 H 163.649 5.41705 2.83489 0
M  V30 1814 H 167.823 6.40026 2.74481 0
M  V30 1815 H 165.45 7.10895 2.69318 0
M  V30 1816 N 167.025 -1.13721 1.09112 0
M  V30 1817 C 168.273 -1.84559 0.823562 0
M  V30 1818 C 168.594 -1.83754 -0.652658 0
M  V30 1819 O 167.864 -1.29102 -1.47342 0
M  V30 1820 H 166.444 -0.683376 0.301673 0
M  V30 1821 H 169.106 -1.37771 1.37859 0
M  V30 1822 H 168.202 -2.8917 1.17419 0
M  V30 1823 N 168.503 -0.877838 -1.30888 0
M  V30 1824 C 169.45 -0.337538 -2.28318 0
M  V30 1825 C 170.42 0.568346 -1.56074 0
M  V30 1826 O 171.605 0.498298 -1.84178 0
M  V30 1827 C 168.745 0.448142 -3.42178 0
M  V30 1828 C 167.858 -0.48615 -4.29256 0
M  V30 1829 C 166.993 0.314427 -5.30269 0
M  V30 1830 C 166.032 -0.615791 -6.08995 0
M  V30 1831 N 165.169 0.14902 -7.01942 0
M  V30 1832 H 170.009 -1.17356 -2.73919 0
M  V30 1833 H 167.546 -0.590094 -1.34745 0
M  V30 1834 H 169.504 0.919517 -4.06941 0
M  V30 1835 H 168.134 1.24879 -2.97666 0
M  V30 1836 H 167.186 -1.076 -3.64865 0
M  V30 1837 H 168.498 -1.19909 -4.84173 0
M  V30 1838 H 167.652 0.847969 -6.00745 0
M  V30 1839 H 166.391 1.06062 -4.76027 0
M  V30 1840 H 165.396 -1.16102 -5.37401 0
M  V30 1841 H 166.621 -1.36097 -6.65323 0
M  V30 1842 H 164.567 0.877884 -6.50099 0
M  V30 1843 H 164.484 -0.504433 -7.54315 0
M  V30 1844 H 165.752 0.663537 -7.76671 0
M  V30 1845 N 169.982 1.44106 -0.638065 0
M  V30 1846 C 171.212 2.06037 -0.152394 0
M  V30 1847 C 171.62 1.47808 1.18108 0
M  V30 1848 O 170.963 0.598092 1.73691 0
M  V30 1849 C 171.025 3.59488 0.0293714 0
M  V30 1850 C 170.689 4.4022 -1.22702 0
M  V30 1851 C 171.686 4.73256 -2.15232 0
M  V30 1852 C 169.371 4.8048 -1.46437 0
M  V30 1853 C 171.365 5.45444 -3.29802 0
M  V30 1854 C 169.052 5.52417 -2.61303 0
M  V30 1855 C 170.05 5.84819 -3.52811 0
M  V30 1856 O 169.738 6.55289 -4.65673 0
M  V30 1857 H 169.47 0.671233 -0.0801401 0
M  V30 1858 H 172.024 1.85851 -0.874563 0
M  V30 1859 H 170.254 3.78191 0.806758 0
M  V30 1860 H 171.943 4.03164 0.470475 0
M  V30 1861 H 172.709 4.42684 -1.98131 0
M  V30 1862 H 168.588 4.54676 -0.760977 0
M  V30 1863 H 172.132 5.70653 -4.01249 0
M  V30 1864 H 168.029 5.82404 -2.78344 0
M  V30 1865 H 168.797 6.73762 -4.64744 0
M  V30 1866 N 171.46 0.379036 1.52974 0
M  V30 1867 C 172.707 -0.206421 2.01445 0
M  V30 1868 C 173.035 -1.47668 1.26587 0
M  V30 1869 O 172.29 -1.92514 0.351675 0
M  V30 1870 C 172.589 -0.53096 3.53434 0
M  V30 1871 C 172.255 0.646546 4.46241 0
M  V30 1872 C 170.917 0.969604 4.7133 0
M  V30 1873 C 173.269 1.43479 5.01062 0
M  V30 1874 C 170.597 2.08263 5.48492 0
M  V30 1875 C 172.949 2.53834 5.7944 0
M  V30 1876 C 171.613 2.86659 6.02812 0
M  V30 1877 H 170.883 -0.0755349 0.73714 0
M  V30 1878 H 173.53 0.514271 1.84465 0
M  V30 1879 H 171.835 -1.33285 3.68432 0
M  V30 1880 H 173.532 -0.996417 3.88423 0
M  V30 1881 H 170.122 0.384734 4.2687 0
M  V30 1882 H 174.306 1.19844 4.81613 0
M  V30 1883 H 169.562 2.34078 5.64816 0
M  V30 1884 H 173.736 3.15319 6.20924 0
M  V30 1885 H 171.363 3.73026 6.62387 0
M  V30 1886 N 172.938 -1.57226 0.108567 0
M  V30 1887 C 174.166 -1.99179 -0.559954 0
M  V30 1888 C 174.581 -0.988022 -1.60884 0
M  V30 1889 O 173.938 0.0205512 -1.82488 0
M  V30 1890 C 173.989 -3.41159 -1.19552 0
M  V30 1891 O 173.71 -4.37694 -0.188577 0
M  V30 1892 C 175.211 -3.98188 -1.94837 0
M  V30 1893 H 172.431 -0.654228 -0.149088 0
M  V30 1894 H 174.975 -2.03598 0.19183 0
M  V30 1895 H 173.13 -3.37711 -1.89815 0
M  V30 1896 H 173.544 -5.20469 -0.649014 0
M  V30 1897 H 175.018 -4.99644 -2.34648 0
M  V30 1898 H 175.495 -3.3675 -2.81951 0
M  V30 1899 H 176.101 -4.0515 -1.2936 0
M  V30 1900 N 174.416 0.165178 -1.56732 0
M  V30 1901 C 175.827 0.727046 -1.71962 0
M  V30 1902 C 176.178 1.82508 -0.720078 0
M  V30 1903 O 175.303 2.16082 0.117242 0
M  V30 1904 C 175.898 1.32559 -3.11791 0
M  V30 1905 C 174.457 1.83422 -3.28684 0
M  V30 1906 C 173.604 0.715567 -2.67908 0
M  V30 1907 H 176.555 -0.0602896 -1.58585 0
M  V30 1908 H 176.576 2.19533 -3.10782 0
M  V30 1909 H 176.088 0.526195 -3.84516 0
M  V30 1910 H 174.189 2.65986 -2.60926 0
M  V30 1911 H 174.302 1.97543 -4.36478 0
M  V30 1912 H 172.666 1.13758 -2.27884 0
M  V30 1913 H 173.449 -0.0720836 -3.43224 0
M  V30 1914 N 175.894 1.51508 0.433938 0
M  V30 1915 C 176.804 1.75917 1.5521 0
M  V30 1916 C 177.82 0.643545 1.61662 0
M  V30 1917 O 178.996 0.926183 1.7884 0
M  V30 1918 C 176.061 1.88213 2.91164 0
M  V30 1919 C 175.122 3.12074 2.94802 0
M  V30 1920 C 174.355 3.23774 4.24271 0
M  V30 1921 O 174.578 2.4133 5.16833 0
M  V30 1922 O 173.512 4.16774 4.34262 0
M  V30 1923 H 177.338 2.70777 1.37527 0
M  V30 1924 H 174.923 1.36051 0.617293 0
M  V30 1925 H 176.805 1.98267 3.71845 0
M  V30 1926 H 175.48 0.965413 3.08968 0
M  V30 1927 H 174.387 3.07497 2.13065 0
M  V30 1928 H 175.72 4.03446 2.81943 0
M  V30 1929 N 177.372 -0.689602 1.41712 0
M  V30 1930 C 178.304 -1.815 1.39966 0
M  V30 1931 C 179.317 -1.59995 0.300917 0
M  V30 1932 O 180.506 -1.69387 0.563039 0
M  V30 1933 C 177.606 -3.18364 1.16179 0
M  V30 1934 C 176.779 -3.66847 2.38206 0
M  V30 1935 C 175.838 -4.82398 2.10186 0
M  V30 1936 O 174.864 -4.93706 2.83272 0
M  V30 1937 N 176.066 -5.70064 1.0958 0
M  V30 1938 H 178.831 -1.83488 2.36965 0
M  V30 1939 H 176.392 -0.872149 1.36401 0
M  V30 1940 H 178.384 -3.93301 0.953756 0
M  V30 1941 H 176.954 -3.11365 0.27756 0
M  V30 1942 H 176.174 -2.82751 2.74673 0
M  V30 1943 H 177.462 -3.95978 3.19498 0
M  V30 1944 H 176.86 -5.63565 0.491019 0
M  V30 1945 H 175.417 -6.44874 0.947656 0
M  V30 1946 N 178.85 -1.27639 -0.924453 0
M  V30 1947 C 179.813 -1.10681 -2.00705 0
M  V30 1948 C 180.813 -0.0497823 -1.60723 0
M  V30 1949 O 182.003 -0.294654 -1.7169 0
M  V30 1950 C 179.135 -0.687164 -3.33902 0
M  V30 1951 H 180.328 -2.06817 -2.17179 0
M  V30 1952 H 177.881 -1.10473 -1.10569 0
M  V30 1953 H 178.616 0.275439 -3.23128 0
M  V30 1954 H 178.401 -1.45061 -3.6428 0
M  V30 1955 H 179.891 -0.590853 -4.13399 0
M  V30 1956 N 180.328 1.1314 -1.09713 0
M  V30 1957 C 181.744 1.36477 -0.827423 0
M  V30 1958 C 181.944 1.93654 0.556817 0
M  V30 1959 O 181 2.15791 1.31112 0
M  V30 1960 C 182.313 2.31334 -1.92106 0
M  V30 1961 C 183.861 2.44943 -1.94864 0
M  V30 1962 C 184.336 3.4311 -3.0338 0
M  V30 1963 N 185.827 3.50662 -3.02639 0
M  V30 1964 C 186.562 4.2651 -3.83246 0
M  V30 1965 N 186.058 5.05485 -4.73768 0
M  V30 1966 N 187.851 4.2184 -3.71493 0
M  V30 1967 H 180.002 0.743807 -1.9895 0
M  V30 1968 H 182.265 0.389823 -0.864143 0
M  V30 1969 H 181.971 1.96483 -2.91698 0
M  V30 1970 H 181.845 3.31381 -1.80184 0
M  V30 1971 H 184.232 2.79079 -0.959099 0
M  V30 1972 H 184.313 1.4481 -2.10864 0
M  V30 1973 H 183.957 3.09704 -4.02549 0
M  V30 1974 H 183.887 4.43055 -2.84622 0
M  V30 1975 H 186.378 2.94315 -2.37039 0
M  V30 1976 H 186.691 5.60675 -5.3185 0
M  V30 1977 H 185.036 5.04708 -4.77802 0
M  V30 1978 H 188.227 3.5922 -3.00131 0
M  V30 1979 H 188.4 4.80697 -4.3455 0
M  V30 1980 N 181.806 0.884767 1.30421 0
M  V30 1981 C 182.738 0.308655 2.27112 0
M  V30 1982 C 183.751 -0.536655 1.53701 0
M  V30 1983 O 184.94 -0.35624 1.74909 0
M  V30 1984 C 182.04 -0.579782 3.33904 0
M  V30 1985 C 181.213 0.236417 4.36761 0
M  V30 1986 C 180.272 -0.582482 5.22966 0
M  V30 1987 O 179.298 -0.00525502 5.692 0
M  V30 1988 N 180.5 -1.89163 5.48815 0
M  V30 1989 H 183.265 1.13964 2.77186 0
M  V30 1990 H 180.826 0.747731 1.43599 0
M  V30 1991 H 182.818 -1.13366 3.88497 0
M  V30 1992 H 181.388 -1.31144 2.83761 0
M  V30 1993 H 180.608 0.97174 3.82035 0
M  V30 1994 H 181.896 0.795924 5.02536 0
M  V30 1995 H 181.294 -2.38352 5.13035 0
M  V30 1996 H 179.851 -2.39296 6.06284 0
M  V30 1997 N 183.284 -1.43765 0.645699 0
M  V30 1998 C 184.214 -2.33471 -0.0370477 0
M  V30 1999 C 185.195 -1.49042 -0.819779 0
M  V30 2000 O 186.38 -1.77726 -0.782758 0
M  V30 2001 C 183.51 -3.32311 -1.0093 0
M  V30 2002 C 182.464 -4.2667 -0.337201 0
M  V30 2003 C 181.79 -5.1549 -1.42037 0
M  V30 2004 C 183.09 -5.16657 0.765706 0
M  V30 2005 H 184.784 -2.90809 0.712069 0
M  V30 2006 H 182.33 -1.39834 0.343876 0
M  V30 2007 H 184.283 -3.9396 -1.49578 0
M  V30 2008 H 183.007 -2.73213 -1.78948 0
M  V30 2009 H 181.666 -3.66374 0.128771 0
M  V30 2010 H 181.314 -4.52735 -2.1918 0
M  V30 2011 H 181.014 -5.79438 -0.975966 0
M  V30 2012 H 182.538 -5.80012 -1.90838 0
M  V30 2013 H 183.952 -5.72158 0.361702 0
M  V30 2014 H 182.349 -5.89286 1.13413 0
M  V30 2015 H 183.419 -4.56796 1.62683 0
M  V30 2016 N 184.763 -0.387143 -1.52771 0
M  V30 2017 C 186.012 0.19697 -2.00736 0
M  V30 2018 C 186.325 1.48082 -1.27793 0
M  V30 2019 O 187.531 2.14485 -1.66458 0
M  V30 2020 C 185.987 0.401568 -3.57653 0
M  V30 2021 C 185.595 -0.868907 -4.39493 0
M  V30 2022 C 187.339 0.942164 -4.13912 0
M  V30 2023 C 185.246 -0.632705 -5.88006 0
M  V30 2024 H 184.176 0.0773827 -0.750019 0
M  V30 2025 H 186.827 -0.50921 -1.76293 0
M  V30 2026 H 185.209 1.16954 -3.78335 0
M  V30 2027 H 186.383 -1.64133 -4.30577 0
M  V30 2028 H 184.698 -1.33429 -3.94443 0
M  V30 2029 H 187.295 1.13455 -5.22525 0
M  V30 2030 H 187.638 1.9106 -3.69867 0
M  V30 2031 H 188.171 0.233814 -3.97112 0
M  V30 2032 H 184.91 -1.57208 -6.36369 0
M  V30 2033 H 184.43 0.100825 -5.99715 0
M  V30 2034 H 186.109 -0.26642 -6.46451 0
M  V30 2035 N 186.241 1.57166 -0.116904 0
M  V30 2036 C 187.204 2.14039 0.819742 0
M  V30 2037 C 188.204 1.07477 1.19605 0
M  V30 2038 O 189.394 1.33263 1.1219 0
M  V30 2039 C 186.526 2.67891 2.10826 0
M  V30 2040 H 187.719 2.98128 0.325511 0
M  V30 2041 H 185.272 1.55739 0.132312 0
M  V30 2042 H 186.007 1.87384 2.64685 0
M  V30 2043 H 185.792 3.45823 1.84793 0
M  V30 2044 H 187.282 3.11809 2.77785 0
M  V30 2045 N 187.719 -0.156864 1.56817 0
M  V30 2046 C 188.629 -1.2136 2.00771 0
M  V30 2047 C 189.645 -1.47598 0.921459 0
M  V30 2048 O 190.821 -1.59462 1.2302 0
M  V30 2049 C 187.886 -2.52943 2.37109 0
M  V30 2050 C 186.947 -2.34439 3.59634 0
M  V30 2051 C 186.18 -3.59748 3.94229 0
M  V30 2052 O 186.403 -4.65526 3.29609 0
M  V30 2053 O 185.337 -3.52998 4.8752 0
M  V30 2054 H 189.163 -0.870468 2.90958 0
M  V30 2055 H 186.748 -0.36484 1.44877 0
M  V30 2056 H 188.63 -3.30538 2.61386 0
M  V30 2057 H 187.305 -2.86806 1.5008 0
M  V30 2058 H 186.212 -1.54828 3.40557 0
M  V30 2059 H 187.545 -2.05496 4.4725 0
M  V30 2060 N 189.197 -1.51736 -0.425897 0
M  V30 2061 C 190.129 -1.70083 -1.53638 0
M  V30 2062 C 191.142 -0.581349 -1.52066 0
M  V30 2063 O 192.331 -0.856017 -1.56635 0
M  V30 2064 C 189.431 -1.71078 -2.9255 0
M  V30 2065 C 188.604 -2.99795 -3.185 0
M  V30 2066 C 187.663 -2.92825 -4.37196 0
M  V30 2067 O 186.689 -3.66756 -4.35291 0
M  V30 2068 N 187.891 -2.0946 -5.41393 0
M  V30 2069 H 190.656 -2.65882 -1.383 0
M  V30 2070 H 188.217 -1.49765 -0.614988 0
M  V30 2071 H 190.209 -1.63969 -3.69995 0
M  V30 2072 H 188.779 -0.828242 -3.01428 0
M  V30 2073 H 187.999 -3.20684 -2.2925 0
M  V30 2074 H 189.287 -3.84977 -3.32671 0
M  V30 2075 H 188.685 -1.48792 -5.45781 0
M  V30 2076 H 187.242 -2.08221 -6.17647 0
M  V30 2077 N 190.675 0.682077 -1.42076 0
M  V30 2078 C 191.638 1.77756 -1.44691 0
M  V30 2079 C 192.638 1.5726 -0.335535 0
M  V30 2080 O 193.828 1.63686 -0.596037 0
M  V30 2081 C 190.96 3.16301 -1.27146 0
M  V30 2082 H 192.153 1.76826 -2.42224 0
M  V30 2083 H 189.706 0.891012 -1.28416 0
M  V30 2084 H 190.441 3.22862 -0.305075 0
M  V30 2085 H 190.226 3.32581 -2.07683 0
M  V30 2086 H 191.716 3.96241 -1.31843 0
M  V30 2087 N 192.153 1.28127 0.917671 0
M  V30 2088 C 193.116 1.11744 2.00115 0
M  V30 2089 C 194.116 0.0583052 1.60694 0
M  V30 2090 O 195.306 0.303755 1.71531 0
M  V30 2091 C 192.438 0.704862 3.33533 0
M  V30 2092 H 193.631 2.07966 2.16079 0
M  V30 2093 H 191.184 1.11058 1.09981 0
M  V30 2094 H 191.919 -0.258299 3.2327 0
M  V30 2095 H 191.704 1.4699 3.63505 0
M  V30 2096 H 193.194 0.612768 4.1308 0
M  V30 2097 N 193.631 -1.12557 1.10312 0
M  V30 2098 C 194.541 -2.21841 0.763142 0
M  V30 2099 C 195.557 -1.72354 -0.238801 0
M  V30 2100 O 196.733 -2.01249 -0.0778746 0
M  V30 2101 C 193.798 -3.46131 0.198632 0
M  V30 2102 C 192.859 -4.10464 1.25769 0
M  V30 2103 C 192.092 -5.28821 0.72002 0
M  V30 2104 O 192.315 -5.6859 -0.453993 0
M  V30 2105 O 191.249 -5.83437 1.47935 0
M  V30 2106 H 195.075 -2.53312 1.67532 0
M  V30 2107 H 192.66 -1.20867 0.878157 0
M  V30 2108 H 194.542 -4.2125 -0.112401 0
M  V30 2109 H 193.217 -3.16338 -0.686419 0
M  V30 2110 H 192.124 -3.3713 1.62156 0
M  V30 2111 H 193.457 -4.44408 2.11571 0
M  V30 2112 N 195.109 -0.891671 -1.2995 0
M  V30 2113 C 196.358 -0.509521 -1.95158 0
M  V30 2114 C 196.671 0.947388 -1.71125 0
M  V30 2115 O 197.877 1.43669 -2.30372 0
M  V30 2116 C 196.333 -0.860315 -3.49466 0
M  V30 2117 C 195.941 -2.33545 -3.8231 0
M  V30 2118 C 197.685 -0.547687 -4.20952 0
M  V30 2119 C 195.592 -2.62752 -5.29826 0
M  V30 2120 H 194.522 -0.18682 -0.730489 0
M  V30 2121 H 197.173 -1.08756 -1.47798 0
M  V30 2122 H 195.555 -0.211285 -3.95436 0
M  V30 2123 H 196.729 -3.02936 -3.47227 0
M  V30 2124 H 195.044 -2.61629 -3.23944 0
M  V30 2125 H 197.641 -0.742854 -5.29515 0
M  V30 2126 H 197.984 0.51332 -4.13123 0
M  V30 2127 H 198.517 -1.1542 -3.80688 0
M  V30 2128 H 195.256 -3.6762 -5.42712 0
M  V30 2129 H 194.776 -1.97977 -5.66185 0
M  V30 2130 H 196.455 -2.48601 -5.97333 0
M  V30 2131 N 196.587 1.43421 -0.653314 0
M  V30 2132 C 197.864 1.95361 -0.0966581 0
M  V30 2133 C 198.244 1.59461 1.38331 0
M  V30 2134 O 197.592 0.879777 2.10884 0
M  V30 2135 C 197.802 3.47311 -0.342988 0
M  V30 2136 C 199.15 4.23875 -0.24798 0
M  V30 2137 O 200.174 3.55133 -0.275553 0
M  V30 2138 O 199.033 5.4623 -0.171771 0
M  V30 2139 H 196.127 0.826945 0.00956291 0
M  V30 2140 H 198.673 1.5336 -0.726558 0
M  V30 2141 H 197.445 3.66569 -1.36906 0
M  V30 2142 H 197.068 3.9631 0.319975 0
M  V30 2143 N 198.065 0.39524 1.52563 0
M  V30 2144 C 199.293 -0.184943 2.06072 0
M  V30 2145 C 199.708 -1.40021 1.26647 0
M  V30 2146 O 199.065 -1.79767 0.314672 0
M  V30 2147 C 199.116 -0.549179 3.57304 0
M  V30 2148 O 198.837 0.617813 4.33722 0
M  V30 2149 C 200.338 -1.18459 4.2718 0
M  V30 2150 H 197.558 -0.0265025 0.670476 0
M  V30 2151 H 200.102 0.562184 1.96621 0
M  V30 2152 H 198.257 -1.2462 3.66809 0
M  V30 2153 H 198.671 0.317091 5.23541 0
M  V30 2154 H 200.145 -1.38976 5.34219 0
M  V30 2155 H 200.622 -2.15368 3.82771 0
M  V30 2156 H 201.228 -0.528163 4.22008 0
M  V30 2157 N 199.544 -1.57102 0.125237 0
M  V30 2158 C 200.507 -2.14471 -0.80838 0
M  V30 2159 C 201.507 -1.0811 -1.19033 0
M  V30 2160 O 202.697 -1.33856 -1.11482 0
M  V30 2161 C 199.829 -2.69005 -2.09402 0
M  V30 2162 H 201.022 -2.98297 -0.309696 0
M  V30 2163 H 198.575 -1.55807 -0.124051 0
M  V30 2164 H 199.31 -1.88785 -2.63687 0
M  V30 2165 H 199.095 -3.46799 -1.82957 0
M  V30 2166 H 200.585 -3.13278 -2.76128 0
M  V30 2167 N 201.022 0.148545 -1.56898 0
M  V30 2168 C 202.299 0.890019 -1.74178 0
M  V30 2169 C 202.679 1.99407 -0.692839 0
M  V30 2170 O 202.027 2.26671 0.288505 0
M  V30 2171 C 202.237 1.43389 -3.18183 0
M  V30 2172 C 203.585 1.89791 -3.79822 0
M  V30 2173 O 204.609 1.53134 -3.21603 0
M  V30 2174 O 203.468 2.57387 -4.82093 0
M  V30 2175 H 200.562 0.420496 -0.712118 0
M  V30 2176 H 203.108 0.134591 -1.69165 0
M  V30 2177 H 201.88 0.640383 -3.86024 0
M  V30 2178 H 201.503 2.25287 -3.27615 0
M  V30 2179 N 202.5 1.5196 0.417844 0
M  V30 2180 C 203.463 1.74065 1.49111 0
M  V30 2181 C 204.463 0.610537 1.48758 0
M  V30 2182 O 205.653 0.87832 1.50437 0
M  V30 2183 C 202.785 1.81502 2.88565 0
M  V30 2184 H 203.978 2.69869 1.30807 0
M  V30 2185 H 201.531 1.42244 0.647785 0
M  V30 2186 H 202.266 0.875813 3.1225 0
M  V30 2187 H 202.051 2.63651 2.90225 0
M  V30 2188 H 203.541 2.00376 3.66387 0
M  V30 2189 N 203.978 -0.674533 1.42435 0
M  V30 2190 C 204.91 -1.80005 1.41883 0
M  V30 2191 C 205.923 -1.59667 0.31787 0
M  V30 2192 O 207.112 -1.68781 0.580973 0
M  V30 2193 C 204.212 -3.17114 1.19549 0
M  V30 2194 C 203.385 -3.64299 2.42084 0
M  V30 2195 C 202.444 -4.80142 2.15291 0
M  V30 2196 O 201.47 -4.90673 2.88493 0
M  V30 2197 N 202.672 -5.68869 1.1562 0
M  V30 2198 H 205.437 -1.80964 2.38898 0
M  V30 2199 H 202.998 -0.857633 1.37318 0
M  V30 2200 H 204.99 -3.92267 0.995417 0
M  V30 2201 H 203.56 -3.11053 0.310569 0
M  V30 2202 H 202.78 -2.79822 2.77657 0
M  V30 2203 H 204.068 -3.92567 3.23679 0
M  V30 2204 H 203.466 -5.63012 0.550765 0
M  V30 2205 H 202.023 -6.43833 1.016 0
M  V30 2206 N 205.456 -1.28612 -0.910864 0
M  V30 2207 C 206.404 -1.1265 -2.03501 0
M  V30 2208 C 207.398 -0.0450054 -1.6934 0
M  V30 2209 O 208.604 -0.203988 -1.7884 0
M  V30 2210 H 204.979 -0.347639 -0.666822 0
M  V30 2211 H 206.95 -2.07849 -2.14106 0
M  V30 2212 C 205.699 -0.808143 -3.38178 0
M  V30 2213 H 205.022 -1.63231 -3.6496 0
M  V30 2214 H 206.462 -0.736426 -4.17556 0
M  V30 2215 C 204.921 0.488226 -3.33344 0
M  V30 2216 O 205.451 1.51766 -3.71927 0
M  V30 2217 N 203.657 0.490009 -2.86439 0
M  V30 2218 H 203.204 -0.348161 -2.55236 0
M  V30 2219 H 203.162 1.35741 -2.83587 0
M  V30 2220 N 206.934 1.1197 -1.10907 0
M  V30 2221 C 207.864 2.19928 -0.784473 0
M  V30 2222 C 208.845 1.6833 0.244726 0
M  V30 2223 O 210.03 1.93892 0.109418 0
M  V30 2224 C 207.16 3.46597 -0.220827 0
M  V30 2225 C 206.114 4.11376 -1.18127 0
M  V30 2226 C 205.44 5.32554 -0.478594 0
M  V30 2227 C 206.74 4.56945 -2.52979 0
M  V30 2228 H 208.434 2.47337 -1.68715 0
M  V30 2229 H 205.98 1.18879 -0.812642 0
M  V30 2230 H 207.933 4.21396 0.0184278 0
M  V30 2231 H 206.657 3.1863 0.717113 0
M  V30 2232 H 205.316 3.38564 -1.40606 0
M  V30 2233 H 204.964 5.00856 0.463976 0
M  V30 2234 H 204.664 5.76844 -1.11912 0
M  V30 2235 H 206.188 6.10096 -0.248 0
M  V30 2236 H 207.602 5.23093 -2.3462 0
M  V30 2237 H 205.999 5.1203 -3.12962 0
M  V30 2238 H 207.069 3.70676 -3.12614 0
M  V30 2239 N 208.412 0.89855 1.29475 0
M  V30 2240 C 209.322 0.379974 2.31502 0
M  V30 2241 C 210.338 -0.524695 1.659 0
M  V30 2242 O 211.514 -0.414551 1.97087 0
M  V30 2243 C 208.579 -0.385138 3.44554 0
M  V30 2244 C 207.64 0.550914 4.2575 0
M  V30 2245 C 206.873 -0.177778 5.33404 0
M  V30 2246 O 207.096 -1.40189 5.52904 0
M  V30 2247 O 206.03 0.479106 5.9999 0
M  V30 2248 H 209.856 1.22639 2.77837 0
M  V30 2249 H 207.441 0.662834 1.33891 0
M  V30 2250 H 209.323 -0.817841 4.13388 0
M  V30 2251 H 207.998 -1.20763 3.0033 0
M  V30 2252 H 206.905 1.03271 3.59564 0
M  V30 2253 H 208.238 1.33979 4.73614 0
M  V30 2254 N 209.89 -1.43072 0.660911 0
M  V30 2255 C 210.8 -2.34585 -0.0264163 0
M  V30 2256 C 211.816 -1.54316 -0.803898 0
M  V30 2257 O 212.992 -1.86939 -0.749391 0
M  V30 2258 C 210.057 -3.32689 -0.975639 0
M  V30 2259 C 209.118 -4.2886 -0.194236 0
M  V30 2260 C 208.351 -5.22278 -1.09825 0
M  V30 2261 O 208.574 -5.20299 -2.33763 0
M  V30 2262 O 207.508 -5.99228 -0.566513 0
M  V30 2263 H 211.334 -2.94869 0.727034 0
M  V30 2264 H 208.919 -1.43342 0.42111 0
M  V30 2265 H 210.801 -3.92995 -1.52094 0
M  V30 2266 H 209.476 -2.74898 -1.70918 0
M  V30 2267 H 208.383 -3.72011 0.394835 0
M  V30 2268 H 209.716 -4.89655 0.499899 0
M  V30 2269 N 211.368 -0.403325 -1.52352 0
M  V30 2270 C 212.315 0.425011 -2.26853 0
M  V30 2271 C 213.285 1.04598 -1.29029 0
M  V30 2272 O 214.47 1.07135 -1.57882 0
M  V30 2273 C 211.61 1.53888 -3.08889 0
M  V30 2274 C 210.723 0.939396 -4.21663 0
M  V30 2275 C 209.858 2.02547 -4.91068 0
M  V30 2276 C 208.897 1.40263 -5.95813 0
M  V30 2277 N 208.034 2.4286 -6.58759 0
M  V30 2278 H 212.874 -0.21674 -2.97211 0
M  V30 2279 H 210.411 -0.118722 -1.4662 0
M  V30 2280 H 212.369 2.19558 -3.54753 0
M  V30 2281 H 210.999 2.15074 -2.40714 0
M  V30 2282 H 210.051 0.171898 -3.80011 0
M  V30 2283 H 211.363 0.44436 -4.96817 0
M  V30 2284 H 210.517 2.75958 -5.40308 0
M  V30 2285 H 209.256 2.55415 -4.15469 0
M  V30 2286 H 208.261 0.653833 -5.45898 0
M  V30 2287 H 209.486 0.881719 -6.73352 0
M  V30 2288 H 207.432 2.94871 -5.85992 0
M  V30 2289 H 207.349 1.98152 -7.2957 0
M  V30 2290 H 208.617 3.15858 -7.12639 0
M  V30 2291 N 212.846 1.57033 -0.133567 0
M  V30 2292 C 213.809 2.14897 0.796995 0
M  V30 2293 C 214.809 1.0874 1.18458 0
M  V30 2294 O 215.999 1.34446 1.1077 0
M  V30 2295 C 213.131 2.70112 2.07973 0
M  V30 2296 H 214.324 2.98457 0.293873 0
M  V30 2297 H 211.877 1.55871 0.115787 0
M  V30 2298 H 212.612 1.9018 2.62682 0
M  V30 2299 H 212.397 3.47764 1.81115 0
M  V30 2300 H 213.887 3.14738 2.74462 0
M  V30 2301 N 214.325 -0.140222 1.56975 0
M  V30 2302 C 215.574 -0.850152 1.82908 0
M  V30 2303 C 215.887 -1.82028 0.715892 0
M  V30 2304 O 217.093 -2.57485 0.861016 0
M  V30 2305 C 215.549 -1.5625 3.24213 0
M  V30 2306 C 215.157 -0.63443 4.43485 0
M  V30 2307 C 216.901 -2.25881 3.59413 0
M  V30 2308 C 214.808 -1.34879 5.75814 0
M  V30 2309 H 213.738 -0.321221 0.682153 0
M  V30 2310 H 216.389 -0.102874 1.83211 0
M  V30 2311 H 214.771 -2.35565 3.18316 0
M  V30 2312 H 215.945 0.12398 4.60633 0
M  V30 2313 H 214.26 -0.0461836 4.16374 0
M  V30 2314 H 216.857 -2.79978 4.5554 0
M  V30 2315 H 217.2 -3.02693 2.85802 0
M  V30 2316 H 217.733 -1.53477 3.67001 0
M  V30 2317 H 214.472 -0.622385 6.52539 0
M  V30 2318 H 213.992 -2.07974 5.6259 0
M  V30 2319 H 215.671 -1.88784 6.18845 0
M  V30 2320 N 215.803 -1.52179 -0.40978 0
M  V30 2321 C 217.028 -1.70347 -1.18308 0
M  V30 2322 C 217.453 -0.411887 -1.83535 0
M  V30 2323 O 216.811 0.630587 -1.6998 0
M  V30 2324 C 216.859 -2.83977 -2.22238 0
M  V30 2325 O 215.963 -2.495 -3.28365 0
M  V30 2326 H 215.304 -0.567103 -0.345384 0
M  V30 2327 H 217.834 -1.98879 -0.480445 0
M  V30 2328 H 217.844 -3.0887 -2.66577 0
M  V30 2329 H 216.519 -3.77685 -1.74146 0
M  V30 2330 H 215.096 -2.35277 -2.89308 0
M  V30 2331 N 217.281 0.66697 -1.42791 0
M  V30 2332 C 218.211 1.79218 -1.49677 0
M  V30 2333 C 219.192 1.66405 -0.352623 0
M  V30 2334 O 220.377 1.85708 -0.567993 0
M  V30 2335 C 217.507 3.17565 -1.40605 0
M  V30 2336 C 216.461 3.45124 -2.53127 0
M  V30 2337 C 215.787 4.83127 -2.29112 0
M  V30 2338 C 217.087 3.41236 -3.95418 0
M  V30 2339 H 218.781 1.73713 -2.43853 0
M  V30 2340 H 216.327 0.83432 -1.17367 0
M  V30 2341 H 218.28 3.96022 -1.44029 0
M  V30 2342 H 217.004 3.23767 -0.429271 0
M  V30 2343 H 215.663 2.69031 -2.49034 0
M  V30 2344 H 215.311 4.85988 -1.29709 0
M  V30 2345 H 215.011 5.02528 -3.04531 0
M  V30 2346 H 216.535 5.63859 -2.34297 0
M  V30 2347 H 217.949 4.09651 -4.01073 0
M  V30 2348 H 216.346 3.72173 -4.70752 0
M  V30 2349 H 217.416 2.39665 -4.21532 0
M  V30 2350 N 218.759 1.29093 0.90403 0
M  V30 2351 C 220.008 1.16187 1.64874 0
M  V30 2352 C 220.321 -0.286742 1.93487 0
M  V30 2353 O 221.527 -0.537062 2.66135 0
M  V30 2354 C 219.983 2.03177 2.97064 0
M  V30 2355 C 219.591 3.52836 2.76062 0
M  V30 2356 C 221.335 1.98984 3.74974 0
M  V30 2357 C 219.242 4.31945 4.03952 0
M  V30 2358 H 218.172 0.431246 0.618501 0
M  V30 2359 H 220.823 1.53699 1.00243 0
M  V30 2360 H 219.205 1.5853 3.62883 0
M  V30 2361 H 220.379 4.05507 2.18863 0
M  V30 2362 H 218.694 3.58656 2.11553 0
M  V30 2363 H 221.291 2.55351 4.69787 0
M  V30 2364 H 221.634 0.968815 4.0487 0
M  V30 2365 H 222.167 2.41652 3.15989 0
M  V30 2366 H 218.906 5.34667 3.79225 0
M  V30 2367 H 218.426 3.84045 4.60727 0
M  V30 2368 H 220.105 4.42379 4.72133 0
M  V30 2369 N 220.237 -1.11381 1.11499 0
M  V30 2370 C 221.485 -1.8277 0.862524 0
M  V30 2371 C 221.806 -1.85097 -0.613534 0
M  V30 2372 O 221.076 -1.32198 -1.4457 0
M  V30 2373 H 219.656 -0.676823 0.316101 0
M  V30 2374 H 222.318 -1.34816 1.4075 0
M  V30 2375 H 221.414 -2.86614 1.23527 0
M  V30 2376 N 221.715 -0.905404 -1.28997 0
M  V30 2377 C 223.131 -0.60233 -1.47798 0
M  V30 2378 C 223.331 0.854645 -1.82478 0
M  V30 2379 O 222.387 1.63439 -1.92468 0
M  V30 2380 C 223.7 -1.53306 -2.58685 0
M  V30 2381 C 225.248 -1.53887 -2.72558 0
M  V30 2382 C 225.723 -2.45602 -3.86579 0
M  V30 2383 N 227.214 -2.43681 -3.93921 0
M  V30 2384 C 227.949 -3.11347 -4.81509 0
M  V30 2385 N 227.445 -3.88313 -5.73746 0
M  V30 2386 N 229.238 -3.00476 -4.75048 0
M  V30 2387 H 221.389 -1.84765 -1.04764 0
M  V30 2388 H 223.652 -0.792025 -0.520961 0
M  V30 2389 H 223.358 -2.57141 -2.39941 0
M  V30 2390 H 223.232 -1.25787 -3.55609 0
M  V30 2391 H 225.619 -0.507941 -2.90696 0
M  V30 2392 H 225.7 -1.85447 -1.76191 0
M  V30 2393 H 225.344 -3.48792 -3.69197 0
M  V30 2394 H 225.274 -2.11349 -4.82327 0
M  V30 2395 H 227.765 -1.87767 -3.27951 0
M  V30 2396 H 228.078 -4.36985 -6.37389 0
M  V30 2397 H 226.423 -3.92419 -5.73614 0
M  V30 2398 H 229.614 -2.39858 -4.01977 0
M  V30 2399 H 229.787 -3.53485 -5.43095 0
M  V30 2400 N 223.193 1.4272 -0.668489 0
M  V30 2401 C 224.604 1.84793 -0.266151 0
M  V30 2402 C 224.955 1.55959 1.19043 0
M  V30 2403 O 224.08 1.01622 1.91055 0
M  V30 2404 C 224.675 3.35436 -0.476271 0
M  V30 2405 C 223.234 3.76182 -0.128113 0
M  V30 2406 C 222.381 2.66344 -0.771777 0
M  V30 2407 H 225.332 1.32656 -0.871098 0
M  V30 2408 H 225.353 3.79515 0.273561 0
M  V30 2409 H 224.865 3.5639 -1.53647 0
M  V30 2410 H 222.966 3.60836 0.928891 0
M  V30 2411 H 223.079 4.75766 -0.564231 0
M  V30 2412 H 221.443 2.53885 -0.203652 0
M  V30 2413 H 222.226 2.90123 -1.83531 0
M  V30 2414 N 224.671 0.411399 1.52136 0
M  V30 2415 C 225.601 -0.404015 2.29978 0
M  V30 2416 C 226.582 -1.04412 1.34284 0
M  V30 2417 O 227.767 -1.0527 1.63192 0
M  V30 2418 C 224.897 -1.5197 3.12286 0
M  V30 2419 C 223.851 -1.00448 4.16046 0
M  V30 2420 C 223.177 -2.21393 4.86712 0
M  V30 2421 C 224.477 -0.0569336 5.22269 0
M  V30 2422 H 226.171 0.245529 2.98392 0
M  V30 2423 H 223.717 0.119525 1.43503 0
M  V30 2424 H 225.67 -2.09715 3.6551 0
M  V30 2425 H 224.394 -2.19716 2.41646 0
M  V30 2426 H 223.053 -0.449421 3.63835 0
M  V30 2427 H 222.701 -2.87699 4.12599 0
M  V30 2428 H 222.401 -1.87571 5.56858 0
M  V30 2429 H 223.925 -2.7974 5.4275 0
M  V30 2430 H 225.339 -0.54325 5.7072 0
M  V30 2431 H 223.736 0.192594 5.99791 0
M  V30 2432 H 224.806 0.887663 4.76706 0
M  V30 2433 N 226.149 -1.5696 0.141893 0
M  V30 2434 C 227.379 -2.00031 -0.516828 0
M  V30 2435 C 227.787 -1.02091 -1.59293 0
M  V30 2436 O 227.13 -0.00909657 -1.83698 0
M  V30 2437 C 227.192 -3.39534 -1.1814 0
M  V30 2438 C 226.856 -4.56313 -0.250513 0
M  V30 2439 C 227.853 -5.17295 0.519839 0
M  V30 2440 C 225.538 -5.02061 -0.154907 0
M  V30 2441 C 227.532 -6.2243 1.3733 0
M  V30 2442 C 225.219 -6.07053 0.702161 0
M  V30 2443 C 226.217 -6.67106 1.46487 0
M  V30 2444 O 225.905 -7.70066 2.30767 0
M  V30 2445 H 225.637 -0.661451 -0.139493 0
M  V30 2446 H 228.191 -2.04086 0.231926 0
M  V30 2447 H 226.421 -3.32302 -1.97769 0
M  V30 2448 H 228.11 -3.66745 -1.73933 0
M  V30 2449 H 228.876 -4.82852 0.45598 0
M  V30 2450 H 224.755 -4.5505 -0.7383 0
M  V30 2451 H 228.299 -6.69233 1.96909 0
M  V30 2452 H 224.196 -6.40923 0.76733 0
M  V30 2453 H 224.964 -7.87264 2.23959 0
M  V30 2454 N 227.627 0.131896 -1.57047 0
M  V30 2455 C 228.537 1.1815 -2.02676 0
M  V30 2456 C 229.553 1.46113 -0.944824 0
M  V30 2457 O 230.729 1.57485 -1.25541 0
M  V30 2458 C 227.794 2.49139 -2.41103 0
M  V30 2459 C 226.855 2.28688 -3.63318 0
M  V30 2460 C 226.088 3.53431 -3.99903 0
M  V30 2461 O 226.311 4.60223 -3.36973 0
M  V30 2462 O 225.245 3.45198 -4.93074 0
M  V30 2463 H 229.071 0.824069 -2.92306 0
M  V30 2464 H 226.656 0.341745 -1.45439 0
M  V30 2465 H 228.538 3.26338 -2.66611 0
M  V30 2466 H 227.213 2.84382 -1.54624 0
M  V30 2467 H 226.12 1.4939 -3.42977 0
M  V30 2468 H 227.453 1.98355 -4.50462 0
M  V30 2469 N 229.106 1.52395 0.401703 0
M  V30 2470 C 230.069 1.75636 1.47257 0
M  V30 2471 C 231.069 0.62628 1.48103 0
M  V30 2472 O 232.259 0.894227 1.49497 0
M  V30 2473 C 229.391 1.84553 2.86624 0
M  V30 2474 H 230.584 2.71241 1.27938 0
M  V30 2475 H 228.137 1.42923 0.632662 0
M  V30 2476 H 228.872 0.908882 3.11303 0
M  V30 2477 H 228.657 2.66715 2.87412 0
M  V30 2478 H 230.147 2.04251 3.64241 0
M  V30 2479 N 230.584 -0.659388 1.43143 0
M  V30 2480 C 231.831 -1.41935 1.44433 0
M  V30 2481 C 232.159 -1.94387 0.0663522 0
M  V30 2482 O 231.414 -1.72314 -0.927706 0
M  V30 2483 C 231.713 -2.62206 2.42864 0
M  V30 2484 C 231.379 -2.28208 3.88886 0
M  V30 2485 C 230.041 -2.18647 4.28657 0
M  V30 2486 C 232.393 -2.00887 4.8093 0
M  V30 2487 C 229.721 -1.79914 5.58433 0
M  V30 2488 C 232.073 -1.63653 6.11065 0
M  V30 2489 C 230.737 -1.52614 6.49819 0
M  V30 2490 H 230.007 -0.519376 0.528517 0
M  V30 2491 H 232.654 -0.750453 1.76183 0
M  V30 2492 H 230.959 -3.34199 2.04495 0
M  V30 2493 H 232.656 -3.2041 2.41119 0
M  V30 2494 H 229.246 -2.36557 3.57406 0
M  V30 2495 H 233.43 -2.07198 4.5098 0
M  V30 2496 H 228.686 -1.69948 5.87305 0
M  V30 2497 H 232.86 -1.41543 6.81864 0
M  V30 2498 H 230.487 -1.22371 7.50286 0
M  V30 2499 N 232.062 -1.29571 -0.897171 0
M  V30 2500 C 233.308 -1.17863 -1.65034 0
M  V30 2501 C 233.641 0.268729 -1.92332 0
M  V30 2502 O 232.916 1.19378 -1.53555 0
M  V30 2503 C 233.199 -1.995 -2.99786 0
M  V30 2504 C 233.052 -3.5239 -2.79538 0
M  V30 2505 C 234.371 -1.82335 -4.00552 0
M  V30 2506 H 231.49 -0.429528 -0.598895 0
M  V30 2507 H 234.132 -1.59072 -1.03905 0
M  V30 2508 H 232.282 -1.64485 -3.51962 0
M  V30 2509 H 233.954 -3.97401 -2.34244 0
M  V30 2510 H 232.197 -3.77187 -2.14273 0
M  V30 2511 H 232.868 -4.04787 -3.75302 0
M  V30 2512 H 235.344 -2.12924 -3.57495 0
M  V30 2513 H 234.22 -2.41801 -4.92771 0
M  V30 2514 H 234.481 -0.779209 -4.35179 0
M  V30 2515 N 233.54 1.10788 -1.12088 0
M  V30 2516 C 234.487 2.17025 -0.785407 0
M  V30 2517 C 235.457 1.64265 0.246191 0
M  V30 2518 O 236.642 1.90412 0.121584 0
M  V30 2519 C 233.782 3.44249 -0.242177 0
M  V30 2520 C 232.895 4.1098 -1.33115 0
M  V30 2521 C 232.03 5.25911 -0.747741 0
M  V30 2522 C 231.069 5.84538 -1.81609 0
M  V30 2523 N 230.206 6.90853 -1.25167 0
M  V30 2524 H 235.046 2.45066 -1.69548 0
M  V30 2525 H 232.583 1.20297 -0.846582 0
M  V30 2526 H 234.541 4.17101 0.0908026 0
M  V30 2527 H 233.171 3.16571 0.631072 0
M  V30 2528 H 232.223 3.36133 -1.78097 0
M  V30 2529 H 233.535 4.50601 -2.13917 0
M  V30 2530 H 232.689 6.056 -0.365216 0
M  V30 2531 H 231.428 4.87614 0.0915188 0
M  V30 2532 H 230.433 5.03522 -2.20785 0
M  V30 2533 H 231.658 6.249 -2.6585 0
M  V30 2534 H 229.604 6.54562 -0.434174 0
M  V30 2535 H 229.521 7.29166 -1.99633 0
M  V30 2536 H 230.789 7.7433 -0.896259 0
M  V30 2537 N 235.018 0.912232 1.28515 0
M  V30 2538 C 236.266 0.543523 1.94654 0
M  V30 2539 C 236.587 -0.9155 1.72173 0
M  V30 2540 O 235.857 -1.64708 1.06058 0
M  V30 2541 H 234.437 0.198017 0.720277 0
M  V30 2542 H 237.099 1.16126 1.56527 0
M  V30 2543 H 236.195 0.736684 3.03281 0
M  V30 2544 N 236.496 -1.42363 0.676048 0
M  V30 2545 C 237.726 -2.05561 0.206967 0
M  V30 2546 C 238.134 -1.50887 -1.14148 0
M  V30 2547 O 237.477 -0.643933 -1.72044 0
M  V30 2548 C 237.539 -3.5944 0.0659508 0
M  V30 2549 C 237.203 -4.36812 1.34331 0
M  V30 2550 C 238.2 -4.67383 2.27704 0
M  V30 2551 C 235.885 -4.76429 1.59125 0
M  V30 2552 C 237.879 -5.36509 3.44147 0
M  V30 2553 C 235.566 -5.45294 2.75857 0
M  V30 2554 C 236.564 -5.75259 3.68193 0
M  V30 2555 O 236.252 -6.42712 4.82883 0
M  V30 2556 H 235.984 -0.668872 0.0979084 0
M  V30 2557 H 238.538 -1.83467 0.923531 0
M  V30 2558 H 236.768 -3.80197 -0.706204 0
M  V30 2559 H 238.457 -4.0427 -0.363418 0
M  V30 2560 H 239.223 -4.37275 2.09799 0
M  V30 2561 H 235.102 -4.52498 0.881258 0
M  V30 2562 H 238.646 -5.59814 4.16238 0
M  V30 2563 H 234.543 -5.7482 2.93688 0
M  V30 2564 H 235.311 -6.61204 4.82444 0
M  V30 2565 N 237.974 -0.419461 -1.51915 0
M  V30 2566 C 239.202 0.152136 -2.0634 0
M  V30 2567 C 239.617 1.37988 -1.28859 0
M  V30 2568 O 238.974 1.79243 -0.343232 0
M  V30 2569 C 239.025 0.492266 -3.58133 0
M  V30 2570 O 238.746 -0.686736 -4.32684 0
M  V30 2571 C 240.247 1.11648 -4.2901 0
M  V30 2572 H 237.467 0.0158325 -0.670813 0
M  V30 2573 H 240.011 -0.593394 -1.95702 0
M  V30 2574 H 238.166 1.18769 -3.68745 0
M  V30 2575 H 238.58 -0.400341 -5.2297 0
M  V30 2576 H 240.054 1.3046 -5.36362 0
M  V30 2577 H 240.531 2.09251 -3.86148 0
M  V30 2578 H 241.137 0.460958 -4.22795 0
M  V30 2579 N 239.452 1.56882 -0.150215 0
M  V30 2580 C 240.415 2.1573 0.774157 0
M  V30 2581 C 241.415 1.0999 1.17298 0
M  V30 2582 O 242.605 1.35613 1.09338 0
M  V30 2583 C 239.737 2.72302 2.05096 0
M  V30 2584 H 240.93 2.98752 0.262201 0
M  V30 2585 H 238.483 1.55985 0.099248 0
M  V30 2586 H 239.218 1.92956 2.6065 0
M  V30 2587 H 239.003 3.49665 1.77416 0
M  V30 2588 H 240.493 3.17632 2.71109 0
M  V30 2589 N 240.93 -0.123565 1.57115 0
M  V30 2590 C 241.877 -1.15177 2.00007 0
M  V30 2591 C 242.847 -1.41403 0.871454 0
M  V30 2592 O 244.032 -1.53346 1.13533 0
M  V30 2593 C 241.172 -2.47436 2.40561 0
M  V30 2594 C 240.285 -2.28184 3.66819 0
M  V30 2595 C 239.42 -3.53641 3.96373 0
M  V30 2596 C 238.459 -3.29528 5.15827 0
M  V30 2597 N 237.596 -4.47175 5.41275 0
M  V30 2598 H 242.436 -0.779008 2.87638 0
M  V30 2599 H 239.973 -0.373166 1.42288 0
M  V30 2600 H 241.931 -3.24584 2.62109 0
M  V30 2601 H 240.561 -2.82614 1.55978 0
M  V30 2602 H 239.613 -1.41976 3.52912 0
M  V30 2603 H 240.925 -2.0634 4.5412 0
M  V30 2604 H 240.079 -4.39209 4.18545 0
M  V30 2605 H 238.818 -3.78512 3.07538 0
M  V30 2606 H 237.823 -2.42349 4.93505 0
M  V30 2607 H 239.048 -3.06031 6.06236 0
M  V30 2608 H 236.994 -4.72175 4.55397 0
M  V30 2609 H 236.911 -4.28419 6.22891 0
M  V30 2610 H 238.179 -5.3389 5.67963 0
M  V30 2611 N 242.408 -1.52605 -0.393616 0
M  V30 2612 C 243.34 -1.73303 -1.49995 0
M  V30 2613 C 244.353 -0.613473 -1.50799 0
M  V30 2614 O 245.542 -0.889049 -1.54784 0
M  V30 2615 C 242.642 -1.77245 -2.88855 0
M  V30 2616 C 241.815 -3.06483 -3.12069 0
M  V30 2617 C 240.874 -3.02033 -4.30886 0
M  V30 2618 O 239.9 -3.75907 -4.27414 0
M  V30 2619 N 241.102 -2.20897 -5.36828 0
M  V30 2620 H 243.867 -2.68756 -1.32629 0
M  V30 2621 H 241.428 -1.51036 -0.583083 0
M  V30 2622 H 243.42 -1.7178 -3.66434 0
M  V30 2623 H 241.99 -0.891993 -2.99603 0
M  V30 2624 H 241.21 -3.25474 -2.22396 0
M  V30 2625 H 242.498 -3.91947 -3.2443 0
M  V30 2626 H 241.896 -1.60336 -5.42502 0
M  V30 2627 H 240.453 -2.21275 -6.13091 0
M  V30 2628 N 243.887 0.651787 -1.4349 0
M  V30 2629 C 245.133 1.4121 -1.46395 0
M  V30 2630 C 245.488 1.92202 -0.087366 0
M  V30 2631 O 244.781 1.69452 0.894231 0
M  V30 2632 C 244.975 2.60914 -2.44251 0
M  V30 2633 C 244.804 2.21639 -3.91288 0
M  V30 2634 C 243.574 2.09897 -4.59643 0
M  V30 2635 C 245.772 1.81835 -4.81083 0
M  V30 2636 N 243.754 1.63967 -5.91598 0
M  V30 2637 C 245.125 1.46998 -6.02322 0
M  V30 2638 C 247.18 1.69031 -4.6833 0
M  V30 2639 C 245.883 1.00638 -7.12225 0
M  V30 2640 C 247.909 1.24077 -5.78238 0
M  V30 2641 C 247.271 0.901772 -6.98604 0
M  V30 2642 H 243.37 0.512322 -0.590805 0
M  V30 2643 H 245.954 0.74989 -1.7968 0
M  V30 2644 H 244.125 3.24792 -2.1299 0
M  V30 2645 H 245.857 3.27622 -2.37584 0
M  V30 2646 H 242.612 2.297 -4.14168 0
M  V30 2647 H 243.036 1.43359 -6.61647 0
M  V30 2648 H 247.678 1.93878 -3.75727 0
M  V30 2649 H 245.396 0.745399 -8.04655 0
M  V30 2650 H 248.982 1.14657 -5.7039 0
M  V30 2651 H 247.862 0.559226 -7.82203 0
M  V30 2652 N 245.365 1.30045 0.890287 0
M  V30 2653 C 246.297 1.11786 2.00091 0
M  V30 2654 C 247.31 0.0626307 1.62679 0
M  V30 2655 O 248.499 0.308112 1.75821 0
M  V30 2656 C 245.599 0.681527 3.31977 0
M  V30 2657 C 244.772 1.81735 3.97858 0
M  V30 2658 C 243.831 1.37045 5.08041 0
M  V30 2659 O 242.857 2.07677 5.29961 0
M  V30 2660 N 244.059 0.246525 5.79976 0
M  V30 2661 H 246.824 2.07441 2.16306 0
M  V30 2662 H 244.385 1.2211 1.06305 0
M  V30 2663 H 246.377 0.365675 4.03045 0
M  V30 2664 H 244.947 -0.182828 3.12065 0
M  V30 2665 H 244.167 2.30159 3.20032 0
M  V30 2666 H 245.455 2.57865 4.38615 0
M  V30 2667 H 244.853 -0.34215 5.64664 0
M  V30 2668 H 243.41 -0.00990438 6.51799 0
M  V30 2669 N 246.843 -1.10192 1.12674 0
M  V30 2670 C 248.071 -1.85983 0.906527 0
M  V30 2671 C 248.486 -1.80783 -0.544333 0
M  V30 2672 O 247.843 -1.19834 -1.37645 0
M  V30 2673 C 247.894 -3.34281 1.37618 0
M  V30 2674 O 247.615 -3.39401 2.77017 0
M  V30 2675 C 249.116 -4.26938 1.19325 0
M  V30 2676 H 246.336 -0.587716 0.323775 0
M  V30 2677 H 248.88 -1.39284 1.49734 0
M  V30 2678 H 247.035 -3.78436 0.828539 0
M  V30 2679 H 247.449 -4.31838 2.97684 0
M  V30 2680 H 248.923 -5.29181 1.57071 0
M  V30 2681 H 249.4 -4.38995 0.134097 0
M  V30 2682 H 250.006 -3.8859 1.72852 0
M  V30 2683 N 248.321 -0.919034 -1.28029 0
M  V30 2684 C 249.598 -0.473668 -1.89778 0
M  V30 2685 C 249.978 1.04783 -1.83259 0
M  V30 2686 O 249.326 1.8982 -1.27202 0
M  V30 2687 C 249.536 -1.00998 -3.34066 0
M  V30 2688 C 250.884 -1.06525 -4.1102 0
M  V30 2689 O 251.908 -0.958996 -3.43048 0
M  V30 2690 O 250.767 -1.22776 -5.3253 0
M  V30 2691 H 247.861 -0.15098 -0.813101 0
M  V30 2692 H 250.407 -1.01016 -1.36359 0
M  V30 2693 H 249.179 -2.05392 -3.33061 0
M  V30 2694 H 248.802 -0.454626 -3.94992 0
M  V30 2695 N 249.799 1.42003 -0.683588 0
M  V30 2696 C 251.21 1.84501 -0.285736 0
M  V30 2697 C 251.561 1.57213 1.17382 0
M  V30 2698 O 250.686 1.03642 1.89966 0
M  V30 2699 C 251.281 3.34912 -0.511821 0
M  V30 2700 C 249.84 3.76025 -0.168005 0
M  V30 2701 C 248.987 2.6551 -0.799983 0
M  V30 2702 H 251.938 1.31724 -0.885119 0
M  V30 2703 H 251.959 3.79784 0.233292 0
M  V30 2704 H 251.471 3.54741 -1.57418 0
M  V30 2705 H 249.572 3.61801 0.890567 0
M  V30 2706 H 249.685 4.75141 -0.614661 0
M  V30 2707 H 248.049 2.53654 -0.230568 0
M  V30 2708 H 248.832 2.8816 -1.86597 0
M  V30 2709 N 251.277 0.427512 1.51691 0
M  V30 2710 C 252.224 -0.388867 2.275 0
M  V30 2711 C 253.194 -1.02532 1.30677 0
M  V30 2712 O 254.379 -1.0461 1.59566 0
M  V30 2713 C 251.519 -1.48954 3.11298 0
M  V30 2714 C 250.632 -0.872194 4.23104 0
M  V30 2715 C 249.767 -1.94709 4.94228 0
M  V30 2716 C 248.806 -1.30766 5.97969 0
M  V30 2717 N 247.943 -2.32349 6.62539 0
M  V30 2718 H 252.783 0.263997 2.96828 0
M  V30 2719 H 250.32 0.142033 1.46413 0
M  V30 2720 H 252.278 -2.13887 3.58201 0
M  V30 2721 H 250.908 -2.11217 2.44105 0
M  V30 2722 H 249.96 -0.111419 3.80237 0
M  V30 2723 H 251.272 -0.365264 4.97461 0
M  V30 2724 H 250.426 -2.67327 5.44629 0
M  V30 2725 H 249.165 -2.48773 4.1948 0
M  V30 2726 H 248.17 -0.566902 5.4687 0
M  V30 2727 H 249.395 -0.774483 6.74669 0
M  V30 2728 H 247.341 -2.85511 5.90609 0
M  V30 2729 H 247.258 -1.8652 7.3263 0
M  V30 2730 H 248.526 -3.04481 7.17574 0
M  V30 2731 N 252.755 -1.56801 0.158532 0
M  V30 2732 C 253.665 -2.20916 -0.789518 0
M  V30 2733 C 254.681 -1.1969 -1.26294 0
M  V30 2734 O 255.857 -1.52308 -1.31773 0
M  V30 2735 C 252.922 -2.82727 -2.00665 0
M  V30 2736 C 251.983 -3.99114 -1.58134 0
M  V30 2737 C 251.216 -4.57968 -2.74045 0
M  V30 2738 O 251.439 -4.15704 -3.90572 0
M  V30 2739 O 250.373 -5.48047 -2.48855 0
M  V30 2740 H 254.199 -3.02464 -0.273681 0
M  V30 2741 H 251.784 -1.4924 -0.0690548 0
M  V30 2742 H 253.666 -3.21968 -2.71872 0
M  V30 2743 H 252.341 -2.04184 -2.51179 0
M  V30 2744 H 251.248 -3.64567 -0.839155 0
M  V30 2745 H 252.581 -4.79212 -1.12325 0
M  V30 2746 N 254.233 0.115231 -1.57178 0
M  V30 2747 C 255.163 1.1423 -2.03651 0
M  V30 2748 C 256.144 1.42967 -0.921655 0
M  V30 2749 O 257.329 1.53343 -1.19162 0
M  V30 2750 C 254.459 2.4675 -2.44401 0
M  V30 2751 C 253.413 2.32467 -3.59365 0
M  V30 2752 C 252.739 3.69984 -3.86026 0
M  V30 2753 C 254.039 1.78203 -4.90959 0
M  V30 2754 H 255.733 0.755749 -2.89705 0
M  V30 2755 H 253.279 0.362093 -1.39373 0
M  V30 2756 H 255.232 3.18854 -2.75517 0
M  V30 2757 H 253.956 2.87302 -1.55322 0
M  V30 2758 H 252.615 1.62811 -3.28463 0
M  V30 2759 H 252.263 4.08028 -2.94147 0
M  V30 2760 H 251.963 3.61279 -4.63412 0
M  V30 2761 H 253.487 4.43587 -4.19599 0
M  V30 2762 H 254.901 2.40128 -5.20587 0
M  V30 2763 H 253.298 1.8031 -5.72371 0
M  V30 2764 H 254.368 0.739876 -4.79222 0
M  V30 2765 N 255.711 1.52812 0.385517 0
M  V30 2766 C 257.122 1.5993 0.963293 0
M  V30 2767 C 257.473 0.454302 1.90868 0
M  V30 2768 O 256.598 -0.422132 2.12243 0
M  V30 2769 C 257.193 2.89871 1.75387 0
M  V30 2770 C 255.752 2.99389 2.28129 0
M  V30 2771 C 254.899 2.55071 1.08783 0
M  V30 2772 H 257.85 1.5784 0.164948 0
M  V30 2773 H 257.871 2.76553 2.61341 0
M  V30 2774 H 257.383 3.73186 1.06554 0
M  V30 2775 H 255.484 2.20619 3.00263 0
M  V30 2776 H 255.597 4.04096 2.57377 0
M  V30 2777 H 253.961 2.09473 1.4489 0
M  V30 2778 H 254.744 3.40785 0.414807 0
M  V30 2779 N 257.189 -0.644168 1.43834 0
M  V30 2780 C 258.152 -1.73857 1.49353 0
M  V30 2781 C 259.152 -1.56315 0.377112 0
M  V30 2782 O 260.342 -1.62048 0.639226 0
M  V30 2783 C 257.474 -3.12819 1.35488 0
M  V30 2784 H 258.667 -1.70342 2.46827 0
M  V30 2785 H 256.22 -0.856652 1.30733 0
M  V30 2786 H 256.955 -3.2194 0.390569 0
M  V30 2787 H 256.74 -3.26958 2.16428 0
M  V30 2788 H 258.23 -3.92606 1.42302 0
M  V30 2789 N 258.668 -1.30515 -0.883378 0
M  V30 2790 C 259.631 -1.1701 -1.97082 0
M  V30 2791 C 260.631 -0.10089 -1.60483 0
M  V30 2792 O 261.821 -0.349127 -1.70666 0
M  V30 2793 C 258.953 -0.793045 -3.31547 0
M  V30 2794 H 260.146 -2.13622 -2.10489 0
M  V30 2795 H 257.699 -1.13935 -1.06998 0
M  V30 2796 H 258.434 0.172499 -3.23841 0
M  V30 2797 H 258.219 -1.56576 -3.5948 0
M  V30 2798 H 259.709 -0.722073 -4.1131 0
M  V30 2799 N 260.146 1.09593 -1.13257 0
M  V30 2800 C 261.094 2.18271 -0.803783 0
M  V30 2801 C 262.088 1.68054 0.213148 0
M  V30 2802 O 263.294 1.79862 0.0704699 0
M  V30 2803 H 259.669 0.711949 -0.242143 0
M  V30 2804 H 261.64 2.43235 -1.72856 0
M  V30 2805 C 260.389 3.46536 -0.28424 0
M  V30 2806 H 259.712 3.85545 -1.05807 0
M  V30 2807 H 261.152 4.23899 -0.0925945 0
M  V30 2808 C 259.611 3.22036 0.989684 0
M  V30 2809 O 260.141 3.44509 2.06584 0
M  V30 2810 N 258.347 2.7565 0.920086 0
M  V30 2811 H 257.894 2.57562 0.0442019 0
M  V30 2812 H 257.852 2.59635 1.77306 0
M  V30 2813 N 261.624 0.925811 1.2754 0
M  V30 2814 C 262.873 0.561084 1.93739 0
M  V30 2815 C 263.186 -0.901685 1.73577 0
M  V30 2816 O 264.392 -1.37511 2.34101 0
M  V30 2817 C 262.848 0.952668 3.47062 0
M  V30 2818 C 262.456 2.43599 3.75983 0
M  V30 2819 C 264.2 0.659103 4.19352 0
M  V30 2820 C 262.107 2.76707 5.22673 0
M  V30 2821 H 261.037 0.206122 0.725279 0
M  V30 2822 H 263.688 1.12637 1.44863 0
M  V30 2823 H 262.07 0.316053 3.94737 0
M  V30 2824 H 263.244 3.12035 3.39073 0
M  V30 2825 H 261.559 2.70125 3.16893 0
M  V30 2826 H 264.156 0.882985 5.27359 0
M  V30 2827 H 264.499 -0.403607 4.14339 0
M  V30 2828 H 265.032 1.25473 3.77494 0
M  V30 2829 H 261.771 3.8188 5.32774 0
M  V30 2830 H 261.291 2.12919 5.60737 0
M  V30 2831 H 262.97 2.6435 5.90532 0
M  V30 2832 N 263.102 -1.41638 0.69111 0
M  V30 2833 C 264.33 -2.05628 0.22909 0
M  V30 2834 C 264.745 -1.51992 -1.11999 0
M  V30 2835 O 264.102 -0.666322 -1.69901 0
M  V30 2836 C 264.153 -3.61084 0.173283 0
M  V30 2837 O 263.874 -4.12735 1.46907 0
M  V30 2838 C 265.375 -4.42213 -0.310266 0
M  V30 2839 H 262.595 -0.662327 0.107534 0
M  V30 2840 H 265.139 -1.81489 0.942438 0
M  V30 2841 H 263.294 -3.84278 -0.490858 0
M  V30 2842 H 263.708 -5.06743 1.35322 0
M  V30 2843 H 265.182 -5.51194 -0.298196 0
M  V30 2844 H 265.659 -4.1799 -1.34838 0
M  V30 2845 H 266.265 -4.24074 0.322716 0
M  V30 2846 N 264.58 -0.43555 -1.51462 0
M  V30 2847 C 265.996 -0.0877501 -1.59359 0
M  V30 2848 C 266.196 1.4027 -1.4466 0
M  V30 2849 O 265.252 2.17243 -1.28693 0
M  V30 2850 C 266.565 -0.606264 -2.94525 0
M  V30 2851 C 268.113 -0.566548 -3.0783 0
M  V30 2852 C 268.588 -1.06201 -4.45517 0
M  V30 2853 N 270.079 -1.01992 -4.51832 0
M  V30 2854 C 270.814 -1.37417 -5.5669 0
M  V30 2855 N 270.31 -1.80119 -6.68976 0
M  V30 2856 N 272.103 -1.29245 -5.47039 0
M  V30 2857 H 264.254 -1.40533 -1.59261 0
M  V30 2858 H 266.517 -0.578992 -0.750648 0
M  V30 2859 H 266.223 -1.64901 -3.10645 0
M  V30 2860 H 266.097 -0.0302097 -3.77188 0
M  V30 2861 H 268.484 0.467208 -2.91378 0
M  V30 2862 H 268.565 -1.17898 -2.2701 0
M  V30 2863 H 268.209 -2.09422 -4.62715 0
M  V30 2864 H 268.139 -0.426127 -5.24873 0
M  V30 2865 H 270.63 -0.706308 -3.71241 0
M  V30 2866 H 270.943 -2.05392 -7.45006 0
M  V30 2867 H 269.288 -1.84044 -6.70189 0
M  V30 2868 H 272.479 -0.957522 -4.58202 0
M  V30 2869 H 272.652 -1.57182 -6.28648 0
M  V30 2870 N 266.058 1.56714 -0.166846 0
M  V30 2871 C 266.988 2.20754 0.760913 0
M  V30 2872 C 267.969 1.16178 1.24244 0
M  V30 2873 O 269.154 1.44592 1.29641 0
M  V30 2874 C 266.284 2.84478 1.99223 0
M  V30 2875 C 265.238 3.95053 1.64672 0
M  V30 2876 C 264.564 4.45805 2.95232 0
M  V30 2877 C 265.864 5.14865 0.878155 0
M  V30 2878 H 267.558 2.98537 0.22713 0
M  V30 2879 H 265.104 1.43596 0.107805 0
M  V30 2880 H 267.057 3.27951 2.64624 0
M  V30 2881 H 265.781 2.04056 2.55007 0
M  V30 2882 H 264.44 3.52228 1.01641 0
M  V30 2883 H 264.088 3.62181 3.49047 0
M  V30 2884 H 263.788 5.204 2.7287 0
M  V30 2885 H 265.312 4.91962 3.6167 0
M  V30 2886 H 266.726 5.55059 1.43466 0
M  V30 2887 H 265.123 5.95348 0.753738 0
M  V30 2888 H 266.193 4.84735 -0.126377 0
M  V30 2889 N 267.536 -0.106894 1.57237 0
M  V30 2890 C 268.947 -0.662723 1.74542 0
M  V30 2891 C 269.298 -1.7971 0.787319 0
M  V30 2892 O 268.423 -2.16368 -0.0369636 0
M  V30 2893 C 269.018 -1.20896 3.16496 0
M  V30 2894 C 267.577 -1.71096 3.35266 0
M  V30 2895 C 266.724 -0.615642 2.7038 0
M  V30 2896 H 269.675 0.119106 1.58252 0
M  V30 2897 H 269.696 -2.07847 3.18716 0
M  V30 2898 H 269.208 -0.383122 3.86204 0
M  V30 2899 H 267.309 -2.56119 2.70618 0
M  V30 2900 H 267.422 -1.81208 4.43509 0
M  V30 2901 H 265.786 -1.05222 2.31949 0
M  V30 2902 H 266.569 0.199419 3.4272 0
M  V30 2903 N 269.014 -1.53014 -0.377408 0
M  V30 2904 C 270.26 -1.68872 -1.12294 0
M  V30 2905 C 270.593 -0.433224 -1.89306 0
M  V30 2906 O 269.868 0.569258 -1.85983 0
M  V30 2907 C 270.151 -2.93115 -2.09179 0
M  V30 2908 C 270.004 -4.28794 -1.35853 0
M  V30 2909 C 271.323 -3.12928 -3.09458 0
M  V30 2910 H 268.442 -0.614518 -0.406862 0
M  V30 2911 H 271.084 -1.85633 -0.40503 0
M  V30 2912 H 269.234 -2.78956 -2.70399 0
M  V30 2913 H 270.906 -4.54742 -0.775082 0
M  V30 2914 H 269.149 -4.28744 -0.660364 0
M  V30 2915 H 269.82 -5.11837 -2.06706 0
M  V30 2916 H 272.296 -3.26194 -2.58334 0
M  V30 2917 H 271.172 -4.01316 -3.74482 0
M  V30 2918 H 271.433 -2.27669 -3.78971 0
M  V30 2919 N 270.492 0.636531 -1.44174 0
M  V30 2920 C 271.908 0.954104 -1.27941 0
M  V30 2921 C 272.108 2.0039 -0.211248 0
M  V30 2922 O 271.164 2.49236 0.404695 0
M  V30 2923 C 272.477 1.4225 -2.64925 0
M  V30 2924 C 274.025 1.53827 -2.72592 0
M  V30 2925 C 274.5 2.04053 -4.10032 0
M  V30 2926 N 275.991 2.11331 -4.12182 0
M  V30 2927 C 276.726 2.51352 -5.15374 0
M  V30 2928 N 276.222 2.90549 -6.2893 0
M  V30 2929 N 278.015 2.51438 -5.02728 0
M  V30 2930 H 270.166 -0.0578386 -2.12321 0
M  V30 2931 H 272.429 0.0367406 -0.947288 0
M  V30 2932 H 272.135 0.725466 -3.44136 0
M  V30 2933 H 272.009 2.39451 -2.9145 0
M  V30 2934 H 274.396 2.22628 -1.93702 0
M  V30 2935 H 274.477 0.550154 -2.49814 0
M  V30 2936 H 274.121 1.35848 -4.89395 0
M  V30 2937 H 274.051 3.03726 -4.30184 0
M  V30 2938 H 276.542 1.83745 -3.30222 0
M  V30 2939 H 276.855 3.19884 -7.03487 0
M  V30 2940 H 275.2 2.88313 -6.32377 0
M  V30 2941 H 278.391 2.20203 -4.13072 0
M  V30 2942 H 278.564 2.82304 -5.83274 0
M  V30 2943 N 271.97 1.30982 0.876444 0
M  V30 2944 C 273.2 1.23063 1.65949 0
M  V30 2945 C 273.608 -0.207537 1.88058 0
M  V30 2946 O 272.951 -1.14781 1.43426 0
M  V30 2947 C 273.013 1.89768 3.05333 0
M  V30 2948 C 272.677 3.39106 3.0636 0
M  V30 2949 C 273.674 4.3496 2.84791 0
M  V30 2950 C 271.359 3.80693 3.27686 0
M  V30 2951 C 273.353 5.70375 2.84519 0
M  V30 2952 C 271.04 5.16223 3.27043 0
M  V30 2953 C 272.038 6.10875 3.05485 0
M  V30 2954 O 271.726 7.43928 3.04674 0
M  V30 2955 H 271.458 0.426685 0.524324 0
M  V30 2956 H 274.012 1.7329 1.10271 0
M  V30 2957 H 272.242 1.34082 3.6271 0
M  V30 2958 H 273.931 1.75853 3.65829 0
M  V30 2959 H 274.697 4.0416 2.68103 0
M  V30 2960 H 270.576 3.07457 3.43499 0
M  V30 2961 H 274.12 6.44228 2.67611 0
M  V30 2962 H 270.017 5.4666 3.43269 0
M  V30 2963 H 270.785 7.53022 3.2078 0
M  V30 2964 N 273.449 -1.08991 1.13837 0
M  V30 2965 C 274.677 -1.85011 0.926202 0
M  V30 2966 C 275.092 -1.8135 -0.525127 0
M  V30 2967 O 274.449 -1.21287 -1.36366 0
M  V30 2968 C 274.5 -3.32802 1.41155 0
M  V30 2969 O 274.221 -3.36444 2.80601 0
M  V30 2970 C 275.722 -4.25649 1.23847 0
M  V30 2971 H 272.942 -0.584249 0.32999 0
M  V30 2972 H 275.486 -1.37688 1.51202 0
M  V30 2973 H 273.641 -3.77536 0.868631 0
M  V30 2974 H 274.055 -4.28657 3.02248 0
M  V30 2975 H 275.529 -5.27485 1.62675 0
M  V30 2976 H 276.006 -4.38828 0.18065 0
M  V30 2977 H 276.612 -3.86735 1.76964 0
M  V30 2978 N 274.927 -0.932562 -1.27047 0
M  V30 2979 C 276.174 -0.575559 -1.94148 0
M  V30 2980 C 276.502 0.883984 -1.73251 0
M  V30 2981 O 275.757 1.64655 -1.0577 0
M  V30 2982 C 276.056 -0.853713 -3.47054 0
M  V30 2983 C 275.722 -2.29577 -3.88079 0
M  V30 2984 C 274.384 -2.68999 -3.9899 0
M  V30 2985 C 276.736 -3.23331 -4.08787 0
M  V30 2986 C 274.064 -4.01289 -4.28 0
M  V30 2987 C 276.416 -4.55207 -4.39282 0
M  V30 2988 C 275.08 -4.94457 -4.48407 0
M  V30 2989 H 274.35 -0.210612 -0.710439 0
M  V30 2990 H 276.997 -1.17744 -1.51025 0
M  V30 2991 H 275.302 -0.169204 -3.91434 0
M  V30 2992 H 276.999 -0.55639 -3.97121 0
M  V30 2993 H 273.589 -1.97994 -3.80127 0
M  V30 2994 H 277.773 -2.94074 -3.99793 0
M  V30 2995 H 273.029 -4.31374 -4.33275 0
M  V30 2996 H 277.203 -5.27852 -4.54252 0
M  V30 2997 H 274.83 -5.96994 -4.7064 0
M  V30 2998 N 276.405 1.4127 -0.698611 0
M  V30 2999 C 277.682 1.94955 -0.158762 0
M  V30 3000 C 278.062 1.63781 1.33188 0
M  V30 3001 O 277.41 0.946423 2.07979 0
M  V30 3002 C 277.62 3.46044 -0.453309 0
M  V30 3003 C 278.968 4.22872 -0.382707 0
M  V30 3004 O 279.992 3.54076 -0.388396 0
M  V30 3005 O 278.851 5.45407 -0.345463 0
M  V30 3006 H 275.945 0.82683 -0.0167505 0
M  V30 3007 H 278.491 1.50971 -0.77498 0
M  V30 3008 H 277.263 3.62028 -1.48498 0
M  V30 3009 H 276.886 3.97128 0.19373 0
M  V30 3010 N 277.883 0.443576 1.51229 0
M  V30 3011 C 278.831 -0.37904 2.29491 0
M  V30 3012 C 279.825 -1.0153 1.35603 0
M  V30 3013 O 281.031 -0.94955 1.52917 0
M  V30 3014 H 277.406 -0.141053 0.738653 0
M  V30 3015 H 279.377 0.301799 2.9687 0
M  V30 3016 C 278.126 -1.46426 3.15364 0
M  V30 3017 H 277.449 -0.984037 3.87501 0
M  V30 3018 H 278.889 -2.01297 3.7317 0
M  V30 3019 C 277.348 -2.45099 2.31146 0
M  V30 3020 O 277.878 -3.49773 1.9754 0
M  V30 3021 N 276.084 -2.16139 1.94249 0
M  V30 3022 H 275.631 -1.31044 2.21777 0
M  V30 3023 H 275.589 -2.82398 1.38198 0
M  V30 3024 N 279.361 -1.56624 0.175154 0
M  V30 3025 C 280.777 -1.58571 -0.180966 0
M  V30 3026 C 280.977 -1.19065 -1.6256 0
M  V30 3027 O 280.033 -0.904044 -2.35761 0
M  V30 3028 C 281.346 -3.00522 0.103326 0
M  V30 3029 C 282.894 -3.12972 0.0418426 0
M  V30 3030 C 283.369 -4.57022 0.299175 0
M  V30 3031 N 284.86 -4.62541 0.247086 0
M  V30 3032 C 285.595 -5.71857 0.420318 0
M  V30 3033 N 285.091 -6.89717 0.652816 0
M  V30 3034 N 286.884 -5.60972 0.355957 0
M  V30 3035 H 279.035 -1.80589 1.11809 0
M  V30 3036 H 281.298 -0.837178 0.444788 0
M  V30 3037 H 281.004 -3.33916 1.10422 0
M  V30 3038 H 280.878 -3.72344 -0.603299 0
M  V30 3039 H 283.265 -2.79403 -0.949636 0
M  V30 3040 H 283.346 -2.43578 0.781238 0
M  V30 3041 H 282.99 -4.913 1.28788 0
M  V30 3042 H 282.92 -5.24579 -0.460876 0
M  V30 3043 H 285.411 -3.77829 0.0731895 0
M  V30 3044 H 285.724 -7.68911 0.774347 0
M  V30 3045 H 284.069 -6.91572 0.689476 0
M  V30 3046 H 287.26 -4.67773 0.174882 0
M  V30 3047 H 287.433 -6.46111 0.494388 0
M  V30 3048 N 280.839 0.0985539 -1.57292 0
M  V30 3049 C 282.069 0.815135 -1.8984 0
M  V30 3050 C 282.477 1.7297 -0.766679 0
M  V30 3051 O 281.82 1.81698 0.270483 0
M  V30 3052 C 281.882 1.6842 -3.17608 0
M  V30 3053 C 281.546 0.94182 -4.4719 0
M  V30 3054 C 282.543 0.273212 -5.19182 0
M  V30 3055 C 280.228 0.916927 -4.9386 0
M  V30 3056 C 282.222 -0.410361 -6.36078 0
M  V30 3057 C 279.909 0.229567 -6.10669 0
M  V30 3058 C 280.907 -0.432902 -6.81627 0
M  V30 3059 O 280.595 -1.10925 -7.9621 0
M  V30 3060 H 280.327 0.238501 -0.632529 0
M  V30 3061 H 282.881 0.0812659 -2.05239 0
M  V30 3062 H 281.111 2.46022 -2.98345 0
M  V30 3063 H 282.8 2.27704 -3.36015 0
M  V30 3064 H 283.566 0.283927 -4.84168 0
M  V30 3065 H 279.445 1.42201 -4.3852 0
M  V30 3066 H 282.989 -0.928013 -6.914 0
M  V30 3067 H 278.886 0.216686 -6.45136 0
M  V30 3068 H 279.654 -1.01579 -8.12172 0
M  V30 3069 N 282.317 1.53212 0.369288 0
M  V30 3070 C 283.564 1.69215 1.11232 0
M  V30 3071 C 283.892 0.442048 1.8941 0
M  V30 3072 O 283.147 -0.575944 1.87033 0
M  V30 3073 C 283.446 2.89101 2.10132 0
M  V30 3074 C 283.112 4.25758 1.48463 0
M  V30 3075 C 281.774 4.6292 1.31372 0
M  V30 3076 C 284.126 5.10757 1.03811 0
M  V30 3077 C 281.454 5.82722 0.68207 0
M  V30 3078 C 283.806 6.31201 0.420487 0
M  V30 3079 C 282.47 6.67079 0.237038 0
M  V30 3080 H 281.74 0.619201 0.407027 0
M  V30 3081 H 284.387 1.87391 0.394552 0
M  V30 3082 H 282.692 2.65421 2.88199 0
M  V30 3083 H 284.389 2.98676 2.6757 0
M  V30 3084 H 280.979 3.96494 1.62758 0
M  V30 3085 H 285.163 4.82599 1.1581 0
M  V30 3086 H 280.419 6.09113 0.528316 0
M  V30 3087 H 284.593 6.96368 0.0662874 0
M  V30 3088 H 282.22 7.59774 -0.254477 0
M  V30 3089 N 283.795 -0.628877 1.44509 0
M  V30 3090 C 285.02 -1.42048 1.5112 0
M  V30 3091 C 285.445 -1.87594 0.137818 0
M  V30 3092 O 284.803 -1.58873 -0.873437 0
M  V30 3093 C 284.851 -2.61541 2.48251 0
M  V30 3094 O 283.955 -3.61453 1.98559 0
M  V30 3095 H 283.296 -0.424942 0.510216 0
M  V30 3096 H 285.826 -0.767374 1.89664 0
M  V30 3097 H 285.836 -3.09057 2.66361 0
M  V30 3098 H 284.511 -2.27736 3.48007 0
M  V30 3099 H 283.088 -3.20731 1.90227 0
M  V30 3100 N 285.273 -1.31445 -0.869486 0
M  V30 3101 C 286.55 -1.11795 -1.60503 0
M  V30 3102 C 286.93 0.327168 -2.08549 0
M  V30 3103 O 286.278 1.32135 -1.8642 0
M  V30 3104 C 286.488 -2.13258 -2.76265 0
M  V30 3105 C 287.836 -2.45805 -3.46215 0
M  V30 3106 O 288.86 -2.11688 -2.86473 0
M  V30 3107 O 287.719 -3.04228 -4.5399 0
M  V30 3108 H 284.813 -0.430421 -0.706163 0
M  V30 3109 H 287.359 -1.42925 -0.914907 0
M  V30 3110 H 286.131 -3.10461 -2.3818 0
M  V30 3111 H 285.754 -1.83035 -3.52964 0
M  V30 3112 N 286.751 1.08385 -1.14413 0
M  V30 3113 C 287.979 1.84517 -0.936001 0
M  V30 3114 C 288.394 1.81626 0.515503 0
M  V30 3115 O 287.751 1.22008 1.35721 0
M  V30 3116 C 287.802 3.32049 -1.42918 0
M  V30 3117 O 287.523 3.34951 -2.82381 0
M  V30 3118 C 289.024 4.24986 -1.26103 0
M  V30 3119 H 286.244 0.582491 -0.333084 0
M  V30 3120 H 288.788 1.36885 -1.5193 0
M  V30 3121 H 286.943 3.7707 -0.888641 0
M  V30 3122 H 287.357 4.27048 -3.04517 0
M  V30 3123 H 288.831 5.26615 -1.6547 0
M  V30 3124 H 289.308 4.38726 -0.20392 0
M  V30 3125 H 289.914 3.85791 -1.79012 0
M  V30 3126 N 288.23 0.939286 1.26551 0
M  V30 3127 C 289.46 0.601663 1.97645 0
M  V30 3128 C 289.868 -0.827206 1.70159 0
M  V30 3129 O 289.211 -1.56291 0.965338 0
M  V30 3130 C 289.273 0.761725 3.51337 0
M  V30 3131 C 288.937 2.16487 4.0247 0
M  V30 3132 C 289.934 3.14016 4.14355 0
M  V30 3133 C 287.619 2.48494 4.36527 0
M  V30 3134 C 289.613 4.41654 4.59587 0
M  V30 3135 C 287.3 3.76364 4.81449 0
M  V30 3136 C 288.298 4.72758 4.92939 0
M  V30 3137 O 287.986 5.98352 5.36871 0
M  V30 3138 H 287.718 0.225758 0.637189 0
M  V30 3139 H 290.272 1.26178 1.62075 0
M  V30 3140 H 288.502 0.0444808 3.86674 0
M  V30 3141 H 290.191 0.427442 4.03643 0
M  V30 3142 H 290.957 2.90613 3.8829 0
M  V30 3143 H 286.836 1.74202 4.26819 0
M  V30 3144 H 290.38 5.16896 4.68471 0
M  V30 3145 H 286.277 3.99582 5.06956 0
M  V30 3146 H 287.045 6.01507 5.55096 0
M  V30 3147 N 289.708 -1.40897 0.706093 0
M  V30 3148 C 290.618 -2.3455 0.0482286 0
M  V30 3149 C 291.634 -1.56796 -0.754396 0
M  V30 3150 O 292.81 -1.89228 -0.689538 0
M  V30 3151 C 289.875 -3.35625 -0.869303 0
M  V30 3152 C 288.936 -4.29261 -0.0576994 0
M  V30 3153 C 288.169 -5.25508 -0.931531 0
M  V30 3154 O 288.392 -5.27472 -2.17092 0
M  V30 3155 O 287.326 -6.00727 -0.375587 0
M  V30 3156 H 291.152 -2.92407 0.820476 0
M  V30 3157 H 288.737 -1.4193 0.4665 0
M  V30 3158 H 290.619 -3.97635 -1.39514 0
M  V30 3159 H 289.294 -2.80196 -1.62086 0
M  V30 3160 H 288.201 -3.70566 0.512988 0
M  V30 3161 H 289.534 -4.87817 0.655426 0
M  V30 3162 N 291.186 -0.45159 -1.50991 0
M  V30 3163 C 292.434 0.109857 -2.01801 0
M  V30 3164 C 292.755 1.41958 -1.3369 0
M  V30 3165 O 292.025 1.9003 -0.475951 0
M  V30 3166 H 290.605 0.0435884 -0.745727 0
M  V30 3167 H 293.267 -0.597557 -1.85514 0
M  V30 3168 H 292.363 0.275489 -3.10882 0
M  V30 3169 N 292.664 1.56529 -0.183458 0
M  V30 3170 C 293.594 2.21549 0.737456 0
M  V30 3171 C 294.575 1.17489 1.23005 0
M  V30 3172 O 295.76 1.45959 1.281 0
M  V30 3173 C 292.89 2.86575 1.96194 0
M  V30 3174 C 291.844 3.96778 1.60473 0
M  V30 3175 C 291.17 4.48911 2.90487 0
M  V30 3176 C 292.47 5.15767 0.823497 0
M  V30 3177 H 294.164 2.98761 0.195453 0
M  V30 3178 H 291.71 1.43702 0.0925686 0
M  V30 3179 H 293.663 3.30739 2.61131 0
M  V30 3180 H 292.387 2.06749 2.52828 0
M  V30 3181 H 291.046 3.53286 0.978997 0
M  V30 3182 H 290.694 3.65862 3.45186 0
M  V30 3183 H 290.394 5.23265 2.67335 0
M  V30 3184 H 291.918 4.95771 3.56432 0
M  V30 3185 H 293.332 5.56549 1.37571 0
M  V30 3186 H 291.729 5.96114 0.690551 0
M  V30 3187 H 292.799 4.84574 -0.177782 0
M  V30 3188 N 294.142 -0.090211 1.57342 0
M  V30 3189 C 295.553 -0.644173 1.75235 0
M  V30 3190 C 295.904 -1.78865 0.806335 0
M  V30 3191 O 295.029 -2.16395 -0.0140128 0
M  V30 3192 C 295.624 -1.17532 3.1776 0
M  V30 3193 C 294.183 -1.67531 3.37061 0
M  V30 3194 C 293.33 -0.58693 2.71017 0
M  V30 3195 H 296.281 0.135884 1.58117 0
M  V30 3196 H 296.302 -2.04455 3.20902 0
M  V30 3197 H 295.814 -0.342138 3.86589 0
M  V30 3198 H 293.915 -2.53234 2.73319 0
M  V30 3199 H 294.028 -1.76493 4.45406 0
M  V30 3200 H 292.392 -1.02756 2.33052 0
M  V30 3201 H 293.175 0.235758 3.4249 0
M  V30 3202 N 295.62 -1.53406 -0.361157 0
M  V30 3203 C 296.848 -1.73717 -1.12383 0
M  V30 3204 C 297.263 -0.468161 -1.82904 0
M  V30 3205 O 296.62 0.559198 -1.73722 0
M  V30 3206 C 296.671 -2.90558 -2.15078 0
M  V30 3207 O 296.392 -4.12549 -1.47428 0
M  V30 3208 C 297.893 -3.22777 -3.03858 0
M  V30 3209 H 295.113 -0.580896 -0.335858 0
M  V30 3210 H 297.657 -2.00167 -0.418728 0
M  V30 3211 H 295.812 -2.66489 -2.8118 0
M  V30 3212 H 296.226 -4.78009 -2.15887 0
M  V30 3213 H 297.7 -4.07927 -3.71887 0
M  V30 3214 H 298.177 -2.38329 -3.68912 0
M  V30 3215 H 298.783 -3.48787 -2.43367 0
M  V30 3216 N 297.098 0.621204 -1.44841 0
M  V30 3217 C 298.375 1.38 -1.38619 0
M  V30 3218 C 298.755 2.11041 -0.0498935 0
M  V30 3219 O 298.103 2.06992 0.967816 0
M  V30 3220 C 298.313 2.33817 -2.59096 0
M  V30 3221 C 299.661 2.96844 -3.03593 0
M  V30 3222 O 300.685 2.44141 -2.59371 0
M  V30 3223 O 299.544 3.92476 -3.80296 0
M  V30 3224 H 296.638 0.61811 -0.549426 0
M  V30 3225 H 299.184 0.645429 -1.56947 0
M  V30 3226 H 297.956 1.79012 -3.47952 0
M  V30 3227 H 297.579 3.14676 -2.43032 0
M  V30 3228 N 298.576 1.31904 0.862503 0
M  V30 3229 C 299.824 1.21776 1.61292 0
M  V30 3230 C 300.145 -0.222413 1.93727 0
M  V30 3231 O 299.415 -1.1451 1.58947 0
M  V30 3232 H 297.995 0.447717 0.597962 0
M  V30 3233 H 300.657 1.65326 1.03215 0
M  V30 3234 H 299.753 1.7948 2.5533 0
M  V30 3235 N 300.054 -1.07777 1.14986 0
M  V30 3236 C 301.284 -1.83752 0.944402 0
M  V30 3237 C 301.692 -1.8218 -0.51058 0
M  V30 3238 O 301.035 -1.22852 -1.36576 0
M  V30 3239 C 301.097 -3.32128 1.37592 0
M  V30 3240 C 300.761 -3.57425 2.84775 0
M  V30 3241 C 301.758 -3.5173 3.8286 0
M  V30 3242 C 299.443 -3.8523 3.2234 0
M  V30 3243 C 301.437 -3.73482 5.16517 0
M  V30 3244 C 299.124 -4.06634 4.56171 0
M  V30 3245 C 300.122 -4.00754 5.53069 0
M  V30 3246 O 299.81 -4.2159 6.84483 0
M  V30 3247 H 299.542 -0.58673 0.335744 0
M  V30 3248 H 302.096 -1.36982 1.53052 0
M  V30 3249 H 300.326 -3.79686 0.733165 0
M  V30 3250 H 302.015 -3.89555 1.14024 0
M  V30 3251 H 302.781 -3.30256 3.55184 0
M  V30 3252 H 298.66 -3.88923 2.47508 0
M  V30 3253 H 302.204 -3.68808 5.92137 0
M  V30 3254 H 298.101 -4.27593 4.83564 0
M  V30 3255 H 298.869 -4.38961 6.90837 0
M  V30 3256 N 301.532 -0.945985 -1.26051 0
M  V30 3257 C 302.76 -0.613025 -1.9761 0
M  V30 3258 C 303.175 0.813035 -1.70397 0
M  V30 3259 O 302.532 1.54274 -0.974979 0
M  V30 3260 C 302.583 -0.85159 -3.51326 0
M  V30 3261 O 302.304 -2.22157 -3.77595 0
M  V30 3262 C 303.805 -0.529831 -4.40122 0
M  V30 3263 H 301.025 -0.230593 -0.630133 0
M  V30 3264 H 303.569 -1.268 -1.60443 0
M  V30 3265 H 301.724 -0.243151 -3.86636 0
M  V30 3266 H 302.138 -2.2852 -4.721 0
M  V30 3267 H 303.612 -0.747348 -5.46917 0
M  V30 3268 H 304.089 0.535341 -4.35925 0
M  V30 3269 H 304.695 -1.11721 -4.10364 0
M  V30 3270 N 303.011 1.40521 -0.713556 0
M  V30 3271 C 303.974 2.29098 -0.0684347 0
M  V30 3272 C 304.974 1.45268 0.689472 0
M  V30 3273 O 306.164 1.66205 0.521677 0
M  V30 3274 C 303.296 3.28446 0.913024 0
M  V30 3275 H 304.489 2.87645 -0.84855 0
M  V30 3276 H 302.042 1.48809 -0.47809 0
M  V30 3277 H 302.777 2.74913 1.72027 0
M  V30 3278 H 302.562 3.90327 0.372472 0
M  V30 3279 H 304.052 3.94777 1.36165 0
M  V30 3280 N 304.489 0.459591 1.5075 0
M  V30 3281 C 305.735 -0.091664 2.03193 0
M  V30 3282 C 306.09 -1.38432 1.3362 0
M  V30 3283 O 305.383 -1.86257 0.449322 0
M  V30 3284 C 305.577 -0.342866 3.55752 0
M  V30 3285 C 305.406 0.923888 4.40107 0
M  V30 3286 C 304.176 1.46388 4.83631 0
M  V30 3287 C 306.374 1.81617 4.81165 0
M  V30 3288 N 304.356 2.68086 5.52271 0
M  V30 3289 C 305.727 2.87907 5.49099 0
M  V30 3290 C 307.782 1.82793 4.63132 0
M  V30 3291 C 306.485 3.95347 6.0091 0
M  V30 3292 C 308.511 2.89182 5.15876 0
M  V30 3293 C 307.873 3.94191 5.83774 0
M  V30 3294 H 303.972 0.00619247 0.781975 0
M  V30 3295 H 306.556 0.625233 1.84388 0
M  V30 3296 H 304.727 -1.0288 3.74527 0
M  V30 3297 H 306.459 -0.887445 3.9485 0
M  V30 3298 H 303.214 1.01466 4.62603 0
M  V30 3299 H 303.638 3.29857 5.91205 0
M  V30 3300 H 308.28 1.0293 4.1008 0
M  V30 3301 H 305.998 4.76035 6.53006 0
M  V30 3302 H 309.584 2.91061 5.0376 0
M  V30 3303 H 308.464 4.75161 6.23853 0
M  V30 3304 N 305.967 -1.56429 0.191757 0
M  V30 3305 C 306.897 -2.21937 -0.725696 0
M  V30 3306 C 307.878 -1.1814 -1.2238 0
M  V30 3307 O 309.063 -1.46636 -1.27325 0
M  V30 3308 C 306.193 -2.87611 -1.94672 0
M  V30 3309 C 305.147 -3.97623 -1.58366 0
M  V30 3310 C 304.473 -4.50446 -2.88102 0
M  V30 3311 C 305.773 -5.16197 -0.796133 0
M  V30 3312 H 307.467 -2.98861 -0.179606 0
M  V30 3313 H 305.013 -1.43749 -0.0849464 0
M  V30 3314 H 306.966 -3.3212 -2.59373 0
M  V30 3315 H 305.69 -2.08087 -2.51728 0
M  V30 3316 H 304.349 -3.53801 -0.960247 0
M  V30 3317 H 303.997 -3.67688 -3.43241 0
M  V30 3318 H 303.697 -5.24675 -2.64556 0
M  V30 3319 H 305.221 -4.97654 -3.53798 0
M  V30 3320 H 306.635 -5.57271 -1.34618 0
M  V30 3321 H 305.032 -5.96471 -0.658928 0
M  V30 3322 H 306.102 -4.84473 0.203478 0
M  V30 3323 N 307.445 0.0818655 -1.57387 0
M  V30 3324 C 308.377 1.12484 -1.997 0
M  V30 3325 C 309.39 1.35564 -0.90146 0
M  V30 3326 O 310.579 1.33982 -1.17945 0
M  V30 3327 C 307.679 2.47778 -2.31213 0
M  V30 3328 C 306.852 2.44793 -3.62485 0
M  V30 3329 C 305.911 3.62117 -3.81782 0
M  V30 3330 O 304.937 3.44005 -4.53486 0
M  V30 3331 N 306.139 4.82094 -3.23367 0
M  V30 3332 H 308.904 0.764585 -2.89783 0
M  V30 3333 H 306.465 0.270664 -1.59621 0
M  V30 3334 H 308.457 3.24891 -2.41304 0
M  V30 3335 H 307.027 2.75843 -1.4707 0
M  V30 3336 H 306.247 1.53134 -3.6324 0
M  V30 3337 H 307.535 2.39889 -4.48699 0
M  V30 3338 H 306.933 4.99713 -2.65148 0
M  V30 3339 H 305.49 5.56753 -3.38923 0
M  V30 3340 N 308.923 1.53595 0.353017 0
M  V30 3341 C 309.871 1.81605 1.45335 0
M  V30 3342 C 310.865 0.685923 1.54892 0
M  V30 3343 O 312.071 0.869095 1.57628 0
M  V30 3344 H 308.446 0.575204 0.484401 0
M  V30 3345 H 310.417 2.73679 1.18921 0
M  V30 3346 C 309.166 2.03406 2.81995 0
M  V30 3347 H 308.489 2.89814 2.75405 0
M  V30 3348 H 309.929 2.26975 3.58132 0
M  V30 3349 C 308.388 0.816794 3.26849 0
M  V30 3350 O 308.918 0.0115856 4.01698 0
M  V30 3351 N 307.124 0.636682 2.8354 0
M  V30 3352 H 306.671 1.2931 2.22793 0
M  V30 3353 H 306.629 -0.176336 3.13905 0
M  V30 3354 N 310.401 -0.613514 1.45168 0
M  V30 3355 C 311.334 -1.73809 1.47871 0
M  V30 3356 C 312.312 -1.59097 0.33568 0
M  V30 3357 O 313.496 -1.8074 0.535299 0
M  V30 3358 C 310.623 -3.11574 1.32813 0
M  V30 3359 C 309.669 -3.4489 2.50905 0
M  V30 3360 S 310.502 -3.40393 4.13392 0
M  V30 3361 C 311.658 -4.80749 4.00789 0
M  V30 3362 H 311.891 -1.71252 2.43023 0
M  V30 3363 H 309.424 -0.789658 1.32679 0
M  V30 3364 H 311.382 -3.91065 1.24812 0
M  V30 3365 H 310.043 -3.11652 0.391418 0
M  V30 3366 H 309.236 -4.45183 2.36279 0
M  V30 3367 H 308.838 -2.72901 2.55736 0
M  V30 3368 H 311.13 -5.7041 3.65567 0
M  V30 3369 H 312.073 -5.00431 5.00974 0
M  V30 3370 H 312.481 -4.56151 3.32545 0
M  V30 3371 N 311.879 -1.3236 -0.855495 0
M  V30 3372 C 312.842 -1.21164 -1.94556 0
M  V30 3373 C 313.842 -0.134908 -1.60233 0
M  V30 3374 O 315.032 -0.385249 -1.69887 0
M  V30 3375 C 312.164 -0.863192 -3.29791 0
M  V30 3376 H 313.357 -2.18038 -2.05911 0
M  V30 3377 H 310.91 -1.16179 -1.04557 0
M  V30 3378 H 311.645 0.103769 -3.24134 0
M  V30 3379 H 311.43 -1.64166 -3.56078 0
M  V30 3380 H 312.92 -0.809156 -4.09686 0
M  V30 3381 N 313.357 1.07166 -1.15556 0
M  V30 3382 C 314.32 2.12589 -0.856644 0
M  V30 3383 C 315.32 1.6015 0.14444 0
M  V30 3384 O 316.51 1.7399 -0.0854163 0
M  V30 3385 C 313.642 3.39753 -0.279405 0
M  V30 3386 H 314.835 2.40539 -1.79112 0
M  V30 3387 H 312.388 1.23086 -0.963298 0
M  V30 3388 H 313.123 3.17447 0.663174 0
M  V30 3389 H 312.908 3.79117 -1.00063 0
M  V30 3390 H 314.398 4.17507 -0.0879113 0
M  V30 3391 N 314.835 0.952656 1.25548 0
M  V30 3392 C 316.112 0.523818 1.88456 0
M  V30 3393 C 316.492 -0.998871 1.85973 0
M  V30 3394 O 315.84 -1.86381 1.3219 0
M  V30 3395 C 316.05 1.0982 3.31271 0
M  V30 3396 C 317.398 1.17385 4.08051 0
M  V30 3397 O 318.422 1.04961 3.40384 0
M  V30 3398 O 317.281 1.36852 5.29088 0
M  V30 3399 H 314.375 0.172485 0.808813 0
M  V30 3400 H 316.921 1.04596 1.33633 0
M  V30 3401 H 315.693 2.1415 3.27499 0
M  V30 3402 H 315.316 0.559191 3.93648 0
M  V30 3403 N 316.313 -1.40141 0.720998 0
M  V30 3404 C 317.263 -2.27949 0.0482544 0
M  V30 3405 C 318.247 -1.43538 -0.727021 0
M  V30 3406 O 319.439 -1.6658 -0.598332 0
M  V30 3407 C 316.568 -3.32126 -0.868729 0
M  V30 3408 C 315.654 -4.24008 -0.0883515 0
M  V30 3409 N 316.045 -4.97154 0.931226 0
M  V30 3410 C 314.343 -4.4485 -0.320105 0
M  V30 3411 C 315.044 -5.64587 1.4006 0
M  V30 3412 N 314.02 -5.38787 0.721752 0
M  V30 3413 H 317.822 -2.81948 0.829609 0
M  V30 3414 H 315.336 -1.52656 0.554067 0
M  V30 3415 H 317.333 -3.93884 -1.36605 0
M  V30 3416 H 315.993 -2.79687 -1.6494 0
M  V30 3417 H 317.004 -5.01 1.31222 0
M  V30 3418 H 313.681 -4.03378 -1.07668 0
M  V30 3419 H 315.071 -6.33175 2.24808 0
M  V30 3420 N 317.792 -0.46758 -1.50504 0
M  V30 3421 C 319.208 -0.121533 -1.59137 0
M  V30 3422 C 319.408 1.3717 -1.47603 0
M  V30 3423 O 318.464 2.14464 -1.33272 0
M  V30 3424 C 319.777 -0.6686 -2.93173 0
M  V30 3425 C 321.325 -0.631716 -3.06559 0
M  V30 3426 C 321.8 -1.15627 -4.43164 0
M  V30 3427 N 323.291 -1.11553 -4.49567 0
M  V30 3428 C 324.026 -1.49195 -5.5365 0
M  V30 3429 N 323.522 -1.94269 -6.65005 0
M  V30 3430 N 325.315 -1.4082 -5.44175 0
M  V30 3431 H 317.466 -1.4388 -1.56245 0
M  V30 3432 H 319.729 -0.594784 -0.738198 0
M  V30 3433 H 319.435 -1.71453 -3.07078 0
M  V30 3434 H 319.309 -0.11021 -3.77039 0
M  V30 3435 H 321.696 0.405297 -2.92304 0
M  V30 3436 H 321.777 -1.22687 -2.24458 0
M  V30 3437 H 321.421 -2.1919 -4.58168 0
M  V30 3438 H 321.351 -0.537365 -5.23851 0
M  V30 3439 H 323.842 -0.784895 -3.69659 0
M  V30 3440 H 324.155 -2.21148 -7.40482 0
M  V30 3441 H 322.5 -1.98219 -6.66134 0
M  V30 3442 H 325.691 -1.0545 -4.56068 0
M  V30 3443 H 325.864 -1.70481 -6.25172 0
M  V30 3444 N 319.27 1.56325 -0.20005 0
M  V30 3445 C 320.519 1.96895 0.437652 0
M  V30 3446 C 320.832 1.08999 1.62415 0
M  V30 3447 O 322.038 1.39372 2.32997 0
M  V30 3448 C 320.494 3.50198 0.830025 0
M  V30 3449 C 320.102 4.46765 -0.332461 0
M  V30 3450 C 321.846 3.99526 1.43453 0
M  V30 3451 C 319.753 5.91344 0.0811468 0
M  V30 3452 H 318.683 0.735209 0.167282 0
M  V30 3453 H 321.334 1.81148 -0.292853 0
M  V30 3454 H 319.716 3.61467 1.61734 0
M  V30 3455 H 320.89 4.47231 -1.11 0
M  V30 3456 H 319.205 4.07657 -0.848789 0
M  V30 3457 H 321.802 5.05025 1.75652 0
M  V30 3458 H 322.145 3.44122 2.34277 0
M  V30 3459 H 322.678 3.91393 0.71109 0
M  V30 3460 H 319.417 6.50685 -0.793033 0
M  V30 3461 H 318.937 5.94121 0.823445 0
M  V30 3462 H 320.616 6.44945 0.515252 0
M  V30 3463 N 320.748 -0.0735177 1.57428 0
M  V30 3464 C 321.658 -1.10547 2.06922 0
M  V30 3465 C 322.674 -1.42506 0.998402 0
M  V30 3466 O 323.85 -1.52717 1.31299 0
M  V30 3467 C 320.915 -2.40019 2.50184 0
M  V30 3468 C 319.976 -2.15046 3.71556 0
M  V30 3469 C 319.209 -3.38345 4.12745 0
M  V30 3470 O 319.432 -4.47399 3.53822 0
M  V30 3471 O 318.366 -3.2666 5.05546 0
M  V30 3472 H 322.192 -0.715013 2.95163 0
M  V30 3473 H 319.777 -0.287531 1.46607 0
M  V30 3474 H 321.659 -3.16218 2.78539 0
M  V30 3475 H 320.334 -2.78447 1.65072 0
M  V30 3476 H 319.241 -1.36558 3.48285 0
M  V30 3477 H 320.574 -1.81499 4.57514 0
M  V30 3478 N 322.226 -1.5378 -0.344866 0
M  V30 3479 C 323.472 -1.71216 -1.08687 0
M  V30 3480 C 323.805 -0.473281 -1.88345 0
M  V30 3481 O 323.08 0.52968 -1.87149 0
M  V30 3482 C 323.363 -2.97486 -2.02914 0
M  V30 3483 C 323.216 -4.31579 -1.26727 0
M  V30 3484 C 324.535 -3.19422 -3.0275 0
M  V30 3485 H 321.654 -0.62301 -0.393735 0
M  V30 3486 H 324.296 -1.8645 -0.365563 0
M  V30 3487 H 322.446 -2.84629 -2.64421 0
M  V30 3488 H 324.118 -4.56284 -0.67845 0
M  V30 3489 H 322.361 -4.30049 -0.569273 0
M  V30 3490 H 323.032 -5.16106 -1.95803 0
M  V30 3491 H 325.508 -3.316 -2.51357 0
M  V30 3492 H 324.384 -4.09169 -3.65885 0
M  V30 3493 H 324.645 -2.35656 -3.74057 0
M  V30 3494 N 323.704 0.605807 -1.45491 0
M  V30 3495 C 325.12 0.926751 -1.29936 0
M  V30 3496 C 325.32 1.99896 -0.253706 0
M  V30 3497 O 324.376 2.50038 0.351737 0
M  V30 3498 C 325.689 1.36599 -2.67883 0
M  V30 3499 C 327.237 1.4801 -2.75793 0
M  V30 3500 C 327.712 1.95309 -4.14268 0
M  V30 3501 N 329.203 2.0254 -4.16571 0
M  V30 3502 C 329.938 2.40363 -5.20589 0
M  V30 3503 N 329.434 2.77143 -6.34952 0
M  V30 3504 N 331.227 2.40718 -5.07948 0
M  V30 3505 H 323.378 -0.102862 -2.12151 0
M  V30 3506 H 325.641 0.016639 -0.947854 0
M  V30 3507 H 325.347 0.652306 -3.45598 0
M  V30 3508 H 325.221 2.33215 -2.96463 0
M  V30 3509 H 327.608 2.1847 -1.98381 0
M  V30 3510 H 327.689 0.497041 -2.50925 0
M  V30 3511 H 327.333 1.25436 -4.92167 0
M  V30 3512 H 327.263 2.94532 -4.3653 0
M  V30 3513 H 329.754 1.76699 -3.34045 0
M  V30 3514 H 330.067 3.0489 -7.10114 0
M  V30 3515 H 328.412 2.74834 -6.3835 0
M  V30 3516 H 331.603 2.11392 -4.1765 0
M  V30 3517 H 331.776 2.69869 -5.89131 0
M  V30 3518 N 325.182 1.32811 0.848464 0
M  V30 3519 C 326.112 1.24882 1.97299 0
M  V30 3520 C 327.093 0.131357 1.69592 0
M  V30 3521 O 328.278 0.319553 1.91553 0
M  V30 3522 C 325.408 0.97746 3.33261 0
M  V30 3523 C 324.362 2.05682 3.75338 0
M  V30 3524 C 323.688 1.63777 5.09 0
M  V30 3525 C 324.988 3.47254 3.90144 0
M  V30 3526 H 326.682 2.18966 2.04191 0
M  V30 3527 H 324.228 1.05413 0.981029 0
M  V30 3528 H 326.181 0.908513 4.1149 0
M  V30 3529 H 324.905 0.000980011 3.266 0
M  V30 3530 H 323.564 2.11603 2.99366 0
M  V30 3531 H 323.212 0.648569 4.98801 0
M  V30 3532 H 322.912 2.36 5.38124 0
M  V30 3533 H 324.436 1.5833 5.89715 0
M  V30 3534 H 325.85 3.43888 4.58709 0
M  V30 3535 H 324.247 4.1788 4.30693 0
M  V30 3536 H 325.317 3.86462 2.92874 0
M  V30 3537 N 326.66 -1.06551 1.16123 0
M  V30 3538 C 327.608 -2.16063 0.861371 0
M  V30 3539 C 328.602 -1.6856 -0.168517 0
M  V30 3540 O 329.808 -1.79986 -0.0227579 0
M  V30 3541 H 326.183 -0.705278 0.260934 0
M  V30 3542 H 328.154 -2.38567 1.79244 0
M  V30 3543 C 326.903 -3.45661 0.376018 0
M  V30 3544 H 326.226 -3.82604 1.15992 0
M  V30 3545 H 327.666 -4.23504 0.204951 0
M  V30 3546 C 326.125 -3.24546 -0.903954 0
M  V30 3547 O 326.655 -3.49865 -1.97377 0
M  V30 3548 N 324.861 -2.77992 -0.846679 0
M  V30 3549 H 324.408 -2.57589 0.0241017 0
M  V30 3550 H 324.366 -2.64244 -1.70359 0
M  V30 3551 N 328.138 -0.959301 -1.25041 0
M  V30 3552 C 329.366 -0.633949 -1.96948 0
M  V30 3553 C 329.781 0.794916 -1.7125 0
M  V30 3554 O 329.138 1.53231 -0.991287 0
M  V30 3555 C 329.189 -0.888805 -3.50403 0
M  V30 3556 O 328.91 -2.26149 -3.75218 0
M  V30 3557 C 330.411 -0.576482 -4.39536 0
M  V30 3558 H 327.631 -0.237263 -0.627652 0
M  V30 3559 H 330.175 -1.28495 -1.59089 0
M  V30 3560 H 328.33 -0.284145 -3.86357 0
M  V30 3561 H 328.744 -2.33514 -4.6965 0
M  V30 3562 H 330.218 -0.805314 -5.46094 0
M  V30 3563 H 330.695 0.489075 -4.36468 0
M  V30 3564 H 331.301 -1.16067 -4.09156 0
M  V30 3565 N 329.616 1.39756 -0.72842 0
M  V30 3566 C 330.893 1.94574 -0.200079 0
M  V30 3567 C 331.273 1.66569 1.29684 0
M  V30 3568 O 330.621 0.990326 2.05924 0
M  V30 3569 C 330.831 3.45004 -0.526608 0
M  V30 3570 C 332.179 4.21965 -0.472318 0
M  V30 3571 O 333.203 3.53173 -0.463413 0
M  V30 3572 O 332.062 5.44552 -0.461075 0
M  V30 3573 H 329.156 0.826289 -0.0342851 0
M  V30 3574 H 331.702 1.49293 -0.806829 0
M  V30 3575 H 330.474 3.58796 -1.56144 0
M  V30 3576 H 330.097 3.97449 0.109449 0
M  V30 3577 N 331.094 0.475555 1.50254 0
M  V30 3578 C 332.34 -0.0701075 2.03279 0
M  V30 3579 C 332.695 -1.37007 1.35081 0
M  V30 3580 O 331.988 -1.8577 0.469052 0
M  V30 3581 C 332.182 -0.305114 3.56095 0
M  V30 3582 C 332.011 0.970515 4.39103 0
M  V30 3583 C 330.781 1.51509 4.82051 0
M  V30 3584 C 332.979 1.8671 4.79212 0
M  V30 3585 N 330.961 2.73928 5.49397 0
M  V30 3586 C 332.332 2.93715 5.46014 0
M  V30 3587 C 334.387 1.87695 4.61167 0
M  V30 3588 C 333.09 4.01699 5.96683 0
M  V30 3589 C 335.116 2.94637 5.12779 0
M  V30 3590 C 334.478 4.00361 5.79561 0
M  V30 3591 H 330.577 0.014486 0.781866 0
M  V30 3592 H 333.161 0.644755 1.83714 0
M  V30 3593 H 331.332 -0.989019 3.75597 0
M  V30 3594 H 333.064 -0.845516 3.95769 0
M  V30 3595 H 329.819 1.06367 4.61501 0
M  V30 3596 H 330.243 3.36109 5.87673 0
M  V30 3597 H 334.885 1.07273 4.08965 0
M  V30 3598 H 332.603 4.82934 6.4792 0
M  V30 3599 H 336.189 2.96388 5.00645 0
M  V30 3600 H 335.069 4.81751 6.18778 0
M  V30 3601 N 332.573 -1.56217 0.208337 0
M  V30 3602 C 333.82 -1.97949 -0.42692 0
M  V30 3603 C 334.148 -1.09562 -1.60706 0
M  V30 3604 O 333.403 -0.137616 -1.95216 0
M  V30 3605 C 333.702 -3.45441 -0.916797 0
M  V30 3606 C 333.368 -4.50646 0.151391 0
M  V30 3607 C 332.03 -4.79139 0.444867 0
M  V30 3608 C 334.382 -5.13811 0.874492 0
M  V30 3609 C 331.71 -5.68084 1.46619 0
M  V30 3610 C 334.062 -6.03861 1.88506 0
M  V30 3611 C 332.726 -6.30704 2.18559 0
M  V30 3612 H 331.996 -0.724345 -0.156221 0
M  V30 3613 H 334.643 -1.89006 0.308084 0
M  V30 3614 H 332.948 -3.51521 -1.73032 0
M  V30 3615 H 334.645 -3.75094 -1.41794 0
M  V30 3616 H 331.235 -4.28511 -0.0875068 0
M  V30 3617 H 335.419 -4.91879 0.660996 0
M  V30 3618 H 330.675 -5.87151 1.7048 0
M  V30 3619 H 334.849 -6.51861 2.45051 0
M  V30 3620 H 332.476 -6.99424 2.97843 0
M  V30 3621 N 334.051 0.0651679 -1.57465 0
M  V30 3622 C 335.328 0.79644 -1.78651 0
M  V30 3623 C 335.708 1.95454 -0.797566 0
M  V30 3624 O 335.056 2.27882 0.167946 0
M  V30 3625 C 335.266 1.26322 -3.25337 0
M  V30 3626 C 336.614 1.6939 -3.89348 0
M  V30 3627 O 337.638 1.35872 -3.29268 0
M  V30 3628 O 336.497 2.31471 -4.95059 0
M  V30 3629 H 333.591 0.382157 -0.733407 0
M  V30 3630 H 336.137 0.0447311 -1.69641 0
M  V30 3631 H 334.909 0.434859 -3.88876 0
M  V30 3632 H 334.532 2.07604 -3.39096 0
M  V30 3633 N 335.529 1.53961 0.336706 0
M  V30 3634 C 336.775 1.7179 1.07777 0
M  V30 3635 C 337.108 0.483263 1.88091 0
M  V30 3636 O 336.383 -0.519747 1.87427 0
M  V30 3637 C 336.666 2.98558 2.01334 0
M  V30 3638 C 336.519 4.32245 1.24437 0
M  V30 3639 C 337.838 3.21023 3.01052 0
M  V30 3640 H 334.957 0.625089 0.390426 0
M  V30 3641 H 337.599 1.86641 0.35567 0
M  V30 3642 H 335.749 2.86028 2.62908 0
M  V30 3643 H 337.421 4.56637 0.654243 0
M  V30 3644 H 335.664 4.30344 0.546458 0
M  V30 3645 H 336.335 5.17137 1.93063 0
M  V30 3646 H 338.811 3.32929 2.49595 0
M  V30 3647 H 337.687 4.11104 3.6371 0
M  V30 3648 H 337.948 2.37637 3.72802 0
M  V30 3649 N 337.007 -0.598083 1.45811 0
M  V30 3650 C 338.423 -0.919847 1.30426 0
M  V30 3651 C 338.623 -1.99759 0.264303 0
M  V30 3652 O 337.679 -2.50221 -0.338472 0
M  V30 3653 C 338.992 -1.35176 2.68603 0
M  V30 3654 C 340.54 -1.46546 2.76574 0
M  V30 3655 C 341.015 -1.9311 4.15298 0
M  V30 3656 N 342.506 -2.00328 4.1764 0
M  V30 3657 C 343.241 -2.37599 5.21856 0
M  V30 3658 N 342.737 -2.73771 6.36413 0
M  V30 3659 N 344.53 -2.38021 5.09218 0
M  V30 3660 H 336.681 0.114111 2.12093 0
M  V30 3661 H 338.944 -0.0116121 0.947929 0
M  V30 3662 H 338.65 -0.633969 3.45939 0
M  V30 3663 H 338.524 -2.3164 2.97696 0
M  V30 3664 H 340.911 -2.17415 1.99537 0
M  V30 3665 H 340.992 -0.483727 2.51185 0
M  V30 3666 H 340.636 -1.22824 4.92825 0
M  V30 3667 H 340.566 -2.92213 4.38086 0
M  V30 3668 H 343.057 -1.74925 3.34977 0
M  V30 3669 H 343.37 -3.0112 7.11721 0
M  V30 3670 H 341.715 -2.71445 6.39799 0
M  V30 3671 H 344.906 -2.09174 4.18765 0
M  V30 3672 H 345.079 -2.66741 5.90554 0
M  V30 3673 N 338.485 -1.33259 -0.841409 0
M  V30 3674 C 339.733 -1.24326 -1.59334 0
M  V30 3675 C 340.054 0.191564 -1.94057 0
M  V30 3676 O 339.324 1.11967 -1.60749 0
M  V30 3677 H 337.904 -0.457174 -0.590763 0
M  V30 3678 H 340.566 -1.66947 -1.00571 0
M  V30 3679 H 339.662 -1.8352 -2.52442 0
M  V30 3680 N 339.963 1.05934 -1.16686 0
M  V30 3681 C 340.895 2.13468 -0.834503 0
M  V30 3682 C 341.908 1.62013 0.15984 0
M  V30 3683 O 343.097 1.7838 -0.0654228 0
M  V30 3684 C 340.197 3.3817 -0.222361 0
M  V30 3685 C 339.37 4.18928 -1.25771 0
M  V30 3686 C 338.429 5.21985 -0.664703 0
M  V30 3687 O 337.455 5.53334 -1.33453 0
M  V30 3688 N 338.657 5.77919 0.546834 0
M  V30 3689 H 341.422 2.42578 -1.75999 0
M  V30 3690 H 338.983 1.21967 -1.06469 0
M  V30 3691 H 340.975 4.04266 0.187472 0
M  V30 3692 H 339.545 3.06655 0.606758 0
M  V30 3693 H 338.765 3.48433 -1.84358 0
M  V30 3694 H 340.053 4.69687 -1.95631 0
M  V30 3695 H 339.451 5.54721 1.10912 0
M  V30 3696 H 338.008 6.45573 0.898829 0
M  V30 3697 N 341.441 0.965919 1.2453 0
M  V30 3698 C 342.371 0.513476 2.27784 0
M  V30 3699 C 343.352 -0.445974 1.6415 0
M  V30 3700 O 344.537 -0.342485 1.91156 0
M  V30 3701 C 341.667 -0.198839 3.4673 0
M  V30 3702 C 340.621 0.676456 4.2262 0
M  V30 3703 C 339.947 -0.167248 5.34438 0
M  V30 3704 C 341.247 1.96017 4.84123 0
M  V30 3705 H 342.941 1.3765 2.65881 0
M  V30 3706 H 340.487 0.663321 1.27813 0
M  V30 3707 H 342.44 -0.526567 4.18097 0
M  V30 3708 H 341.164 -1.0962 3.07654 0
M  V30 3709 H 339.823 0.98743 3.53052 0
M  V30 3710 H 339.471 -1.0647 4.91603 0
M  V30 3711 H 339.171 0.415181 5.86131 0
M  V30 3712 H 340.695 -0.489688 6.08633 0
M  V30 3713 H 342.109 1.69814 5.47573 0
M  V30 3714 H 340.506 2.48918 5.4604 0
M  V30 3715 H 341.576 2.65622 4.05676 0
M  V30 3716 N 342.919 -1.39368 0.735821 0
M  V30 3717 C 344.335 -1.54204 0.411492 0
M  V30 3718 C 344.535 -1.70268 -1.07755 0
M  V30 3719 O 343.591 -1.70364 -1.86366 0
M  V30 3720 C 344.904 -2.75925 1.19523 0
M  V30 3721 C 346.452 -2.89761 1.18354 0
M  V30 3722 C 346.927 -4.14421 1.94986 0
M  V30 3723 N 348.418 -4.21462 1.92156 0
M  V30 3724 C 349.153 -5.16871 2.48258 0
M  V30 3725 N 348.649 -6.18063 3.13001 0
M  V30 3726 N 350.442 -5.09093 2.38287 0
M  V30 3727 H 342.593 -1.27189 1.70108 0
M  V30 3728 H 344.856 -0.616517 0.720147 0
M  V30 3729 H 344.562 -2.70401 2.24892 0
M  V30 3730 H 344.436 -3.68614 0.800222 0
M  V30 3731 H 346.823 -2.94777 0.137975 0
M  V30 3732 H 346.904 -1.98133 1.61793 0
M  V30 3733 H 346.548 -4.10166 2.99543 0
M  V30 3734 H 346.478 -5.05095 1.48953 0
M  V30 3735 H 348.969 -3.48979 1.44991 0
M  V30 3736 H 349.282 -6.87326 3.53275 0
M  V30 3737 H 347.627 -6.18448 3.17091 0
M  V30 3738 H 350.818 -4.28973 1.8735 0
M  V30 3739 H 350.991 -5.83272 2.82308 0
M  V30 3740 N 344.397 -0.483516 -1.5 0
M  V30 3741 C 345.808 -0.0314176 -1.86674 0
M  V30 3742 C 346.159 1.37728 -1.39733 0
M  V30 3743 O 345.284 2.02327 -0.767635 0
M  V30 3744 C 345.879 -0.0502376 -3.38763 0
M  V30 3745 C 344.438 0.346442 -3.74802 0
M  V30 3746 C 343.585 -0.430366 -2.7394 0
M  V30 3747 H 346.536 -0.697182 -1.42566 0
M  V30 3748 H 346.557 0.749116 -3.73053 0
M  V30 3749 H 346.069 -1.07563 -3.72897 0
M  V30 3750 H 344.17 1.37572 -3.46273 0
M  V30 3751 H 344.283 0.0391486 -4.79084 0
M  V30 3752 H 342.647 0.117557 -2.54429 0
M  V30 3753 H 343.43 -1.4555 -3.10918 0
M  V30 3754 N 345.875 1.56104 -0.216619 0
M  V30 3755 C 347.123 1.97781 0.415593 0
M  V30 3756 C 347.444 1.10536 1.60645 0
M  V30 3757 O 346.714 0.181303 1.95059 0
M  V30 3758 H 345.294 0.730415 0.156534 0
M  V30 3759 H 347.956 1.92445 -0.308366 0
M  V30 3760 H 347.052 3.03072 0.74525 0
M  V30 3761 N 347.353 -0.0568162 1.57498 0
M  V30 3762 C 348.578 -0.769402 1.92601 0
M  V30 3763 C 349.003 -1.69559 0.814336 0
M  V30 3764 O 348.361 -1.79811 -0.231903 0
M  V30 3765 C 348.409 -1.52634 3.26704 0
M  V30 3766 O 347.513 -2.63797 3.16994 0
M  V30 3767 H 346.854 -0.208909 0.63028 0
M  V30 3768 H 349.384 -0.0205798 2.0459 0
M  V30 3769 H 349.394 -1.90234 3.60936 0
M  V30 3770 H 348.069 -0.846875 4.07186 0
M  V30 3771 H 346.646 -2.28943 2.94346 0
M  V30 3772 N 348.832 -1.54138 -0.328536 0
M  V30 3773 C 350.243 -1.63395 -0.903272 0
M  V30 3774 C 350.594 -0.524828 -1.8905 0
M  V30 3775 O 349.719 0.343068 -2.13663 0
M  V30 3776 C 350.314 -2.9618 -1.64507 0
M  V30 3777 C 348.873 -3.0765 -2.1686 0
M  V30 3778 C 348.02 -2.58933 -0.992416 0
M  V30 3779 H 350.971 -1.58344 -0.106253 0
M  V30 3780 H 350.992 -2.86061 -2.50897 0
M  V30 3781 H 350.504 -3.76884 -0.926302 0
M  V30 3782 H 348.605 -2.31611 -2.91868 0
M  V30 3783 H 348.718 -4.1337 -2.42202 0
M  V30 3784 H 347.082 -2.14706 -1.37016 0
M  V30 3785 H 347.865 -3.42089 -0.288041 0
M  V30 3786 N 350.31 0.590341 -1.46126 0
M  V30 3787 C 351.273 1.68194 -1.55703 0
M  V30 3788 C 352.273 1.54808 -0.434868 0
M  V30 3789 O 353.463 1.59564 -0.698928 0
M  V30 3790 C 350.595 3.07575 -1.47005 0
M  V30 3791 H 351.788 1.61064 -2.52979 0
M  V30 3792 H 349.341 0.807541 -1.33823 0
M  V30 3793 H 350.076 3.20268 -0.509785 0
M  V30 3794 H 349.861 3.187 -2.28414 0
M  V30 3795 H 351.351 3.87055 -1.56776 0
M  V30 3796 N 351.788 1.33704 0.83433 0
M  V30 3797 C 352.751 1.24244 1.92603 0
M  V30 3798 C 353.751 0.160383 1.59998 0
M  V30 3799 O 354.941 0.412228 1.69252 0
M  V30 3800 C 352.073 0.91555 3.28376 0
M  V30 3801 H 353.266 2.21287 2.02416 0
M  V30 3802 H 350.819 1.17827 1.02696 0
M  V30 3803 H 351.554 -0.0521886 3.24258 0
M  V30 3804 H 351.339 1.69811 3.53422 0
M  V30 3805 H 352.829 0.874231 4.08347 0
M  V30 3806 N 353.266 -1.05314 1.17247 0
M  V30 3807 C 354.677 -1.59753 0.96623 0
M  V30 3808 C 355.028 -1.9005 -0.487378 0
M  V30 3809 O 354.153 -1.68126 -1.36245 0
M  V30 3810 C 354.748 -2.90249 1.74759 0
M  V30 3811 C 353.307 -3.41352 1.58606 0
M  V30 3812 C 352.454 -2.15103 1.75002 0
M  V30 3813 H 355.405 -0.881406 1.31973 0
M  V30 3814 H 355.426 -3.60097 1.22925 0
M  V30 3815 H 354.938 -2.68166 2.8055 0
M  V30 3816 H 353.039 -3.68474 0.552985 0
M  V30 3817 H 353.152 -4.16019 2.37624 0
M  V30 3818 H 351.516 -2.25804 1.17833 0
M  V30 3819 H 352.299 -1.95491 2.82202 0
M  V30 3820 N 354.744 -0.972509 -1.24016 0
M  V30 3821 C 355.99 -0.637978 -1.92504 0
M  V30 3822 C 356.323 0.825383 -1.75787 0
M  V30 3823 O 355.598 1.59442 -1.11393 0
M  V30 3824 C 355.881 -1.01942 -3.45369 0
M  V30 3825 C 355.734 -2.53983 -3.71231 0
M  V30 3826 C 357.053 -0.55751 -4.36555 0
M  V30 3827 H 354.172 -0.233248 -0.699117 0
M  V30 3828 H 356.814 -1.21238 -1.46292 0
M  V30 3829 H 354.964 -0.530656 -3.84859 0
M  V30 3830 H 356.636 -3.10374 -3.41271 0
M  V30 3831 H 354.879 -2.96968 -3.16216 0
M  V30 3832 H 355.55 -2.75723 -4.78206 0
M  V30 3833 H 358.026 -0.977029 -4.04467 0
M  V30 3834 H 356.902 -0.85292 -5.42233 0
M  V30 3835 H 357.163 0.542328 -4.38761 0
M  V30 3836 N 356.222 1.38976 -0.743202 0
M  V30 3837 C 357.468 2.0064 -0.295189 0
M  V30 3838 C 357.801 1.5885 1.11716 0
M  V30 3839 O 357.076 0.821181 1.76315 0
M  V30 3840 C 357.359 3.578 -0.406318 0
M  V30 3841 C 357.212 4.09586 -1.85903 0
M  V30 3842 C 358.531 4.39616 0.206439 0
M  V30 3843 H 355.65 0.728935 -0.108733 0
M  V30 3844 H 358.292 1.65067 -0.940897 0
M  V30 3845 H 356.442 3.88235 0.143419 0
M  V30 3846 H 358.114 3.89837 -2.46627 0
M  V30 3847 H 356.357 3.6284 -2.3776 0
M  V30 3848 H 357.028 5.18708 -1.888 0
M  V30 3849 H 359.504 4.15273 -0.262283 0
M  V30 3850 H 358.38 5.48812 0.0983819 0
M  V30 3851 H 358.641 4.22754 1.2935 0
M  V30 3852 N 357.7 0.491464 1.49741 0
M  V30 3853 C 358.93 -0.0534375 2.06531 0
M  V30 3854 C 359.338 -1.32233 1.35318 0
M  V30 3855 O 358.681 -1.78781 0.422243 0
M  V30 3856 C 358.743 -0.387034 3.57411 0
M  V30 3857 C 358.407 0.782764 4.50246 0
M  V30 3858 C 359.404 1.67059 4.92329 0
M  V30 3859 C 357.089 0.978866 4.9267 0
M  V30 3860 C 359.083 2.73874 5.75562 0
M  V30 3861 C 356.77 2.05022 5.75682 0
M  V30 3862 C 357.768 2.92851 6.17031 0
M  V30 3863 O 357.456 3.98138 6.98385 0
M  V30 3864 H 357.188 0.0129324 0.675876 0
M  V30 3865 H 359.742 0.685238 1.93633 0
M  V30 3866 H 357.972 -1.17918 3.68283 0
M  V30 3867 H 359.661 -0.869419 3.96479 0
M  V30 3868 H 360.427 1.53086 4.60206 0
M  V30 3869 H 356.306 0.304646 4.59992 0
M  V30 3870 H 359.85 3.42458 6.07757 0
M  V30 3871 H 355.747 2.18993 6.07217 0
M  V30 3872 H 356.515 3.95374 7.16674 0
M  V30 3873 N 359.178 -1.55987 0.224894 0
M  V30 3874 C 360.406 -2.02784 -0.410665 0
M  V30 3875 C 360.821 -1.10464 -1.53112 0
M  V30 3876 O 360.178 -0.114871 -1.82138 0
M  V30 3877 C 360.229 -3.49087 -0.939165 0
M  V30 3878 O 359.95 -4.37887 0.136614 0
M  V30 3879 C 361.451 -4.11543 -1.64763 0
M  V30 3880 H 358.671 -0.663484 -0.100148 0
M  V30 3881 H 361.215 -2.01614 0.342326 0
M  V30 3882 H 359.37 -3.50861 -1.64242 0
M  V30 3883 H 359.784 -5.23849 -0.261155 0
M  V30 3884 H 361.258 -5.15673 -1.96939 0
M  V30 3885 H 361.735 -3.56736 -2.56195 0
M  V30 3886 H 362.341 -4.13629 -0.989503 0
M  V30 3887 N 360.656 0.0484629 -1.57525 0
M  V30 3888 C 361.904 0.741657 -1.88 0
M  V30 3889 C 362.225 1.76918 -0.820054 0
M  V30 3890 O 361.495 1.95335 0.148661 0
M  V30 3891 H 360.075 0.276908 -0.69378 0
M  V30 3892 H 362.737 0.019013 -1.94891 0
M  V30 3893 H 361.833 1.24336 -2.86264 0
M  V30 3894 N 362.134 1.5431 0.320358 0
M  V30 3895 C 363.545 1.63872 0.894594 0
M  V30 3896 C 363.896 0.534847 1.88769 0
M  V30 3897 O 363.021 -0.331732 2.13842 0
M  V30 3898 C 363.616 2.97049 1.62934 0
M  V30 3899 C 362.175 3.08796 2.15226 0
M  V30 3900 C 361.322 2.59456 0.978671 0
M  V30 3901 H 364.273 1.58398 0.0978544 0
M  V30 3902 H 364.294 2.87388 2.49376 0
M  V30 3903 H 363.806 3.7737 0.906302 0
M  V30 3904 H 361.907 2.33156 2.90636 0
M  V30 3905 H 362.02 4.14649 2.40006 0
M  V30 3906 H 360.384 2.1543 1.35875 0
M  V30 3907 H 361.167 3.42237 0.269895 0
M  V30 3908 N 363.613 -0.582584 1.46437 0
M  V30 3909 C 364.543 -1.70187 1.59871 0
M  V30 3910 C 365.524 -1.64066 0.449042 0
M  V30 3911 O 366.709 -1.82081 0.6753 0
M  V30 3912 C 363.839 -3.08827 1.58881 0
M  V30 3913 C 362.793 -3.29779 2.72819 0
M  V30 3914 C 362.119 -4.68947 2.5689 0
M  V30 3915 C 363.419 -3.17601 4.1464 0
M  V30 3916 H 365.113 -1.592 2.53566 0
M  V30 3917 H 362.659 -0.764472 1.22032 0
M  V30 3918 H 364.612 -3.86951 1.66873 0
M  V30 3919 H 363.336 -3.20713 0.617306 0
M  V30 3920 H 361.995 -2.54054 2.64296 0
M  V30 3921 H 361.643 -4.77599 1.57823 0
M  V30 3922 H 361.343 -4.83919 3.33312 0
M  V30 3923 H 362.867 -5.4924 2.66773 0
M  V30 3924 H 364.281 -3.8557 4.24274 0
M  V30 3925 H 362.678 -3.44094 4.9165 0
M  V30 3926 H 363.748 -2.14681 4.34788 0
M  V30 3927 N 365.091 -1.34144 -0.827227 0
M  V30 3928 C 366.368 -1.16844 -1.56865 0
M  V30 3929 C 366.748 0.260654 -2.09485 0
M  V30 3930 O 366.096 1.26138 -1.9053 0
M  V30 3931 C 366.306 -2.21939 -2.6934 0
M  V30 3932 C 367.654 -2.56695 -3.3822 0
M  V30 3933 O 368.678 -2.20695 -2.79593 0
M  V30 3934 O 367.537 -3.18518 -4.44082 0
M  V30 3935 H 364.631 -0.452669 -0.692112 0
M  V30 3936 H 367.177 -1.45763 -0.868973 0
M  V30 3937 H 365.949 -3.17882 -2.28182 0
M  V30 3938 H 365.572 -1.94172 -3.46962 0
M  V30 3939 N 366.569 1.04691 -1.17803 0
M  V30 3940 C 367.985 1.29963 -0.926379 0
M  V30 3941 C 368.185 1.97251 0.411635 0
M  V30 3942 O 367.241 2.24922 1.14744 0
M  V30 3943 C 368.554 2.16447 -2.08737 0
M  V30 3944 C 370.102 2.29814 -2.12496 0
M  V30 3945 C 370.577 3.19661 -3.27995 0
M  V30 3946 N 372.068 3.27247 -3.27816 0
M  V30 3947 C 372.803 3.96906 -4.13827 0
M  V30 3948 N 372.299 4.6895 -5.09959 0
M  V30 3949 N 374.092 3.93122 -4.01761 0
M  V30 3950 H 366.243 0.594182 -2.0392 0
M  V30 3951 H 368.506 0.324649 -0.890678 0
M  V30 3952 H 368.212 1.74304 -3.05469 0
M  V30 3953 H 368.086 3.17103 -2.04268 0
M  V30 3954 H 370.473 2.71196 -1.16347 0
M  V30 3955 H 370.554 1.2877 -2.21025 0
M  V30 3956 H 370.198 2.78991 -4.24413 0
M  V30 3957 H 370.128 4.20722 -3.16703 0
M  V30 3958 H 372.619 2.75921 -2.58217 0
M  V30 3959 H 372.932 5.19679 -5.71974 0
M  V30 3960 H 371.277 4.67875 -5.13924 0
M  V30 3961 H 374.468 3.35967 -3.2595 0
M  V30 3962 H 374.641 4.47139 -4.6901 0
M  V30 3963 N 368.047 0.979072 1.23499 0
M  V30 3964 C 369.277 0.664237 1.95631 0
M  V30 3965 C 369.685 -0.772653 1.72704 0
M  V30 3966 O 369.028 -1.53141 1.01457 0
M  V30 3967 C 369.09 0.873115 3.48736 0
M  V30 3968 C 368.754 2.29182 3.95379 0
M  V30 3969 C 369.751 3.2704 4.04155 0
M  V30 3970 C 367.436 2.62256 4.28401 0
M  V30 3971 C 369.43 4.56052 4.45304 0
M  V30 3972 C 367.117 3.91491 4.69231 0
M  V30 3973 C 368.115 4.88201 4.77649 0
M  V30 3974 O 367.803 6.15129 5.17563 0
M  V30 3975 H 367.535 0.245915 0.629684 0
M  V30 3976 H 370.089 1.3127 1.57979 0
M  V30 3977 H 368.319 0.167476 3.86337 0
M  V30 3978 H 370.008 0.555642 4.02079 0
M  V30 3979 H 370.774 3.02819 3.78848 0
M  V30 3980 H 366.653 1.87692 4.21061 0
M  V30 3981 H 370.197 5.31538 4.51789 0
M  V30 3982 H 366.094 4.15508 4.93987 0
M  V30 3983 H 366.862 6.18862 5.35679 0
M  V30 3984 N 369.525 -1.3858 0.750561 0
M  V30 3985 C 370.772 -2.00184 0.305373 0
M  V30 3986 C 371.1 -1.59575 -1.11203 0
M  V30 3987 O 370.355 -0.823236 -1.77542 0
M  V30 3988 C 370.654 -3.55455 0.372373 0
M  V30 3989 C 370.32 -4.15765 1.745 0
M  V30 3990 C 368.982 -4.31951 2.12065 0
M  V30 3991 C 371.334 -4.49067 2.64553 0
M  V30 3992 C 368.662 -4.78734 3.39162 0
M  V30 3993 C 371.014 -4.97265 3.91038 0
M  V30 3994 C 369.678 -5.11658 4.28676 0
M  V30 3995 H 368.948 -0.732526 0.111744 0
M  V30 3996 H 371.595 -1.65673 0.960451 0
M  V30 3997 H 369.9 -3.90084 -0.366272 0
M  V30 3998 H 371.597 -4.00999 0.00953918 0
M  V30 3999 H 368.187 -4.03579 1.44297 0
M  V30 4000 H 372.371 -4.36166 2.36796 0
M  V30 4001 H 367.627 -4.88062 3.68246 0
M  V30 4002 H 371.801 -5.22003 4.60962 0
M  V30 4003 H 369.428 -5.47668 5.27222 0
M  V30 4004 N 371.003 -0.499398 -1.49478 0
M  V30 4005 C 372.28 0.108629 -1.95298 0
M  V30 4006 C 372.66 1.54282 -1.44084 0
M  V30 4007 O 372.008 2.18944 -0.653908 0
M  V30 4008 C 372.218 0.0229111 -3.48992 0
M  V30 4009 C 373.566 0.197643 -4.2414 0
M  V30 4010 O 374.59 0.0981735 -3.56065 0
M  V30 4011 O 373.449 0.401669 -5.45022 0
M  V30 4012 H 370.543 0.096181 -0.821388 0
M  V30 4013 H 373.089 -0.561822 -1.6013 0
M  V30 4014 H 371.861 -0.977321 -3.78899 0
M  V30 4015 H 371.484 0.733579 -3.90774 0
M  V30 4016 N 372.481 1.55866 -0.233164 0
M  V30 4017 C 373.711 2.02704 0.399325 0
M  V30 4018 C 374.119 1.11204 1.53069 0
M  V30 4019 O 373.462 0.116182 1.83332 0
M  V30 4020 C 373.524 3.45844 0.981429 0
M  V30 4021 C 373.188 4.56997 -0.0159561 0
M  V30 4022 C 374.185 5.13384 -0.820552 0
M  V30 4023 C 371.87 5.0211 -0.138072 0
M  V30 4024 C 373.864 6.13365 -1.73386 0
M  V30 4025 C 371.551 6.01926 -1.0549 0
M  V30 4026 C 372.549 6.57431 -1.85132 0
M  V30 4027 O 372.237 7.55302 -2.75272 0
M  V30 4028 H 371.969 0.668459 0.100692 0
M  V30 4029 H 374.523 2.02387 -0.35052 0
M  V30 4030 H 372.753 3.43267 1.78058 0
M  V30 4031 H 374.442 3.76262 1.52255 0
M  V30 4032 H 375.208 4.79372 -0.736721 0
M  V30 4033 H 371.087 4.5858 0.471737 0
M  V30 4034 H 374.631 6.56614 -2.35592 0
M  V30 4035 H 370.528 6.35359 -1.1397 0
M  V30 4036 H 371.296 7.72867 -2.69477 0
M  V30 4037 N 373.959 -0.0401083 1.57549 0
M  V30 4038 C 374.922 -1.02871 2.04817 0
M  V30 4039 C 375.922 -1.29708 0.950388 0
M  V30 4040 O 377.112 -1.24897 1.21435 0
M  V30 4041 C 374.244 -2.36443 2.45576 0
M  V30 4042 H 375.437 -0.620631 2.93408 0
M  V30 4043 H 372.99 -0.286667 1.53649 0
M  V30 4044 H 373.725 -2.82021 1.60108 0
M  V30 4045 H 373.51 -2.18296 3.25713 0
M  V30 4046 H 375 -3.07441 2.82612 0
M  V30 4047 N 375.437 -1.54477 -0.31217 0
M  V30 4048 C 376.347 -1.87695 -1.4074 0
M  V30 4049 C 377.363 -0.769975 -1.56036 0
M  V30 4050 O 378.539 -1.06537 -1.70915 0
M  V30 4051 C 375.604 -2.10755 -2.75287 0
M  V30 4052 C 374.665 -3.34514 -2.69071 0
M  V30 4053 C 373.898 -3.56465 -3.97201 0
M  V30 4054 O 374.121 -2.81637 -4.96021 0
M  V30 4055 O 373.055 -4.49964 -3.9977 0
M  V30 4056 H 376.881 -2.80849 -1.15574 0
M  V30 4057 H 374.466 -1.40526 -0.507228 0
M  V30 4058 H 376.348 -2.27188 -3.54913 0
M  V30 4059 H 375.023 -1.20788 -3.0032 0
M  V30 4060 H 373.93 -3.23456 -1.87955 0
M  V30 4061 H 375.263 -4.24575 -2.48992 0
M  V30 4062 N 376.915 0.57481 -1.46744 0
M  V30 4063 C 378.163 1.33009 -1.52161 0
M  V30 4064 C 378.484 1.94185 -0.178092 0
M  V30 4065 O 377.754 1.7899 0.796196 0
M  V30 4066 H 376.334 0.493873 -0.560445 0
M  V30 4067 H 378.996 0.672589 -1.82927 0
M  V30 4068 H 378.092 2.13273 -2.27862 0
M  V30 4069 N 378.394 1.34581 0.820102 0
M  V30 4070 C 379.81 1.14325 1.11364 0
M  V30 4071 C 380.01 -0.0533648 2.01429 0
M  V30 4072 O 379.066 -0.728044 2.41776 0
M  V30 4073 C 380.379 2.43983 1.75764 0
M  V30 4074 C 381.927 2.50065 1.88246 0
M  V30 4075 C 382.402 3.79732 2.56061 0
M  V30 4076 N 383.893 3.80908 2.63558 0
M  V30 4077 C 384.628 4.77961 3.16766 0
M  V30 4078 N 384.124 5.85397 3.70517 0
M  V30 4079 N 385.917 4.65413 3.15194 0
M  V30 4080 H 378.068 2.11246 0.221096 0
M  V30 4081 H 380.331 0.934289 0.160649 0
M  V30 4082 H 380.037 3.31651 1.1705 0
M  V30 4083 H 379.911 2.57531 2.75604 0
M  V30 4084 H 382.298 1.62834 2.46108 0
M  V30 4085 H 382.379 2.40442 0.873006 0
M  V30 4086 H 382.023 4.67354 1.98853 0
M  V30 4087 H 381.953 3.86639 3.57516 0
M  V30 4088 H 384.444 3.03274 2.25463 0
M  V30 4089 H 384.757 6.55463 4.09376 0
M  V30 4090 H 383.102 5.89107 3.68752 0
M  V30 4091 H 386.293 3.80627 2.72471 0
M  V30 4092 H 386.466 5.41216 3.56356 0
M  V30 4093 N 379.872 -1.04064 1.18357 0
M  V30 4094 C 380.802 -2.14001 0.934113 0
M  V30 4095 C 381.783 -1.69616 -0.128186 0
M  V30 4096 O 382.968 -1.94185 0.0244093 0
M  V30 4097 C 380.098 -3.44253 0.459066 0
M  V30 4098 C 379.052 -4.02261 1.46185 0
M  V30 4099 C 378.378 -5.27992 0.844322 0
M  V30 4100 C 379.678 -4.38432 2.83856 0
M  V30 4101 H 381.372 -2.35127 1.85352 0
M  V30 4102 H 378.918 -1.12998 0.892604 0
M  V30 4103 H 380.871 -4.20522 0.271907 0
M  V30 4104 H 379.595 -3.22813 -0.495912 0
M  V30 4105 H 378.254 -3.28074 1.63595 0
M  V30 4106 H 377.902 -5.02862 -0.117845 0
M  V30 4107 H 377.602 -5.67765 1.51384 0
M  V30 4108 H 379.126 -6.06938 0.667693 0
M  V30 4109 H 380.54 -5.05688 2.70098 0
M  V30 4110 H 378.937 -4.89254 3.47491 0
M  V30 4111 H 380.007 -3.4826 3.37406 0
M  V30 4112 N 381.35 -0.985608 -1.22978 0
M  V30 4113 C 382.598 -0.656087 -1.91154 0
M  V30 4114 C 382.919 0.813561 -1.77218 0
M  V30 4115 O 382.189 1.58244 -1.1548 0
M  V30 4116 H 380.769 -0.239674 -0.707506 0
M  V30 4117 H 383.431 -1.25054 -1.49491 0
M  V30 4118 H 382.527 -0.912253 -2.9847 0
M  V30 4119 N 382.828 1.3818 -0.7579 0
M  V30 4120 C 384.074 2.0078 -0.325423 0
M  V30 4121 C 384.429 1.59085 1.08211 0
M  V30 4122 O 383.722 0.820394 1.73148 0
M  V30 4123 C 383.916 3.55252 -0.391218 0
M  V30 4124 C 383.745 4.11947 -1.8036 0
M  V30 4125 C 382.515 4.43519 -2.42113 0
M  V30 4126 C 384.713 4.33908 -2.76095 0
M  V30 4127 N 382.695 4.85847 -3.75267 0
M  V30 4128 C 384.066 4.78692 -3.94023 0
M  V30 4129 C 386.121 4.16015 -2.73561 0
M  V30 4130 C 384.824 5.07459 -5.09782 0
M  V30 4131 C 386.85 4.45909 -3.88483 0
M  V30 4132 C 386.212 4.90921 -5.0515 0
M  V30 4133 H 382.311 0.764215 -0.165831 0
M  V30 4134 H 384.895 1.67724 -0.988776 0
M  V30 4135 H 383.066 3.87646 0.241886 0
M  V30 4136 H 384.798 4.04653 0.061989 0
M  V30 4137 H 381.553 4.32113 -1.93842 0
M  V30 4138 H 381.977 5.11339 -4.4369 0
M  V30 4139 H 386.619 3.80399 -1.84544 0
M  V30 4140 H 384.337 5.4197 -5.99412 0
M  V30 4141 H 387.923 4.33666 -3.87847 0
M  V30 4142 H 386.803 5.1361 -5.92599 0
M  V30 4143 N 384.306 0.507319 1.49211 0
M  V30 4144 C 385.722 0.163682 1.58758 0
M  V30 4145 C 385.922 -1.33208 1.51188 0
M  V30 4146 O 384.978 -2.10855 1.38911 0
M  V30 4147 C 386.291 0.746095 2.91297 0
M  V30 4148 C 387.839 0.712773 3.04776 0
M  V30 4149 C 388.314 1.27336 4.39943 0
M  V30 4150 N 389.805 1.23433 4.46451 0
M  V30 4151 C 390.54 1.63821 5.495 0
M  V30 4152 N 390.036 2.11832 6.5962 0
M  V30 4153 N 391.829 1.55198 5.4025 0
M  V30 4154 H 383.98 1.47972 1.52375 0
M  V30 4155 H 386.243 0.614147 0.722168 0
M  V30 4156 H 385.949 1.79534 3.02424 0
M  V30 4157 H 385.823 0.210137 3.76614 0
M  V30 4158 H 388.21 -0.327656 2.93275 0
M  V30 4159 H 388.291 1.28595 2.21127 0
M  V30 4160 H 387.935 2.3126 4.52196 0
M  V30 4161 H 387.865 0.676066 5.22242 0
M  V30 4162 H 390.356 0.882627 3.67448 0
M  V30 4163 H 390.669 2.40703 7.34358 0
M  V30 4164 H 389.014 2.1581 6.60644 0
M  V30 4165 H 392.205 1.17505 4.53112 0
M  V30 4166 H 392.378 1.86997 6.20432 0
M  V30 4167 N 385.784 -1.5574 0.241426 0
M  V30 4168 C 387.012 -2.03208 -0.389134 0
M  V30 4169 C 387.427 -1.12082 -1.51931 0
M  V30 4170 O 386.784 -0.134183 -1.82006 0
M  V30 4171 C 386.835 -3.50064 -0.902087 0
M  V30 4172 O 386.556 -4.37717 0.18305 0
M  V30 4173 C 388.057 -4.13268 -1.60389 0
M  V30 4174 H 385.277 -0.664509 -0.0931053 0
M  V30 4175 H 387.821 -2.0124 0.36369 0
M  V30 4176 H 385.976 -3.52583 -1.60511 0
M  V30 4177 H 386.39 -5.24097 -0.205579 0
M  V30 4178 H 387.864 -5.17733 -1.91458 0
M  V30 4179 H 388.341 -3.59434 -2.52397 0
M  V30 4180 H 388.947 -4.14655 -0.945576 0
M  V30 4181 N 387.262 0.0317525 -1.57568 0
M  V30 4182 C 388.192 1.03274 -2.0942 0
M  V30 4183 C 389.173 1.3788 -0.996143 0
M  V30 4184 O 390.358 1.46811 -1.27122 0
M  V30 4185 C 387.488 2.33448 -2.57137 0
M  V30 4186 C 386.442 2.13091 -3.71182 0
M  V30 4187 C 385.768 3.49001 -4.05095 0
M  V30 4188 C 387.068 1.51928 -4.99715 0
M  V30 4189 H 388.762 0.60112 -2.93303 0
M  V30 4190 H 386.308 0.287705 -1.41097 0
M  V30 4191 H 388.261 3.03802 -2.92032 0
M  V30 4192 H 386.985 2.78665 -1.70333 0
M  V30 4193 H 385.644 1.45171 -3.36632 0
M  V30 4194 H 385.292 3.91862 -3.15362 0
M  V30 4195 H 384.992 3.36207 -4.81911 0
M  V30 4196 H 386.516 4.20721 -4.42522 0
M  V30 4197 H 387.93 2.12196 -5.32584 0
M  V30 4198 H 386.327 1.49716 -5.81124 0
M  V30 4199 H 387.397 0.484811 -4.8247 0
M  V30 4200 N 388.74 1.54641 0.303973 0
M  V30 4201 C 390.017 1.64455 1.05896 0
M  V30 4202 C 390.397 0.490923 2.05312 0
M  V30 4203 O 389.745 -0.512685 2.22674 0
M  V30 4204 C 389.955 3.02331 1.74347 0
M  V30 4205 C 391.303 3.59045 2.26653 0
M  V30 4206 O 392.327 3.04764 1.84384 0
M  V30 4207 O 391.186 4.54081 3.04093 0
M  V30 4208 H 388.28 0.666729 0.489287 0
M  V30 4209 H 390.826 1.66986 0.302298 0
M  V30 4210 H 389.598 3.77734 1.02142 0
M  V30 4211 H 389.221 3.03565 2.56777 0
M  V30 4212 N 390.218 -0.567019 1.47046 0
M  V30 4213 C 391.465 -1.32462 1.53167 0
M  V30 4214 C 391.793 -1.93571 0.189841 0
M  V30 4215 O 391.048 -1.77865 -0.816243 0
M  V30 4216 C 391.347 -2.4623 2.59047 0
M  V30 4217 C 391.013 -2.03014 4.02612 0
M  V30 4218 C 389.675 -1.90944 4.41694 0
M  V30 4219 C 392.027 -1.69895 4.92732 0
M  V30 4220 C 389.355 -1.44035 5.68745 0
M  V30 4221 C 391.707 -1.2446 6.20236 0
M  V30 4222 C 390.371 -1.10979 6.5821 0
M  V30 4223 H 389.641 -0.484713 0.560477 0
M  V30 4224 H 392.288 -0.636888 1.80599 0
M  V30 4225 H 390.593 -3.20517 2.25335 0
M  V30 4226 H 392.29 -3.04427 2.61008 0
M  V30 4227 H 388.88 -2.13348 3.71726 0
M  V30 4228 H 393.064 -1.78098 4.63244 0
M  V30 4229 H 388.32 -1.32254 5.96925 0
M  V30 4230 H 392.494 -0.978924 6.89485 0
M  V30 4231 H 390.121 -0.744078 7.5655 0
M  V30 4232 N 391.696 -1.35014 -0.812953 0
M  V30 4233 C 392.606 -1.2951 -1.95613 0
M  V30 4234 C 393.622 -0.20107 -1.72834 0
M  V30 4235 O 394.798 -0.42932 -1.96771 0
M  V30 4236 C 391.863 -1.06033 -3.30088 0
M  V30 4237 C 390.924 -2.24688 -3.65805 0
M  V30 4238 C 390.157 -2.02322 -4.93864 0
M  V30 4239 O 390.38 -0.986464 -5.61805 0
M  V30 4240 O 389.314 -2.89525 -5.27692 0
M  V30 4241 H 393.14 -2.25705 -2.03202 0
M  V30 4242 H 390.725 -1.15321 -0.949811 0
M  V30 4243 H 392.607 -0.94763 -4.10607 0
M  V30 4244 H 391.282 -0.128852 -3.23443 0
M  V30 4245 H 390.189 -2.41521 -2.85689 0
M  V30 4246 H 391.522 -3.16261 -3.77147 0
M  V30 4247 N 393.175 1.03435 -1.18907 0
M  V30 4248 C 394.421 1.77005 -0.989798 0
M  V30 4249 C 394.754 1.88205 0.478816 0
M  V30 4250 O 394.029 1.39481 1.35556 0
M  V30 4251 C 394.312 3.19925 -1.65287 0
M  V30 4252 C 394.165 3.1663 -3.19477 0
M  V30 4253 C 395.484 4.18189 -1.37134 0
M  V30 4254 H 392.603 0.642538 -0.360991 0
M  V30 4255 H 395.245 1.20784 -1.46667 0
M  V30 4256 H 393.395 3.67929 -1.24741 0
M  V30 4257 H 395.067 2.76567 -3.692 0
M  V30 4258 H 393.31 2.54491 -3.51307 0
M  V30 4259 H 393.981 4.1758 -3.61013 0
M  V30 4260 H 396.457 3.78761 -1.72276 0
M  V30 4261 H 395.333 5.16394 -1.86087 0
M  V30 4262 H 395.594 4.41112 -0.295424 0
M  V30 4263 N 394.653 0.992116 1.22453 0
M  V30 4264 C 395.563 0.55065 2.28046 0
M  V30 4265 C 396.579 -0.400189 1.69335 0
M  V30 4266 O 397.755 -0.267215 1.99619 0
M  V30 4267 C 394.82 -0.128496 3.46462 0
M  V30 4268 C 393.881 0.865208 4.20491 0
M  V30 4269 C 393.114 0.218377 5.33253 0
M  V30 4270 O 393.337 -0.987894 5.6178 0
M  V30 4271 O 392.271 0.922845 5.94783 0
M  V30 4272 H 396.097 1.4291 2.67975 0
M  V30 4273 H 393.682 0.760326 1.28606 0
M  V30 4274 H 395.564 -0.508947 4.18315 0
M  V30 4275 H 394.239 -0.981526 3.0846 0
M  V30 4276 H 393.146 1.29658 3.50913 0
M  V30 4277 H 394.479 1.68741 4.62371 0
M  V30 4278 N 396.131 -1.37776 0.765217 0
M  V30 4279 C 397.377 -2.00145 0.327072 0
M  V30 4280 C 397.71 -1.60607 -1.09175 0
M  V30 4281 O 396.985 -0.849127 -1.74986 0
M  V30 4282 C 397.268 -3.57109 0.46319 0
M  V30 4283 C 397.121 -4.06576 1.92395 0
M  V30 4284 C 398.44 -4.39888 -0.136473 0
M  V30 4285 H 395.559 -0.727113 0.120316 0
M  V30 4286 H 398.201 -1.63549 0.967039 0
M  V30 4287 H 396.351 -3.88414 -0.0816358 0
M  V30 4288 H 398.023 -3.85864 2.52798 0
M  V30 4289 H 396.266 -3.59011 2.43503 0
M  V30 4290 H 396.937 -5.15639 1.97028 0
M  V30 4291 H 399.413 -4.14803 0.328317 0
M  V30 4292 H 398.289 -5.48899 -0.0110582 0
M  V30 4293 H 398.55 -4.24758 -1.22608 0
M  V30 4294 N 397.609 -0.515225 -1.4894 0
M  V30 4295 C 398.539 0.244628 -2.32215 0
M  V30 4296 C 399.52 0.949136 -1.41157 0
M  V30 4297 O 400.705 0.937783 -1.70057 0
M  V30 4298 C 397.835 1.30096 -3.22013 0
M  V30 4299 C 396.789 0.715486 -4.21977 0
M  V30 4300 C 396.115 1.87339 -5.00808 0
M  V30 4301 C 397.415 -0.302982 -5.2142 0
M  V30 4302 H 399.109 -0.450501 -2.95991 0
M  V30 4303 H 396.655 -0.218098 -1.42339 0
M  V30 4304 H 398.608 1.84037 -3.79089 0
M  V30 4305 H 397.332 2.02547 -2.56207 0
M  V30 4306 H 395.991 0.197715 -3.66066 0
M  V30 4307 H 395.639 2.58592 -4.31438 0
M  V30 4308 H 395.339 1.48764 -5.68457 0
M  V30 4309 H 396.863 2.41686 -5.60732 0
M  V30 4310 H 398.277 0.148802 -5.73107 0
M  V30 4311 H 396.674 -0.60532 -5.97039 0
M  V30 4312 H 397.744 -1.21395 -4.69459 0
M  V30 4313 N 399.087 1.5561 -0.249682 0
M  V30 4314 C 400.498 1.84979 0.252949 0
M  V30 4315 C 400.849 1.17153 1.57384 0
M  V30 4316 O 399.974 0.450884 2.11651 0
M  V30 4317 C 400.569 3.35584 0.465732 0
M  V30 4318 C 399.128 3.65169 0.912624 0
M  V30 4319 C 398.275 2.77299 -0.00859085 0
M  V30 4320 H 401.226 1.51513 -0.47217 0
M  V30 4321 H 401.247 3.57313 1.30795 0
M  V30 4322 H 400.759 3.8492 -0.49579 0
M  V30 4323 H 398.86 3.21312 1.88652 0
M  V30 4324 H 398.973 4.72912 0.767559 0
M  V30 4325 H 397.337 2.49678 0.50327 0
M  V30 4326 H 398.12 3.29442 -0.965537 0
M  V30 4327 N 400.565 -0.0233959 1.57583 0
M  V30 4328 C 401.814 -0.712133 1.8871 0
M  V30 4329 C 402.127 -1.76217 0.848944 0
M  V30 4330 O 403.333 -2.50389 1.04964 0
M  V30 4331 C 401.789 -1.3177 3.3491 0
M  V30 4332 C 401.397 -0.303715 4.46969 0
M  V30 4333 C 403.141 -1.98598 3.75179 0
M  V30 4334 C 401.048 -0.917945 5.84233 0
M  V30 4335 H 399.978 -0.269735 0.704101 0
M  V30 4336 H 402.629 0.0333114 1.8347 0
M  V30 4337 H 401.011 -2.11304 3.34913 0
M  V30 4338 H 402.185 0.465325 4.58445 0
M  V30 4339 H 400.5 0.2628 4.1557 0
M  V30 4340 H 403.097 -2.45416 4.75053 0
M  V30 4341 H 403.44 -2.80659 3.07468 0
M  V30 4342 H 403.973 -1.25831 3.77374 0
M  V30 4343 H 400.712 -0.136633 6.55358 0
M  V30 4344 H 400.232 -1.65669 5.76467 0
M  V30 4345 H 401.911 -1.4236 6.31144 0
M  V30 4346 N 402.043 -1.548 -0.295768 0
M  V30 4347 C 403.291 -1.73985 -1.02828 0
M  V30 4348 C 403.612 -0.531406 -1.87619 0
M  V30 4349 O 402.882 0.454221 -1.90561 0
M  V30 4350 H 401.462 -0.641556 -0.382642 0
M  V30 4351 H 404.124 -1.92163 -0.325489 0
M  V30 4352 H 403.22 -2.63129 -1.67838 0
M  V30 4353 N 403.521 0.559213 -1.47345 0
M  V30 4354 C 404.798 1.31997 -1.44348 0
M  V30 4355 C 405.178 2.1064 -0.139358 0
M  V30 4356 O 404.526 2.1091 0.879153 0
M  V30 4357 C 404.736 2.22618 -2.68779 0
M  V30 4358 C 406.084 2.83701 -3.1591 0
M  V30 4359 O 407.108 2.32921 -2.69493 0
M  V30 4360 O 405.967 3.75993 -3.966 0
M  V30 4361 H 403.061 0.594251 -0.575147 0
M  V30 4362 H 405.607 0.578282 -1.59543 0
M  V30 4363 H 404.379 1.64093 -3.55231 0
M  V30 4364 H 404.002 3.04085 -2.5616 0
M  V30 4365 N 404.999 1.35443 0.805782 0
M  V30 4366 C 406.246 1.28761 1.56291 0
M  V30 4367 C 406.574 -0.137747 1.94012 0
M  V30 4368 O 405.829 -1.1032 1.61642 0
M  V30 4369 C 406.128 2.14045 2.86216 0
M  V30 4370 C 405.794 3.62826 2.67709 0
M  V30 4371 C 404.456 4.0338 2.6237 0
M  V30 4372 C 406.808 4.57227 2.50186 0
M  V30 4373 C 404.136 5.36501 2.37451 0
M  V30 4374 C 406.488 5.90547 2.26797 0
M  V30 4375 C 405.152 6.30245 2.1988 0
M  V30 4376 H 404.422 0.471171 0.571908 0
M  V30 4377 H 407.069 1.67347 0.930974 0
M  V30 4378 H 405.374 1.68342 3.53791 0
M  V30 4379 H 407.071 2.0621 3.43917 0
M  V30 4380 H 403.661 3.30644 2.72713 0
M  V30 4381 H 407.845 4.2678 2.53323 0
M  V30 4382 H 403.101 5.66259 2.30567 0
M  V30 4383 H 407.275 6.63274 2.12228 0
M  V30 4384 H 404.902 7.33328 2.00333 0
M  V30 4385 N 406.477 -1.02803 1.19454 0
M  V30 4386 C 407.409 -2.11181 0.890807 0
M  V30 4387 C 408.422 -1.6238 -0.116829 0
M  V30 4388 O 409.611 -1.78144 0.112694 0
M  V30 4389 C 406.711 -3.37461 0.311942 0
M  V30 4390 C 405.884 -4.15446 1.36834 0
M  V30 4391 C 404.943 -5.20039 0.802864 0
M  V30 4392 O 403.969 -5.49602 1.48077 0
M  V30 4393 N 405.171 -5.79165 -0.393417 0
M  V30 4394 H 407.936 -2.37827 1.82369 0
M  V30 4395 H 405.497 -1.19101 1.09666 0
M  V30 4396 H 407.489 -4.0462 -0.0802225 0
M  V30 4397 H 406.059 -3.08156 -0.52524 0
M  V30 4398 H 405.279 -3.43423 1.93531 0
M  V30 4399 H 406.567 -4.64335 2.08015 0
M  V30 4400 H 405.965 -5.57466 -0.961658 0
M  V30 4401 H 404.522 -6.47729 -0.727351 0
M  V30 4402 N 407.956 -0.998596 -1.21925 0
M  V30 4403 C 409.204 -0.676325 -1.90448 0
M  V30 4404 C 409.525 0.794719 -1.78071 0
M  V30 4405 O 408.795 1.5701 -1.17152 0
M  V30 4406 H 407.375 -0.247165 -0.704925 0
M  V30 4407 H 410.037 -1.26633 -1.48156 0
M  V30 4408 H 409.133 -0.943858 -2.97486 0
M  V30 4409 N 409.434 1.37368 -0.772513 0
M  V30 4410 C 410.662 2.03942 -0.348588 0
M  V30 4411 C 411.077 1.58264 1.02947 0
M  V30 4412 O 410.434 0.764246 1.65727 0
M  V30 4413 C 410.485 3.5946 -0.38351 0
M  V30 4414 O 410.206 4.03468 -1.70721 0
M  V30 4415 C 411.707 4.4327 0.0519152 0
M  V30 4416 H 408.927 0.654931 -0.145966 0
M  V30 4417 H 411.471 1.75686 -1.04665 0
M  V30 4418 H 409.626 3.86486 0.265978 0
M  V30 4419 H 410.04 4.97991 -1.64636 0
M  V30 4420 H 411.514 5.51995 -0.0236733 0
M  V30 4421 H 411.991 4.2514 1.10238 0
M  V30 4422 H 412.597 4.21471 -0.569415 0
M  V30 4423 N 410.912 0.523116 1.48665 0
M  V30 4424 C 411.875 -0.232592 2.28017 0
M  V30 4425 C 412.875 -0.874021 1.34972 0
M  V30 4426 O 414.065 -0.735132 1.57929 0
M  V30 4427 C 411.197 -1.33586 3.13636 0
M  V30 4428 H 412.39 0.464008 2.96289 0
M  V30 4429 H 409.943 0.278816 1.53793 0
M  V30 4430 H 410.678 -2.06593 2.4998 0
M  V30 4431 H 410.463 -0.881125 3.82071 0
M  V30 4432 H 411.953 -1.86759 3.73511 0
M  V30 4433 N 412.39 -1.55475 0.257931 0
M  V30 4434 C 413.636 -1.99502 -0.364266 0
M  V30 4435 C 413.969 -1.146 -1.56782 0
M  V30 4436 O 413.244 -0.211968 -1.93342 0
M  V30 4437 C 413.527 -3.51917 -0.763333 0
M  V30 4438 C 413.38 -4.4758 0.446371 0
M  V30 4439 C 414.699 -4.09742 -1.60623 0
M  V30 4440 H 411.818 -0.725277 -0.130929 0
M  V30 4441 H 414.46 -1.8653 0.361446 0
M  V30 4442 H 412.61 -3.63101 -1.38166 0
M  V30 4443 H 414.282 -4.48362 1.08487 0
M  V30 4444 H 412.525 -4.19947 1.08753 0
M  V30 4445 H 413.196 -5.51862 0.123645 0
M  V30 4446 H 415.672 -4.01727 -1.08418 0
M  V30 4447 H 414.548 -5.16631 -1.85429 0
M  V30 4448 H 414.809 -3.58889 -2.58169 0
M  V30 4449 N 413.868 0.0150385 -1.57593 0
M  V30 4450 C 414.801 1.04475 -2.0288 0
M  V30 4451 C 415.779 1.3436 -0.915764 0
M  V30 4452 O 416.963 1.46779 -1.18271 0
M  V30 4453 C 414.09 2.37608 -2.41371 0
M  V30 4454 C 413.136 2.23487 -3.63257 0
M  V30 4455 S 413.969 1.57505 -5.11813 0
M  V30 4456 C 415.125 2.921 -5.5356 0
M  V30 4457 H 415.358 0.65907 -2.89903 0
M  V30 4458 H 412.891 0.225452 -1.52745 0
M  V30 4459 H 414.849 3.14165 -2.64217 0
M  V30 4460 H 413.51 2.7332 -1.54775 0
M  V30 4461 H 412.703 3.21802 -3.87891 0
M  V30 4462 H 412.305 1.55074 -3.40335 0
M  V30 4463 H 414.597 3.88419 -5.55101 0
M  V30 4464 H 415.54 2.72184 -6.53698 0
M  V30 4465 H 415.948 2.95318 -4.8109 0
M  V30 4466 N 415.346 1.54954 0.287554 0
M  V30 4467 C 416.294 1.87606 1.37502 0
M  V30 4468 C 417.288 0.751001 1.51843 0
M  V30 4469 O 418.494 0.935169 1.53801 0
M  V30 4470 H 414.869 0.595231 0.459569 0
M  V30 4471 H 416.84 2.78477 1.07206 0
M  V30 4472 C 415.589 2.15183 2.73115 0
M  V30 4473 H 414.912 3.01234 2.62866 0
M  V30 4474 H 416.352 2.4196 3.48183 0
M  V30 4475 C 414.811 0.954686 3.2309 0
M  V30 4476 O 415.341 0.181949 4.01288 0
M  V30 4477 N 413.547 0.756368 2.80584 0
M  V30 4478 H 413.094 1.38643 2.17108 0
M  V30 4479 H 413.052 -0.0430391 3.14371 0
M  V30 4480 N 416.824 -0.551391 1.4764 0
M  V30 4481 C 418.054 -1.33163 1.57959 0
M  V30 4482 C 418.462 -1.87785 0.23094 0
M  V30 4483 O 417.805 -1.65996 -0.786825 0
M  V30 4484 C 417.867 -2.53449 2.54958 0
M  V30 4485 C 417.531 -2.20071 4.00522 0
M  V30 4486 C 418.528 -1.77017 4.88836 0
M  V30 4487 C 416.213 -2.31252 4.45901 0
M  V30 4488 C 418.207 -1.4558 6.20552 0
M  V30 4489 C 415.894 -1.99427 5.77644 0
M  V30 4490 C 416.892 -1.56659 6.64791 0
M  V30 4491 O 416.58 -1.25242 7.94084 0
M  V30 4492 H 416.312 -0.412022 0.535923 0
M  V30 4493 H 418.866 -0.674186 1.9402 0
M  V30 4494 H 417.096 -3.22104 2.13976 0
M  V30 4495 H 418.785 -3.15523 2.55343 0
M  V30 4496 H 419.551 -1.67867 4.55023 0
M  V30 4497 H 415.43 -2.63498 3.78272 0
M  V30 4498 H 418.974 -1.12125 6.8853 0
M  V30 4499 H 414.871 -2.08211 6.10998 0
M  V30 4500 H 415.639 -1.38822 8.06642 0
M  V30 4501 N 418.302 -1.35869 -0.798587 0
M  V30 4502 C 419.25 -1.29491 -1.93222 0
M  V30 4503 C 420.244 -0.18836 -1.6835 0
M  V30 4504 O 421.45 -0.354822 -1.76468 0
M  V30 4505 H 417.825 -0.402901 -0.63496 0
M  V30 4506 H 419.796 -2.25247 -1.9572 0
M  V30 4507 C 418.545 -1.09184 -3.30112 0
M  V30 4508 H 417.868 -1.93574 -3.49813 0
M  V30 4509 H 419.308 -1.08766 -4.09812 0
M  V30 4510 C 417.767 0.203959 -3.36282 0
M  V30 4511 O 418.297 1.19699 -3.83451 0
M  V30 4512 N 416.503 0.245488 -2.89561 0
M  V30 4513 H 416.05 -0.563223 -2.51367 0
M  V30 4514 H 416.008 1.11219 -2.94071 0
M  V30 4515 N 419.78 1.02168 -1.19998 0
M  V30 4516 C 421.057 1.72816 -0.916191 0
M  V30 4517 C 421.437 2.03081 0.576325 0
M  V30 4518 O 420.785 1.69122 1.53656 0
M  V30 4519 C 420.995 2.9997 -1.78378 0
M  V30 4520 C 422.343 3.73336 -2.02251 0
M  V30 4521 O 423.367 3.09914 -1.75589 0
M  V30 4522 O 422.226 4.87371 -2.47249 0
M  V30 4523 H 419.32 0.752924 -0.342103 0
M  V30 4524 H 421.866 1.08062 -1.30846 0
M  V30 4525 H 420.638 2.73888 -2.79466 0
M  V30 4526 H 420.261 3.72464 -1.39126 0
M  V30 4527 N 421.258 1.00505 1.21394 0
M  V30 4528 C 422.188 0.585684 2.26035 0
M  V30 4529 C 423.169 -0.393525 1.65485 0
M  V30 4530 O 424.354 -0.281497 1.92149 0
M  V30 4531 C 421.484 -0.0884283 3.47187 0
M  V30 4532 C 420.438 0.810567 4.20254 0
M  V30 4533 C 419.764 0.00286382 5.347 0
M  V30 4534 C 421.064 2.1132 4.77641 0
M  V30 4535 H 422.758 1.46039 2.61368 0
M  V30 4536 H 420.304 0.703648 1.25638 0
M  V30 4537 H 422.257 -0.393286 4.19561 0
M  V30 4538 H 420.981 -0.997766 3.10986 0
M  V30 4539 H 419.64 1.09925 3.49731 0
M  V30 4540 H 419.288 -0.907765 4.94741 0
M  V30 4541 H 418.988 0.601444 5.84514 0
M  V30 4542 H 420.512 -0.295808 6.09883 0
M  V30 4543 H 421.926 1.87148 5.41893 0
M  V30 4544 H 420.323 2.66164 5.37845 0
M  V30 4545 H 421.393 2.78393 3.9702 0
M  V30 4546 N 422.737 -1.36956 0.779787 0
M  V30 4547 C 424.014 -1.93697 0.272156 0
M  V30 4548 C 424.394 -1.71267 -1.23413 0
M  V30 4549 O 423.742 -1.06607 -2.02107 0
M  V30 4550 C 423.952 -3.42812 0.654291 0
M  V30 4551 C 425.3 -4.19921 0.628602 0
M  V30 4552 O 426.324 -3.51209 0.594172 0
M  V30 4553 O 425.183 -5.42465 0.662864 0
M  V30 4554 H 422.277 -0.824447 0.0649286 0
M  V30 4555 H 424.823 -1.46196 0.861682 0
M  V30 4556 H 423.595 -3.52754 1.69353 0
M  V30 4557 H 423.218 -3.97582 0.0381369 0
M  V30 4558 N 424.215 -0.530993 -1.48385 0
M  V30 4559 C 425.461 0.00274135 -2.028 0
M  V30 4560 C 425.794 1.33838 -1.40716 0
M  V30 4561 O 425.069 1.86465 -0.553277 0
M  V30 4562 C 425.352 0.123676 -3.59888 0
M  V30 4563 C 425.205 -1.2372 -4.3245 0
M  V30 4564 C 426.524 0.849967 -4.31814 0
M  V30 4565 H 423.643 -0.000477758 -0.737 0
M  V30 4566 H 426.285 -0.688217 -1.77098 0
M  V30 4567 H 424.435 0.712157 -3.81917 0
M  V30 4568 H 426.107 -1.86687 -4.21836 0
M  V30 4569 H 424.35 -1.81882 -3.93829 0
M  V30 4570 H 425.021 -1.10557 -5.40815 0
M  V30 4571 H 427.497 0.350572 -4.14621 0
M  V30 4572 H 426.373 0.903486 -5.41413 0
M  V30 4573 H 426.634 1.90047 -3.99167 0
M  V30 4574 N 425.693 1.55336 -0.266172 0
M  V30 4575 C 427.104 1.85236 0.233315 0
M  V30 4576 C 427.455 1.18816 1.56132 0
M  V30 4577 O 426.58 0.473307 2.11161 0
M  V30 4578 C 427.175 3.36059 0.430113 0
M  V30 4579 C 425.734 3.66116 0.873842 0
M  V30 4580 C 424.881 2.77274 -0.0380016 0
M  V30 4581 H 427.832 1.51004 -0.488214 0
M  V30 4582 H 427.853 3.58681 1.26998 0
M  V30 4583 H 427.365 3.84373 -0.536588 0
M  V30 4584 H 425.466 3.23295 1.85233 0
M  V30 4585 H 425.579 4.73699 0.717358 0
M  V30 4586 H 423.943 2.50198 0.476759 0
M  V30 4587 H 424.726 3.284 -1.00042 0
M  V30 4588 N 427.171 -0.0066808 1.57599 0
M  V30 4589 C 428.401 -0.703066 1.94269 0
M  V30 4590 C 428.809 -1.68206 0.866222 0
M  V30 4591 O 428.152 -1.82966 -0.164087 0
M  V30 4592 C 428.214 -1.49616 3.26887 0
M  V30 4593 C 427.878 -0.679494 4.5192 0
M  V30 4594 C 428.875 0.0299508 5.19891 0
M  V30 4595 C 426.56 -0.627433 4.98366 0
M  V30 4596 C 428.554 0.780514 6.32603 0
M  V30 4597 C 426.241 0.126861 6.10968 0
M  V30 4598 C 427.239 0.829574 6.77943 0
M  V30 4599 O 426.927 1.57157 7.88389 0
M  V30 4600 H 426.659 -0.201217 0.645359 0
M  V30 4601 H 429.213 0.0385326 2.05364 0
M  V30 4602 H 427.443 -2.28209 3.12182 0
M  V30 4603 H 429.132 -2.07726 3.48719 0
M  V30 4604 H 429.898 -0.00115963 4.85 0
M  V30 4605 H 425.777 -1.16392 4.46065 0
M  V30 4606 H 429.321 1.32954 6.84813 0
M  V30 4607 H 425.218 0.159815 6.45302 0
M  V30 4608 H 425.986 1.48758 8.04868 0
M  V30 4609 N 428.649 -1.55105 -0.279332 0
M  V30 4610 C 429.877 -1.7943 -1.03017 0
M  V30 4611 C 430.292 -0.564456 -1.80165 0
M  V30 4612 O 429.649 0.466326 -1.76442 0
M  V30 4613 C 429.7 -3.0155 -1.99374 0
M  V30 4614 O 429.421 -4.19784 -1.25352 0
M  V30 4615 C 430.922 -3.3843 -2.86321 0
M  V30 4616 H 428.142 -0.597882 -0.304594 0
M  V30 4617 H 430.686 -2.02105 -0.312035 0
M  V30 4618 H 428.841 -2.81019 -2.66659 0
M  V30 4619 H 429.255 -4.88781 -1.90246 0
M  V30 4620 H 430.729 -4.27066 -3.49741 0
M  V30 4621 H 431.206 -2.57549 -3.5576 0
M  V30 4622 H 431.812 -3.61197 -2.24536 0
M  V30 4623 N 430.127 0.543554 -1.4793 0
M  V30 4624 C 431.543 0.870806 -1.3375 0
M  V30 4625 C 431.743 1.9864 -0.338261 0
M  V30 4626 O 430.799 2.51305 0.245371 0
M  V30 4627 C 432.112 1.25114 -2.73435 0
M  V30 4628 C 433.66 1.3618 -2.81823 0
M  V30 4629 C 434.135 1.77563 -4.22179 0
M  V30 4630 N 435.626 1.8469 -4.24787 0
M  V30 4631 C 436.361 2.18067 -5.30315 0
M  V30 4632 N 435.857 2.49963 -6.46135 0
M  V30 4633 N 437.65 2.18958 -5.17701 0
M  V30 4634 H 429.801 -0.19275 -2.11524 0
M  V30 4635 H 432.064 -0.0235777 -0.947707 0
M  V30 4636 H 431.77 0.50514 -3.48053 0
M  V30 4637 H 431.644 2.20431 -3.06088 0
M  V30 4638 H 434.031 2.09859 -2.07468 0
M  V30 4639 H 434.112 0.390169 -2.52807 0
M  V30 4640 H 433.756 1.04449 -4.97044 0
M  V30 4641 H 433.686 2.75753 -4.48629 0
M  V30 4642 H 436.177 1.62372 -3.41239 0
M  V30 4643 H 436.49 2.74497 -7.22406 0
M  V30 4644 H 434.835 2.47513 -6.49432 0
M  V30 4645 H 438.026 1.93488 -4.2624 0
M  V30 4646 H 438.199 2.44639 -6.00047 0
M  V30 4647 N 431.605 1.3629 0.791371 0
M  V30 4648 C 432.854 1.29742 1.54434 0
M  V30 4649 C 433.167 -0.121729 1.95221 0
M  V30 4650 O 434.373 -0.309579 2.69729 0
M  V30 4651 C 432.829 2.27623 2.78776 0
M  V30 4652 C 432.437 3.74963 2.45166 0
M  V30 4653 C 434.181 2.30047 3.56761 0
M  V30 4654 C 432.088 4.64626 3.65891 0
M  V30 4655 H 431.018 0.482113 0.579727 0
M  V30 4656 H 433.669 1.61642 0.868565 0
M  V30 4657 H 432.051 1.88714 3.48142 0
M  V30 4658 H 433.225 4.22596 1.83709 0
M  V30 4659 H 431.54 3.75295 1.80396 0
M  V30 4660 H 434.137 2.94247 4.46456 0
M  V30 4661 H 434.48 1.30846 3.95203 0
M  V30 4662 H 435.013 2.67563 2.94372 0
M  V30 4663 H 431.752 5.64883 3.32547 0
M  V30 4664 H 431.272 4.2171 4.26521 0
M  V30 4665 H 432.951 4.80801 4.32943 0
M  V30 4666 N 433.083 -1.0153 1.20538 0
M  V30 4667 C 434.033 -2.08482 0.922991 0
M  V30 4668 C 435.017 -1.60469 -0.117702 0
M  V30 4669 O 436.209 -1.76772 0.0898465 0
M  V30 4670 C 433.338 -3.39952 0.478312 0
M  V30 4671 C 432.424 -3.94662 1.5525 0
M  V30 4672 N 432.815 -4.22866 2.77521 0
M  V30 4673 C 431.113 -4.22825 1.41897 0
M  V30 4674 C 431.814 -4.67002 3.4682 0
M  V30 4675 N 430.79 -4.69356 2.74237 0
M  V30 4676 H 434.592 -2.28199 1.85209 0
M  V30 4677 H 432.106 -1.19512 1.09957 0
M  V30 4678 H 434.103 -4.16105 0.257408 0
M  V30 4679 H 432.763 -3.21648 -0.444148 0
M  V30 4680 H 433.774 -4.11732 3.1416 0
M  V30 4681 H 430.451 -4.13714 0.561015 0
M  V30 4682 H 431.841 -4.97632 4.51455 0
M  V30 4683 N 434.561 -1.01147 -1.20859 0
M  V30 4684 C 435.471 -0.58686 -2.27141 0
M  V30 4685 C 436.487 0.373198 -1.69951 0
M  V30 4686 O 437.663 0.235423 -2.00019 0
M  V30 4687 C 434.728 0.0733602 -3.46622 0
M  V30 4688 C 433.789 -0.931995 -4.19061 0
M  V30 4689 C 433.022 -0.303186 -5.32838 0
M  V30 4690 O 433.245 0.898395 -5.63281 0
M  V30 4691 O 432.179 -1.01735 -5.9324 0
M  V30 4692 H 436.005 -1.47155 -2.65667 0
M  V30 4693 H 433.59 -0.780689 -1.2738 0
M  V30 4694 H 435.472 0.442333 -4.19072 0
M  V30 4695 H 434.147 0.932329 -3.09983 0
M  V30 4696 H 433.054 -1.35224 -3.48805 0
M  V30 4697 H 434.387 -1.76076 -4.59628 0
M  V30 4698 N 436.039 1.36541 -0.78704 0
M  V30 4699 C 437.286 1.99304 -0.358341 0
M  V30 4700 C 437.614 1.62467 1.06933 0
M  V30 4701 O 436.869 0.870019 1.75297 0
M  V30 4702 C 437.168 3.54343 -0.466485 0
M  V30 4703 C 436.834 4.10993 -1.85461 0
M  V30 4704 C 435.496 4.26177 -2.23443 0
M  V30 4705 C 437.848 4.41895 -2.76366 0
M  V30 4706 C 435.176 4.69573 -3.51736 0
M  V30 4707 C 437.528 4.86722 -4.04084 0
M  V30 4708 C 436.192 5.00112 -4.42091 0
M  V30 4709 H 435.462 0.729306 -0.131126 0
M  V30 4710 H 438.109 1.63068 -1.00404 0
M  V30 4711 H 436.414 3.90918 0.262719 0
M  V30 4712 H 438.111 4.00833 -0.115854 0
M  V30 4713 H 434.701 3.99612 -1.54946 0
M  V30 4714 H 438.885 4.29735 -2.48277 0
M  V30 4715 H 434.141 4.78127 -3.81057 0
M  V30 4716 H 438.315 5.09598 -4.7464 0
M  V30 4717 H 435.942 5.33498 -5.41557 0
M  V30 4718 N 437.518 0.538854 1.48102 0
M  V30 4719 C 438.934 0.19732 1.58376 0
M  V30 4720 C 439.134 -1.29971 1.5398 0
M  V30 4721 O 438.19 -2.07861 1.43352 0
M  V30 4722 C 439.503 0.807716 2.89649 0
M  V30 4723 C 441.051 0.77726 3.03196 0
M  V30 4724 C 441.526 1.36639 4.37143 0
M  V30 4725 N 443.017 1.32875 4.43732 0
M  V30 4726 C 443.752 1.7544 5.45901 0
M  V30 4727 N 443.248 2.25776 6.54979 0
M  V30 4728 N 445.041 1.66623 5.36836 0
M  V30 4729 H 437.192 1.5117 1.49202 0
M  V30 4730 H 439.455 0.629327 0.708979 0
M  V30 4731 H 439.161 1.85909 2.98548 0
M  V30 4732 H 439.035 0.289975 3.76084 0
M  V30 4733 H 441.422 -0.265374 2.93904 0
M  V30 4734 H 441.503 1.33256 2.18349 0
M  V30 4735 H 441.147 2.408 4.47189 0
M  V30 4736 H 441.077 0.786689 5.20691 0
M  V30 4737 H 443.568 0.96037 3.65493 0
M  V30 4738 H 443.881 2.56226 7.29087 0
M  V30 4739 H 442.226 2.29775 6.55918 0
M  V30 4740 H 445.417 1.27089 4.50517 0
M  V30 4741 H 445.59 2.00115 6.16326 0
M  V30 4742 N 438.996 -1.55193 0.274407 0
M  V30 4743 C 439.946 -2.19184 -0.627882 0
M  V30 4744 C 440.93 -1.15625 -1.11892 0
M  V30 4745 O 442.122 -1.41441 -1.06411 0
M  V30 4746 C 439.251 -2.91591 -1.81189 0
M  V30 4747 C 438.337 -4.02438 -1.33807 0
M  V30 4748 N 438.728 -5.0246 -0.580349 0
M  V30 4749 C 437.026 -4.15496 -1.62109 0
M  V30 4750 C 437.727 -5.80756 -0.331344 0
M  V30 4751 N 436.703 -5.36038 -0.903556 0
M  V30 4752 H 440.505 -2.93871 -0.0411216 0
M  V30 4753 H 438.019 -1.62213 0.0779348 0
M  V30 4754 H 440.016 -3.35883 -2.46957 0
M  V30 4755 H 438.676 -2.18414 -2.40261 0
M  V30 4756 H 439.687 -5.17399 -0.227762 0
M  V30 4757 H 436.364 -3.53509 -2.22121 0
M  V30 4758 H 437.754 -6.71335 0.275454 0
M  V30 4759 N 440.474 -0.00167713 -1.576 0
M  V30 4760 C 441.721 0.68282 -1.90641 0
M  V30 4761 C 442.049 1.73686 -0.875415 0
M  V30 4762 O 441.304 1.95334 0.119575 0
M  V30 4763 C 441.603 1.36189 -3.30435 0
M  V30 4764 C 441.269 0.440887 -4.48739 0
M  V30 4765 C 439.931 0.187312 -4.80835 0
M  V30 4766 C 442.283 -0.193134 -5.20842 0
M  V30 4767 C 439.611 -0.70855 -5.82406 0
M  V30 4768 C 441.963 -1.07688 -6.23367 0
M  V30 4769 C 440.627 -1.33962 -6.53919 0
M  V30 4770 H 439.897 0.249862 -0.697603 0
M  V30 4771 H 442.544 -0.0575642 -1.91413 0
M  V30 4772 H 440.849 2.17636 -3.25794 0
M  V30 4773 H 442.546 1.89759 -3.5326 0
M  V30 4774 H 439.136 0.648694 -4.23663 0
M  V30 4775 H 443.32 -0.0102445 -4.96299 0
M  V30 4776 H 438.576 -0.920097 -6.04437 0
M  V30 4777 H 442.75 -1.57451 -6.78367 0
M  V30 4778 H 440.377 -2.03549 -7.32442 0
M  V30 4779 N 441.952 1.55251 0.271103 0
M  V30 4780 C 442.902 1.84649 1.33749 0
M  V30 4781 C 443.886 0.705529 1.44607 0
M  V30 4782 O 445.078 0.966916 1.48256 0
M  V30 4783 C 442.207 2.12354 2.69742 0
M  V30 4784 C 441.293 3.32714 2.62988 0
M  V30 4785 N 441.684 4.52575 2.25853 0
M  V30 4786 C 439.982 3.35341 2.94045 0
M  V30 4787 C 440.683 5.34669 2.29136 0
M  V30 4788 N 439.659 4.73123 2.67685 0
M  V30 4789 H 443.461 2.74865 1.0405 0
M  V30 4790 H 440.975 1.55152 0.479738 0
M  V30 4791 H 442.972 2.31572 3.4667 0
M  V30 4792 H 441.632 1.23422 3.00328 0
M  V30 4793 H 442.643 4.78639 1.978 0
M  V30 4794 H 439.32 2.56608 3.2933 0
M  V30 4795 H 440.71 6.40509 2.02971 0
M  V30 4796 N 443.43 -0.535701 1.48216 0
M  V30 4797 C 444.841 -1.11769 1.49548 0
M  V30 4798 C 445.192 -1.94442 0.26207 0
M  V30 4799 O 444.317 -2.06987 -0.631287 0
M  V30 4800 C 444.912 -2.03367 2.70975 0
M  V30 4801 C 443.471 -2.56795 2.75196 0
M  V30 4802 C 442.618 -1.33631 2.42977 0
M  V30 4803 H 445.569 -0.321232 1.55415 0
M  V30 4804 H 445.59 -2.87569 2.49167 0
M  V30 4805 H 445.102 -1.43169 3.60727 0
M  V30 4806 H 443.203 -3.20731 1.89638 0
M  V30 4807 H 443.316 -2.9632 3.76472 0
M  V30 4808 H 441.68 -1.6502 1.94012 0
M  V30 4809 H 442.463 -0.75194 3.34964 0
M  V30 4810 N 444.908 -1.36708 -0.784132 0
M  V30 4811 C 445.818 -1.3363 -1.92822 0
M  V30 4812 C 446.834 -0.237686 -1.72369 0
M  V30 4813 O 448.01 -0.470962 -1.95816 0
M  V30 4814 C 445.075 -1.13011 -3.27764 0
M  V30 4815 C 444.136 -2.32397 -3.60957 0
M  V30 4816 C 443.369 -2.12752 -4.89461 0
M  V30 4817 O 443.592 -1.10541 -5.59586 0
M  V30 4818 O 442.526 -3.00653 -5.21432 0
M  V30 4819 H 446.352 -2.29964 -1.98369 0
M  V30 4820 H 443.937 -1.1731 -0.925136 0
M  V30 4821 H 445.819 -1.03451 -4.08504 0
M  V30 4822 H 444.494 -0.19743 -3.23097 0
M  V30 4823 H 443.401 -2.47527 -2.80502 0
M  V30 4824 H 444.734 -3.2419 -3.70354 0
M  V30 4825 N 446.386 1.0089 -1.21074 0
M  V30 4826 C 447.802 1.2695 -0.967257 0
M  V30 4827 C 448.002 1.9846 0.348673 0
M  V30 4828 O 447.058 2.28459 1.0753 0
M  V30 4829 C 448.371 2.09697 -2.15517 0
M  V30 4830 C 449.919 2.22937 -2.197 0
M  V30 4831 C 450.394 3.09064 -3.37999 0
M  V30 4832 N 451.885 3.16653 -3.38061 0
M  V30 4833 C 452.62 3.8354 -4.26245 0
M  V30 4834 N 452.116 4.52488 -5.2462 0
M  V30 4835 N 453.909 3.80141 -4.14064 0
M  V30 4836 H 446.06 0.529005 -2.05707 0
M  V30 4837 H 448.323 0.296148 -0.900556 0
M  V30 4838 H 448.029 1.64497 -3.10859 0
M  V30 4839 H 447.903 3.10444 -2.14253 0
M  V30 4840 H 450.29 2.67357 -1.24916 0
M  V30 4841 H 450.371 1.21673 -2.2501 0
M  V30 4842 H 450.015 2.65347 -4.33074 0
M  V30 4843 H 449.945 4.10433 -3.29928 0
M  V30 4844 H 452.436 2.67566 -2.66865 0
M  V30 4845 H 452.749 5.01219 -5.88217 0
M  V30 4846 H 451.094 4.51288 -5.28549 0
M  V30 4847 H 454.285 3.25427 -3.36474 0
M  V30 4848 H 454.458 4.31992 -4.82998 0
M  V30 4849 N 447.864 1.01787 1.20321 0
M  V30 4850 C 449.141 0.622978 1.85414 0
M  V30 4851 C 449.521 -0.898887 1.91006 0
M  V30 4852 O 448.869 -1.79112 1.41884 0
M  V30 4853 C 449.079 1.27226 3.24984 0
M  V30 4854 C 450.427 1.3885 4.01255 0
M  V30 4855 O 451.451 1.22857 3.34342 0
M  V30 4856 O 450.31 1.64705 5.2109 0
M  V30 4857 H 447.404 0.215116 0.798533 0
M  V30 4858 H 449.95 1.11533 1.27901 0
M  V30 4859 H 448.722 2.31209 3.15687 0
M  V30 4860 H 448.345 0.767069 3.90131 0
M  V30 4861 N 449.342 -1.36122 0.79427 0
M  V30 4862 C 450.572 -2.03067 0.380437 0
M  V30 4863 C 450.98 -1.60018 -1.00949 0
M  V30 4864 O 450.323 -0.787425 -1.65968 0
M  V30 4865 C 450.385 -3.57587 0.37034 0
M  V30 4866 C 450.049 -4.23855 1.70867 0
M  V30 4867 C 451.046 -4.46404 2.66496 0
M  V30 4868 C 448.731 -4.61229 1.9893 0
M  V30 4869 C 450.725 -5.05412 3.88378 0
M  V30 4870 C 448.412 -5.19953 3.21079 0
M  V30 4871 C 449.41 -5.41985 4.15621 0
M  V30 4872 O 449.098 -5.99475 5.35616 0
M  V30 4873 H 448.83 -0.658168 0.154243 0
M  V30 4874 H 451.384 -1.7498 1.0757 0
M  V30 4875 H 449.614 -3.84814 -0.381444 0
M  V30 4876 H 451.303 -4.05895 -0.0194894 0
M  V30 4877 H 452.069 -4.17921 2.46103 0
M  V30 4878 H 447.948 -4.43402 1.26158 0
M  V30 4879 H 451.492 -5.22524 4.62185 0
M  V30 4880 H 447.389 -5.47862 3.41347 0
M  V30 4881 H 448.157 -6.17937 5.36745 0
M  V30 4882 N 450.82 -0.546701 -1.47814 0
M  V30 4883 C 452.231 -0.110564 -1.86372 0
M  V30 4884 C 452.582 1.31678 -1.45449 0
M  V30 4885 O 451.707 1.98889 -0.852758 0
M  V30 4886 C 452.302 -0.193873 -3.38245 0
M  V30 4887 C 450.861 0.187164 -3.75934 0
M  V30 4888 C 450.008 -0.546166 -2.71868 0
M  V30 4889 H 452.959 -0.757022 -1.39481 0
M  V30 4890 H 452.98 0.590218 -3.75895 0
M  V30 4891 H 452.492 -1.23282 -3.67999 0
M  V30 4892 H 450.593 1.22762 -3.51796 0
M  V30 4893 H 450.706 -0.164083 -4.78819 0
M  V30 4894 H 449.07 0.00953904 -2.54698 0
M  V30 4895 H 449.853 -1.58606 -3.04465 0
M  V30 4896 N 452.299 1.55045 -0.282633 0
M  V30 4897 C 453.527 2.04168 0.33512 0
M  V30 4898 C 453.942 1.16071 1.48906 0
M  V30 4899 O 453.299 0.182391 1.81586 0
M  V30 4900 C 453.35 3.52332 0.808957 0
M  V30 4901 O 453.071 4.37078 -0.299038 0
M  V30 4902 C 454.572 4.17375 1.49375 0
M  V30 4903 H 451.792 0.666744 0.0754543 0
M  V30 4904 H 454.336 2.00205 -0.416918 0
M  V30 4905 H 452.491 3.56715 1.51106 0
M  V30 4906 H 452.905 5.24458 0.0665514 0
M  V30 4907 H 454.379 5.22627 1.77664 0
M  V30 4908 H 454.856 3.65999 2.42778 0
M  V30 4909 H 455.462 4.17016 0.835305 0
M  V30 4910 N 453.777 0.010035 1.57597 0
M  V30 4911 C 455.054 -0.710296 1.82248 0
M  V30 4912 C 455.434 -1.91426 0.889911 0
M  V30 4913 O 454.782 -2.28424 -0.0590292 0
M  V30 4914 C 454.992 -1.10655 3.30993 0
M  V30 4915 C 456.34 -1.50621 3.96987 0
M  V30 4916 O 457.364 -1.20007 3.35375 0
M  V30 4917 O 456.223 -2.07587 5.05539 0
M  V30 4918 H 453.317 -0.34673 0.750804 0
M  V30 4919 H 455.863 0.0362578 1.69661 0
M  V30 4920 H 454.635 -0.248826 3.90508 0
M  V30 4921 H 454.258 -1.91189 3.48615 0
M  V30 4922 N 455.255 -1.55392 -0.262866 0
M  V30 4923 C 456.202 -1.88966 -1.32516 0
M  V30 4924 C 457.172 -0.742187 -1.48596 0
M  V30 4925 O 458.357 -0.99439 -1.62839 0
M  V30 4926 C 455.497 -2.17592 -2.67858 0
M  V30 4927 C 454.61 -3.45061 -2.59917 0
M  V30 4928 C 453.745 -3.63336 -3.87505 0
M  V30 4929 C 452.784 -4.84462 -3.74116 0
M  V30 4930 N 451.921 -4.99342 -4.93561 0
M  V30 4931 H 456.761 -2.79566 -1.03184 0
M  V30 4932 H 454.298 -1.38404 -0.498285 0
M  V30 4933 H 456.256 -2.3219 -3.46617 0
M  V30 4934 H 454.886 -1.30215 -2.95371 0
M  V30 4935 H 453.938 -3.38881 -1.72812 0
M  V30 4936 H 455.25 -4.3396 -2.45926 0
M  V30 4937 H 454.404 -3.77807 -4.74707 0
M  V30 4938 H 453.143 -2.72641 -4.04374 0
M  V30 4939 H 452.148 -4.69985 -2.85297 0
M  V30 4940 H 453.373 -5.76603 -3.58757 0
M  V30 4941 H 451.319 -4.1158 -5.10821 0
M  V30 4942 H 451.236 -5.82303 -4.82141 0
M  V30 4943 H 452.504 -5.18208 -5.82306 0
M  V30 4944 N 456.733 0.527833 -1.48498 0
M  V30 4945 C 457.961 1.30823 -1.6029 0
M  V30 4946 C 458.376 1.86945 -0.263974 0
M  V30 4947 O 457.733 1.6651 0.747034 0
M  V30 4948 C 457.784 2.45756 -2.65116 0
M  V30 4949 O 457.505 1.91946 -3.93813 0
M  V30 4950 C 459.006 3.37543 -2.87367 0
M  V30 4951 H 456.226 0.397763 -0.540394 0
M  V30 4952 H 458.77 0.636529 -1.94341 0
M  V30 4953 H 456.925 3.08806 -2.33917 0
M  V30 4954 H 457.339 2.67195 -4.51339 0
M  V30 4955 H 458.813 4.14532 -3.6451 0
M  V30 4956 H 459.29 3.92905 -1.9627 0
M  V30 4957 H 459.896 2.80283 -3.19878 0
M  V30 4958 N 458.211 1.37122 0.776871 0
M  V30 4959 C 459.457 1.32243 1.53752 0
M  V30 4960 C 459.79 -0.0944745 1.9397 0
M  V30 4961 O 459.065 -1.05068 1.6368 0
M  V30 4962 C 459.348 2.25681 2.80607 0
M  V30 4963 C 459.201 3.76127 2.46676 0
M  V30 4964 C 460.52 2.17657 3.82509 0
M  V30 4965 H 457.639 0.481704 0.557791 0
M  V30 4966 H 460.281 1.6778 0.891612 0
M  V30 4967 H 458.431 1.95505 3.35723 0
M  V30 4968 H 460.103 4.16877 1.97513 0
M  V30 4969 H 458.346 3.94946 1.79443 0
M  V30 4970 H 459.017 4.36933 3.37333 0
M  V30 4971 H 461.493 2.44245 3.36873 0
M  V30 4972 H 460.369 2.85185 4.69 0
M  V30 4973 H 460.63 1.16785 4.26396 0
M  V30 4974 N 459.689 -1.00246 1.21608 0
M  V30 4975 C 460.938 -1.73476 1.02902 0
M  V30 4976 C 461.251 -1.90643 -0.437561 0
M  V30 4977 O 462.457 -2.61105 -0.74407 0
M  V30 4978 C 460.913 -3.12079 1.79261 0
M  V30 4979 C 460.521 -3.02877 3.30106 0
M  V30 4980 C 462.265 -3.89421 1.68972 0
M  V30 4981 C 460.172 -4.36575 3.98944 0
M  V30 4982 H 459.102 -0.650408 0.381425 0
M  V30 4983 H 461.753 -1.11985 1.45367 0
M  V30 4984 H 460.135 -3.74196 1.2959 0
M  V30 4985 H 461.309 -2.49983 3.87098 0
M  V30 4986 H 459.624 -2.39022 3.40965 0
M  V30 4987 H 462.221 -4.88362 2.17731 0
M  V30 4988 H 462.564 -4.1122 0.648397 0
M  V30 4989 H 463.097 -3.33963 2.16133 0
M  V30 4990 H 459.836 -4.19978 5.03288 0
M  V30 4991 H 459.356 -4.8942 3.4674 0
M  V30 4992 H 461.035 -5.05364 4.04 0
M  V30 4993 N 461.167 -1.02423 -1.1978 0
M  V30 4994 C 462.1 -0.545641 -2.21581 0
M  V30 4995 C 463.078 0.411024 -1.57319 0
M  V30 4996 O 464.262 0.329223 -1.85603 0
M  V30 4997 C 461.389 0.204973 -3.38079 0
M  V30 4998 C 460.435 -0.70241 -4.20676 0
M  V30 4999 S 461.268 -2.17595 -4.89298 0
M  V30 5000 C 462.424 -1.43572 -6.09211 0
M  V30 5001 H 462.657 -1.4082 -2.61834 0
M  V30 5002 H 460.19 -0.833771 -1.29952 0
M  V30 5003 H 462.148 0.631924 -4.05607 0
M  V30 5004 H 460.809 1.0432 -2.9627 0
M  V30 5005 H 460.002 -0.123193 -5.03849 0
M  V30 5006 H 459.604 -1.06747 -3.58442 0
M  V30 5007 H 461.896 -0.719806 -6.73665 0
M  V30 5008 H 462.839 -2.24388 -6.71607 0
M  V30 5009 H 463.247 -0.935252 -5.56699 0
M  V30 5010 N 462.645 1.35699 -0.801477 0
M  V30 5011 C 464.061 1.52065 -0.484596 0
M  V30 5012 C 464.261 1.75215 0.995084 0
M  V30 5013 O 463.317 1.79061 1.78026 0
M  V30 5014 C 464.63 2.69908 -1.32552 0
M  V30 5015 C 466.178 2.83784 -1.32044 0
M  V30 5016 C 466.653 4.04646 -2.14536 0
M  V30 5017 N 468.144 4.11814 -2.12046 0
M  V30 5018 C 468.879 5.04437 -2.72636 0
M  V30 5019 N 468.375 6.02426 -3.42133 0
M  V30 5020 N 470.168 4.97144 -2.62305 0
M  V30 5021 H 462.319 1.18928 -1.75983 0
M  V30 5022 H 464.582 0.581455 -0.748741 0
M  V30 5023 H 464.288 2.59363 -2.37537 0
M  V30 5024 H 464.162 3.64376 -0.975181 0
M  V30 5025 H 466.549 2.93783 -0.27846 0
M  V30 5026 H 466.63 1.90188 -1.71062 0
M  V30 5027 H 466.274 3.95407 -3.18772 0
M  V30 5028 H 466.204 4.97413 -1.72882 0
M  V30 5029 H 468.695 3.41664 -1.61476 0
M  V30 5030 H 469.008 6.69688 -3.85666 0
M  V30 5031 H 467.353 6.02615 -3.46237 0
M  V30 5032 H 470.544 4.19546 -2.07603 0
M  V30 5033 H 470.717 5.69138 -3.09815 0
M  V30 5034 N 464.123 0.554532 1.47522 0
M  V30 5035 C 465.033 -0.197865 2.33764 0
M  V30 5036 C 466.049 -0.914576 1.48025 0
M  V30 5037 O 467.225 -0.884067 1.80959 0
M  V30 5038 C 464.29 -1.21628 3.24665 0
M  V30 5039 C 463.351 -0.507283 4.26292 0
M  V30 5040 C 462.584 -1.47718 5.1285 0
M  V30 5041 O 462.807 -2.7118 5.01814 0
M  V30 5042 O 461.741 -1.00313 5.93482 0
M  V30 5043 H 465.567 0.50949 2.99396 0
M  V30 5044 H 463.152 0.315176 1.46038 0
M  V30 5045 H 465.034 -1.80421 3.80823 0
M  V30 5046 H 463.709 -1.9056 2.61665 0
M  V30 5047 H 462.616 0.121778 3.73902 0
M  V30 5048 H 463.949 0.140544 4.91999 0
M  V30 5049 N 465.601 -1.54893 0.290851 0
M  V30 5050 C 466.831 -2.04047 -0.323818 0
M  V30 5051 C 467.239 -1.16809 -1.48837 0
M  V30 5052 O 466.582 -0.184145 -1.82775 0
M  V30 5053 C 466.644 -3.49248 -0.852395 0
M  V30 5054 C 466.308 -4.56623 0.185557 0
M  V30 5055 C 467.305 -5.09985 1.01053 0
M  V30 5056 C 464.99 -5.01252 0.324332 0
M  V30 5057 C 466.984 -6.06507 1.96031 0
M  V30 5058 C 464.671 -5.97596 1.27757 0
M  V30 5059 C 465.669 -6.50107 2.09405 0
M  V30 5060 O 465.357 -7.44565 3.03114 0
M  V30 5061 H 465.089 -0.671735 -0.0758129 0
M  V30 5062 H 467.643 -2.00947 0.425393 0
M  V30 5063 H 465.873 -3.49639 -1.65195 0
M  V30 5064 H 467.562 -3.81654 -1.38185 0
M  V30 5065 H 468.328 -4.76307 0.914129 0
M  V30 5066 H 464.207 -4.60015 -0.301213 0
M  V30 5067 H 467.751 -6.47418 2.598 0
M  V30 5068 H 463.648 -6.30691 1.37473 0
M  V30 5069 H 464.416 -7.62334 2.97976 0
M  V30 5070 N 467.08 -0.0183926 -1.57589 0
M  V30 5071 C 468.305 0.676634 -1.96052 0
M  V30 5072 C 468.73 1.6548 -0.894307 0
M  V30 5073 O 468.088 1.80712 0.145849 0
M  V30 5074 C 468.136 1.36872 -3.33614 0
M  V30 5075 O 467.24 2.48372 -3.29219 0
M  V30 5076 H 466.581 0.1786 -0.63953 0
M  V30 5077 H 469.111 -0.077056 -2.04455 0
M  V30 5078 H 469.121 1.72797 -3.69601 0
M  V30 5079 H 467.796 0.651636 -4.10763 0
M  V30 5080 H 466.373 2.14639 -3.04934 0
M  V30 5081 N 468.558 1.5553 0.254621 0
M  V30 5082 C 469.974 1.4778 0.602753 0
M  V30 5083 C 470.174 0.707047 1.88688 0
M  V30 5084 O 469.23 0.233288 2.5142 0
M  V30 5085 C 470.543 2.92133 0.712648 0
M  V30 5086 C 472.091 3.02458 0.805488 0
M  V30 5087 C 472.566 4.48102 0.947009 0
M  V30 5088 N 474.057 4.52008 1.01207 0
M  V30 5089 C 474.792 5.61939 1.1407 0
M  V30 5090 N 474.288 6.81697 1.23536 0
M  V30 5091 N 476.081 5.49719 1.17325 0
M  V30 5092 H 468.232 2.04085 -0.588463 0
M  V30 5093 H 470.495 0.926229 -0.202001 0
M  V30 5094 H 470.201 3.51332 -0.160766 0
M  V30 5095 H 470.075 3.42187 1.58707 0
M  V30 5096 H 472.462 2.43344 1.66936 0
M  V30 5097 H 472.543 2.55627 -0.0939266 0
M  V30 5098 H 472.187 5.07824 0.087725 0
M  V30 5099 H 472.117 4.92607 1.86135 0
M  V30 5100 H 474.608 3.65749 0.950577 0
M  V30 5101 H 474.921 7.61228 1.33236 0
M  V30 5102 H 473.266 6.84473 1.20508 0
M  V30 5103 H 476.457 4.55095 1.09573 0
M  V30 5104 H 476.63 6.35432 1.27005 0
M  V30 5105 N 470.036 -0.519951 1.48776 0
M  V30 5106 C 471.283 -1.27522 1.57303 0
M  V30 5107 C 471.611 -1.92869 0.251328 0
M  V30 5108 O 470.866 -1.80372 -0.759243 0
M  V30 5109 C 471.165 -2.37864 2.6675 0
M  V30 5110 C 470.831 -1.90103 4.08867 0
M  V30 5111 C 469.493 -1.76795 4.47546 0
M  V30 5112 C 471.845 -1.54133 4.97888 0
M  V30 5113 C 469.173 -1.25868 5.73039 0
M  V30 5114 C 471.525 -1.04665 6.23881 0
M  V30 5115 C 470.189 -0.899823 6.61407 0
M  V30 5116 H 469.459 -0.466636 0.575614 0
M  V30 5117 H 472.106 -0.579109 1.82534 0
M  V30 5118 H 470.411 -3.13186 2.35418 0
M  V30 5119 H 472.108 -2.95969 2.70561 0
M  V30 5120 H 468.698 -2.01414 3.78326 0
M  V30 5121 H 472.882 -1.6327 4.68675 0
M  V30 5122 H 468.138 -1.13196 6.0083 0
M  V30 5123 H 472.312 -0.759074 6.92251 0
M  V30 5124 H 469.939 -0.503011 7.58534 0
M  V30 5125 N 471.514 -1.37532 -0.769588 0
M  V30 5126 C 472.477 -1.33292 -1.86456 0
M  V30 5127 C 473.477 -0.236537 -1.59051 0
M  V30 5128 O 474.667 -0.492511 -1.67093 0
M  V30 5129 C 471.799 -1.07118 -3.23633 0
M  V30 5130 H 472.992 -2.30692 -1.91628 0
M  V30 5131 H 470.545 -1.22593 -0.969572 0
M  V30 5132 H 471.28 -0.102578 -3.24138 0
M  V30 5133 H 471.065 -1.86479 -3.44917 0
M  V30 5134 H 472.555 -1.06806 -4.03711 0
M  V30 5135 N 472.992 0.995999 -1.22138 0
M  V30 5136 C 473.902 2.11985 -1.00496 0
M  V30 5137 C 474.918 1.7394 0.0457701 0
M  V30 5138 O 476.094 2.00868 -0.146273 0
M  V30 5139 C 473.159 3.41779 -0.582086 0
M  V30 5140 C 472.22 3.93943 -1.70608 0
M  V30 5141 C 471.453 5.17542 -1.30328 0
M  V30 5142 O 471.676 5.70114 -0.180743 0
M  V30 5143 O 470.61 5.63382 -2.11861 0
M  V30 5144 H 474.436 2.33123 -1.94647 0
M  V30 5145 H 472.021 1.10358 -1.00705 0
M  V30 5146 H 473.903 4.1989 -0.356467 0
M  V30 5147 H 472.578 3.22007 0.330592 0
M  V30 5148 H 471.485 3.17019 -1.98619 0
M  V30 5149 H 472.818 4.18141 -2.59651 0
M  V30 5150 N 474.47 1.03057 1.19235 0
M  V30 5151 C 475.747 0.642608 1.84743 0
M  V30 5152 C 476.127 -0.878577 1.91948 0
M  V30 5153 O 475.475 -1.77597 1.43776 0
M  V30 5154 C 475.685 1.30665 3.23616 0
M  V30 5155 C 477.033 1.43098 3.9976 0
M  V30 5156 O 478.057 1.26396 3.3302 0
M  V30 5157 O 476.916 1.70223 5.19313 0
M  V30 5158 H 474.01 0.223573 0.796206 0
M  V30 5159 H 476.556 1.12883 1.26711 0
M  V30 5160 H 475.328 2.34544 3.13217 0
M  V30 5161 H 474.951 0.808405 3.89295 0
M  V30 5162 N 475.948 -1.35272 0.808662 0
M  V30 5163 C 477.225 -1.93077 0.313181 0
M  V30 5164 C 477.605 -1.73847 -1.19752 0
M  V30 5165 O 476.953 -1.1087 -1.998 0
M  V30 5166 C 477.163 -3.41347 0.726859 0
M  V30 5167 C 478.511 -4.18493 0.717532 0
M  V30 5168 O 479.535 -3.4987 0.668535 0
M  V30 5169 O 478.394 -5.40937 0.777779 0
M  V30 5170 H 475.488 -0.822885 0.0824018 0
M  V30 5171 H 478.034 -1.44335 0.892499 0
M  V30 5172 H 476.806 -3.49082 1.76797 0
M  V30 5173 H 476.429 -3.97411 0.122461 0
M  V30 5174 N 477.426 -0.562348 -1.47226 0
M  V30 5175 C 478.703 0.0256985 -1.95583 0
M  V30 5176 C 479.083 1.48032 -1.50498 0
M  V30 5177 O 478.431 2.15973 -0.746181 0
M  V30 5178 C 478.641 -0.125129 -3.48776 0
M  V30 5179 C 479.989 0.0175728 -4.24596 0
M  V30 5180 O 481.013 -0.0529341 -3.56161 0
M  V30 5181 O 479.872 0.170145 -5.46235 0
M  V30 5182 H 476.966 0.0612565 -0.824728 0
M  V30 5183 H 479.512 -0.629233 -1.57603 0
M  V30 5184 H 478.284 -1.13715 -3.74412 0
M  V30 5185 H 477.907 0.567178 -3.93534 0
M  V30 5186 N 478.904 1.54736 -0.299062 0
M  V30 5187 C 479.814 2.27127 0.587413 0
M  V30 5188 C 480.83 1.30575 1.15005 0
M  V30 5189 O 482.006 1.63554 1.17525 0
M  V30 5190 C 479.071 2.99645 1.74395 0
M  V30 5191 C 478.132 4.11731 1.21559 0
M  V30 5192 C 477.365 4.80781 2.317 0
M  V30 5193 O 477.588 4.4918 3.51558 0
M  V30 5194 O 476.522 5.68226 1.98501 0
M  V30 5195 H 480.348 3.037 0.000250109 0
M  V30 5196 H 477.933 1.49256 -0.0655919 0
M  V30 5197 H 479.815 3.45138 2.4178 0
M  V30 5198 H 478.49 2.25969 2.31775 0
M  V30 5199 H 477.397 3.70641 0.507514 0
M  V30 5200 H 478.73 4.87379 0.687233 0
M  V30 5201 N 480.382 0.0267497 1.57577 0
M  V30 5202 C 481.793 -0.512413 1.79531 0
M  V30 5203 C 482.144 -1.72391 0.936791 0
M  V30 5204 O 481.269 -2.15903 0.146543 0
M  V30 5205 C 481.864 -0.936378 3.25603 0
M  V30 5206 C 480.423 -1.42067 3.4856 0
M  V30 5207 C 479.57 -0.384278 2.74624 0
M  V30 5208 H 482.521 0.252797 1.56674 0
M  V30 5209 H 482.542 -1.80088 3.35184 0
M  V30 5210 H 482.054 -0.0544332 3.88062 0
M  V30 5211 H 480.155 -2.32262 2.9135 0
M  V30 5212 H 480.268 -1.42968 4.57271 0
M  V30 5213 H 478.632 -0.851855 2.40032 0
M  V30 5214 H 479.415 0.489159 3.39797 0
M  V30 5215 N 481.861 -1.55662 -0.24637 0
M  V30 5216 C 483.091 -1.81312 -0.990438 0
M  V30 5217 C 483.499 -0.600234 -1.79426 0
M  V30 5218 O 482.842 0.440537 -1.78339 0
M  V30 5219 C 482.904 -3.0032 -1.97607 0
M  V30 5220 C 482.568 -4.36322 -1.35912 0
M  V30 5221 C 483.565 -5.14295 -0.761348 0
M  V30 5222 C 481.25 -4.83019 -1.37833 0
M  V30 5223 C 483.244 -6.37114 -0.190998 0
M  V30 5224 C 480.931 -6.05786 -0.804128 0
M  V30 5225 C 481.929 -6.82672 -0.211489 0
M  V30 5226 O 481.617 -8.03121 0.353845 0
M  V30 5227 H 481.349 -0.607233 -0.297058 0
M  V30 5228 H 483.903 -2.0356 -0.274351 0
M  V30 5229 H 482.133 -2.73829 -2.73047 0
M  V30 5230 H 483.822 -3.13057 -2.58361 0
M  V30 5231 H 484.588 -4.79337 -0.739013 0
M  V30 5232 H 480.467 -4.23165 -1.829 0
M  V30 5233 H 484.011 -6.97069 0.272206 0
M  V30 5234 H 479.908 -6.40222 -0.823792 0
M  V30 5235 H 480.676 -8.18131 0.245761 0
M  V30 5236 N 483.339 0.512053 -1.4905 0
M  V30 5237 C 484.569 1.28928 -1.61434 0
M  V30 5238 C 484.977 1.87107 -0.280647 0
M  V30 5239 O 484.32 1.68024 0.742537 0
M  V30 5240 C 484.382 2.466 -2.61588 0
M  V30 5241 C 484.046 2.09375 -4.06216 0
M  V30 5242 C 485.043 1.63994 -4.93358 0
M  V30 5243 C 482.728 2.19348 -4.51876 0
M  V30 5244 C 484.722 1.29076 -6.24194 0
M  V30 5245 C 482.409 1.84041 -5.82728 0
M  V30 5246 C 483.407 1.38978 -6.68711 0
M  V30 5247 O 483.095 1.04144 -7.97126 0
M  V30 5248 H 482.827 0.397668 -0.546659 0
M  V30 5249 H 485.381 0.622507 -1.9574 0
M  V30 5250 H 483.611 3.16318 -2.22441 0
M  V30 5251 H 485.3 3.08642 -2.63619 0
M  V30 5252 H 486.066 1.55744 -4.59313 0
M  V30 5253 H 481.945 2.53376 -3.85125 0
M  V30 5254 H 485.489 0.938303 -6.91261 0
M  V30 5255 H 481.386 1.91938 -6.16304 0
M  V30 5256 H 482.154 1.17387 -8.10039 0
M  V30 5257 N 484.817 1.37938 0.762283 0
M  V30 5258 C 486.228 1.30094 1.33912 0
M  V30 5259 C 486.579 -0.0472026 1.96143 0
M  V30 5260 O 485.704 -0.94917 1.94473 0
M  V30 5261 C 486.299 2.35592 2.43478 0
M  V30 5262 C 484.858 2.31353 2.96905 0
M  V30 5263 C 484.005 2.18919 1.70205 0
M  V30 5264 H 486.956 1.48423 0.561816 0
M  V30 5265 H 486.977 2.00806 3.23199 0
M  V30 5266 H 486.489 3.33701 1.98155 0
M  V30 5267 H 484.59 1.36799 3.46579 0
M  V30 5268 H 484.703 3.25147 3.51875 0
M  V30 5269 H 483.067 1.65624 1.93496 0
M  V30 5270 H 483.85 3.18956 1.26973 0
M  V30 5271 N 486.295 -0.989507 1.22664 0
M  V30 5272 C 487.544 -1.72375 1.04737 0
M  V30 5273 C 487.857 -1.91096 -0.417316 0
M  V30 5274 O 489.063 -2.6188 -0.716334 0
M  V30 5275 C 487.519 -3.10161 1.82561 0
M  V30 5276 C 487.127 -2.99358 3.333 0
M  V30 5277 C 488.871 -3.87607 1.73093 0
M  V30 5278 C 486.778 -4.32319 4.03552 0
M  V30 5279 H 485.708 -0.646326 0.388302 0
M  V30 5280 H 488.359 -1.10437 1.46546 0
M  V30 5281 H 486.741 -3.728 1.33552 0
M  V30 5282 H 487.915 -2.45863 3.89728 0
M  V30 5283 H 486.23 -2.35392 3.43481 0
M  V30 5284 H 488.827 -4.86025 2.22899 0
M  V30 5285 H 489.17 -4.10509 0.691976 0
M  V30 5286 H 489.703 -3.31652 2.19663 0
M  V30 5287 H 486.442 -4.14616 5.07714 0
M  V30 5288 H 485.962 -4.85714 3.51911 0
M  V30 5289 H 487.641 -5.01051 4.09337 0
M  V30 5290 N 487.773 -1.03688 -1.18687 0
M  V30 5291 C 488.721 -0.618292 -2.24232 0
M  V30 5292 C 489.715 0.353045 -1.6568 0
M  V30 5293 O 490.921 0.220749 -1.78641 0
M  V30 5294 H 487.296 -0.181711 -0.729716 0
M  V30 5295 H 489.267 -1.51893 -2.56848 0
M  V30 5296 C 488.016 0.00677342 -3.47699 0
M  V30 5297 H 487.339 -0.731692 -3.93047 0
M  V30 5298 H 488.779 0.262492 -4.23187 0
M  V30 5299 C 487.238 1.25572 -3.12623 0
M  V30 5300 O 487.768 2.34691 -3.26011 0
M  V30 5301 N 485.974 1.14755 -2.66982 0
M  V30 5302 H 485.521 0.259601 -2.56289 0
M  V30 5303 H 485.479 1.98412 -2.43885 0
M  V30 5304 N 489.251 1.34841 -0.815825 0
M  V30 5305 C 490.479 2.0273 -0.413294 0
M  V30 5306 C 490.894 1.61459 0.978599 0
M  V30 5307 O 490.251 0.816584 1.63212 0
M  V30 5308 C 490.302 3.58058 -0.497676 0
M  V30 5309 O 490.023 3.97832 -1.8347 0
M  V30 5310 C 491.524 4.4321 -0.0891339 0
M  V30 5311 H 488.744 0.649956 -0.166728 0
M  V30 5312 H 491.288 1.72267 -1.10201 0
M  V30 5313 H 489.443 3.87136 0.142886 0
M  V30 5314 H 489.857 4.92501 -1.80396 0
M  V30 5315 H 491.331 5.5164 -0.199274 0
M  V30 5316 H 491.808 4.28432 0.966571 0
M  V30 5317 H 492.414 4.19446 -0.703214 0
M  V30 5318 N 490.729 0.570148 1.46925 0
M  V30 5319 C 491.639 -0.173061 2.33961 0
M  V30 5320 C 492.655 -0.898825 1.48987 0
M  V30 5321 O 493.831 -0.864825 1.81887 0
M  V30 5322 C 490.896 -1.18177 3.25937 0
M  V30 5323 C 489.957 -0.462041 4.26806 0
M  V30 5324 C 489.19 -1.4227 5.14388 0
M  V30 5325 O 489.413 -2.65842 5.04662 0
M  V30 5326 O 488.347 -0.940127 5.94513 0
M  V30 5327 H 492.173 0.541216 2.98839 0
M  V30 5328 H 489.758 0.330647 1.45695 0
M  V30 5329 H 491.64 -1.76372 3.82715 0
M  V30 5330 H 490.315 -1.87774 2.63671 0
M  V30 5331 H 489.222 0.161429 3.73752 0
M  V30 5332 H 490.555 0.192719 4.91823 0
M  V30 5333 N 492.207 -1.54576 0.307264 0
M  V30 5334 C 493.17 -2.22423 -0.553224 0
M  V30 5335 C 494.17 -1.21231 -1.05639 0
M  V30 5336 O 495.36 -1.45923 -0.951419 0
M  V30 5337 C 492.492 -2.91552 -1.76664 0
M  V30 5338 H 493.685 -2.99874 0.0396484 0
M  V30 5339 H 491.238 -1.56192 0.0581629 0
M  V30 5340 H 491.973 -2.18196 -2.39918 0
M  V30 5341 H 491.758 -3.65738 -1.41343 0
M  V30 5342 H 493.248 -3.43292 -2.37783 0
M  V30 5343 N 493.685 -0.035106 -1.57561 0
M  V30 5344 C 494.962 0.681212 -1.83354 0
M  V30 5345 C 495.342 1.89986 -0.920252 0
M  V30 5346 O 494.69 2.28489 0.0226815 0
M  V30 5347 C 494.9 1.05376 -3.32712 0
M  V30 5348 C 496.248 1.44286 -3.99333 0
M  V30 5349 O 497.272 1.14656 -3.37242 0
M  V30 5350 O 496.131 1.99518 -5.08778 0
M  V30 5351 H 493.225 0.334741 -0.756226 0
M  V30 5352 H 495.771 -0.0632448 -1.69582 0
M  V30 5353 H 494.543 0.186668 -3.90854 0
M  V30 5354 H 494.166 1.85619 -3.51613 0
M  V30 5355 N 495.163 1.55791 0.238111 0
M  V30 5356 C 496.579 1.48411 0.587045 0
M  V30 5357 C 496.779 0.72702 1.87927 0
M  V30 5358 O 495.835 0.259942 2.51158 0
M  V30 5359 C 497.148 2.92873 0.681623 0
M  V30 5360 C 498.696 3.03295 0.773363 0
M  V30 5361 C 499.171 4.49082 0.899428 0
M  V30 5362 N 500.662 4.53056 0.964075 0
M  V30 5363 C 501.397 5.63117 1.08104 0
M  V30 5364 N 500.893 6.82969 1.16299 0
M  V30 5365 N 502.686 5.50933 1.11488 0
M  V30 5366 H 494.837 2.0345 -0.610076 0
M  V30 5367 H 497.1 0.924034 -0.211813 0
M  V30 5368 H 496.806 3.51142 -0.19802 0
M  V30 5369 H 496.68 3.43851 1.55069 0
M  V30 5370 H 499.067 2.45101 1.64346 0
M  V30 5371 H 499.148 2.55513 -0.121034 0
M  V30 5372 H 498.792 5.07889 0.0338586 0
M  V30 5373 H 498.722 4.94553 1.809 0
M  V30 5374 H 501.213 3.66737 0.91173 0
M  V30 5375 H 501.526 7.62598 1.25155 0
M  V30 5376 H 499.871 6.85712 1.13241 0
M  V30 5377 H 503.062 4.56231 1.0474 0
M  V30 5378 H 503.235 6.36743 1.20259 0
M  V30 5379 N 496.642 -0.504142 1.49319 0
M  V30 5380 C 497.605 -1.5883 1.65244 0
M  V30 5381 C 498.605 -1.52009 0.524386 0
M  V30 5382 O 499.795 -1.55218 0.79077 0
M  V30 5383 C 496.927 -2.98481 1.64687 0
M  V30 5384 H 498.12 -1.4604 2.61939 0
M  V30 5385 H 495.673 -0.728144 1.38303 0
M  V30 5386 H 496.408 -3.16751 0.695644 0
M  V30 5387 H 496.193 -3.0484 2.46607 0
M  V30 5388 H 497.683 -3.77256 1.79075 0
M  V30 5389 N 498.12 -1.38341 -0.754957 0
M  V30 5390 C 499.05 -1.38176 -1.88227 0
M  V30 5391 C 500.031 -0.247873 -1.68284 0
M  V30 5392 O 501.216 -0.45075 -1.88896 0
M  V30 5393 C 498.346 -1.20471 -3.25736 0
M  V30 5394 C 497.3 -2.3105 -3.60278 0
M  V30 5395 C 496.626 -1.98452 -4.96509 0
M  V30 5396 C 497.926 -3.73305 -3.65295 0
M  V30 5397 H 499.62 -2.32512 -1.88622 0
M  V30 5398 H 497.166 -1.1192 -0.906082 0
M  V30 5399 H 499.119 -1.18982 -4.04254 0
M  V30 5400 H 497.843 -0.225965 -3.25817 0
M  V30 5401 H 496.502 -2.31723 -2.84078 0
M  V30 5402 H 496.15 -0.990641 -4.93148 0
M  V30 5403 H 495.85 -2.7251 -5.20588 0
M  V30 5404 H 497.374 -1.98578 -5.77407 0
M  V30 5405 H 498.788 -3.7467 -4.3393 0
M  V30 5406 H 497.185 -4.46557 -4.00883 0
M  V30 5407 H 498.255 -4.05719 -2.65556 0
M  V30 5408 N 499.598 0.982988 -1.23187 0
M  V30 5409 C 500.528 2.09301 -1.03515 0
M  V30 5410 C 501.509 1.70035 0.0471136 0
M  V30 5411 O 502.694 1.93847 -0.117029 0
M  V30 5412 C 499.824 3.4167 -0.622791 0
M  V30 5413 C 498.778 3.94828 -1.65211 0
M  V30 5414 C 498.104 5.23362 -1.09527 0
M  V30 5415 C 499.404 4.2439 -3.04451 0
M  V30 5416 H 501.098 2.26016 -1.96359 0
M  V30 5417 H 498.644 1.08611 -0.945501 0
M  V30 5418 H 500.597 4.18746 -0.472233 0
M  V30 5419 H 499.321 3.24811 0.341329 0
M  V30 5420 H 497.98 3.19895 -1.79061 0
M  V30 5421 H 497.628 5.02852 -0.122211 0
M  V30 5422 H 497.328 5.59895 -1.783 0
M  V30 5423 H 498.852 6.03062 -0.956511 0
M  V30 5424 H 500.266 4.92225 -2.93917 0
M  V30 5425 H 498.663 4.72118 -3.70438 0
M  V30 5426 H 499.733 3.31765 -3.53638 0
M  V30 5427 N 501.076 1.04316 1.18135 0
M  V30 5428 C 502.039 0.640794 2.2006 0
M  V30 5429 C 503.039 -0.303124 1.57917 0
M  V30 5430 O 504.229 -0.0881855 1.73977 0
M  V30 5431 C 501.361 -0.060148 3.40847 0
M  V30 5432 H 502.554 1.54281 2.57172 0
M  V30 5433 H 500.107 0.836004 1.32063 0
M  V30 5434 H 500.842 -0.975845 3.0927 0
M  V30 5435 H 500.627 0.618319 3.87194 0
M  V30 5436 H 502.117 -0.328082 4.16309 0
M  V30 5437 N 502.554 -1.34406 0.822964 0
M  V30 5438 C 503.782 -2.02508 0.424039 0
M  V30 5439 C 504.197 -1.61975 -0.970022 0
M  V30 5440 O 503.554 -0.825228 -1.62777 0
M  V30 5441 C 503.605 -3.57789 0.516657 0
M  V30 5442 O 503.326 -3.96853 1.85577 0
M  V30 5443 C 504.827 -4.43157 0.112637 0
M  V30 5444 H 502.047 -0.649063 0.170173 0
M  V30 5445 H 504.591 -1.7168 1.11113 0
M  V30 5446 H 502.746 -3.87207 -0.122353 0
M  V30 5447 H 503.16 -4.91538 1.83005 0
M  V30 5448 H 504.634 -5.51527 0.228526 0
M  V30 5449 H 505.111 -4.28939 -0.943837 0
M  V30 5450 H 505.717 -4.19067 0.725449 0
M  V30 5451 N 504.032 -0.577932 -1.46621 0
M  V30 5452 C 505.262 -0.0670668 -2.06491 0
M  V30 5453 C 505.67 1.24119 -1.42798 0
M  V30 5454 O 505.013 1.76016 -0.525759 0
M  V30 5455 C 505.075 0.177995 -3.59059 0
M  V30 5456 C 504.739 -1.04394 -4.44917 0
M  V30 5457 C 505.736 -1.95479 -4.81751 0
M  V30 5458 C 503.421 -1.26444 -4.86125 0
M  V30 5459 C 505.415 -3.06965 -5.58615 0
M  V30 5460 C 503.102 -2.38237 -5.62749 0
M  V30 5461 C 504.1 -3.28327 -5.98908 0
M  V30 5462 O 503.788 -4.38179 -6.73984 0
M  V30 5463 H 503.52 -0.0523159 -0.673973 0
M  V30 5464 H 506.074 -0.796966 -1.89308 0
M  V30 5465 H 504.304 0.962451 -3.74531 0
M  V30 5466 H 505.993 0.636782 -4.00874 0
M  V30 5467 H 506.759 -1.79657 -4.50498 0
M  V30 5468 H 502.638 -0.572316 -4.57434 0
M  V30 5469 H 506.182 -3.77309 -5.86757 0
M  V30 5470 H 502.079 -2.54023 -5.93416 0
M  V30 5471 H 502.847 -4.36486 -6.92403 0
M  V30 5472 N 505.51 1.54411 -0.315457 0
M  V30 5473 C 506.926 1.59556 0.037464 0
M  V30 5474 C 507.126 1.33217 1.5118 0
M  V30 5475 O 506.182 1.11264 2.26664 0
M  V30 5476 C 507.495 2.98372 -0.373477 0
M  V30 5477 C 509.043 3.11324 -0.323452 0
M  V30 5478 C 509.518 4.52472 -0.709433 0
M  V30 5479 N 511.009 4.58437 -0.662524 0
M  V30 5480 C 511.744 5.65751 -0.933474 0
M  V30 5481 N 511.24 6.81039 -1.27114 0
M  V30 5482 N 513.033 5.55489 -0.859573 0
M  V30 5483 H 505.184 1.6979 -1.27614 0
M  V30 5484 H 507.447 0.793732 -0.518356 0
M  V30 5485 H 507.153 3.22618 -1.40037 0
M  V30 5486 H 507.027 3.76264 0.265615 0
M  V30 5487 H 509.414 2.86818 0.694223 0
M  V30 5488 H 509.495 2.35555 -0.997367 0
M  V30 5489 H 509.139 4.7771 -1.72498 0
M  V30 5490 H 509.069 5.26598 -0.0132923 0
M  V30 5491 H 511.56 3.75636 -0.413065 0
M  V30 5492 H 511.873 7.58816 -1.46348 0
M  V30 5493 H 510.218 6.82555 -1.30932 0
M  V30 5494 H 513.409 4.64299 -0.595324 0
M  V30 5495 H 513.582 6.39036 -1.0741 0
M  V30 5496 N 506.988 0.0434614 1.5754 0
M  V30 5497 C 507.951 -0.918696 2.09982 0
M  V30 5498 C 508.951 -1.24488 1.01781 0
M  V30 5499 O 510.141 -1.18284 1.27885 0
M  V30 5500 C 507.273 -2.23093 2.57764 0
M  V30 5501 H 508.466 -0.464229 2.96285 0
M  V30 5502 H 506.019 -0.204818 1.54952 0
M  V30 5503 H 506.754 -2.73137 1.74832 0
M  V30 5504 H 506.539 -2.00724 3.36827 0
M  V30 5505 H 508.029 -2.92028 2.98512 0
M  V30 5506 N 508.466 -1.55915 -0.229846 0
M  V30 5507 C 509.882 -1.48721 -0.579166 0
M  V30 5508 C 510.082 -0.736976 -1.87539 0
M  V30 5509 O 509.138 -0.273258 -2.51017 0
M  V30 5510 C 510.451 -2.9323 -0.666082 0
M  V30 5511 C 511.999 -3.03701 -0.757267 0
M  V30 5512 C 512.474 -4.49552 -0.8756 0
M  V30 5513 N 513.965 -4.53561 -0.940035 0
M  V30 5514 C 514.7 -5.63683 -1.05116 0
M  V30 5515 N 514.196 -6.83576 -1.12675 0
M  V30 5516 N 515.989 -5.51516 -1.08565 0
M  V30 5517 H 508.14 -2.03123 0.620857 0
M  V30 5518 H 510.403 -0.922898 0.21671 0
M  V30 5519 H 510.109 -3.51032 0.21664 0
M  V30 5520 H 509.983 -3.44668 -1.53243 0
M  V30 5521 H 512.37 -2.45969 -1.63043 0
M  V30 5522 H 512.451 -2.55446 0.134583 0
M  V30 5523 H 512.095 -5.079 -0.00692351 0
M  V30 5524 H 512.025 -4.95506 -1.78274 0
M  V30 5525 H 514.516 -3.67215 -0.892269 0
M  V30 5526 H 514.829 -7.63251 -1.21109 0
M  V30 5527 H 513.174 -6.86303 -1.09603 0
M  V30 5528 H 516.365 -4.5678 -1.02319 0
M  V30 5529 H 516.538 -6.37372 -1.1688 0
M  V30 5530 N 509.944 0.496216 -1.49584 0
M  V30 5531 C 510.907 1.57952 -1.66084 0
M  V30 5532 C 511.907 1.51729 -0.53244 0
M  V30 5533 O 513.097 1.54796 -0.79899 0
M  V30 5534 C 510.229 2.97604 -1.66268 0
M  V30 5535 H 511.422 1.44649 -2.6271 0
M  V30 5536 H 508.975 0.7208 -1.38687 0
M  V30 5537 H 509.71 3.16378 -0.712432 0
M  V30 5538 H 509.495 3.03528 -2.4822 0
M  V30 5539 H 510.985 3.76301 -1.81073 0
M  V30 5540 N 511.423 1.38739 0.74761 0
M  V30 5541 C 512.37 1.36449 1.86146 0
M  V30 5542 C 513.34 0.226098 1.64554 0
M  V30 5543 O 514.525 0.41926 1.86137 0
M  V30 5544 C 511.665 1.2013 3.23516 0
M  V30 5545 C 510.778 2.43407 3.56899 0
M  V30 5546 C 509.913 2.19773 4.83605 0
M  V30 5547 C 508.952 3.3879 5.09792 0
M  V30 5548 N 508.089 3.14553 6.27695 0
M  V30 5549 H 512.929 2.3167 1.87438 0
M  V30 5550 H 510.466 1.15094 0.916063 0
M  V30 5551 H 512.424 1.08683 4.02795 0
M  V30 5552 H 511.054 0.285453 3.21535 0
M  V30 5553 H 510.106 2.65504 2.72418 0
M  V30 5554 H 511.418 3.32094 3.72176 0
M  V30 5555 H 510.572 2.05496 5.70838 0
M  V30 5556 H 509.311 1.28461 4.70478 0
M  V30 5557 H 508.316 3.53579 4.21025 0
M  V30 5558 H 509.541 4.30986 5.24812 0
M  V30 5559 H 507.487 2.25893 6.1588 0
M  V30 5560 H 507.404 3.96791 6.435 0
M  V30 5561 H 508.672 3.03943 7.17801 0
M  V30 5562 N 512.901 -0.976442 1.23707 0
M  V30 5563 C 514.126 -1.75875 1.09922 0
M  V30 5564 C 514.551 -1.84911 -0.34489 0
M  V30 5565 O 513.909 -1.31363 -1.24954 0
M  V30 5566 C 513.957 -3.16179 1.73388 0
M  V30 5567 O 513.061 -4.00124 0.99871 0
M  V30 5568 H 512.402 -0.540954 0.385052 0
M  V30 5569 H 514.932 -1.22546 1.6384 0
M  V30 5570 H 514.942 -3.66741 1.78788 0
M  V30 5571 H 513.617 -3.08917 2.78466 0
M  V30 5572 H 512.194 -3.58624 1.02193 0
M  V30 5573 N 514.379 -1.04941 -1.1758 0
M  V30 5574 C 515.289 -0.658826 -2.25159 0
M  V30 5575 C 516.305 0.318941 -1.71052 0
M  V30 5576 O 517.481 0.171669 -2.00667 0
M  V30 5577 C 514.546 -0.0369522 -3.4668 0
M  V30 5578 C 513.607 -1.06484 -4.15884 0
M  V30 5579 C 512.84 -0.472551 -5.31604 0
M  V30 5580 O 513.063 0.718736 -5.65854 0
M  V30 5581 O 511.997 -1.20557 -5.89703 0
M  V30 5582 H 515.823 -1.55533 -2.60851 0
M  V30 5583 H 513.408 -0.820819 -1.24832 0
M  V30 5584 H 515.29 0.308784 -4.20267 0
M  V30 5585 H 513.965 0.833238 -3.12792 0
M  V30 5586 H 512.872 -1.46253 -3.44327 0
M  V30 5587 H 514.205 -1.9061 -4.53794 0
M  V30 5588 N 515.857 1.33968 -0.830081 0
M  V30 5589 C 517.085 2.0228 -0.434773 0
M  V30 5590 C 517.5 1.62487 0.961419 0
M  V30 5591 O 516.857 0.833849 1.62337 0
M  V30 5592 C 516.908 3.5751 -0.535625 0
M  V30 5593 O 516.629 3.95864 -1.87679 0
M  V30 5594 C 518.13 4.43091 -0.136137 0
M  V30 5595 H 515.35 0.648151 -0.173613 0
M  V30 5596 H 517.894 1.71089 -1.12022 0
M  V30 5597 H 516.049 3.87266 0.101817 0
M  V30 5598 H 516.463 4.9056 -1.85609 0
M  V30 5599 H 517.937 5.51398 -0.257772 0
M  V30 5600 H 518.414 4.29433 0.921076 0
M  V30 5601 H 519.02 4.18677 -0.747662 0
M  V30 5602 N 517.335 0.585699 1.46312 0
M  V30 5603 C 518.298 -0.135673 2.28798 0
M  V30 5604 C 519.298 -0.815988 1.38558 0
M  V30 5605 O 520.488 -0.667487 1.60904 0
M  V30 5606 C 517.62 -1.20163 3.1902 0
M  V30 5607 H 518.813 0.589257 2.94054 0
M  V30 5608 H 516.366 0.343794 1.52472 0
M  V30 5609 H 517.101 -1.95804 2.58517 0
M  V30 5610 H 516.886 -0.718282 3.85465 0
M  V30 5611 H 518.376 -1.70749 3.81096 0
M  V30 5612 N 518.813 -1.54241 0.323641 0
M  V30 5613 C 520.038 -2.05452 -0.283605 0
M  V30 5614 C 520.463 -1.19823 -1.44997 0
M  V30 5615 O 519.821 -0.207358 -1.8011 0
M  V30 5616 C 519.869 -3.53823 -0.695795 0
M  V30 5617 O 518.973 -3.71134 -1.79815 0
M  V30 5618 H 518.314 -0.662024 -0.0511917 0
M  V30 5619 H 520.844 -1.99079 0.472073 0
M  V30 5620 H 520.854 -3.96094 -0.978434 0
M  V30 5621 H 519.529 -4.15602 0.157287 0
M  V30 5622 H 518.106 -3.40768 -1.51431 0
M  V30 5623 N 520.291 -0.0518155 -1.57515 0
M  V30 5624 C 521.516 0.634896 -1.97443 0
M  V30 5625 C 521.941 1.63546 -0.929207 0
M  V30 5626 O 521.299 1.80981 0.107484 0
M  V30 5627 C 521.347 1.29765 -3.36442 0
M  V30 5628 O 520.451 2.41333 -3.34413 0
M  V30 5629 H 519.792 0.164994 -0.643174 0
M  V30 5630 H 522.322 -0.120407 -2.04245 0
M  V30 5631 H 522.332 1.64918 -3.73184 0
M  V30 5632 H 521.007 0.564361 -4.12053 0
M  V30 5633 H 519.584 2.08122 -3.09418 0
M  V30 5634 N 521.769 1.56035 0.221574 0
M  V30 5635 C 522.716 1.92413 1.27459 0
M  V30 5636 C 523.686 0.781323 1.46576 0
M  V30 5637 O 524.871 1.03721 1.60145 0
M  V30 5638 C 522.011 2.24617 2.61995 0
M  V30 5639 C 521.124 3.51831 2.50677 0
M  V30 5640 C 520.259 3.73482 3.77736 0
M  V30 5641 C 519.298 4.94211 3.6114 0
M  V30 5642 N 518.435 5.12252 4.80148 0
M  V30 5643 H 523.275 2.82203 0.957355 0
M  V30 5644 H 520.812 1.39676 0.461415 0
M  V30 5645 H 522.77 2.41298 3.40339 0
M  V30 5646 H 521.4 1.38 2.91815 0
M  V30 5647 H 520.452 3.43343 1.63767 0
M  V30 5648 H 521.764 4.40328 2.34334 0
M  V30 5649 H 520.918 3.9026 4.64523 0
M  V30 5650 H 519.657 2.83266 3.97003 0
M  V30 5651 H 518.662 4.77384 2.72736 0
M  V30 5652 H 519.887 5.85912 3.43343 0
M  V30 5653 H 517.833 4.24978 4.99729 0
M  V30 5654 H 517.75 5.94881 4.66532 0
M  V30 5655 H 519.018 5.33465 5.68362 0
M  V30 5656 N 523.247 -0.488276 1.49845 0
M  V30 5657 C 524.493 -1.24341 1.6021 0
M  V30 5658 C 524.826 -1.91967 0.293651 0
M  V30 5659 O 524.101 -1.81323 -0.703718 0
M  V30 5660 C 524.384 -2.3005 2.77036 0
M  V30 5661 C 524.237 -1.66842 4.17713 0
M  V30 5662 C 525.556 -3.31509 2.89464 0
M  V30 5663 H 522.675 -0.450704 0.583125 0
M  V30 5664 H 525.317 -0.539673 1.82174 0
M  V30 5665 H 523.467 -2.90071 2.58439 0
M  V30 5666 H 525.139 -1.1055 4.47858 0
M  V30 5667 H 523.382 -0.972079 4.22768 0
M  V30 5668 H 524.053 -2.43576 4.95353 0
M  V30 5669 H 526.529 -2.81493 3.06433 0
M  V30 5670 H 525.405 -4.02822 3.72861 0
M  V30 5671 H 525.666 -3.94603 1.99351 0
M  V30 5672 N 524.725 -1.39134 -0.740242 0
M  V30 5673 C 525.655 -1.40165 -1.86751 0
M  V30 5674 C 526.636 -0.265708 -1.68012 0
M  V30 5675 O 527.821 -0.47076 -1.88408 0
M  V30 5676 C 524.951 -1.2392 -3.2444 0
M  V30 5677 C 523.905 -2.34858 -3.57807 0
M  V30 5678 C 523.231 -2.03707 -4.94376 0
M  V30 5679 C 524.531 -3.77159 -3.61315 0
M  V30 5680 H 526.225 -2.345 -1.86145 0
M  V30 5681 H 523.771 -1.12875 -0.89416 0
M  V30 5682 H 525.724 -1.23263 -4.02969 0
M  V30 5683 H 524.448 -0.26051 -3.25559 0
M  V30 5684 H 523.107 -2.34723 -2.81604 0
M  V30 5685 H 522.755 -1.04289 -4.9207 0
M  V30 5686 H 522.455 -2.78016 -5.17669 0
M  V30 5687 H 523.979 -2.04691 -5.75268 0
M  V30 5688 H 525.393 -3.79252 -4.29931 0
M  V30 5689 H 523.79 -4.50784 -3.96124 0
M  V30 5690 H 524.86 -4.08513 -2.61238 0
M  V30 5691 N 526.204 0.969867 -1.24223 0
M  V30 5692 C 527.451 1.71256 -1.08063 0
M  V30 5693 C 527.779 1.90734 0.380872 0
M  V30 5694 O 527.034 1.46469 1.29789 0
M  V30 5695 C 527.333 3.10883 -1.76314 0
M  V30 5696 C 526.999 3.11252 -3.26241 0
M  V30 5697 C 525.661 3.1106 -3.67144 0
M  V30 5698 C 528.013 3.05751 -4.22097 0
M  V30 5699 C 525.341 3.03097 -5.02344 0
M  V30 5700 C 527.693 2.9933 -5.57301 0
M  V30 5701 C 526.357 2.97466 -5.97554 0
M  V30 5702 H 525.627 0.62667 -0.395431 0
M  V30 5703 H 528.274 1.13422 -1.54297 0
M  V30 5704 H 526.579 3.72168 -1.22468 0
M  V30 5705 H 528.276 3.67138 -1.61277 0
M  V30 5706 H 524.866 3.12165 -2.93685 0
M  V30 5707 H 529.05 3.05031 -3.91497 0
M  V30 5708 H 524.306 3.00013 -5.32731 0
M  V30 5709 H 528.48 2.94033 -6.31283 0
M  V30 5710 H 526.107 2.91051 -7.02277 0
M  V30 5711 N 527.682 1.05563 1.17022 0
M  V30 5712 C 528.93 0.76642 1.87004 0
M  V30 5713 C 529.251 -0.708854 1.8166 0
M  V30 5714 O 528.521 -1.51242 1.2451 0
M  V30 5715 H 527.101 0.280516 0.692329 0
M  V30 5716 H 529.763 1.33557 1.41945 0
M  V30 5717 H 528.859 1.08472 2.92644 0
M  V30 5718 N 529.16 -1.33526 0.837174 0
M  V30 5719 C 530.408 -1.97446 0.431211 0
M  V30 5720 C 530.729 -1.6665 -1.01255 0
M  V30 5721 O 529.999 -0.964559 -1.70508 0
M  V30 5722 H 528.579 -0.73043 0.156463 0
M  V30 5723 H 531.241 -1.62918 1.06976 0
M  V30 5724 H 530.337 -3.07001 0.561877 0
M  V30 5725 N 530.638 -0.59345 -1.46 0
M  V30 5726 C 532.054 -0.255965 -1.57534 0
M  V30 5727 C 532.254 1.24167 -1.58697 0
M  V30 5728 O 531.31 2.02398 -1.50968 0
M  V30 5729 C 532.623 -0.91466 -2.86451 0
M  V30 5730 C 534.171 -0.889253 -3.00102 0
M  V30 5731 C 534.646 -1.52769 -4.3177 0
M  V30 5732 N 536.137 -1.49253 -4.38495 0
M  V30 5733 C 536.872 -1.9558 -5.39014 0
M  V30 5734 N 536.368 -2.49929 -6.46148 0
M  V30 5735 N 538.161 -1.86432 -5.30282 0
M  V30 5736 H 530.312 -1.56604 -1.43489 0
M  V30 5737 H 532.575 -0.655207 -0.685133 0
M  V30 5738 H 532.281 -1.96861 -2.91442 0
M  V30 5739 H 532.155 -0.429356 -3.74748 0
M  V30 5740 H 534.542 0.156111 -2.94687 0
M  V30 5741 H 534.623 -1.41268 -2.13253 0
M  V30 5742 H 534.267 -2.57231 -4.37944 0
M  V30 5743 H 534.197 -0.979398 -5.17412 0
M  V30 5744 H 536.688 -1.09536 -3.61677 0
M  V30 5745 H 537.001 -2.83109 -7.19075 0
M  V30 5746 H 535.346 -2.53961 -6.46938 0
M  V30 5747 H 538.537 -1.43722 -4.4549 0
M  V30 5748 H 538.71 -2.22852 -6.08474 0
M  V30 5749 N 532.116 1.54067 -0.331816 0
M  V30 5750 C 533.046 2.27569 0.522932 0
M  V30 5751 C 534.027 1.28679 1.11247 0
M  V30 5752 O 535.212 1.57504 1.13605 0
M  V30 5753 C 532.342 3.0397 1.67987 0
M  V30 5754 C 531.296 4.10267 1.21924 0
M  V30 5755 C 530.622 4.74555 2.46377 0
M  V30 5756 C 531.922 5.21268 0.32815 0
M  V30 5757 H 533.616 2.99264 -0.0901977 0
M  V30 5758 H 531.162 1.4393 -0.044821 0
M  V30 5759 H 533.115 3.54123 2.28418 0
M  V30 5760 H 531.839 2.29906 2.31971 0
M  V30 5761 H 530.498 3.61009 0.637809 0
M  V30 5762 H 530.146 3.97098 3.08743 0
M  V30 5763 H 529.846 5.46363 2.16243 0
M  V30 5764 H 531.37 5.27487 3.07555 0
M  V30 5765 H 532.784 5.67128 0.838978 0
M  V30 5766 H 531.181 5.99982 0.119228 0
M  V30 5767 H 532.251 4.80673 -0.638839 0
M  V30 5768 N 533.594 0.0601682 1.57485 0
M  V30 5769 C 534.842 -0.610386 1.92662 0
M  V30 5770 C 535.163 -1.70849 0.939981 0
M  V30 5771 O 534.433 -1.95895 -0.0137455 0
M  V30 5772 H 533.013 -0.228457 0.711208 0
M  V30 5773 H 535.675 0.115288 1.94559 0
M  V30 5774 H 534.771 -1.0432 2.94149 0
M  V30 5775 N 535.072 -1.5615 -0.213296 0
M  V30 5776 C 536.3 -1.83638 -0.953139 0
M  V30 5777 C 536.715 -0.640362 -1.77609 0
M  V30 5778 O 536.072 0.391071 -1.78261 0
M  V30 5779 C 536.123 -3.09735 -1.86405 0
M  V30 5780 O 535.844 -4.24723 -1.07435 0
M  V30 5781 C 537.345 -3.5027 -2.71709 0
M  V30 5782 H 534.565 -0.610263 -0.278962 0
M  V30 5783 H 537.109 -2.03247 -0.226035 0
M  V30 5784 H 535.264 -2.92077 -2.545 0
M  V30 5785 H 535.678 -4.9641 -1.69343 0
M  V30 5786 H 537.152 -4.41515 -3.31313 0
M  V30 5787 H 537.629 -2.72406 -3.44516 0
M  V30 5788 H 538.235 -3.70396 -2.09015 0
M  V30 5789 N 536.55 0.480323 -1.50102 0
M  V30 5790 C 537.78 1.25475 -1.64133 0
M  V30 5791 C 538.188 1.8647 -0.320272 0
M  V30 5792 O 537.531 1.69561 0.70673 0
M  V30 5793 C 537.593 2.40996 -2.6676 0
M  V30 5794 C 537.257 2.00711 -4.10565 0
M  V30 5795 C 538.254 1.53492 -4.96725 0
M  V30 5796 C 535.939 2.09714 -4.56427 0
M  V30 5797 C 537.933 1.15806 -6.26792 0
M  V30 5798 C 535.62 1.7164 -5.86501 0
M  V30 5799 C 536.618 1.24763 -6.71508 0
M  V30 5800 O 536.306 0.872122 -7.99155 0
M  V30 5801 H 536.038 0.385983 -0.554971 0
M  V30 5802 H 538.592 0.580848 -1.97016 0
M  V30 5803 H 536.822 3.11528 -2.291 0
M  V30 5804 H 538.511 3.02981 -2.70106 0
M  V30 5805 H 539.277 1.45966 -4.62514 0
M  V30 5806 H 535.156 2.4515 -3.90413 0
M  V30 5807 H 538.7 0.791465 -6.93096 0
M  V30 5808 H 534.597 1.78822 -6.20236 0
M  V30 5809 H 535.365 1.00178 -8.12346 0
M  V30 5810 N 538.028 1.39524 0.732853 0
M  V30 5811 C 538.96 1.34318 1.85718 0
M  V30 5812 C 539.973 0.251576 1.60844 0
M  V30 5813 O 541.162 0.510685 1.71039 0
M  V30 5814 C 538.262 1.06334 3.21786 0
M  V30 5815 C 537.435 2.26813 3.73998 0
M  V30 5816 C 536.494 1.95253 4.88634 0
M  V30 5817 O 535.52 2.67957 5.02183 0
M  V30 5818 N 536.722 0.919984 5.73164 0
M  V30 5819 H 539.487 2.3121 1.90688 0
M  V30 5820 H 537.048 1.33654 0.91368 0
M  V30 5821 H 539.04 0.832363 3.96048 0
M  V30 5822 H 537.61 0.181682 3.12072 0
M  V30 5823 H 536.83 2.65849 2.91064 0
M  V30 5824 H 538.118 3.0717 4.05616 0
M  V30 5825 H 537.516 0.317487 5.64808 0
M  V30 5826 H 536.073 0.748905 6.47483 0
M  V30 5827 N 539.506 -0.963266 1.24736 0
M  V30 5828 C 540.736 -1.73913 1.11524 0
M  V30 5829 C 541.144 -1.86218 -0.334612 0
M  V30 5830 O 540.487 -1.3531 -1.24245 0
M  V30 5831 C 540.549 -3.17501 1.68622 0
M  V30 5832 C 540.213 -3.28655 3.17546 0
M  V30 5833 C 541.21 -3.13637 4.14642 0
M  V30 5834 C 538.895 -3.52753 3.5759 0
M  V30 5835 C 540.889 -3.2255 5.49764 0
M  V30 5836 C 538.576 -3.61303 4.92852 0
M  V30 5837 C 539.574 -3.46214 5.88748 0
M  V30 5838 O 539.262 -3.5443 7.2155 0
M  V30 5839 H 538.994 -0.552057 0.390139 0
M  V30 5840 H 541.548 -1.2177 1.65412 0
M  V30 5841 H 539.778 -3.70969 1.09172 0
M  V30 5842 H 541.467 -3.76914 1.50635 0
M  V30 5843 H 542.233 -2.94899 3.85045 0
M  V30 5844 H 538.112 -3.63561 2.83451 0
M  V30 5845 H 541.656 -3.1069 6.24594 0
M  V30 5846 H 537.553 -3.79556 5.22118 0
M  V30 5847 H 538.321 -3.71116 7.29531 0
M  V30 5848 N 540.985 -1.06182 -1.16461 0
M  V30 5849 C 541.915 -0.692861 -2.22984 0
M  V30 5850 C 542.896 0.314122 -1.67174 0
M  V30 5851 O 544.081 0.189499 -1.93273 0
M  V30 5852 C 541.211 -0.07732 -3.47214 0
M  V30 5853 C 540.165 -1.01015 -4.15909 0
M  V30 5854 C 539.491 -0.257973 -5.34077 0
M  V30 5855 C 540.791 -2.33868 -4.67015 0
M  V30 5856 H 542.485 -1.58343 -2.54102 0
M  V30 5857 H 540.031 -0.76279 -1.22137 0
M  V30 5858 H 541.984 0.19266 -4.20959 0
M  V30 5859 H 540.708 0.848254 -3.15392 0
M  V30 5860 H 539.367 -1.26486 -3.44088 0
M  V30 5861 H 539.015 0.670684 -4.98509 0
M  V30 5862 H 538.715 -0.879638 -5.80979 0
M  V30 5863 H 540.239 0.00448788 -6.106 0
M  V30 5864 H 541.653 -2.1279 -5.32347 0
M  V30 5865 H 540.05 -2.91522 -5.24533 0
M  V30 5866 H 541.12 -2.97019 -3.83286 0
M  V30 5867 N 542.463 1.3308 -0.844243 0
M  V30 5868 C 543.74 1.92178 -0.364261 0
M  V30 5869 C 544.12 1.76961 1.15101 0
M  V30 5870 O 543.468 1.16128 1.9679 0
M  V30 5871 C 543.678 3.393 -0.817106 0
M  V30 5872 C 545.026 4.16444 -0.828236 0
M  V30 5873 O 546.05 3.47975 -0.761062 0
M  V30 5874 O 544.909 5.38685 -0.920926 0
M  V30 5875 H 542.003 0.820411 -0.10419 0
M  V30 5876 H 544.549 1.41918 -0.930453 0
M  V30 5877 H 543.321 3.44272 -1.85991 0
M  V30 5878 H 542.944 3.96947 -0.227785 0
M  V30 5879 N 543.941 0.601185 1.45683 0
M  V30 5880 C 544.874 -0.17013 2.27565 0
M  V30 5881 C 545.852 -0.879661 1.36751 0
M  V30 5882 O 547.036 -0.889827 1.66176 0
M  V30 5883 C 544.163 -1.24568 3.14961 0
M  V30 5884 C 543.209 -0.639978 4.21671 0
M  V30 5885 S 544.042 0.547275 5.32696 0
M  V30 5886 C 545.198 -0.529019 6.2366 0
M  V30 5887 H 545.431 0.524583 2.92635 0
M  V30 5888 H 542.964 0.388537 1.49431 0
M  V30 5889 H 544.922 -1.86138 3.65873 0
M  V30 5890 H 543.583 -1.91243 2.49169 0
M  V30 5891 H 542.776 -1.44903 4.8272 0
M  V30 5892 H 542.378 -0.0995558 3.73867 0
M  V30 5893 H 544.67 -1.40981 6.62669 0
M  V30 5894 H 545.613 0.0451599 7.08086 0
M  V30 5895 H 546.021 -0.84147 5.58193 0
M  V30 5896 N 545.419 -1.53889 0.339982 0
M  V30 5897 C 546.369 -2.2165 -0.534354 0
M  V30 5898 C 547.353 -1.20266 -1.06887 0
M  V30 5899 O 548.545 -1.45827 -1.00316 0
M  V30 5900 C 545.674 -2.99014 -1.68659 0
M  V30 5901 C 544.76 -4.07751 -1.16618 0
M  V30 5902 N 545.151 -5.04469 -0.366717 0
M  V30 5903 C 543.449 -4.21998 -1.4434 0
M  V30 5904 C 544.15 -5.81638 -0.0847275 0
M  V30 5905 N 543.126 -5.39388 -0.675391 0
M  V30 5906 H 546.928 -2.93781 0.0835562 0
M  V30 5907 H 544.442 -1.61736 0.146665 0
M  V30 5908 H 546.439 -3.46056 -2.32489 0
M  V30 5909 H 545.099 -2.28408 -2.30781 0
M  V30 5910 H 546.11 -5.17899 -0.00811038 0
M  V30 5911 H 542.787 -3.62612 -2.06928 0
M  V30 5912 H 544.177 -6.69563 0.559943 0
M  V30 5913 N 546.897 -0.0685191 -1.57451 0
M  V30 5914 C 547.83 0.935736 -2.08133 0
M  V30 5915 C 548.808 1.29317 -0.985698 0
M  V30 5916 O 549.992 1.40304 -1.25886 0
M  V30 5917 C 547.119 2.2448 -2.53627 0
M  V30 5918 C 546.165 2.03917 -3.74593 0
M  V30 5919 S 546.998 1.30154 -5.19442 0
M  V30 5920 C 548.154 2.62346 -5.68265 0
M  V30 5921 H 548.387 0.504473 -2.92989 0
M  V30 5922 H 545.92 0.144169 -1.53725 0
M  V30 5923 H 547.878 2.99718 -2.80499 0
M  V30 5924 H 546.539 2.64731 -1.69045 0
M  V30 5925 H 545.732 3.00788 -4.04404 0
M  V30 5926 H 545.334 1.36815 -3.48077 0
M  V30 5927 H 547.626 3.58448 -5.7491 0
M  V30 5928 H 548.569 2.3715 -6.67207 0
M  V30 5929 H 548.977 2.69401 -4.96068 0
M  V30 5930 N 548.375 1.56261 0.205012 0
M  V30 5931 C 549.338 1.92908 1.23771 0
M  V30 5932 C 550.338 0.809208 1.38955 0
M  V30 5933 O 551.528 1.07676 1.36936 0
M  V30 5934 C 548.66 2.19442 2.60879 0
M  V30 5935 H 549.853 2.85287 0.924728 0
M  V30 5936 H 547.406 1.49798 0.446125 0
M  V30 5937 H 548.141 1.29668 2.97248 0
M  V30 5938 H 547.926 3.0104 2.51232 0
M  V30 5939 H 549.416 2.48833 3.35368 0
M  V30 5940 N 549.853 -0.472356 1.50355 0
M  V30 5941 C 551.102 -1.2213 1.60522 0
M  V30 5942 C 551.415 -1.9312 0.310466 0
M  V30 5943 O 552.621 -2.69936 0.291029 0
M  V30 5944 C 551.077 -2.21909 2.83345 0
M  V30 5945 C 550.685 -1.56727 4.19691 0
M  V30 5946 C 552.429 -2.97453 3.02856 0
M  V30 5947 C 550.336 -2.54785 5.33703 0
M  V30 5948 H 549.266 -0.459543 0.597776 0
M  V30 5949 H 551.917 -0.491922 1.76783 0
M  V30 5950 H 550.299 -2.98133 2.60639 0
M  V30 5951 H 551.473 -0.863007 4.52646 0
M  V30 5952 H 549.788 -0.934685 4.05774 0
M  V30 5953 H 552.385 -3.70838 3.85205 0
M  V30 5954 H 552.728 -3.56764 2.14534 0
M  V30 5955 H 553.261 -2.28342 3.25737 0
M  V30 5956 H 550 -2.00214 6.24175 0
M  V30 5957 H 549.52 -3.23367 5.05167 0
M  V30 5958 H 551.199 -3.16639 5.64224 0
M  V30 5959 N 551.331 -1.39911 -0.725443 0
M  V30 5960 C 552.294 -1.39156 -1.82121 0
M  V30 5961 C 553.294 -0.287018 -1.58218 0
M  V30 5962 O 554.484 -0.545421 -1.65441 0
M  V30 5963 C 551.616 -1.1736 -3.20062 0
M  V30 5964 H 552.809 -2.36672 -1.84191 0
M  V30 5965 H 550.362 -1.25615 -0.930079 0
M  V30 5966 H 551.097 -0.205648 -3.23647 0
M  V30 5967 H 550.882 -1.97358 -3.3881 0
M  V30 5968 H 552.372 -1.19596 -4.00108 0
M  V30 5969 N 552.809 0.956637 -1.25245 0
M  V30 5970 C 554.034 1.74104 -1.12706 0
M  V30 5971 C 554.459 1.85436 0.315429 0
M  V30 5972 O 553.817 1.33334 1.22848 0
M  V30 5973 C 553.865 3.1338 -1.78396 0
M  V30 5974 O 552.969 3.98485 -1.06224 0
M  V30 5975 H 552.31 0.53476 -0.393609 0
M  V30 5976 H 554.84 1.19924 -1.65769 0
M  V30 5977 H 554.85 3.6385 -1.846 0
M  V30 5978 H 553.525 3.04448 -2.83345 0
M  V30 5979 H 552.102 3.56952 -1.07886 0
M  V30 5980 N 554.287 1.06798 1.15896 0
M  V30 5981 C 555.25 0.687328 2.18651 0
M  V30 5982 C 556.25 -0.269559 1.58524 0
M  V30 5983 O 557.44 -0.0512627 1.74125 0
M  V30 5984 C 554.572 0.0121642 3.40898 0
M  V30 5985 H 555.765 1.59701 2.53842 0
M  V30 5986 H 553.318 0.863828 1.3026 0
M  V30 5987 H 554.053 -0.910025 3.1127 0
M  V30 5988 H 553.838 0.700309 3.85795 0
M  V30 5989 H 555.328 -0.239703 4.16911 0
M  V30 5990 N 555.766 -1.3263 0.851289 0
M  V30 5991 C 556.696 -2.31449 0.308771 0
M  V30 5992 C 557.677 -1.59531 -0.590255 0
M  V30 5993 O 558.862 -1.87351 -0.511205 0
M  V30 5994 C 555.992 -3.43586 -0.506548 0
M  V30 5995 C 554.946 -4.26963 0.297753 0
M  V30 5996 C 554.272 -5.30831 -0.642094 0
M  V30 5997 C 555.572 -4.99643 1.52166 0
M  V30 5998 H 557.266 -2.77074 1.13447 0
M  V30 5999 H 554.812 -1.33207 0.546971 0
M  V30 6000 H 556.765 -4.11754 -0.896474 0
M  V30 6001 H 555.489 -2.96681 -1.36558 0
M  V30 6002 H 554.148 -3.60437 0.669391 0
M  V30 6003 H 553.796 -4.8018 -1.49788 0
M  V30 6004 H 553.496 -5.87501 -0.107968 0
M  V30 6005 H 555.02 -6.01862 -1.02927 0
M  V30 6006 H 556.434 -5.6051 1.20421 0
M  V30 6007 H 554.831 -5.66022 1.99347 0
M  V30 6008 H 555.901 -4.27701 2.28474 0
M  V30 6009 N 557.244 -0.608902 -1.45362 0
M  V30 6010 C 558.192 0.121639 -2.32282 0
M  V30 6011 C 559.186 0.858301 -1.46046 0
M  V30 6012 O 560.392 0.773718 -1.62523 0
M  V30 6013 H 556.767 0.058086 -0.749753 0
M  V30 6014 H 558.738 -0.629866 -2.91677 0
M  V30 6015 C 557.487 1.1047 -3.29684 0
M  V30 6016 H 556.81 0.547278 -3.96036 0
M  V30 6017 H 558.25 1.58576 -3.9323 0
M  V30 6018 C 556.709 2.17891 -2.56954 0
M  V30 6019 O 557.239 3.25652 -2.35189 0
M  V30 6020 N 555.445 1.93211 -2.17066 0
M  V30 6021 H 554.992 1.05584 -2.34967 0
M  V30 6022 H 554.95 2.6529 -1.68727 0
M  V30 6023 N 558.722 1.53707 -0.348139 0
M  V30 6024 C 559.655 2.21481 0.549667 0
M  V30 6025 C 560.633 1.20046 1.09671 0
M  V30 6026 O 561.817 1.48883 1.15612 0
M  V30 6027 C 558.944 2.89585 1.75664 0
M  V30 6028 C 557.99 4.04948 1.33864 0
M  V30 6029 S 558.823 5.34325 0.354577 0
M  V30 6030 C 559.979 6.05934 1.56828 0
M  V30 6031 H 560.212 2.97289 -0.0259755 0
M  V30 6032 H 557.745 1.53833 -0.132216 0
M  V30 6033 H 559.703 3.29441 2.44906 0
M  V30 6034 H 558.364 2.13535 2.30351 0
M  V30 6035 H 557.557 4.51552 2.23868 0
M  V30 6036 H 557.159 3.66893 0.725651 0
M  V30 6037 H 559.451 6.29606 2.50205 0
M  V30 6038 H 560.394 6.98799 1.14395 0
M  V30 6039 H 560.802 5.36151 1.76642 0
M  V30 6040 N 560.2 0.0768682 1.57412 0
M  V30 6041 C 561.43 -0.5991 1.97723 0
M  V30 6042 C 561.838 -1.63378 0.954166 0
M  V30 6043 O 561.181 -1.83578 -0.0668706 0
M  V30 6044 C 561.243 -1.32078 3.34358 0
M  V30 6045 C 560.907 -0.438985 4.54887 0
M  V30 6046 C 561.904 0.305492 5.19002 0
M  V30 6047 C 559.589 -0.362378 5.00991 0
M  V30 6048 C 561.583 1.11475 6.27576 0
M  V30 6049 C 559.27 0.450543 6.09437 0
M  V30 6050 C 560.268 1.18777 6.72593 0
M  V30 6051 O 559.956 1.98727 7.7895 0
M  V30 6052 H 559.688 -0.166725 0.655117 0
M  V30 6053 H 562.242 0.147337 2.04871 0
M  V30 6054 H 560.472 -2.1134 3.2384 0
M  V30 6055 H 562.161 -1.88949 3.5924 0
M  V30 6056 H 562.927 0.25593 4.84324 0
M  V30 6057 H 558.806 -0.925832 4.51608 0
M  V30 6058 H 562.35 1.69068 6.76803 0
M  V30 6059 H 558.247 0.501651 6.43548 0
M  V30 6060 H 559.015 1.91214 7.95851 0
M  V30 6061 N 561.678 -1.56367 -0.196722 0
M  V30 6062 C 562.955 -1.71359 -0.943159 0
M  V30 6063 C 563.335 -0.631192 -2.01443 0
M  V30 6064 O 562.683 0.358071 -2.25677 0
M  V30 6065 C 562.893 -3.13623 -1.53106 0
M  V30 6066 C 564.241 -3.73806 -2.01381 0
M  V30 6067 O 565.265 -3.16742 -1.62951 0
M  V30 6068 O 564.124 -4.73951 -2.7209 0
M  V30 6069 H 561.218 -0.698851 -0.442195 0
M  V30 6070 H 563.764 -1.68672 -0.186547 0
M  V30 6071 H 562.536 -3.83873 -0.758785 0
M  V30 6072 H 562.159 -3.20532 -2.35255 0
M  V30 6073 N 563.156 0.464375 -1.50603 0
M  V30 6074 C 564.104 1.58224 -1.70493 0
M  V30 6075 C 565.098 1.59492 -0.570836 0
M  V30 6076 O 566.304 1.63561 -0.751517 0
M  V30 6077 H 562.679 0.525161 -0.538247 0
M  V30 6078 H 564.65 1.38613 -2.64252 0
M  V30 6079 C 563.399 2.96113 -1.82243 0
M  V30 6080 H 562.722 2.95858 -2.68901 0
M  V30 6081 H 564.162 3.73769 -2.00182 0
M  V30 6082 C 562.621 3.31946 -0.575628 0
M  V30 6083 O 563.151 4.00708 0.282152 0
M  V30 6084 N 561.357 2.87436 -0.427665 0
M  V30 6085 H 560.904 2.31652 -1.12674 0
M  V30 6086 H 560.862 3.11776 0.405379 0
M  V30 6087 N 564.634 1.40294 0.718013 0
M  V30 6088 C 565.88 1.38645 1.48005 0
M  V30 6089 C 566.213 -0.0121202 1.94196 0
M  V30 6090 O 565.488 -0.980309 1.67989 0
M  V30 6091 C 565.771 2.37379 2.70782 0
M  V30 6092 C 565.624 3.8625 2.30501 0
M  V30 6093 C 566.943 2.33685 3.72933 0
M  V30 6094 H 564.062 0.504928 0.536858 0
M  V30 6095 H 566.704 1.71411 0.819649 0
M  V30 6096 H 564.854 2.09568 3.27129 0
M  V30 6097 H 566.526 4.24879 1.79655 0
M  V30 6098 H 564.769 4.02202 1.6253 0
M  V30 6099 H 565.44 4.50847 3.18498 0
M  V30 6100 H 567.916 2.58314 3.2621 0
M  V30 6101 H 566.792 3.0482 4.56482 0
M  V30 6102 H 567.053 1.34765 4.21059 0
M  V30 6103 N 566.112 -0.949982 1.2575 0
M  V30 6104 C 567.042 -2.06483 1.09028 0
M  V30 6105 C 568.023 -1.701 -0.00201532 0
M  V30 6106 O 569.208 -1.93469 0.168383 0
M  V30 6107 C 566.338 -3.39899 0.71316 0
M  V30 6108 C 565.292 -3.90309 1.75621 0
M  V30 6109 C 564.618 -5.20274 1.23365 0
M  V30 6110 C 565.918 -4.16169 3.15596 0
M  V30 6111 H 567.612 -2.20731 2.02283 0
M  V30 6112 H 565.158 -1.06066 0.973964 0
M  V30 6113 H 567.111 -4.17346 0.58309 0
M  V30 6114 H 565.835 -3.25602 -0.255091 0
M  V30 6115 H 564.494 -3.15035 1.8748 0
M  V30 6116 H 564.142 -5.02351 0.255491 0
M  V30 6117 H 563.842 -5.54971 1.93082 0
M  V30 6118 H 565.366 -6.00314 1.11607 0
M  V30 6119 H 566.78 -4.84259 3.06864 0
M  V30 6120 H 565.177 -4.62131 3.82825 0
M  V30 6121 H 566.247 -3.22273 3.6231 0
M  V30 6122 N 567.59 -1.07411 -1.15328 0
M  V30 6123 C 568.553 -0.698914 -2.18284 0
M  V30 6124 C 569.553 0.261149 -1.58665 0
M  V30 6125 O 570.743 0.0420277 -1.74149 0
M  V30 6126 C 567.875 -0.0302427 -3.40887 0
M  V30 6127 H 569.068 -1.61045 -2.52991 0
M  V30 6128 H 566.621 -0.870724 -1.298 0
M  V30 6129 H 567.356 0.893505 -3.11748 0
M  V30 6130 H 567.141 -0.720759 -3.85419 0
M  V30 6131 H 568.631 0.21759 -4.17033 0
M  V30 6132 N 569.068 1.32177 -0.85831 0
M  V30 6133 C 570.479 1.79381 -0.517621 0
M  V30 6134 C 570.83 1.70841 0.964769 0
M  V30 6135 O 569.955 1.26917 1.75274 0
M  V30 6136 C 570.55 3.25706 -0.932801 0
M  V30 6137 C 569.109 3.70851 -0.643953 0
M  V30 6138 C 568.256 2.53208 -1.13054 0
M  V30 6139 H 571.207 1.19424 -1.04516 0
M  V30 6140 H 571.228 3.79673 -0.250674 0
M  V30 6141 H 570.74 3.31889 -2.01174 0
M  V30 6142 H 568.841 3.70178 0.424112 0
M  V30 6143 H 568.954 4.63495 -1.21281 0
M  V30 6144 H 567.318 2.48676 -0.550679 0
M  V30 6145 H 568.101 2.62143 -2.21666 0
M  V30 6146 N 570.547 0.616602 1.45037 0
M  V30 6147 C 571.497 -0.118543 2.27692 0
M  V30 6148 C 572.481 -0.830025 1.37838 0
M  V30 6149 O 573.673 -0.718528 1.6176 0
M  V30 6150 C 570.802 -1.10924 3.24886 0
M  V30 6151 C 569.888 -0.398134 4.22227 0
M  V30 6152 N 570.279 0.565233 5.02632 0
M  V30 6153 C 568.577 -0.644506 4.41319 0
M  V30 6154 C 569.278 0.984043 5.73316 0
M  V30 6155 N 568.254 0.325879 5.42622 0
M  V30 6156 H 572.056 0.621239 2.87259 0
M  V30 6157 H 569.57 0.440968 1.56299 0
M  V30 6158 H 571.567 -1.65038 3.82842 0
M  V30 6159 H 570.227 -1.84948 2.66879 0
M  V30 6160 H 571.238 0.942395 5.09254 0
M  V30 6161 H 567.915 -1.36873 3.94426 0
M  V30 6162 H 569.305 1.77911 6.47918 0
M  V30 6163 N 572.025 -1.5352 0.356285 0
M  V30 6164 C 572.955 -2.28372 -0.486661 0
M  V30 6165 C 573.936 -1.30432 -1.09185 0
M  V30 6166 O 575.121 -1.59291 -1.11085 0
M  V30 6167 C 572.251 -3.06604 -1.63129 0
M  V30 6168 C 571.205 -4.12154 -1.15381 0
M  V30 6169 C 570.531 -4.78415 -2.38796 0
M  V30 6170 C 571.831 -5.21724 -0.245179 0
M  V30 6171 H 573.525 -2.99083 0.137797 0
M  V30 6172 H 571.071 -1.43841 0.0677134 0
M  V30 6173 H 573.024 -3.57712 -2.22755 0
M  V30 6174 H 571.748 -2.33568 -2.28284 0
M  V30 6175 H 570.407 -3.61978 -0.580294 0
M  V30 6176 H 570.055 -4.01959 -3.02387 0
M  V30 6177 H 569.755 -5.49734 -2.07524 0
M  V30 6178 H 571.279 -5.32313 -2.99125 0
M  V30 6179 H 572.693 -5.68391 -0.748646 0
M  V30 6180 H 571.09 -6.00095 -0.0237608 0
M  V30 6181 H 572.16 -4.79596 0.715229 0
M  V30 6182 N 573.503 -0.0852151 -1.57369 0
M  V30 6183 C 574.919 0.271436 -1.57275 0
M  V30 6184 C 575.119 1.69109 -1.09565 0
M  V30 6185 O 574.175 2.40549 -0.767611 0
M  V30 6186 C 575.488 0.0688638 -3.00621 0
M  V30 6187 C 577.036 0.137373 -3.12698 0
M  V30 6188 C 577.511 -0.0370832 -4.57985 0
M  V30 6189 N 579.002 0.0180794 -4.63196 0
M  V30 6190 C 579.737 -0.0922953 -5.73326 0
M  V30 6191 N 579.233 -0.256948 -6.92323 0
M  V30 6192 N 581.026 -0.0342702 -5.6209 0
M  V30 6193 H 573.177 -1.01288 -1.86693 0
M  V30 6194 H 575.44 -0.396138 -0.861266 0
M  V30 6195 H 575.146 -0.911277 -3.39689 0
M  V30 6196 H 575.02 0.815442 -3.6828 0
M  V30 6197 H 577.407 1.10801 -2.73509 0
M  V30 6198 H 577.488 -0.640532 -2.47651 0
M  V30 6199 H 577.132 -1.00455 -4.97867 0
M  V30 6200 H 577.062 0.760392 -5.21081 0
M  V30 6201 H 579.553 0.143202 -3.77629 0
M  V30 6202 H 579.866 -0.332949 -7.72082 0
M  V30 6203 H 578.211 -0.292487 -6.94384 0
M  V30 6204 H 581.402 0.0931605 -4.68007 0
M  V30 6205 H 581.575 -0.12374 -6.47882 0
M  V30 6206 N 574.981 1.5647 0.188427 0
M  V30 6207 C 576.258 1.71857 0.934058 0
M  V30 6208 C 576.638 0.641867 2.01105 0
M  V30 6209 O 575.986 -0.346098 2.25864 0
M  V30 6210 C 576.196 3.14431 1.5144 0
M  V30 6211 C 577.544 3.74869 1.99396 0
M  V30 6212 O 578.568 3.17601 1.61269 0
M  V30 6213 O 577.427 4.75387 2.69573 0
M  V30 6214 H 574.521 0.701186 0.438483 0
M  V30 6215 H 577.067 1.68768 0.177599 0
M  V30 6216 H 575.839 3.8427 0.738416 0
M  V30 6217 H 575.462 3.21775 2.33552 0
M  V30 6218 N 576.459 -0.456382 1.50847 0
M  V30 6219 C 577.707 -1.20497 1.62249 0
M  V30 6220 C 578.028 -1.92156 0.331839 0
M  V30 6221 O 577.298 -1.84751 -0.651443 0
M  V30 6222 H 575.878 -0.447775 0.597918 0
M  V30 6223 H 578.54 -0.525099 1.87693 0
M  V30 6224 H 577.636 -1.94492 2.44089 0
M  V30 6225 N 577.937 -1.40673 -0.710563 0
M  V30 6226 C 579.183 -1.39428 -1.47267 0
M  V30 6227 C 579.516 0.00182129 -1.942 0
M  V30 6228 O 578.791 0.971387 -1.68506 0
M  V30 6229 C 579.074 -2.38812 -2.6952 0
M  V30 6230 C 578.927 -3.87467 -2.28449 0
M  V30 6231 C 580.246 -2.3566 -3.71689 0
M  V30 6232 H 577.365 -0.507768 -0.534173 0
M  V30 6233 H 580.007 -1.71843 -0.810547 0
M  V30 6234 H 578.157 -2.113 -3.26013 0
M  V30 6235 H 579.829 -4.25825 -1.77399 0
M  V30 6236 H 578.072 -4.03058 -1.60395 0
M  V30 6237 H 578.743 -4.5253 -3.16103 0
M  V30 6238 H 581.219 -2.6004 -3.24836 0
M  V30 6239 H 580.095 -3.07237 -4.54859 0
M  V30 6240 H 580.356 -1.36996 -4.20339 0
M  V30 6241 N 579.415 0.9433 -1.26252 0
M  V30 6242 C 580.826 1.50404 -1.10614 0
M  V30 6243 C 581.177 1.93666 0.31429 0
M  V30 6244 O 580.302 1.79709 1.20555 0
M  V30 6245 C 580.897 2.73336 -2.00182 0
M  V30 6246 C 579.456 3.25686 -1.88695 0
M  V30 6247 C 578.603 1.98474 -1.93658 0
M  V30 6248 H 581.554 0.759006 -1.39373 0
M  V30 6249 H 581.575 3.47567 -1.54847 0
M  V30 6250 H 581.087 2.41818 -3.03555 0
M  V30 6251 H 579.188 3.61998 -0.882489 0
M  V30 6252 H 579.301 3.92935 -2.74115 0
M  V30 6253 H 577.665 2.14278 -1.37684 0
M  V30 6254 H 578.448 1.6929 -2.98657 0
M  V30 6255 N 580.893 1.08022 1.14757 0
M  V30 6256 C 581.823 0.728248 2.21853 0
M  V30 6257 C 582.804 -0.287486 1.67653 0
M  V30 6258 O 583.989 -0.158727 1.9355 0
M  V30 6259 C 581.119 0.132549 3.47047 0
M  V30 6260 C 580.073 1.07619 4.14249 0
M  V30 6261 C 579.399 0.342907 5.33599 0
M  V30 6262 C 580.699 2.41268 4.63235 0
M  V30 6263 H 582.393 1.62365 2.51551 0
M  V30 6264 H 579.939 0.782125 1.20908 0
M  V30 6265 H 581.892 -0.125665 4.21213 0
M  V30 6266 H 580.616 -0.797971 3.16702 0
M  V30 6267 H 579.275 1.31944 3.42033 0
M  V30 6268 H 578.923 -0.59129 4.99513 0
M  V30 6269 H 578.623 0.971955 5.79506 0
M  V30 6270 H 580.147 0.0926538 6.1053 0
M  V30 6271 H 581.561 2.21232 5.28894 0
M  V30 6272 H 579.958 2.9983 5.19829 0
M  V30 6273 H 581.028 3.03079 3.78512 0
M  V30 6274 N 582.371 -1.3172 0.865308 0
M  V30 6275 C 583.301 -2.31109 0.333302 0
M  V30 6276 C 584.282 -1.60148 -0.573301 0
M  V30 6277 O 585.467 -1.87882 -0.491305 0
M  V30 6278 C 582.597 -3.44104 -0.470078 0
M  V30 6279 C 581.551 -4.26623 0.343021 0
M  V30 6280 C 580.877 -5.31482 -0.585756 0
M  V30 6281 C 582.177 -4.98001 1.57456 0
M  V30 6282 H 583.871 -2.75855 1.1638 0
M  V30 6283 H 581.417 -1.3262 0.561069 0
M  V30 6284 H 583.37 -4.12682 -0.852752 0
M  V30 6285 H 582.094 -2.98112 -1.33404 0
M  V30 6286 H 580.753 -3.59707 0.707583 0
M  V30 6287 H 580.401 -4.81741 -1.44686 0
M  V30 6288 H 580.101 -5.87582 -0.0456494 0
M  V30 6289 H 581.625 -6.0292 -0.965375 0
M  V30 6290 H 583.039 -5.59201 1.26359 0
M  V30 6291 H 581.436 -5.63876 2.05339 0
M  V30 6292 H 582.506 -4.25253 2.32997 0
M  V30 6293 N 583.85 -0.624285 -1.44708 0
M  V30 6294 C 584.782 0.12305 -2.28869 0
M  V30 6295 C 585.795 0.81557 -1.40898 0
M  V30 6296 O 586.984 0.678162 -1.65116 0
M  V30 6297 C 584.084 1.19612 -3.1709 0
M  V30 6298 C 583.257 0.587452 -4.33437 0
M  V30 6299 C 582.316 1.55358 -5.02743 0
M  V30 6300 O 581.341 1.07338 -5.58988 0
M  V30 6301 N 582.543 2.88798 -5.03563 0
M  V30 6302 H 585.308 -0.599193 -2.93649 0
M  V30 6303 H 582.87 -0.464954 -1.5508 0
M  V30 6304 H 584.861 1.84261 -3.60319 0
M  V30 6305 H 583.432 1.82067 -2.54107 0
M  V30 6306 H 582.652 -0.237509 -3.93484 0
M  V30 6307 H 583.94 0.161326 -5.08544 0
M  V30 6308 H 583.338 3.30399 -4.59188 0
M  V30 6309 H 581.894 3.48826 -5.50603 0
M  V30 6310 N 585.328 1.53329 -0.364422 0
M  V30 6311 C 586.605 1.93557 0.281962 0
M  V30 6312 C 586.985 1.29786 1.6649 0
M  V30 6313 O 586.333 0.456512 2.23893 0
M  V30 6314 C 586.543 3.47405 0.333331 0
M  V30 6315 C 587.891 4.20699 0.574231 0
M  V30 6316 O 588.915 3.53779 0.414588 0
M  V30 6317 O 587.774 5.39287 0.885002 0
M  V30 6318 H 584.868 0.809573 0.168881 0
M  V30 6319 H 587.414 1.64494 -0.417121 0
M  V30 6320 H 586.186 3.86091 -0.636326 0
M  V30 6321 H 585.809 3.82697 1.07836 0
M  V30 6322 N 586.806 0.0935595 1.57322 0
M  V30 6323 C 588.054 -0.569383 1.93913 0
M  V30 6324 C 588.375 -1.68817 0.976009 0
M  V30 6325 O 587.645 -1.9588 0.0278099 0
M  V30 6326 H 586.225 -0.21332 0.715894 0
M  V30 6327 H 588.887 0.156531 1.9427 0
M  V30 6328 H 587.983 -0.980577 2.96296 0
M  V30 6329 N 588.284 -1.56567 -0.180126 0
M  V30 6330 C 589.247 -1.94852 -1.20686 0
M  V30 6331 C 590.247 -0.831212 -1.3765 0
M  V30 6332 O 591.437 -1.09841 -1.35206 0
M  V30 6333 C 588.569 -2.23565 -2.57355 0
M  V30 6334 H 589.762 -2.86722 -0.879225 0
M  V30 6335 H 587.315 -1.50489 -0.422237 0
M  V30 6336 H 588.05 -1.34381 -2.95148 0
M  V30 6337 H 587.835 -3.04999 -2.46411 0
M  V30 6338 H 589.325 -2.54137 -3.31367 0
M  V30 6339 O 589.801 0.325198 -1.58192 0
M  V30 6340 H 590.492 0.973777 -1.67443 0
M  V30 END ATOM
M  V30 BEGIN BOND
M  V30 END BOND
M  V30 END CTAB
M  END
$$$$
