drugbank_target|P41007 Bifunctional protein PyrR (DB01972; DB03315; DB03685)
 OpenBabel12092119573D

  0  0  0     0  0            999 V3000
M  V30 BEGIN CTAB
M  V30 COUNTS 2852 2867 0 0 0
M  V30 BEGIN ATOM
M  V30 1 H -0.908 1.98254 -0.117106 0
M  V30 2 N 0 1.576 0 0
M  V30 3 C 0.933 2.03868 1.02534 0
M  V30 4 C 1.911 0.928543 1.3348 0
M  V30 5 O 3.095 1.19667 1.45644 0
M  V30 6 C 0.222 2.43627 2.35294 0
M  V30 7 C -0.732 3.65373 2.2001 0
M  V30 8 S 0.101 5.13292 1.52614 0
M  V30 9 C 1.257 5.56322 2.86805 0
M  V30 10 H 1.49 2.90518 0.631377 0
M  V30 11 H -0.977 1.52953 0.210867 0
M  V30 12 H 0.981 2.67203 3.11629 0
M  V30 13 H -0.358 1.57376 2.7183 0
M  V30 14 H -1.165 3.90944 3.18086 0
M  V30 15 H -1.563 3.418 1.51819 0
M  V30 16 H 0.729 5.58782 3.83104 0
M  V30 17 H 1.672 6.56266 2.65933 0
M  V30 18 H 2.08 4.83886 2.90714 0
M  V30 19 N 1.4781 -0.272755 1.55222 0
M  V30 20 C 2.4101 -1.35946 1.8453 0
M  V30 21 C 3.4231 -1.45525 0.729818 0
M  V30 22 O 4.6121 -1.47337 1.00767 0
M  V30 23 C 1.7121 -2.74069 1.99347 0
M  V30 24 C 0.8851 -2.87079 3.30007 0
M  V30 25 C -0.0559 -4.05879 3.34886 0
M  V30 26 O -1.0299 -3.96626 4.08261 0
M  V30 27 N 0.1721 -5.17857 2.62307 0
M  V30 28 H 2.9371 -1.11149 2.78327 0
M  V30 29 H 0.4981 -0.462869 1.55142 0
M  V30 30 H 2.4901 -3.51838 1.99981 0
M  V30 31 H 1.0601 -2.91688 1.12415 0
M  V30 32 H 0.2801 -1.96193 3.41909 0
M  V30 33 H 1.5681 -2.92701 4.16177 0
M  V30 34 H 0.9661 -5.28261 2.02377 0
M  V30 35 H -0.4769 -5.93855 2.68663 0
M  V30 36 N 2.9562 -1.48159 -0.537278 0
M  V30 37 C 3.9032 -1.62138 -1.64256 0
M  V30 38 C 4.8732 -0.463668 -1.59497 0
M  V30 39 O 6.0582 -0.686241 -1.78032 0
M  V30 40 C 3.1982 -1.66028 -3.02537 0
M  V30 41 C 2.3112 -2.92855 -3.17585 0
M  V30 42 C 1.4462 -2.87952 -4.46382 0
M  V30 43 C 0.4852 -4.09516 -4.54932 0
M  V30 44 N -0.3778 -4.02733 -5.75109 0
M  V30 45 H 4.4622 -2.56529 -1.51647 0
M  V30 46 H 1.9992 -1.27224 -0.738414 0
M  V30 47 H 3.9572 -1.66265 -3.82638 0
M  V30 48 H 2.5872 -0.751331 -3.13934 0
M  V30 49 H 1.6392 -3.02395 -2.30784 0
M  V30 50 H 2.9512 -3.82822 -3.19764 0
M  V30 51 H 2.1052 -2.8655 -5.34765 0
M  V30 52 H 0.8442 -1.95702 -4.46712 0
M  V30 53 H -0.1508 -4.11201 -3.64957 0
M  V30 54 H 1.0742 -5.02917 -4.56346 0
M  V30 55 H -0.9798 -3.13299 -5.76351 0
M  V30 56 H -1.0628 -4.86397 -5.78752 0
M  V30 57 H 0.2052 -4.05379 -6.65799 0
M  V30 58 N 4.4343 0.785586 -1.36625 0
M  V30 59 C 5.3973 1.87999 -1.31107 0
M  V30 60 C 6.3973 1.59316 -0.217959 0
M  V30 61 O 7.5873 1.67656 -0.472977 0
M  V30 62 C 4.7193 3.24861 -1.03334 0
M  V30 63 H 5.9123 1.94307 -2.2844 0
M  V30 64 H 3.4653 0.983813 -1.21453 0
M  V30 65 H 4.2003 3.24235 -0.0647432 0
M  V30 66 H 3.9853 3.4707 -1.82441 0
M  V30 67 H 5.4753 4.04929 -1.02088 0
M  V30 68 N 5.9124 1.20967 1.01018 0
M  V30 69 C 7.1584 1.02526 1.74975 0
M  V30 70 C 7.4914 -0.4408 1.89131 0
M  V30 71 O 6.7664 -1.32718 1.42184 0
M  V30 72 C 7.0494 1.71699 3.1653 0
M  V30 73 C 6.9024 3.25791 3.10129 0
M  V30 74 C 8.2214 1.45531 4.15342 0
M  V30 75 H 5.3404 0.373863 0.635134 0
M  V30 76 H 7.9824 1.49071 1.17805 0
M  V30 77 H 6.1324 1.32128 3.65341 0
M  V30 78 H 7.8044 3.74697 2.69072 0
M  V30 79 H 6.0474 3.56363 2.47362 0
M  V30 80 H 6.7184 3.69353 4.10222 0
M  V30 81 H 9.1944 1.79872 3.75213 0
M  V30 82 H 8.0704 1.96453 5.1254 0
M  V30 83 H 8.3314 0.384237 4.40427 0
M  V30 84 N 7.3905 -1.2043 1.01659 0
M  V30 85 C 8.6365 -1.90079 0.706963 0
M  V30 86 C 8.9695 -1.78648 -0.761474 0
M  V30 87 O 8.2445 -1.17069 -1.55323 0
M  V30 88 C 8.5275 -3.41469 1.14327 0
M  V30 89 C 8.3805 -3.61833 2.67201 0
M  V30 90 C 9.6995 -4.34261 0.714529 0
M  V30 91 H 6.8185 -0.690254 0.2583 0
M  V30 92 H 9.4605 -1.41826 1.26433 0
M  V30 93 H 7.6105 -3.82696 0.669056 0
M  V30 94 H 9.2825 -3.2986 3.22475 0
M  V30 95 H 7.5255 -3.05304 3.08175 0
M  V30 96 H 8.1965 -4.67955 2.92783 0
M  V30 97 H 10.6725 -4.00682 1.12221 0
M  V30 98 H 9.5485 -5.38806 1.04784 0
M  V30 99 H 9.8095 -4.40431 -0.383799 0
M  V30 100 N 8.8686 -0.792821 -1.36206 0
M  V30 101 C 9.8016 -0.139422 -2.27774 0
M  V30 102 C 10.7796 0.68649 -1.47398 0
M  V30 103 O 11.9636 0.656738 -1.7669 0
M  V30 104 C 9.0906 0.807947 -3.28922 0
M  V30 105 C 8.1366 0.0633999 -4.26453 0
M  V30 106 S 8.9696 -1.26319 -5.20388 0
M  V30 107 C 10.1256 -0.31991 -6.25082 0
M  V30 108 H 10.3586 -0.915809 -2.82843 0
M  V30 109 H 7.8916 -0.587203 -1.42798 0
M  V30 110 H 9.8496 1.34908 -3.87699 0
M  V30 111 H 8.5106 1.55761 -2.72759 0
M  V30 112 H 7.7036 0.782386 -4.9789 0
M  V30 113 H 7.3056 -0.407352 -3.71775 0
M  V30 114 H 9.5976 0.499985 -6.75653 0
M  V30 115 H 10.5406 -1.00307 -7.00959 0
M  V30 116 H 10.9486 0.0782694 -5.64446 0
M  V30 117 N 10.3467 1.47872 -0.545128 0
M  V30 118 C 11.6237 1.9554 0.0485222 0
M  V30 119 C 12.0037 1.4876 1.49779 0
M  V30 120 O 11.3517 0.720925 2.16829 0
M  V30 121 C 11.5617 3.48898 -0.084417 0
M  V30 122 C 12.9097 4.24547 0.0671239 0
M  V30 123 O 13.9337 3.56198 -0.0113649 0
M  V30 124 O 12.7927 5.45999 0.233882 0
M  V30 125 H 9.8867 0.823957 0.0708773 0
M  V30 126 H 12.4327 1.58327 -0.610798 0
M  V30 127 H 11.2047 3.75714 -1.09337 0
M  V30 128 H 10.8277 3.92845 0.613066 0
M  V30 129 N 11.8248 0.280983 1.55075 0
M  V30 130 C 12.7348 -0.61388 2.26426 0
M  V30 131 C 13.7508 -1.16521 1.29224 0
M  V30 132 O 14.9268 -1.19426 1.62171 0
M  V30 133 C 11.9918 -1.7788 2.9759 0
M  V30 134 C 11.0528 -1.26355 4.10284 0
M  V30 135 C 10.2858 -2.37295 4.78045 0
M  V30 136 O 10.5088 -3.56777 4.45047 0
M  V30 137 O 9.4428 -2.05119 5.65871 0
M  V30 138 H 13.2688 -0.0356932 3.03679 0
M  V30 139 H 10.8538 0.0481686 1.49322 0
M  V30 140 H 12.7358 -2.45791 3.42293 0
M  V30 141 H 11.4108 -2.34397 2.23249 0
M  V30 142 H 10.3178 -0.550735 3.70024 0
M  V30 143 H 11.6508 -0.744065 4.86543 0
M  V30 144 N 13.3029 -1.57598 0.00835791 0
M  V30 145 C 14.2349 -2.05811 -1.00868 0
M  V30 146 C 15.2479 -0.977579 -1.30182 0
M  V30 147 O 16.4369 -1.25421 -1.27011 0
M  V30 148 C 13.5369 -2.45016 -2.34137 0
M  V30 149 C 12.7099 -3.75903 -2.23643 0
M  V30 150 C 11.7689 -4.01884 -3.3967 0
M  V30 151 O 10.7949 -4.72433 -3.17483 0
M  V30 152 N 11.9969 -3.50432 -4.62793 0
M  V30 153 H 14.7619 -2.93684 -0.597458 0
M  V30 154 H 12.3229 -1.60909 -0.178852 0
M  V30 155 H 14.3149 -2.59506 -3.10546 0
M  V30 156 H 12.8849 -1.62618 -2.66972 0
M  V30 157 H 12.1049 -3.7141 -1.32091 0
M  V30 158 H 13.3929 -4.61695 -2.13812 0
M  V30 159 H 12.7909 -2.93317 -4.83716 0
M  V30 160 H 11.3479 -3.70236 -5.3644 0
M  V30 161 N 14.781 0.264519 -1.55364 0
M  V30 162 C 15.744 1.31046 -1.88042 0
M  V30 163 C 16.744 1.41943 -0.755569 0
M  V30 164 O 17.934 1.40947 -1.02369 0
M  V30 165 C 15.066 2.69067 -2.09323 0
M  V30 166 H 16.259 1.03297 -2.81549 0
M  V30 167 H 13.812 0.502989 -1.47986 0
M  V30 168 H 14.547 3.01982 -1.18226 0
M  V30 169 H 14.332 2.62542 -2.91229 0
M  V30 170 H 15.822 3.44623 -2.35848 0
M  V30 171 N 16.2591 1.48442 0.529413 0
M  V30 172 C 17.5081 1.55742 1.28169 0
M  V30 173 C 17.8211 0.236511 1.94165 0
M  V30 174 O 19.0271 0.187761 2.7085 0
M  V30 175 C 17.4831 2.74667 2.32564 0
M  V30 176 C 17.0911 4.13402 1.72636 0
M  V30 177 C 18.8351 2.9128 3.08798 0
M  V30 178 C 16.7421 5.23587 2.74975 0
M  V30 179 H 15.6721 0.579796 0.48203 0
M  V30 180 H 18.3231 1.74776 0.559056 0
M  V30 181 H 16.7051 2.49067 3.07866 0
M  V30 182 H 17.8791 4.49022 1.03519 0
M  V30 183 H 16.1941 4.0191 1.08892 0
M  V30 184 H 18.7911 3.70767 3.85274 0
M  V30 185 H 19.1341 2.00757 3.64695 0
M  V30 186 H 19.6671 3.16782 2.40611 0
M  V30 187 H 16.4061 6.16076 2.23897 0
M  V30 188 H 15.9261 4.92454 3.42417 0
M  V30 189 H 17.6051 5.51724 3.37949 0
M  V30 190 N 17.7372 -0.778329 1.37039 0
M  V30 191 C 19.1532 -1.07796 1.17695 0
M  V30 192 C 19.3532 -2.01498 0.00860115 0
M  V30 193 O 18.4092 -2.43901 -0.653352 0
M  V30 194 C 19.7222 -1.68178 2.49272 0
M  V30 195 C 21.2702 -1.80467 2.55735 0
M  V30 196 C 21.7452 -2.44263 3.87427 0
M  V30 197 N 23.2362 -2.51721 3.88833 0
M  V30 198 C 23.9712 -3.01919 4.87476 0
M  V30 199 N 23.4672 -3.5234 5.96513 0
M  V30 200 N 25.2602 -3.00733 4.74885 0
M  V30 201 H 17.4112 -0.156032 2.11826 0
M  V30 202 H 19.6742 -0.131844 0.938787 0
M  V30 203 H 19.3802 -1.06796 3.35093 0
M  V30 204 H 19.2542 -2.67554 2.65885 0
M  V30 205 H 21.6412 -2.40984 1.70325 0
M  V30 206 H 21.7222 -0.798656 2.43013 0
M  V30 207 H 21.3662 -1.84388 4.73248 0
M  V30 208 H 21.2962 -3.45458 3.9745 0
M  V30 209 H 23.7872 -2.1603 3.10063 0
M  V30 210 H 24.1002 -3.89027 6.67741 0
M  V30 211 H 22.4452 -3.50462 6.00168 0
M  V30 212 H 25.6362 -2.60638 3.88826 0
M  V30 213 H 25.8092 -3.39545 5.51918 0
M  V30 214 N 19.2153 -1.21501 -1.00376 0
M  V30 215 C 20.6313 -0.972629 -1.26539 0
M  V30 216 C 20.8313 0.340257 -1.98606 0
M  V30 217 O 19.8873 1.06561 -2.28913 0
M  V30 218 C 21.2003 -2.16404 -2.08781 0
M  V30 219 C 22.7483 -2.20643 -2.22004 0
M  V30 220 C 23.2233 -3.39306 -3.07629 0
M  V30 221 N 24.7143 -3.39401 -3.15217 0
M  V30 222 C 25.4493 -4.27867 -3.81729 0
M  V30 223 N 24.9453 -5.26533 -4.5026 0
M  V30 224 N 26.7383 -4.15672 -3.78382 0
M  V30 225 H 18.8893 -2.05929 -0.520281 0
M  V30 226 H 21.1523 -0.901803 -0.292328 0
M  V30 227 H 20.8583 -3.11554 -1.63178 0
M  V30 228 H 20.7323 -2.15567 -3.09533 0
M  V30 229 H 23.1193 -1.26048 -2.66825 0
M  V30 230 H 23.2003 -2.25523 -1.20718 0
M  V30 231 H 22.8443 -4.34195 -2.63509 0
M  V30 232 H 22.7743 -3.31665 -4.09031 0
M  V30 233 H 25.2653 -2.67997 -2.66432 0
M  V30 234 H 25.5783 -5.90337 -4.98721 0
M  V30 235 H 23.9233 -5.30457 -4.49044 0
M  V30 236 H 27.1143 -3.3785 -3.23998 0
M  V30 237 H 27.2873 -4.84825 -4.2994 0
M  V30 238 N 20.6934 1.19889 -1.02296 0
M  V30 239 C 21.6564 2.21116 -0.603351 0
M  V30 240 C 22.6564 1.5738 0.329884 0
M  V30 241 O 23.8464 1.73802 0.117702 0
M  V30 242 C 20.9784 3.40696 0.117992 0
M  V30 243 H 22.1714 2.59754 -1.49893 0
M  V30 244 H 19.7244 1.33463 -0.813468 0
M  V30 245 H 20.4594 3.07569 1.0282 0
M  V30 246 H 20.2444 3.88188 -0.552511 0
M  V30 247 H 21.7344 4.15692 0.398696 0
M  V30 248 N 22.1715 0.800033 1.35784 0
M  V30 249 C 23.1015 0.220184 2.3246 0
M  V30 250 C 24.0825 -0.65073 1.57161 0
M  V30 251 O 25.2675 -0.582359 1.85263 0
M  V30 252 C 22.3975 -0.637353 3.41402 0
M  V30 253 C 21.3515 0.134531 4.27789 0
M  V30 254 C 20.6775 -0.844285 5.27992 0
M  V30 255 C 21.9775 1.32979 5.05088 0
M  V30 256 H 23.6715 1.02787 2.81203 0
M  V30 257 H 21.2175 0.495717 1.35199 0
M  V30 258 H 23.1705 -1.05302 4.08031 0
M  V30 259 H 21.8945 -1.47785 2.91251 0
M  V30 260 H 20.5535 0.531296 3.6273 0
M  V30 261 H 20.2015 -1.68011 4.74111 0
M  V30 262 H 19.9015 -0.332184 5.8666 0
M  V30 263 H 21.4255 -1.2583 5.97494 0
M  V30 264 H 22.8395 0.98934 5.64699 0
M  V30 265 H 21.2365 1.77593 5.7322 0
M  V30 266 H 22.3065 2.11978 4.36111 0
M  V30 267 N 23.6496 -1.47581 0.552962 0
M  V30 268 C 24.8776 -2.06875 0.0320556 0
M  V30 269 C 25.2926 -1.40625 -1.25976 0
M  V30 270 O 24.6496 -0.501349 -1.75479 0
M  V30 271 C 24.7006 -3.61092 -0.17167 0
M  V30 272 O 24.4216 -4.24858 1.06899 0
M  V30 273 C 25.9226 -4.37242 -0.730344 0
M  V30 274 H 23.1426 -0.669561 0.043915 0
M  V30 275 H 25.6866 -1.89646 0.765163 0
M  V30 276 H 23.8416 -3.7785 -0.854894 0
M  V30 277 H 24.2556 -5.17334 0.864059 0
M  V30 278 H 25.7296 -5.45842 -0.822203 0
M  V30 279 H 26.2066 -4.03235 -1.74064 0
M  V30 280 H 26.8126 -4.25219 -0.0829543 0
M  V30 281 N 25.1277 -0.289203 -1.54924 0
M  V30 282 C 26.5437 0.0645403 -1.59469 0
M  V30 283 C 26.7437 1.53419 -1.30632 0
M  V30 284 O 25.7997 2.2852 -1.074 0
M  V30 285 C 27.1127 -0.32278 -2.98963 0
M  V30 286 C 28.6607 -0.270564 -3.11828 0
M  V30 287 C 29.1357 -0.632532 -4.53611 0
M  V30 288 N 30.6267 -0.584617 -4.59496 0
M  V30 289 C 31.3617 -0.837314 -5.67254 0
M  V30 290 N 30.8577 -1.15536 -6.83098 0
M  V30 291 N 32.6507 -0.765166 -5.56868 0
M  V30 292 H 24.8017 -1.24714 -1.71931 0
M  V30 293 H 27.0647 -0.504809 -0.802416 0
M  V30 294 H 26.7707 -1.34541 -3.24948 0
M  V30 295 H 26.6447 0.32944 -3.75759 0
M  V30 296 H 29.0317 0.742805 -2.85598 0
M  V30 297 H 29.1127 -0.957242 -2.37214 0
M  V30 298 H 28.7567 -1.64365 -4.80569 0
M  V30 299 H 28.6867 0.07609 -5.26545 0
M  V30 300 H 31.1777 -0.349248 -3.76283 0
M  V30 301 H 31.4907 -1.33447 -7.61191 0
M  V30 302 H 29.8357 -1.19328 -6.84679 0
M  V30 303 H 33.0267 -0.516432 -4.65243 0
M  V30 304 H 33.1997 -0.965477 -6.40767 0
M  V30 305 N 26.6058 1.57591 -0.0167156 0
M  V30 306 C 27.8548 1.90461 0.663877 0
M  V30 307 C 28.1678 0.893515 1.73999 0
M  V30 308 O 29.3738 1.11302 2.47637 0
M  V30 309 C 27.8298 3.38155 1.23204 0
M  V30 310 C 27.4378 4.47597 0.189866 0
M  V30 311 C 29.1818 3.80111 1.88986 0
M  V30 312 C 27.0888 5.86379 0.768964 0
M  V30 313 H 26.0188 0.710738 0.251729 0
M  V30 314 H 28.6698 1.83326 -0.0799926 0
M  V30 315 H 27.0518 3.40182 2.02712 0
M  V30 316 H 28.2258 4.57112 -0.581846 0
M  V30 317 H 26.5408 4.14766 -0.368475 0
M  V30 318 H 29.1378 4.81145 2.33247 0
M  V30 319 H 29.4808 3.14511 2.72743 0
M  V30 320 H 30.0138 3.80454 1.16187 0
M  V30 321 H 26.7528 6.55493 -0.0301957 0
M  V30 322 H 26.2728 5.80496 1.50945 0
M  V30 323 H 27.9518 6.34563 1.26251 0
M  V30 324 N 28.0839 -0.256276 1.55502 0
M  V30 325 C 29.0469 -1.30047 1.88734 0
M  V30 326 C 30.0469 -1.4154 0.763086 0
M  V30 327 O 31.2369 -1.40403 1.03115 0
M  V30 328 C 28.3689 -2.67953 2.10747 0
M  V30 329 H 29.5619 -1.01802 2.82093 0
M  V30 330 H 27.1149 -0.495134 1.4825 0
M  V30 331 H 27.8499 -3.01351 1.19825 0
M  V30 332 H 27.6349 -2.60993 2.92617 0
M  V30 333 H 29.1249 -3.43368 2.37673 0
M  V30 334 N 29.562 -1.4872 -0.521534 0
M  V30 335 C 30.512 -1.60269 -1.62166 0
M  V30 336 C 31.496 -0.45935 -1.54204 0
M  V30 337 O 32.688 -0.711241 -1.62081 0
M  V30 338 C 29.817 -1.65344 -3.00859 0
M  V30 339 C 28.903 -2.85187 -3.13894 0
M  V30 340 N 29.294 -4.09509 -2.96877 0
M  V30 341 C 27.592 -2.82695 -3.44963 0
M  V30 342 C 28.293 -4.89959 -3.13552 0
M  V30 343 N 27.269 -4.22934 -3.41508 0
M  V30 344 H 31.071 -2.5413 -1.47632 0
M  V30 345 H 28.585 -1.45209 -0.727194 0
M  V30 346 H 30.582 -1.71713 -3.79895 0
M  V30 347 H 29.242 -0.726058 -3.16478 0
M  V30 348 H 30.253 -4.39814 -2.73467 0
M  V30 349 H 26.93 -1.99249 -3.66887 0
M  V30 350 H 28.32 -5.98654 -3.05061 0
M  V30 351 N 31.0401 0.771051 -1.3745 0
M  V30 352 C 31.9501 1.91538 -1.35464 0
M  V30 353 C 32.9661 1.72134 -0.254123 0
M  V30 354 O 34.1421 1.95358 -0.489626 0
M  V30 355 C 31.2071 3.26671 -1.16134 0
M  V30 356 C 30.2681 3.58723 -2.35831 0
M  V30 357 C 29.5011 4.87409 -2.17413 0
M  V30 358 O 29.7241 5.58506 -1.15876 0
M  V30 359 O 28.6581 5.18539 -3.05615 0
M  V30 360 H 32.4841 1.96165 -2.31847 0
M  V30 361 H 30.0691 0.9139 -1.18187 0
M  V30 362 H 31.9511 4.07499 -1.07345 0
M  V30 363 H 30.6261 3.22894 -0.228251 0
M  V30 364 H 29.5331 2.78127 -2.50192 0
M  V30 365 H 30.8661 3.67243 -3.27709 0
M  V30 366 N 32.5182 1.22032 0.997298 0
M  V30 367 C 33.7672 1.03637 1.73038 0
M  V30 368 C 34.0802 -0.429475 1.90827 0
M  V30 369 O 35.2862 -0.732995 2.61418 0
M  V30 370 C 33.7422 1.80582 3.11317 0
M  V30 371 C 33.3502 3.31387 3.01474 0
M  V30 372 C 35.0942 1.70621 3.88701 0
M  V30 373 C 33.0012 4.00791 4.3488 0
M  V30 374 H 31.9312 0.384179 0.648785 0
M  V30 375 H 34.5822 1.4584 1.11368 0
M  V30 376 H 32.9642 1.31175 3.73643 0
M  V30 377 H 34.1382 3.88155 2.4834 0
M  V30 378 H 32.4532 3.41976 2.37575 0
M  V30 379 H 35.0502 2.19799 4.87434 0
M  V30 380 H 35.3932 0.665823 4.10941 0
M  V30 381 H 35.9262 2.17547 3.33044 0
M  V30 382 H 32.6652 5.05064 4.1784 0
M  V30 383 H 32.1852 3.48811 4.87945 0
M  V30 384 H 33.8642 4.06139 5.03647 0
M  V30 385 N 33.9963 -1.19345 1.0293 0
M  V30 386 C 35.2453 -1.88363 0.721256 0
M  V30 387 C 35.5583 -1.80514 -0.753254 0
M  V30 388 O 36.7643 -2.44788 -1.17436 0
M  V30 389 C 35.2203 -3.37872 1.23978 0
M  V30 390 C 34.8283 -3.54278 2.74211 0
M  V30 391 C 36.5723 -4.12365 1.00775 0
M  V30 392 C 34.4793 -4.97682 3.19479 0
M  V30 393 H 33.4093 -0.705484 0.266098 0
M  V30 394 H 36.0603 -1.34928 1.24365 0
M  V30 395 H 34.4423 -3.90707 0.6453 0
M  V30 396 H 35.6163 -3.11769 3.39318 0
M  V30 397 H 33.9313 -2.93174 2.95699 0
M  V30 398 H 36.5283 -5.18119 1.32123 0
M  V30 399 H 36.8713 -4.16263 -0.0554308 0
M  V30 400 H 37.4043 -3.65668 1.56625 0
M  V30 401 H 34.1433 -4.98945 4.25128 0
M  V30 402 H 33.6633 -5.4095 2.591 0
M  V30 403 H 35.3423 -5.66337 3.12845 0
M  V30 404 N 35.4744 -0.807222 -1.35358 0
M  V30 405 C 36.3844 -0.219594 -2.3357 0
M  V30 406 C 37.4004 0.637734 -1.61892 0
M  V30 407 O 38.5764 0.549336 -1.93763 0
M  V30 408 C 35.6414 0.62158 -3.41083 0
M  V30 409 C 34.7024 -0.256315 -4.28534 0
M  V30 410 C 33.9354 0.544807 -5.30912 0
M  V30 411 O 34.1584 1.77944 -5.41934 0
M  V30 412 O 33.0924 -0.0646478 -6.01865 0
M  V30 413 H 36.9184 -1.03208 -2.85625 0
M  V30 414 H 34.5034 -0.569025 -1.38139 0
M  V30 415 H 36.3854 1.10067 -4.06772 0
M  V30 416 H 35.0604 1.41165 -2.91297 0
M  V30 417 H 33.9674 -0.782559 -3.65823 0
M  V30 418 H 35.3004 -1.01034 -4.81719 0
M  V30 419 N 36.9525 1.47285 -0.560781 0
M  V30 420 C 38.3685 1.58065 -0.22081 0
M  V30 421 C 38.5685 1.55892 1.27671 0
M  V30 422 O 37.6245 1.46422 2.0571 0
M  V30 423 C 38.9375 2.88418 -0.850625 0
M  V30 424 C 40.4855 3.02009 -0.822184 0
M  V30 425 C 40.9605 4.35066 -1.43113 0
M  V30 426 N 42.4515 4.41711 -1.39448 0
M  V30 427 C 43.1865 5.43237 -1.83525 0
M  V30 428 N 42.6825 6.51555 -2.35474 0
M  V30 429 N 44.4755 5.34304 -1.74574 0
M  V30 430 H 36.6265 1.46941 -1.53369 0
M  V30 431 H 38.8895 0.699558 -0.639783 0
M  V30 432 H 38.5955 2.95755 -1.9032 0
M  V30 433 H 38.4695 3.75612 -0.345773 0
M  V30 434 H 40.8565 2.94266 0.221714 0
M  V30 435 H 40.9375 2.16347 -1.36483 0
M  V30 436 H 40.5815 4.43565 -2.47412 0
M  V30 437 H 40.5115 5.19465 -0.863899 0
M  V30 438 H 43.0025 3.64027 -1.01452 0
M  V30 439 H 43.3155 7.25203 -2.67021 0
M  V30 440 H 41.6605 6.52435 -2.39487 0
M  V30 441 H 44.8515 4.48581 -1.33763 0
M  V30 442 H 45.0245 6.13288 -2.09242 0
M  V30 443 N 38.4306 0.297415 1.54768 0
M  V30 444 C 39.3786 -0.596051 2.24833 0
M  V30 445 C 40.3726 -1.13992 1.25308 0
M  V30 446 O 41.5786 -1.09098 1.4317 0
M  V30 447 H 37.9536 -0.210814 0.721846 0
M  V30 448 H 39.9246 0.0174667 2.98395 0
M  V30 449 C 38.6736 -1.75818 2.99972 0
M  V30 450 H 37.9966 -1.3489 3.76357 0
M  V30 451 H 39.4366 -2.35949 3.52284 0
M  V30 452 C 37.8956 -2.66014 2.06732 0
M  V30 453 O 38.4256 -3.67009 1.63302 0
M  V30 454 N 36.6316 -2.33669 1.72763 0
M  V30 455 H 36.1786 -1.51586 2.08277 0
M  V30 456 H 36.1366 -2.94285 1.10652 0
M  V30 457 N 39.9087 -1.5758 0.0250728 0
M  V30 458 C 40.8557 -2.09973 -0.958129 0
M  V30 459 C 41.8257 -1.00085 -1.3256 0
M  V30 460 O 43.0107 -1.27481 -1.41962 0
M  V30 461 C 40.1507 -2.62812 -2.2366 0
M  V30 462 C 39.2637 -3.86693 -1.92594 0
M  V30 463 C 38.3987 -4.27941 -3.14707 0
M  V30 464 C 37.4377 -5.44591 -2.79442 0
M  V30 465 N 36.5747 -5.81014 -3.94167 0
M  V30 466 H 41.4147 -2.937 -0.504428 0
M  V30 467 H 38.9517 -1.45172 -0.237392 0
M  V30 468 H 40.9097 -2.91536 -2.98434 0
M  V30 469 H 39.5397 -1.81922 -2.66654 0
M  V30 470 H 38.5917 -3.64723 -1.0808 0
M  V30 471 H 39.9037 -4.71547 -1.62619 0
M  V30 472 H 39.0577 -4.58079 -3.97804 0
M  V30 473 H 37.7967 -3.41845 -3.4784 0
M  V30 474 H 36.8017 -5.1415 -1.94755 0
M  V30 475 H 38.0267 -6.32382 -2.47528 0
M  V30 476 H 35.9727 -4.97874 -4.2715 0
M  V30 477 H 35.8897 -6.60498 -3.67801 0
M  V30 478 H 37.1577 -6.15756 -4.7798 0
M  V30 479 N 41.3868 0.248026 -1.55636 0
M  V30 480 C 42.6348 0.974295 -1.77065 0
M  V30 481 C 42.9558 1.85897 -0.588849 0
M  V30 482 O 42.2258 1.91868 0.395407 0
M  V30 483 H 40.8058 0.362733 -0.653019 0
M  V30 484 H 43.4678 0.266244 -1.93073 0
M  V30 485 H 42.5638 1.59667 -2.68166 0
M  V30 486 N 42.8649 1.48995 0.513639 0
M  V30 487 C 44.1139 1.57093 1.2651 0
M  V30 488 C 44.4269 0.257091 1.93903 0
M  V30 489 O 45.6329 0.216478 2.70636 0
M  V30 490 C 44.0889 2.77118 2.29638 0
M  V30 491 C 43.6969 4.15209 1.68241 0
M  V30 492 C 45.4409 2.94538 3.05692 0
M  V30 493 C 43.3479 5.26474 2.69406 0
M  V30 494 H 42.2779 0.584876 0.475854 0
M  V30 495 H 44.9289 1.7536 0.540487 0
M  V30 496 H 43.3109 2.52319 3.05207 0
M  V30 497 H 44.4849 4.50094 0.987505 0
M  V30 498 H 42.7999 4.03042 1.04623 0
M  V30 499 H 45.3969 3.74832 3.8132 0
M  V30 500 H 45.7399 2.04614 3.62545 0
M  V30 501 H 46.2729 3.19316 2.37238 0
M  V30 502 H 43.0119 6.18417 2.17351 0
M  V30 503 H 42.5319 4.96058 3.37175 0
M  V30 504 H 44.2109 5.55277 3.32078 0
M  V30 505 N 44.343 -0.763751 1.37857 0
M  V30 506 C 45.62 -1.51244 1.24035 0
M  V30 507 C 46 -2.10472 -0.162649 0
M  V30 508 O 45.348 -1.96206 -1.17112 0
M  V30 509 C 45.558 -2.58694 2.34261 0
M  V30 510 C 46.906 -3.25878 2.72193 0
M  V30 511 O 47.93 -2.68993 2.33497 0
M  V30 512 O 46.789 -4.2874 3.38887 0
M  V30 513 H 43.883 -0.670243 0.484462 0
M  V30 514 H 46.429 -0.800031 1.49658 0
M  V30 515 H 45.201 -2.13105 3.2818 0
M  V30 516 H 44.824 -3.37527 2.10146 0
M  V30 517 N 45.8211 -1.22559 -0.990812 0
M  V30 518 C 47.0691 -1.04933 -1.72724 0
M  V30 519 C 47.3901 0.416158 -1.90508 0
M  V30 520 O 46.6601 1.29918 -1.46622 0
M  V30 521 H 45.2401 -0.385296 -0.639965 0
M  V30 522 H 47.9021 -1.54105 -1.19322 0
M  V30 523 H 46.9981 -1.52886 -2.72089 0
M  V30 524 N 47.2992 1.18797 -1.03562 0
M  V30 525 C 48.5392 1.90346 -0.744832 0
M  V30 526 C 48.9032 1.78231 0.713972 0
M  V30 527 O 50.1042 2.44441 1.11813 0
M  V30 528 C 48.3752 3.36942 -1.19184 0
M  V30 529 S 49.9342 4.26638 -1.02593 0
M  V30 530 H 46.7522 0.657343 -0.270963 0
M  V30 531 H 49.3542 1.43579 -1.32685 0
M  V30 532 H 48.0582 3.43287 -2.24905 0
M  V30 533 H 47.5892 3.88745 -0.603397 0
M  V30 534 H 49.6042 4.96164 0.0596033 0
M  V30 535 N 48.7773 0.814389 1.34928 0
M  V30 536 C 50.0233 0.399013 1.98836 0
M  V30 537 C 50.3563 -1.03314 1.64438 0
M  V30 538 O 49.6313 -1.71811 0.911659 0
M  V30 539 C 49.9143 0.591629 3.55207 0
M  V30 540 C 49.7673 2.06928 3.99376 0
M  V30 541 C 51.0863 0.022199 4.40094 0
M  V30 542 H 48.2053 0.146451 0.722303 0
M  V30 543 H 50.8473 1.02537 1.59957 0
M  V30 544 H 48.9973 0.0584441 3.88456 0
M  V30 545 H 50.6693 2.66544 3.76499 0
M  V30 546 H 48.9123 2.56287 3.49999 0
M  V30 547 H 49.5833 2.1549 5.08201 0
M  V30 548 H 52.0593 0.477643 4.13349 0
M  V30 549 H 50.9353 0.186832 5.48582 0
M  V30 550 H 51.1963 -1.07215 4.28902 0
M  V30 551 N 50.2554 -1.46986 0.568584 0
M  V30 552 C 51.1854 -2.32946 -0.160753 0
M  V30 553 C 52.1664 -1.44487 -0.897631 0
M  V30 554 O 53.3514 -1.73327 -0.875867 0
M  V30 555 C 50.4814 -3.26494 -1.18403 0
M  V30 556 C 49.4354 -4.24282 -0.562895 0
M  V30 557 C 48.7614 -5.07236 -1.69163 0
M  V30 558 C 50.0614 -5.19989 0.490761 0
M  V30 559 H 51.7554 -2.94175 0.556916 0
M  V30 560 H 49.3014 -1.4146 0.26927 0
M  V30 561 H 51.2544 -3.85477 -1.70251 0
M  V30 562 H 49.9784 -2.63343 -1.93179 0
M  V30 563 H 48.6374 -3.66541 -0.0656164 0
M  V30 564 H 48.2854 -4.4048 -2.42871 0
M  V30 565 H 47.9854 -5.7345 -1.28174 0
M  V30 566 H 49.5094 -5.6908 -2.21314 0
M  V30 567 H 50.9234 -5.73271 0.0579047 0
M  V30 568 H 49.3204 -5.94469 0.820165 0
M  V30 569 H 50.3904 -4.64777 1.3824 0
M  V30 570 N 51.7335 -0.305618 -1.54608 0
M  V30 571 C 52.9795 0.302746 -2.00528 0
M  V30 572 C 53.3125 1.53184 -1.19367 0
M  V30 573 O 52.5875 1.92598 -0.271321 0
M  V30 574 C 52.8705 0.654756 -3.54097 0
M  V30 575 C 52.7235 -0.583793 -4.45995 0
M  V30 576 C 54.0425 1.47947 -4.14487 0
M  V30 577 H 51.1615 0.108564 -0.72896 0
M  V30 578 H 53.8035 -0.418634 -1.85331 0
M  V30 579 H 51.9535 1.26935 -3.67178 0
M  V30 580 H 53.6255 -1.22224 -4.44814 0
M  V30 581 H 51.8685 -1.21615 -4.16404 0
M  V30 582 H 52.5395 -0.293287 -5.5122 0
M  V30 583 H 55.0155 0.96013 -4.04871 0
M  V30 584 H 53.8915 1.69454 -5.22088 0
M  V30 585 H 54.1525 2.47011 -3.66658 0
M  V30 586 N 53.2116 1.57565 -0.0334293 0
M  V30 587 C 54.4596 1.91598 0.642999 0
M  V30 588 C 54.7806 0.910847 1.7242 0
M  V30 589 O 54.0506 -0.0469931 1.95844 0
M  V30 590 H 52.6306 0.707228 0.240496 0
M  V30 591 H 55.2926 1.94726 -0.0822488 0
M  V30 592 H 54.3886 2.92336 1.09298 0
M  V30 593 N 54.6897 -0.239769 1.55765 0
M  V30 594 C 55.9387 -0.964754 1.77131 0
M  V30 595 C 56.2517 -1.86213 0.59868 0
M  V30 596 O 57.4577 -2.6244 0.695522 0
M  V30 597 C 55.9137 -1.76552 3.1362 0
M  V30 598 C 55.5217 -0.915185 4.38553 0
M  V30 599 C 57.2657 -2.48281 3.44321 0
M  V30 600 C 55.1727 -1.71225 5.66071 0
M  V30 601 H 54.1027 -0.363953 0.660344 0
M  V30 602 H 56.7537 -0.219181 1.82186 0
M  V30 603 H 55.1357 -2.55331 3.02691 0
M  V30 604 H 56.3097 -0.169217 4.60489 0
M  V30 605 H 54.6247 -0.310889 4.15238 0
M  V30 606 H 57.2217 -3.08382 4.36812 0
M  V30 607 H 57.5647 -3.20256 2.65973 0
M  V30 608 H 58.0977 -1.76507 3.56497 0
M  V30 609 H 54.8367 -1.03612 6.4726 0
M  V30 610 H 54.3567 -2.43331 5.48224 0
M  V30 611 H 56.0357 -2.27758 6.05587 0
M  V30 612 N 56.1678 -1.49265 -0.50573 0
M  V30 613 C 57.1148 -1.65585 -1.6078 0
M  V30 614 C 58.0848 -0.497396 -1.58478 0
M  V30 615 O 59.2698 -0.72385 -1.76536 0
M  V30 616 C 56.4098 -1.72408 -2.98948 0
M  V30 617 C 55.5228 -2.99525 -3.11301 0
M  V30 618 C 54.6578 -2.97356 -4.40174 0
M  V30 619 C 53.6968 -4.19074 -4.46143 0
M  V30 620 N 52.8338 -4.14841 -5.66437 0
M  V30 621 H 57.6738 -2.59688 -1.46172 0
M  V30 622 H 55.2108 -1.28761 -0.711261 0
M  V30 623 H 57.1688 -1.74344 -3.79025 0
M  V30 624 H 55.7988 -0.817753 -3.1227 0
M  V30 625 H 54.8508 -3.07222 -2.24318 0
M  V30 626 H 56.1628 -3.89518 -3.11572 0
M  V30 627 H 55.3168 -2.97829 -5.28567 0
M  V30 628 H 54.0558 -2.05133 -4.42461 0
M  V30 629 H 53.0608 -4.1885 -3.56153 0
M  V30 630 H 54.2858 -5.12483 -4.45575 0
M  V30 631 H 52.2318 -3.25453 -5.69575 0
M  V30 632 H 52.1488 -4.98564 -5.68304 0
M  V30 633 H 53.4168 -4.1941 -6.57051 0
M  V30 634 N 57.6459 0.756429 -1.3826 0
M  V30 635 C 58.8739 1.54565 -1.3754 0
M  V30 636 C 59.2889 1.88767 0.0355331 0
M  V30 637 O 58.6459 1.52572 1.0014 0
M  V30 638 C 58.6969 2.84654 -2.22833 0
M  V30 639 O 58.4179 2.51912 -3.5843 0
M  V30 640 C 59.9189 3.78807 -2.30261 0
M  V30 641 H 57.1389 0.478353 -0.470553 0
M  V30 642 H 59.6829 0.936381 -1.81803 0
M  V30 643 H 57.8379 3.41965 -1.8204 0
M  V30 644 H 58.2519 3.35325 -4.03308 0
M  V30 645 H 59.7259 4.67045 -2.94233 0
M  V30 646 H 60.2029 4.19038 -1.31545 0
M  V30 647 H 60.8089 3.2742 -2.71433 0
M  V30 648 N 59.124 1.23083 0.984299 0
M  V30 649 C 60.54 0.992637 1.24975 0
M  V30 650 C 60.74 -0.308618 1.99123 0
M  V30 651 O 59.796 -1.02905 2.30579 0
M  V30 652 C 61.109 2.19698 2.05312 0
M  V30 653 C 62.657 2.24147 2.18465 0
M  V30 654 C 63.132 3.44157 3.02192 0
M  V30 655 N 64.623 3.44372 3.09777 0
M  V30 656 C 65.358 4.33886 3.74874 0
M  V30 657 N 64.854 5.3363 4.41827 0
M  V30 658 N 66.647 4.21639 3.71721 0
M  V30 659 H 58.798 2.06731 0.487453 0
M  V30 660 H 61.061 0.906339 0.277944 0
M  V30 661 H 60.767 3.1411 1.58201 0
M  V30 662 H 60.641 2.20465 3.06064 0
M  V30 663 H 63.028 1.30277 2.64786 0
M  V30 664 H 63.109 2.27415 1.17115 0
M  V30 665 H 62.753 4.38332 2.56568 0
M  V30 666 H 62.683 3.3813 4.03702 0
M  V30 667 H 65.174 2.72201 2.62135 0
M  V30 668 H 65.487 5.98196 4.89266 0
M  V30 669 H 63.832 5.37534 4.40548 0
M  V30 670 H 67.023 3.42962 3.18582 0
M  V30 671 H 67.196 4.91604 4.22173 0
M  V30 672 N 60.6021 -1.18246 1.0419 0
M  V30 673 C 61.8501 -1.87886 0.744543 0
M  V30 674 C 62.1711 -1.8082 -0.730006 0
M  V30 675 O 61.4411 -1.22736 -1.52685 0
M  V30 676 H 60.0211 -0.695556 0.272417 0
M  V30 677 H 62.6831 -1.43494 1.31892 0
M  V30 678 H 61.7791 -2.9389 1.05049 0
M  V30 679 N 62.0802 -0.821533 -1.34494 0
M  V30 680 C 63.3292 -0.405355 -1.97585 0
M  V30 681 C 63.6422 1.03677 -1.65863 0
M  V30 682 O 64.8482 1.55679 -2.22433 0
M  V30 683 C 63.3042 -0.673861 -3.53535 0
M  V30 684 C 62.9122 -2.12951 -3.94152 0
M  V30 685 C 64.6562 -0.32378 -4.23263 0
M  V30 686 C 62.5632 -2.34298 -5.43009 0
M  V30 687 H 61.4932 -0.147836 -0.739365 0
M  V30 688 H 64.1442 -1.00769 -1.53355 0
M  V30 689 H 62.5262 -0.00137554 -3.96 0
M  V30 690 H 63.7002 -2.84104 -3.62797 0
M  V30 691 H 62.0152 -2.44089 -3.37356 0
M  V30 692 H 64.6122 -0.461126 -5.32708 0
M  V30 693 H 64.9552 0.731586 -4.09821 0
M  V30 694 H 65.4882 -0.950786 -3.8627 0
M  V30 695 H 62.2272 -3.38335 -5.61435 0
M  V30 696 H 61.7472 -1.67687 -5.75883 0
M  V30 697 H 63.4262 -2.16588 -6.09671 0
M  V30 698 N 63.5583 1.46682 -0.576371 0
M  V30 699 C 64.7883 2.06498 -0.0648694 0
M  V30 700 C 65.1963 1.42665 1.24271 0
M  V30 701 O 64.5393 0.523886 1.76071 0
M  V30 702 C 64.6013 3.5904 0.181816 0
M  V30 703 C 64.2653 4.45028 -1.0392 0
M  V30 704 C 65.2623 4.81959 -1.94966 0
M  V30 705 C 62.9473 4.86259 -1.25927 0
M  V30 706 C 64.9413 5.58942 -3.06371 0
M  V30 707 C 62.6283 5.63002 -2.37638 0
M  V30 708 C 63.6263 5.99257 -3.2769 0
M  V30 709 O 63.3143 6.7445 -4.37461 0
M  V30 710 H 63.0463 0.674028 -0.0515987 0
M  V30 711 H 65.6003 1.89393 -0.794951 0
M  V30 712 H 63.8303 3.74429 0.966436 0
M  V30 713 H 65.5193 4.00806 0.641047 0
M  V30 714 H 66.2853 4.50689 -1.79177 0
M  V30 715 H 62.1643 4.57494 -0.567448 0
M  V30 716 H 65.7083 5.87158 -3.76684 0
M  V30 717 H 61.6053 5.93686 -2.53392 0
M  V30 718 H 62.3733 6.92867 -4.35749 0
M  V30 719 N 65.0364 0.313813 1.54444 0
M  V30 720 C 65.9664 -0.549454 2.26943 0
M  V30 721 C 66.9474 -1.12741 1.27372 0
M  V30 722 O 68.1324 -1.15436 1.56167 0
M  V30 723 C 65.2624 -1.71523 3.01989 0
M  V30 724 C 64.2164 -1.26703 4.08816 0
M  V30 725 C 63.5424 -2.51898 4.71647 0
M  V30 726 C 64.8424 -0.388962 5.2085 0
M  V30 727 H 66.5364 0.0552661 2.99349 0
M  V30 728 H 64.0824 0.0280207 1.43973 0
M  V30 729 H 66.0354 -2.32535 3.51433 0
M  V30 730 H 64.7594 -2.34639 2.27183 0
M  V30 731 H 63.4184 -0.679896 3.6024 0
M  V30 732 H 63.0664 -3.13356 3.93468 0
M  V30 733 H 62.7664 -2.22605 5.43802 0
M  V30 734 H 64.2904 -3.1369 5.23861 0
M  V30 735 H 65.7044 -0.905107 5.6611 0
M  V30 736 H 64.1014 -0.18924 5.99802 0
M  V30 737 H 65.1714 0.582699 4.81386 0
M  V30 738 N 66.5145 -1.57545 0.0417849 0
M  V30 739 C 67.4775 -2.09885 -0.92093 0
M  V30 740 C 68.4775 -1.01648 -1.24596 0
M  V30 741 O 69.6675 -1.27759 -1.1842 0
M  V30 742 C 66.7995 -2.57527 -2.23367 0
M  V30 743 H 67.9925 -2.96236 -0.467382 0
M  V30 744 H 65.5455 -1.5493 -0.206467 0
M  V30 745 H 66.2805 -1.74542 -2.73323 0
M  V30 746 H 66.0655 -3.36613 -2.01083 0
M  V30 747 H 67.5555 -2.98201 -2.92346 0
M  V30 748 N 67.9926 0.231505 -1.5589 0
M  V30 749 C 69.4086 0.580748 -1.48659 0
M  V30 750 C 69.6086 1.87617 -0.73498 0
M  V30 751 O 68.6646 2.51046 -0.270586 0
M  V30 752 C 69.9776 0.669202 -2.93159 0
M  V30 753 C 71.5256 0.760499 -3.03621 0
M  V30 754 C 72.0006 0.880383 -4.49459 0
M  V30 755 N 73.4916 0.944861 -4.53461 0
M  V30 756 C 74.2266 1.05716 -5.63571 0
M  V30 757 N 73.7226 1.13403 -6.83456 0
M  V30 758 N 75.5156 1.09152 -5.514 0
M  V30 759 H 67.6666 -0.618695 -2.03189 0
M  V30 760 H 69.9296 -0.215728 -0.923128 0
M  V30 761 H 69.6356 -0.212904 -3.51055 0
M  V30 762 H 69.5096 1.5361 -3.44505 0
M  V30 763 H 71.8966 1.63305 -2.45796 0
M  V30 764 H 71.9776 -0.131864 -2.5546 0
M  V30 765 H 71.6216 0.0123284 -5.07899 0
M  V30 766 H 71.5516 1.78802 -4.95316 0
M  V30 767 H 74.0426 0.896176 -3.6712 0
M  V30 768 H 74.3556 1.21921 -7.63122 0
M  V30 769 H 72.7006 1.10333 -6.86186 0
M  V30 770 H 75.8916 1.02805 -4.56671 0
M  V30 771 H 76.0646 1.17558 -6.37247 0
M  V30 772 N 69.4707 1.49531 0.497807 0
M  V30 773 C 70.8867 1.36365 0.829266 0
M  V30 774 C 71.0867 0.399184 1.97506 0
M  V30 775 O 70.1427 -0.167977 2.51941 0
M  V30 776 C 71.4557 2.77153 1.16647 0
M  V30 777 C 73.0037 2.85877 1.27449 0
M  V30 778 C 73.4787 4.2744 1.64497 0
M  V30 779 N 74.9697 4.30265 1.7154 0
M  V30 780 C 75.7047 5.3677 2.01656 0
M  V30 781 N 75.2007 6.53516 2.29976 0
M  V30 782 N 76.9937 5.24189 2.02934 0
M  V30 783 H 69.1447 2.10831 -0.257703 0
M  V30 784 H 71.4077 0.946534 -0.0527091 0
M  V30 785 H 71.1137 3.49442 0.397872 0
M  V30 786 H 70.9877 3.12722 2.10915 0
M  V30 787 H 73.3747 2.13824 2.0338 0
M  V30 788 H 73.4557 2.53887 0.312244 0
M  V30 789 H 73.0997 5.00021 0.891151 0
M  V30 790 H 73.0297 4.56896 2.61827 0
M  V30 791 H 75.5207 3.4607 1.51802 0
M  V30 792 H 75.8337 7.30506 2.52153 0
M  V30 793 H 74.1787 6.56737 2.27425 0
M  V30 794 H 77.3697 4.31988 1.80289 0
M  V30 795 H 77.5427 6.07286 2.26071 0
M  V30 796 N 70.9488 -0.749086 1.3866 0
M  V30 797 C 71.8788 -1.8764 1.38973 0
M  V30 798 C 72.8598 -1.68178 0.255004 0
M  V30 799 O 74.0448 -1.88704 0.458754 0
M  V30 800 C 71.1748 -3.25222 1.21851 0
M  V30 801 C 70.1288 -3.59295 2.32575 0
M  V30 802 C 69.4548 -4.95663 2.00555 0
M  V30 803 C 70.7548 -3.63709 3.7485 0
M  V30 804 H 72.4488 -1.87635 2.3331 0
M  V30 805 H 69.9948 -0.901329 1.12303 0
M  V30 806 H 71.9478 -4.03746 1.20695 0
M  V30 807 H 70.6718 -3.25719 0.239775 0
M  V30 808 H 69.3308 -2.83093 2.32925 0
M  V30 809 H 68.9788 -4.92724 1.01154 0
M  V30 810 H 68.6788 -5.19429 2.74714 0
M  V30 811 H 70.2028 -5.7656 2.01024 0
M  V30 812 H 71.6168 -4.32338 3.76506 0
M  V30 813 H 70.0138 -3.98986 4.48252 0
M  V30 814 H 71.0838 -2.63834 4.06841 0
M  V30 815 N 72.4269 -1.23603 -0.977757 0
M  V30 816 C 73.3899 -1.02069 -2.05218 0
M  V30 817 C 74.3899 0.0184305 -1.60789 0
M  V30 818 O 75.5799 -0.221569 -1.72785 0
M  V30 819 C 72.7119 -0.544926 -3.36517 0
M  V30 820 H 73.9049 -1.9742 -2.25755 0
M  V30 821 H 71.4579 -1.05684 -1.15155 0
M  V30 822 H 72.1929 0.412241 -3.21669 0
M  V30 823 H 71.9779 -1.2948 -3.70105 0
M  V30 824 H 73.4679 -0.414985 -4.15533 0
M  V30 825 N 73.905 1.17692 -1.04816 0
M  V30 826 C 74.815 2.25229 -0.65643 0
M  V30 827 C 75.831 1.71018 0.320761 0
M  V30 828 O 77.007 2.00649 0.173805 0
M  V30 829 C 74.072 3.46684 -0.0332629 0
M  V30 830 C 73.133 4.15997 -1.06042 0
M  V30 831 C 72.366 5.31654 -0.466893 0
M  V30 832 O 72.589 5.65777 0.724758 0
M  V30 833 O 71.523 5.89831 -1.1993 0
M  V30 834 H 75.349 2.61016 -1.55255 0
M  V30 835 H 72.934 1.24919 -0.81949 0
M  V30 836 H 74.816 4.20234 0.313256 0
M  V30 837 H 73.491 3.12703 0.836566 0
M  V30 838 H 72.398 3.44482 -1.45886 0
M  V30 839 H 73.731 4.53996 -1.90127 0
M  V30 840 N 75.3831 0.828654 1.34056 0
M  V30 841 C 76.7991 0.515135 1.51058 0
M  V30 842 C 76.9991 -0.959581 1.77184 0
M  V30 843 O 76.0551 -1.74382 1.82612 0
M  V30 844 C 77.3681 1.37963 2.67183 0
M  V30 845 C 78.9161 1.37735 2.81066 0
M  V30 846 C 79.3911 2.22645 4.00241 0
M  V30 847 N 80.8821 2.203 4.07458 0
M  V30 848 C 81.6171 2.82744 4.98842 0
M  V30 849 N 81.1131 3.54201 5.9541 0
M  V30 850 N 82.9061 2.72268 4.91759 0
M  V30 851 H 75.0571 1.78343 1.15358 0
M  V30 852 H 77.3201 0.760304 0.566252 0
M  V30 853 H 77.0261 2.42714 2.54525 0
M  V30 854 H 76.9001 1.0484 3.62338 0
M  V30 855 H 79.2871 0.337593 2.93163 0
M  V30 856 H 79.3681 1.74859 1.86703 0
M  V30 857 H 79.0121 3.26674 3.88905 0
M  V30 858 H 78.9421 1.82869 4.93829 0
M  V30 859 H 81.4331 1.68327 3.38341 0
M  V30 860 H 81.7461 3.9908 6.61782 0
M  V30 861 H 80.0911 3.58308 5.95517 0
M  V30 862 H 83.2821 2.16014 4.15278 0
M  V30 863 H 83.4551 3.21219 5.62781 0
M  V30 864 N 76.8612 -1.46375 0.584142 0
M  V30 865 C 78.1102 -2.01585 0.0679741 0
M  V30 866 C 78.4232 -1.46109 -1.30045 0
M  V30 867 O 79.6292 -1.93148 -1.90804 0
M  V30 868 C 78.0852 -3.5983 0.0709207 0
M  V30 869 C 77.6932 -4.24303 1.43775 0
M  V30 870 C 79.4372 -4.22693 -0.391228 0
M  V30 871 C 77.3442 -5.74631 1.39834 0
M  V30 872 H 76.2742 -0.753689 0.0216421 0
M  V30 873 H 78.9252 -1.68093 0.736001 0
M  V30 874 H 77.3072 -3.90405 -0.663299 0
M  V30 875 H 78.4812 -4.05335 2.19181 0
M  V30 876 H 76.7962 -3.73539 1.84004 0
M  V30 877 H 79.3932 -5.3289 -0.439524 0
M  V30 878 H 79.7362 -3.91728 -1.40906 0
M  V30 879 H 80.2692 -3.96749 0.288974 0
M  V30 880 H 77.0082 -6.10258 2.39303 0
M  V30 881 H 76.5282 -5.95858 0.686505 0
M  V30 882 H 78.2072 -6.37375 1.11187 0
M  V30 883 N 78.3393 -0.321999 -1.54275 0
M  V30 884 C 79.2493 0.553631 -2.27974 0
M  V30 885 C 80.2653 1.13054 -1.32268 0
M  V30 886 O 81.4413 1.15084 -1.6528 0
M  V30 887 C 78.5063 1.69927 -3.02201 0
M  V30 888 C 77.5673 1.15433 -4.1349 0
M  V30 889 C 76.8003 2.24537 -4.84168 0
M  V30 890 O 77.0233 3.44852 -4.5435 0
M  V30 891 O 75.9573 1.90044 -5.7111 0
M  V30 892 H 79.7833 -0.0448345 -3.03667 0
M  V30 893 H 77.3683 -0.0877418 -1.49142 0
M  V30 894 H 79.2503 2.3663 -3.48689 0
M  V30 895 H 77.9253 2.28395 -2.29385 0
M  V30 896 H 76.8323 0.452436 -3.71354 0
M  V30 897 H 78.1653 0.614805 -4.88345 0
M  V30 898 N 79.8174 1.5752 -0.0501392 0
M  V30 899 C 80.7494 2.08413 0.95376 0
M  V30 900 C 81.7624 1.01175 1.27544 0
M  V30 901 O 82.9514 1.28744 1.23641 0
M  V30 902 C 80.0514 2.51138 2.27559 0
M  V30 903 C 79.2244 3.817 2.13598 0
M  V30 904 C 78.2834 4.10749 3.28895 0
M  V30 905 O 77.3094 4.80685 3.04845 0
M  V30 906 N 78.5114 3.62579 4.5334 0
M  V30 907 H 81.2764 2.95165 0.519383 0
M  V30 908 H 78.8374 1.61327 0.136127 0
M  V30 909 H 80.8294 2.67648 3.03557 0
M  V30 910 H 79.3994 1.6964 2.62567 0
M  V30 911 H 78.6194 3.74782 1.22197 0
M  V30 912 H 79.9074 4.67201 2.01496 0
M  V30 913 H 79.3054 3.06039 4.75769 0
M  V30 914 H 77.8624 3.84329 5.26436 0
M  V30 915 N 81.2955 -0.223234 1.56011 0
M  V30 916 C 82.5445 -0.945912 1.78144 0
M  V30 917 C 82.8575 -1.85567 0.618396 0
M  V30 918 O 84.0635 -2.61688 0.723318 0
M  V30 919 C 82.5195 -1.73216 3.15475 0
M  V30 920 C 82.1275 -0.868619 4.39499 0
M  V30 921 C 83.8715 -2.44615 3.46935 0
M  V30 922 C 81.7785 -1.65212 5.67855 0
M  V30 923 H 80.7085 -0.356929 0.664167 0
M  V30 924 H 83.3595 -0.199845 1.82409 0
M  V30 925 H 81.7415 -2.52107 3.05382 0
M  V30 926 H 82.9155 -0.120366 4.60643 0
M  V30 927 H 81.2305 -0.26683 4.15544 0
M  V30 928 H 83.8275 -3.03732 4.40058 0
M  V30 929 H 84.1705 -3.17417 2.69355 0
M  V30 930 H 84.7035 -1.72715 3.58349 0
M  V30 931 H 81.4425 -0.967407 6.48322 0
M  V30 932 H 80.9625 -2.37503 5.50774 0
M  V30 933 H 82.6415 -2.21322 6.07968 0
M  V30 934 N 82.7736 -1.49793 -0.48987 0
M  V30 935 C 83.6836 -1.70036 -1.61632 0
M  V30 936 C 84.6996 -0.583102 -1.63939 0
M  V30 937 O 85.8756 -0.859169 -1.82154 0
M  V30 938 C 82.9406 -1.77277 -2.97949 0
M  V30 939 C 82.0016 -3.00918 -3.06181 0
M  V30 940 C 81.2346 -3.07804 -4.35996 0
M  V30 941 O 81.4576 -2.21982 -5.25433 0
M  V30 942 O 80.3916 -4.00369 -4.49431 0
M  V30 943 H 84.2176 -2.65486 -1.47482 0
M  V30 944 H 81.8026 -1.33666 -0.667362 0
M  V30 945 H 83.6846 -1.84329 -3.78947 0
M  V30 946 H 82.3596 -0.850076 -3.12339 0
M  V30 947 H 81.2666 -2.99377 -2.2433 0
M  V30 948 H 82.5996 -3.92704 -2.96723 0
M  V30 949 N 84.2517 0.741722 -1.39055 0
M  V30 950 C 85.4997 1.49818 -1.35643 0
M  V30 951 C 85.8207 1.94938 0.0491642 0
M  V30 952 O 85.0907 1.68505 0.999141 0
M  V30 953 H 83.6707 0.555755 -0.499144 0
M  V30 954 H 86.3327 0.880957 -1.73854 0
M  V30 955 H 85.4287 2.38348 -2.01486 0
M  V30 956 N 85.7298 1.2412 0.971189 0
M  V30 957 C 86.6928 1.03156 2.04674 0
M  V30 958 C 87.6928 -0.00990322 1.60797 0
M  V30 959 O 88.8828 0.230729 1.72665 0
M  V30 960 C 86.0148 0.562765 3.36223 0
M  V30 961 H 87.2078 1.98614 2.24705 0
M  V30 962 H 84.7608 1.06293 1.14593 0
M  V30 963 H 85.4958 -0.395176 3.21883 0
M  V30 964 H 85.2808 1.31441 3.69413 0
M  V30 965 H 86.7708 0.437015 4.15307 0
M  V30 966 N 87.2079 -1.17134 1.05439 0
M  V30 967 C 88.4329 -1.91913 0.786396 0
M  V30 968 C 88.8579 -1.7643 -0.652234 0
M  V30 969 O 88.2159 -1.08372 -1.45345 0
M  V30 970 C 88.2639 -3.40921 1.17497 0
M  V30 971 O 87.3679 -4.11244 0.308589 0
M  V30 972 H 86.7089 -0.598215 0.288158 0
M  V30 973 H 89.2389 -1.48457 1.4079 0
M  V30 974 H 89.2489 -3.91668 1.14281 0
M  V30 975 H 87.9239 -3.5151 2.22292 0
M  V30 976 H 86.5009 -3.70731 0.40157 0
M  V30 977 N 88.686 -0.835752 -1.33615 0
M  V30 978 C 89.932 -0.430596 -1.98176 0
M  V30 979 C 90.265 1.00684 -1.66061 0
M  V30 980 O 89.54 1.70339 -0.938877 0
M  V30 981 C 89.823 -0.648065 -3.5422 0
M  V30 982 C 89.676 -2.13255 -3.96033 0
M  V30 983 C 90.995 -0.0922113 -4.40003 0
M  V30 984 H 88.114 -0.157924 -0.719881 0
M  V30 985 H 90.756 -1.05069 -1.58305 0
M  V30 986 H 88.906 -0.120237 -3.88314 0
M  V30 987 H 90.578 -2.725 -3.72211 0
M  V30 988 H 88.821 -2.61823 -3.45878 0
M  V30 989 H 89.492 -2.23547 -5.04708 0
M  V30 990 H 91.968 -0.543343 -4.12537 0
M  V30 991 H 90.844 -0.274083 -5.48215 0
M  V30 992 H 91.105 1.00378 -4.30554 0
M  V30 993 N 90.1641 1.46063 -0.591896 0
M  V30 994 C 91.5751 1.85944 -0.167822 0
M  V30 995 C 91.9261 1.49429 1.27143 0
M  V30 996 O 91.0511 0.913515 1.96173 0
M  V30 997 C 91.6461 3.37489 -0.297794 0
M  V30 998 C 90.2051 3.76332 0.0714732 0
M  V30 999 C 89.3521 2.7006 -0.629509 0
M  V30 1000 H 92.3031 1.37087 -0.799555 0
M  V30 1001 H 92.3241 3.77532 0.474349 0
M  V30 1002 H 91.8361 3.64034 -1.3454 0
M  V30 1003 H 89.9371 3.55405 1.11886 0
M  V30 1004 H 90.0501 4.78088 -0.311245 0
M  V30 1005 H 88.4141 2.54607 -0.0687867 0
M  V30 1006 H 89.1971 2.99444 -1.67894 0
M  V30 1007 N 91.6422 0.330177 1.54103 0
M  V30 1008 C 92.8882 -0.270806 2.00984 0
M  V30 1009 C 93.2212 -1.51265 1.21789 0
M  V30 1010 O 92.4962 -1.92142 0.301927 0
M  V30 1011 C 92.7792 -0.598339 3.55094 0
M  V30 1012 C 92.6322 0.654674 4.4501 0
M  V30 1013 C 93.9512 -1.41334 4.16789 0
M  V30 1014 H 91.0702 -0.0969531 0.730595 0
M  V30 1015 H 93.7122 0.448066 1.84641 0
M  V30 1016 H 91.8622 -1.21078 3.69151 0
M  V30 1017 H 93.5342 1.29285 4.42813 0
M  V30 1018 H 91.7772 1.28224 4.14416 0
M  V30 1019 H 92.4482 0.380944 5.50684 0
M  V30 1020 H 94.9242 -0.895597 4.06347 0
M  V30 1021 H 93.8002 -1.61127 5.24718 0
M  V30 1022 H 94.0612 -2.41146 3.70541 0
M  V30 1023 N 93.1203 -1.57491 0.0584922 0
M  V30 1024 C 94.3683 -1.92597 -0.612436 0
M  V30 1025 C 94.6893 -0.938162 -1.70949 0
M  V30 1026 O 93.9593 0.0158301 -1.95894 0
M  V30 1027 H 92.5393 -0.710964 -0.229214 0
M  V30 1028 H 95.2013 -1.94571 0.113218 0
M  V30 1029 H 94.2973 -2.94038 -1.04633 0
M  V30 1030 N 94.5984 0.214957 -1.56127 0
M  V30 1031 C 95.5084 1.28727 -1.96129 0
M  V30 1032 C 96.5244 1.50916 -0.866044 0
M  V30 1033 O 97.7004 1.63918 -1.17016 0
M  V30 1034 C 94.7654 2.61569 -2.27558 0
M  V30 1035 C 93.8264 2.47625 -3.50685 0
M  V30 1036 C 93.0594 3.74132 -3.80606 0
M  V30 1037 O 93.2824 4.77438 -3.12104 0
M  V30 1038 O 92.2164 3.70849 -4.74083 0
M  V30 1039 H 96.0424 0.977855 -2.87527 0
M  V30 1040 H 93.6274 0.418358 -1.43423 0
M  V30 1041 H 95.5094 3.40012 -2.48938 0
M  V30 1042 H 94.1844 2.92178 -1.39332 0
M  V30 1043 H 93.0914 1.67361 -3.34576 0
M  V30 1044 H 94.4244 2.21954 -4.39315 0
M  V30 1045 N 96.0765 1.50051 0.48192 0
M  V30 1046 C 97.0065 1.71046 1.58951 0
M  V30 1047 C 97.9875 0.559288 1.60642 0
M  V30 1048 O 99.1725 0.797243 1.77081 0
M  V30 1049 C 96.3025 1.79462 2.97339 0
M  V30 1050 C 95.2565 2.94558 3.10515 0
M  V30 1051 C 94.5825 2.88105 4.50444 0
M  V30 1052 C 95.8825 4.35227 2.88747 0
M  V30 1053 H 97.5765 2.6378 1.41635 0
M  V30 1054 H 95.1225 1.26936 0.679942 0
M  V30 1055 H 97.0755 1.92734 3.74742 0
M  V30 1056 H 95.7995 0.833412 3.15788 0
M  V30 1057 H 94.4585 2.80918 2.35543 0
M  V30 1058 H 94.1065 1.89853 4.65795 0
M  V30 1059 H 93.8065 3.65366 4.60197 0
M  V30 1060 H 95.3305 3.03412 5.29881 0
M  V30 1061 H 96.7445 4.49449 3.55905 0
M  V30 1062 H 95.1415 5.13856 3.09955 0
M  V30 1063 H 96.2115 4.48347 1.84696 0
M  V30 1064 N 97.5546 -0.734337 1.39446 0
M  V30 1065 C 98.8316 -1.48579 1.27215 0
M  V30 1066 C 99.2116 -2.1077 -0.117968 0
M  V30 1067 O 98.5596 -1.98646 -1.12924 0
M  V30 1068 C 98.7696 -2.53667 2.39696 0
M  V30 1069 C 100.118 -3.20031 2.79044 0
M  V30 1070 O 101.142 -2.6398 2.39151 0
M  V30 1071 O 100.001 -4.21455 3.47905 0
M  V30 1072 H 97.0946 -0.659816 0.49857 0
M  V30 1073 H 99.6406 -0.768106 1.51322 0
M  V30 1074 H 98.4126 -2.06096 3.32626 0
M  V30 1075 H 98.0356 -3.32994 2.17258 0
M  V30 1076 N 99.0327 -1.24633 -0.964593 0
M  V30 1077 C 100.282 -1.08188 -1.7023 0
M  V30 1078 C 100.595 0.37873 -1.91898 0
M  V30 1079 O 101.801 0.663427 -2.6327 0
M  V30 1080 C 100.257 -1.88773 -3.06419 0
M  V30 1081 C 99.8647 -3.39263 -2.92582 0
M  V30 1082 C 101.609 -1.80867 -3.84041 0
M  V30 1083 C 99.5157 -4.1218 -4.24101 0
M  V30 1084 H 98.4457 -0.401245 -0.638372 0
M  V30 1085 H 101.097 -1.48742 -1.07462 0
M  V30 1086 H 99.4787 -1.41035 -3.70034 0
M  V30 1087 H 100.653 -3.94603 -2.37961 0
M  V30 1088 H 98.9677 -3.48154 -2.28424 0
M  V30 1089 H 101.565 -2.32646 -4.81435 0
M  V30 1090 H 101.908 -0.774543 -4.09031 0
M  V30 1091 H 102.441 -2.26301 -3.27159 0
M  V30 1092 H 99.1797 -5.15965 -4.04303 0
M  V30 1093 H 98.6997 -3.61626 -4.78526 0
M  V30 1094 H 100.379 -4.19349 -4.92702 0
M  V30 1095 N 100.511 1.16574 -1.06058 0
M  V30 1096 C 101.739 1.90952 -0.796552 0
M  V30 1097 C 102.154 1.77302 0.648808 0
M  V30 1098 O 101.511 1.11605 1.44397 0
M  V30 1099 C 101.562 3.41736 -1.17894 0
M  V30 1100 O 101.283 3.54975 -2.56758 0
M  V30 1101 C 102.784 4.33169 -0.942308 0
M  V30 1102 H 100.004 0.605594 -0.288959 0
M  V30 1103 H 102.548 1.47777 -1.41358 0
M  V30 1104 H 100.703 3.82623 -0.606491 0
M  V30 1105 H 101.117 4.4846 -2.72 0
M  V30 1106 H 102.591 5.37439 -1.25952 0
M  V30 1107 H 103.068 4.3903 0.122078 0
M  V30 1108 H 103.674 3.98007 -1.49902 0
M  V30 1109 N 101.989 0.842826 1.3317 0
M  V30 1110 C 102.919 0.294028 2.31641 0
M  V30 1111 C 103.9 -0.600401 1.59151 0
M  V30 1112 O 105.085 -0.523124 1.87022 0
M  V30 1113 C 102.215 -0.528416 3.43257 0
M  V30 1114 C 101.169 0.27056 4.27144 0
M  V30 1115 C 100.495 -0.675881 5.30411 0
M  V30 1116 C 101.795 1.48981 5.00602 0
M  V30 1117 H 103.489 1.11681 2.77791 0
M  V30 1118 H 101.035 0.538478 1.33553 0
M  V30 1119 H 102.988 -0.922674 4.11175 0
M  V30 1120 H 101.712 -1.38445 2.95805 0
M  V30 1121 H 100.371 0.646427 3.60856 0
M  V30 1122 H 100.019 -1.52842 4.79216 0
M  V30 1123 H 99.7189 -0.145374 5.8742 0
M  V30 1124 H 101.243 -1.06757 6.01195 0
M  V30 1125 H 102.657 1.16849 5.61266 0
M  V30 1126 H 101.054 1.95739 5.6728 0
M  V30 1127 H 102.124 2.25746 4.29147 0
M  V30 1128 N 103.467 -1.45747 0.599634 0
M  V30 1129 C 104.697 -2.06369 0.0977132 0
M  V30 1130 C 105.105 -1.44624 -1.21985 0
M  V30 1131 O 104.448 -0.551831 -1.75216 0
M  V30 1132 C 104.51 -3.59284 -0.124673 0
M  V30 1133 C 104.174 -4.43318 1.10987 0
M  V30 1134 C 105.171 -4.78796 2.02609 0
M  V30 1135 C 102.856 -4.84194 1.33647 0
M  V30 1136 C 104.85 -5.53997 3.15224 0
M  V30 1137 C 102.537 -5.5915 2.46565 0
M  V30 1138 C 103.535 -5.93968 3.37182 0
M  V30 1139 O 103.223 -6.67405 4.48136 0
M  V30 1140 H 102.955 -0.673122 0.0623153 0
M  V30 1141 H 105.509 -1.88104 0.824981 0
M  V30 1142 H 103.739 -3.75919 -0.906745 0
M  V30 1143 H 105.428 -4.01775 -0.577201 0
M  V30 1144 H 106.194 -4.47781 1.86325 0
M  V30 1145 H 102.073 -4.56534 0.64016 0
M  V30 1146 H 105.617 -5.81091 3.85978 0
M  V30 1147 H 101.514 -5.89579 2.62805 0
M  V30 1148 H 102.282 -6.85847 4.46717 0
M  V30 1149 N 104.945 -0.338344 -1.53925 0
M  V30 1150 C 106.361 0.0137736 -1.59594 0
M  V30 1151 C 106.561 1.49186 -1.35447 0
M  V30 1152 O 105.617 2.24987 -1.14616 0
M  V30 1153 C 106.93 -0.41773 -2.97784 0
M  V30 1154 C 108.478 -0.369633 -3.1081 0
M  V30 1155 C 108.953 -0.776524 -4.51369 0
M  V30 1156 N 110.444 -0.730506 -4.57403 0
M  V30 1157 C 111.179 -1.01736 -5.64303 0
M  V30 1158 N 110.675 -1.3721 -6.79077 0
M  V30 1159 N 112.468 -0.941942 -5.54151 0
M  V30 1160 H 104.619 -1.3012 -1.67876 0
M  V30 1161 H 106.882 -0.530082 -0.78595 0
M  V30 1162 H 106.588 -1.44811 -3.20504 0
M  V30 1163 H 106.462 0.209729 -3.76616 0
M  V30 1164 H 108.849 0.651568 -2.87817 0
M  V30 1165 H 108.93 -1.03223 -2.34049 0
M  V30 1166 H 108.574 -1.79571 -4.75096 0
M  V30 1167 H 108.504 -0.0914649 -5.26521 0
M  V30 1168 H 110.995 -0.468783 -3.74981 0
M  V30 1169 H 111.308 -1.57597 -7.5656 0
M  V30 1170 H 109.653 -1.4105 -6.80536 0
M  V30 1171 H 112.844 -0.664184 -4.63364 0
M  V30 1172 H 113.017 -1.16884 -6.37371 0
M  V30 1173 N 106.423 1.57458 -0.0668435 0
M  V30 1174 C 107.7 1.8469 0.644132 0
M  V30 1175 C 108.08 0.958343 1.88093 0
M  V30 1176 O 107.428 0.0233579 2.28488 0
M  V30 1177 C 107.638 3.34767 0.986509 0
M  V30 1178 C 108.986 4.02159 1.36212 0
M  V30 1179 O 110.01 3.39484 1.07839 0
M  V30 1180 O 108.869 5.12694 1.89227 0
M  V30 1181 H 105.963 0.762816 0.319437 0
M  V30 1182 H 108.509 1.6942 -0.0973986 0
M  V30 1183 H 107.281 3.91151 0.107883 0
M  V30 1184 H 106.904 3.55281 1.78497 0
M  V30 1185 N 107.901 -0.206675 1.56239 0
M  V30 1186 C 109.178 -0.954051 1.70755 0
M  V30 1187 C 109.558 -2.01841 0.618353 0
M  V30 1188 O 108.906 -2.25444 -0.372434 0
M  V30 1189 C 109.116 -1.551 3.12642 0
M  V30 1190 C 110.464 -2.03757 3.72516 0
M  V30 1191 O 111.488 -1.64965 3.15698 0
M  V30 1192 O 110.347 -2.75103 4.72208 0
M  V30 1193 H 107.441 -0.446636 0.696021 0
M  V30 1194 H 109.987 -0.197283 1.68549 0
M  V30 1195 H 108.759 -0.783212 3.83382 0
M  V30 1196 H 108.382 -2.37291 3.19028 0
M  V30 1197 N 109.379 -1.50304 -0.473955 0
M  V30 1198 C 110.309 -1.71886 -1.58042 0
M  V30 1199 C 111.29 -0.567799 -1.60344 0
M  V30 1200 O 112.475 -0.806623 -1.76656 0
M  V30 1201 C 109.605 -1.81036 -2.96384 0
M  V30 1202 C 108.559 -2.962 -3.08949 0
M  V30 1203 C 107.885 -2.9049 -4.48909 0
M  V30 1204 C 109.185 -4.36752 -2.86434 0
M  V30 1205 H 110.879 -2.64527 -1.40234 0
M  V30 1206 H 108.425 -1.27295 -0.673201 0
M  V30 1207 H 110.378 -1.94719 -3.73714 0
M  V30 1208 H 109.102 -0.850147 -3.15341 0
M  V30 1209 H 107.761 -2.82164 -2.3405 0
M  V30 1210 H 107.409 -1.92321 -4.64781 0
M  V30 1211 H 107.109 -3.67802 -4.58253 0
M  V30 1212 H 108.633 -3.06218 -5.28264 0
M  V30 1213 H 110.047 -4.5133 -3.53517 0
M  V30 1214 H 108.444 -5.15493 -3.07225 0
M  V30 1215 H 109.514 -4.49321 -1.82316 0
M  V30 1216 N 110.857 0.726932 -1.39834 0
M  V30 1217 C 112.085 1.51613 -1.40787 0
M  V30 1218 C 112.5 1.88799 -0.00451505 0
M  V30 1219 O 111.857 1.54662 0.968809 0
M  V30 1220 C 111.908 2.79863 -2.28821 0
M  V30 1221 O 111.629 2.44253 -3.63692 0
M  V30 1222 C 113.13 3.73837 -2.38245 0
M  V30 1223 H 110.35 0.468264 -0.480593 0
M  V30 1224 H 112.894 0.897607 -1.83748 0
M  V30 1225 H 111.049 3.38027 -1.89252 0
M  V30 1226 H 111.463 3.26695 -4.1033 0
M  V30 1227 H 112.937 4.60699 -3.04073 0
M  V30 1228 H 113.414 4.16153 -1.40403 0
M  V30 1229 H 114.02 3.21589 -2.78317 0
M  V30 1230 N 112.336 1.25143 0.95797 0
M  V30 1231 C 113.582 1.09855 1.70469 0
M  V30 1232 C 113.915 -0.360187 1.90831 0
M  V30 1233 O 113.19 -1.26568 1.47685 0
M  V30 1234 C 113.473 1.8497 3.08963 0
M  V30 1235 C 113.326 3.38652 2.96032 0
M  V30 1236 C 114.645 1.63016 4.08795 0
M  V30 1237 H 111.764 0.400465 0.618706 0
M  V30 1238 H 114.406 1.53933 1.11376 0
M  V30 1239 H 112.556 1.47505 3.59409 0
M  V30 1240 H 114.228 3.85772 2.52938 0
M  V30 1241 H 112.471 3.66534 2.32025 0
M  V30 1242 H 113.142 3.8642 3.94187 0
M  V30 1243 H 115.618 1.95625 3.67247 0
M  V30 1244 H 114.494 2.18015 5.03747 0
M  V30 1245 H 114.755 0.570692 4.38401 0
M  V30 1246 N 113.814 -1.1601 1.06675 0
M  V30 1247 C 114.761 -2.20525 0.680967 0
M  V30 1248 C 115.731 -1.62904 -0.324283 0
M  V30 1249 O 116.916 -1.89615 -0.212294 0
M  V30 1250 C 114.056 -3.45013 0.0776551 0
M  V30 1251 C 113.169 -4.16863 1.13355 0
M  V30 1252 C 112.304 -5.2888 0.49597 0
M  V30 1253 C 111.343 -5.92537 1.53513 0
M  V30 1254 N 110.48 -6.96038 0.920631 0
M  V30 1255 H 115.32 -2.52876 1.57663 0
M  V30 1256 H 112.857 -1.24199 0.788223 0
M  V30 1257 H 114.815 -4.16193 -0.289704 0
M  V30 1258 H 113.445 -3.132 -0.781393 0
M  V30 1259 H 112.497 -3.44248 1.61857 0
M  V30 1260 H 113.809 -4.60294 1.92174 0
M  V30 1261 H 112.963 -6.06653 0.0758604 0
M  V30 1262 H 111.702 -4.86622 -0.324062 0
M  V30 1263 H 110.707 -5.13482 1.9651 0
M  V30 1264 H 111.932 -6.36873 2.35733 0
M  V30 1265 H 109.878 -6.55888 0.12138 0
M  V30 1266 H 109.795 -7.3786 1.64616 0
M  V30 1267 H 111.063 -7.77725 0.525795 0
M  V30 1268 N 115.292 -0.849877 -1.32721 0
M  V30 1269 C 116.52 -0.464754 -2.01613 0
M  V30 1270 C 116.935 0.937191 -1.63897 0
M  V30 1271 O 116.292 1.61081 -0.857856 0
M  V30 1272 C 116.343 -0.588638 -3.56675 0
M  V30 1273 O 116.064 -1.93535 -3.93034 0
M  V30 1274 C 117.565 -0.2019 -4.4284 0
M  V30 1275 H 114.785 -0.183215 -0.645502 0
M  V30 1276 H 117.329 -1.1455 -1.69407 0
M  V30 1277 H 115.484 0.0443159 -3.87375 0
M  V30 1278 H 115.898 -1.92871 -4.87751 0
M  V30 1279 H 117.372 -0.339599 -5.50954 0
M  V30 1280 H 117.849 0.857224 -4.30753 0
M  V30 1281 H 118.455 -0.809733 -4.17521 0
M  V30 1282 N 116.77 1.45427 -0.607355 0
M  V30 1283 C 118.047 1.9557 -0.0344566 0
M  V30 1284 C 118.427 1.54979 1.43334 0
M  V30 1285 O 117.775 0.812241 2.13576 0
M  V30 1286 C 117.985 3.48226 -0.232321 0
M  V30 1287 C 119.333 4.2445 -0.113001 0
M  V30 1288 O 120.357 3.55829 -0.162431 0
M  V30 1289 O 119.216 5.465 0.00209442 0
M  V30 1290 H 116.31 0.826222 0.0358667 0
M  V30 1291 H 118.856 1.55594 -0.6774 0
M  V30 1292 H 117.628 3.70739 -1.25174 0
M  V30 1293 H 117.251 3.95092 0.445896 0
M  V30 1294 N 118.248 0.346503 1.53744 0
M  V30 1295 C 119.525 -0.304532 1.93215 0
M  V30 1296 C 119.905 -1.67993 1.27834 0
M  V30 1297 O 119.253 -2.24411 0.430352 0
M  V30 1298 C 119.463 -0.373852 3.46992 0
M  V30 1299 C 120.811 -0.62329 4.2 0
M  V30 1300 O 121.835 -0.455847 3.53271 0
M  V30 1301 O 120.694 -0.947879 5.38217 0
M  V30 1302 H 117.788 -0.178318 0.807547 0
M  V30 1303 H 120.334 0.397895 1.64969 0
M  V30 1304 H 119.106 0.591224 3.86808 0
M  V30 1305 H 118.729 -1.12294 3.81413 0
M  V30 1306 N 119.726 -1.57421 0.075193 0
M  V30 1307 C 120.676 -2.09441 -0.901025 0
M  V30 1308 C 121.66 -1.00486 -1.25663 0
M  V30 1309 O 122.852 -1.2679 -1.23504 0
M  V30 1310 C 119.981 -2.66233 -2.16737 0
M  V30 1311 C 119.067 -3.82198 -1.83808 0
M  V30 1312 N 119.458 -4.91028 -1.21345 0
M  V30 1313 C 117.756 -3.91558 -2.13538 0
M  V30 1314 C 118.457 -5.71852 -1.06585 0
M  V30 1315 N 117.433 -5.20233 -1.57667 0
M  V30 1316 H 121.235 -2.90972 -0.413815 0
M  V30 1317 H 118.749 -1.6189 -0.128601 0
M  V30 1318 H 120.746 -3.01819 -2.87595 0
M  V30 1319 H 119.406 -1.8615 -2.66042 0
M  V30 1320 H 120.417 -5.10323 -0.88268 0
M  V30 1321 H 117.094 -3.22454 -2.65197 0
M  V30 1322 H 118.484 -6.69401 -0.578933 0
M  V30 1323 N 121.204 0.198386 -1.56346 0
M  V30 1324 C 122.114 1.2664 -1.97483 0
M  V30 1325 C 123.13 1.49989 -0.882002 0
M  V30 1326 O 124.306 1.62668 -1.18748 0
M  V30 1327 C 121.371 2.59141 -2.30319 0
M  V30 1328 C 120.432 2.43892 -3.53292 0
M  V30 1329 C 119.665 3.70074 -3.84553 0
M  V30 1330 O 119.888 4.74101 -3.1715 0
M  V30 1331 O 118.822 3.658 -4.7799 0
M  V30 1332 H 122.648 0.947304 -2.88548 0
M  V30 1333 H 120.233 0.403123 -1.43859 0
M  V30 1334 H 122.115 3.37352 -2.5253 0
M  V30 1335 H 120.79 2.90684 -1.42423 0
M  V30 1336 H 119.697 1.63803 -3.36332 0
M  V30 1337 H 121.03 2.17282 -4.41644 0
M  V30 1338 N 122.682 1.50554 0.465978 0
M  V30 1339 C 124.093 1.54599 1.04671 0
M  V30 1340 C 124.444 0.352488 1.93008 0
M  V30 1341 O 123.569 -0.534044 2.09707 0
M  V30 1342 C 124.164 2.80166 1.90505 0
M  V30 1343 C 122.723 2.86876 2.43678 0
M  V30 1344 C 121.87 2.48947 1.22151 0
M  V30 1345 H 124.821 1.56744 0.248384 0
M  V30 1346 H 124.842 2.62311 2.75633 0
M  V30 1347 H 124.354 3.67013 1.26186 0
M  V30 1348 H 122.455 2.04393 3.11536 0
M  V30 1349 H 122.568 3.89885 2.78436 0
M  V30 1350 H 120.932 2.01498 1.5579 0
M  V30 1351 H 121.715 3.38107 0.594866 0
M  V30 1352 N 124.16 -0.719506 1.40217 0
M  V30 1353 C 125.09 -1.8465 1.42922 0
M  V30 1354 C 126.071 -1.67599 0.29062 0
M  V30 1355 O 127.256 -1.87688 0.498677 0
M  V30 1356 C 124.386 -3.22565 1.28722 0
M  V30 1357 C 123.34 -3.54281 2.40144 0
M  V30 1358 C 122.666 -4.91298 2.11023 0
M  V30 1359 C 123.966 -3.55676 3.82481 0
M  V30 1360 H 125.66 -1.82644 2.37237 0
M  V30 1361 H 123.206 -0.877305 1.1419 0
M  V30 1362 H 125.159 -4.01095 1.29232 0
M  V30 1363 H 123.883 -3.25137 0.308811 0
M  V30 1364 H 122.542 -2.78088 2.38877 0
M  V30 1365 H 122.19 -4.90468 1.11582 0
M  V30 1366 H 121.89 -5.13485 2.8567 0
M  V30 1367 H 123.414 -5.72166 2.13209 0
M  V30 1368 H 124.828 -4.24254 3.85592 0
M  V30 1369 H 123.225 -3.89388 4.56614 0
M  V30 1370 H 124.295 -2.55144 4.12346 0
M  V30 1371 N 125.638 -1.25649 -0.95132 0
M  V30 1372 C 126.884 -1.10757 -1.69884 0
M  V30 1373 C 127.217 0.350061 -1.91019 0
M  V30 1374 O 126.492 1.25783 -1.48354 0
M  V30 1375 C 126.775 -1.86606 -3.07978 0
M  V30 1376 C 126.628 -3.40217 -2.94232 0
M  V30 1377 C 127.947 -1.65182 -4.07925 0
M  V30 1378 H 125.066 -0.40374 -0.616574 0
M  V30 1379 H 127.708 -1.54521 -1.10558 0
M  V30 1380 H 125.858 -1.49409 -3.58621 0
M  V30 1381 H 127.53 -3.87108 -2.50889 0
M  V30 1382 H 125.773 -3.67759 -2.30078 0
M  V30 1383 H 126.444 -3.88505 -3.92133 0
M  V30 1384 H 128.92 -1.9757 -3.66204 0
M  V30 1385 H 127.796 -2.20683 -5.02583 0
M  V30 1386 H 128.057 -0.593933 -4.38092 0
M  V30 1387 N 127.117 1.15442 -1.07289 0
M  V30 1388 C 128.064 2.20161 -0.692653 0
M  V30 1389 C 129.034 1.63073 0.31564 0
M  V30 1390 O 130.219 1.89725 0.202235 0
M  V30 1391 C 127.359 3.44967 -0.0959509 0
M  V30 1392 C 126.472 4.16256 -1.15564 0
M  V30 1393 C 125.607 5.28609 -0.524011 0
M  V30 1394 C 124.646 5.91715 -1.56653 0
M  V30 1395 N 123.783 6.9554 -0.957531 0
M  V30 1396 H 128.623 2.52037 -1.59002 0
M  V30 1397 H 126.16 1.2378 -0.794798 0
M  V30 1398 H 128.118 4.16341 0.267628 0
M  V30 1399 H 126.748 3.1361 0.764772 0
M  V30 1400 H 125.8 3.43385 -1.6368 0
M  V30 1401 H 127.112 4.59268 -1.94613 0
M  V30 1402 H 126.266 6.06604 -0.108032 0
M  V30 1403 H 125.005 4.86787 0.29825 0
M  V30 1404 H 124.01 5.12433 -1.9923 0
M  V30 1405 H 125.235 6.35614 -2.39107 0
M  V30 1406 H 123.181 6.55814 -0.156162 0
M  V30 1407 H 123.098 7.36977 -1.68526 0
M  V30 1408 H 124.366 7.77435 -0.567032 0
M  V30 1409 N 128.595 0.856903 1.32268 0
M  V30 1410 C 129.843 0.460474 1.96784 0
M  V30 1411 C 130.164 -0.987701 1.68135 0
M  V30 1412 O 129.434 -1.69058 0.989765 0
M  V30 1413 H 128.014 0.167289 0.728027 0
M  V30 1414 H 130.676 1.09383 1.61312 0
M  V30 1415 H 129.772 0.60739 3.06133 0
M  V30 1416 N 130.073 -1.45103 0.615059 0
M  V30 1417 C 131.301 -2.06553 0.11977 0
M  V30 1418 C 131.716 -1.45842 -1.19898 0
M  V30 1419 O 131.073 -0.575325 -1.73194 0
M  V30 1420 C 131.124 -3.61495 -0.018364 0
M  V30 1421 O 130.845 -4.19942 1.24822 0
M  V30 1422 C 132.346 -4.39947 -0.544237 0
M  V30 1423 H 129.566 -0.667096 0.0722739 0
M  V30 1424 H 132.11 -1.8623 0.84491 0
M  V30 1425 H 130.265 -3.81135 -0.693865 0
M  V30 1426 H 130.679 -5.13204 1.0827 0
M  V30 1427 H 132.153 -5.48838 -0.589953 0
M  V30 1428 H 132.63 -4.10255 -1.56805 0
M  V30 1429 H 133.236 -4.25188 0.0974703 0
M  V30 1430 N 131.551 -0.354651 -1.53558 0
M  V30 1431 C 132.499 0.512195 -2.26891 0
M  V30 1432 C 133.493 1.09263 -1.29452 0
M  V30 1433 O 134.699 1.03709 -1.47121 0
M  V30 1434 H 131.074 0.183878 -0.729173 0
M  V30 1435 H 133.045 -0.128202 -2.98124 0
M  V30 1436 C 131.794 1.64563 -3.06291 0
M  V30 1437 H 131.117 1.20829 -3.81104 0
M  V30 1438 H 132.557 2.22711 -3.60799 0
M  V30 1439 C 131.016 2.58158 -2.16462 0
M  V30 1440 O 131.546 3.60695 -1.76811 0
M  V30 1441 N 129.752 2.27096 -1.81317 0
M  V30 1442 H 129.299 1.43751 -2.1376 0
M  V30 1443 H 129.257 2.89975 -1.21498 0
M  V30 1444 N 133.029 1.57378 -0.0835403 0
M  V30 1445 C 134.275 1.94217 0.583733 0
M  V30 1446 C 134.608 0.964653 1.68547 0
M  V30 1447 O 133.883 -0.00422258 1.945 0
M  V30 1448 C 134.166 3.41253 1.14972 0
M  V30 1449 C 134.019 4.49768 0.0538277 0
M  V30 1450 C 135.338 3.89352 2.05166 0
M  V30 1451 H 132.457 0.706233 0.210724 0
M  V30 1452 H 135.099 1.89392 -0.1519 0
M  V30 1453 H 133.249 3.45496 1.77665 0
M  V30 1454 H 134.921 4.57641 -0.579851 0
M  V30 1455 H 133.164 4.29432 -0.614068 0
M  V30 1456 H 133.835 5.49817 0.490452 0
M  V30 1457 H 136.311 3.87189 1.52393 0
M  V30 1458 H 135.187 4.92822 2.41698 0
M  V30 1459 H 135.448 3.27973 2.96456 0
M  V30 1460 N 134.507 -0.190092 1.56449 0
M  V30 1461 C 135.918 -0.754312 1.70784 0
M  V30 1462 C 136.269 -1.83631 0.690951 0
M  V30 1463 O 135.394 -2.15868 -0.151604 0
M  V30 1464 C 135.989 -1.37503 3.09642 0
M  V30 1465 C 134.548 -1.88628 3.25725 0
M  V30 1466 C 133.695 -0.758098 2.66736 0
M  V30 1467 H 136.646 0.0350524 1.58661 0
M  V30 1468 H 136.667 -2.2445 3.0725 0
M  V30 1469 H 136.179 -0.587302 3.83631 0
M  V30 1470 H 134.28 -2.70103 2.56661 0
M  V30 1471 H 134.393 -2.04462 4.3328 0
M  V30 1472 H 132.757 -1.17369 2.26046 0
M  V30 1473 H 133.54 0.0174705 3.43296 0
M  V30 1474 N 135.985 -1.50799 -0.457987 0
M  V30 1475 C 137.232 -1.62442 -1.20908 0
M  V30 1476 C 137.56 -0.330865 -1.91665 0
M  V30 1477 O 136.815 0.68401 -1.83357 0
M  V30 1478 C 137.114 -2.76358 -2.2663 0
M  V30 1479 C 136.78 -4.16378 -1.73033 0
M  V30 1480 C 135.442 -4.54473 -1.58138 0
M  V30 1481 C 137.794 -5.03836 -1.33413 0
M  V30 1482 C 135.122 -5.77754 -1.02065 0
M  V30 1483 C 137.474 -6.27676 -0.78778 0
M  V30 1484 C 136.138 -6.64562 -0.625561 0
M  V30 1485 H 135.408 -0.594417 -0.442435 0
M  V30 1486 H 138.055 -1.84772 -0.503136 0
M  V30 1487 H 136.36 -2.48167 -3.03184 0
M  V30 1488 H 138.057 -2.82568 -2.84528 0
M  V30 1489 H 134.647 -3.86331 -1.85598 0
M  V30 1490 H 138.831 -4.75026 -1.4375 0
M  V30 1491 H 134.087 -6.04997 -0.882547 0
M  V30 1492 H 138.261 -6.94797 -0.472177 0
M  V30 1493 H 135.888 -7.59965 -0.188926 0
M  V30 1494 N 137.463 0.71206 -1.40597 0
M  V30 1495 C 138.874 1.29135 -1.34837 0
M  V30 1496 C 139.225 1.96186 -0.0235395 0
M  V30 1497 O 138.35 1.97768 0.878444 0
M  V30 1498 C 138.945 2.34827 -2.44217 0
M  V30 1499 C 137.504 2.88371 -2.41907 0
M  V30 1500 C 136.651 1.62202 -2.24913 0
M  V30 1501 H 139.602 0.507944 -1.50352 0
M  V30 1502 H 139.623 3.15749 -2.12327 0
M  V30 1503 H 139.135 1.85996 -3.40627 0
M  V30 1504 H 137.236 3.41422 -1.49204 0
M  V30 1505 H 137.349 3.39925 -3.37621 0
M  V30 1506 H 135.713 1.874 -1.72492 0
M  V30 1507 H 136.496 1.15391 -3.23326 0
M  V30 1508 N 138.941 1.26152 0.944643 0
M  V30 1509 C 140.187 1.11657 1.69294 0
M  V30 1510 C 140.52 -0.339926 1.91202 0
M  V30 1511 O 139.795 -1.24994 1.49019 0
M  V30 1512 C 140.078 1.88236 3.06984 0
M  V30 1513 C 139.931 3.41772 2.92424 0
M  V30 1514 C 141.25 1.67343 4.07043 0
M  V30 1515 H 138.369 0.407004 0.614424 0
M  V30 1516 H 141.011 1.55106 1.09737 0
M  V30 1517 H 139.161 1.51308 3.57824 0
M  V30 1518 H 140.833 3.88433 2.48832 0
M  V30 1519 H 139.076 3.68974 2.28124 0
M  V30 1520 H 139.747 3.90579 3.90067 0
M  V30 1521 H 142.223 1.99509 3.65151 0
M  V30 1522 H 141.099 2.23346 5.01406 0
M  V30 1523 H 141.36 0.617158 4.37771 0
M  V30 1524 N 140.419 -1.14872 1.07899 0
M  V30 1525 C 141.647 -1.89661 0.82683 0
M  V30 1526 C 142.062 -1.78312 -0.620519 0
M  V30 1527 O 141.419 -1.13888 -1.42604 0
M  V30 1528 C 141.47 -3.39817 1.23316 0
M  V30 1529 O 141.191 -3.50845 2.62372 0
M  V30 1530 C 142.692 -4.31615 1.0111 0
M  V30 1531 H 139.912 -0.60092 0.298557 0
M  V30 1532 H 142.456 -1.4551 1.43691 0
M  V30 1533 H 140.611 -3.8161 0.667286 0
M  V30 1534 H 141.025 -4.44076 2.79101 0
M  V30 1535 H 142.499 -5.35367 1.34486 0
M  V30 1536 H 142.976 -4.39169 -0.0522168 0
M  V30 1537 H 143.582 -3.95572 1.56215 0
M  V30 1538 N 141.898 -0.863906 -1.31812 0
M  V30 1539 C 142.808 -0.318461 -2.32428 0
M  V30 1540 C 143.824 0.568496 -1.64451 0
M  V30 1541 O 145 0.46666 -1.95919 0
M  V30 1542 C 142.065 0.476355 -3.43412 0
M  V30 1543 C 141.126 -0.43784 -4.27061 0
M  V30 1544 C 140.359 0.319138 -5.32745 0
M  V30 1545 O 140.582 1.54799 -5.48993 0
M  V30 1546 O 139.516 -0.319861 -6.01049 0
M  V30 1547 H 143.342 -1.15229 -2.80991 0
M  V30 1548 H 140.927 -0.627103 -1.35602 0
M  V30 1549 H 142.809 0.927156 -4.11074 0
M  V30 1550 H 141.484 1.28683 -2.97022 0
M  V30 1551 H 140.391 -0.937013 -3.62175 0
M  V30 1552 H 141.724 -1.21375 -4.77 0
M  V30 1553 N 143.376 1.44774 -0.622745 0
M  V30 1554 C 144.792 1.56986 -0.287652 0
M  V30 1555 C 144.992 1.61167 1.20944 0
M  V30 1556 O 144.048 1.55015 1.99315 0
M  V30 1557 C 145.361 2.84551 -0.972188 0
M  V30 1558 C 146.909 2.9825 -0.949536 0
M  V30 1559 C 147.384 4.28605 -1.61437 0
M  V30 1560 N 148.875 4.35399 -1.58057 0
M  V30 1561 C 149.61 5.34964 -2.064 0
M  V30 1562 N 149.106 6.40981 -2.62897 0
M  V30 1563 N 150.899 5.26419 -1.97078 0
M  V30 1564 H 143.05 1.40304 -1.59463 0
M  V30 1565 H 145.313 0.671794 -0.668878 0
M  V30 1566 H 145.019 2.87417 -2.02693 0
M  V30 1567 H 144.893 3.73807 -0.504771 0
M  V30 1568 H 147.28 2.94941 0.0967067 0
M  V30 1569 H 147.361 2.10364 -1.45536 0
M  V30 1570 H 147.005 4.32672 -2.66002 0
M  V30 1571 H 146.935 5.15334 -1.08344 0
M  V30 1572 H 149.426 3.59397 -1.16801 0
M  V30 1573 H 149.739 7.13225 -2.97539 0
M  V30 1574 H 148.084 6.4169 -2.66943 0
M  V30 1575 H 151.275 4.42504 -1.52669 0
M  V30 1576 H 151.448 6.03861 -2.35066 0
M  V30 1577 N 144.854 0.36279 1.53368 0
M  V30 1578 C 145.802 -0.500155 2.27159 0
M  V30 1579 C 146.796 -1.08575 1.3003 0
M  V30 1580 O 148.002 -1.02927 1.47668 0
M  V30 1581 H 144.377 -0.180009 0.730138 0
M  V30 1582 H 146.348 0.14401 2.98052 0
M  V30 1583 C 145.097 -1.62937 3.07159 0
M  V30 1584 H 144.42 -1.18806 3.8174 0
M  V30 1585 H 145.86 -2.20795 3.61975 0
M  V30 1586 C 144.319 -2.57007 2.17829 0
M  V30 1587 O 144.849 -3.59752 1.78721 0
M  V30 1588 N 143.055 -2.26131 1.82518 0
M  V30 1589 H 142.602 -1.42616 2.14519 0
M  V30 1590 H 142.56 -2.89327 1.23034 0
M  V30 1591 N 146.332 -1.57332 0.0918853 0
M  V30 1592 C 147.578 -1.94524 -0.573425 0
M  V30 1593 C 147.911 -0.973578 -1.68033 0
M  V30 1594 O 147.186 -0.00609226 -1.94499 0
M  V30 1595 C 147.469 -3.41858 -1.13161 0
M  V30 1596 C 147.322 -4.4979 -0.0299747 0
M  V30 1597 C 148.641 -3.90435 -2.03098 0
M  V30 1598 H 145.76 -0.70734 -0.206975 0
M  V30 1599 H 148.402 -1.89309 0.161942 0
M  V30 1600 H 146.552 -3.46433 -1.7583 0
M  V30 1601 H 148.224 -4.57327 0.604112 0
M  V30 1602 H 146.467 -4.291 0.636833 0
M  V30 1603 H 147.138 -5.50069 -0.461287 0
M  V30 1604 H 149.614 -3.87992 -1.50338 0
M  V30 1605 H 148.49 -4.94097 -2.39081 0
M  V30 1606 H 148.751 -3.29541 -2.94712 0
M  V30 1607 N 147.81 0.181792 -1.56548 0
M  V30 1608 C 149.059 0.898348 -1.8059 0
M  V30 1609 C 149.372 1.83862 -0.667379 0
M  V30 1610 O 150.578 2.59678 -0.792446 0
M  V30 1611 C 149.034 1.64791 -3.19956 0
M  V30 1612 C 148.642 0.751789 -4.41647 0
M  V30 1613 C 150.386 2.35331 -3.53298 0
M  V30 1614 C 148.293 1.50098 -5.72035 0
M  V30 1615 H 147.223 0.339194 -0.673397 0
M  V30 1616 H 149.874 0.151413 -1.82874 0
M  V30 1617 H 148.256 2.43921 -3.11959 0
M  V30 1618 H 149.43 -0.0018076 -4.608 0
M  V30 1619 H 147.745 0.156562 -4.16106 0
M  V30 1620 H 150.342 2.91958 -4.47956 0
M  V30 1621 H 150.685 3.10164 -2.77676 0
M  V30 1622 H 151.218 1.63154 -3.62803 0
M  V30 1623 H 147.957 0.795175 -6.50659 0
M  V30 1624 H 147.477 2.22817 -5.56878 0
M  V30 1625 H 149.156 2.05125 -6.13622 0
M  V30 1626 N 149.288 1.51039 0.449983 0
M  V30 1627 C 150.218 1.74379 1.55288 0
M  V30 1628 C 151.199 0.593236 1.5942 0
M  V30 1629 O 152.384 0.834625 1.7535 0
M  V30 1630 C 149.514 1.85728 2.93466 0
M  V30 1631 C 148.468 3.01078 3.04197 0
M  V30 1632 C 147.794 2.97595 4.44231 0
M  V30 1633 C 149.094 4.41254 2.7945 0
M  V30 1634 H 150.788 2.66725 1.36008 0
M  V30 1635 H 148.334 1.2835 0.652864 0
M  V30 1636 H 150.287 2.0064 3.70569 0
M  V30 1637 H 149.011 0.900207 3.13949 0
M  V30 1638 H 147.67 2.85851 2.29531 0
M  V30 1639 H 147.318 1.99691 4.61663 0
M  V30 1640 H 147.018 3.75046 4.52343 0
M  V30 1641 H 148.542 3.14583 5.23326 0
M  V30 1642 H 149.956 4.56897 3.46292 0
M  V30 1643 H 148.353 5.20315 2.98985 0
M  V30 1644 H 149.423 4.52164 1.75144 0
M  V30 1645 N 150.766 -0.704594 1.40972 0
M  V30 1646 C 152.012 -1.46675 1.40051 0
M  V30 1647 C 152.345 -1.94199 0.00641102 0
M  V30 1648 O 151.62 -1.68916 -0.964235 0
M  V30 1649 C 151.903 -2.68505 2.39952 0
M  V30 1650 C 151.756 -2.26805 3.88432 0
M  V30 1651 C 153.075 -3.70686 2.37233 0
M  V30 1652 H 150.194 -0.532015 0.510028 0
M  V30 1653 H 152.836 -0.803255 1.72185 0
M  V30 1654 H 150.986 -3.25114 2.1268 0
M  V30 1655 H 152.658 -1.75592 4.26574 0
M  V30 1656 H 150.901 -1.58685 4.03734 0
M  V30 1657 H 151.572 -3.14181 4.53866 0
M  V30 1658 H 154.048 -3.23731 2.61415 0
M  V30 1659 H 152.924 -4.53553 3.09162 0
M  V30 1660 H 153.185 -4.19754 1.38777 0
M  V30 1661 N 152.244 -1.26651 -0.937939 0
M  V30 1662 C 153.521 -1.0313 -1.66204 0
M  V30 1663 C 153.901 0.437256 -2.06522 0
M  V30 1664 O 153.249 1.41831 -1.79154 0
M  V30 1665 C 153.459 -1.98314 -2.87181 0
M  V30 1666 C 154.807 -2.27107 -3.58758 0
M  V30 1667 O 155.831 -1.96205 -2.97291 0
M  V30 1668 O 154.69 -2.79736 -4.69479 0
M  V30 1669 H 151.784 -0.392384 -0.727986 0
M  V30 1670 H 154.33 -1.37874 -0.989382 0
M  V30 1671 H 153.102 -2.97399 -2.54302 0
M  V30 1672 H 152.725 -1.64068 -3.6217 0
M  V30 1673 N 153.722 1.14298 -1.08507 0
M  V30 1674 C 154.999 1.81544 -0.728088 0
M  V30 1675 C 155.379 1.95838 0.78808 0
M  V30 1676 O 154.727 1.51904 1.70697 0
M  V30 1677 C 154.937 3.17169 -1.45619 0
M  V30 1678 C 156.285 3.9265 -1.61591 0
M  V30 1679 O 157.309 3.26762 -1.41793 0
M  V30 1680 O 156.168 5.10807 -1.94263 0
M  V30 1681 H 153.262 0.78491 -0.260471 0
M  V30 1682 H 155.808 1.21307 -1.18671 0
M  V30 1683 H 154.58 3.01934 -2.489 0
M  V30 1684 H 154.203 3.851 -0.989124 0
M  V30 1685 N 155.201 0.870884 1.31352 0
M  V30 1686 C 156.447 0.482987 1.96965 0
M  V30 1687 C 156.78 -0.962462 1.68672 0
M  V30 1688 O 156.055 -1.6779 0.98371 0
M  V30 1689 C 156.338 0.741752 3.52378 0
M  V30 1690 C 156.191 2.2368 3.9024 0
M  V30 1691 C 157.51 0.208838 4.39604 0
M  V30 1692 H 154.629 0.176955 0.715441 0
M  V30 1693 H 157.271 1.09229 1.55464 0
M  V30 1694 H 155.421 0.223149 3.87859 0
M  V30 1695 H 157.093 2.82273 3.64856 0
M  V30 1696 H 155.336 2.70901 3.38814 0
M  V30 1697 H 156.007 2.3685 4.98604 0
M  V30 1698 H 158.483 0.652529 4.10952 0
M  V30 1699 H 157.359 0.419336 5.47296 0
M  V30 1700 H 157.62 -0.889275 4.33064 0
M  V30 1701 N 156.679 -1.44442 0.630414 0
M  V30 1702 C 157.609 -2.33418 -0.0618083 0
M  V30 1703 C 158.59 -1.48165 -0.835541 0
M  V30 1704 O 159.775 -1.76886 -0.801564 0
M  V30 1705 C 156.905 -3.31222 -1.04449 0
M  V30 1706 C 155.859 -4.26288 -0.382436 0
M  V30 1707 C 155.185 -5.13954 -1.47497 0
M  V30 1708 C 156.485 -5.1744 0.710865 0
M  V30 1709 H 158.179 -2.91548 0.681184 0
M  V30 1710 H 155.725 -1.40191 0.329026 0
M  V30 1711 H 157.678 -3.92351 -1.53748 0
M  V30 1712 H 156.402 -2.71299 -1.81836 0
M  V30 1713 H 155.061 -3.6649 0.0899054 0
M  V30 1714 H 154.709 -4.50385 -2.2397 0
M  V30 1715 H 154.409 -5.7837 -1.03737 0
M  V30 1716 H 155.933 -5.77955 -1.96979 0
M  V30 1717 H 157.347 -5.72509 0.300996 0
M  V30 1718 H 155.744 -5.90455 1.07156 0
M  V30 1719 H 156.814 -4.58496 1.57829 0
M  V30 1720 N 158.157 -0.370918 -1.53173 0
M  V30 1721 C 159.404 0.217102 -2.01333 0
M  V30 1722 C 159.732 1.48338 -1.25802 0
M  V30 1723 O 158.987 1.92698 -0.34146 0
M  V30 1724 C 159.286 0.549696 -3.53147 0
M  V30 1725 C 158.952 -0.622872 -4.46577 0
M  V30 1726 C 157.614 -0.944595 -4.71838 0
M  V30 1727 C 159.966 -1.40819 -5.01816 0
M  V30 1728 C 157.294 -2.05351 -5.49589 0
M  V30 1729 C 159.646 -2.50757 -5.80778 0
M  V30 1730 C 158.31 -2.83458 -6.04324 0
M  V30 1731 H 157.58 0.0794431 -0.736729 0
M  V30 1732 H 160.227 -0.504481 -1.84736 0
M  V30 1733 H 158.532 1.35237 -3.6772 0
M  V30 1734 H 160.229 1.017 -3.87889 0
M  V30 1735 H 156.819 -0.36209 -4.27068 0
M  V30 1736 H 161.003 -1.17289 -4.82242 0
M  V30 1737 H 156.259 -2.3108 -5.6605 0
M  V30 1738 H 160.433 -3.12022 -6.22588 0
M  V30 1739 H 158.06 -3.69508 -6.64355 0
M  V30 1740 N 159.635 1.57281 -0.100228 0
M  V30 1741 C 160.863 1.98879 0.570509 0
M  V30 1742 C 161.278 0.979476 1.61405 0
M  V30 1743 O 160.635 -0.0302288 1.82475 0
M  V30 1744 C 160.686 3.4052 1.2136 0
M  V30 1745 O 160.407 4.37588 0.211786 0
M  V30 1746 C 161.908 3.97149 1.96945 0
M  V30 1747 H 159.128 0.653428 0.152555 0
M  V30 1748 H 161.672 2.03697 -0.18103 0
M  V30 1749 H 159.827 3.367 1.91603 0
M  V30 1750 H 160.241 5.20118 0.676607 0
M  V30 1751 H 161.715 4.98393 2.37294 0
M  V30 1752 H 162.192 3.3525 2.83733 0
M  V30 1753 H 162.798 4.04458 1.31506 0
M  V30 1754 N 161.113 -0.173488 1.56642 0
M  V30 1755 C 162.361 -0.888706 1.81512 0
M  V30 1756 C 162.682 -1.82875 0.676872 0
M  V30 1757 O 161.952 -1.93536 -0.303414 0
M  V30 1758 H 160.532 -0.331164 0.669582 0
M  V30 1759 H 163.194 -0.173823 1.94123 0
M  V30 1760 H 162.29 -1.46691 2.75478 0
M  V30 1761 N 162.591 -1.51276 -0.441967 0
M  V30 1762 C 164.007 -1.39349 -0.778083 0
M  V30 1763 C 164.207 -0.472212 -1.95889 0
M  V30 1764 O 163.263 0.0743551 -2.5239 0
M  V30 1765 C 164.576 -2.81292 -1.0628 0
M  V30 1766 C 166.124 -2.9041 -1.16751 0
M  V30 1767 C 166.599 -4.33251 -1.48519 0
M  V30 1768 N 168.09 -4.36336 -1.55453 0
M  V30 1769 C 168.825 -5.43885 -1.81596 0
M  V30 1770 N 168.321 -6.61601 -2.05562 0
M  V30 1771 N 170.114 -5.3136 -1.8334 0
M  V30 1772 H 162.265 -2.09729 0.335774 0
M  V30 1773 H 164.528 -0.943925 0.0878028 0
M  V30 1774 H 164.234 -3.50678 -0.267905 0
M  V30 1775 H 164.108 -3.20334 -1.99163 0
M  V30 1776 H 166.495 -2.21225 -1.95304 0
M  V30 1777 H 166.576 -2.54871 -0.217801 0
M  V30 1778 H 166.22 -5.02984 -0.704958 0
M  V30 1779 H 166.15 -4.66299 -2.44689 0
M  V30 1780 H 168.641 -3.51466 -1.38853 0
M  V30 1781 H 168.954 -7.39361 -2.24867 0
M  V30 1782 H 167.299 -6.64725 -2.02894 0
M  V30 1783 H 170.49 -4.38382 -1.64132 0
M  V30 1784 H 170.663 -6.15258 -2.03377 0
M  V30 1785 N 164.069 0.697108 -1.41344 0
M  V30 1786 C 165.297 1.48593 -1.43972 0
M  V30 1787 C 165.712 1.88747 -0.0445612 0
M  V30 1788 O 165.069 1.56682 0.935785 0
M  V30 1789 C 165.12 2.74946 -2.34706 0
M  V30 1790 O 164.841 2.36484 -3.68791 0
M  V30 1791 C 166.342 3.687 -2.46121 0
M  V30 1792 H 163.562 0.457964 -0.490418 0
M  V30 1793 H 166.106 0.858429 -1.8561 0
M  V30 1794 H 164.261 3.33937 -1.9638 0
M  V30 1795 H 164.675 3.17918 -4.17167 0
M  V30 1796 H 166.149 4.54145 -3.13777 0
M  V30 1797 H 166.626 4.13081 -1.49199 0
M  V30 1798 H 167.232 3.15613 -2.85076 0
M  V30 1799 N 165.547 1.27147 0.931209 0
M  V30 1800 C 166.793 1.13446 1.68101 0
M  V30 1801 C 167.126 -0.319628 1.91552 0
M  V30 1802 O 166.401 -1.23407 1.50336 0
M  V30 1803 C 166.684 1.91482 3.0497 0
M  V30 1804 C 166.537 3.44855 2.88782 0
M  V30 1805 C 167.856 1.71651 4.05246 0
M  V30 1806 H 164.975 0.413498 0.610072 0
M  V30 1807 H 167.617 1.56261 1.08086 0
M  V30 1808 H 165.767 1.55095 3.56199 0
M  V30 1809 H 167.439 3.9105 2.44698 0
M  V30 1810 H 165.682 3.71373 2.24198 0
M  V30 1811 H 166.353 3.94694 3.85902 0
M  V30 1812 H 168.829 2.0337 3.63015 0
M  V30 1813 H 167.705 2.28651 4.99009 0
M  V30 1814 H 167.966 0.663555 4.37092 0
M  V30 1815 N 167.025 -1.13721 1.09112 0
M  V30 1816 C 168.441 -1.36914 0.820174 0
M  V30 1817 C 168.641 -1.93356 -0.567079 0
M  V30 1818 O 167.697 -2.15093 -1.32255 0
M  V30 1819 C 169.01 -2.3235 1.90877 0
M  V30 1820 C 170.558 -2.45973 1.93562 0
M  V30 1821 C 171.033 -3.44714 3.01556 0
M  V30 1822 N 172.524 -3.52263 3.00775 0
M  V30 1823 C 173.259 -4.28536 3.80978 0
M  V30 1824 N 172.755 -5.07991 4.71081 0
M  V30 1825 N 174.548 -4.23804 3.69251 0
M  V30 1826 H 166.699 -0.754348 1.98553 0
M  V30 1827 H 168.962 -0.3944 0.862063 0
M  V30 1828 H 168.668 -1.98027 2.90651 0
M  V30 1829 H 168.542 -3.32332 1.78424 0
M  V30 1830 H 170.929 -2.79584 0.944286 0
M  V30 1831 H 171.01 -1.45926 2.10093 0
M  V30 1832 H 170.654 -3.11835 4.00901 0
M  V30 1833 H 170.584 -4.44558 2.82269 0
M  V30 1834 H 173.075 -2.95567 2.35475 0
M  V30 1835 H 173.388 -5.63487 5.28869 0
M  V30 1836 H 171.733 -5.07235 4.75119 0
M  V30 1837 H 174.924 -3.60806 2.98222 0
M  V30 1838 H 175.097 -4.82995 4.31995 0
M  V30 1839 N 168.503 -0.877838 -1.30888 0
M  V30 1840 C 169.466 -0.344265 -2.266 0
M  V30 1841 C 170.466 0.50922 -1.52524 0
M  V30 1842 O 171.656 0.317398 -1.71284 0
M  V30 1843 C 168.788 0.510198 -3.37061 0
M  V30 1844 H 169.981 -1.1893 -2.7531 0
M  V30 1845 H 167.534 -0.654088 -1.41956 0
M  V30 1846 H 168.269 1.37612 -2.93655 0
M  V30 1847 H 168.054 -0.101047 -3.9197 0
M  V30 1848 H 169.544 0.875537 -4.08319 0
M  V30 1849 N 169.982 1.44106 -0.638065 0
M  V30 1850 C 170.945 2.29138 0.0531013 0
M  V30 1851 C 171.945 1.41409 0.765506 0
M  V30 1852 O 173.135 1.63206 0.609046 0
M  V30 1853 C 170.267 3.23144 1.08584 0
M  V30 1854 H 171.46 2.91739 -0.694883 0
M  V30 1855 H 169.013 1.51134 -0.398538 0
M  V30 1856 H 169.748 2.65408 1.86357 0
M  V30 1857 H 169.533 3.87804 0.578852 0
M  V30 1858 H 171.023 3.87004 1.56899 0
M  V30 1859 N 171.46 0.379036 1.52974 0
M  V30 1860 C 172.393 -0.504932 2.22544 0
M  V30 1861 C 173.371 -1.0723 1.22231 0
M  V30 1862 O 174.555 -1.12589 1.51182 0
M  V30 1863 C 171.682 -1.69794 2.93066 0
M  V30 1864 C 170.728 -1.25678 4.07563 0
M  V30 1865 S 171.561 -0.246852 5.34931 0
M  V30 1866 C 172.717 -1.44588 6.08971 0
M  V30 1867 H 172.95 0.0858666 2.97176 0
M  V30 1868 H 170.483 0.163183 1.53535 0
M  V30 1869 H 172.441 -2.38219 3.34308 0
M  V30 1870 H 171.102 -2.26002 2.18133 0
M  V30 1871 H 170.295 -2.14725 4.5597 0
M  V30 1872 H 169.897 -0.651584 3.6828 0
M  V30 1873 H 172.189 -2.37469 6.34519 0
M  V30 1874 H 173.132 -1.00292 7.00962 0
M  V30 1875 H 173.54 -1.65804 5.39601 0
M  V30 1876 N 172.938 -1.57226 0.108567 0
M  V30 1877 C 174.215 -1.86333 -0.594939 0
M  V30 1878 C 174.595 -1.00788 -1.85486 0
M  V30 1879 O 173.943 -0.0839293 -2.28346 0
M  V30 1880 C 174.153 -3.37265 -0.897405 0
M  V30 1881 C 175.501 -4.05629 -1.25501 0
M  V30 1882 O 176.525 -3.42224 -0.987998 0
M  V30 1883 O 175.384 -5.17531 -1.75567 0
M  V30 1884 H 172.478 -0.771018 -0.2991 0
M  V30 1885 H 175.024 -1.69102 0.142283 0
M  V30 1886 H 173.796 -3.913 -0.00413806 0
M  V30 1887 H 173.419 -3.59889 -1.69014 0
M  V30 1888 N 174.416 0.165178 -1.56732 0
M  V30 1889 C 175.379 1.18822 -1.95995 0
M  V30 1890 C 176.379 1.3685 -0.84431 0
M  V30 1891 O 177.569 1.34152 -1.11126 0
M  V30 1892 C 174.701 2.5521 -2.26011 0
M  V30 1893 H 175.894 0.851825 -2.87548 0
M  V30 1894 H 173.447 0.407857 -1.50885 0
M  V30 1895 H 174.182 2.93852 -1.37191 0
M  V30 1896 H 173.967 2.43489 -3.07336 0
M  V30 1897 H 175.457 3.28927 -2.57288 0
M  V30 1898 N 175.894 1.51508 0.433938 0
M  V30 1899 C 177.14 1.64588 1.18484 0
M  V30 1900 C 177.473 0.362666 1.90784 0
M  V30 1901 O 176.748 -0.637892 1.83742 0
M  V30 1902 C 177.031 2.85149 2.19913 0
M  V30 1903 C 176.884 4.23456 1.51674 0
M  V30 1904 C 178.203 3.01227 3.20858 0
M  V30 1905 H 175.322 0.598994 0.429389 0
M  V30 1906 H 177.964 1.84002 0.473647 0
M  V30 1907 H 176.114 2.68729 2.80566 0
M  V30 1908 H 177.786 4.51552 0.943322 0
M  V30 1909 H 176.029 4.25998 0.819035 0
M  V30 1910 H 176.7 5.03812 2.2556 0
M  V30 1911 H 179.176 3.16382 2.70263 0
M  V30 1912 H 178.052 3.87141 3.89118 0
M  V30 1913 H 178.313 2.13447 3.8716 0
M  V30 1914 N 177.372 -0.689602 1.41712 0
M  V30 1915 C 178.305 -1.81403 1.3845 0
M  V30 1916 C 179.283 -1.60653 0.250874 0
M  V30 1917 O 180.467 -1.83323 0.43874 0
M  V30 1918 C 177.594 -3.18176 1.1611 0
M  V30 1919 C 176.64 -3.57705 2.3227 0
M  V30 1920 S 177.473 -3.61827 3.94767 0
M  V30 1921 C 178.629 -5.01318 3.74742 0
M  V30 1922 H 178.862 -1.83893 2.33603 0
M  V30 1923 H 176.395 -0.858878 1.28307 0
M  V30 1924 H 178.353 -3.97132 1.03907 0
M  V30 1925 H 177.014 -3.13288 0.225668 0
M  V30 1926 H 176.207 -4.57082 2.12349 0
M  V30 1927 H 175.809 -2.86073 2.40911 0
M  V30 1928 H 178.101 -5.88986 3.34817 0
M  V30 1929 H 179.044 -5.26283 4.73743 0
M  V30 1930 H 179.452 -4.73138 3.07898 0
M  V30 1931 N 178.85 -1.27639 -0.924453 0
M  V30 1932 C 180.127 -1.04887 -1.651 0
M  V30 1933 C 180.507 0.415327 -2.06974 0
M  V30 1934 O 179.855 1.39923 -1.80648 0
M  V30 1935 C 180.065 -2.01348 -2.85061 0
M  V30 1936 C 181.413 -2.30899 -3.56329 0
M  V30 1937 O 182.437 -1.99348 -2.95193 0
M  V30 1938 O 181.296 -2.84699 -4.66485 0
M  V30 1939 H 178.39 -0.400083 -0.723784 0
M  V30 1940 H 180.936 -1.38916 -0.974703 0
M  V30 1941 H 179.708 -3.0008 -2.51133 0
M  V30 1942 H 179.331 -1.679 -3.6041 0
M  V30 1943 N 180.328 1.1314 -1.09713 0
M  V30 1944 C 181.258 2.20748 -0.761102 0
M  V30 1945 C 182.239 1.68061 0.262566 0
M  V30 1946 O 183.424 1.93765 0.129977 0
M  V30 1947 C 180.554 3.46812 -0.184054 0
M  V30 1948 C 179.508 4.12606 -1.13757 0
M  V30 1949 C 178.834 5.33031 -0.422083 0
M  V30 1950 C 180.134 4.59603 -2.48118 0
M  V30 1951 H 181.828 2.49113 -1.66082 0
M  V30 1952 H 179.374 1.19734 -0.799987 0
M  V30 1953 H 181.327 4.21353 0.0631215 0
M  V30 1954 H 180.051 3.17851 0.750868 0
M  V30 1955 H 178.71 3.40036 -1.37007 0
M  V30 1956 H 178.358 5.00335 0.517072 0
M  V30 1957 H 178.058 5.77999 -1.05788 0
M  V30 1958 H 179.582 6.10325 -0.183277 0
M  V30 1959 H 180.996 5.25552 -2.29059 0
M  V30 1960 H 179.393 5.15321 -3.07514 0
M  V30 1961 H 180.463 3.73971 -3.08665 0
M  V30 1962 N 181.806 0.884767 1.30421 0
M  V30 1963 C 183.054 0.502112 1.95763 0
M  V30 1964 C 183.375 -0.951815 1.70192 0
M  V30 1965 O 182.645 -1.6692 1.0254 0
M  V30 1966 H 181.225 0.182694 0.724315 0
M  V30 1967 H 183.887 1.1278 1.58955 0
M  V30 1968 H 182.983 0.672188 3.04775 0
M  V30 1969 N 183.284 -1.43765 0.645699 0
M  V30 1970 C 184.7 -1.56509 0.312591 0
M  V30 1971 C 184.9 -1.6307 -1.18365 0
M  V30 1972 O 183.956 -1.58167 -1.96824 0
M  V30 1973 C 185.269 -2.82968 1.01733 0
M  V30 1974 C 186.817 -2.96701 0.996865 0
M  V30 1975 C 187.292 -4.25982 1.68236 0
M  V30 1976 N 188.783 -4.32829 1.64964 0
M  V30 1977 C 189.518 -5.31613 2.14885 0
M  V30 1978 N 189.014 -6.36718 2.73061 0
M  V30 1979 N 190.807 -5.23217 2.05428 0
M  V30 1980 H 182.958 -1.3775 1.61675 0
M  V30 1981 H 185.221 -0.661067 0.679481 0
M  V30 1982 H 184.927 -2.84156 2.0724 0
M  V30 1983 H 184.801 -3.72957 0.564177 0
M  V30 1984 H 187.188 -2.95058 -0.0497719 0
M  V30 1985 H 187.269 -2.08022 1.48865 0
M  V30 1986 H 186.913 -4.28386 2.72852 0
M  V30 1987 H 186.843 -5.13545 1.16529 0
M  V30 1988 H 189.334 -3.57493 1.22503 0
M  V30 1989 H 189.647 -7.08401 3.08848 0
M  V30 1990 H 187.992 -6.37362 2.77118 0
M  V30 1991 H 191.183 -4.40019 1.59689 0
M  V30 1992 H 191.356 -6.00045 2.44643 0
M  V30 1993 N 184.763 -0.387143 -1.52771 0
M  V30 1994 C 186.174 0.0873634 -1.86495 0
M  V30 1995 C 186.525 1.46336 -1.30691 0
M  V30 1996 O 185.65 2.068 -0.637409 0
M  V30 1997 C 186.245 0.165305 -3.38396 0
M  V30 1998 C 184.804 0.584101 -3.7184 0
M  V30 1999 C 183.951 -0.255279 -2.76122 0
M  V30 2000 H 186.902 -0.605104 -1.46711 0
M  V30 2001 H 186.923 0.984848 -3.67534 0
M  V30 2002 H 186.435 -0.836301 -3.78982 0
M  V30 2003 H 184.536 1.59315 -3.36823 0
M  V30 2004 H 184.649 0.343749 -4.77865 0
M  V30 2005 H 183.013 0.279126 -2.53166 0
M  V30 2006 H 183.796 -1.25482 -3.19545 0
M  V30 2007 N 186.241 1.57166 -0.116904 0
M  V30 2008 C 187.204 2.14039 0.819742 0
M  V30 2009 C 188.204 1.07477 1.19605 0
M  V30 2010 O 189.394 1.33263 1.1219 0
M  V30 2011 C 186.526 2.67891 2.10826 0
M  V30 2012 H 187.719 2.98128 0.325511 0
M  V30 2013 H 185.272 1.55739 0.132312 0
M  V30 2014 H 186.007 1.87384 2.64685 0
M  V30 2015 H 185.792 3.45823 1.84793 0
M  V30 2016 H 187.282 3.11809 2.77785 0
M  V30 2017 N 187.719 -0.156864 1.56817 0
M  V30 2018 C 189.135 -0.50916 1.5126 0
M  V30 2019 C 189.335 -1.83897 0.823658 0
M  V30 2020 O 188.391 -2.49469 0.390055 0
M  V30 2021 C 189.704 -0.52857 2.96018 0
M  V30 2022 C 191.252 -0.614771 3.06903 0
M  V30 2023 C 191.727 -0.664938 4.53147 0
M  V30 2024 N 193.218 -0.727433 4.57452 0
M  V30 2025 C 193.953 -0.787067 5.67973 0
M  V30 2026 N 193.449 -0.806649 6.88088 0
M  V30 2027 N 195.242 -0.827195 5.5598 0
M  V30 2028 H 187.393 0.714935 2.00006 0
M  V30 2029 H 189.656 0.259526 0.911784 0
M  V30 2030 H 189.362 0.380154 3.49639 0
M  V30 2031 H 189.236 -1.36998 3.51442 0
M  V30 2032 H 191.623 -1.51392 2.53307 0
M  V30 2033 H 191.704 0.253597 2.5454 0
M  V30 2034 H 191.348 0.230011 5.07379 0
M  V30 2035 H 191.278 -1.54966 5.03282 0
M  V30 2036 H 193.769 -0.719998 3.70978 0
M  V30 2037 H 194.082 -0.853727 7.6807 0
M  V30 2038 H 192.427 -0.774687 6.90669 0
M  V30 2039 H 195.618 -0.808998 4.61056 0
M  V30 2040 H 195.791 -0.870206 6.4213 0
M  V30 2041 N 189.197 -1.51736 -0.425897 0
M  V30 2042 C 190.446 -1.64201 -1.17136 0
M  V30 2043 C 190.759 -0.369705 -1.92074 0
M  V30 2044 O 191.965 -0.373898 -2.68913 0
M  V30 2045 C 190.421 -2.90035 -2.13091 0
M  V30 2046 C 190.029 -4.24312 -1.43747 0
M  V30 2047 C 191.773 -3.1186 -2.87999 0
M  V30 2048 C 189.68 -5.41285 -2.38253 0
M  V30 2049 H 188.61 -0.611624 -0.440944 0
M  V30 2050 H 191.261 -1.78212 -0.437328 0
M  V30 2051 H 189.643 -2.69684 -2.89977 0
M  V30 2052 H 190.817 -4.55086 -0.723408 0
M  V30 2053 H 189.132 -4.08456 -0.809465 0
M  V30 2054 H 191.729 -3.96427 -3.58817 0
M  V30 2055 H 192.072 -2.25403 -3.49999 0
M  V30 2056 H 192.605 -3.32605 -2.18217 0
M  V30 2057 H 189.344 -6.30037 -1.80925 0
M  V30 2058 H 188.864 -5.14872 -3.0768 0
M  V30 2059 H 190.543 -5.73694 -2.99139 0
M  V30 2060 N 190.675 0.682077 -1.42076 0
M  V30 2061 C 191.607 1.80755 -1.40926 0
M  V30 2062 C 192.62 1.59833 -0.309398 0
M  V30 2063 O 193.809 1.69087 -0.572014 0
M  V30 2064 C 190.909 3.17744 -1.17865 0
M  V30 2065 C 190.082 3.65578 -2.40149 0
M  V30 2066 C 189.141 4.81277 -2.12742 0
M  V30 2067 O 188.167 4.92197 -2.85887 0
M  V30 2068 N 189.369 5.69474 -1.12602 0
M  V30 2069 H 192.134 1.82229 -2.37935 0
M  V30 2070 H 189.695 0.864903 -1.36861 0
M  V30 2071 H 191.687 3.9279 -0.9746 0
M  V30 2072 H 190.257 3.11214 -0.294068 0
M  V30 2073 H 189.477 2.81291 -2.76169 0
M  V30 2074 H 190.765 3.94278 -3.21593 0
M  V30 2075 H 190.163 5.63297 -0.520899 0
M  V30 2076 H 188.72 6.44363 -0.981842 0
M  V30 2077 N 192.153 1.28127 0.917671 0
M  V30 2078 C 193.083 1.14248 2.03641 0
M  V30 2079 C 194.064 0.0412748 1.7005 0
M  V30 2080 O 195.249 0.217566 1.92977 0
M  V30 2081 C 192.379 0.799431 3.37974 0
M  V30 2082 C 191.333 1.85497 3.85713 0
M  V30 2083 C 190.659 1.36565 5.16966 0
M  V30 2084 C 191.959 3.26085 4.08002 0
M  V30 2085 H 193.653 2.07835 2.15511 0
M  V30 2086 H 191.199 1.00064 1.03553 0
M  V30 2087 H 193.152 0.689114 4.15727 0
M  V30 2088 H 191.876 -0.172145 3.26146 0
M  V30 2089 H 190.535 1.95437 3.10161 0
M  V30 2090 H 190.183 0.383253 5.01538 0
M  V30 2091 H 189.883 2.07143 5.49878 0
M  V30 2092 H 191.407 1.26848 5.97279 0
M  V30 2093 H 192.821 3.19089 4.76293 0
M  V30 2094 H 191.218 3.94462 4.52238 0
M  V30 2095 H 192.288 3.70394 3.12948 0
M  V30 2096 N 193.631 -1.12557 1.10312 0
M  V30 2097 C 194.594 -2.16434 0.75424 0
M  V30 2098 C 195.594 -1.59278 -0.220685 0
M  V30 2099 O 196.784 -1.742 0.00230591 0
M  V30 2100 C 193.916 -3.40699 0.116987 0
M  V30 2101 H 195.109 -2.48811 1.67431 0
M  V30 2102 H 192.662 -1.27542 0.903475 0
M  V30 2103 H 193.397 -3.13921 -0.813877 0
M  V30 2104 H 193.182 -3.83459 0.818613 0
M  V30 2105 H 194.672 -4.17451 -0.111387 0
M  V30 2106 N 195.109 -0.891671 -1.2995 0
M  V30 2107 C 196.355 -0.514261 -1.96171 0
M  V30 2108 C 196.688 0.935506 -1.70182 0
M  V30 2109 O 195.963 1.66204 -1.01028 0
M  V30 2110 C 196.246 -0.797719 -3.51153 0
M  V30 2111 C 196.099 -2.2986 -3.86632 0
M  V30 2112 C 197.418 -0.278749 -4.39216 0
M  V30 2113 H 194.537 -0.188314 -0.712535 0
M  V30 2114 H 197.179 -1.11689 -1.53706 0
M  V30 2115 H 195.329 -0.284826 -3.87455 0
M  V30 2116 H 197.001 -2.88042 -3.60319 0
M  V30 2117 H 195.244 -2.76257 -3.34462 0
M  V30 2118 H 195.915 -2.44753 -4.94773 0
M  V30 2119 H 198.391 -0.717825 -4.09862 0
M  V30 2120 H 197.267 -0.506353 -5.46559 0
M  V30 2121 H 197.528 0.820266 -4.34424 0
M  V30 2122 N 196.587 1.43421 -0.653314 0
M  V30 2123 C 197.517 2.33487 0.0246656 0
M  V30 2124 C 198.498 1.49475 0.811863 0
M  V30 2125 O 199.683 1.78139 0.773322 0
M  V30 2126 C 196.813 3.32841 0.99166 0
M  V30 2127 C 195.767 4.26842 0.314568 0
M  V30 2128 C 195.093 5.16236 1.39302 0
M  V30 2129 C 196.393 5.16243 -0.793095 0
M  V30 2130 H 198.087 2.90427 -0.727481 0
M  V30 2131 H 195.633 1.39649 -0.351287 0
M  V30 2132 H 197.586 3.94747 1.47487 0
M  V30 2133 H 196.31 2.74158 1.77497 0
M  V30 2134 H 194.969 3.663 -0.148199 0
M  V30 2135 H 194.617 4.53891 2.16776 0
M  V30 2136 H 194.317 5.79948 0.945223 0
M  V30 2137 H 195.841 5.81015 1.87759 0
M  V30 2138 H 197.255 5.71958 -0.392039 0
M  V30 2139 H 195.652 5.88676 -1.16536 0
M  V30 2140 H 196.722 4.55927 -1.65103 0
M  V30 2141 N 198.065 0.39524 1.52563 0
M  V30 2142 C 199.311 -0.185318 2.01952 0
M  V30 2143 C 199.644 -1.45964 1.28095 0
M  V30 2144 O 198.919 -1.90689 0.38315 0
M  V30 2145 C 199.202 -0.447193 3.57312 0
M  V30 2146 C 199.055 0.842828 4.41833 0
M  V30 2147 C 200.374 -1.23529 4.22408 0
M  V30 2148 H 197.493 -0.0658788 0.73405 0
M  V30 2149 H 200.135 0.525975 1.82575 0
M  V30 2150 H 198.285 -1.05312 3.73954 0
M  V30 2151 H 199.957 1.4795 4.36931 0
M  V30 2152 H 198.2 1.45686 4.08605 0
M  V30 2153 H 198.871 0.614165 5.48573 0
M  V30 2154 H 201.347 -0.722445 4.0978 0
M  V30 2155 H 200.223 -1.38727 5.3108 0
M  V30 2156 H 200.484 -2.25213 3.80436 0
M  V30 2157 N 199.544 -1.57102 0.125237 0
M  V30 2158 C 200.821 -1.86953 -0.575142 0
M  V30 2159 C 201.201 -1.02749 -1.84407 0
M  V30 2160 O 200.549 -0.108144 -2.28244 0
M  V30 2161 C 200.759 -3.38198 -0.861583 0
M  V30 2162 C 202.107 -4.06937 -1.21192 0
M  V30 2163 O 203.131 -3.43252 -0.951645 0
M  V30 2164 O 201.99 -5.19364 -1.70068 0
M  V30 2165 H 199.084 -0.774147 -0.290906 0
M  V30 2166 H 201.63 -1.68942 0.160211 0
M  V30 2167 H 200.402 -3.91282 0.0373647 0
M  V30 2168 H 200.025 -3.61661 -1.65188 0
M  V30 2169 N 201.022 0.148545 -1.56898 0
M  V30 2170 C 202.438 0.501131 -1.51528 0
M  V30 2171 C 202.638 1.83458 -0.833399 0
M  V30 2172 O 201.694 2.49259 -0.40328 0
M  V30 2173 C 203.007 0.512864 -2.96294 0
M  V30 2174 C 204.555 0.598487 -3.07225 0
M  V30 2175 C 205.03 0.640897 -4.53494 0
M  V30 2176 N 206.521 0.703163 -4.57832 0
M  V30 2177 C 207.256 0.756935 -5.68382 0
M  V30 2178 N 206.752 0.770147 -6.88506 0
M  V30 2179 N 208.545 0.797698 -5.56411 0
M  V30 2180 H 200.696 -0.725532 -1.99624 0
M  V30 2181 H 202.959 -0.264358 -0.910395 0
M  V30 2182 H 202.665 -0.398691 -3.49433 0
M  V30 2183 H 202.539 1.35133 -3.52163 0
M  V30 2184 H 204.926 1.50046 -2.54106 0
M  V30 2185 H 205.007 -0.267093 -2.54402 0
M  V30 2186 H 204.651 -0.256915 -5.0725 0
M  V30 2187 H 204.581 1.52295 -5.04097 0
M  V30 2188 H 207.072 0.700314 -3.71354 0
M  V30 2189 H 207.385 0.812983 -7.68512 0
M  V30 2190 H 205.73 0.738049 -6.9107 0
M  V30 2191 H 208.921 0.784535 -4.61479 0
M  V30 2192 H 209.094 0.83614 -6.42583 0
M  V30 2193 N 202.5 1.5196 0.417844 0
M  V30 2194 C 203.748 1.65263 1.16329 0
M  V30 2195 C 204.069 0.380634 1.91249 0
M  V30 2196 O 203.339 -0.604214 1.86349 0
M  V30 2197 H 201.919 0.60912 0.432414 0
M  V30 2198 H 204.581 1.88969 0.477162 0
M  V30 2199 H 203.677 2.4896 1.88217 0
M  V30 2200 N 203.978 -0.674533 1.42435 0
M  V30 2201 C 204.928 -1.7807 1.4239 0
M  V30 2202 C 205.912 -1.58169 0.295202 0
M  V30 2203 O 207.104 -1.68643 0.537449 0
M  V30 2204 C 204.233 -3.16532 1.32901 0
M  V30 2205 C 203.319 -3.42055 2.50717 0
M  V30 2206 N 203.71 -3.38162 3.76139 0
M  V30 2207 C 202.008 -3.72692 2.44983 0
M  V30 2208 C 202.709 -3.63177 4.54398 0
M  V30 2209 N 201.685 -3.83954 3.84812 0
M  V30 2210 H 205.487 -1.73454 2.37257 0
M  V30 2211 H 203.001 -0.875381 1.36788 0
M  V30 2212 H 204.998 -3.958 1.30951 0
M  V30 2213 H 203.658 -3.22345 0.390363 0
M  V30 2214 H 204.669 -3.18057 4.0873 0
M  V30 2215 H 201.346 -3.85749 1.59699 0
M  V30 2216 H 202.736 -3.66125 5.63384 0
M  V30 2217 N 205.456 -1.28612 -0.910864 0
M  V30 2218 C 206.872 -1.06381 -1.18976 0
M  V30 2219 C 207.072 0.191998 -2.00583 0
M  V30 2220 O 206.128 0.892869 -2.36187 0
M  V30 2221 C 207.441 -2.31295 -1.92154 0
M  V30 2222 C 208.989 -2.36503 -2.05025 0
M  V30 2223 C 209.464 -3.61191 -2.81612 0
M  V30 2224 N 210.955 -3.61847 -2.89172 0
M  V30 2225 C 211.69 -4.55004 -3.4894 0
M  V30 2226 N 211.186 -5.58482 -4.09963 0
M  V30 2227 N 212.979 -4.42594 -3.46506 0
M  V30 2228 H 205.13 -2.09221 -0.366094 0
M  V30 2229 H 207.393 -0.921003 -0.224629 0
M  V30 2230 H 207.099 -3.228 -1.39618 0
M  V30 2231 H 206.973 -2.37934 -2.9269 0
M  V30 2232 H 209.36 -1.45494 -2.5674 0
M  V30 2233 H 209.441 -2.33857 -1.03657 0
M  V30 2234 H 209.085 -4.52545 -2.30576 0
M  V30 2235 H 209.015 -3.61092 -3.83302 0
M  V30 2236 H 211.506 -2.87022 -2.45819 0
M  V30 2237 H 211.819 -6.25704 -4.53557 0
M  V30 2238 H 210.164 -5.62305 -4.08459 0
M  V30 2239 H 213.355 -3.60953 -2.98045 0
M  V30 2240 H 213.528 -5.15381 -3.92793 0
M  V30 2241 N 206.934 1.1197 -1.10907 0
M  V30 2242 C 207.844 2.21433 -0.774896 0
M  V30 2243 C 208.86 1.72478 0.229657 0
M  V30 2244 O 210.036 2.01288 0.0672008 0
M  V30 2245 C 207.101 3.4602 -0.216986 0
M  V30 2246 C 206.162 4.09791 -1.27944 0
M  V30 2247 C 205.395 5.28431 -0.748055 0
M  V30 2248 O 205.618 5.68823 0.423833 0
M  V30 2249 O 204.552 5.82644 -1.51027 0
M  V30 2250 H 208.378 2.5242 -1.68873 0
M  V30 2251 H 205.963 1.20399 -0.884555 0
M  V30 2252 H 207.845 4.21304 0.090059 0
M  V30 2253 H 206.52 3.16698 0.669633 0
M  V30 2254 H 205.427 3.36265 -1.63941 0
M  V30 2255 H 206.76 4.4328 -2.13925 0
M  V30 2256 N 208.412 0.89855 1.29475 0
M  V30 2257 C 209.342 0.39201 2.30186 0
M  V30 2258 C 210.323 -0.532359 1.61555 0
M  V30 2259 O 211.508 -0.443331 1.89072 0
M  V30 2260 C 208.638 -0.382353 3.45189 0
M  V30 2261 C 207.592 0.451483 4.25612 0
M  V30 2262 C 206.918 -0.450307 5.328 0
M  V30 2263 C 208.218 1.70079 4.93832 0
M  V30 2264 H 209.912 1.23362 2.72804 0
M  V30 2265 H 207.458 0.594638 1.31149 0
M  V30 2266 H 209.411 -0.747451 4.14718 0
M  V30 2267 H 208.135 -1.25774 3.01411 0
M  V30 2268 H 206.794 0.798897 3.57789 0
M  V30 2269 H 206.442 -1.32379 4.85268 0
M  V30 2270 H 206.142 0.103902 5.87508 0
M  V30 2271 H 207.666 -0.811623 6.05182 0
M  V30 2272 H 209.08 1.40549 5.55805 0
M  V30 2273 H 207.477 2.19623 5.58467 0
M  V30 2274 H 208.547 2.43744 4.19186 0
M  V30 2275 N 209.89 -1.43072 0.660911 0
M  V30 2276 C 211.301 -1.84932 0.256348 0
M  V30 2277 C 211.652 -1.55325 -1.19868 0
M  V30 2278 O 210.777 -1.00607 -1.91591 0
M  V30 2279 C 211.372 -3.35684 0.458475 0
M  V30 2280 C 209.931 -3.76245 0.108161 0
M  V30 2281 C 209.078 -2.66749 0.757641 0
M  V30 2282 H 212.029 -1.33116 0.864051 0
M  V30 2283 H 212.05 -3.79365 -0.293683 0
M  V30 2284 H 211.562 -3.572 1.51755 0
M  V30 2285 H 209.663 -3.60338 -0.948014 0
M  V30 2286 H 209.776 -4.76058 0.538992 0
M  V30 2287 H 208.14 -2.53989 0.190185 0
M  V30 2288 H 208.923 -2.91092 1.81989 0
M  V30 2289 N 211.368 -0.403325 -1.52352 0
M  V30 2290 C 212.617 0.175668 -2.00934 0
M  V30 2291 C 212.93 1.46718 -1.29356 0
M  V30 2292 O 214.136 2.12708 -1.68724 0
M  V30 2293 C 212.592 0.363612 -3.58058 0
M  V30 2294 C 212.2 -0.915472 -4.38547 0
M  V30 2295 C 213.944 0.89821 -4.14888 0
M  V30 2296 C 211.851 -0.695035 -5.87302 0
M  V30 2297 H 210.781 0.0694234 -0.750797 0
M  V30 2298 H 213.432 -0.527879 -1.75743 0
M  V30 2299 H 211.814 1.12935 -3.79555 0
M  V30 2300 H 212.988 -1.68691 -4.28812 0
M  V30 2301 H 211.303 -1.37606 -3.93006 0
M  V30 2302 H 213.9 1.07907 -5.23699 0
M  V30 2303 H 214.243 1.87126 -3.71873 0
M  V30 2304 H 214.776 0.191681 -3.97338 0
M  V30 2305 H 211.515 -1.63948 -6.34666 0
M  V30 2306 H 211.035 0.0372116 -5.99788 0
M  V30 2307 H 212.714 -0.33497 -6.46132 0
M  V30 2308 N 212.846 1.57033 -0.133567 0
M  V30 2309 C 214.262 1.58035 0.222944 0
M  V30 2310 C 214.462 1.14713 1.6566 0
M  V30 2311 O 213.518 0.841218 2.38075 0
M  V30 2312 C 214.831 3.00691 -0.0236116 0
M  V30 2313 C 216.379 3.12973 0.0411512 0
M  V30 2314 C 216.854 4.57654 -0.177899 0
M  V30 2315 N 218.345 4.63033 -0.124365 0
M  V30 2316 C 219.08 5.72771 -0.268553 0
M  V30 2317 N 218.576 6.91206 -0.46972 0
M  V30 2318 N 220.369 5.61718 -0.2071 0
M  V30 2319 H 212.52 1.8349 -1.06981 0
M  V30 2320 H 214.783 0.848677 -0.422436 0
M  V30 2321 H 214.489 3.36726 -1.0153 0
M  V30 2322 H 214.363 3.70614 0.701808 0
M  V30 2323 H 216.75 2.76787 1.02338 0
M  V30 2324 H 216.831 2.45564 -0.716383 0
M  V30 2325 H 216.475 4.94542 -1.15717 0
M  V30 2326 H 216.405 5.23173 0.599797 0
M  V30 2327 H 218.896 3.7789 0.027011 0
M  V30 2328 H 219.209 7.70693 -0.570212 0
M  V30 2329 H 217.554 6.93156 -0.505876 0
M  V30 2330 H 220.745 4.68072 -0.0507986 0
M  V30 2331 H 220.918 6.47195 -0.322909 0
M  V30 2332 N 214.325 -0.140222 1.56975 0
M  V30 2333 C 215.288 -1.15689 1.97861 0
M  V30 2334 C 216.288 -1.3549 0.865974 0
M  V30 2335 O 217.478 -1.32367 1.13246 0
M  V30 2336 C 214.61 -2.51582 2.30042 0
M  V30 2337 H 215.803 -0.805971 2.88867 0
M  V30 2338 H 213.356 -0.383801 1.51515 0
M  V30 2339 H 214.091 -2.91632 1.41849 0
M  V30 2340 H 213.876 -2.38569 3.11171 0
M  V30 2341 H 215.366 -3.24792 2.62488 0
M  V30 2342 N 215.803 -1.52179 -0.40978 0
M  V30 2343 C 217.08 -1.56769 -1.16974 0
M  V30 2344 C 217.46 -0.348322 -2.08206 0
M  V30 2345 O 216.808 0.664862 -2.18613 0
M  V30 2346 C 217.018 -2.89603 -1.9476 0
M  V30 2347 C 218.366 -3.42579 -2.50849 0
M  V30 2348 O 219.39 -2.91338 -2.04941 0
M  V30 2349 O 218.249 -4.32054 -3.34652 0
M  V30 2350 H 215.343 -0.631439 -0.534054 0
M  V30 2351 H 217.889 -1.64507 -0.416613 0
M  V30 2352 H 216.661 -3.698 -1.27921 0
M  V30 2353 H 216.284 -2.85155 -2.77079 0
M  V30 2354 N 217.281 0.66697 -1.42791 0
M  V30 2355 C 218.528 1.42699 -1.43678 0
M  V30 2356 C 218.856 1.94419 -0.0560425 0
M  V30 2357 O 218.111 1.7182 0.936831 0
M  V30 2358 C 218.41 2.6349 -2.4147 0
M  V30 2359 C 218.076 2.30267 -3.8767 0
M  V30 2360 C 216.738 2.20918 -4.27491 0
M  V30 2361 C 219.09 2.03435 -4.79858 0
M  V30 2362 C 216.418 1.82873 -5.57471 0
M  V30 2363 C 218.77 1.66892 -6.10188 0
M  V30 2364 C 217.434 1.56058 -6.49001 0
M  V30 2365 H 216.704 0.522171 -0.525755 0
M  V30 2366 H 219.351 0.759785 -1.75783 0
M  V30 2367 H 217.656 3.35279 -2.0272 0
M  V30 2368 H 219.353 3.21684 -2.39417 0
M  V30 2369 H 215.943 2.38449 -3.56146 0
M  V30 2370 H 220.127 2.09586 -4.49875 0
M  V30 2371 H 215.383 1.7306 -5.86396 0
M  V30 2372 H 219.557 1.45157 -6.81104 0
M  V30 2373 H 217.184 1.26348 -7.49627 0
M  V30 2374 N 218.759 1.29093 0.90403 0
M  V30 2375 C 220.005 1.16986 1.65656 0
M  V30 2376 C 220.338 -0.278925 1.92186 0
M  V30 2377 O 219.613 -1.2019 1.5292 0
M  V30 2378 C 219.896 1.97908 3.0084 0
M  V30 2379 C 219.749 3.50903 2.81403 0
M  V30 2380 C 221.068 1.80208 4.01513 0
M  V30 2381 H 218.187 0.426346 0.601164 0
M  V30 2382 H 220.829 1.58518 1.04747 0
M  V30 2383 H 218.979 1.62616 3.52829 0
M  V30 2384 H 220.651 3.96153 2.36348 0
M  V30 2385 H 218.894 3.76045 2.1627 0
M  V30 2386 H 219.565 4.02791 3.77443 0
M  V30 2387 H 222.041 2.11025 3.58619 0
M  V30 2388 H 220.917 2.39184 4.94047 0
M  V30 2389 H 221.178 0.756119 4.35586 0
M  V30 2390 N 220.237 -1.11381 1.11499 0
M  V30 2391 C 221.485 -1.8277 0.862524 0
M  V30 2392 C 221.806 -1.85097 -0.613534 0
M  V30 2393 O 221.076 -1.32198 -1.4457 0
M  V30 2394 H 219.656 -0.676823 0.316101 0
M  V30 2395 H 222.318 -1.34816 1.4075 0
M  V30 2396 H 221.414 -2.86614 1.23527 0
M  V30 2397 N 221.715 -0.905404 -1.28997 0
M  V30 2398 C 222.662 -0.385892 -2.27551 0
M  V30 2399 C 223.632 0.535113 -1.57244 0
M  V30 2400 O 224.817 0.459119 -1.85194 0
M  V30 2401 C 221.957 0.375461 -3.43051 0
M  V30 2402 C 221.07 -0.577092 -4.28128 0
M  V30 2403 C 220.205 0.201879 -5.30816 0
M  V30 2404 C 219.244 -0.744829 -6.07551 0
M  V30 2405 N 218.381 9.42587e-05 -7.021 0
M  V30 2406 H 223.221 -1.23139 -2.71368 0
M  V30 2407 H 220.758 -0.618542 -1.33463 0
M  V30 2408 H 222.716 0.832992 -4.088 0
M  V30 2409 H 221.346 1.18537 -3.00248 0
M  V30 2410 H 220.398 -1.15315 -3.62501 0
M  V30 2411 H 221.71 -1.30152 -4.8152 0
M  V30 2412 H 220.864 0.720351 -6.02408 0
M  V30 2413 H 219.603 0.959413 -4.7817 0
M  V30 2414 H 218.608 -1.27475 -5.34818 0
M  V30 2415 H 219.833 -1.50178 -6.62286 0
M  V30 2416 H 217.779 0.739791 -6.51815 0
M  V30 2417 H 217.696 -0.664321 -7.53076 0
M  V30 2418 H 218.964 0.498644 -7.77903 0
M  V30 2419 N 223.193 1.4272 -0.668489 0
M  V30 2420 C 224.141 2.32586 0.0254857 0
M  V30 2421 C 225.135 1.49471 0.797176 0
M  V30 2422 O 226.341 1.65583 0.705853 0
M  V30 2423 H 222.716 0.751514 0.0270339 0
M  V30 2424 H 224.687 2.88823 -0.749936 0
M  V30 2425 C 223.436 3.3397 0.967427 0
M  V30 2426 H 222.759 3.97961 0.383048 0
M  V30 2427 H 224.199 3.9945 1.42181 0
M  V30 2428 C 222.658 2.65744 2.0708 0
M  V30 2429 O 223.188 2.48454 3.15648 0
M  V30 2430 N 221.394 2.2487 1.8407 0
M  V30 2431 H 220.941 2.39132 0.95778 0
M  V30 2432 H 220.899 1.79552 2.58086 0
M  V30 2433 N 224.671 0.411399 1.52136 0
M  V30 2434 C 225.917 -0.163888 2.02137 0
M  V30 2435 C 226.25 -1.44597 1.29636 0
M  V30 2436 O 225.525 -1.90272 0.403353 0
M  V30 2437 C 225.808 -0.40927 3.57767 0
M  V30 2438 C 225.661 0.889643 4.40914 0
M  V30 2439 C 226.98 -1.19042 4.23694 0
M  V30 2440 H 224.099 -0.0580896 0.734707 0
M  V30 2441 H 226.741 0.54531 1.82007 0
M  V30 2442 H 224.891 -1.0134 3.7505 0
M  V30 2443 H 226.563 1.52575 4.35337 0
M  V30 2444 H 224.806 1.50011 4.07037 0
M  V30 2445 H 225.477 0.672314 5.4789 0
M  V30 2446 H 227.953 -0.678942 4.10524 0
M  V30 2447 H 226.829 -1.33086 5.32522 0
M  V30 2448 H 227.09 -2.21166 3.82803 0
M  V30 2449 N 226.149 -1.5696 0.141893 0
M  V30 2450 C 227.56 -1.82797 -0.379776 0
M  V30 2451 C 227.911 -1.06033 -1.6508 0
M  V30 2452 O 227.036 -0.304011 -2.14254 0
M  V30 2453 C 227.631 -3.31578 -0.695802 0
M  V30 2454 C 226.19 -3.58014 -1.16201 0
M  V30 2455 C 225.337 -2.76699 -0.182455 0
M  V30 2456 H 228.288 -1.54406 0.366675 0
M  V30 2457 H 228.309 -3.47454 -1.55099 0
M  V30 2458 H 227.821 -3.87421 0.229449 0
M  V30 2459 H 225.922 -3.07553 -2.10338 0
M  V30 2460 H 226.035 -4.66501 -1.09151 0
M  V30 2461 H 224.399 -2.45618 -0.674072 0
M  V30 2462 H 225.182 -3.35311 0.736297 0
M  V30 2463 N 227.627 0.131896 -1.57047 0
M  V30 2464 C 228.855 0.856461 -1.88341 0
M  V30 2465 C 229.27 1.74042 -0.731757 0
M  V30 2466 O 228.627 1.80051 0.297945 0
M  V30 2467 C 228.678 1.70064 -3.18999 0
M  V30 2468 O 228.399 0.852278 -4.2973 0
M  V30 2469 C 229.9 2.53148 -3.63911 0
M  V30 2470 H 227.12 0.246885 -0.62393 0
M  V30 2471 H 229.664 0.120152 -2.04147 0
M  V30 2472 H 227.819 2.38984 -3.04902 0
M  V30 2473 H 228.233 1.43329 -5.04537 0
M  V30 2474 H 229.707 3.07931 -4.58129 0
M  V30 2475 H 230.184 3.29901 -2.89935 0
M  V30 2476 H 230.79 1.89492 -3.80753 0
M  V30 2477 N 229.106 1.52395 0.401703 0
M  V30 2478 C 230.331 1.70972 1.17403 0
M  V30 2479 C 230.756 0.421615 1.83314 0
M  V30 2480 O 230.114 -0.621564 1.70312 0
M  V30 2481 C 230.162 2.85151 2.20728 0
M  V30 2482 O 229.266 2.51238 3.27037 0
M  V30 2483 H 228.607 0.568927 0.342372 0
M  V30 2484 H 231.137 1.99131 0.469891 0
M  V30 2485 H 231.147 3.10279 2.64936 0
M  V30 2486 H 229.822 3.78603 1.7214 0
M  V30 2487 H 228.399 2.36808 2.88057 0
M  V30 2488 N 230.584 -0.659388 1.43143 0
M  V30 2489 C 232 -0.974337 1.26407 0
M  V30 2490 C 232.2 -2.007 0.179341 0
M  V30 2491 O 231.256 -2.4856 -0.444295 0
M  V30 2492 C 232.569 -1.46447 2.62628 0
M  V30 2493 C 234.117 -1.58144 2.7011 0
M  V30 2494 C 234.592 -2.1055 4.06734 0
M  V30 2495 N 236.083 -2.17861 4.08767 0
M  V30 2496 C 236.818 -2.59519 5.1131 0
M  V30 2497 N 236.314 -3.00518 6.24228 0
M  V30 2498 N 238.107 -2.59404 4.98664 0
M  V30 2499 H 230.258 0.0240528 2.12386 0
M  V30 2500 H 232.521 -0.0518065 0.946583 0
M  V30 2501 H 232.227 -0.780123 3.42939 0
M  V30 2502 H 232.101 -2.44058 2.87603 0
M  V30 2503 H 234.488 -2.25682 1.90136 0
M  V30 2504 H 234.569 -0.589828 2.48907 0
M  V30 2505 H 234.213 -1.43616 4.87172 0
M  V30 2506 H 234.143 -3.10531 4.25298 0
M  V30 2507 H 236.634 -1.88975 3.27257 0
M  V30 2508 H 236.947 -3.31036 6.98309 0
M  V30 2509 H 235.292 -2.98337 6.2771 0
M  V30 2510 H 238.483 -2.26747 4.09516 0
M  V30 2511 H 238.656 -2.91548 5.78709 0
M  V30 2512 N 232.062 -1.29571 -0.897171 0
M  V30 2513 C 233.287 -1.20705 -1.68656 0
M  V30 2514 C 233.712 0.228582 -1.86706 0
M  V30 2515 O 233.07 1.16494 -1.3892 0
M  V30 2516 C 233.118 -1.9282 -3.04717 0
M  V30 2517 O 232.222 -1.24697 -3.93096 0
M  V30 2518 H 231.563 -0.418126 -0.515816 0
M  V30 2519 H 234.093 -1.71183 -1.12061 0
M  V30 2520 H 234.103 -2.01372 -3.54843 0
M  V30 2521 H 232.778 -2.97239 -2.90899 0
M  V30 2522 H 231.355 -1.2442 -3.51531 0
M  V30 2523 N 233.54 1.10788 -1.12088 0
M  V30 2524 C 234.45 2.20599 -0.798338 0
M  V30 2525 C 235.466 1.72712 0.21135 0
M  V30 2526 O 236.642 2.01348 0.0458477 0
M  V30 2527 C 233.707 3.45771 -0.253674 0
M  V30 2528 C 232.768 4.08411 -1.32283 0
M  V30 2529 C 232.001 5.27608 -0.80406 0
M  V30 2530 O 232.224 5.69241 0.363478 0
M  V30 2531 O 231.158 5.8101 -1.57198 0
M  V30 2532 H 234.984 2.50614 -1.7154 0
M  V30 2533 H 232.569 1.19454 -0.897275 0
M  V30 2534 H 234.451 4.21376 0.0453691 0
M  V30 2535 H 233.126 3.1739 0.636005 0
M  V30 2536 H 232.033 3.34507 -1.67499 0
M  V30 2537 H 233.366 4.40986 -2.18614 0
M  V30 2538 N 235.018 0.912232 1.28515 0
M  V30 2539 C 235.948 0.416403 2.29757 0
M  V30 2540 C 236.929 -0.515194 1.6211 0
M  V30 2541 O 238.114 -0.423253 1.89532 0
M  V30 2542 C 235.244 -0.34572 3.45575 0
M  V30 2543 C 234.198 0.496599 4.25109 0
M  V30 2544 C 233.524 -0.393771 5.33248 0
M  V30 2545 C 234.824 1.75307 4.92001 0
M  V30 2546 H 236.518 1.26249 2.7148 0
M  V30 2547 H 234.064 0.608515 1.30511 0
M  V30 2548 H 236.017 -0.703422 4.15488 0
M  V30 2549 H 234.741 -1.2257 3.02728 0
M  V30 2550 H 233.4 0.8368 3.56922 0
M  V30 2551 H 233.048 -1.27225 4.86644 0
M  V30 2552 H 232.748 0.166209 5.87365 0
M  V30 2553 H 234.272 -0.747389 6.06009 0
M  V30 2554 H 235.686 1.46437 5.54283 0
M  V30 2555 H 234.083 2.25534 5.56106 0
M  V30 2556 H 235.153 2.48176 4.16577 0
M  V30 2557 N 236.496 -1.42363 0.676048 0
M  V30 2558 C 237.745 -2.00745 0.196037 0
M  V30 2559 C 238.058 -1.54083 -1.20489 0
M  V30 2560 O 239.264 -2.04891 -1.78134 0
M  V30 2561 C 237.72 -3.58651 0.299616 0
M  V30 2562 C 237.328 -4.143 1.70468 0
M  V30 2563 C 239.072 -4.24326 -0.121619 0
M  V30 2564 C 236.979 -5.64574 1.76096 0
M  V30 2565 H 235.909 -0.750787 0.0695301 0
M  V30 2566 H 238.56 -1.63072 0.841412 0
M  V30 2567 H 236.942 -3.93833 -0.413673 0
M  V30 2568 H 238.116 -3.90575 2.44515 0
M  V30 2569 H 236.431 -3.61081 2.07387 0
M  V30 2570 H 239.028 -5.34607 -0.0997362 0
M  V30 2571 H 239.371 -3.99897 -1.15708 0
M  V30 2572 H 239.904 -3.94108 0.540706 0
M  V30 2573 H 236.643 -5.93804 2.77628 0
M  V30 2574 H 236.163 -5.90286 1.06406 0
M  V30 2575 H 237.842 -6.29013 1.51496 0
M  V30 2576 N 237.974 -0.419461 -1.51915 0
M  V30 2577 C 239.22 0.153166 -2.02221 0
M  V30 2578 C 239.553 1.43907 -1.30401 0
M  V30 2579 O 238.828 1.90055 -0.413438 0
M  V30 2580 C 239.111 0.390291 -3.57979 0
M  V30 2581 C 238.964 -0.913014 -4.40436 0
M  V30 2582 C 240.283 1.16794 -4.2432 0
M  V30 2583 H 237.402 0.0541924 -0.735005 0
M  V30 2584 H 240.044 -0.554955 -1.81715 0
M  V30 2585 H 238.194 0.993491 -3.75582 0
M  V30 2586 H 239.866 -1.54882 -4.34522 0
M  V30 2587 H 238.109 -1.52168 -4.06236 0
M  V30 2588 H 238.78 -0.701361 -5.47526 0
M  V30 2589 H 241.256 0.657161 -4.10878 0
M  V30 2590 H 240.132 1.3026 -5.3322 0
M  V30 2591 H 240.393 2.19132 -3.83971 0
M  V30 2592 N 239.452 1.56882 -0.150215 0
M  V30 2593 C 240.698 1.96518 0.500834 0
M  V30 2594 C 241.031 1.03527 1.64304 0
M  V30 2595 O 240.306 0.0782751 1.94342 0
M  V30 2596 C 240.589 3.45822 1.00395 0
M  V30 2597 C 240.442 4.49591 -0.136983 0
M  V30 2598 C 241.761 3.97704 1.88467 0
M  V30 2599 H 238.88 0.714535 0.18058 0
M  V30 2600 H 241.522 1.88577 -0.232091 0
M  V30 2601 H 239.672 3.5272 1.62851 0
M  V30 2602 H 241.344 4.5477 -0.77343 0
M  V30 2603 H 239.587 4.26441 -0.795652 0
M  V30 2604 H 240.258 5.51402 0.256815 0
M  V30 2605 H 242.734 3.93304 1.35834 0
M  V30 2606 H 241.61 5.0263 2.20578 0
M  V30 2607 H 241.871 3.40252 2.82279 0
M  V30 2608 N 240.93 -0.123565 1.57115 0
M  V30 2609 C 241.84 -1.17074 2.033 0
M  V30 2610 C 242.856 -1.4561 0.952559 0
M  V30 2611 O 244.032 -1.56817 1.26374 0
M  V30 2612 C 241.097 -2.47857 2.42421 0
M  V30 2613 C 240.158 -2.26758 3.64526 0
M  V30 2614 C 239.391 -3.51305 4.01771 0
M  V30 2615 O 239.614 -4.5843 3.39409 0
M  V30 2616 O 238.548 -3.42578 4.94898 0
M  V30 2617 H 242.374 -0.808555 2.92739 0
M  V30 2618 H 239.959 -0.334027 1.45618 0
M  V30 2619 H 241.841 -3.2492 2.68338 0
M  V30 2620 H 240.516 -2.83558 1.5613 0
M  V30 2621 H 239.423 -1.47569 3.43765 0
M  V30 2622 H 240.756 -1.95963 4.51508 0
M  V30 2623 N 242.408 -1.52605 -0.393616 0
M  V30 2624 C 243.338 -1.80022 -1.48709 0
M  V30 2625 C 244.319 -0.651995 -1.57108 0
M  V30 2626 O 245.504 -0.89913 -1.72132 0
M  V30 2627 C 242.634 -1.96492 -2.86371 0
M  V30 2628 C 241.588 -3.12161 -2.92813 0
M  V30 2629 C 240.914 -3.13877 -4.3288 0
M  V30 2630 C 242.214 -4.51322 -2.6288 0
M  V30 2631 H 243.908 -2.71589 -1.26015 0
M  V30 2632 H 241.454 -1.30684 -0.604778 0
M  V30 2633 H 243.407 -2.14255 -3.62867 0
M  V30 2634 H 242.131 -1.01611 -3.10391 0
M  V30 2635 H 240.79 -2.94173 -2.18764 0
M  V30 2636 H 240.438 -2.16687 -4.53933 0
M  V30 2637 H 240.138 -3.91576 -4.38112 0
M  V30 2638 H 241.662 -3.33789 -5.1129 0
M  V30 2639 H 243.076 -4.69435 -3.29096 0
M  V30 2640 H 241.473 -5.31053 -2.79468 0
M  V30 2641 H 242.543 -4.58353 -1.58242 0
M  V30 2642 N 243.887 0.651787 -1.4349 0
M  V30 2643 C 245.112 1.44434 -1.48841 0
M  V30 2644 C 245.537 1.8779 -0.107955 0
M  V30 2645 O 244.895 1.57464 0.898602 0
M  V30 2646 C 244.943 2.65458 -2.44059 0
M  V30 2647 O 244.047 3.64566 -1.92784 0
M  V30 2648 H 243.388 0.433005 -0.503391 0
M  V30 2649 H 245.918 0.797451 -1.88419 0
M  V30 2650 H 245.928 3.13255 -2.6141 0
M  V30 2651 H 244.603 2.33244 -3.4434 0
M  V30 2652 H 243.18 3.23716 -1.851 0
M  V30 2653 N 245.365 1.30045 0.890287 0
M  V30 2654 C 246.275 1.17885 2.02831 0
M  V30 2655 C 247.291 0.0999609 1.73713 0
M  V30 2656 O 248.467 0.313867 1.98939 0
M  V30 2657 C 245.532 0.866079 3.35708 0
M  V30 2658 C 244.593 2.02979 3.78283 0
M  V30 2659 C 243.826 1.73184 5.0482 0
M  V30 2660 O 244.049 0.657237 5.66601 0
M  V30 2661 O 242.983 2.58267 5.43674 0
M  V30 2662 H 246.809 2.13474 2.16015 0
M  V30 2663 H 244.394 1.09587 1.01543 0
M  V30 2664 H 246.276 0.706623 4.15433 0
M  V30 2665 H 244.951 -0.0599443 3.23644 0
M  V30 2666 H 243.858 2.24454 2.99285 0
M  V30 2667 H 245.191 2.93734 3.94944 0
M  V30 2668 N 246.843 -1.10192 1.12674 0
M  V30 2669 C 248.089 -1.82475 0.884915 0
M  V30 2670 C 248.422 -1.85093 -0.58773 0
M  V30 2671 O 247.697 -1.3134 -1.43457 0
M  V30 2672 C 247.98 -3.29018 1.46353 0
M  V30 2673 C 247.833 -3.34718 3.00473 0
M  V30 2674 C 249.152 -4.25473 1.12519 0
M  V30 2675 H 246.271 -0.662492 0.322915 0
M  V30 2676 H 248.913 -1.2913 1.39375 0
M  V30 2677 H 247.063 -3.74576 1.03077 0
M  V30 2678 H 248.735 -2.97622 3.52447 0
M  V30 2679 H 246.978 -2.74541 3.35872 0
M  V30 2680 H 247.649 -4.37918 3.36053 0
M  V30 2681 H 250.125 -3.88161 1.499 0
M  V30 2682 H 249.001 -5.26365 1.55663 0
M  V30 2683 H 249.262 -4.42084 0.0377407 0
M  V30 2684 N 248.321 -0.919034 -1.28029 0
M  V30 2685 C 249.598 -0.473668 -1.89778 0
M  V30 2686 C 249.978 1.04783 -1.83259 0
M  V30 2687 O 249.326 1.8982 -1.27202 0
M  V30 2688 C 249.536 -1.00998 -3.34066 0
M  V30 2689 C 250.884 -1.06525 -4.1102 0
M  V30 2690 O 251.908 -0.958996 -3.43048 0
M  V30 2691 O 250.767 -1.22776 -5.3253 0
M  V30 2692 H 247.861 -0.15098 -0.813101 0
M  V30 2693 H 250.407 -1.01016 -1.36359 0
M  V30 2694 H 249.179 -2.05392 -3.33061 0
M  V30 2695 H 248.802 -0.454626 -3.94992 0
M  V30 2696 N 249.799 1.42003 -0.683588 0
M  V30 2697 C 251.047 2.01015 -0.209101 0
M  V30 2698 C 251.368 1.54365 1.19149 0
M  V30 2699 O 250.638 0.769083 1.80172 0
M  V30 2700 H 249.218 0.743294 -0.074315 0
M  V30 2701 H 251.88 1.73798 -0.882066 0
M  V30 2702 H 250.976 3.11343 -0.2172 0
M  V30 2703 N 251.277 0.427512 1.51691 0
M  V30 2704 C 252.526 -0.143679 2.01188 0
M  V30 2705 C 252.839 -1.44642 1.31674 0
M  V30 2706 O 254.045 -2.09997 1.72086 0
M  V30 2707 C 252.501 -0.306602 3.58592 0
M  V30 2708 C 252.109 0.985125 4.37035 0
M  V30 2709 C 253.853 -0.832091 4.16265 0
M  V30 2710 C 251.76 0.788382 5.86122 0
M  V30 2711 H 250.69 -0.0574701 0.751807 0
M  V30 2712 H 253.341 0.555772 1.74881 0
M  V30 2713 H 251.723 -1.06882 3.81303 0
M  V30 2714 H 252.897 1.75492 4.26074 0
M  V30 2715 H 251.212 1.4384 3.90767 0
M  V30 2716 H 253.809 -0.995617 5.25349 0
M  V30 2717 H 254.152 -1.81186 3.74803 0
M  V30 2718 H 254.685 -0.128444 3.97593 0
M  V30 2719 H 251.424 1.74025 6.31978 0
M  V30 2720 H 250.944 0.0582143 5.99772 0
M  V30 2721 H 252.623 0.437722 6.45518 0
M  V30 2722 N 252.755 -1.56801 0.158532 0
M  V30 2723 C 254.032 -1.88131 -0.535357 0
M  V30 2724 C 254.412 -1.06638 -1.82186 0
M  V30 2725 O 253.76 -0.156533 -2.27963 0
M  V30 2726 C 253.97 -3.39949 -0.789653 0
M  V30 2727 C 255.318 -4.09416 -1.12533 0
M  V30 2728 O 256.342 -3.45194 -0.878622 0
M  V30 2729 O 255.201 -5.22855 -1.59014 0
M  V30 2730 H 252.295 -0.780143 -0.27442 0
M  V30 2731 H 254.841 -1.68564 0.19601 0
M  V30 2732 H 253.613 -3.91115 0.120353 0
M  V30 2733 H 253.236 -3.65084 -1.57479 0
M  V30 2734 N 254.233 0.115231 -1.57178 0
M  V30 2735 C 255.165 1.16694 -1.97269 0
M  V30 2736 C 256.178 1.37445 -0.872502 0
M  V30 2737 O 257.367 1.36454 -1.15077 0
M  V30 2738 C 254.467 2.52627 -2.25905 0
M  V30 2739 C 253.64 2.52427 -3.57211 0
M  V30 2740 C 252.699 3.70134 -3.74016 0
M  V30 2741 O 251.725 3.53546 -4.46087 0
M  V30 2742 N 252.927 4.88844 -3.13068 0
M  V30 2743 H 255.692 0.82588 -2.88096 0
M  V30 2744 H 253.253 0.304461 -1.59011 0
M  V30 2745 H 255.245 3.29937 -2.34359 0
M  V30 2746 H 253.815 2.789 -1.41186 0
M  V30 2747 H 253.035 1.60805 -3.5991 0
M  V30 2748 H 254.323 2.49353 -4.43509 0
M  V30 2749 H 253.721 5.05225 -2.54489 0
M  V30 2750 H 252.278 5.63817 -3.27037 0
M  V30 2751 N 255.711 1.52812 0.385517 0
M  V30 2752 C 256.957 1.68275 1.13188 0
M  V30 2753 C 257.29 0.423179 1.89533 0
M  V30 2754 O 256.565 -0.579113 1.85679 0
M  V30 2755 C 256.848 2.92001 2.1073 0
M  V30 2756 C 256.701 4.28067 1.38125 0
M  V30 2757 C 258.02 3.11283 3.11113 0
M  V30 2758 H 255.139 0.612352 0.410115 0
M  V30 2759 H 257.781 1.85415 0.414869 0
M  V30 2760 H 255.931 2.77519 2.71874 0
M  V30 2761 H 257.603 4.54324 0.799187 0
M  V30 2762 H 255.846 4.28388 0.683092 0
M  V30 2763 H 256.517 5.10733 2.09417 0
M  V30 2764 H 258.993 3.2482 2.6006 0
M  V30 2765 H 257.869 3.99325 3.76605 0
M  V30 2766 H 258.13 2.25656 3.80173 0
M  V30 2767 N 257.189 -0.644168 1.43834 0
M  V30 2768 C 258.414 -1.43642 1.49605 0
M  V30 2769 C 258.839 -1.8773 0.117913 0
M  V30 2770 O 258.197 -1.57938 -0.890239 0
M  V30 2771 C 258.245 -2.6416 2.45463 0
M  V30 2772 O 257.349 -3.63538 1.94714 0
M  V30 2773 H 256.69 -0.430329 0.50568 0
M  V30 2774 H 259.22 -0.787448 1.8884 0
M  V30 2775 H 259.23 -3.11864 2.63068 0
M  V30 2776 H 257.905 -2.31414 3.45572 0
M  V30 2777 H 256.482 -3.2273 1.86814 0
M  V30 2778 N 258.668 -1.30515 -0.883378 0
M  V30 2779 C 259.917 -1.18795 -1.63005 0
M  V30 2780 C 260.23 0.255923 -1.93919 0
M  V30 2781 O 261.436 0.494654 -2.66956 0
M  V30 2782 C 259.892 -2.07878 -2.93794 0
M  V30 2783 C 259.5 -3.57184 -2.70414 0
M  V30 2784 C 261.244 -2.04924 -3.71761 0
M  V30 2785 C 259.151 -4.38317 -3.97029 0
M  V30 2786 H 258.081 -0.441031 -0.611562 0
M  V30 2787 H 260.732 -1.55275 -0.977854 0
M  V30 2788 H 259.114 -1.64283 -3.60315 0
M  V30 2789 H 260.288 -4.08937 -2.12384 0
M  V30 2790 H 258.603 -3.61976 -2.0582 0
M  V30 2791 H 261.2 -2.62792 -4.65665 0
M  V30 2792 H 261.543 -1.0331 -4.03277 0
M  V30 2793 H 262.076 -2.46649 -3.12104 0
M  V30 2794 H 258.815 -5.40632 -3.70671 0
M  V30 2795 H 258.335 -3.91326 -4.54559 0
M  V30 2796 H 260.014 -4.49834 -4.65036 0
M  V30 2797 N 260.146 1.09593 -1.13257 0
M  V30 2798 C 261.096 2.14345 -0.777179 0
M  V30 2799 C 262.08 1.59277 0.227966 0
M  V30 2800 O 263.272 1.76971 0.0321413 0
M  V30 2801 C 260.401 3.42439 -0.242991 0
M  V30 2802 C 259.487 4.04419 -1.27694 0
M  V30 2803 N 259.878 4.40979 -2.47732 0
M  V30 2804 C 258.176 4.31596 -1.12432 0
M  V30 2805 C 258.877 4.89784 -3.13826 0
M  V30 2806 N 257.853 4.87133 -2.41252 0
M  V30 2807 H 261.655 2.40415 -1.69049 0
M  V30 2808 H 259.169 1.26803 -1.01463 0
M  V30 2809 H 261.166 4.16889 0.0298496 0
M  V30 2810 H 259.826 3.17824 0.66467 0
M  V30 2811 H 260.837 4.32396 -2.85051 0
M  V30 2812 H 257.514 4.16595 -0.274684 0
M  V30 2813 H 258.904 5.2755 -4.16102 0
M  V30 2814 N 261.624 0.925811 1.2754 0
M  V30 2815 C 262.534 0.428993 2.30644 0
M  V30 2816 C 263.55 -0.489387 1.66976 0
M  V30 2817 O 264.726 -0.372653 1.97922 0
M  V30 2818 C 261.791 -0.311967 3.45294 0
M  V30 2819 C 260.852 0.641098 4.24486 0
M  V30 2820 C 260.085 -0.0645955 5.33661 0
M  V30 2821 O 260.308 -1.28429 5.55754 0
M  V30 2822 O 259.242 0.606265 5.98839 0
M  V30 2823 H 263.068 1.28504 2.75173 0
M  V30 2824 H 260.653 0.691086 1.32455 0
M  V30 2825 H 262.535 -0.729972 4.15029 0
M  V30 2826 H 261.21 -1.14365 3.02824 0
M  V30 2827 H 260.117 1.10874 3.57292 0
M  V30 2828 H 261.45 1.43995 4.70666 0
M  V30 2829 N 263.102 -1.41638 0.69111 0
M  V30 2830 C 264.049 -2.30789 0.0229705 0
M  V30 2831 C 265.019 -1.46863 -0.775911 0
M  V30 2832 O 266.204 -1.75661 -0.74485 0
M  V30 2833 C 263.344 -3.32868 -0.910666 0
M  V30 2834 C 262.457 -4.31875 -0.103874 0
M  V30 2835 C 261.592 -5.21024 -1.03475 0
M  V30 2836 C 260.631 -6.11702 -0.220598 0
M  V30 2837 N 259.768 -6.93349 -1.10504 0
M  V30 2838 H 264.608 -2.87366 0.788978 0
M  V30 2839 H 262.145 -1.41535 0.400794 0
M  V30 2840 H 264.103 -3.90596 -1.46597 0
M  V30 2841 H 262.733 -2.77851 -1.64312 0
M  V30 2842 H 261.785 -3.76131 0.568285 0
M  V30 2843 H 263.097 -4.96003 0.527504 0
M  V30 2844 H 262.251 -5.83565 -1.65943 0
M  V30 2845 H 260.99 -4.57112 -1.69999 0
M  V30 2846 H 259.995 -5.48215 0.417187 0
M  V30 2847 H 261.22 -6.77668 0.440784 0
M  V30 2848 H 259.166 -6.3205 -1.75638 0
M  V30 2849 H 259.083 -7.54146 -0.529125 0
M  V30 2850 H 260.351 -7.60362 -1.71667 0
M  V30 2851 O 264.619 -0.577603 -1.50818 0
M  V30 2852 H 265.31 -0.0808444 -1.93531 0
M  V30 END ATOM
M  V30 BEGIN BOND
M  V30 END BOND
M  V30 END CTAB
M  END
$$$$
