drugbank_target|P00322 Flavodoxin (DB03247)
 OpenBabel12092120003D

  0  0  0     0  0            999 V3000
M  V30 BEGIN CTAB
M  V30 COUNTS 2118 2134 0 0 0
M  V30 BEGIN ATOM
M  V30 1 H -0.908 1.98254 -0.117106 0
M  V30 2 N 0 1.576 0 0
M  V30 3 C 0.933 2.03868 1.02534 0
M  V30 4 C 1.911 0.928543 1.3348 0
M  V30 5 O 3.095 1.19667 1.45644 0
M  V30 6 C 0.222 2.43627 2.35294 0
M  V30 7 C -0.732 3.65373 2.2001 0
M  V30 8 S 0.101 5.13292 1.52614 0
M  V30 9 C 1.257 5.56322 2.86805 0
M  V30 10 H 1.49 2.90518 0.631377 0
M  V30 11 H -0.977 1.52953 0.210867 0
M  V30 12 H 0.981 2.67203 3.11629 0
M  V30 13 H -0.358 1.57376 2.7183 0
M  V30 14 H -1.165 3.90944 3.18086 0
M  V30 15 H -1.563 3.418 1.51819 0
M  V30 16 H 0.729 5.58782 3.83104 0
M  V30 17 H 1.672 6.56266 2.65933 0
M  V30 18 H 2.08 4.83886 2.90714 0
M  V30 19 N 1.4781 -0.272755 1.55222 0
M  V30 20 C 2.4251 -1.33716 1.88119 0
M  V30 21 C 3.3951 -1.49066 0.73271 0
M  V30 22 O 4.5801 -1.63469 0.984002 0
M  V30 23 C 1.7201 -2.69238 2.15882 0
M  V30 24 C 0.8331 -2.62108 3.43399 0
M  V30 25 C -0.0319 -3.89811 3.60861 0
M  V30 26 C -0.9929 -3.77193 4.8207 0
M  V30 27 N -1.8559 -4.9673 4.96189 0
M  V30 28 H 2.9841 -1.04962 2.78903 0
M  V30 29 H 0.5211 -0.507088 1.38083 0
M  V30 30 H 2.4791 -3.48089 2.29978 0
M  V30 31 H 1.1091 -2.96194 1.28331 0
M  V30 32 H 0.1611 -1.74967 3.37773 0
M  V30 33 H 1.4731 -2.48685 4.32386 0
M  V30 34 H 0.6271 -4.77103 3.74777 0
M  V30 35 H -0.6339 -4.06102 2.7006 0
M  V30 36 H -1.6289 -2.88284 4.68159 0
M  V30 37 H -0.4039 -3.62421 5.74307 0
M  V30 38 H -2.4579 -5.13431 4.08319 0
M  V30 39 H -2.5409 -4.85839 5.79221 0
M  V30 40 H -1.2729 -5.85594 5.1449 0
M  V30 41 N 2.9562 -1.48159 -0.537278 0
M  V30 42 C 4.2052 -1.5506 -1.28993 0
M  V30 43 C 4.5182 -0.226211 -1.94288 0
M  V30 44 O 5.7242 -0.173395 -2.70946 0
M  V30 45 C 4.1802 -2.73429 -2.34018 0
M  V30 46 C 3.7882 -4.1248 -1.74825 0
M  V30 47 C 5.5322 -2.89638 -3.10339 0
M  V30 48 C 3.4392 -5.22121 -2.77747 0
M  V30 49 H 2.3692 -0.577231 -0.485098 0
M  V30 50 H 5.0202 -1.74478 -0.568317 0
M  V30 51 H 3.4022 -2.47431 -3.09182 0
M  V30 52 H 4.5762 -4.48466 -1.05899 0
M  V30 53 H 2.8912 -4.01327 -1.11022 0
M  V30 54 H 5.4882 -3.68718 -3.87235 0
M  V30 55 H 5.8312 -1.9882 -3.65754 0
M  V30 56 H 6.3642 -3.15502 -2.42288 0
M  V30 57 H 3.1032 -6.1488 -2.27161 0
M  V30 58 H 2.6232 -4.90631 -3.45024 0
M  V30 59 H 4.3022 -5.49924 -3.4087 0
M  V30 60 N 4.4343 0.785586 -1.36625 0
M  V30 61 C 5.6803 1.54591 -1.31261 0
M  V30 62 C 6.0133 1.93906 0.106823 0
M  V30 63 O 5.2883 1.63007 1.06108 0
M  V30 64 C 5.5713 2.82038 -2.23889 0
M  V30 65 C 5.4243 2.49066 -3.74548 0
M  V30 66 C 6.7433 3.83887 -2.15217 0
M  V30 67 H 3.8623 0.560846 -0.478143 0
M  V30 68 H 6.5043 0.902278 -1.67209 0
M  V30 69 H 4.6543 3.36961 -1.93363 0
M  V30 70 H 6.3263 2.00164 -4.15611 0
M  V30 71 H 4.5693 1.81954 -3.93796 0
M  V30 72 H 5.2403 3.40109 -4.34776 0
M  V30 73 H 7.7163 3.38421 -2.42096 0
M  V30 74 H 6.5923 4.70806 -2.82193 0
M  V30 75 H 6.8533 4.27131 -1.14068 0
M  V30 76 N 5.9124 1.20967 1.01018 0
M  V30 77 C 7.1424 1.04803 1.78044 0
M  V30 78 C 7.5504 -0.405462 1.84804 0
M  V30 79 O 6.8934 -1.2932 1.30468 0
M  V30 80 C 6.9554 1.56377 3.23707 0
M  V30 81 C 6.6194 3.04767 3.40538 0
M  V30 82 C 7.6164 4.02366 3.29239 0
M  V30 83 C 5.3014 3.43862 3.66147 0
M  V30 84 C 7.2954 5.37049 3.43304 0
M  V30 85 C 4.9824 4.78699 3.79855 0
M  V30 86 C 5.9804 5.75101 3.68439 0
M  V30 87 O 5.6684 7.07493 3.81719 0
M  V30 88 H 5.4004 0.368778 0.56655 0
M  V30 89 H 7.9544 1.60642 1.27997 0
M  V30 90 H 6.1844 0.949297 3.74867 0
M  V30 91 H 7.8734 1.36136 3.8239 0
M  V30 92 H 8.6394 3.73506 3.09384 0
M  V30 93 H 4.5184 2.69364 3.74118 0
M  V30 94 H 8.0624 6.12277 3.34309 0
M  V30 95 H 3.9594 5.07247 3.99213 0
M  V30 96 H 4.7274 7.1483 3.98697 0
M  V30 97 N 7.3905 -1.2043 1.01659 0
M  V30 98 C 8.6365 -1.90356 0.716674 0
M  V30 99 C 8.9915 -1.77367 -0.745557 0
M  V30 100 O 8.2845 -1.1471 -1.53467 0
M  V30 101 C 8.4785 -3.40464 1.08714 0
M  V30 102 C 8.3075 -3.6806 2.58384 0
M  V30 103 C 7.0775 -3.86775 3.25167 0
M  V30 104 C 9.2755 -3.70623 3.56572 0
M  V30 105 N 7.2575 -4.01889 4.64067 0
M  V30 106 C 8.6285 -3.91161 4.81034 0
M  V30 107 C 10.6835 -3.53586 3.50544 0
M  V30 108 C 9.3865 -3.96428 6.00198 0
M  V30 109 C 11.4125 -3.60125 4.6911 0
M  V30 110 C 10.7745 -3.81135 5.92381 0
M  V30 111 H 6.8735 -0.716226 0.313918 0
M  V30 112 H 9.4575 -1.44815 1.30141 0
M  V30 113 H 7.6285 -3.84757 0.530745 0
M  V30 114 H 9.3605 -3.97863 0.740763 0
M  V30 115 H 6.1155 -3.85156 2.75594 0
M  V30 116 H 6.5395 -4.13323 5.36184 0
M  V30 117 H 11.1815 -3.36308 2.56235 0
M  V30 118 H 8.8995 -4.12502 6.94887 0
M  V30 119 H 12.4855 -3.4825 4.66062 0
M  V30 120 H 11.3655 -3.86054 6.82592 0
M  V30 121 N 8.8686 -0.792821 -1.36206 0
M  V30 122 C 10.0936 -0.377701 -2.03932 0
M  V30 123 C 10.5186 0.998947 -1.59382 0
M  V30 124 O 9.8766 1.64421 -0.763903 0
M  V30 125 C 9.9246 -0.453635 -3.57735 0
M  V30 126 O 9.0286 0.538151 -4.08874 0
M  V30 127 H 8.3696 -0.159855 -0.644471 0
M  V30 128 H 10.8996 -1.07488 -1.7409 0
M  V30 129 H 10.9096 -0.318464 -4.06755 0
M  V30 130 H 9.5846 -1.45784 -3.89512 0
M  V30 131 H 8.1616 0.364359 -3.71116 0
M  V30 132 N 10.3467 1.47872 -0.545128 0
M  V30 133 C 11.5947 2.02093 -0.016553 0
M  V30 134 C 11.9157 1.42305 1.3332 0
M  V30 135 O 11.1857 0.593853 1.86682 0
M  V30 136 H 9.7657 0.746993 -0.00313038 0
M  V30 137 H 12.4277 1.81414 -0.712397 0
M  V30 138 H 11.5237 3.11996 0.0805422 0
M  V30 139 N 11.8248 0.280983 1.55075 0
M  V30 140 C 13.0528 -0.337293 2.04132 0
M  V30 141 C 13.4678 -1.4903 1.15912 0
M  V30 142 O 12.8248 -1.81606 0.180459 0
M  V30 143 C 12.8758 -0.812706 3.52246 0
M  V30 144 O 12.5968 0.294387 4.3711 0
M  V30 145 C 14.0978 -1.4982 4.17216 0
M  V30 146 H 11.3178 -0.0761638 0.666663 0
M  V30 147 H 13.8618 0.414787 2.00249 0
M  V30 148 H 12.0168 -1.51486 3.56554 0
M  V30 149 H 12.4308 -0.0721325 5.2445 0
M  V30 150 H 13.9048 -1.7822 5.22438 0
M  V30 151 H 14.3818 -2.43168 3.65741 0
M  V30 152 H 14.9878 -0.839742 4.16927 0
M  V30 153 N 13.3029 -1.57598 0.00835791 0
M  V30 154 C 14.5509 -1.90551 -0.6734 0
M  V30 155 C 14.8719 -0.883301 -1.73847 0
M  V30 156 O 14.1419 0.0781442 -1.95744 0
M  V30 157 H 12.7219 -0.703312 -0.251717 0
M  V30 158 H 15.3839 -1.94833 0.0512592 0
M  V30 159 H 14.4799 -2.9056 -1.13935 0
M  V30 160 N 14.781 0.264519 -1.55364 0
M  V30 161 C 15.729 1.34702 -1.89626 0
M  V30 162 C 16.723 1.50712 -0.773459 0
M  V30 163 O 17.929 1.52395 -0.957897 0
M  V30 164 H 14.304 0.450682 -0.601988 0
M  V30 165 H 16.275 1.0306 -2.80038 0
M  V30 166 C 15.024 2.6989 -2.19214 0
M  V30 167 H 14.347 2.58365 -3.05103 0
M  V30 168 H 15.787 3.44553 -2.47102 0
M  V30 169 C 14.246 3.21637 -1.00254 0
M  V30 170 O 14.776 4.00973 -0.241501 0
M  V30 171 N 12.982 2.7943 -0.797938 0
M  V30 172 H 12.529 2.15026 -1.4185 0
M  V30 173 H 12.487 3.144 -0.00363422 0
M  V30 174 N 16.2591 1.48442 0.529413 0
M  V30 175 C 17.4871 1.60151 1.30994 0
M  V30 176 C 17.9021 0.261985 1.86973 0
M  V30 177 O 17.2591 -0.748805 1.66431 0
M  V30 178 C 17.3101 2.64854 2.46038 0
M  V30 179 O 17.0311 3.93608 1.92365 0
M  V30 180 C 18.5321 2.87007 3.37849 0
M  V30 181 H 15.7521 0.539971 0.398338 0
M  V30 182 H 18.2961 1.94273 0.638597 0
M  V30 183 H 16.4511 2.33589 3.09055 0
M  V30 184 H 16.8651 4.51055 2.67675 0
M  V30 185 H 18.3391 3.64068 4.14919 0
M  V30 186 H 18.8161 1.95852 3.93114 0
M  V30 187 H 19.4221 3.19579 2.80623 0
M  V30 188 N 17.7372 -0.778329 1.37039 0
M  V30 189 C 18.6472 -1.92253 1.34446 0
M  V30 190 C 19.6632 -1.72267 0.244991 0
M  V30 191 O 20.8392 -1.95615 0.479258 0
M  V30 192 C 17.9042 -3.27282 1.144 0
M  V30 193 C 16.9652 -3.59969 2.33925 0
M  V30 194 C 16.1982 -4.88555 2.14825 0
M  V30 195 O 16.4212 -5.59113 1.12912 0
M  V30 196 O 15.3552 -5.20153 3.02861 0
M  V30 197 H 19.1812 -1.97392 2.30803 0
M  V30 198 H 16.7662 -0.920154 1.17701 0
M  V30 199 H 18.6482 -4.08062 1.05182 0
M  V30 200 H 17.3232 -3.23011 0.211124 0
M  V30 201 H 16.2302 -2.7945 2.48714 0
M  V30 202 H 17.5632 -3.68976 3.25757 0
M  V30 203 N 19.2153 -1.21501 -1.00376 0
M  V30 204 C 20.1623 -0.975387 -2.09177 0
M  V30 205 C 21.1323 0.0990615 -1.65804 0
M  V30 206 O 22.3173 -0.0483147 -1.90739 0
M  V30 207 C 19.4573 -0.547507 -3.40729 0
M  V30 208 C 18.5703 -1.69153 -3.97506 0
M  V30 209 C 17.7053 -1.2127 -5.17172 0
M  V30 210 C 16.7443 -2.32897 -5.66061 0
M  V30 211 N 15.8813 -1.86138 -6.76976 0
M  V30 212 H 20.7213 -1.9068 -2.29009 0
M  V30 213 H 18.2583 -0.950257 -1.12288 0
M  V30 214 H 20.2163 -0.280667 -4.16255 0
M  V30 215 H 18.8463 0.346904 -3.20931 0
M  V30 216 H 17.8983 -2.07298 -3.18954 0
M  V30 217 H 19.2103 -2.5316 -4.29781 0
M  V30 218 H 18.3643 -0.902591 -5.99948 0
M  V30 219 H 17.1033 -0.342692 -4.86495 0
M  V30 220 H 16.1083 -2.64709 -4.81881 0
M  V30 221 H 17.3333 -3.20396 -5.98768 0
M  V30 222 H 15.2793 -1.01484 -6.48103 0
M  V30 223 H 15.1963 -2.63717 -7.08512 0
M  V30 224 H 16.4643 -1.58165 -7.63285 0
M  V30 225 N 20.6934 1.19889 -1.02296 0
M  V30 226 C 21.6264 2.21639 -0.543282 0
M  V30 227 C 22.6044 1.57275 0.412698 0
M  V30 228 O 23.7884 1.85568 0.331198 0
M  V30 229 C 20.9154 3.38057 0.208571 0
M  V30 230 C 19.9614 4.20751 -0.697933 0
M  V30 231 S 20.7944 4.89529 -2.17075 0
M  V30 232 C 21.9504 6.09363 -1.42923 0
M  V30 233 H 22.1834 2.61984 -1.40541 0
M  V30 234 H 19.7164 1.30041 -0.832387 0
M  V30 235 H 21.6744 4.05539 0.63624 0
M  V30 236 H 20.3354 2.96159 1.04635 0
M  V30 237 H 19.5284 5.03862 -0.117831 0
M  V30 238 H 19.1304 3.58556 -1.06366 0
M  V30 239 H 21.4224 6.73742 -0.712637 0
M  V30 240 H 22.3654 6.71845 -2.23673 0
M  V30 241 H 22.7734 5.56798 -0.929327 0
M  V30 242 N 22.1715 0.800033 1.35784 0
M  V30 243 C 23.1345 0.211565 2.28221 0
M  V30 244 C 24.1345 -0.59728 1.49296 0
M  V30 245 O 25.3245 -0.416721 1.69142 0
M  V30 246 C 22.4565 -0.705846 3.33513 0
M  V30 247 H 23.6495 1.02677 2.81776 0
M  V30 248 H 21.2025 0.570211 1.45528 0
M  V30 249 H 21.9375 -1.54498 2.85133 0
M  V30 250 H 21.7225 -0.127655 3.91892 0
M  V30 251 H 23.2125 -1.11211 4.02519 0
M  V30 252 N 23.6496 -1.47581 0.552962 0
M  V30 253 C 24.5596 -2.33743 -0.200353 0
M  V30 254 C 25.5756 -1.47928 -0.916151 0
M  V30 255 O 26.7516 -1.80865 -0.885993 0
M  V30 256 C 23.8166 -3.24536 -1.21973 0
M  V30 257 C 22.8776 -4.26238 -0.511819 0
M  V30 258 C 22.1106 -5.12693 -1.48263 0
M  V30 259 O 22.3336 -5.01525 -2.71714 0
M  V30 260 O 21.2676 -5.93375 -1.00945 0
M  V30 261 H 25.0936 -2.9945 0.506304 0
M  V30 262 H 22.6786 -1.46071 0.313622 0
M  V30 263 H 24.5606 -3.80631 -1.80827 0
M  V30 264 H 23.2356 -2.61462 -1.90839 0
M  V30 265 H 22.1426 -3.73914 0.117799 0
M  V30 266 H 23.4756 -4.92014 0.135308 0
M  V30 267 N 25.1277 -0.289203 -1.54924 0
M  V30 268 C 26.0577 0.58549 -2.2604 0
M  V30 269 C 27.0387 1.14753 -1.25562 0
M  V30 270 O 28.2237 1.17906 -1.54311 0
M  V30 271 C 25.3537 1.76305 -2.99222 0
M  V30 272 C 24.3077 1.33191 -4.06748 0
M  V30 273 C 23.6337 2.5937 -4.6758 0
M  V30 274 C 24.9337 0.471775 -5.20165 0
M  V30 275 H 26.6277 -0.00763532 -2.99399 0
M  V30 276 H 24.1737 -0.00511229 -1.43999 0
M  V30 277 H 26.1267 2.38097 -3.47689 0
M  V30 278 H 24.8507 2.38223 -2.23422 0
M  V30 279 H 23.5097 0.737121 -3.59113 0
M  V30 280 H 23.1577 3.19576 -3.88433 0
M  V30 281 H 22.8577 2.31228 -5.40192 0
M  V30 282 H 24.3817 3.21985 -5.18804 0
M  V30 283 H 25.7957 0.995056 -5.64599 0
M  V30 284 H 24.1927 0.284639 -5.99425 0
M  V30 285 H 25.2627 -0.506041 -4.82252 0
M  V30 286 N 26.6058 1.57591 -0.0167156 0
M  V30 287 C 27.8548 1.90461 0.663877 0
M  V30 288 C 28.1678 0.893515 1.73999 0
M  V30 289 O 29.3738 1.11302 2.47637 0
M  V30 290 C 27.8298 3.38155 1.23204 0
M  V30 291 C 27.4378 4.47597 0.189866 0
M  V30 292 C 29.1818 3.80111 1.88986 0
M  V30 293 C 27.0888 5.86379 0.768964 0
M  V30 294 H 26.0188 0.710738 0.251729 0
M  V30 295 H 28.6698 1.83326 -0.0799926 0
M  V30 296 H 27.0518 3.40182 2.02712 0
M  V30 297 H 28.2258 4.57112 -0.581846 0
M  V30 298 H 26.5408 4.14766 -0.368475 0
M  V30 299 H 29.1378 4.81145 2.33247 0
M  V30 300 H 29.4808 3.14511 2.72743 0
M  V30 301 H 30.0138 3.80454 1.16187 0
M  V30 302 H 26.7528 6.55493 -0.0301957 0
M  V30 303 H 26.2728 5.80496 1.50945 0
M  V30 304 H 27.9518 6.34563 1.26251 0
M  V30 305 N 28.0839 -0.256276 1.55502 0
M  V30 306 C 29.0469 -1.30047 1.88734 0
M  V30 307 C 30.0469 -1.4154 0.763086 0
M  V30 308 O 31.2369 -1.40403 1.03115 0
M  V30 309 C 28.3689 -2.67953 2.10747 0
M  V30 310 H 29.5619 -1.01802 2.82093 0
M  V30 311 H 27.1149 -0.495134 1.4825 0
M  V30 312 H 27.8499 -3.01351 1.19825 0
M  V30 313 H 27.6349 -2.60993 2.92617 0
M  V30 314 H 29.1249 -3.43368 2.37673 0
M  V30 315 N 29.562 -1.4872 -0.521534 0
M  V30 316 C 30.509 -1.63871 -1.62527 0
M  V30 317 C 31.479 -0.480559 -1.58996 0
M  V30 318 O 32.664 -0.705085 -1.77294 0
M  V30 319 C 29.804 -1.69227 -3.00759 0
M  V30 320 C 28.917 -2.96207 -3.14461 0
M  V30 321 C 28.052 -2.92671 -4.43303 0
M  V30 322 C 27.091 -4.14318 -4.50563 0
M  V30 323 N 26.228 -4.0881 -5.70805 0
M  V30 324 H 31.068 -2.58123 -1.48918 0
M  V30 325 H 28.605 -1.28 -0.724878 0
M  V30 326 H 30.563 -1.70314 -3.80853 0
M  V30 327 H 29.193 -0.784586 -3.1312 0
M  V30 328 H 28.245 -3.04826 -2.27564 0
M  V30 329 H 29.557 -3.86192 -3.15686 0
M  V30 330 H 28.711 -2.92206 -5.31696 0
M  V30 331 H 27.45 -2.00429 -4.44612 0
M  V30 332 H 26.455 -4.15049 -3.60575 0
M  V30 333 H 27.68 -5.07729 -4.50986 0
M  V30 334 H 25.626 -3.19394 -5.72995 0
M  V30 335 H 25.543 -4.92509 -5.7356 0
M  V30 336 H 26.811 -4.12418 -6.61462 0
M  V30 337 N 31.0401 0.771051 -1.3745 0
M  V30 338 C 32.2881 1.52661 -1.32435 0
M  V30 339 C 32.6091 1.9479 0.0905024 0
M  V30 340 O 31.8791 1.66348 1.03466 0
M  V30 341 H 30.4591 0.566218 -0.487244 0
M  V30 342 H 33.1211 0.917636 -1.71946 0
M  V30 343 H 32.2171 2.42568 -1.96385 0
M  V30 344 N 32.5182 1.22032 0.997298 0
M  V30 345 C 33.7672 1.03637 1.73038 0
M  V30 346 C 34.0802 -0.429475 1.90827 0
M  V30 347 O 35.2862 -0.732995 2.61418 0
M  V30 348 C 33.7422 1.80582 3.11317 0
M  V30 349 C 33.3502 3.31387 3.01474 0
M  V30 350 C 35.0942 1.70621 3.88701 0
M  V30 351 C 33.0012 4.00791 4.3488 0
M  V30 352 H 31.9312 0.384179 0.648785 0
M  V30 353 H 34.5822 1.4584 1.11368 0
M  V30 354 H 32.9642 1.31175 3.73643 0
M  V30 355 H 34.1382 3.88155 2.4834 0
M  V30 356 H 32.4532 3.41976 2.37575 0
M  V30 357 H 35.0502 2.19799 4.87434 0
M  V30 358 H 35.3932 0.665823 4.10941 0
M  V30 359 H 35.9262 2.17547 3.33044 0
M  V30 360 H 32.6652 5.05064 4.1784 0
M  V30 361 H 32.1852 3.48811 4.87945 0
M  V30 362 H 33.8642 4.06139 5.03647 0
M  V30 363 N 33.9963 -1.19345 1.0293 0
M  V30 364 C 35.2453 -1.88363 0.721256 0
M  V30 365 C 35.5583 -1.80514 -0.753254 0
M  V30 366 O 36.7643 -2.44788 -1.17436 0
M  V30 367 C 35.2203 -3.37872 1.23978 0
M  V30 368 C 34.8283 -3.54278 2.74211 0
M  V30 369 C 36.5723 -4.12365 1.00775 0
M  V30 370 C 34.4793 -4.97682 3.19479 0
M  V30 371 H 33.4093 -0.705484 0.266098 0
M  V30 372 H 36.0603 -1.34928 1.24365 0
M  V30 373 H 34.4423 -3.90707 0.6453 0
M  V30 374 H 35.6163 -3.11769 3.39318 0
M  V30 375 H 33.9313 -2.93174 2.95699 0
M  V30 376 H 36.5283 -5.18119 1.32123 0
M  V30 377 H 36.8713 -4.16263 -0.0554308 0
M  V30 378 H 37.4043 -3.65668 1.56625 0
M  V30 379 H 34.1433 -4.98945 4.25128 0
M  V30 380 H 33.6633 -5.4095 2.591 0
M  V30 381 H 35.3423 -5.66337 3.12845 0
M  V30 382 N 35.4744 -0.807222 -1.35358 0
M  V30 383 C 36.3844 -0.219594 -2.3357 0
M  V30 384 C 37.4004 0.637734 -1.61892 0
M  V30 385 O 38.5764 0.549336 -1.93763 0
M  V30 386 C 35.6414 0.62158 -3.41083 0
M  V30 387 C 34.7024 -0.256315 -4.28534 0
M  V30 388 C 33.9354 0.544807 -5.30912 0
M  V30 389 O 34.1584 1.77944 -5.41934 0
M  V30 390 O 33.0924 -0.0646478 -6.01865 0
M  V30 391 H 36.9184 -1.03208 -2.85625 0
M  V30 392 H 34.5034 -0.569025 -1.38139 0
M  V30 393 H 36.3854 1.10067 -4.06772 0
M  V30 394 H 35.0604 1.41165 -2.91297 0
M  V30 395 H 33.9674 -0.782559 -3.65823 0
M  V30 396 H 35.3004 -1.01034 -4.81719 0
M  V30 397 N 36.9525 1.47285 -0.560781 0
M  V30 398 C 38.1775 2.07359 -0.0410566 0
M  V30 399 C 38.6025 1.41017 1.24483 0
M  V30 400 O 37.9605 0.486368 1.74654 0
M  V30 401 C 38.0085 3.6035 0.134123 0
M  V30 402 O 37.1125 3.94681 1.19587 0
M  V30 403 H 36.4535 0.661887 -0.0529291 0
M  V30 404 H 38.9835 1.89252 -0.777482 0
M  V30 405 H 38.9935 4.0652 0.347207 0
M  V30 406 H 37.6685 4.08034 -0.805047 0
M  V30 407 H 36.2455 3.60251 0.962987 0
M  V30 408 N 38.4306 0.297415 1.54768 0
M  V30 409 C 39.6786 -0.312295 1.99673 0
M  V30 410 C 39.9996 -1.54686 1.18732 0
M  V30 411 O 39.2696 -1.93854 0.282382 0
M  V30 412 H 37.8496 -0.118381 0.73756 0
M  V30 413 H 40.5116 0.407915 1.90583 0
M  V30 414 H 39.6076 -0.586813 3.06534 0
M  V30 415 N 39.9087 -1.5758 0.0250728 0
M  V30 416 C 40.8557 -2.09973 -0.958129 0
M  V30 417 C 41.8257 -1.00085 -1.3256 0
M  V30 418 O 43.0107 -1.27481 -1.41962 0
M  V30 419 C 40.1507 -2.62812 -2.2366 0
M  V30 420 C 39.2637 -3.86693 -1.92594 0
M  V30 421 C 38.3987 -4.27941 -3.14707 0
M  V30 422 C 37.4377 -5.44591 -2.79442 0
M  V30 423 N 36.5747 -5.81014 -3.94167 0
M  V30 424 H 41.4147 -2.937 -0.504428 0
M  V30 425 H 38.9517 -1.45172 -0.237392 0
M  V30 426 H 40.9097 -2.91536 -2.98434 0
M  V30 427 H 39.5397 -1.81922 -2.66654 0
M  V30 428 H 38.5917 -3.64723 -1.0808 0
M  V30 429 H 39.9037 -4.71547 -1.62619 0
M  V30 430 H 39.0577 -4.58079 -3.97804 0
M  V30 431 H 37.7967 -3.41845 -3.4784 0
M  V30 432 H 36.8017 -5.1415 -1.94755 0
M  V30 433 H 38.0267 -6.32382 -2.47528 0
M  V30 434 H 35.9727 -4.97874 -4.2715 0
M  V30 435 H 35.8897 -6.60498 -3.67801 0
M  V30 436 H 37.1577 -6.15756 -4.7798 0
M  V30 437 N 41.3868 0.248026 -1.55636 0
M  V30 438 C 42.6638 0.998988 -1.68165 0
M  V30 439 C 43.0438 2.03409 -0.564621 0
M  V30 440 O 42.3918 2.24378 0.432076 0
M  V30 441 C 42.6018 1.63334 -3.0842 0
M  V30 442 C 43.9498 2.13562 -3.66983 0
M  V30 443 O 44.9738 1.73277 -3.11213 0
M  V30 444 O 43.8328 2.87526 -4.64749 0
M  V30 445 H 40.9268 0.464933 -0.683935 0
M  V30 446 H 43.4728 0.241902 -1.67967 0
M  V30 447 H 42.2448 0.884583 -3.8117 0
M  V30 448 H 41.8678 2.45666 -3.12624 0
M  V30 449 N 42.8649 1.48995 0.513639 0
M  V30 450 C 44.1109 1.58076 1.27042 0
M  V30 451 C 44.4439 0.261026 1.92438 0
M  V30 452 O 43.7189 -0.734393 1.80103 0
M  V30 453 C 44.0019 2.73091 2.34719 0
M  V30 454 C 43.8549 4.14821 1.73907 0
M  V30 455 C 45.1739 2.83796 3.36375 0
M  V30 456 H 42.2929 0.575391 0.460536 0
M  V30 457 H 44.9349 1.81232 0.570516 0
M  V30 458 H 43.0849 2.53479 2.94416 0
M  V30 459 H 44.7569 4.45917 1.18135 0
M  V30 460 H 42.9999 4.21058 1.0437 0
M  V30 461 H 43.6709 4.91147 2.51949 0
M  V30 462 H 46.1469 3.01611 2.86653 0
M  V30 463 H 45.0229 3.65971 4.09093 0
M  V30 464 H 45.2839 1.92624 3.9793 0
M  V30 465 N 44.343 -0.763751 1.37857 0
M  V30 466 C 45.291 -1.89864 1.34367 0
M  V30 467 C 46.285 -1.67816 0.231143 0
M  V30 468 O 47.491 -1.75508 0.399617 0
M  V30 469 H 43.866 -0.624501 0.41893 0
M  V30 470 H 45.837 -1.89925 2.30155 0
M  V30 471 C 44.586 -3.27227 1.1755 0
M  V30 472 H 43.909 -3.44773 2.02414 0
M  V30 473 H 45.349 -4.06911 1.1916 0
M  V30 474 C 43.808 -3.36692 -0.118311 0
M  V30 475 O 44.338 -3.86374 -1.09902 0
M  V30 476 N 42.544 -2.90092 -0.171717 0
M  V30 477 H 42.091 -2.49853 0.627012 0
M  V30 478 H 42.049 -2.96806 -1.03699 0
M  V30 479 N 45.8211 -1.22559 -0.990812 0
M  V30 480 C 47.0491 -1.07779 -1.76611 0
M  V30 481 C 47.4641 0.371513 -1.85109 0
M  V30 482 O 46.8211 1.25737 -1.32274 0
M  V30 483 C 46.8721 -1.68512 -3.19822 0
M  V30 484 O 46.5931 -3.07774 -3.1178 0
M  V30 485 C 48.0941 -1.59035 -4.13791 0
M  V30 486 H 45.3141 -0.377729 -0.554583 0
M  V30 487 H 47.8581 -1.62195 -1.24551 0
M  V30 488 H 46.0131 -1.18154 -3.68942 0
M  V30 489 H 46.4271 -3.37062 -4.01858 0
M  V30 490 H 47.9011 -2.0625 -5.1202 0
M  V30 491 H 48.3781 -0.547273 -4.35777 0
M  V30 492 H 48.9841 -2.08709 -3.70568 0
M  V30 493 N 47.2992 1.18797 -1.03562 0
M  V30 494 C 48.5482 1.87978 -0.731235 0
M  V30 495 C 48.8612 1.80911 0.743671 0
M  V30 496 O 50.0672 2.45407 1.16137 0
M  V30 497 C 48.5232 3.3721 -1.25768 0
M  V30 498 C 48.1312 3.52818 -2.76085 0
M  V30 499 C 49.8752 4.11825 -1.0296 0
M  V30 500 C 47.7822 4.9598 -3.22114 0
M  V30 501 H 46.7122 0.704063 -0.269835 0
M  V30 502 H 49.3632 1.34266 -1.25079 0
M  V30 503 H 47.7452 3.90359 -0.666011 0
M  V30 504 H 48.9192 3.09965 -3.40966 0
M  V30 505 H 47.2342 2.91602 -2.97249 0
M  V30 506 H 49.8312 5.17411 -1.34869 0
M  V30 507 H 50.1742 4.16287 0.0333546 0
M  V30 508 H 50.7072 3.64833 -1.58562 0
M  V30 509 H 47.4462 4.96684 -4.27768 0
M  V30 510 H 46.9662 5.39569 -2.61965 0
M  V30 511 H 48.6452 5.6467 -3.15844 0
M  V30 512 N 48.7773 0.814389 1.34928 0
M  V30 513 C 49.7253 0.218424 2.31572 0
M  V30 514 C 50.7193 -0.636128 1.57002 0
M  V30 515 O 51.9253 -0.52842 1.72069 0
M  V30 516 H 48.3003 0.0518799 0.750208 0
M  V30 517 H 50.2713 1.04852 2.79372 0
M  V30 518 C 49.0203 -0.61207 3.4227 0
M  V30 519 H 48.3433 0.0361578 3.99784 0
M  V30 520 H 49.7833 -0.995317 4.12152 0
M  V30 521 C 48.2423 -1.78087 2.85984 0
M  V30 522 O 48.7723 -2.8787 2.80168 0
M  V30 523 N 46.9783 -1.59488 2.42924 0
M  V30 524 H 46.5253 -0.701874 2.47854 0
M  V30 525 H 46.4833 -2.37846 2.05613 0
M  V30 526 N 50.2554 -1.46986 0.568584 0
M  V30 527 C 51.5014 -2.02741 0.0488709 0
M  V30 528 C 51.8344 -1.44077 -1.30214 0
M  V30 529 O 51.1094 -0.600552 -1.84996 0
M  V30 530 C 51.3924 -3.60086 -0.032047 0
M  V30 531 C 51.2454 -4.29162 1.34686 0
M  V30 532 C 52.5644 -4.33838 -0.739798 0
M  V30 533 H 49.6834 -0.736749 0.0192338 0
M  V30 534 H 52.3254 -1.75289 0.733065 0
M  V30 535 H 50.4754 -3.83606 -0.61473 0
M  V30 536 H 52.1474 -4.16948 1.97362 0
M  V30 537 H 50.3904 -3.89073 1.91846 0
M  V30 538 H 51.0614 -5.37826 1.24285 0
M  V30 539 H 53.5374 -4.15378 -0.244939 0
M  V30 540 H 52.4134 -5.43537 -0.765406 0
M  V30 541 H 52.6744 -4.03875 -1.79827 0
M  V30 542 N 51.7335 -0.305618 -1.54608 0
M  V30 543 C 52.9585 0.307562 -2.05107 0
M  V30 544 C 53.3835 1.46385 -1.18123 0
M  V30 545 O 52.7415 1.8034 -0.186324 0
M  V30 546 C 52.7895 0.73704 -3.52987 0
M  V30 547 O 51.8935 1.84134 -3.6901 0
M  V30 548 H 51.2345 0.0589143 -0.661381 0
M  V30 549 H 53.7645 -0.448807 -1.99617 0
M  V30 550 H 53.7745 1.02459 -3.94925 0
M  V30 551 H 52.4495 -0.108773 -4.15758 0
M  V30 552 H 51.0265 1.55398 -3.38978 0
M  V30 553 N 53.2116 1.57565 -0.0334293 0
M  V30 554 C 54.4886 1.83282 0.683163 0
M  V30 555 C 54.8686 0.91823 1.90084 0
M  V30 556 O 54.2166 -0.025113 2.28486 0
M  V30 557 C 54.4266 3.32599 1.0573 0
M  V30 558 C 55.7746 3.99179 1.44711 0
M  V30 559 O 56.7986 3.3712 1.15015 0
M  V30 560 O 55.6576 5.08565 2.0006 0
M  V30 561 H 52.7516 0.755869 0.335546 0
M  V30 562 H 55.2976 1.69589 -0.0614402 0
M  V30 563 H 54.0696 3.90834 0.190828 0
M  V30 564 H 53.6926 3.51415 1.85993 0
M  V30 565 N 54.6897 -0.239769 1.55765 0
M  V30 566 C 55.9357 -0.968234 1.78194 0
M  V30 567 C 56.2687 -1.84701 0.599938 0
M  V30 568 O 55.5437 -1.9031 -0.401524 0
M  V30 569 C 55.8267 -1.8227 3.10564 0
M  V30 570 C 55.6797 -0.971633 4.3918 0
M  V30 571 C 56.9987 -2.80388 3.39221 0
M  V30 572 H 54.1177 -0.350572 0.648281 0
M  V30 573 H 56.7597 -0.238259 1.885 0
M  V30 574 H 54.9097 -2.44507 3.01908 0
M  V30 575 H 56.5817 -0.367408 4.59835 0
M  V30 576 H 54.8247 -0.276276 4.32919 0
M  V30 577 H 55.4957 -1.60346 5.28198 0
M  V30 578 H 57.9717 -2.28287 3.47885 0
M  V30 579 H 56.8477 -3.3729 4.33044 0
M  V30 580 H 57.1087 -3.57212 2.60484 0
M  V30 581 N 56.1678 -1.49265 -0.50573 0
M  V30 582 C 57.1158 -1.66065 -1.62866 0
M  V30 583 C 58.1098 -0.526636 -1.61006 0
M  V30 584 O 59.3158 -0.706126 -1.65571 0
M  V30 585 H 55.6908 -0.52356 -0.539805 0
M  V30 586 H 57.6618 -2.60329 -1.45848 0
M  V30 587 C 56.4108 -1.74008 -3.01026 0
M  V30 588 H 55.7338 -2.6064 -3.03161 0
M  V30 589 H 57.1738 -1.89798 -3.79147 0
M  V30 590 C 55.6328 -0.483868 -3.33407 0
M  V30 591 O 56.1628 0.392548 -3.99777 0
M  V30 592 N 54.3688 -0.348236 -2.88506 0
M  V30 593 H 53.9158 -1.06242 -2.34671 0
M  V30 594 H 53.8738 0.491204 -3.10539 0
M  V30 595 N 57.6459 0.756429 -1.3826 0
M  V30 596 C 58.8949 1.51082 -1.3363 0
M  V30 597 C 59.2079 1.95467 0.0720068 0
M  V30 598 O 60.4139 2.7043 0.240834 0
M  V30 599 C 58.8699 2.72893 -2.34644 0
M  V30 600 C 58.4779 2.35544 -3.81081 0
M  V30 601 C 60.2219 3.50791 -2.39052 0
M  V30 602 C 58.1289 3.53948 -4.73787 0
M  V30 603 H 57.0589 0.56727 -0.49671 0
M  V30 604 H 59.7099 0.827147 -1.638 0
M  V30 605 H 58.0919 3.43227 -1.97513 0
M  V30 606 H 59.2659 1.72894 -4.27135 0
M  V30 607 H 57.5809 1.70786 -3.79764 0
M  V30 608 H 60.1779 4.38823 -3.05513 0
M  V30 609 H 60.5209 3.91745 -1.40861 0
M  V30 610 H 61.0539 2.87467 -2.74968 0
M  V30 611 H 57.7929 3.18064 -5.73163 0
M  V30 612 H 57.3129 4.15651 -4.32428 0
M  V30 613 H 58.9919 4.20566 -4.91663 0
M  V30 614 N 59.124 1.23083 0.984299 0
M  V30 615 C 60.401 0.9689 1.69917 0
M  V30 616 C 60.781 -0.513604 2.04757 0
M  V30 617 O 60.129 -1.48383 1.73767 0
M  V30 618 C 60.339 1.87518 2.94343 0
M  V30 619 C 61.687 2.13636 3.6694 0
M  V30 620 O 62.711 1.85036 3.04368 0
M  V30 621 O 61.57 2.62119 4.79537 0
M  V30 622 H 58.664 0.365095 0.742048 0
M  V30 623 H 61.21 1.34107 1.03987 0
M  V30 624 H 59.982 2.87756 2.65164 0
M  V30 625 H 59.605 1.50514 3.6801 0
M  V30 626 N 60.6021 -1.18246 1.0419 0
M  V30 627 C 61.5121 -2.25574 0.644476 0
M  V30 628 C 62.5281 -1.70845 -0.329826 0
M  V30 629 O 63.7041 -2.00554 -0.184443 0
M  V30 630 C 60.7691 -3.46697 0.014877 0
M  V30 631 C 59.8301 -4.16554 1.03834 0
M  V30 632 C 59.0631 -5.31894 0.438692 0
M  V30 633 O 59.2861 -5.65385 -0.754752 0
M  V30 634 O 58.2201 -5.90459 1.168 0
M  V30 635 H 62.0461 -2.61836 1.53869 0
M  V30 636 H 59.6311 -1.25352 0.812854 0
M  V30 637 H 61.5131 -4.20062 -0.335538 0
M  V30 638 H 60.1881 -3.12255 -0.853138 0
M  V30 639 H 59.0951 -3.45251 1.44057 0
M  V30 640 H 60.4281 -4.54998 1.87716 0
M  V30 641 N 62.0802 -0.821533 -1.34494 0
M  V30 642 C 63.0102 -0.257138 -2.3208 0
M  V30 643 C 63.9912 0.625645 -1.58176 0
M  V30 644 O 65.1762 0.552811 -1.86166 0
M  V30 645 C 62.3062 0.582958 -3.42372 0
M  V30 646 C 61.2602 -0.202571 -4.2752 0
M  V30 647 C 60.5862 0.760179 -5.29269 0
M  V30 648 C 61.8862 -1.40998 -5.02908 0
M  V30 649 H 63.5802 -1.07247 -2.79532 0
M  V30 650 H 61.1262 -0.517163 -1.34393 0
M  V30 651 H 63.0792 0.987972 -4.09655 0
M  V30 652 H 61.8032 1.43133 -2.93565 0
M  V30 653 H 60.4622 -0.588936 -3.61838 0
M  V30 654 H 60.1102 1.60447 -4.76724 0
M  V30 655 H 59.8102 0.238809 -5.87115 0
M  V30 656 H 61.3342 1.16308 -5.9942 0
M  V30 657 H 62.7482 -1.07905 -5.63054 0
M  V30 658 H 61.1452 -1.86689 -5.70322 0
M  V30 659 H 62.2152 -2.1889 -4.32684 0
M  V30 660 N 63.5583 1.46682 -0.576371 0
M  V30 661 C 64.4883 2.33028 0.148397 0
M  V30 662 C 65.4693 1.44961 0.889956 0
M  V30 663 O 66.6543 1.73789 0.866662 0
M  V30 664 C 63.7843 3.27117 1.1667 0
M  V30 665 C 62.7383 4.24575 0.540386 0
M  V30 666 C 62.0643 5.08126 1.6647 0
M  V30 667 C 63.3643 5.19722 -0.518331 0
M  V30 668 H 65.0583 2.93875 -0.572509 0
M  V30 669 H 62.6043 1.41315 -0.276768 0
M  V30 670 H 64.5573 3.86374 1.68204 0
M  V30 671 H 63.2813 2.64364 1.9178 0
M  V30 672 H 61.9403 3.66571 0.0461769 0
M  V30 673 H 61.5883 4.41762 2.40531 0
M  V30 674 H 61.2883 5.74122 1.25131 0
M  V30 675 H 62.8123 5.70246 2.18293 0
M  V30 676 H 64.2263 5.73232 -0.0883058 0
M  V30 677 H 62.6233 5.94026 -0.851679 0
M  V30 678 H 63.6933 4.64037 -1.40703 0
M  V30 679 N 65.0364 0.313813 1.54444 0
M  V30 680 C 65.9844 -0.572171 2.25453 0
M  V30 681 C 66.9784 -1.12657 1.2651 0
M  V30 682 O 68.1844 -1.07573 1.44319 0
M  V30 683 H 64.5594 -0.203146 0.724041 0
M  V30 684 H 66.5304 0.0491145 2.9836 0
M  V30 685 C 65.2794 -1.72626 3.0182 0
M  V30 686 H 64.6024 -1.30891 3.77767 0
M  V30 687 H 66.0424 -2.32199 3.54767 0
M  V30 688 C 64.5014 -2.63806 2.09542 0
M  V30 689 O 65.0314 -3.65256 1.67185 0
M  V30 690 N 63.2374 -2.31824 1.75232 0
M  V30 691 H 62.7844 -1.49368 2.09873 0
M  V30 692 H 62.7424 -2.93095 1.13767 0
M  V30 693 N 66.5145 -1.57545 0.0417849 0
M  V30 694 C 67.4245 -2.14451 -0.951213 0
M  V30 695 C 68.4405 -1.09992 -1.34825 0
M  V30 696 O 69.6165 -1.42114 -1.42708 0
M  V30 697 C 66.6815 -2.67063 -2.21084 0
M  V30 698 C 65.7425 -3.86284 -1.87304 0
M  V30 699 C 64.9755 -4.36378 -3.07261 0
M  V30 700 O 65.1985 -3.85587 -4.20332 0
M  V30 701 O 64.1325 -5.28077 -2.88822 0
M  V30 702 H 67.9585 -2.99601 -0.497287 0
M  V30 703 H 65.5435 -1.48317 -0.179567 0
M  V30 704 H 67.4255 -3.00914 -2.95006 0
M  V30 705 H 66.1005 -1.84989 -2.65633 0
M  V30 706 H 65.0075 -3.57338 -1.10727 0
M  V30 707 H 66.3405 -4.6956 -1.47562 0
M  V30 708 N 67.9926 0.231505 -1.5589 0
M  V30 709 C 69.2696 0.981096 -1.69215 0
M  V30 710 C 69.6496 2.02799 -0.586164 0
M  V30 711 O 68.9976 2.24823 0.408253 0
M  V30 712 C 69.2076 1.60054 -3.10135 0
M  V30 713 C 70.5556 2.09658 -3.69227 0
M  V30 714 O 71.5796 1.69967 -3.13033 0
M  V30 715 O 70.4386 2.8258 -4.67772 0
M  V30 716 H 67.5326 0.457653 -0.688827 0
M  V30 717 H 70.0786 0.224073 -1.68214 0
M  V30 718 H 68.8506 0.844105 -3.82087 0
M  V30 719 H 68.4736 2.42336 -3.15212 0
M  V30 720 N 69.4707 1.49531 0.497807 0
M  V30 721 C 70.7197 1.58426 1.24837 0
M  V30 722 C 71.0327 0.277643 1.93619 0
M  V30 723 O 72.2387 0.24517 2.70391 0
M  V30 724 C 70.6947 2.79538 2.26686 0
M  V30 725 C 70.3027 4.16971 1.63828 0
M  V30 726 C 72.0467 2.97764 3.0255 0
M  V30 727 C 69.9537 5.29301 2.63807 0
M  V30 728 H 68.8837 0.58989 0.469623 0
M  V30 729 H 71.5347 1.75923 0.521857 0
M  V30 730 H 69.9167 2.55542 3.02514 0
M  V30 731 H 71.0907 4.51116 0.939711 0
M  V30 732 H 69.4057 4.04129 1.00342 0
M  V30 733 H 72.0027 3.78856 3.77323 0
M  V30 734 H 72.3457 2.08448 3.60354 0
M  V30 735 H 72.8787 3.21815 2.33838 0
M  V30 736 H 69.6177 6.20687 2.10779 0
M  V30 737 H 69.1377 4.99606 3.31894 0
M  V30 738 H 70.8167 5.58768 3.2617 0
M  V30 739 N 70.9488 -0.749086 1.3866 0
M  V30 740 C 71.8788 -1.8764 1.38973 0
M  V30 741 C 72.8598 -1.68178 0.255004 0
M  V30 742 O 74.0448 -1.88704 0.458754 0
M  V30 743 C 71.1748 -3.25222 1.21851 0
M  V30 744 C 70.1288 -3.59295 2.32575 0
M  V30 745 C 69.4548 -4.95663 2.00555 0
M  V30 746 C 70.7548 -3.63709 3.7485 0
M  V30 747 H 72.4488 -1.87635 2.3331 0
M  V30 748 H 69.9948 -0.901329 1.12303 0
M  V30 749 H 71.9478 -4.03746 1.20695 0
M  V30 750 H 70.6718 -3.25719 0.239775 0
M  V30 751 H 69.3308 -2.83093 2.32925 0
M  V30 752 H 68.9788 -4.92724 1.01154 0
M  V30 753 H 68.6788 -5.19429 2.74714 0
M  V30 754 H 70.2028 -5.7656 2.01024 0
M  V30 755 H 71.6168 -4.32338 3.76506 0
M  V30 756 H 70.0138 -3.98986 4.48252 0
M  V30 757 H 71.0838 -2.63834 4.06841 0
M  V30 758 N 72.4269 -1.23603 -0.977757 0
M  V30 759 C 73.6759 -1.06377 -1.71368 0
M  V30 760 C 73.9889 0.399062 -1.91486 0
M  V30 761 O 75.1949 0.691312 -2.62551 0
M  V30 762 C 73.6509 -1.85512 -3.08404 0
M  V30 763 C 73.2589 -3.36141 -2.96164 0
M  V30 764 C 75.0029 -1.76783 -3.85938 0
M  V30 765 C 72.9099 -4.07659 -4.28449 0
M  V30 766 H 71.8399 -0.394452 -0.642591 0
M  V30 767 H 74.4909 -1.47594 -1.09034 0
M  V30 768 H 72.8729 -1.37103 -3.71509 0
M  V30 769 H 74.0469 -3.92056 -2.42133 0
M  V30 770 H 72.3619 -3.45712 -2.32104 0
M  V30 771 H 74.9589 -2.27526 -4.83876 0
M  V30 772 H 75.3019 -0.731116 -4.0983 0
M  V30 773 H 75.8349 -2.22818 -3.2954 0
M  V30 774 H 72.5739 -5.11648 -4.09752 0
M  V30 775 H 72.0939 -3.5653 -4.82334 0
M  V30 776 H 73.7729 -4.141 -4.97122 0
M  V30 777 N 73.905 1.17692 -1.04816 0
M  V30 778 C 74.835 2.23777 -0.666791 0
M  V30 779 C 75.816 1.66796 0.33361 0
M  V30 780 O 77.001 1.93039 0.212042 0
M  V30 781 C 74.131 3.47281 -0.0367933 0
M  V30 782 C 73.085 4.17059 -0.961546 0
M  V30 783 C 72.411 5.34342 -0.195626 0
M  V30 784 C 73.711 4.69713 -2.28402 0
M  V30 785 H 75.405 2.55933 -1.55367 0
M  V30 786 H 72.951 1.23019 -0.748484 0
M  V30 787 H 74.904 4.20706 0.241775 0
M  V30 788 H 73.628 3.14381 0.885004 0
M  V30 789 H 72.287 3.45541 -1.22462 0
M  V30 790 H 71.935 4.97692 0.728816 0
M  V30 791 H 71.635 5.81966 -0.811775 0
M  V30 792 H 73.159 6.10553 0.0757473 0
M  V30 793 H 74.573 5.34794 -2.06563 0
M  V30 794 H 72.97 5.279 -2.8538 0
M  V30 795 H 74.04 3.86726 -2.92525 0
M  V30 796 N 75.3831 0.828654 1.34056 0
M  V30 797 C 76.6311 0.41863 1.97717 0
M  V30 798 C 76.9521 -1.02314 1.66002 0
M  V30 799 O 76.2221 -1.71119 0.953683 0
M  V30 800 H 74.8021 0.151809 0.731412 0
M  V30 801 H 77.4641 1.05936 1.63596 0
M  V30 802 H 76.5601 0.542318 3.07352 0
M  V30 803 N 76.8612 -1.46375 0.584142 0
M  V30 804 C 78.1012 -2.0427 0.0729695 0
M  V30 805 C 78.4652 -1.44563 -1.26355 0
M  V30 806 O 79.6662 -1.93667 -1.86405 0
M  V30 807 C 77.9372 -3.57399 0.00967464 0
M  V30 808 S 79.4962 -4.36551 -0.443714 0
M  V30 809 H 76.3142 -0.709975 0.0381673 0
M  V30 810 H 78.9162 -1.79398 0.776962 0
M  V30 811 H 77.6202 -3.98372 0.986319 0
M  V30 812 H 77.1512 -3.8681 -0.717044 0
M  V30 813 H 79.1662 -4.66237 -1.69816 0
M  V30 814 N 78.3393 -0.321999 -1.54275 0
M  V30 815 C 79.5643 0.285791 -2.05422 0
M  V30 816 C 79.9893 1.45124 -1.19669 0
M  V30 817 O 79.3473 1.80132 -0.205441 0
M  V30 818 C 79.3953 0.69956 -3.53749 0
M  V30 819 O 78.4993 1.8021 -3.70942 0
M  V30 820 H 77.8403 0.0518962 -0.661969 0
M  V30 821 H 80.3703 -0.469954 -1.9913 0
M  V30 822 H 80.3803 0.982649 -3.9599 0
M  V30 823 H 79.0553 -0.152864 -4.15619 0
M  V30 824 H 77.6323 1.51794 -3.40607 0
M  V30 825 N 79.8174 1.5752 -0.0501392 0
M  V30 826 C 80.7804 2.1037 0.909786 0
M  V30 827 C 81.7804 1.02308 1.24056 0
M  V30 828 O 82.9704 1.28385 1.17741 0
M  V30 829 C 80.1024 2.58708 2.21998 0
M  V30 830 H 81.2954 2.96479 0.451665 0
M  V30 831 H 78.8484 1.55038 0.198248 0
M  V30 832 H 79.5834 1.75989 2.72394 0
M  V30 833 H 79.3684 3.37675 1.99295 0
M  V30 834 H 80.8584 2.99747 2.9076 0
M  V30 835 N 81.2955 -0.223234 1.56011 0
M  V30 836 C 82.2285 -1.30377 1.87289 0
M  V30 837 C 83.2065 -1.45286 0.730112 0
M  V30 838 O 84.3905 -1.61126 0.978302 0
M  V30 839 C 81.5175 -2.67431 2.07843 0
M  V30 840 C 80.5635 -2.69546 3.30526 0
M  V30 841 S 81.3965 -2.23781 4.865 0
M  V30 842 C 82.5525 -3.62714 5.10088 0
M  V30 843 H 82.7855 -1.03652 2.78646 0
M  V30 844 H 80.3185 -0.425393 1.48424 0
M  V30 845 H 82.2765 -3.46336 2.20368 0
M  V30 846 H 80.9375 -2.91381 1.17285 0
M  V30 847 H 80.1305 -3.70255 3.41947 0
M  V30 848 H 79.7325 -1.98703 3.16849 0
M  V30 849 H 82.0245 -4.58391 4.98883 0
M  V30 850 H 82.9675 -3.5621 6.11981 0
M  V30 851 H 83.3755 -3.56323 4.37829 0
M  V30 852 N 82.7736 -1.49793 -0.48987 0
M  V30 853 C 84.0216 -1.59525 -1.24081 0
M  V30 854 C 84.3426 -0.288953 -1.92847 0
M  V30 855 O 83.6126 0.692436 -1.83254 0
M  V30 856 H 82.1926 -0.587796 -0.460983 0
M  V30 857 H 84.8546 -1.86477 -0.566778 0
M  V30 858 H 83.9506 -2.39696 -1.99881 0
M  V30 859 N 84.2517 0.741722 -1.39055 0
M  V30 860 C 85.5287 1.49252 -1.26425 0
M  V30 861 C 85.9087 2.10705 0.129144 0
M  V30 862 O 85.2567 1.98045 1.13976 0
M  V30 863 C 85.4667 2.54934 -2.38347 0
M  V30 864 C 86.8147 3.21506 -2.77343 0
M  V30 865 O 87.8387 2.65245 -2.37747 0
M  V30 866 O 86.6977 4.23294 -3.45665 0
M  V30 867 H 83.7917 0.662451 -0.495064 0
M  V30 868 H 86.3377 0.776121 -1.50912 0
M  V30 869 H 85.1097 2.07857 -3.31529 0
M  V30 870 H 84.7327 3.34141 -2.15489 0
M  V30 871 N 85.7298 1.2412 0.971189 0
M  V30 872 C 86.6398 1.04747 2.09917 0
M  V30 873 C 87.6558 -0.0107162 1.73997 0
M  V30 874 O 88.8318 0.186714 2.00533 0
M  V30 875 C 85.8968 0.650828 3.40537 0
M  V30 876 C 84.9578 1.7851 3.90426 0
M  V30 877 C 84.1908 1.40729 5.14812 0
M  V30 878 O 84.4138 0.29557 5.69634 0
M  V30 879 O 83.3478 2.23168 5.58999 0
M  V30 880 H 87.1738 1.99304 2.29154 0
M  V30 881 H 84.7588 1.02908 1.08307 0
M  V30 882 H 86.6408 0.440992 4.19086 0
M  V30 883 H 85.3158 -0.265649 3.22608 0
M  V30 884 H 84.2228 2.04966 3.12953 0
M  V30 885 H 85.5558 2.68023 4.12825 0
M  V30 886 N 87.2079 -1.17134 1.05439 0
M  V30 887 C 88.4539 -1.87733 0.767077 0
M  V30 888 C 88.7869 -1.8098 -0.704253 0
M  V30 889 O 88.0619 -1.21951 -1.5152 0
M  V30 890 C 88.3449 -3.37659 1.25133 0
M  V30 891 C 88.1979 -3.53149 2.78578 0
M  V30 892 C 89.5169 -4.31768 0.852324 0
M  V30 893 H 86.6359 -0.681687 0.280129 0
M  V30 894 H 89.2779 -1.37732 1.30881 0
M  V30 895 H 87.4279 -3.80373 0.790469 0
M  V30 896 H 89.0999 -3.19434 3.32806 0
M  V30 897 H 87.3429 -2.95345 3.17732 0
M  V30 898 H 88.0139 -4.58403 3.07523 0
M  V30 899 H 90.4899 -3.96909 1.24911 0
M  V30 900 H 89.3659 -5.35199 1.21873 0
M  V30 901 H 89.6269 -4.41429 -0.243485 0
M  V30 902 N 88.686 -0.835752 -1.33615 0
M  V30 903 C 89.616 -0.281739 -2.31794 0
M  V30 904 C 90.597 0.608833 -1.58831 0
M  V30 905 O 91.782 0.533035 -1.86741 0
M  V30 906 C 88.912 0.546612 -3.42971 0
M  V30 907 C 87.866 -0.247904 -4.27281 0
M  V30 908 C 87.192 0.704001 -5.30045 0
M  V30 909 C 88.492 -1.46324 -5.01385 0
M  V30 910 H 90.186 -1.10206 -2.78379 0
M  V30 911 H 87.732 -0.531388 -1.33837 0
M  V30 912 H 89.685 0.944467 -4.1068 0
M  V30 913 H 88.409 1.40011 -2.95067 0
M  V30 914 H 87.068 -0.627281 -3.61194 0
M  V30 915 H 86.716 1.55381 -4.78399 0
M  V30 916 H 86.416 0.176524 -5.87335 0
M  V30 917 H 87.94 1.09944 -6.0062 0
M  V30 918 H 89.354 -1.13871 -5.61877 0
M  V30 919 H 87.751 -1.92728 -5.6831 0
M  V30 920 H 88.821 -2.23467 -4.30338 0
M  V30 921 N 90.1641 1.46063 -0.591896 0
M  V30 922 C 91.0741 2.34192 0.13831 0
M  V30 923 C 92.0901 1.50305 0.876608 0
M  V30 924 O 93.2661 1.8315 0.837728 0
M  V30 925 C 90.3311 3.27656 1.13326 0
M  V30 926 C 89.3921 4.27445 0.39863 0
M  V30 927 C 88.6251 5.16443 1.34618 0
M  V30 928 O 88.8481 5.08553 2.58321 0
M  V30 929 O 87.7821 5.95843 0.851768 0
M  V30 930 H 91.6081 2.98002 -0.58552 0
M  V30 931 H 89.1931 1.45188 -0.352239 0
M  V30 932 H 91.0751 3.85291 1.70671 0
M  V30 933 H 89.7501 2.6643 1.83839 0
M  V30 934 H 88.6571 3.73471 -0.216895 0
M  V30 935 H 89.9901 4.91482 -0.265709 0
M  V30 936 N 91.6422 0.330177 1.54103 0
M  V30 937 C 92.5522 -0.541534 2.28264 0
M  V30 938 C 93.5682 -1.12351 1.32866 0
M  V30 939 O 94.7442 -1.14206 1.65888 0
M  V30 940 C 91.8092 -1.68322 3.03098 0
M  V30 941 C 90.8702 -1.13238 4.14096 0
M  V30 942 C 90.1032 -2.21966 4.85352 0
M  V30 943 O 90.3262 -3.42437 4.56172 0
M  V30 944 O 89.2602 -1.87013 5.7211 0
M  V30 945 H 93.0862 0.060938 3.03639 0
M  V30 946 H 90.6712 0.09565 1.49093 0
M  V30 947 H 92.5532 -2.34777 3.49939 0
M  V30 948 H 91.2282 -2.27176 2.30593 0
M  V30 949 H 90.1352 -0.432736 3.71589 0
M  V30 950 H 91.4682 -0.588898 4.88664 0
M  V30 951 N 93.1203 -1.57491 0.0584922 0
M  V30 952 C 94.3453 -1.97711 -0.62652 0
M  V30 953 C 94.7703 -0.936132 -1.63151 0
M  V30 954 O 94.1283 0.099811 -1.81025 0
M  V30 955 C 94.1763 -3.36989 -1.28338 0
M  V30 956 O 93.2803 -3.35433 -2.39913 0
M  V30 957 H 92.6213 -0.643868 -0.162266 0
M  V30 958 H 95.1513 -2.04193 0.129064 0
M  V30 959 H 95.1613 -3.73879 -1.63335 0
M  V30 960 H 93.8363 -4.12289 -0.546889 0
M  V30 961 H 92.4133 -3.10298 -2.06809 0
M  V30 962 N 94.5984 0.214957 -1.56127 0
M  V30 963 C 95.5084 1.28727 -1.96129 0
M  V30 964 C 96.5244 1.50916 -0.866044 0
M  V30 965 O 97.7004 1.63918 -1.17016 0
M  V30 966 C 94.7654 2.61569 -2.27558 0
M  V30 967 C 93.8264 2.47625 -3.50685 0
M  V30 968 C 93.0594 3.74132 -3.80606 0
M  V30 969 O 93.2824 4.77438 -3.12104 0
M  V30 970 O 92.2164 3.70849 -4.74083 0
M  V30 971 H 96.0424 0.977855 -2.87527 0
M  V30 972 H 93.6274 0.418358 -1.43423 0
M  V30 973 H 95.5094 3.40012 -2.48938 0
M  V30 974 H 94.1844 2.92178 -1.39332 0
M  V30 975 H 93.0914 1.67361 -3.34576 0
M  V30 976 H 94.4244 2.21954 -4.39315 0
M  V30 977 N 96.0765 1.50051 0.48192 0
M  V30 978 C 97.3235 1.60498 1.23477 0
M  V30 979 C 97.6515 0.300331 1.92167 0
M  V30 980 O 96.9065 -0.713094 1.82246 0
M  V30 981 C 97.2055 2.72717 2.30998 0
M  V30 982 C 96.8715 4.13572 1.79636 0
M  V30 983 C 95.5335 4.519 1.65348 0
M  V30 984 C 97.8855 5.01649 1.41412 0
M  V30 985 C 95.2135 5.76057 1.11244 0
M  V30 986 C 97.5655 6.26343 0.887538 0
M  V30 987 C 96.2295 6.63483 0.731207 0
M  V30 988 H 95.4995 0.587303 0.451836 0
M  V30 989 H 98.1465 1.83948 0.532468 0
M  V30 990 H 96.4515 2.43312 3.07094 0
M  V30 991 H 98.1485 2.78006 2.88988 0
M  V30 992 H 94.7385 3.83329 1.91721 0
M  V30 993 H 98.9225 4.72679 1.51289 0
M  V30 994 H 94.1785 6.03516 0.978686 0
M  V30 995 H 98.3525 6.93958 0.582654 0
M  V30 996 H 95.9795 7.59568 0.309806 0
M  V30 997 N 97.5546 -0.734337 1.39446 0
M  V30 998 C 98.4646 -1.87879 1.40495 0
M  V30 999 C 99.4806 -1.714 0.299672 0
M  V30 1000 O 100.657 -1.93991 0.541249 0
M  V30 1001 C 97.7216 -3.23477 1.24754 0
M  V30 1002 C 96.7826 -3.52344 2.45259 0
M  V30 1003 C 96.0156 -4.81473 2.30259 0
M  V30 1004 O 96.2386 -5.55237 1.30643 0
M  V30 1005 O 95.1726 -5.10254 3.19256 0
M  V30 1006 H 98.9986 -1.89949 2.36966 0
M  V30 1007 H 96.5836 -0.882243 1.20569 0
M  V30 1008 H 98.4656 -4.04509 1.18111 0
M  V30 1009 H 97.1406 -3.22176 0.313781 0
M  V30 1010 H 96.0476 -2.71396 2.57478 0
M  V30 1011 H 97.3806 -3.58426 3.37331 0
M  V30 1012 N 99.0327 -1.24633 -0.964593 0
M  V30 1013 C 100.444 -1.08045 -1.5226 0
M  V30 1014 C 100.795 0.347116 -1.93105 0
M  V30 1015 O 99.9197 1.23588 -1.77637 0
M  V30 1016 C 100.515 -1.95514 -2.76695 0
M  V30 1017 C 99.0737 -1.8314 -3.28841 0
M  V30 1018 C 98.2207 -1.90262 -2.01732 0
M  V30 1019 H 101.172 -1.38064 -0.782553 0
M  V30 1020 H 101.193 -1.48925 -3.50145 0
M  V30 1021 H 100.705 -2.99407 -2.46936 0
M  V30 1022 H 98.8057 -0.82092 -3.63444 0
M  V30 1023 H 98.9187 -2.67406 -3.97531 0
M  V30 1024 H 97.2827 -1.34027 -2.16584 0
M  V30 1025 H 98.0657 -2.9574 -1.74334 0
M  V30 1026 N 100.511 1.16574 -1.06058 0
M  V30 1027 C 101.758 1.87047 -0.775873 0
M  V30 1028 C 102.086 1.81562 0.697534 0
M  V30 1029 O 101.341 1.22445 1.52662 0
M  V30 1030 C 101.64 3.36195 -1.21275 0
M  V30 1031 C 101.306 3.6188 -2.68986 0
M  V30 1032 C 99.9678 3.68599 -3.09335 0
M  V30 1033 C 102.32 3.72648 -3.64394 0
M  V30 1034 C 99.6478 3.83584 -4.43937 0
M  V30 1035 C 102 3.89154 -4.98741 0
M  V30 1036 C 100.664 3.94114 -5.3873 0
M  V30 1037 H 99.9338 0.684452 -0.283912 0
M  V30 1038 H 102.581 1.37853 -1.32925 0
M  V30 1039 H 100.886 3.87505 -0.578528 0
M  V30 1040 H 102.583 3.89103 -0.969542 0
M  V30 1041 H 99.1728 3.57281 -2.36744 0
M  V30 1042 H 103.357 3.66769 -3.34356 0
M  V30 1043 H 98.6128 3.85677 -4.74409 0
M  V30 1044 H 102.787 3.96427 -5.72554 0
M  V30 1045 H 100.414 4.05478 -6.43033 0
M  V30 1046 N 101.989 0.842826 1.3317 0
M  V30 1047 C 103.238 0.436738 1.96915 0
M  V30 1048 C 103.551 -1.01025 1.67491 0
M  V30 1049 O 104.757 -1.5212 2.24881 0
M  V30 1050 C 103.213 0.730021 3.52418 0
M  V30 1051 C 102.821 2.19195 3.90714 0
M  V30 1052 C 104.565 0.391076 4.22695 0
M  V30 1053 C 102.472 2.42907 5.39212 0
M  V30 1054 H 101.402 0.15958 0.736919 0
M  V30 1055 H 104.053 1.03196 1.51733 0
M  V30 1056 H 102.435 0.0643755 3.95948 0
M  V30 1057 H 103.609 2.8984 3.58231 0
M  V30 1058 H 101.924 2.49425 3.33431 0
M  V30 1059 H 104.521 0.545817 5.31907 0
M  V30 1060 H 104.864 -0.666294 4.10933 0
M  V30 1061 H 105.397 1.01212 3.84709 0
M  V30 1062 H 102.136 3.47224 5.55982 0
M  V30 1063 H 101.656 1.76827 5.73142 0
M  V30 1064 H 103.335 2.2626 6.06148 0
M  V30 1065 N 103.467 -1.45747 0.599634 0
M  V30 1066 C 104.377 -2.34262 -0.125888 0
M  V30 1067 C 105.393 -1.50768 -0.868625 0
M  V30 1068 O 106.569 -1.83592 -0.828003 0
M  V30 1069 C 103.634 -3.28252 -1.11587 0
M  V30 1070 C 102.695 -4.27651 -0.375956 0
M  V30 1071 C 101.928 -5.1715 -1.31877 0
M  V30 1072 O 102.151 -5.09916 -2.55621 0
M  V30 1073 O 101.085 -5.96286 -0.820157 0
M  V30 1074 H 104.911 -2.97688 0.601315 0
M  V30 1075 H 102.496 -1.44999 0.359934 0
M  V30 1076 H 104.378 -3.86191 -1.68626 0
M  V30 1077 H 103.053 -2.67401 -1.82424 0
M  V30 1078 H 101.96 -3.7335 0.236698 0
M  V30 1079 H 103.293 -4.91334 0.29177 0
M  V30 1080 N 104.945 -0.338344 -1.53925 0
M  V30 1081 C 105.855 0.529421 -2.28548 0
M  V30 1082 C 106.871 1.11645 -1.3346 0
M  V30 1083 O 108.047 1.13325 -1.66492 0
M  V30 1084 C 105.112 1.66713 -3.03987 0
M  V30 1085 C 104.173 1.11041 -4.14691 0
M  V30 1086 C 103.406 2.19389 -4.86522 0
M  V30 1087 O 103.629 3.40013 -4.57982 0
M  V30 1088 O 102.563 1.83976 -5.73094 0
M  V30 1089 H 106.389 -0.0770399 -3.03602 0
M  V30 1090 H 103.974 -0.103555 -1.49041 0
M  V30 1091 H 105.856 2.32918 -3.5118 0
M  V30 1092 H 104.531 2.25949 -2.31794 0
M  V30 1093 H 103.438 0.413024 -3.71813 0
M  V30 1094 H 104.771 0.562975 -4.8897 0
M  V30 1095 N 106.423 1.57458 -0.0668435 0
M  V30 1096 C 107.672 1.92477 0.602947 0
M  V30 1097 C 107.985 0.948419 1.71068 0
M  V30 1098 O 109.191 1.19124 2.43971 0
M  V30 1099 C 107.647 3.41903 1.12383 0
M  V30 1100 C 107.255 4.47975 0.04737 0
M  V30 1101 C 108.999 3.85931 1.76797 0
M  V30 1102 C 106.906 5.88529 0.582022 0
M  V30 1103 H 105.836 0.718387 0.22899 0
M  V30 1104 H 108.487 1.82978 -0.138276 0
M  V30 1105 H 106.869 3.46459 1.91787 0
M  V30 1106 H 108.043 4.55029 -0.726978 0
M  V30 1107 H 106.358 4.13384 -0.500243 0
M  V30 1108 H 108.955 4.88322 2.17821 0
M  V30 1109 H 109.298 3.23029 2.62599 0
M  V30 1110 H 109.831 3.83958 1.04024 0
M  V30 1111 H 106.57 6.55065 -0.238721 0
M  V30 1112 H 106.09 5.85004 1.324 0
M  V30 1113 H 107.769 6.38258 1.05999 0
M  V30 1114 N 107.901 -0.206675 1.56239 0
M  V30 1115 C 109.126 -0.949474 1.8439 0
M  V30 1116 C 109.551 -1.76549 0.649016 0
M  V30 1117 O 108.909 -1.76782 -0.402231 0
M  V30 1118 C 108.957 -1.83078 3.10668 0
M  V30 1119 O 108.061 -2.9281 2.90407 0
M  V30 1120 H 107.402 -0.268033 0.607499 0
M  V30 1121 H 109.932 -0.215488 2.03462 0
M  V30 1122 H 109.942 -2.2377 3.41161 0
M  V30 1123 H 108.617 -1.23112 3.97261 0
M  V30 1124 H 107.194 -2.55956 2.71184 0
M  V30 1125 N 109.379 -1.50304 -0.473955 0
M  V30 1126 C 110.607 -1.64902 -1.24959 0
M  V30 1127 C 111.022 -0.331198 -1.85872 0
M  V30 1128 O 110.379 0.68652 -1.69095 0
M  V30 1129 C 110.43 -2.73803 -2.36038 0
M  V30 1130 O 110.151 -4.00477 -1.77624 0
M  V30 1131 C 111.652 -2.99349 -3.26964 0
M  V30 1132 H 108.872 -0.554383 -0.378022 0
M  V30 1133 H 111.416 -1.9651 -0.566054 0
M  V30 1134 H 109.571 -2.44898 -3.00173 0
M  V30 1135 H 109.985 -4.60678 -2.5075 0
M  V30 1136 H 111.459 -3.79217 -4.01121 0
M  V30 1137 H 111.936 -2.10307 -3.85574 0
M  V30 1138 H 112.542 -3.29774 -2.68569 0
M  V30 1139 N 110.857 0.726932 -1.39834 0
M  V30 1140 C 111.804 1.841 -1.39197 0
M  V30 1141 C 112.774 1.642 -0.250502 0
M  V30 1142 O 113.959 1.85494 -0.446846 0
M  V30 1143 C 111.099 3.21697 -1.24919 0
M  V30 1144 C 110.212 3.53247 -2.48678 0
M  V30 1145 C 109.347 4.80289 -2.26928 0
M  V30 1146 C 108.386 5.04707 -3.4632 0
M  V30 1147 N 107.523 6.22956 -3.23836 0
M  V30 1148 H 112.363 1.83979 -2.34427 0
M  V30 1149 H 109.9 0.898876 -1.16442 0
M  V30 1150 H 111.858 4.01137 -1.1465 0
M  V30 1151 H 110.488 3.21076 -0.333153 0
M  V30 1152 H 109.54 2.68447 -2.69519 0
M  V30 1153 H 110.852 3.67205 -3.37582 0
M  V30 1154 H 110.006 5.67725 -2.13947 0
M  V30 1155 H 108.745 4.68519 -1.35431 0
M  V30 1156 H 107.75 4.1573 -3.5979 0
M  V30 1157 H 108.975 5.18357 -4.38729 0
M  V30 1158 H 106.921 6.12459 -2.35011 0
M  V30 1159 H 106.838 6.37539 -4.063 0
M  V30 1160 H 108.106 7.1321 -3.14566 0
M  V30 1161 N 112.336 1.25143 0.95797 0
M  V30 1162 C 113.585 1.0909 1.69654 0
M  V30 1163 C 113.898 -0.368548 1.92097 0
M  V30 1164 O 115.104 -0.649455 2.63618 0
M  V30 1165 C 113.56 1.90395 3.05414 0
M  V30 1166 C 113.168 3.4081 2.90779 0
M  V30 1167 C 114.912 1.82901 3.83076 0
M  V30 1168 C 112.819 4.14423 4.21909 0
M  V30 1169 H 111.749 0.404625 0.636235 0
M  V30 1170 H 114.4 1.4931 1.06672 0
M  V30 1171 H 112.782 1.42996 3.69281 0
M  V30 1172 H 113.956 3.95859 2.35865 0
M  V30 1173 H 112.271 3.49361 2.26575 0
M  V30 1174 H 114.868 2.35196 4.80195 0
M  V30 1175 H 115.211 0.796224 4.08615 0
M  V30 1176 H 115.744 2.28033 3.25954 0
M  V30 1177 H 112.483 5.18102 4.01561 0
M  V30 1178 H 112.003 3.64159 4.76601 0
M  V30 1179 H 113.682 4.21956 4.90471 0
M  V30 1180 N 113.814 -1.1601 1.06675 0
M  V30 1181 C 115.039 -1.91068 0.806706 0
M  V30 1182 C 115.464 -1.77112 -0.633485 0
M  V30 1183 O 114.822 -1.09908 -1.44187 0
M  V30 1184 C 114.87 -3.39655 1.21106 0
M  V30 1185 O 113.974 -4.10893 0.352189 0
M  V30 1186 H 113.315 -0.595125 0.294486 0
M  V30 1187 H 115.845 -1.46955 1.42356 0
M  V30 1188 H 115.855 -3.90434 1.18428 0
M  V30 1189 H 114.53 -3.49132 2.26008 0
M  V30 1190 H 113.107 -3.70285 0.440868 0
M  V30 1191 N 115.292 -0.849877 -1.32721 0
M  V30 1192 C 116.54 -0.450032 -1.97026 0
M  V30 1193 C 116.861 0.996604 -1.67609 0
M  V30 1194 O 116.131 1.6958 -0.980786 0
M  V30 1195 H 114.711 -0.163426 -0.728904 0
M  V30 1196 H 117.373 -1.08526 -1.6189 0
M  V30 1197 H 116.469 -0.591146 -3.0645 0
M  V30 1198 N 116.77 1.45427 -0.607355 0
M  V30 1199 C 117.717 2.3053 0.111625 0
M  V30 1200 C 118.687 1.4209 0.860216 0
M  V30 1201 O 119.872 1.71019 0.845998 0
M  V30 1202 C 117.012 3.26992 1.10319 0
M  V30 1203 C 116.125 4.30535 0.355493 0
M  V30 1204 C 115.26 5.14105 1.33676 0
M  V30 1205 C 114.299 6.09376 0.576862 0
M  V30 1206 N 113.436 6.85727 1.5074 0
M  V30 1207 H 118.276 2.91477 -0.620093 0
M  V30 1208 H 115.813 1.43631 -0.317594 0
M  V30 1209 H 117.771 3.81385 1.6912 0
M  V30 1210 H 116.401 2.67799 1.80232 0
M  V30 1211 H 115.453 3.78805 -0.348023 0
M  V30 1212 H 116.765 4.98235 -0.237423 0
M  V30 1213 H 115.919 5.72897 1.99684 0
M  V30 1214 H 114.658 4.46423 1.9636 0
M  V30 1215 H 113.663 5.49715 -0.0968519 0
M  V30 1216 H 114.888 6.79085 -0.0449341 0
M  V30 1217 H 112.834 6.20735 2.12189 0
M  V30 1218 H 112.751 7.49778 0.967913 0
M  V30 1219 H 114.019 7.4906 2.15706 0
M  V30 1220 N 118.248 0.346503 1.53744 0
M  V30 1221 C 119.195 -0.508914 2.25119 0
M  V30 1222 C 120.165 -1.09315 1.25058 0
M  V30 1223 O 121.35 -1.12921 1.53797 0
M  V30 1224 C 118.49 -1.65246 3.02965 0
M  V30 1225 C 117.603 -1.09525 4.17886 0
M  V30 1226 C 116.738 -2.20634 4.83212 0
M  V30 1227 C 115.777 -1.62279 5.90196 0
M  V30 1228 N 114.914 -2.67143 6.49291 0
M  V30 1229 H 119.754 0.106283 2.9781 0
M  V30 1230 H 117.291 0.0642227 1.4696 0
M  V30 1231 H 119.249 -2.32574 3.4636 0
M  V30 1232 H 117.879 -2.2386 2.32565 0
M  V30 1233 H 116.931 -0.312818 3.79112 0
M  V30 1234 H 118.243 -0.628444 4.94825 0
M  V30 1235 H 117.397 -2.95821 5.29693 0
M  V30 1236 H 116.136 -2.70659 4.05703 0
M  V30 1237 H 115.141 -0.855989 5.43096 0
M  V30 1238 H 116.366 -1.13102 6.69615 0
M  V30 1239 H 114.312 -3.16417 5.74645 0
M  V30 1240 H 114.229 -2.25093 7.21713 0
M  V30 1241 H 115.497 -3.4209 7.00425 0
M  V30 1242 N 119.726 -1.57421 0.075193 0
M  V30 1243 C 120.972 -1.93905 -0.594025 0
M  V30 1244 C 121.305 -0.955701 -1.69056 0
M  V30 1245 O 120.58 0.0145373 -1.94495 0
M  V30 1246 C 120.863 -3.40638 -1.1678 0
M  V30 1247 C 120.716 -4.49733 -0.0776792 0
M  V30 1248 C 122.035 -3.88259 -2.07228 0
M  V30 1249 H 119.154 -0.705105 -0.214466 0
M  V30 1250 H 121.796 -1.8947 0.141854 0
M  V30 1251 H 119.946 -3.44549 -1.79494 0
M  V30 1252 H 121.618 -4.57942 0.555573 0
M  V30 1253 H 119.861 -4.29751 0.591286 0
M  V30 1254 H 120.532 -5.49549 -0.519603 0
M  V30 1255 H 123.008 -3.86376 -1.54445 0
M  V30 1256 H 121.884 -4.91533 -2.44308 0
M  V30 1257 H 122.145 -3.26396 -2.98191 0
M  V30 1258 N 121.204 0.198386 -1.56346 0
M  V30 1259 C 122.167 1.22952 -1.93431 0
M  V30 1260 C 123.167 1.38611 -0.815092 0
M  V30 1261 O 124.357 1.36479 -1.08255 0
M  V30 1262 C 121.489 2.59946 -2.20546 0
M  V30 1263 H 122.682 0.912626 -2.85677 0
M  V30 1264 H 120.235 0.43977 -1.49986 0
M  V30 1265 H 120.97 2.96696 -1.30927 0
M  V30 1266 H 120.755 2.49953 -3.02102 0
M  V30 1267 H 122.245 3.3431 -2.50253 0
M  V30 1268 N 122.682 1.50554 0.465978 0
M  V30 1269 C 123.612 1.72722 1.57128 0
M  V30 1270 C 124.593 0.576294 1.6004 0
M  V30 1271 O 125.778 0.81598 1.76225 0
M  V30 1272 C 122.908 1.82605 2.95419 0
M  V30 1273 C 121.862 2.97835 3.07373 0
M  V30 1274 C 121.188 2.92867 4.47363 0
M  V30 1275 C 122.488 4.38265 2.84114 0
M  V30 1276 H 124.182 2.65267 1.38829 0
M  V30 1277 H 121.728 1.2765 0.666441 0
M  V30 1278 H 123.681 1.96698 3.72677 0
M  V30 1279 H 122.405 0.866858 3.14886 0
M  V30 1280 H 121.064 2.83401 2.3255 0
M  V30 1281 H 120.712 1.94783 4.63755 0
M  V30 1282 H 120.412 3.70227 4.56296 0
M  V30 1283 H 121.936 3.09015 5.26633 0
M  V30 1284 H 123.35 4.53198 3.51118 0
M  V30 1285 H 121.747 5.17115 3.04487 0
M  V30 1286 H 122.817 4.50281 1.7993 0
M  V30 1287 N 124.16 -0.719506 1.40217 0
M  V30 1288 C 125.407 -1.47933 1.38283 0
M  V30 1289 C 125.735 -1.94493 -0.0161536 0
M  V30 1290 O 124.99 -1.68224 -0.999956 0
M  V30 1291 C 125.289 -2.72271 2.31524 0
M  V30 1292 C 124.955 -2.44496 3.78857 0
M  V30 1293 C 123.617 -2.36631 4.18998 0
M  V30 1294 C 125.969 -2.21104 4.71977 0
M  V30 1295 C 123.297 -2.03437 5.503 0
M  V30 1296 C 125.649 -1.89423 6.03574 0
M  V30 1297 C 124.313 -1.80038 6.42762 0
M  V30 1298 H 123.583 -0.541325 0.506012 0
M  V30 1299 H 126.23 -0.824502 1.72842 0
M  V30 1300 H 124.535 -3.42572 1.90137 0
M  V30 1301 H 126.232 -3.30348 2.27313 0
M  V30 1302 H 122.822 -2.51503 3.47051 0
M  V30 1303 H 127.006 -2.26139 4.41786 0
M  V30 1304 H 122.262 -1.94705 5.79569 0
M  V30 1305 H 126.436 -1.70336 6.75247 0
M  V30 1306 H 124.063 -1.54083 7.44421 0
M  V30 1307 N 125.638 -1.25649 -0.95132 0
M  V30 1308 C 126.886 -1.10375 -1.69298 0
M  V30 1309 C 127.207 0.355339 -1.91735 0
M  V30 1310 O 126.477 1.25188 -1.50681 0
M  V30 1311 H 125.057 -0.405461 -0.627384 0
M  V30 1312 H 127.719 -1.57823 -1.14358 0
M  V30 1313 H 126.815 -1.61465 -2.67087 0
M  V30 1314 N 127.117 1.15442 -1.07289 0
M  V30 1315 C 128.342 1.90638 -0.816828 0
M  V30 1316 C 128.767 1.77445 0.624083 0
M  V30 1317 O 128.125 1.10671 1.43602 0
M  V30 1318 C 128.173 3.39008 -1.22906 0
M  V30 1319 O 127.277 4.10701 -0.373975 0
M  V30 1320 H 126.618 0.593555 -0.297638 0
M  V30 1321 H 129.148 1.46198 -1.43134 0
M  V30 1322 H 129.158 3.89801 -1.20497 0
M  V30 1323 H 127.833 3.47929 -2.27856 0
M  V30 1324 H 126.41 3.70046 -0.460499 0
M  V30 1325 N 128.595 0.856903 1.32268 0
M  V30 1326 C 129.825 0.47475 2.01071 0
M  V30 1327 C 130.233 -0.933746 1.64553 0
M  V30 1328 O 129.576 -1.62114 0.863989 0
M  V30 1329 C 129.638 0.536746 3.55471 0
M  V30 1330 C 129.302 1.90453 4.15423 0
M  V30 1331 C 130.299 2.87029 4.33486 0
M  V30 1332 C 127.984 2.20229 4.51447 0
M  V30 1333 C 129.978 4.11532 4.86744 0
M  V30 1334 C 127.665 3.44984 5.0441 0
M  V30 1335 C 128.663 4.40452 5.22007 0
M  V30 1336 O 128.351 5.62998 5.73837 0
M  V30 1337 H 128.083 0.184778 0.650256 0
M  V30 1338 H 130.637 1.15615 1.69771 0
M  V30 1339 H 128.867 -0.20152 3.86175 0
M  V30 1340 H 130.556 0.169875 4.05544 0
M  V30 1341 H 131.322 2.6533 4.05986 0
M  V30 1342 H 127.201 1.46705 4.37034 0
M  V30 1343 H 130.745 4.86056 5.00395 0
M  V30 1344 H 126.642 3.66532 5.31342 0
M  V30 1345 H 127.41 5.64987 5.92226 0
M  V30 1346 N 130.073 -1.45103 0.615059 0
M  V30 1347 C 131.321 -2.01784 0.112955 0
M  V30 1348 C 131.642 -1.48504 -1.26378 0
M  V30 1349 O 130.912 -0.682245 -1.83636 0
M  V30 1350 H 129.492 -0.745993 0.0387668 0
M  V30 1351 H 132.154 -1.77808 0.798141 0
M  V30 1352 H 131.25 -3.12025 0.0684069 0
M  V30 1353 N 131.551 -0.354651 -1.53558 0
M  V30 1354 C 132.797 0.231422 -2.02079 0
M  V30 1355 C 133.152 1.47308 -1.23767 0
M  V30 1356 O 132.445 1.8891 -0.319947 0
M  V30 1357 C 132.639 0.587121 -3.52545 0
M  V30 1358 C 132.468 -0.618513 -4.45426 0
M  V30 1359 C 131.238 -1.12724 -4.92566 0
M  V30 1360 C 133.436 -1.48039 -4.92533 0
M  V30 1361 N 131.418 -2.29404 -5.69427 0
M  V30 1362 C 132.789 -2.49397 -5.67628 0
M  V30 1363 C 134.844 -1.50454 -4.74624 0
M  V30 1364 C 133.547 -3.53013 -6.26717 0
M  V30 1365 C 135.573 -2.52958 -5.34571 0
M  V30 1366 C 134.935 -3.5304 -6.09543 0
M  V30 1367 H 131.034 0.0476909 -0.780544 0
M  V30 1368 H 133.618 -0.496727 -1.88257 0
M  V30 1369 H 131.789 1.28436 -3.6655 0
M  V30 1370 H 133.521 1.15734 -3.87799 0
M  V30 1371 H 130.276 -0.693577 -4.68494 0
M  V30 1372 H 130.7 -2.88347 -6.12524 0
M  V30 1373 H 135.342 -0.744356 -4.16196 0
M  V30 1374 H 133.06 -4.2992 -6.84247 0
M  V30 1375 H 136.646 -2.55667 -5.22614 0
M  V30 1376 H 135.526 -4.31056 -6.55103 0
M  V30 1377 N 133.029 1.57378 -0.0835403 0
M  V30 1378 C 134.277 1.93547 0.581718 0
M  V30 1379 C 134.598 0.96524 1.69435 0
M  V30 1380 O 133.868 0.0153369 1.95894 0
M  V30 1381 H 132.448 0.714521 0.217874 0
M  V30 1382 H 135.11 1.94366 -0.144158 0
M  V30 1383 H 134.206 2.95665 0.999423 0
M  V30 1384 N 134.507 -0.190092 1.56449 0
M  V30 1385 C 135.784 -0.935886 1.71757 0
M  V30 1386 C 136.164 -2.01173 0.639726 0
M  V30 1387 O 135.512 -2.25827 -0.348502 0
M  V30 1388 C 135.722 -1.51775 3.1427 0
M  V30 1389 C 137.07 -1.99794 3.74656 0
M  V30 1390 O 138.094 -1.61607 3.1743 0
M  V30 1391 O 136.953 -2.70079 4.751 0
M  V30 1392 H 134.047 -0.439229 0.700719 0
M  V30 1393 H 136.593 -0.179395 1.68749 0
M  V30 1394 H 135.365 -0.742505 3.84191 0
M  V30 1395 H 134.988 -2.33894 3.21527 0
M  V30 1396 N 135.985 -1.50799 -0.457987 0
M  V30 1397 C 137.233 -1.62121 -1.2067 0
M  V30 1398 C 137.554 -0.329793 -1.92191 0
M  V30 1399 O 136.824 0.653409 -1.84682 0
M  V30 1400 H 135.404 -0.597441 -0.448411 0
M  V30 1401 H 138.066 -1.87637 -0.527096 0
M  V30 1402 H 137.162 -2.43882 -1.94751 0
M  V30 1403 N 137.463 0.71206 -1.40597 0
M  V30 1404 C 138.41 1.82613 -1.41142 0
M  V30 1405 C 139.38 1.63925 -0.267903 0
M  V30 1406 O 140.565 1.85009 -0.466495 0
M  V30 1407 C 137.705 3.20354 -1.28324 0
M  V30 1408 C 136.818 3.50589 -2.52411 0
M  V30 1409 C 135.953 4.77855 -2.32009 0
M  V30 1410 C 134.992 5.01005 -3.51654 0
M  V30 1411 N 134.129 6.19487 -3.30425 0
M  V30 1412 H 138.969 1.81482 -2.36365 0
M  V30 1413 H 136.506 0.886475 -1.17388 0
M  V30 1414 H 138.464 3.99899 -1.18899 0
M  V30 1415 H 137.094 3.20705 -0.367189 0
M  V30 1416 H 136.146 2.65573 -2.72351 0
M  V30 1417 H 137.458 3.63604 -3.41458 0
M  V30 1418 H 136.612 5.65424 -2.19956 0
M  V30 1419 H 135.351 4.67056 -1.40392 0
M  V30 1420 H 134.356 4.1189 -3.64179 0
M  V30 1421 H 135.581 5.13674 -4.44202 0
M  V30 1422 H 133.527 6.09932 -2.41494 0
M  V30 1423 H 133.444 6.33194 -4.13039 0
M  V30 1424 H 134.712 7.09834 -3.22113 0
M  V30 1425 N 138.941 1.26152 0.944643 0
M  V30 1426 C 140.187 1.12665 1.69346 0
M  V30 1427 C 140.542 -0.3273 1.89596 0
M  V30 1428 O 139.835 -1.23717 1.46303 0
M  V30 1429 C 140.029 1.82541 3.07268 0
M  V30 1430 C 139.858 3.34582 3.00475 0
M  V30 1431 C 138.628 4.03863 3.03681 0
M  V30 1432 C 140.826 4.30828 2.80877 0
M  V30 1433 N 138.808 5.42603 2.87151 0
M  V30 1434 C 140.179 5.5672 2.7288 0
M  V30 1435 C 142.234 4.21122 2.65633 0
M  V30 1436 C 140.937 6.74013 2.51196 0
M  V30 1437 C 142.963 5.38118 2.45323 0
M  V30 1438 C 142.325 6.62955 2.38055 0
M  V30 1439 H 138.424 0.467041 0.627214 0
M  V30 1440 H 141.008 1.59391 1.11815 0
M  V30 1441 H 139.179 1.38296 3.62945 0
M  V30 1442 H 140.911 1.61708 3.70989 0
M  V30 1443 H 137.666 3.55198 3.1326 0
M  V30 1444 H 138.09 6.15443 2.82063 0
M  V30 1445 H 142.732 3.25344 2.70021 0
M  V30 1446 H 140.45 7.6989 2.4555 0
M  V30 1447 H 144.036 5.32475 2.34439 0
M  V30 1448 H 142.916 7.51959 2.22546 0
M  V30 1449 N 140.419 -1.14872 1.07899 0
M  V30 1450 C 141.352 -2.18794 0.64841 0
M  V30 1451 C 142.33 -1.59065 -0.337189 0
M  V30 1452 O 143.514 -1.86936 -0.242284 0
M  V30 1453 C 140.641 -3.38667 -0.0470417 0
M  V30 1454 C 139.687 -4.16942 0.897884 0
M  V30 1455 S 140.52 -4.78615 2.40183 0
M  V30 1456 C 141.676 -6.0185 1.71834 0
M  V30 1457 H 141.909 -2.5498 1.52881 0
M  V30 1458 H 139.442 -1.25922 0.893484 0
M  V30 1459 H 141.4 -4.08113 -0.442027 0
M  V30 1460 H 140.061 -3.00814 -0.903861 0
M  V30 1461 H 139.254 -5.02726 0.358096 0
M  V30 1462 H 138.856 -3.53073 1.23352 0
M  V30 1463 H 141.148 -6.69574 1.03328 0
M  V30 1464 H 142.091 -6.60408 2.55473 0
M  V30 1465 H 142.499 -5.5173 1.19392 0
M  V30 1466 N 141.898 -0.863906 -1.31812 0
M  V30 1467 C 143.314 -0.555004 -1.49639 0
M  V30 1468 C 143.514 0.912266 -1.79666 0
M  V30 1469 O 142.57 1.69479 -1.87171 0
M  V30 1470 C 143.883 -1.44998 -2.63431 0
M  V30 1471 C 145.431 -1.45138 -2.77316 0
M  V30 1472 C 145.906 -2.33179 -3.94197 0
M  V30 1473 N 147.397 -2.31025 -4.01474 0
M  V30 1474 C 148.132 -2.95871 -4.9117 0
M  V30 1475 N 147.628 -3.69863 -5.8581 0
M  V30 1476 N 149.421 -2.85211 -4.84367 0
M  V30 1477 H 141.572 -1.81339 -1.10589 0
M  V30 1478 H 143.835 -0.77505 -0.545895 0
M  V30 1479 H 143.541 -2.49377 -2.48 0
M  V30 1480 H 143.415 -1.14409 -3.59431 0
M  V30 1481 H 145.802 -0.415201 -2.92164 0
M  V30 1482 H 145.883 -1.79747 -1.82001 0
M  V30 1483 H 145.527 -3.3687 -3.80107 0
M  V30 1484 H 145.457 -1.95897 -4.88807 0
M  V30 1485 H 147.948 -1.77238 -3.33759 0
M  V30 1486 H 148.261 -4.16486 -6.50968 0
M  V30 1487 H 146.606 -3.73971 -5.85808 0
M  V30 1488 H 149.797 -2.26948 -4.09405 0
M  V30 1489 H 149.97 -3.36027 -5.54066 0
M  V30 1490 N 143.376 1.44774 -0.622745 0
M  V30 1491 C 144.653 1.95522 -0.0551974 0
M  V30 1492 C 145.033 1.5649 1.41683 0
M  V30 1493 O 144.381 0.834848 2.12703 0
M  V30 1494 C 144.591 3.4796 -0.269242 0
M  V30 1495 C 145.939 4.24306 -0.158014 0
M  V30 1496 O 146.963 3.55637 -0.200162 0
M  V30 1497 O 145.822 5.46471 -0.0558693 0
M  V30 1498 H 142.916 0.826556 0.0271015 0
M  V30 1499 H 145.462 1.54866 -0.693864 0
M  V30 1500 H 144.234 3.6939 -1.29099 0
M  V30 1501 H 143.857 3.95543 0.403966 0
M  V30 1502 N 144.854 0.36279 1.53368 0
M  V30 1503 C 146.101 -0.227776 2.01215 0
M  V30 1504 C 146.429 -1.49003 1.25014 0
M  V30 1505 O 145.684 -1.92876 0.331236 0
M  V30 1506 C 145.983 -0.568417 3.52851 0
M  V30 1507 C 145.649 0.59918 4.46901 0
M  V30 1508 C 144.311 0.919559 4.72332 0
M  V30 1509 C 146.663 1.38156 5.02556 0
M  V30 1510 C 143.991 2.02434 5.5067 0
M  V30 1511 C 146.343 2.47674 5.821 0
M  V30 1512 C 145.007 2.8025 6.05819 0
M  V30 1513 H 144.277 -0.083349 0.736297 0
M  V30 1514 H 146.924 0.494677 1.85001 0
M  V30 1515 H 145.229 -1.37185 3.66998 0
M  V30 1516 H 146.926 -1.03756 3.87344 0
M  V30 1517 H 143.516 0.339437 4.27254 0
M  V30 1518 H 147.7 1.14729 4.82857 0
M  V30 1519 H 142.956 2.28075 5.67267 0
M  V30 1520 H 147.13 3.08716 6.24234 0
M  V30 1521 H 144.757 3.65979 6.66306 0
M  V30 1522 N 146.332 -1.57332 0.0918853 0
M  V30 1523 C 147.242 -2.17368 -0.882505 0
M  V30 1524 C 148.258 -1.14226 -1.31257 0
M  V30 1525 O 149.434 -1.46582 -1.38115 0
M  V30 1526 C 146.499 -2.73962 -2.12476 0
M  V30 1527 C 145.56 -3.92048 -1.7492 0
M  V30 1528 C 144.793 -4.45933 -2.93223 0
M  V30 1529 O 145.016 -3.98764 -4.07852 0
M  V30 1530 O 143.95 -5.36999 -2.71875 0
M  V30 1531 H 147.776 -3.01031 -0.40172 0
M  V30 1532 H 145.361 -1.48813 -0.132291 0
M  V30 1533 H 147.243 -3.10147 -2.85283 0
M  V30 1534 H 145.918 -1.93347 -2.59613 0
M  V30 1535 H 144.825 -3.6068 -0.993025 0
M  V30 1536 H 146.158 -4.74017 -1.32548 0
M  V30 1537 N 147.81 0.181792 -1.56548 0
M  V30 1538 C 148.72 1.24538 -1.98815 0
M  V30 1539 C 149.736 1.49045 -0.897861 0
M  V30 1540 O 150.912 1.61399 -1.20467 0
M  V30 1541 C 147.977 2.56683 -2.33055 0
M  V30 1542 C 147.038 2.40131 -3.55859 0
M  V30 1543 C 146.271 3.65975 -3.88456 0
M  V30 1544 O 146.494 4.70711 -3.22161 0
M  V30 1545 O 145.428 3.6071 -4.81842 0
M  V30 1546 H 149.254 0.916647 -2.89536 0
M  V30 1547 H 146.839 0.387842 -1.44278 0
M  V30 1548 H 148.721 3.34655 -2.56094 0
M  V30 1549 H 147.396 2.89157 -1.45498 0
M  V30 1550 H 146.303 1.60226 -3.38051 0
M  V30 1551 H 147.636 2.12585 -4.43924 0
M  V30 1552 N 149.288 1.51039 0.449983 0
M  V30 1553 C 150.704 1.38934 0.785462 0
M  V30 1554 C 150.904 0.461817 1.96136 0
M  V30 1555 O 149.96 -0.0877389 2.52348 0
M  V30 1556 C 151.273 2.80724 1.0777 0
M  V30 1557 C 152.821 2.89787 1.1829 0
M  V30 1558 C 153.296 4.32457 1.50815 0
M  V30 1559 N 154.787 4.35505 1.57764 0
M  V30 1560 C 155.522 5.42914 1.84477 0
M  V30 1561 N 155.018 6.60502 2.09068 0
M  V30 1562 N 156.811 5.3038 1.86155 0
M  V30 1563 H 148.962 2.09904 -0.324647 0
M  V30 1564 H 151.225 0.944378 -0.0827957 0
M  V30 1565 H 150.931 3.50531 0.286498 0
M  V30 1566 H 150.805 3.19273 2.00859 0
M  V30 1567 H 153.192 2.20186 1.96474 0
M  V30 1568 H 153.273 2.54752 0.231314 0
M  V30 1569 H 152.917 5.02603 0.731622 0
M  V30 1570 H 152.847 4.64995 2.47158 0
M  V30 1571 H 155.338 3.50724 1.40715 0
M  V30 1572 H 155.651 7.38158 2.28785 0
M  V30 1573 H 153.996 6.63639 2.06416 0
M  V30 1574 H 157.187 4.37505 1.66454 0
M  V30 1575 H 157.36 6.1417 2.06637 0
M  V30 1576 N 150.766 -0.704594 1.40972 0
M  V30 1577 C 151.699 -1.82861 1.36518 0
M  V30 1578 C 152.677 -1.6091 0.23382 0
M  V30 1579 O 153.861 -1.83778 0.419271 0
M  V30 1580 C 150.988 -3.1939 1.12729 0
M  V30 1581 C 150.034 -3.60148 2.28463 0
M  V30 1582 S 150.867 -3.65994 3.90907 0
M  V30 1583 C 152.023 -5.05264 3.69403 0
M  V30 1584 H 152.256 -1.86361 2.3164 0
M  V30 1585 H 149.789 -0.872439 1.27389 0
M  V30 1586 H 151.747 -3.98211 0.996893 0
M  V30 1587 H 150.408 -3.1351 0.192427 0
M  V30 1588 H 149.601 -4.59309 2.07489 0
M  V30 1589 H 149.203 -2.88612 2.37863 0
M  V30 1590 H 151.495 -5.92504 3.28551 0
M  V30 1591 H 152.438 -5.31278 4.68134 0
M  V30 1592 H 152.846 -4.76377 3.02862 0
M  V30 1593 N 152.244 -1.26651 -0.937939 0
M  V30 1594 C 153.192 -1.08308 -2.05845 0
M  V30 1595 C 154.186 -0.0090757 -1.69398 0
M  V30 1596 O 155.392 -0.166007 -1.79233 0
M  V30 1597 H 151.767 -0.333416 -0.674046 0
M  V30 1598 H 153.738 -2.03261 -2.18467 0
M  V30 1599 C 152.487 -0.736229 -3.39816 0
M  V30 1600 H 151.81 -1.55453 -3.6834 0
M  V30 1601 H 153.25 -0.64769 -4.19024 0
M  V30 1602 C 151.709 0.558824 -3.32233 0
M  V30 1603 O 152.239 1.59621 -3.68624 0
M  V30 1604 N 150.445 0.550657 -2.85335 0
M  V30 1605 H 149.992 -0.293943 -2.55917 0
M  V30 1606 H 149.95 1.41726 -2.80644 0
M  V30 1607 N 153.722 1.14298 -1.08507 0
M  V30 1608 C 154.97 1.84993 -0.813763 0
M  V30 1609 C 155.291 1.83405 0.662393 0
M  V30 1610 O 154.561 1.28319 1.48024 0
M  V30 1611 H 153.141 0.684966 -0.298045 0
M  V30 1612 H 155.803 1.385 -1.37126 0
M  V30 1613 H 154.899 2.89788 -1.15884 0
M  V30 1614 N 155.201 0.870884 1.31352 0
M  V30 1615 C 156.431 0.496049 2.00557 0
M  V30 1616 C 156.839 -0.916241 1.65534 0
M  V30 1617 O 156.182 -1.61188 0.881134 0
M  V30 1618 C 156.244 0.574418 3.54881 0
M  V30 1619 C 155.908 1.94849 4.1338 0
M  V30 1620 C 156.905 2.91611 4.30417 0
M  V30 1621 C 154.59 2.25005 4.49086 0
M  V30 1622 C 156.584 4.16672 4.82352 0
M  V30 1623 C 154.271 3.50315 5.00722 0
M  V30 1624 C 155.269 4.45964 5.17306 0
M  V30 1625 O 154.957 5.69052 5.67833 0
M  V30 1626 H 154.689 0.191664 0.64826 0
M  V30 1627 H 157.243 1.17409 1.68536 0
M  V30 1628 H 155.473 -0.160549 3.86367 0
M  V30 1629 H 157.162 0.212879 4.05341 0
M  V30 1630 H 157.928 2.69622 4.03149 0
M  V30 1631 H 153.807 1.51332 4.35453 0
M  V30 1632 H 157.351 4.91336 4.95211 0
M  V30 1633 H 153.248 3.72147 5.27424 0
M  V30 1634 H 154.016 5.71236 5.86201 0
M  V30 1635 N 156.679 -1.44442 0.630414 0
M  V30 1636 C 157.927 -2.01653 0.134351 0
M  V30 1637 C 158.248 -1.49836 -1.24796 0
M  V30 1638 O 157.518 -0.701684 -1.82902 0
M  V30 1639 H 156.098 -0.74554 0.0466769 0
M  V30 1640 H 158.76 -1.76952 0.816955 0
M  V30 1641 H 157.856 -3.11935 0.101498 0
M  V30 1642 N 158.157 -0.370918 -1.53173 0
M  V30 1643 C 159.397 0.217106 -2.03244 0
M  V30 1644 C 159.761 1.45558 -1.25207 0
M  V30 1645 O 160.962 2.11957 -1.65311 0
M  V30 1646 C 159.233 0.496664 -3.53932 0
M  V30 1647 S 160.792 1.0576 -4.25864 0
M  V30 1648 H 157.61 0.0627827 -0.708223 0
M  V30 1649 H 160.212 -0.515019 -1.88594 0
M  V30 1650 H 158.916 -0.412096 -4.08326 0
M  V30 1651 H 158.447 1.25772 -3.72753 0
M  V30 1652 H 160.462 2.34145 -4.37482 0
M  V30 1653 N 159.635 1.57281 -0.100228 0
M  V30 1654 C 160.881 1.94826 0.563101 0
M  V30 1655 C 161.214 0.982475 1.67514 0
M  V30 1656 O 160.489 0.0164069 1.94493 0
M  V30 1657 C 160.772 3.42453 1.11346 0
M  V30 1658 C 160.625 4.498 0.00612081 0
M  V30 1659 C 161.944 3.91506 2.01024 0
M  V30 1660 H 159.063 0.708428 0.203221 0
M  V30 1661 H 161.705 1.8922 -0.171979 0
M  V30 1662 H 159.855 3.47361 1.7399 0
M  V30 1663 H 161.527 4.57 -0.628357 0
M  V30 1664 H 159.77 4.28756 -0.659581 0
M  V30 1665 H 160.441 5.50306 0.432109 0
M  V30 1666 H 162.917 3.88784 1.48278 0
M  V30 1667 H 161.793 4.95358 2.36457 0
M  V30 1668 H 162.054 3.31099 2.92961 0
M  V30 1669 N 161.113 -0.173488 1.56642 0
M  V30 1670 C 162.359 -0.891784 1.8214 0
M  V30 1671 C 162.692 -1.8199 0.677736 0
M  V30 1672 O 161.967 -1.91842 -0.320446 0
M  V30 1673 C 162.25 -1.68933 3.18015 0
M  V30 1674 C 162.103 -0.784487 4.42906 0
M  V30 1675 C 163.422 -2.65748 3.50808 0
M  V30 1676 H 160.541 -0.322761 0.662567 0
M  V30 1677 H 163.183 -0.158095 1.89341 0
M  V30 1678 H 161.333 -2.31482 3.12007 0
M  V30 1679 H 163.005 -0.172046 4.60979 0
M  V30 1680 H 161.248 -0.0924117 4.33702 0
M  V30 1681 H 161.919 -1.37799 5.34524 0
M  V30 1682 H 164.395 -2.13327 3.57255 0
M  V30 1683 H 163.271 -3.18619 4.4696 0
M  V30 1684 H 163.532 -3.45842 2.75401 0
M  V30 1685 N 162.591 -1.51276 -0.441967 0
M  V30 1686 C 163.837 -1.63958 -1.19355 0
M  V30 1687 C 164.17 -0.352543 -1.90973 0
M  V30 1688 O 163.445 0.647627 -1.83401 0
M  V30 1689 C 163.728 -2.83979 -2.21422 0
M  V30 1690 C 163.581 -4.22646 -1.53918 0
M  V30 1691 C 164.9 -2.99521 -3.22451 0
M  V30 1692 H 162.019 -0.596709 -0.432559 0
M  V30 1693 H 164.661 -1.83748 -0.483398 0
M  V30 1694 H 162.811 -2.67237 -2.81987 0
M  V30 1695 H 164.483 -4.51045 -0.967256 0
M  V30 1696 H 162.726 -4.25558 -0.841615 0
M  V30 1697 H 163.397 -5.02609 -2.28229 0
M  V30 1698 H 165.873 -3.14944 -2.71937 0
M  V30 1699 H 164.749 -3.85072 -3.91166 0
M  V30 1700 H 165.01 -2.11391 -3.88287 0
M  V30 1701 N 164.069 0.697108 -1.41344 0
M  V30 1702 C 164.979 1.84088 -1.45427 0
M  V30 1703 C 165.995 1.70545 -0.34501 0
M  V30 1704 O 167.171 1.92488 -0.592492 0
M  V30 1705 C 164.236 3.20056 -1.33286 0
M  V30 1706 C 163.297 3.45718 -2.54514 0
M  V30 1707 C 162.53 4.75199 -2.42944 0
M  V30 1708 O 162.753 5.51579 -1.45318 0
M  V30 1709 O 161.687 5.0161 -3.32672 0
M  V30 1710 H 165.513 1.836 -2.41919 0
M  V30 1711 H 163.098 0.849966 -1.22866 0
M  V30 1712 H 164.98 4.01236 -1.28794 0
M  V30 1713 H 163.655 3.2123 -0.39909 0
M  V30 1714 H 162.562 2.64474 -2.64583 0
M  V30 1715 H 163.895 3.49356 -3.46715 0
M  V30 1716 N 165.547 1.27147 0.931209 0
M  V30 1717 C 166.775 1.16082 1.71267 0
M  V30 1718 C 167.19 -0.282772 1.8667 0
M  V30 1719 O 166.547 -1.19283 1.38122 0
M  V30 1720 C 166.598 1.8358 3.11417 0
M  V30 1721 O 166.319 3.22299 2.96741 0
M  V30 1722 C 167.82 1.78597 4.05732 0
M  V30 1723 H 165.04 0.403758 0.535929 0
M  V30 1724 H 167.584 1.67953 1.16671 0
M  V30 1725 H 165.739 1.35623 3.62885 0
M  V30 1726 H 166.153 3.55851 3.85319 0
M  V30 1727 H 167.627 2.30444 5.01597 0
M  V30 1728 H 168.104 0.754564 4.3267 0
M  V30 1729 H 168.71 2.26152 3.60188 0
M  V30 1730 N 167.025 -1.13721 1.09112 0
M  V30 1731 C 168.436 -1.6648 0.845068 0
M  V30 1732 C 168.787 -1.85911 -0.62701 0
M  V30 1733 O 167.912 -1.57556 -1.48341 0
M  V30 1734 C 168.507 -3.02413 1.52748 0
M  V30 1735 C 167.066 -3.52176 1.32849 0
M  V30 1736 C 166.213 -2.27492 1.58564 0
M  V30 1737 H 169.164 -0.976872 1.25072 0
M  V30 1738 H 169.185 -3.68223 0.958752 0
M  V30 1739 H 168.697 -2.88238 2.59885 0
M  V30 1740 H 166.798 -3.7156 0.278137 0
M  V30 1741 H 166.911 -4.32499 2.0611 0
M  V30 1742 H 165.275 -2.33923 1.00758 0
M  V30 1743 H 166.058 -2.15886 2.66924 0
M  V30 1744 N 168.503 -0.877838 -1.30888 0
M  V30 1745 C 169.433 -0.35534 -2.3078 0
M  V30 1746 C 170.414 0.557994 -1.60687 0
M  V30 1747 O 171.599 0.473355 -1.88343 0
M  V30 1748 C 168.729 0.437221 -3.44537 0
M  V30 1749 C 167.683 -0.383715 -4.26276 0
M  V30 1750 C 167.009 0.535014 -5.32017 0
M  V30 1751 C 168.309 -1.62201 -4.96476 0
M  V30 1752 H 170.003 -1.19007 -2.74732 0
M  V30 1753 H 167.549 -0.573698 -1.32078 0
M  V30 1754 H 169.502 0.813334 -4.13477 0
M  V30 1755 H 168.226 1.30553 -2.99372 0
M  V30 1756 H 166.885 -0.741874 -3.59015 0
M  V30 1757 H 166.533 1.40083 -4.831 0
M  V30 1758 H 166.233 -0.0104211 -5.87599 0
M  V30 1759 H 167.757 0.907799 -6.03814 0
M  V30 1760 H 169.171 -1.31689 -5.5797 0
M  V30 1761 H 167.568 -2.10711 -5.61891 0
M  V30 1762 H 168.638 -2.37044 -4.23011 0
M  V30 1763 N 169.982 1.44106 -0.638065 0
M  V30 1764 C 171.231 2.01194 -0.142744 0
M  V30 1765 C 171.544 1.50835 1.24532 0
M  V30 1766 O 172.75 2.00096 1.83504 0
M  V30 1767 C 171.206 3.59319 -0.20442 0
M  V30 1768 C 170.814 4.18674 -1.59423 0
M  V30 1769 C 172.558 4.23854 0.234079 0
M  V30 1770 C 170.465 5.69045 -1.61065 0
M  V30 1771 H 169.395 0.752367 -0.0495998 0
M  V30 1772 H 172.046 1.65246 -0.797881 0
M  V30 1773 H 170.428 3.92598 0.517946 0
M  V30 1774 H 171.602 3.96921 -2.34074 0
M  V30 1775 H 169.917 3.66453 -1.97741 0
M  V30 1776 H 172.514 5.34155 0.241443 0
M  V30 1777 H 172.857 3.96688 1.2627 0
M  V30 1778 H 173.39 3.95403 -0.436025 0
M  V30 1779 H 170.129 6.00956 -2.61787 0
M  V30 1780 H 169.649 5.929 -0.90718 0
M  V30 1781 H 171.328 6.32809 -1.34766 0
M  V30 1782 N 171.46 0.379036 1.52974 0
M  V30 1783 C 172.706 -0.206727 2.01744 0
M  V30 1784 C 173.039 -1.47314 1.26539 0
M  V30 1785 O 172.314 -1.91084 0.362903 0
M  V30 1786 C 172.597 -0.485066 3.56818 0
M  V30 1787 C 172.45 0.795919 4.42702 0
M  V30 1788 C 173.769 -1.28003 4.21074 0
M  V30 1789 H 170.888 -0.0736607 0.73331 0
M  V30 1790 H 173.53 0.506581 1.83122 0
M  V30 1791 H 171.68 -1.09272 3.72816 0
M  V30 1792 H 173.352 1.43307 4.38476 0
M  V30 1793 H 171.595 1.41344 4.10127 0
M  V30 1794 H 172.266 0.555947 5.49193 0
M  V30 1795 H 174.742 -0.765867 4.08991 0
M  V30 1796 H 173.618 -1.44352 5.29579 0
M  V30 1797 H 173.879 -2.29236 3.78026 0
M  V30 1798 N 172.938 -1.57226 0.108567 0
M  V30 1799 C 173.87 -2.11809 -0.875752 0
M  V30 1800 C 174.883 -1.05839 -1.23701 0
M  V30 1801 O 176.072 -1.33245 -1.18778 0
M  V30 1802 C 173.172 -2.59411 -2.18081 0
M  V30 1803 C 172.345 -3.89364 -1.99284 0
M  V30 1804 C 171.404 -4.22672 -3.13424 0
M  V30 1805 O 170.43 -4.91668 -2.86795 0
M  V30 1806 N 171.632 -3.79154 -4.3957 0
M  V30 1807 H 174.397 -2.9689 -0.409477 0
M  V30 1808 H 171.958 -1.61721 -0.076158 0
M  V30 1809 H 173.95 -2.7873 -2.93414 0
M  V30 1810 H 172.52 -1.79268 -2.5609 0
M  V30 1811 H 171.74 -3.79059 -1.08203 0
M  V30 1812 H 173.028 -4.74358 -1.84017 0
M  V30 1813 H 172.426 -3.23486 -4.64083 0
M  V30 1814 H 170.983 -4.03602 -5.11809 0
M  V30 1815 N 174.416 0.165178 -1.56732 0
M  V30 1816 C 175.364 1.22369 -1.97809 0
M  V30 1817 C 176.358 1.45488 -0.867741 0
M  V30 1818 O 177.564 1.45995 -1.05288 0
M  V30 1819 H 173.939 0.411486 -0.629431 0
M  V30 1820 H 175.91 0.850425 -2.86025 0
M  V30 1821 C 174.659 2.55403 -2.35934 0
M  V30 1822 H 173.982 2.38438 -3.20916 0
M  V30 1823 H 175.422 3.2814 -2.68514 0
M  V30 1824 C 173.881 3.14611 -1.20506 0
M  V30 1825 O 174.411 3.98626 -0.496016 0
M  V30 1826 N 172.617 2.7379 -0.97403 0
M  V30 1827 H 172.164 2.0557 -1.55238 0
M  V30 1828 H 172.122 3.1374 -0.203573 0
M  V30 1829 N 175.894 1.51508 0.433938 0
M  V30 1830 C 176.804 1.75917 1.5521 0
M  V30 1831 C 177.82 0.643545 1.61662 0
M  V30 1832 O 178.996 0.926183 1.7884 0
M  V30 1833 C 176.061 1.88213 2.91164 0
M  V30 1834 C 175.122 3.12074 2.94802 0
M  V30 1835 C 174.355 3.23774 4.24271 0
M  V30 1836 O 174.578 2.4133 5.16833 0
M  V30 1837 O 173.512 4.16774 4.34262 0
M  V30 1838 H 177.338 2.70777 1.37527 0
M  V30 1839 H 174.923 1.36051 0.617293 0
M  V30 1840 H 176.805 1.98267 3.71845 0
M  V30 1841 H 175.48 0.965413 3.08968 0
M  V30 1842 H 174.387 3.07497 2.13065 0
M  V30 1843 H 175.72 4.03446 2.81943 0
M  V30 1844 N 177.372 -0.689602 1.41712 0
M  V30 1845 C 178.783 -1.26973 1.36875 0
M  V30 1846 C 179.134 -1.96124 0.054748 0
M  V30 1847 O 178.259 -1.99141 -0.84687 0
M  V30 1848 C 178.854 -2.30912 2.47922 0
M  V30 1849 C 177.413 -2.84486 2.46464 0
M  V30 1850 C 176.56 -1.58603 2.27465 0
M  V30 1851 H 179.511 -0.48396 1.51141 0
M  V30 1852 H 179.532 -3.12331 2.17323 0
M  V30 1853 H 179.044 -1.80554 3.43543 0
M  V30 1854 H 177.145 -3.39005 1.54617 0
M  V30 1855 H 177.258 -3.34511 3.42986 0
M  V30 1856 H 175.622 -1.84632 1.75451 0
M  V30 1857 H 176.405 -1.10233 3.25121 0
M  V30 1858 N 178.85 -1.27639 -0.924453 0
M  V30 1859 C 180.127 -1.04887 -1.651 0
M  V30 1860 C 180.507 0.415327 -2.06974 0
M  V30 1861 O 179.855 1.39923 -1.80648 0
M  V30 1862 C 180.065 -2.01348 -2.85061 0
M  V30 1863 C 181.413 -2.30899 -3.56329 0
M  V30 1864 O 182.437 -1.99348 -2.95193 0
M  V30 1865 O 181.296 -2.84699 -4.66485 0
M  V30 1866 H 178.39 -0.400083 -0.723784 0
M  V30 1867 H 180.936 -1.38916 -0.974703 0
M  V30 1868 H 179.708 -3.0008 -2.51133 0
M  V30 1869 H 179.331 -1.679 -3.6041 0
M  V30 1870 N 180.328 1.1314 -1.09713 0
M  V30 1871 C 181.238 2.22242 -0.751367 0
M  V30 1872 C 182.254 1.72224 0.247938 0
M  V30 1873 O 183.43 2.01205 0.0885463 0
M  V30 1874 C 180.495 3.46231 -0.180274 0
M  V30 1875 C 179.556 4.11125 -1.2359 0
M  V30 1876 C 178.789 5.29195 -0.691966 0
M  V30 1877 O 179.012 5.68342 0.48414 0
M  V30 1878 O 177.946 5.84214 -1.44838 0
M  V30 1879 H 181.772 2.54197 -1.66186 0
M  V30 1880 H 179.357 1.21331 -0.871735 0
M  V30 1881 H 181.239 4.21185 0.134739 0
M  V30 1882 H 179.914 3.1597 0.703185 0
M  V30 1883 H 178.821 3.37985 -1.60366 0
M  V30 1884 H 180.154 4.45524 -2.09211 0
M  V30 1885 N 181.806 0.884767 1.30421 0
M  V30 1886 C 182.769 0.356277 2.26414 0
M  V30 1887 C 183.769 -0.501124 1.52792 0
M  V30 1888 O 184.959 -0.30831 1.7145 0
M  V30 1889 C 182.091 -0.492316 3.37326 0
M  V30 1890 H 183.284 1.20389 2.74675 0
M  V30 1891 H 180.837 0.661607 1.41607 0
M  V30 1892 H 181.572 -1.36052 2.94381 0
M  V30 1893 H 181.357 0.121832 3.91911 0
M  V30 1894 H 182.847 -0.853871 4.08777 0
M  V30 1895 N 183.284 -1.43765 0.645699 0
M  V30 1896 C 184.194 -2.34544 -0.0512957 0
M  V30 1897 C 185.21 -1.53455 -0.82022 0
M  V30 1898 O 186.386 -1.86133 -0.769176 0
M  V30 1899 C 183.451 -3.31636 -1.01087 0
M  V30 1900 C 182.512 -4.2863 -0.239712 0
M  V30 1901 C 181.745 -5.21084 -1.15358 0
M  V30 1902 O 181.968 -5.1779 -2.39269 0
M  V30 1903 O 180.902 -5.98593 -0.630038 0
M  V30 1904 H 184.728 -2.95624 0.695718 0
M  V30 1905 H 182.313 -1.43781 0.405882 0
M  V30 1906 H 184.195 -3.9136 -1.56254 0
M  V30 1907 H 182.87 -2.73069 -1.73824 0
M  V30 1908 H 181.777 -3.72408 0.355356 0
M  V30 1909 H 183.11 -4.90157 0.447936 0
M  V30 1910 N 184.763 -0.387143 -1.52771 0
M  V30 1911 C 185.695 0.484089 -2.2403 0
M  V30 1912 C 186.708 1.02849 -1.26198 0
M  V30 1913 O 187.897 0.931186 -1.52286 0
M  V30 1914 C 184.997 1.68337 -2.94136 0
M  V30 1915 C 184.17 1.26672 -4.18656 0
M  V30 1916 C 183.229 2.33045 -4.7178 0
M  V30 1917 O 182.255 1.94541 -5.34923 0
M  V30 1918 N 183.457 3.64929 -4.5145 0
M  V30 1919 H 186.222 -0.126404 -2.99433 0
M  V30 1920 H 183.783 -0.213392 -1.60488 0
M  V30 1921 H 185.775 2.39019 -3.26577 0
M  V30 1922 H 184.345 2.20025 -2.22053 0
M  V30 1923 H 183.565 0.388878 -3.92277 0
M  V30 1924 H 184.853 0.964964 -4.99566 0
M  V30 1925 H 184.251 3.98974 -4.01044 0
M  V30 1926 H 182.808 4.31651 -4.88386 0
M  V30 1927 N 186.241 1.57166 -0.116904 0
M  V30 1928 C 187.518 1.86645 0.585049 0
M  V30 1929 C 187.898 1.0177 1.84949 0
M  V30 1930 O 187.246 0.0960379 2.28298 0
M  V30 1931 C 187.456 3.37736 0.879507 0
M  V30 1932 C 188.804 4.06289 1.23348 0
M  V30 1933 O 189.828 3.42743 0.969836 0
M  V30 1934 O 188.687 5.18455 1.7282 0
M  V30 1935 H 185.781 0.772593 0.295007 0
M  V30 1936 H 188.327 1.69025 -0.151249 0
M  V30 1937 H 187.099 3.91296 -0.0166136 0
M  V30 1938 H 186.722 3.6078 1.67103 0
M  V30 1939 N 187.719 -0.156864 1.56817 0
M  V30 1940 C 188.959 -0.877453 1.84608 0
M  V30 1941 C 189.323 -1.78791 0.699845 0
M  V30 1942 O 190.524 -2.5472 0.858553 0
M  V30 1943 C 188.795 -1.63992 3.17555 0
M  V30 1944 S 190.354 -2.40729 3.66872 0
M  V30 1945 H 187.172 -0.293612 0.647544 0
M  V30 1946 H 189.774 -0.138099 1.95012 0
M  V30 1947 H 188.478 -0.962363 3.98957 0
M  V30 1948 H 188.009 -2.42038 3.10131 0
M  V30 1949 H 190.024 -3.65725 3.3535 0
M  V30 1950 N 189.197 -1.51736 -0.425897 0
M  V30 1951 C 190.446 -1.64201 -1.17136 0
M  V30 1952 C 190.759 -0.369705 -1.92074 0
M  V30 1953 O 191.965 -0.373898 -2.68913 0
M  V30 1954 C 190.421 -2.90035 -2.13091 0
M  V30 1955 C 190.029 -4.24312 -1.43747 0
M  V30 1956 C 191.773 -3.1186 -2.87999 0
M  V30 1957 C 189.68 -5.41285 -2.38253 0
M  V30 1958 H 188.61 -0.611624 -0.440944 0
M  V30 1959 H 191.261 -1.78212 -0.437328 0
M  V30 1960 H 189.643 -2.69684 -2.89977 0
M  V30 1961 H 190.817 -4.55086 -0.723408 0
M  V30 1962 H 189.132 -4.08456 -0.809465 0
M  V30 1963 H 191.729 -3.96427 -3.58817 0
M  V30 1964 H 192.072 -2.25403 -3.49999 0
M  V30 1965 H 192.605 -3.32605 -2.18217 0
M  V30 1966 H 189.344 -6.30037 -1.80925 0
M  V30 1967 H 188.864 -5.14872 -3.0768 0
M  V30 1968 H 190.543 -5.73694 -2.99139 0
M  V30 1969 N 190.675 0.682077 -1.42076 0
M  V30 1970 C 191.585 1.82535 -1.47371 0
M  V30 1971 C 192.601 1.7017 -0.363079 0
M  V30 1972 O 193.777 1.91848 -0.612875 0
M  V30 1973 C 190.842 3.18624 -1.36674 0
M  V30 1974 C 189.903 3.42999 -2.58167 0
M  V30 1975 C 189.136 4.72595 -2.4797 0
M  V30 1976 O 189.359 5.50006 -1.5116 0
M  V30 1977 O 188.293 4.98054 -3.37974 0
M  V30 1978 H 192.119 1.81023 -2.43853 0
M  V30 1979 H 189.704 0.836887 -1.2376 0
M  V30 1980 H 191.586 3.99847 -1.33043 0
M  V30 1981 H 190.261 3.20789 -0.433138 0
M  V30 1982 H 189.168 2.61653 -2.67373 0
M  V30 1983 H 190.501 3.45659 -3.50401 0
M  V30 1984 N 192.153 1.28127 0.917671 0
M  V30 1985 C 193.4 1.15052 1.66641 0
M  V30 1986 C 193.728 -0.301677 1.92146 0
M  V30 1987 O 192.983 -1.23622 1.51711 0
M  V30 1988 C 193.282 1.89018 3.03327 0
M  V30 1989 C 192.948 3.38832 2.97496 0
M  V30 1990 C 191.61 3.79693 2.95613 0
M  V30 1991 C 193.962 4.34378 2.88036 0
M  V30 1992 C 191.29 5.14447 2.82066 0
M  V30 1993 C 193.642 5.69201 2.7603 0
M  V30 1994 C 192.306 6.09343 2.72502 0
M  V30 1995 H 191.576 0.421006 0.609783 0
M  V30 1996 H 194.223 1.58855 1.06945 0
M  V30 1997 H 192.528 1.37752 3.66785 0
M  V30 1998 H 194.225 1.76321 3.60156 0
M  V30 1999 H 190.815 3.06342 2.99754 0
M  V30 2000 H 194.999 4.03775 2.88581 0
M  V30 2001 H 190.255 5.44681 2.77728 0
M  V30 2002 H 194.429 6.42901 2.67678 0
M  V30 2003 H 192.056 7.13712 2.61762 0
M  V30 2004 N 193.631 -1.12557 1.10312 0
M  V30 2005 C 194.879 -1.83675 0.843091 0
M  V30 2006 C 195.2 -1.84435 -0.633131 0
M  V30 2007 O 194.47 -1.30657 -1.45964 0
M  V30 2008 H 193.05 -0.680138 0.308904 0
M  V30 2009 H 195.712 -1.36301 1.39313 0
M  V30 2010 H 194.808 -2.87908 1.2048 0
M  V30 2011 N 195.109 -0.891671 -1.2995 0
M  V30 2012 C 196.056 -0.361736 -2.27948 0
M  V30 2013 C 197.026 0.551761 -1.56668 0
M  V30 2014 O 198.211 0.478736 -1.84696 0
M  V30 2015 C 195.351 0.411825 -3.42634 0
M  V30 2016 C 194.464 -0.531651 -4.28716 0
M  V30 2017 C 193.599 0.258167 -5.30572 0
M  V30 2018 C 192.638 -0.680349 -6.08307 0
M  V30 2019 N 191.775 0.0745613 -7.0206 0
M  V30 2020 H 196.615 -1.20254 -2.72659 0
M  V30 2021 H 194.152 -0.604352 -1.34112 0
M  V30 2022 H 196.11 0.876304 -4.07893 0
M  V30 2023 H 194.74 1.21715 -2.98974 0
M  V30 2024 H 193.792 -1.11463 -3.63703 0
M  V30 2025 H 195.104 -1.25038 -4.82874 0
M  V30 2026 H 194.258 0.784204 -6.0161 0
M  V30 2027 H 192.997 1.01008 -4.77126 0
M  V30 2028 H 192.002 -1.21796 -5.3614 0
M  V30 2029 H 193.227 -1.43145 -6.63842 0
M  V30 2030 H 191.173 0.808883 -6.50994 0
M  V30 2031 H 191.09 -0.584409 -7.53738 0
M  V30 2032 H 192.358 0.581123 -7.77331 0
M  V30 2033 N 196.587 1.43421 -0.653314 0
M  V30 2034 C 197.534 2.30768 0.0382271 0
M  V30 2035 C 198.504 1.44755 0.814576 0
M  V30 2036 O 199.689 1.73624 0.791162 0
M  V30 2037 C 196.829 3.30336 0.998599 0
M  V30 2038 C 195.942 4.31448 0.218342 0
M  V30 2039 C 195.077 5.18098 1.17252 0
M  V30 2040 C 194.116 6.10902 0.382702 0
M  V30 2041 N 193.253 6.90176 1.28848 0
M  V30 2042 H 198.093 2.89357 -0.712511 0
M  V30 2043 H 195.63 1.42548 -0.363128 0
M  V30 2044 H 197.588 3.86572 1.56901 0
M  V30 2045 H 196.218 2.73397 1.71621 0
M  V30 2046 H 195.27 3.77506 -0.46836 0
M  V30 2047 H 196.582 4.97227 -0.395812 0
M  V30 2048 H 195.736 5.7896 1.81356 0
M  V30 2049 H 194.475 4.52444 1.82058 0
M  V30 2050 H 193.48 5.49128 -0.27169 0
M  V30 2051 H 194.705 6.78598 -0.260957 0
M  V30 2052 H 192.651 6.27171 1.92334 0
M  V30 2053 H 192.568 7.52478 0.728887 0
M  V30 2054 H 193.836 7.55543 1.91766 0
M  V30 2055 N 198.065 0.39524 1.52563 0
M  V30 2056 C 199.314 -0.186321 2.00838 0
M  V30 2057 C 199.627 -1.47402 1.28577 0
M  V30 2058 O 200.833 -2.13599 1.67593 0
M  V30 2059 C 199.289 -0.382595 3.57861 0
M  V30 2060 C 198.897 0.892202 4.39026 0
M  V30 2061 C 200.641 -0.9202 4.14406 0
M  V30 2062 C 198.548 0.66388 5.87662 0
M  V30 2063 H 197.478 -0.0734041 0.750418 0
M  V30 2064 H 200.129 0.518552 1.76021 0
M  V30 2065 H 198.511 -1.14946 3.7895 0
M  V30 2066 H 199.685 1.66414 4.29701 0
M  V30 2067 H 198 1.35519 3.9373 0
M  V30 2068 H 200.597 -1.10683 5.23119 0
M  V30 2069 H 200.94 -1.89096 3.70875 0
M  V30 2070 H 201.473 -0.212751 3.97231 0
M  V30 2071 H 198.212 1.6058 6.35527 0
M  V30 2072 H 197.732 -0.0690193 5.9976 0
M  V30 2073 H 199.411 0.300699 6.46301 0
M  V30 2074 N 199.544 -1.57102 0.125237 0
M  V30 2075 C 200.507 -2.14471 -0.80838 0
M  V30 2076 C 201.507 -1.0811 -1.19033 0
M  V30 2077 O 202.697 -1.33856 -1.11482 0
M  V30 2078 C 199.829 -2.69005 -2.09402 0
M  V30 2079 H 201.022 -2.98297 -0.309696 0
M  V30 2080 H 198.575 -1.55807 -0.124051 0
M  V30 2081 H 199.31 -1.88785 -2.63687 0
M  V30 2082 H 199.095 -3.46799 -1.82957 0
M  V30 2083 H 200.585 -3.13278 -2.76128 0
M  V30 2084 N 201.022 0.148545 -1.56898 0
M  V30 2085 C 201.97 1.20265 -1.99096 0
M  V30 2086 C 202.964 1.44559 -0.883123 0
M  V30 2087 O 204.17 1.4487 -1.0683 0
M  V30 2088 H 200.545 0.404786 -0.63376 0
M  V30 2089 H 202.516 0.82004 -2.86911 0
M  V30 2090 C 201.265 2.52886 -2.3863 0
M  V30 2091 H 200.588 2.35021 -3.23427 0
M  V30 2092 H 202.028 3.25274 -2.7198 0
M  V30 2093 C 200.487 3.13315 -1.23837 0
M  V30 2094 O 201.017 3.98077 -0.538268 0
M  V30 2095 N 199.223 2.72742 -1.00301 0
M  V30 2096 H 198.77 2.03912 -1.5741 0
M  V30 2097 H 198.728 3.13507 -0.236838 0
M  V30 2098 N 202.5 1.5196 0.417844 0
M  V30 2099 C 203.749 1.6482 1.16264 0
M  V30 2100 C 204.062 0.379886 1.91876 0
M  V30 2101 O 205.268 0.388154 2.68711 0
M  V30 2102 C 203.724 2.91161 2.1155 0
M  V30 2103 C 203.332 4.25068 1.41495 0
M  V30 2104 C 205.076 3.13383 2.86341 0
M  V30 2105 C 202.983 5.42541 2.35379 0
M  V30 2106 H 201.913 0.613954 0.437694 0
M  V30 2107 H 204.564 1.78442 0.427871 0
M  V30 2108 H 202.946 2.71218 2.88543 0
M  V30 2109 H 204.12 4.55463 0.699263 0
M  V30 2110 H 202.435 4.0888 0.787792 0
M  V30 2111 H 205.032 3.98324 3.5671 0
M  V30 2112 H 205.375 2.27256 3.48798 0
M  V30 2113 H 205.908 3.33757 2.1645 0
M  V30 2114 H 202.647 6.30987 1.77582 0
M  V30 2115 H 202.167 5.16497 3.04945 0
M  V30 2116 H 203.846 5.75272 2.96093 0
M  V30 2117 O 204.017 -0.563693 1.51343 0
M  V30 2118 H 204.708 -1.21879 1.5055 0
M  V30 END ATOM
M  V30 BEGIN BOND
M  V30 END BOND
M  V30 END CTAB
M  END
$$$$
