drugbank_drug|DB00060 DB00060 sequence
 OpenBabel12092119123D

  0  0  0     0  0            999 V3000
M  V30 BEGIN CTAB
M  V30 COUNTS 2825 2855 0 0 0
M  V30 BEGIN ATOM
M  V30 1 H -0.908 1.98254 -0.117106 0
M  V30 2 N 0 1.576 0 0
M  V30 3 C 0.933 2.03868 1.02534 0
M  V30 4 C 1.911 0.928543 1.3348 0
M  V30 5 O 3.095 1.19667 1.45644 0
M  V30 6 C 0.222 2.43627 2.35294 0
M  V30 7 C -0.732 3.65373 2.2001 0
M  V30 8 S 0.101 5.13292 1.52614 0
M  V30 9 C 1.257 5.56322 2.86805 0
M  V30 10 H 1.49 2.90518 0.631377 0
M  V30 11 H -0.977 1.52953 0.210867 0
M  V30 12 H 0.981 2.67203 3.11629 0
M  V30 13 H -0.358 1.57376 2.7183 0
M  V30 14 H -1.165 3.90944 3.18086 0
M  V30 15 H -1.563 3.418 1.51819 0
M  V30 16 H 0.729 5.58782 3.83104 0
M  V30 17 H 1.672 6.56266 2.65933 0
M  V30 18 H 2.08 4.83886 2.90714 0
M  V30 19 N 1.4781 -0.272755 1.55222 0
M  V30 20 C 2.7031 -1.02683 1.80197 0
M  V30 21 C 3.1281 -1.79142 0.573551 0
M  V30 22 O 2.4861 -1.74917 -0.476849 0
M  V30 23 C 2.5341 -1.9609 3.02624 0
M  V30 24 O 1.6381 -3.04863 2.77727 0
M  V30 25 H 0.9791 -0.293557 0.595584 0
M  V30 26 H 3.5091 -0.30159 2.02365 0
M  V30 27 H 3.5191 -2.38039 3.31363 0
M  V30 28 H 2.1941 -1.39851 3.91682 0
M  V30 29 H 0.7711 -2.67228 2.60084 0
M  V30 30 N 2.9562 -1.48159 -0.537278 0
M  V30 31 C 4.1862 -1.59223 -1.3165 0
M  V30 32 C 4.5942 -0.248849 -1.87556 0
M  V30 33 O 3.9372 0.770949 -1.6674 0
M  V30 34 C 3.9992 -2.57365 -2.51005 0
M  V30 35 C 3.6632 -4.02603 -2.16239 0
M  V30 36 C 4.6602 -4.90503 -1.72344 0
M  V30 37 C 2.3452 -4.48088 -2.26986 0
M  V30 38 C 4.3392 -6.21913 -1.39651 0
M  V30 39 C 2.0262 -5.7952 -1.93906 0
M  V30 40 C 3.0242 -6.66255 -1.50309 0
M  V30 41 O 2.7122 -7.95243 -1.17659 0
M  V30 42 H 2.4442 -0.539831 -0.406889 0
M  V30 43 H 4.9982 -1.94655 -0.655641 0
M  V30 44 H 3.2282 -2.1704 -3.20048 0
M  V30 45 H 4.9172 -2.58342 -3.13072 0
M  V30 46 H 5.6832 -4.56604 -1.63517 0
M  V30 47 H 1.5622 -3.80769 -2.59877 0
M  V30 48 H 5.1062 -6.89569 -1.0555 0
M  V30 49 H 1.0032 -6.12957 -2.02371 0
M  V30 50 H 1.7712 -8.0793 -1.31119 0
M  V30 51 N 4.4343 0.785586 -1.36625 0
M  V30 52 C 5.3823 1.91978 -1.31329 0
M  V30 53 C 6.3763 1.68162 -0.204416 0
M  V30 54 O 7.5823 1.76122 -0.371645 0
M  V30 55 H 3.9573 0.631087 -0.408942 0
M  V30 56 H 5.9283 1.93562 -2.27104 0
M  V30 57 C 4.6773 3.29055 -1.12329 0
M  V30 58 H 4.0003 3.4795 -1.96903 0
M  V30 59 H 5.4403 4.08756 -1.12671 0
M  V30 60 C 3.8993 3.36461 0.171861 0
M  V30 61 O 4.4293 3.84576 1.16035 0
M  V30 62 N 2.6353 2.89782 0.217846 0
M  V30 63 H 2.1823 2.50819 -0.587183 0
M  V30 64 H 2.1403 2.95119 1.08408 0
M  V30 65 N 5.9124 1.20967 1.01018 0
M  V30 66 C 6.8424 0.988272 2.11555 0
M  V30 67 C 7.8234 -0.0849778 1.69888 0
M  V30 68 O 9.0084 0.0738202 1.9406 0
M  V30 69 C 6.1384 0.546528 3.42973 0
M  V30 70 C 5.0924 1.56375 3.9841 0
M  V30 71 C 4.4184 0.97842 5.25672 0
M  V30 72 C 5.7184 2.94922 4.31066 0
M  V30 73 H 7.4124 1.91276 2.30334 0
M  V30 74 H 4.9584 0.921073 1.1069 0
M  V30 75 H 6.9114 0.378839 4.19694 0
M  V30 76 H 5.6354 -0.413598 3.23971 0
M  V30 77 H 4.2944 1.71891 3.23804 0
M  V30 78 H 3.9424 0.0101688 5.02999 0
M  V30 79 H 3.6424 1.65784 5.63728 0
M  V30 80 H 5.1664 0.821939 6.05043 0
M  V30 81 H 6.5804 2.8288 4.9865 0
M  V30 82 H 4.9774 3.5983 4.80253 0
M  V30 83 H 6.0474 3.4616 3.39561 0
M  V30 84 N 7.3905 -1.2043 1.01659 0
M  V30 85 C 8.3205 -2.25466 0.607226 0
M  V30 86 C 9.3015 -1.65853 -0.377716 0
M  V30 87 O 10.4865 -1.92409 -0.263149 0
M  V30 88 C 7.6165 -3.47256 -0.0552949 0
M  V30 89 C 6.5705 -4.19462 0.850632 0
M  V30 90 C 5.8965 -5.34673 0.0538859 0
M  V30 91 C 7.1965 -4.75603 2.15868 0
M  V30 92 H 8.8905 -2.59962 1.48526 0
M  V30 93 H 6.4365 -1.2496 0.715605 0
M  V30 94 H 8.3895 -4.19917 -0.353233 0
M  V30 95 H 7.1135 -3.11924 -0.968045 0
M  V30 96 H 5.7725 -3.48667 1.13257 0
M  V30 97 H 5.4205 -4.95585 -0.860514 0
M  V30 98 H 5.1205 -5.83913 0.657192 0
M  V30 99 H 6.6445 -6.10138 -0.237598 0
M  V30 100 H 8.0585 -5.40083 1.92311 0
M  V30 101 H 6.4555 -5.3528 2.71284 0
M  V30 102 H 7.5255 -3.94346 2.82169 0
M  V30 103 N 8.8686 -0.792821 -1.36206 0
M  V30 104 C 10.1166 -0.366062 -1.98757 0
M  V30 105 C 10.4376 1.0668 -1.63231 0
M  V30 106 O 9.7076 1.73587 -0.907978 0
M  V30 107 H 8.2876 -0.132364 -0.735179 0
M  V30 108 H 10.9496 -1.01562 -1.66347 0
M  V30 109 H 10.0456 -0.460638 -3.08682 0
M  V30 110 N 10.3467 1.47872 -0.545128 0
M  V30 111 C 11.5937 2.02493 -0.0165858 0
M  V30 112 C 11.9217 1.42073 1.32836 0
M  V30 113 O 11.1767 0.561459 1.87473 0
M  V30 114 C 11.4757 3.57131 0.13867 0
M  V30 115 C 11.1417 4.36411 -1.13384 0
M  V30 116 C 9.8037 4.57792 -1.48256 0
M  V30 117 C 12.1557 4.82223 -1.97764 0
M  V30 118 C 9.4837 5.22233 -2.67376 0
M  V30 119 C 11.8357 5.47977 -3.16076 0
M  V30 120 C 10.4997 5.67593 -3.51275 0
M  V30 121 H 9.7697 0.740975 -0.00606918 0
M  V30 122 H 12.4167 1.77683 -0.714207 0
M  V30 123 H 10.7217 3.80865 0.919172 0
M  V30 124 H 12.4187 3.97031 0.562782 0
M  V30 125 H 9.0087 4.2004 -0.852297 0
M  V30 126 H 13.1927 4.65493 -1.72132 0
M  V30 127 H 8.4487 5.35616 -2.94831 0
M  V30 128 H 12.6227 5.8244 -3.81755 0
M  V30 129 H 10.2497 6.17298 -4.43675 0
M  V30 130 N 11.8248 0.280983 1.55075 0
M  V30 131 C 12.7548 -0.597469 2.25727 0
M  V30 132 C 13.7358 -1.15417 1.24952 0
M  V30 133 O 14.9208 -1.18722 1.53684 0
M  V30 134 C 12.0508 -1.7789 2.98283 0
M  V30 135 C 11.0048 -1.35347 4.06036 0
M  V30 136 C 10.3308 -2.61846 4.66198 0
M  V30 137 C 11.6308 -0.499354 5.19907 0
M  V30 138 H 13.3248 -0.00824265 2.99399 0
M  V30 139 H 10.8708 -0.0025244 1.44 0
M  V30 140 H 12.8238 -2.39937 3.46422 0
M  V30 141 H 11.5478 -2.39405 2.22155 0
M  V30 142 H 10.2068 -0.756156 3.58717 0
M  V30 143 H 9.8548 -3.21632 3.86732 0
M  V30 144 H 9.5548 -2.3409 5.38958 0
M  V30 145 H 11.0788 -3.24732 5.1709 0
M  V30 146 H 12.4928 -1.02498 5.64063 0
M  V30 147 H 10.8898 -0.316424 5.99265 0
M  V30 148 H 11.9598 0.480459 4.82514 0
M  V30 149 N 13.3029 -1.57598 0.00835791 0
M  V30 150 C 14.2349 -2.05811 -1.00868 0
M  V30 151 C 15.2479 -0.977579 -1.30182 0
M  V30 152 O 16.4369 -1.25421 -1.27011 0
M  V30 153 C 13.5369 -2.45016 -2.34137 0
M  V30 154 C 12.7099 -3.75903 -2.23643 0
M  V30 155 C 11.7689 -4.01884 -3.3967 0
M  V30 156 O 10.7949 -4.72433 -3.17483 0
M  V30 157 N 11.9969 -3.50432 -4.62793 0
M  V30 158 H 14.7619 -2.93684 -0.597458 0
M  V30 159 H 12.3229 -1.60909 -0.178852 0
M  V30 160 H 14.3149 -2.59506 -3.10546 0
M  V30 161 H 12.8849 -1.62618 -2.66972 0
M  V30 162 H 12.1049 -3.7141 -1.32091 0
M  V30 163 H 13.3929 -4.61695 -2.13812 0
M  V30 164 H 12.7909 -2.93317 -4.83716 0
M  V30 165 H 11.3479 -3.70236 -5.3644 0
M  V30 166 N 14.781 0.264519 -1.55364 0
M  V30 167 C 16.197 0.61215 -1.47394 0
M  V30 168 C 16.397 1.89134 -0.695018 0
M  V30 169 O 15.453 2.51563 -0.217275 0
M  V30 170 C 16.766 0.731235 -2.91674 0
M  V30 171 C 18.314 0.82473 -3.01939 0
M  V30 172 C 18.789 0.975522 -4.4749 0
M  V30 173 N 20.28 1.04083 -4.51354 0
M  V30 174 C 21.015 1.17646 -5.61201 0
M  V30 175 N 20.511 1.27874 -6.80896 0
M  V30 176 N 22.304 1.20823 -5.48961 0
M  V30 177 H 14.455 -0.575456 -2.04456 0
M  V30 178 H 16.718 -0.196099 -0.927496 0
M  V30 179 H 16.424 -0.138392 -3.51428 0
M  V30 180 H 16.298 1.60883 -3.41169 0
M  V30 181 H 18.685 1.68482 -2.42276 0
M  V30 182 H 18.766 -0.0776479 -2.55682 0
M  V30 183 H 18.41 0.120058 -5.07758 0
M  V30 184 H 18.34 1.89268 -4.91412 0
M  V30 185 H 20.831 0.973846 -3.65136 0
M  V30 186 H 21.144 1.38081 -7.60364 0
M  V30 187 H 19.489 1.24863 -6.83692 0
M  V30 188 H 22.68 1.12469 -4.54388 0
M  V30 189 H 22.853 1.31049 -6.3461 0
M  V30 190 N 16.2591 1.48442 0.529413 0
M  V30 191 C 17.4841 1.60406 1.31471 0
M  V30 192 C 17.9091 0.264738 1.86228 0
M  V30 193 O 17.2671 -0.763668 1.64432 0
M  V30 194 C 17.3151 2.65419 2.44101 0
M  V30 195 O 16.4191 2.22618 3.47153 0
M  V30 196 H 15.7601 0.537863 0.389357 0
M  V30 197 H 18.2901 1.94432 0.636965 0
M  V30 198 H 18.3001 2.86709 2.90279 0
M  V30 199 H 16.9751 3.62652 2.03608 0
M  V30 200 H 15.5521 2.11543 3.0709 0
M  V30 201 N 17.7372 -0.778329 1.37039 0
M  V30 202 C 18.9622 -1.57248 1.35233 0
M  V30 203 C 19.3872 -1.87999 -0.0615568 0
M  V30 204 O 18.7452 -1.48734 -1.03672 0
M  V30 205 C 18.7932 -2.86353 2.19167 0
M  V30 206 O 17.8972 -3.80442 1.59178 0
M  V30 207 H 17.2382 -0.476569 0.462362 0
M  V30 208 H 19.7682 -0.963853 1.80474 0
M  V30 209 H 19.7782 -3.35519 2.32145 0
M  V30 210 H 18.4532 -2.63299 3.21942 0
M  V30 211 H 17.0302 -3.39067 1.55203 0
M  V30 212 N 19.2153 -1.21501 -1.00376 0
M  V30 213 C 20.1633 -0.972442 -2.11297 0
M  V30 214 C 21.1573 0.080731 -1.69208 0
M  V30 215 O 22.3633 -0.0707666 -1.79861 0
M  V30 216 H 18.7383 -0.297218 -0.690772 0
M  V30 217 H 20.7093 -1.91394 -2.28934 0
M  V30 218 C 19.4583 -0.555065 -3.43241 0
M  V30 219 H 18.7813 -1.35709 -3.76062 0
M  V30 220 H 20.2213 -0.424664 -4.21868 0
M  V30 221 C 18.6803 0.734147 -3.28804 0
M  V30 222 O 19.2103 1.78937 -3.59645 0
M  V30 223 N 17.4163 0.701133 -2.82015 0
M  V30 224 H 16.9633 -0.157874 -2.57116 0
M  V30 225 H 16.9213 1.56403 -2.72737 0
M  V30 226 N 20.6934 1.19889 -1.02296 0
M  V30 227 C 21.9404 1.8942 -0.715972 0
M  V30 228 C 22.2684 1.79251 0.754944 0
M  V30 229 O 21.5234 1.17526 1.56481 0
M  V30 230 C 21.8224 3.39883 -1.10518 0
M  V30 231 C 21.4884 3.70254 -2.57337 0
M  V30 232 C 20.1504 3.78254 -2.97452 0
M  V30 233 C 22.5024 3.84052 -3.52354 0
M  V30 234 C 19.8304 3.97514 -4.31509 0
M  V30 235 C 22.1824 4.04824 -4.86108 0
M  V30 236 C 20.8464 4.11054 -5.25919 0
M  V30 237 H 20.1164 0.693138 -0.261993 0
M  V30 238 H 22.7634 1.42012 -1.28472 0
M  V30 239 H 21.0684 3.8915 -0.454953 0
M  V30 240 H 22.7654 3.9199 -0.845261 0
M  V30 241 H 19.3554 3.64632 -2.25258 0
M  V30 242 H 23.5394 3.77221 -3.22518 0
M  V30 243 H 18.7954 4.00574 -4.61898 0
M  V30 244 H 22.9694 4.14442 -5.59653 0
M  V30 245 H 20.5964 4.2573 -6.29808 0
M  V30 246 N 22.1715 0.800033 1.35784 0
M  V30 247 C 23.1035 0.163596 2.28615 0
M  V30 248 C 24.1165 -0.633317 1.49976 0
M  V30 249 O 25.3055 -0.466754 1.72289 0
M  V30 250 C 22.4055 -0.790958 3.29541 0
M  V30 251 C 21.5785 -0.0418255 4.3738 0
M  V30 252 C 20.6375 -0.91389 5.18203 0
M  V30 253 O 19.6635 -0.367234 5.68014 0
M  V30 254 N 20.8655 -2.23682 5.35674 0
M  V30 255 H 23.6305 0.96105 2.83873 0
M  V30 256 H 21.1915 0.654894 1.48063 0
M  V30 257 H 23.1835 -1.37844 3.80501 0
M  V30 258 H 21.7535 -1.48925 2.74846 0
M  V30 259 H 20.9735 0.726813 3.87442 0
M  V30 260 H 22.2615 0.474719 5.06581 0
M  V30 261 H 21.6595 -2.70497 4.96838 0
M  V30 262 H 20.2165 -2.77369 5.89839 0
M  V30 263 N 23.6496 -1.47581 0.552962 0
M  V30 264 C 24.8896 -2.04379 0.0296245 0
M  V30 265 C 25.2536 -1.4185 -1.29393 0
M  V30 266 O 26.4546 -1.89669 -1.90471 0
M  V30 267 C 24.7256 -3.57339 -0.0661371 0
M  V30 268 S 26.2846 -4.35511 -0.536213 0
M  V30 269 H 23.1026 -0.710625 0.0230991 0
M  V30 270 H 25.7046 -1.81005 0.738734 0
M  V30 271 H 24.4086 -4.00374 0.901596 0
M  V30 272 H 23.9396 -3.85202 -0.798931 0
M  V30 273 H 25.9546 -4.6253 -1.79668 0
M  V30 274 N 25.1277 -0.289203 -1.54924 0
M  V30 275 C 26.0597 0.625583 -2.20497 0
M  V30 276 C 27.0727 1.10667 -1.19402 0
M  V30 277 O 28.2617 1.02615 -1.46056 0
M  V30 278 C 25.3617 1.86702 -2.82835 0
M  V30 279 C 24.5347 1.5304 -4.09753 0
M  V30 280 C 23.5937 2.62576 -4.56005 0
M  V30 281 O 22.6197 2.28167 -5.21468 0
M  V30 282 N 23.8217 3.92901 -4.27328 0
M  V30 283 H 26.5867 0.0642801 -2.99631 0
M  V30 284 H 24.1477 -0.110896 -1.6152 0
M  V30 285 H 26.1397 2.59304 -3.10715 0
M  V30 286 H 24.7097 2.33702 -2.07611 0
M  V30 287 H 23.9297 0.637564 -3.8901 0
M  V30 288 H 25.2177 1.28072 -4.92418 0
M  V30 289 H 24.6157 4.23671 -3.74859 0
M  V30 290 H 23.1727 4.61837 -4.59946 0
M  V30 291 N 26.6058 1.57591 -0.0167156 0
M  V30 292 C 27.5528 2.09462 0.969251 0
M  V30 293 C 28.5228 0.99381 1.33089 0
M  V30 294 O 29.7078 1.26726 1.42636 0
M  V30 295 C 26.8478 2.61622 2.25051 0
M  V30 296 C 25.9608 3.85666 1.94642 0
M  V30 297 C 25.0958 4.26266 3.16972 0
M  V30 298 C 24.1348 5.43101 2.82326 0
M  V30 299 N 23.2718 5.78915 3.97243 0
M  V30 300 H 28.1118 2.93428 0.519997 0
M  V30 301 H 25.6488 1.45044 0.245087 0
M  V30 302 H 27.6068 2.89949 2.99976 0
M  V30 303 H 26.2368 1.80505 2.67615 0
M  V30 304 H 25.2888 3.64145 1.10013 0
M  V30 305 H 26.6008 4.70678 1.65117 0
M  V30 306 H 25.7548 4.55963 4.00228 0
M  V30 307 H 24.4938 3.39996 3.49648 0
M  V30 308 H 23.4988 5.1311 1.97479 0
M  V30 309 H 24.7238 6.3106 2.50879 0
M  V30 310 H 22.6698 4.95602 4.29785 0
M  V30 311 H 22.5868 6.58539 3.71299 0
M  V30 312 H 23.8548 6.13212 4.81239 0
M  V30 313 N 28.0839 -0.256276 1.55502 0
M  V30 314 C 29.0139 -1.32102 1.92539 0
M  V30 315 C 29.9949 -1.50684 0.789194 0
M  V30 316 O 31.1799 -1.63449 1.04872 0
M  V30 317 C 28.3099 -2.67752 2.21192 0
M  V30 318 C 27.2639 -2.63878 3.36975 0
M  V30 319 C 26.5899 -4.03236 3.51147 0
M  V30 320 C 27.8899 -2.21682 4.72921 0
M  V30 321 H 29.5839 -1.01351 2.81724 0
M  V30 322 H 27.1299 -0.486105 1.35547 0
M  V30 323 H 29.0829 -3.42365 2.45691 0
M  V30 324 H 27.8069 -3.0012 1.28824 0
M  V30 325 H 26.4659 -1.91722 3.12471 0
M  V30 326 H 26.1139 -4.32854 2.56216 0
M  V30 327 H 25.8139 -4.01535 4.29003 0
M  V30 328 H 27.3379 -4.79563 3.77957 0
M  V30 329 H 28.7519 -2.86023 4.96854 0
M  V30 330 H 27.1489 -2.3111 5.53812 0
M  V30 331 H 28.2189 -1.16833 4.70615 0
M  V30 332 N 29.562 -1.4872 -0.521534 0
M  V30 333 C 30.492 -1.66771 -1.63431 0
M  V30 334 C 31.473 -0.516499 -1.62069 0
M  V30 335 O 32.658 -0.750013 -1.79132 0
M  V30 336 C 29.788 -1.71515 -3.01993 0
M  V30 337 C 28.742 -2.86222 -3.18216 0
M  V30 338 C 28.068 -2.76061 -4.57924 0
M  V30 339 C 29.368 -4.27419 -3.00184 0
M  V30 340 H 31.062 -2.59932 -1.48579 0
M  V30 341 H 28.608 -1.25089 -0.713358 0
M  V30 342 H 30.561 -1.82731 -3.7972 0
M  V30 343 H 29.285 -0.749393 -3.17886 0
M  V30 344 H 27.944 -2.74575 -2.42908 0
M  V30 345 H 27.592 -1.77437 -4.70665 0
M  V30 346 H 27.292 -3.53037 -4.69722 0
M  V30 347 H 28.816 -2.89256 -5.37739 0
M  V30 348 H 30.23 -4.39855 -3.67697 0
M  V30 349 H 28.627 -5.05458 -3.2347 0
M  V30 350 H 29.697 -4.43293 -1.96518 0
M  V30 351 N 31.0401 0.771051 -1.3745 0
M  V30 352 C 32.2861 1.53109 -1.339 0
M  V30 353 C 32.6411 1.9225 0.0758401 0
M  V30 354 O 31.9341 1.61264 1.03463 0
M  V30 355 C 32.1281 2.80676 -2.2126 0
M  V30 356 C 31.9571 2.54003 -3.71096 0
M  V30 357 C 30.7271 2.48097 -4.402 0
M  V30 358 C 32.9251 2.21953 -4.63941 0
M  V30 359 N 30.9071 2.13515 -5.75573 0
M  V30 360 C 32.2781 1.97516 -5.87697 0
M  V30 361 C 34.3331 2.08114 -4.5232 0
M  V30 362 C 33.0361 1.60638 -7.01133 0
M  V30 363 C 35.0621 1.72636 -5.65642 0
M  V30 364 C 34.4241 1.4906 -6.88448 0
M  V30 365 H 30.5231 0.56055 -0.54526 0
M  V30 366 H 33.1071 0.899472 -1.72678 0
M  V30 367 H 31.2781 3.41674 -1.84698 0
M  V30 368 H 33.0101 3.46578 -2.08963 0
M  V30 369 H 29.7651 2.63974 -3.93211 0
M  V30 370 H 30.1891 1.98919 -6.47117 0
M  V30 371 H 34.8311 2.25024 -3.57944 0
M  V30 372 H 32.5491 1.42467 -7.95443 0
M  V30 373 H 36.1351 1.62586 -5.58621 0
M  V30 374 H 35.0151 1.22014 -7.7465 0
M  V30 375 N 32.5182 1.22032 0.997298 0
M  V30 376 C 33.4502 0.944263 2.08845 0
M  V30 377 C 34.4632 -0.0754663 1.62625 0
M  V30 378 O 35.6522 0.157994 1.77799 0
M  V30 379 C 32.7522 0.397723 3.36558 0
M  V30 380 C 31.9252 1.47362 4.11829 0
M  V30 381 C 30.9842 0.934951 5.17827 0
M  V30 382 O 30.0102 1.62016 5.45655 0
M  V30 383 N 31.2122 -0.245895 5.79979 0
M  V30 384 H 33.9772 1.88363 2.33109 0
M  V30 385 H 31.5382 1.12661 1.16272 0
M  V30 386 H 33.5302 0.0227771 4.04694 0
M  V30 387 H 32.1002 -0.446646 3.09393 0
M  V30 388 H 31.3202 2.02208 3.38386 0
M  V30 389 H 32.6082 2.19764 4.58891 0
M  V30 390 H 32.0062 -0.819475 5.59733 0
M  V30 391 H 30.5632 -0.562272 6.4937 0
M  V30 392 N 33.9963 -1.19345 1.0293 0
M  V30 393 C 34.9263 -2.2481 0.631105 0
M  V30 394 C 35.9073 -1.66245 -0.360104 0
M  V30 395 O 37.0923 -1.92677 -0.242726 0
M  V30 396 C 34.2223 -3.47295 -0.0184607 0
M  V30 397 C 33.1763 -4.18536 0.895073 0
M  V30 398 C 32.5023 -5.34586 0.110592 0
M  V30 399 C 33.8023 -4.73287 2.209 0
M  V30 400 H 35.4963 -2.58372 1.51275 0
M  V30 401 H 33.0423 -1.24194 0.728818 0
M  V30 402 H 34.9953 -4.20268 -0.308675 0
M  V30 403 H 33.7193 -3.12933 -0.934907 0
M  V30 404 H 32.3783 -3.47446 1.16949 0
M  V30 405 H 32.0263 -4.96469 -0.807902 0
M  V30 406 H 31.7263 -5.83183 0.719087 0
M  V30 407 H 33.2503 -6.10355 -0.172871 0
M  V30 408 H 34.6643 -5.38013 1.98028 0
M  V30 409 H 33.0613 -5.32373 2.76946 0
M  V30 410 H 34.1313 -3.91331 2.86336 0
M  V30 411 N 35.4744 -0.807222 -1.35358 0
M  V30 412 C 36.4224 -0.20614 -2.31685 0
M  V30 413 C 37.4164 0.644445 -1.56663 0
M  V30 414 O 38.6224 0.537538 -1.71786 0
M  V30 415 H 34.9974 -0.0479006 -0.750473 0
M  V30 416 H 36.9684 -1.03369 -2.79924 0
M  V30 417 C 35.7174 0.630212 -3.41941 0
M  V30 418 H 35.0404 -0.0149558 -3.99797 0
M  V30 419 H 36.4804 1.01716 -4.11619 0
M  V30 420 C 34.9394 1.79601 -2.85035 0
M  V30 421 O 35.4694 2.89351 -2.78637 0
M  V30 422 N 33.6754 1.60774 -2.42074 0
M  V30 423 H 33.2224 0.715009 -2.47478 0
M  V30 424 H 33.1804 2.38933 -2.04349 0
M  V30 425 N 36.9525 1.47285 -0.560781 0
M  V30 426 C 38.2005 2.02064 -0.0379868 0
M  V30 427 C 38.5215 1.43711 1.31803 0
M  V30 428 O 37.7915 0.61362 1.86042 0
M  V30 429 H 36.3715 0.746918 -0.0110531 0
M  V30 430 H 39.0335 1.80648 -0.731598 0
M  V30 431 H 38.1295 3.12064 0.0474463 0
M  V30 432 N 38.4306 0.297415 1.54768 0
M  V30 433 C 39.8466 -0.0560823 1.59501 0
M  V30 434 C 40.0466 -1.52725 1.31444 0
M  V30 435 O 39.1026 -2.27947 1.08611 0
M  V30 436 C 40.4156 0.338631 2.98787 0
M  V30 437 C 41.9636 0.287097 3.11681 0
M  V30 438 C 42.4386 0.656579 4.53269 0
M  V30 439 N 43.9296 0.608977 4.59179 0
M  V30 440 C 44.6646 0.867385 5.66802 0
M  V30 441 N 44.1606 1.19157 6.82476 0
M  V30 442 N 45.9536 0.794687 5.56454 0
M  V30 443 H 38.1046 1.25624 1.71267 0
M  V30 444 H 40.3676 0.509057 0.799728 0
M  V30 445 H 40.0736 1.36263 3.2423 0
M  V30 446 H 39.9476 -0.309508 3.75928 0
M  V30 447 H 42.3346 -0.727649 2.85988 0
M  V30 448 H 42.4156 0.969809 2.36703 0
M  V30 449 H 42.0596 1.66912 4.7969 0
M  V30 450 H 41.9896 -0.0481649 5.26578 0
M  V30 451 H 44.4806 0.369198 3.76092 0
M  V30 452 H 44.7936 1.37482 7.60473 0
M  V30 453 H 43.1386 1.22958 6.84037 0
M  V30 454 H 46.3296 0.541098 4.64962 0
M  V30 455 H 46.5026 0.999445 6.40246 0
M  V30 456 N 39.9087 -1.5758 0.0250728 0
M  V30 457 C 40.8387 -2.13007 -0.956575 0
M  V30 458 C 41.8197 -1.0452 -1.342 0
M  V30 459 O 43.0047 -1.32332 -1.42133 0
M  V30 460 C 40.1347 -2.65386 -2.24026 0
M  V30 461 C 39.0887 -3.78623 -1.99571 0
M  V30 462 C 38.4147 -4.17414 -3.3417 0
M  V30 463 C 39.7147 -5.04867 -1.33814 0
M  V30 464 H 41.4087 -2.9528 -0.494991 0
M  V30 465 H 38.9547 -1.42042 -0.236651 0
M  V30 466 H 40.9077 -3.02794 -2.93076 0
M  V30 467 H 39.6317 -1.80268 -2.72343 0
M  V30 468 H 38.2907 -3.41646 -1.32941 0
M  V30 469 H 37.9387 -3.29284 -3.80238 0
M  V30 470 H 37.6387 -4.93719 -3.18615 0
M  V30 471 H 39.1627 -4.57402 -4.04495 0
M  V30 472 H 40.5767 -5.39888 -1.92857 0
M  V30 473 H 38.9737 -5.86144 -1.28669 0
M  V30 474 H 40.0437 -4.83904 -0.310561 0
M  V30 475 N 41.3868 0.248026 -1.55636 0
M  V30 476 C 42.2968 1.32859 -1.93354 0
M  V30 477 C 43.3128 1.52719 -0.833838 0
M  V30 478 O 44.4888 1.66363 -1.13513 0
M  V30 479 C 41.5538 2.66337 -2.21958 0
M  V30 480 C 40.6148 2.55008 -3.45354 0
M  V30 481 C 39.8478 3.82121 -3.72584 0
M  V30 482 O 40.0708 4.83951 -3.01907 0
M  V30 483 O 39.0048 3.80822 -4.6611 0
M  V30 484 H 42.8308 1.03862 -2.85388 0
M  V30 485 H 40.4158 0.448686 -1.42503 0
M  V30 486 H 42.2978 3.45216 -2.4167 0
M  V30 487 H 40.9728 2.95068 -1.33103 0
M  V30 488 H 39.8798 1.7442 -3.30951 0
M  V30 489 H 41.2128 2.31222 -4.34508 0
M  V30 490 N 42.8649 1.48995 0.513639 0
M  V30 491 C 44.0949 1.61297 1.291 0
M  V30 492 C 44.5029 0.278656 1.87137 0
M  V30 493 O 43.8459 -0.744325 1.67945 0
M  V30 494 C 43.9079 2.61326 2.46879 0
M  V30 495 C 43.5719 4.05993 2.09807 0
M  V30 496 C 44.5689 4.93183 1.64519 0
M  V30 497 C 42.2539 4.51642 2.19829 0
M  V30 498 C 44.2479 6.24056 1.2974 0
M  V30 499 C 41.9349 5.82532 1.84662 0
M  V30 500 C 42.9329 6.68562 1.3969 0
M  V30 501 O 42.6209 7.97014 1.04992 0
M  V30 502 H 42.3529 0.546236 0.39825 0
M  V30 503 H 44.9069 1.95673 0.62459 0
M  V30 504 H 43.1369 2.22104 3.16554 0
M  V30 505 H 44.8259 2.6329 3.08923 0
M  V30 506 H 45.5919 4.59147 1.56233 0
M  V30 507 H 41.4709 3.84855 2.53786 0
M  V30 508 H 45.0149 6.91161 0.945659 0
M  V30 509 H 40.9119 6.16099 1.92594 0
M  V30 510 H 41.6799 8.09913 1.18249 0
M  V30 511 N 44.343 -0.763751 1.37857 0
M  V30 512 C 45.583 -1.53551 1.34913 0
M  V30 513 C 45.947 -1.91895 -0.0635882 0
M  V30 514 O 47.148 -2.67916 -0.217825 0
M  V30 515 C 45.419 -2.76126 2.26912 0
M  V30 516 S 46.978 -3.66105 2.41893 0
M  V30 517 H 43.796 -0.52559 0.478828 0
M  V30 518 H 46.398 -0.897435 1.73685 0
M  V30 519 H 45.102 -2.4605 3.28463 0
M  V30 520 H 44.633 -3.44887 1.89253 0
M  V30 521 H 46.648 -4.68473 1.63545 0
M  V30 522 N 45.8211 -1.22559 -0.990812 0
M  V30 523 C 46.7511 -1.0218 -2.09956 0
M  V30 524 C 47.7321 0.0579394 -1.70001 0
M  V30 525 O 48.9171 -0.104684 -1.93918 0
M  V30 526 C 46.0471 -0.601023 -3.4206 0
M  V30 527 C 45.0011 -1.62694 -3.95872 0
M  V30 528 C 44.3271 -1.06193 -5.24049 0
M  V30 529 C 45.6271 -3.01743 -4.2632 0
M  V30 530 H 47.3211 -1.94916 -2.27262 0
M  V30 531 H 44.8671 -0.938566 -1.09211 0
M  V30 532 H 46.8201 -0.445561 -4.19038 0
M  V30 533 H 45.5441 0.362005 -3.24588 0
M  V30 534 H 44.2031 -1.77021 -3.21028 0
M  V30 535 H 43.8511 -0.0901903 -5.02919 0
M  V30 536 H 43.5511 -1.74732 -5.61019 0
M  V30 537 H 45.0751 -0.918092 -6.03658 0
M  V30 538 H 46.4891 -2.90777 -4.94087 0
M  V30 539 H 44.8861 -3.67425 -4.74467 0
M  V30 540 H 45.9561 -3.51518 -3.34011 0
M  V30 541 N 47.2992 1.18797 -1.03562 0
M  V30 542 C 48.2462 2.22253 -0.622259 0
M  V30 543 C 49.2162 1.61987 0.36736 0
M  V30 544 O 50.4012 1.88986 0.262492 0
M  V30 545 C 47.5412 3.45097 0.0138462 0
M  V30 546 C 46.6542 4.19722 -1.02263 0
M  V30 547 C 45.7892 5.30009 -0.355573 0
M  V30 548 C 44.8282 5.96399 -1.37749 0
M  V30 549 N 43.9652 6.98234 -0.735766 0
M  V30 550 H 48.8052 2.56968 -1.50903 0
M  V30 551 H 46.3422 1.26245 -0.755017 0
M  V30 552 H 48.3002 4.15279 0.399948 0
M  V30 553 H 46.9302 3.11018 0.864158 0
M  V30 554 H 45.9822 3.48418 -1.52673 0
M  V30 555 H 47.2942 4.65227 -1.79903 0
M  V30 556 H 46.4482 6.0664 0.0850095 0
M  V30 557 H 45.1872 4.85592 0.452967 0
M  V30 558 H 44.1922 5.18512 -1.82826 0
M  V30 559 H 45.4172 6.42899 -2.18764 0
M  V30 560 H 43.3632 6.55979 0.0525597 0
M  V30 561 H 43.2802 7.41965 -1.44995 0
M  V30 562 H 44.5482 7.78845 -0.31941 0
M  V30 563 N 48.7773 0.814389 1.34928 0
M  V30 564 C 50.0543 0.321363 1.92942 0
M  V30 565 C 50.4343 -1.19014 1.74353 0
M  V30 566 O 49.7823 -1.99328 1.11716 0
M  V30 567 C 49.9923 0.741323 3.41036 0
M  V30 568 C 51.3403 0.735266 4.18185 0
M  V30 569 O 52.3643 0.68336 3.49584 0
M  V30 570 O 51.2233 0.800703 5.40602 0
M  V30 571 H 48.3173 0.0858893 0.822528 0
M  V30 572 H 50.8633 0.898609 1.43955 0
M  V30 573 H 49.6353 1.78276 3.4833 0
M  V30 574 H 49.2583 0.139307 3.97356 0
M  V30 575 N 50.2554 -1.46986 0.568584 0
M  V30 576 C 51.6714 -1.57946 0.229189 0
M  V30 577 C 51.8714 -1.56567 -1.26843 0
M  V30 578 O 50.9274 -1.47511 -2.04931 0
M  V30 579 C 52.2404 -2.87963 0.865909 0
M  V30 580 C 53.7884 -3.01568 0.838188 0
M  V30 581 C 54.2634 -4.34301 1.45419 0
M  V30 582 N 55.7544 -4.40965 1.41788 0
M  V30 583 C 56.4894 -5.42256 1.86403 0
M  V30 584 N 55.9854 -6.50297 2.38926 0
M  V30 585 N 57.7784 -5.3337 1.77405 0
M  V30 586 H 49.9294 -1.46126 1.54146 0
M  V30 587 H 52.1924 -0.696156 0.643484 0
M  V30 588 H 51.8984 -2.94742 1.91886 0
M  V30 589 H 51.7724 -3.75423 0.365687 0
M  V30 590 H 54.1594 -2.94379 -0.206106 0
M  V30 591 H 54.2404 -2.1562 1.37629 0
M  V30 592 H 53.8844 -4.42247 2.49761 0
M  V30 593 H 53.8144 -5.19 0.891435 0
M  V30 594 H 56.3054 -3.63484 1.03381 0
M  V30 595 H 56.6184 -7.23777 2.70863 0
M  V30 596 H 54.9634 -6.51155 2.42944 0
M  V30 597 H 58.1544 -4.47865 1.3614 0
M  V30 598 H 58.3274 -6.12169 2.12492 0
M  V30 599 N 51.7335 -0.305618 -1.54608 0
M  V30 600 C 52.6665 0.610536 -2.19881 0
M  V30 601 C 53.6445 1.1294 -1.16976 0
M  V30 602 O 54.8285 1.19673 -1.45638 0
M  V30 603 C 51.9555 1.83583 -2.84631 0
M  V30 604 C 51.0015 1.4498 -4.01102 0
M  V30 605 S 51.8345 0.501793 -5.33144 0
M  V30 606 C 52.9905 1.73478 -6.01379 0
M  V30 607 H 53.2235 0.0560177 -2.97247 0
M  V30 608 H 50.7565 -0.0897434 -1.54139 0
M  V30 609 H 52.7145 2.53898 -3.22562 0
M  V30 610 H 51.3755 2.36152 -2.07102 0
M  V30 611 H 50.5685 2.36236 -4.45206 0
M  V30 612 H 50.1705 0.826553 -3.64752 0
M  V30 613 H 52.4625 2.67473 -6.22467 0
M  V30 614 H 53.4055 1.33622 -6.95378 0
M  V30 615 H 53.8135 1.9136 -5.31076 0
M  V30 616 N 53.2116 1.57565 -0.0334293 0
M  V30 617 C 54.1596 2.1164 0.96496 0
M  V30 618 C 55.1536 1.04398 1.33407 0
M  V30 619 O 56.3596 1.22828 1.3158 0
M  V30 620 H 52.7346 0.676222 0.32898 0
M  V30 621 H 54.7056 2.94455 0.483614 0
M  V30 622 C 53.4546 2.66207 2.23672 0
M  V30 623 H 52.7776 3.48378 1.96145 0
M  V30 624 H 54.2176 3.07685 2.9173 0
M  V30 625 C 52.6766 1.59151 2.96939 0
M  V30 626 O 53.2066 0.993858 3.89211 0
M  V30 627 N 51.4126 1.31093 2.59351 0
M  V30 628 H 50.9596 1.7988 1.84393 0
M  V30 629 H 50.9176 0.596889 3.08682 0
M  V30 630 N 54.6897 -0.239769 1.55765 0
M  V30 631 C 55.9367 -0.966801 1.7793 0
M  V30 632 C 56.2647 -1.85046 0.599015 0
M  V30 633 O 55.5197 -1.91197 -0.417395 0
M  V30 634 C 55.8187 -1.852 3.05672 0
M  V30 635 C 55.4847 -1.1231 4.36689 0
M  V30 636 C 54.1467 -0.921689 4.72291 0
M  V30 637 C 56.4987 -0.607019 5.17653 0
M  V30 638 C 53.8267 -0.191996 5.86386 0
M  V30 639 C 56.1787 0.109241 6.32506 0
M  V30 640 C 54.8427 0.322073 6.66723 0
M  V30 641 H 54.1127 -0.353778 0.651093 0
M  V30 642 H 56.7597 -0.23634 1.90036 0
M  V30 643 H 55.0647 -2.64975 2.8861 0
M  V30 644 H 56.7617 -2.41635 3.20021 0
M  V30 645 H 53.3517 -1.29004 4.08725 0
M  V30 646 H 57.5357 -0.750153 4.90598 0
M  V30 647 H 52.7917 -0.0166949 6.11398 0
M  V30 648 H 56.9657 0.516737 6.9448 0
M  V30 649 H 54.5927 0.88944 7.54979 0
M  V30 650 N 56.1678 -1.49265 -0.50573 0
M  V30 651 C 57.4448 -1.49012 -1.26707 0
M  V30 652 C 57.8248 -0.215205 -2.1 0
M  V30 653 O 57.1728 0.802547 -2.13943 0
M  V30 654 C 57.3828 -2.7663 -2.12783 0
M  V30 655 C 58.7308 -3.25932 -2.72127 0
M  V30 656 O 59.7548 -2.77715 -2.23054 0
M  V30 657 O 58.6138 -4.09897 -3.61451 0
M  V30 658 H 55.7078 -0.596197 -0.57313 0
M  V30 659 H 58.2538 -1.61524 -0.52039 0
M  V30 660 H 57.0258 -3.60916 -1.5118 0
M  V30 661 H 56.6488 -2.66956 -2.94653 0
M  V30 662 N 57.6459 0.756429 -1.3826 0
M  V30 663 C 58.8949 1.51082 -1.3363 0
M  V30 664 C 59.2079 1.95467 0.0720068 0
M  V30 665 O 60.4139 2.7043 0.240834 0
M  V30 666 C 58.8699 2.72893 -2.34644 0
M  V30 667 C 58.4779 2.35544 -3.81081 0
M  V30 668 C 60.2219 3.50791 -2.39052 0
M  V30 669 C 58.1289 3.53948 -4.73787 0
M  V30 670 H 57.0589 0.56727 -0.49671 0
M  V30 671 H 59.7099 0.827147 -1.638 0
M  V30 672 H 58.0919 3.43227 -1.97513 0
M  V30 673 H 59.2659 1.72894 -4.27135 0
M  V30 674 H 57.5809 1.70786 -3.79764 0
M  V30 675 H 60.1779 4.38823 -3.05513 0
M  V30 676 H 60.5209 3.91745 -1.40861 0
M  V30 677 H 61.0539 2.87467 -2.74968 0
M  V30 678 H 57.7929 3.18064 -5.73163 0
M  V30 679 H 57.3129 4.15651 -4.32428 0
M  V30 680 H 58.9919 4.20566 -4.91663 0
M  V30 681 N 59.124 1.23083 0.984299 0
M  V30 682 C 60.535 1.05609 1.5396 0
M  V30 683 C 60.886 -0.377793 1.92528 0
M  V30 684 O 60.011 -1.26398 1.75649 0
M  V30 685 C 60.606 1.91087 2.7977 0
M  V30 686 C 59.165 1.77885 3.31713 0
M  V30 687 C 58.312 1.87028 2.04733 0
M  V30 688 H 61.263 1.36802 0.804419 0
M  V30 689 H 61.284 1.43336 3.5247 0
M  V30 690 H 60.796 2.9544 2.51668 0
M  V30 691 H 58.897 0.762995 3.64704 0
M  V30 692 H 59.01 2.61047 4.01735 0
M  V30 693 H 57.374 1.30565 2.18689 0
M  V30 694 H 58.157 2.92929 1.79017 0
M  V30 695 N 60.6021 -1.18246 1.0419 0
M  V30 696 C 61.5121 -2.25574 0.644476 0
M  V30 697 C 62.5281 -1.70845 -0.329826 0
M  V30 698 O 63.7041 -2.00554 -0.184443 0
M  V30 699 C 60.7691 -3.46697 0.014877 0
M  V30 700 C 59.8301 -4.16554 1.03834 0
M  V30 701 C 59.0631 -5.31894 0.438692 0
M  V30 702 O 59.2861 -5.65385 -0.754752 0
M  V30 703 O 58.2201 -5.90459 1.168 0
M  V30 704 H 62.0461 -2.61836 1.53869 0
M  V30 705 H 59.6311 -1.25352 0.812854 0
M  V30 706 H 61.5131 -4.20062 -0.335538 0
M  V30 707 H 60.1881 -3.12255 -0.853138 0
M  V30 708 H 59.0951 -3.45251 1.44057 0
M  V30 709 H 60.4281 -4.54998 1.87716 0
M  V30 710 N 62.0802 -0.821533 -1.34494 0
M  V30 711 C 62.9902 -0.244355 -2.33324 0
M  V30 712 C 64.0062 0.620527 -1.62559 0
M  V30 713 O 65.1822 0.528754 -1.94335 0
M  V30 714 C 62.2472 0.585368 -3.41723 0
M  V30 715 C 61.3082 -0.301752 -4.28238 0
M  V30 716 C 60.5412 0.488466 -5.3146 0
M  V30 717 O 60.7642 1.72186 -5.4379 0
M  V30 718 O 59.6982 -0.12848 -6.01763 0
M  V30 719 H 63.5242 -1.06231 -2.84515 0
M  V30 720 H 61.1092 -0.583645 -1.37528 0
M  V30 721 H 62.9912 1.05747 -4.07916 0
M  V30 722 H 61.6662 1.38068 -2.92778 0
M  V30 723 H 60.5732 -0.821315 -3.64973 0
M  V30 724 H 61.9062 -1.06138 -4.8062 0
M  V30 725 N 63.5583 1.46682 -0.576371 0
M  V30 726 C 64.8073 2.01619 -0.0572825 0
M  V30 727 C 65.1203 1.45417 1.30818 0
M  V30 728 O 66.3263 1.92133 1.91825 0
M  V30 729 C 64.7823 3.59863 -0.0518371 0
M  V30 730 C 64.3903 4.25059 -1.41523 0
M  V30 731 C 66.1343 4.2248 0.413639 0
M  V30 732 C 64.0413 5.75364 -1.36785 0
M  V30 733 H 62.9713 0.753794 -0.0176448 0
M  V30 734 H 65.6223 1.68481 -0.727076 0
M  V30 735 H 64.0043 3.90048 0.683994 0
M  V30 736 H 65.1783 4.06491 -2.17029 0
M  V30 737 H 63.4933 3.7451 -1.8202 0
M  V30 738 H 66.0903 5.3265 0.467779 0
M  V30 739 H 66.4333 3.90976 1.42982 0
M  V30 740 H 66.9663 3.96897 -0.267929 0
M  V30 741 H 63.7053 6.11518 -2.36063 0
M  V30 742 H 63.2253 5.96214 -0.654895 0
M  V30 743 H 64.9043 6.37955 -1.07805 0
M  V30 744 N 65.0364 0.313813 1.54444 0
M  V30 745 C 65.9834 -0.55655 2.23989 0
M  V30 746 C 66.9534 -1.11943 1.22711 0
M  V30 747 O 68.1384 -1.16158 1.51367 0
M  V30 748 C 65.2784 -1.71635 2.99392 0
M  V30 749 C 64.3914 -1.18364 4.15468 0
M  V30 750 C 63.5264 -2.30834 4.78424 0
M  V30 751 C 62.5654 -1.74762 5.86622 0
M  V30 752 N 61.7024 -2.80855 6.43479 0
M  V30 753 H 66.5424 0.0430893 2.97969 0
M  V30 754 H 64.0794 0.0330359 1.47063 0
M  V30 755 H 66.0374 -2.39868 3.41349 0
M  V30 756 H 64.6674 -2.28742 2.27765 0
M  V30 757 H 63.7194 -0.393163 3.78363 0
M  V30 758 H 65.0314 -0.733262 4.93381 0
M  V30 759 H 64.1854 -3.0699 5.23299 0
M  V30 760 H 62.9244 -2.79204 3.99871 0
M  V30 761 H 61.9294 -0.970995 5.41158 0
M  V30 762 H 63.1544 -1.2728 6.67066 0
M  V30 763 H 61.1004 -3.28535 5.67804 0
M  V30 764 H 61.0174 -2.40351 7.16776 0
M  V30 765 H 62.2854 -3.5687 6.93011 0
M  V30 766 N 66.5145 -1.57545 0.0417849 0
M  V30 767 C 67.4465 -2.07904 -0.964799 0
M  V30 768 C 68.4595 -1.00497 -1.28079 0
M  V30 769 O 69.6485 -1.28087 -1.24322 0
M  V30 770 C 66.7485 -2.49928 -2.28887 0
M  V30 771 C 65.9215 -3.80562 -2.15619 0
M  V30 772 C 64.9805 -4.08999 -3.31069 0
M  V30 773 O 64.0065 -4.79061 -3.0739 0
M  V30 774 N 65.2085 -3.6017 -4.55256 0
M  V30 775 H 67.9735 -2.94886 -0.535029 0
M  V30 776 H 65.5345 -1.61252 -0.144681 0
M  V30 777 H 67.5265 -2.66034 -3.04972 0
M  V30 778 H 66.0965 -1.68245 -2.63463 0
M  V30 779 H 65.3165 -3.74129 -1.24183 0
M  V30 780 H 66.6045 -4.66126 -2.03971 0
M  V30 781 H 66.0025 -3.03512 -4.77386 0
M  V30 782 H 64.5595 -3.81532 -5.28466 0
M  V30 783 N 67.9926 0.231505 -1.5589 0
M  V30 784 C 68.9226 1.29022 -1.94617 0
M  V30 785 C 69.9036 1.4941 -0.813067 0
M  V30 786 O 71.0886 1.6176 -1.07459 0
M  V30 787 C 68.2186 2.64199 -2.25424 0
M  V30 788 C 67.1726 2.58484 -3.41131 0
M  V30 789 C 66.4986 3.97599 -3.57518 0
M  V30 790 C 67.7986 2.1413 -4.76388 0
M  V30 791 H 69.4926 0.968563 -2.83301 0
M  V30 792 H 67.0386 0.464479 -1.36303 0
M  V30 793 H 68.9916 3.38413 -2.51107 0
M  V30 794 H 67.7156 2.98032 -1.33583 0
M  V30 795 H 66.3746 1.86727 -3.15481 0
M  V30 796 H 66.0226 4.28723 -2.6307 0
M  V30 797 H 65.7226 3.94659 -4.35337 0
M  V30 798 H 67.2466 4.7349 -3.85538 0
M  V30 799 H 68.6606 2.78083 -5.01341 0
M  V30 800 H 67.0576 2.2227 -5.57419 0
M  V30 801 H 68.1276 1.09331 -4.72414 0
M  V30 802 N 69.4707 1.49531 0.497807 0
M  V30 803 C 70.4027 1.62559 1.61578 0
M  V30 804 C 71.4157 0.508134 1.54667 0
M  V30 805 O 72.6047 0.780309 1.60541 0
M  V30 806 C 69.7047 1.56925 3.00379 0
M  V30 807 C 68.8777 2.84257 3.3244 0
M  V30 808 C 67.9367 2.71632 4.50669 0
M  V30 809 O 66.9627 3.4557 4.52294 0
M  V30 810 N 68.1647 1.83391 5.5077 0
M  V30 811 H 70.9297 2.58981 1.50828 0
M  V30 812 H 68.4907 1.4666 0.685743 0
M  V30 813 H 70.4827 1.46129 3.77397 0
M  V30 814 H 69.0527 0.683483 3.05037 0
M  V30 815 H 68.2727 3.09381 2.44289 0
M  V30 816 H 69.5607 3.68666 3.5066 0
M  V30 817 H 68.9587 1.22583 5.52259 0
M  V30 818 H 67.5157 1.78515 6.26878 0
M  V30 819 N 70.9488 -0.749086 1.3866 0
M  V30 820 C 71.8808 -1.87273 1.32142 0
M  V30 821 C 72.8938 -1.61127 0.232787 0
M  V30 822 O 74.0828 -1.71623 0.49069 0
M  V30 823 C 71.1828 -3.23005 1.02571 0
M  V30 824 C 70.3558 -3.7662 2.22433 0
M  V30 825 C 69.4148 -4.90879 1.89537 0
M  V30 826 O 68.4408 -5.05276 2.62078 0
M  V30 827 N 69.6428 -5.74198 0.853031 0
M  V30 828 H 72.4078 -1.93373 2.28969 0
M  V30 829 H 69.9688 -0.929216 1.32579 0
M  V30 830 H 71.9608 -3.96992 0.786085 0
M  V30 831 H 70.5308 -3.12262 0.145249 0
M  V30 832 H 69.7508 -2.94147 2.62434 0
M  V30 833 H 71.0388 -4.09173 3.02415 0
M  V30 834 H 70.4368 -5.6514 0.25155 0
M  V30 835 H 68.9938 -6.48313 0.67329 0
M  V30 836 N 72.4269 -1.23603 -0.977757 0
M  V30 837 C 73.6739 -1.06971 -1.71941 0
M  V30 838 C 74.0019 0.393009 -1.90488 0
M  V30 839 O 73.2569 1.30719 -1.4564 0
M  V30 840 C 73.5559 -1.7433 -3.11999 0
M  V30 841 C 73.2219 -3.24252 -3.13323 0
M  V30 842 C 71.8839 -3.65156 -3.13392 0
M  V30 843 C 74.2359 -4.20141 -3.08433 0
M  V30 844 C 71.5639 -5.00403 -3.0629 0
M  V30 845 C 73.9159 -5.55384 -3.02873 0
M  V30 846 C 72.5799 -5.95647 -3.01265 0
M  V30 847 H 71.8499 -0.391433 -0.629175 0
M  V30 848 H 74.4969 -1.53572 -1.14403 0
M  V30 849 H 72.8019 -1.20096 -3.7294 0
M  V30 850 H 74.4989 -1.58936 -3.68158 0
M  V30 851 H 71.0889 -2.91692 -3.14029 0
M  V30 852 H 75.2729 -3.89547 -3.07517 0
M  V30 853 H 70.5289 -5.3081 -3.03399 0
M  V30 854 H 74.7029 -6.29398 -2.98046 0
M  V30 855 H 72.3299 -7.0041 -2.95516 0
M  V30 856 N 73.905 1.17692 -1.04816 0
M  V30 857 C 74.837 2.21103 -0.603822 0
M  V30 858 C 75.85 1.59411 0.33046 0
M  V30 859 O 77.039 1.7807 0.12379 0
M  V30 860 C 74.139 3.38623 0.136898 0
M  V30 861 C 73.312 4.29888 -0.807137 0
M  V30 862 C 72.371 5.26088 -0.10836 0
M  V30 863 O 71.397 5.64353 -0.741232 0
M  V30 864 N 72.599 5.68882 1.15558 0
M  V30 865 H 75.364 2.59848 -1.49329 0
M  V30 866 H 72.925 1.32553 -0.929587 0
M  V30 867 H 74.917 4.00009 0.614401 0
M  V30 868 H 73.487 2.98508 0.927993 0
M  V30 869 H 72.707 3.65993 -1.46434 0
M  V30 870 H 73.995 4.87759 -1.44807 0
M  V30 871 H 73.393 5.39861 1.69015 0
M  V30 872 H 71.95 6.32429 1.57722 0
M  V30 873 N 75.3831 0.828654 1.34056 0
M  V30 874 C 76.3301 0.252567 2.29414 0
M  V30 875 C 77.3001 -0.62588 1.53857 0
M  V30 876 O 78.4851 -0.566312 1.82202 0
M  V30 877 C 75.6251 -0.574831 3.40279 0
M  V30 878 C 74.7381 0.326499 4.30764 0
M  V30 879 C 73.8731 -0.511016 5.28736 0
M  V30 880 C 72.9121 0.389342 6.1086 0
M  V30 881 N 72.0491 -0.409439 7.00905 0
M  V30 882 H 76.8891 1.07108 2.78086 0
M  V30 883 H 74.4261 0.539677 1.36843 0
M  V30 884 H 76.3841 -1.06992 4.03248 0
M  V30 885 H 75.0141 -1.35841 2.92826 0
M  V30 886 H 74.0661 0.939837 3.68607 0
M  V30 887 H 75.3781 1.01857 4.88289 0
M  V30 888 H 74.5321 -1.07035 5.97184 0
M  V30 889 H 73.2711 -1.23657 4.71763 0
M  V30 890 H 72.2761 0.960769 5.4134 0
M  V30 891 H 73.5011 1.1131 6.69916 0
M  V30 892 H 71.4471 -1.11856 6.46393 0
M  V30 893 H 71.3641 0.224126 7.55668 0
M  V30 894 H 72.6321 -0.951336 7.73673 0
M  V30 895 N 76.8612 -1.46375 0.584142 0
M  V30 896 C 77.7712 -2.34115 -0.150728 0
M  V30 897 C 78.7872 -1.49838 -0.884567 0
M  V30 898 O 79.9632 -1.82704 -0.847429 0
M  V30 899 C 77.0282 -3.2705 -1.15062 0
M  V30 900 C 76.0892 -4.27228 -0.421293 0
M  V30 901 C 75.3222 -5.15722 -1.37355 0
M  V30 902 O 75.5452 -5.07176 -2.61014 0
M  V30 903 O 74.4792 -5.95383 -0.883355 0
M  V30 904 H 78.3052 -2.98309 0.569708 0
M  V30 905 H 75.8902 -1.45373 0.344535 0
M  V30 906 H 77.7722 -3.84381 -1.72712 0
M  V30 907 H 76.4472 -2.65451 -1.8525 0
M  V30 908 H 75.3542 -3.7358 0.197085 0
M  V30 909 H 76.6872 -4.91616 0.239641 0
M  V30 910 N 78.3393 -0.321999 -1.54275 0
M  V30 911 C 79.6163 0.335232 -1.92706 0
M  V30 912 C 79.9963 1.70006 -1.25145 0
M  V30 913 O 79.3443 2.25067 -0.394596 0
M  V30 914 C 79.5543 0.429008 -3.46353 0
M  V30 915 C 80.9023 0.690029 -4.18956 0
M  V30 916 O 81.9263 0.511992 -3.52501 0
M  V30 917 O 80.7853 1.03338 -5.36641 0
M  V30 918 H 77.8793 0.191143 -0.804608 0
M  V30 919 H 80.4253 -0.3716 -1.65581 0
M  V30 920 H 79.1973 -0.529611 -3.87699 0
M  V30 921 H 78.8203 1.18348 -3.79578 0
M  V30 922 N 79.8174 1.5752 -0.0501392 0
M  V30 923 C 80.7804 2.1037 0.909786 0
M  V30 924 C 81.7804 1.02308 1.24056 0
M  V30 925 O 82.9704 1.28385 1.17741 0
M  V30 926 C 80.1024 2.58708 2.21998 0
M  V30 927 H 81.2954 2.96479 0.451665 0
M  V30 928 H 78.8484 1.55038 0.198248 0
M  V30 929 H 79.5834 1.75989 2.72394 0
M  V30 930 H 79.3684 3.37675 1.99295 0
M  V30 931 H 80.8584 2.99747 2.9076 0
M  V30 932 N 81.2955 -0.223234 1.56011 0
M  V30 933 C 82.2585 -1.26014 1.9145 0
M  V30 934 C 83.2585 -1.3989 0.792937 0
M  V30 935 O 84.4485 -1.38184 1.0607 0
M  V30 936 C 81.5805 -2.63422 2.16383 0
M  V30 937 H 82.7735 -0.95796 2.84189 0
M  V30 938 H 80.3265 -0.463576 1.49267 0
M  V30 939 H 81.0615 -2.98741 1.2619 0
M  V30 940 H 80.8465 -2.54728 2.98088 0
M  V30 941 H 82.3365 -3.38249 2.44903 0
M  V30 942 N 82.7736 -1.49793 -0.48987 0
M  V30 943 C 83.7036 -1.70201 -1.59856 0
M  V30 944 C 84.6846 -0.55076 -1.60937 0
M  V30 945 O 85.8696 -0.787841 -1.77501 0
M  V30 946 C 82.9996 -1.77882 -2.98287 0
M  V30 947 C 81.9536 -2.92907 -3.12073 0
M  V30 948 C 81.2796 -2.85712 -4.51965 0
M  V30 949 C 82.5796 -4.3369 -2.91051 0
M  V30 950 H 84.2736 -2.63025 -1.43032 0
M  V30 951 H 81.8196 -1.26574 -0.686664 0
M  V30 952 H 83.7726 -1.90744 -3.75759 0
M  V30 953 H 82.4966 -0.816653 -3.16225 0
M  V30 954 H 81.1556 -2.79665 -2.37029 0
M  V30 955 H 80.8036 -1.8738 -4.66795 0
M  V30 956 H 80.5036 -3.62921 -4.62128 0
M  V30 957 H 82.0276 -3.00598 -5.31482 0
M  V30 958 H 83.4416 -4.47555 -3.58284 0
M  V30 959 H 81.8386 -5.12205 -3.12675 0
M  V30 960 H 82.9086 -4.47362 -1.87071 0
M  V30 961 N 84.2517 0.741722 -1.39055 0
M  V30 962 C 85.4797 1.53098 -1.39171 0
M  V30 963 C 85.8947 1.88794 0.0155099 0
M  V30 964 O 85.2517 1.53626 0.985159 0
M  V30 965 C 85.3027 2.82274 -2.2584 0
M  V30 966 O 85.0237 2.48097 -3.61081 0
M  V30 967 C 86.5247 3.76343 -2.34266 0
M  V30 968 H 83.7447 0.473335 -0.4756 0
M  V30 969 H 86.2887 0.917045 -1.82785 0
M  V30 970 H 84.4437 3.40015 -1.85656 0
M  V30 971 H 84.8577 3.31029 -4.06842 0
M  V30 972 H 86.3317 4.63898 -2.9917 0
M  V30 973 H 86.8087 4.17619 -1.35982 0
M  V30 974 H 87.4147 3.24523 -2.74891 0
M  V30 975 N 85.7298 1.2412 0.971189 0
M  V30 976 C 86.9788 1.07284 1.70801 0
M  V30 977 C 87.2918 -0.388902 1.91695 0
M  V30 978 O 88.4978 -0.677379 2.62914 0
M  V30 979 C 86.9538 1.87145 3.07416 0
M  V30 980 C 86.5618 3.37707 2.94377 0
M  V30 981 C 88.3058 1.78828 3.84995 0
M  V30 982 C 86.2128 4.09925 4.26281 0
M  V30 983 H 85.1428 0.397854 0.64049 0
M  V30 984 H 87.7938 1.4817 1.0825 0
M  V30 985 H 86.1758 1.39071 3.70777 0
M  V30 986 H 87.3498 3.93335 2.4005 0
M  V30 987 H 85.6648 3.46938 2.30267 0
M  V30 988 H 88.2618 2.30089 4.82662 0
M  V30 989 H 88.6048 0.75284 4.09436 0
M  V30 990 H 89.1378 2.24563 3.28354 0
M  V30 991 H 85.8768 5.13813 4.07033 0
M  V30 992 H 85.3968 3.59083 4.80437 0
M  V30 993 H 87.0758 4.1673 4.94919 0
M  V30 994 N 87.2079 -1.17134 1.05439 0
M  V30 995 C 88.4379 -1.91094 0.785274 0
M  V30 996 C 88.8459 -1.77198 -0.663142 0
M  V30 997 O 88.1889 -1.10835 -1.46497 0
M  V30 998 C 88.2509 -3.42594 1.08949 0
M  V30 999 C 87.9149 -3.80274 2.53458 0
M  V30 1000 C 88.9119 -3.82912 3.51673 0
M  V30 1001 C 86.5969 -4.11162 2.88532 0
M  V30 1002 C 88.5909 -4.15913 4.83006 0
M  V30 1003 C 86.2779 -4.43831 4.20068 0
M  V30 1004 C 87.2759 -4.46185 5.17115 0
M  V30 1005 O 86.9639 -4.78083 6.46291 0
M  V30 1006 H 86.6959 -0.613073 0.284811 0
M  V30 1007 H 89.2499 -1.49461 1.40893 0
M  V30 1008 H 87.4799 -3.84534 0.408741 0
M  V30 1009 H 89.1689 -3.97817 0.805991 0
M  V30 1010 H 89.9349 -3.5917 3.25917 0
M  V30 1011 H 85.8139 -4.085 2.13656 0
M  V30 1012 H 89.3579 -4.17665 5.5875 0
M  V30 1013 H 85.2549 -4.67037 4.45586 0
M  V30 1014 H 86.0229 -4.9593 6.51149 0
M  V30 1015 N 88.686 -0.835752 -1.33615 0
M  V30 1016 C 89.596 -0.269088 -2.33052 0
M  V30 1017 C 90.612 0.603251 -1.63208 0
M  V30 1018 O 91.788 0.508112 -1.94885 0
M  V30 1019 C 88.853 0.549091 -3.42324 0
M  V30 1020 C 87.914 -0.347156 -4.27894 0
M  V30 1021 C 87.147 0.43207 -5.31948 0
M  V30 1022 O 87.37 1.66409 -5.45586 0
M  V30 1023 O 86.304 -0.192298 -6.01593 0
M  V30 1024 H 90.13 -1.09243 -2.83372 0
M  V30 1025 H 87.715 -0.598198 -1.36901 0
M  V30 1026 H 89.597 1.01414 -4.09015 0
M  V30 1027 H 88.272 1.34955 -2.94226 0
M  V30 1028 H 87.179 -0.859979 -3.64081 0
M  V30 1029 H 88.512 -1.1123 -4.79467 0
M  V30 1030 N 90.1641 1.46063 -0.591896 0
M  V30 1031 C 91.0971 2.27452 0.184617 0
M  V30 1032 C 92.0751 1.36188 0.888351 0
M  V30 1033 O 93.2591 1.65606 0.90039 0
M  V30 1034 C 90.3861 3.14162 1.26571 0
M  V30 1035 C 89.4321 4.21255 0.666814 0
M  V30 1036 S 90.2651 5.33034 -0.513345 0
M  V30 1037 C 91.4211 6.23311 0.56872 0
M  V30 1038 H 91.6541 2.92963 -0.505939 0
M  V30 1039 H 89.1871 1.49676 -0.379014 0
M  V30 1040 H 91.1451 3.6468 1.88463 0
M  V30 1041 H 89.8061 2.47946 1.92826 0
M  V30 1042 H 88.9991 4.81788 1.47974 0
M  V30 1043 H 88.6011 3.73797 0.123359 0
M  V30 1044 H 90.8931 6.61758 1.45198 0
M  V30 1045 H 91.8361 7.081 -7.23824e-05 0
M  V30 1046 H 92.2441 5.57646 0.876996 0
M  V30 1047 N 91.6422 0.330177 1.54103 0
M  V30 1048 C 92.5722 -0.525353 2.27513 0
M  V30 1049 C 93.5532 -1.11383 1.2856 0
M  V30 1050 O 94.7382 -1.13773 1.57383 0
M  V30 1051 C 91.8682 -1.6831 3.03791 0
M  V30 1052 C 90.8222 -1.2236 4.10137 0
M  V30 1053 C 90.1482 -2.46882 4.74293 0
M  V30 1054 C 91.4482 -0.333697 5.21233 0
M  V30 1055 H 93.1422 0.087013 2.99274 0
M  V30 1056 H 90.6882 0.0432893 1.43935 0
M  V30 1057 H 92.6412 -2.28795 3.5388 0
M  V30 1058 H 91.3652 -2.32216 2.29659 0
M  V30 1059 H 90.0242 -0.64165 3.60941 0
M  V30 1060 H 89.6722 -3.09165 3.96769 0
M  V30 1061 H 89.3722 -2.16825 5.46133 0
M  V30 1062 H 90.8962 -3.08117 5.27159 0
M  V30 1063 H 92.3102 -0.845013 5.67038 0
M  V30 1064 H 90.7072 -0.125612 5.99969 0
M  V30 1065 H 91.7772 0.633724 4.80741 0
M  V30 1066 N 93.1203 -1.57491 0.0584922 0
M  V30 1067 C 94.0523 -2.08916 -0.942694 0
M  V30 1068 C 95.0653 -1.0185 -1.27006 0
M  V30 1069 O 96.2543 -1.29398 -1.22957 0
M  V30 1070 C 93.3543 -2.52341 -2.26224 0
M  V30 1071 C 92.5273 -3.82827 -2.1157 0
M  V30 1072 C 91.5863 -4.12487 -3.26712 0
M  V30 1073 O 90.6123 -4.82295 -3.02292 0
M  V30 1074 N 91.8143 -3.64978 -4.5141 0
M  V30 1075 H 94.5793 -2.95437 -0.503722 0
M  V30 1076 H 92.1403 -1.61397 -0.12757 0
M  V30 1077 H 94.1323 -2.69254 -3.02133 0
M  V30 1078 H 92.7023 -1.7103 -2.61663 0
M  V30 1079 H 91.9223 -3.75425 -1.20208 0
M  V30 1080 H 93.2103 -4.68263 -1.99015 0
M  V30 1081 H 92.6083 -3.08558 -4.7414 0
M  V30 1082 H 91.1653 -3.87115 -5.2439 0
M  V30 1083 N 94.5984 0.214957 -1.56127 0
M  V30 1084 C 95.5464 1.28601 -1.93816 0
M  V30 1085 C 96.5404 1.48175 -0.821016 0
M  V30 1086 O 97.7464 1.49271 -1.0059 0
M  V30 1087 H 94.1214 0.431302 -0.616022 0
M  V30 1088 H 96.0924 0.940991 -2.83175 0
M  V30 1089 C 94.8414 2.62779 -2.27689 0
M  V30 1090 H 94.1644 2.48527 -3.13168 0
M  V30 1091 H 95.6044 3.36517 -2.57939 0
M  V30 1092 C 94.0634 3.18285 -1.10436 0
M  V30 1093 O 94.5934 4.00002 -0.368945 0
M  V30 1094 N 92.7994 2.7675 -0.886433 0
M  V30 1095 H 92.3464 2.10404 -1.48619 0
M  V30 1096 H 92.3044 3.14229 -0.103656 0
M  V30 1097 N 96.0765 1.50051 0.48192 0
M  V30 1098 C 97.3255 1.59741 1.23149 0
M  V30 1099 C 97.6385 0.298163 1.93314 0
M  V30 1100 O 98.8445 0.273835 2.70116 0
M  V30 1101 C 97.3005 2.81926 2.23708 0
M  V30 1102 C 96.9085 4.18685 1.59396 0
M  V30 1103 C 98.6525 3.00956 2.99375 0
M  V30 1104 C 96.5595 5.3207 2.58178 0
M  V30 1105 H 95.4895 0.594838 0.46334 0
M  V30 1106 H 98.1405 1.76467 0.503169 0
M  V30 1107 H 96.5225 2.58736 2.99786 0
M  V30 1108 H 97.6965 4.52088 0.891811 0
M  V30 1109 H 96.0115 4.05171 0.960503 0
M  V30 1110 H 98.6085 3.82836 3.73283 0
M  V30 1111 H 98.9515 2.12258 3.58123 0
M  V30 1112 H 99.4845 3.24277 2.30411 0
M  V30 1113 H 96.2235 6.22888 2.04184 0
M  V30 1114 H 95.7435 5.03098 3.26577 0
M  V30 1115 H 97.4225 5.62196 3.20225 0
M  V30 1116 N 97.5546 -0.734337 1.39446 0
M  V30 1117 C 98.8016 -1.49391 1.36706 0
M  V30 1118 C 99.1296 -1.94465 -0.0367813 0
M  V30 1119 O 98.3846 -1.67154 -1.01774 0
M  V30 1120 C 98.6836 -2.74711 2.28623 0
M  V30 1121 C 98.3496 -2.48501 3.76242 0
M  V30 1122 C 97.0116 -2.41062 4.16464 0
M  V30 1123 C 99.3636 -2.26098 4.69606 0
M  V30 1124 C 96.6916 -2.09262 5.48112 0
M  V30 1125 C 99.0436 -1.95814 6.01531 0
M  V30 1126 C 97.7076 -1.86845 6.40816 0
M  V30 1127 H 96.9776 -0.546661 0.500243 0
M  V30 1128 H 99.6246 -0.842788 1.71957 0
M  V30 1129 H 97.9296 -3.44569 1.86492 0
M  V30 1130 H 99.6266 -3.32741 2.23796 0
M  V30 1131 H 96.2166 -2.55169 3.44364 0
M  V30 1132 H 100.401 -2.30812 4.39363 0
M  V30 1133 H 95.6566 -2.00841 5.77471 0
M  V30 1134 H 99.8306 -1.77488 6.73403 0
M  V30 1135 H 97.4576 -1.6197 7.42745 0
M  V30 1136 N 99.0327 -1.24633 -0.964593 0
M  V30 1137 C 99.9957 -1.0424 -2.04124 0
M  V30 1138 C 100.996 0.00137563 -1.608 0
M  V30 1139 O 102.186 -0.239883 -1.7254 0
M  V30 1140 C 99.3177 -0.580588 -3.3592 0
M  V30 1141 H 100.511 -1.99803 -2.23649 0
M  V30 1142 H 98.0637 -1.06899 -1.14027 0
M  V30 1143 H 98.7987 0.3781 -3.22088 0
M  V30 1144 H 98.5837 -1.33398 -3.6871 0
M  V30 1145 H 100.074 -0.459034 -4.15069 0
M  V30 1146 N 100.511 1.16574 -1.06058 0
M  V30 1147 C 101.76 1.86385 -0.770944 0
M  V30 1148 C 102.073 1.82448 0.705129 0
M  V30 1149 O 103.279 2.47815 1.10905 0
M  V30 1150 C 101.735 3.34466 -1.32893 0
M  V30 1151 C 101.343 3.46883 -2.83507 0
M  V30 1152 C 103.087 4.09548 -1.11672 0
M  V30 1153 C 100.994 4.89036 -3.32562 0
M  V30 1154 H 99.9238 0.698181 -0.284709 0
M  V30 1155 H 102.575 1.31583 -1.27899 0
M  V30 1156 H 100.957 3.88859 -0.748662 0
M  V30 1157 H 102.131 3.02663 -3.47465 0
M  V30 1158 H 100.446 2.85232 -3.03368 0
M  V30 1159 H 103.043 5.14434 -1.45814 0
M  V30 1160 H 103.386 4.16264 -0.0549535 0
M  V30 1161 H 103.919 3.61387 -1.66265 0
M  V30 1162 H 100.658 4.87499 -4.38207 0
M  V30 1163 H 100.178 5.3389 -2.73351 0
M  V30 1164 H 101.857 5.57843 -3.2775 0
M  V30 1165 N 101.989 0.842826 1.3317 0
M  V30 1166 C 103.236 0.440447 1.97652 0
M  V30 1167 C 103.564 -1.00123 1.6675 0
M  V30 1168 O 102.819 -1.7155 0.941761 0
M  V30 1169 C 103.118 0.612607 3.52111 0
M  V30 1170 C 102.784 2.02297 4.02972 0
M  V30 1171 C 101.446 2.40874 4.16573 0
M  V30 1172 C 103.798 2.94402 4.30089 0
M  V30 1173 C 101.126 3.70852 4.54627 0
M  V30 1174 C 103.478 4.23865 4.69597 0
M  V30 1175 C 102.142 4.62392 4.81404 0
M  V30 1176 H 101.412 0.161171 0.72326 0
M  V30 1177 H 104.059 1.07061 1.58777 0
M  V30 1178 H 102.364 -0.100849 3.9167 0
M  V30 1179 H 104.061 0.2815 4.00011 0
M  V30 1180 H 100.651 1.71338 3.92863 0
M  V30 1181 H 104.835 2.65835 4.19101 0
M  V30 1182 H 100.091 4.00501 4.61962 0
M  V30 1183 H 104.265 4.95306 4.89536 0
M  V30 1184 H 101.892 5.63154 5.10648 0
M  V30 1185 N 103.467 -1.45747 0.599634 0
M  V30 1186 C 104.883 -1.57424 0.26264 0
M  V30 1187 C 105.083 -1.59222 -1.23493 0
M  V30 1188 O 104.139 -1.51825 -2.01756 0
M  V30 1189 C 105.452 -2.86061 0.926795 0
M  V30 1190 C 107 -2.99722 0.901967 0
M  V30 1191 C 107.475 -4.31119 1.54598 0
M  V30 1192 N 108.966 -4.37858 1.5111 0
M  V30 1193 C 109.701 -5.3818 1.97863 0
M  V30 1194 N 109.197 -6.45083 2.52666 0
M  V30 1195 N 110.99 -5.29487 1.88679 0
M  V30 1196 H 103.141 -1.42823 1.57211 0
M  V30 1197 H 105.404 -0.68235 0.658105 0
M  V30 1198 H 105.11 -2.90605 1.98095 0
M  V30 1199 H 104.984 -3.74563 0.445238 0
M  V30 1200 H 107.371 -2.9475 -0.143617 0
M  V30 1201 H 107.452 -2.12652 1.42171 0
M  V30 1202 H 107.096 -4.36849 2.59085 0
M  V30 1203 H 107.026 -5.16992 1.00132 0
M  V30 1204 H 109.517 -3.61209 1.11068 0
M  V30 1205 H 109.83 -7.17869 2.86155 0
M  V30 1206 H 108.175 -6.45856 2.56701 0
M  V30 1207 H 111.366 -4.44877 1.4561 0
M  V30 1208 H 111.539 -6.07524 2.25429 0
M  V30 1209 N 104.945 -0.338344 -1.53925 0
M  V30 1210 C 105.877 0.555117 -2.22376 0
M  V30 1211 C 106.89 1.06812 -1.22862 0
M  V30 1212 O 108.079 0.979163 -1.49247 0
M  V30 1213 C 105.179 1.77609 -2.88631 0
M  V30 1214 C 104.352 1.39927 -4.14414 0
M  V30 1215 C 103.411 2.47936 -4.64127 0
M  V30 1216 O 102.437 2.11461 -5.28463 0
M  V30 1217 N 103.639 3.79107 -4.39612 0
M  V30 1218 H 106.404 -0.0310778 -2.99684 0
M  V30 1219 H 103.965 -0.162226 -1.61085 0
M  V30 1220 H 105.957 2.49287 -3.18807 0
M  V30 1221 H 104.527 2.26978 -2.14941 0
M  V30 1222 H 103.747 0.513481 -3.90841 0
M  V30 1223 H 105.035 1.12341 -4.96243 0
M  V30 1224 H 104.433 4.11531 -3.88148 0
M  V30 1225 H 102.99 4.4697 -4.74406 0
M  V30 1226 N 106.423 1.57458 -0.0668435 0
M  V30 1227 C 107.7 1.8469 0.644132 0
M  V30 1228 C 108.08 0.958343 1.88093 0
M  V30 1229 O 107.428 0.0233579 2.28488 0
M  V30 1230 C 107.638 3.34767 0.986509 0
M  V30 1231 C 108.986 4.02159 1.36212 0
M  V30 1232 O 110.01 3.39484 1.07839 0
M  V30 1233 O 108.869 5.12694 1.89227 0
M  V30 1234 H 105.963 0.762816 0.319437 0
M  V30 1235 H 108.509 1.6942 -0.0973986 0
M  V30 1236 H 107.281 3.91151 0.107883 0
M  V30 1237 H 106.904 3.55281 1.78497 0
M  V30 1238 N 107.901 -0.206675 1.56239 0
M  V30 1239 C 109.126 -0.949474 1.8439 0
M  V30 1240 C 109.551 -1.76549 0.649016 0
M  V30 1241 O 108.909 -1.76782 -0.402231 0
M  V30 1242 C 108.957 -1.83078 3.10668 0
M  V30 1243 O 108.061 -2.9281 2.90407 0
M  V30 1244 H 107.402 -0.268033 0.607499 0
M  V30 1245 H 109.932 -0.215488 2.03462 0
M  V30 1246 H 109.942 -2.2377 3.41161 0
M  V30 1247 H 108.617 -1.23112 3.97261 0
M  V30 1248 H 107.194 -2.55956 2.71184 0
M  V30 1249 N 109.379 -1.50304 -0.473955 0
M  V30 1250 C 110.604 -1.65175 -1.25427 0
M  V30 1251 C 111.029 -0.333673 -1.85117 0
M  V30 1252 O 110.387 0.702114 -1.67153 0
M  V30 1253 C 110.435 -2.74295 -2.34082 0
M  V30 1254 O 109.539 -2.35349 -3.38651 0
M  V30 1255 H 108.88 -0.551944 -0.369126 0
M  V30 1256 H 111.41 -1.96662 -0.564364 0
M  V30 1257 H 111.42 -2.97285 -2.79438 0
M  V30 1258 H 110.095 -3.69959 -1.90008 0
M  V30 1259 H 108.672 -2.22794 -2.99027 0
M  V30 1260 N 110.857 0.726932 -1.39834 0
M  V30 1261 C 112.082 1.52121 -1.40976 0
M  V30 1262 C 112.507 1.88098 -0.00826029 0
M  V30 1263 O 111.865 1.52479 0.980807 0
M  V30 1264 C 111.913 2.78021 -2.29644 0
M  V30 1265 O 111.017 3.74272 -1.73188 0
M  V30 1266 H 110.358 0.45908 -0.479731 0
M  V30 1267 H 112.888 0.896207 -1.83927 0
M  V30 1268 H 112.898 3.26671 -2.44438 0
M  V30 1269 H 111.573 2.51169 -3.31492 0
M  V30 1270 H 110.15 3.33073 -1.6768 0
M  V30 1271 N 112.336 1.25143 0.95797 0
M  V30 1272 C 113.564 1.12424 1.73691 0
M  V30 1273 C 113.979 -0.322304 1.86029 0
M  V30 1274 O 113.336 -1.22186 1.35561 0
M  V30 1275 C 113.387 1.76933 3.15241 0
M  V30 1276 O 113.108 3.15932 3.03511 0
M  V30 1277 C 114.609 1.6995 4.09429 0
M  V30 1278 H 111.829 0.3923 0.544373 0
M  V30 1279 H 114.373 1.6544 1.20207 0
M  V30 1280 H 112.528 1.27895 3.6568 0
M  V30 1281 H 112.942 3.47598 3.9278 0
M  V30 1282 H 114.416 2.19753 5.06372 0
M  V30 1283 H 114.893 0.662619 4.34173 0
M  V30 1284 H 115.499 2.18461 3.64904 0
M  V30 1285 N 113.814 -1.1601 1.06675 0
M  V30 1286 C 115.062 -1.86264 0.784229 0
M  V30 1287 C 115.383 -1.82328 -0.691488 0
M  V30 1288 O 114.653 -1.25947 -1.50047 0
M  V30 1289 H 113.233 -0.689621 0.28711 0
M  V30 1290 H 115.895 -1.40664 1.34906 0
M  V30 1291 H 114.991 -2.91595 1.11259 0
M  V30 1292 N 115.292 -0.849877 -1.32721 0
M  V30 1293 C 116.538 -0.460855 -1.9811 0
M  V30 1294 C 116.893 0.971716 -1.66059 0
M  V30 1295 O 116.186 1.67184 -0.935944 0
M  V30 1296 C 116.38 -0.631272 -3.51781 0
M  V30 1297 C 116.209 -2.07886 -3.98765 0
M  V30 1298 C 114.979 -2.71637 -4.26077 0
M  V30 1299 C 117.177 -3.04889 -4.14182 0
M  V30 1300 N 115.159 -4.07356 -4.59276 0
M  V30 1301 C 116.53 -4.25583 -4.50865 0
M  V30 1302 C 118.585 -3.01148 -3.96503 0
M  V30 1303 C 117.288 -5.43027 -4.71714 0
M  V30 1304 C 119.314 -4.17832 -4.18533 0
M  V30 1305 C 118.676 -5.37284 -4.55528 0
M  V30 1306 H 114.775 -0.217283 -0.751207 0
M  V30 1307 H 117.359 -1.10026 -1.60631 0
M  V30 1308 H 115.53 -0.0215966 -3.88394 0
M  V30 1309 H 117.262 -0.212614 -4.04141 0
M  V30 1310 H 114.017 -2.22705 -4.17971 0
M  V30 1311 H 114.441 -4.77351 -4.80068 0
M  V30 1312 H 119.083 -2.0992 -3.67006 0
M  V30 1313 H 116.801 -6.34791 -5.00066 0
M  V30 1314 H 120.387 -4.16368 -4.06361 0
M  V30 1315 H 119.267 -6.26071 -4.72234 0
M  V30 1316 N 116.77 1.45427 -0.607355 0
M  V30 1317 C 117.718 2.32269 0.12411 0
M  V30 1318 C 118.712 1.45955 0.859854 0
M  V30 1319 O 119.918 1.6244 0.775447 0
M  V30 1320 H 116.293 0.749691 0.0588839 0
M  V30 1321 H 118.264 2.91743 -0.626762 0
M  V30 1322 C 117.013 3.29567 1.1082 0
M  V30 1323 H 116.336 3.95978 0.551492 0
M  V30 1324 H 117.776 3.93061 1.58995 0
M  V30 1325 C 116.235 2.56722 2.18164 0
M  V30 1326 O 116.765 2.34842 3.25902 0
M  V30 1327 N 114.971 2.16861 1.93442 0
M  V30 1328 H 114.518 2.34855 1.05834 0
M  V30 1329 H 114.476 1.68444 2.65469 0
M  V30 1330 N 118.248 0.346503 1.53744 0
M  V30 1331 C 119.158 -0.517293 2.28826 0
M  V30 1332 C 120.174 -1.10935 1.3405 0
M  V30 1333 O 121.35 -1.1244 1.6709 0
M  V30 1334 C 118.415 -1.65098 3.04866 0
M  V30 1335 C 117.476 -1.0884 4.15274 0
M  V30 1336 C 116.709 -2.16806 4.87679 0
M  V30 1337 O 116.932 -3.3758 4.59778 0
M  V30 1338 O 115.866 -1.80934 5.74061 0
M  V30 1339 H 119.692 0.0931396 3.03557 0
M  V30 1340 H 117.277 0.111458 1.48984 0
M  V30 1341 H 119.159 -2.31053 3.5241 0
M  V30 1342 H 117.834 -2.24717 2.32989 0
M  V30 1343 H 116.741 -0.3933 3.72027 0
M  V30 1344 H 118.074 -0.537036 4.89261 0
M  V30 1345 N 119.726 -1.57421 0.075193 0
M  V30 1346 C 120.954 -1.97946 -0.602076 0
M  V30 1347 C 121.369 -0.953674 -1.62943 0
M  V30 1348 O 120.726 0.0592551 -1.82404 0
M  V30 1349 C 120.777 -3.38546 -1.26762 0
M  V30 1350 O 120.498 -4.37195 -0.281376 0
M  V30 1351 C 121.999 -3.93966 -2.03239 0
M  V30 1352 H 119.219 -0.650918 -0.162931 0
M  V30 1353 H 121.763 -2.03959 0.148601 0
M  V30 1354 H 119.918 -3.33609 -1.96936 0
M  V30 1355 H 120.332 -5.18975 -0.759267 0
M  V30 1356 H 121.806 -4.94555 -2.45193 0
M  V30 1357 H 122.283 -3.30693 -2.8903 0
M  V30 1358 H 122.889 -4.02315 -1.37924 0
M  V30 1359 N 121.204 0.198386 -1.56346 0
M  V30 1360 C 122.453 0.917451 -1.79627 0
M  V30 1361 C 122.766 1.8456 -0.64784 0
M  V30 1362 O 123.972 2.60504 -0.764859 0
M  V30 1363 C 122.428 1.68175 -3.18191 0
M  V30 1364 C 122.036 0.798589 -4.40825 0
M  V30 1365 C 123.78 2.39065 -3.50782 0
M  V30 1366 C 121.687 1.56157 -5.70411 0
M  V30 1367 H 120.617 0.346317 -0.669762 0
M  V30 1368 H 123.268 0.170801 -1.82703 0
M  V30 1369 H 121.65 2.47216 -3.09354 0
M  V30 1370 H 122.824 0.0470665 -4.60776 0
M  V30 1371 H 121.139 0.200686 -4.15916 0
M  V30 1372 H 123.736 2.96692 -4.44835 0
M  V30 1373 H 124.079 3.13091 -2.74371 0
M  V30 1374 H 124.612 1.66993 -3.61052 0
M  V30 1375 H 121.351 0.864142 -6.49779 0
M  V30 1376 H 120.871 2.2871 -5.54483 0
M  V30 1377 H 122.55 2.11622 -6.11412 0
M  V30 1378 N 122.682 1.50554 0.465978 0
M  V30 1379 C 123.928 1.62038 1.21949 0
M  V30 1380 C 124.261 0.322116 1.9151 0
M  V30 1381 O 123.536 -0.676723 1.82348 0
M  V30 1382 C 123.819 2.80421 2.25912 0
M  V30 1383 C 123.672 4.20144 1.60622 0
M  V30 1384 C 124.991 2.94354 3.27176 0
M  V30 1385 H 122.11 0.589752 0.441998 0
M  V30 1386 H 124.752 1.82956 0.51257 0
M  V30 1387 H 122.902 2.62717 2.86203 0
M  V30 1388 H 124.574 4.49449 1.03889 0
M  V30 1389 H 122.817 4.24165 0.909211 0
M  V30 1390 H 123.488 4.98914 2.36196 0
M  V30 1391 H 125.964 3.10578 2.76913 0
M  V30 1392 H 124.84 3.788 3.97242 0
M  V30 1393 H 125.101 2.05186 3.916 0
M  V30 1394 N 124.16 -0.719506 1.40217 0
M  V30 1395 C 125.07 -1.86378 1.42479 0
M  V30 1396 C 126.086 -1.71073 0.317834 0
M  V30 1397 O 127.262 -1.93406 0.561794 0
M  V30 1398 C 124.327 -3.22136 1.28178 0
M  V30 1399 C 123.388 -3.49723 2.48982 0
M  V30 1400 C 122.621 -4.79004 2.35353 0
M  V30 1401 O 122.844 -5.53821 1.36524 0
M  V30 1402 O 121.778 -5.06839 3.2465 0
M  V30 1403 H 125.604 -1.87425 2.38968 0
M  V30 1404 H 123.189 -0.869405 1.21498 0
M  V30 1405 H 125.071 -4.03234 1.22395 0
M  V30 1406 H 123.746 -3.21825 0.347934 0
M  V30 1407 H 122.653 -2.6865 2.60342 0
M  V30 1408 H 123.986 -3.54828 3.41113 0
M  V30 1409 N 125.638 -1.25649 -0.95132 0
M  V30 1410 C 126.586 -1.06118 -2.06982 0
M  V30 1411 C 127.58 0.00889169 -1.69398 0
M  V30 1412 O 128.786 -0.146988 -1.79399 0
M  V30 1413 H 125.161 -0.326248 -0.677544 0
M  V30 1414 H 127.132 -2.00932 -2.2061 0
M  V30 1415 C 125.881 -0.700145 -3.40578 0
M  V30 1416 H 125.204 -1.51537 -3.69968 0
M  V30 1417 H 126.644 -0.603211 -4.19687 0
M  V30 1418 C 125.103 0.59403 -3.31622 0
M  V30 1419 O 125.633 1.63522 -3.66911 0
M  V30 1420 N 123.839 0.58089 -2.84735 0
M  V30 1421 H 123.386 -0.266783 -2.56215 0
M  V30 1422 H 123.344 1.44695 -2.79125 0
M  V30 1423 N 127.117 1.15442 -1.07289 0
M  V30 1424 C 128.047 2.22312 -0.714107 0
M  V30 1425 C 129.028 1.67467 0.298155 0
M  V30 1426 O 130.213 1.93445 0.171048 0
M  V30 1427 C 127.343 3.47124 -0.110448 0
M  V30 1428 C 126.297 4.14926 -1.04979 0
M  V30 1429 C 125.623 5.33807 -0.308924 0
M  V30 1430 C 126.923 4.64762 -2.38314 0
M  V30 1431 H 128.617 2.5258 -1.6076 0
M  V30 1432 H 126.163 1.21404 -0.77441 0
M  V30 1433 H 128.116 4.21124 0.152482 0
M  V30 1434 H 126.84 3.16187 0.81812 0
M  V30 1435 H 125.499 3.42866 -1.29764 0
M  V30 1436 H 125.147 4.99126 0.623084 0
M  V30 1437 H 124.847 5.80113 -0.935036 0
M  V30 1438 H 126.371 6.10576 -0.0537771 0
M  V30 1439 H 127.785 5.30292 -2.1786 0
M  V30 1440 H 126.182 5.21728 -2.96514 0
M  V30 1441 H 127.252 3.80434 -3.00663 0
M  V30 1442 N 128.595 0.856903 1.32268 0
M  V30 1443 C 129.525 0.31858 2.31316 0
M  V30 1444 C 130.506 -0.583487 1.59779 0
M  V30 1445 O 131.691 -0.503259 1.87566 0
M  V30 1446 C 128.821 -0.491979 3.43798 0
M  V30 1447 C 127.775 0.315849 4.26833 0
M  V30 1448 C 127.101 -0.619586 5.31098 0
M  V30 1449 C 128.401 1.54282 4.98993 0
M  V30 1450 H 130.095 1.14621 2.76591 0
M  V30 1451 H 127.641 0.552613 1.32974 0
M  V30 1452 H 129.594 -0.879012 4.1213 0
M  V30 1453 H 128.318 -1.35299 2.97257 0
M  V30 1454 H 126.977 0.684664 3.6015 0
M  V30 1455 H 126.625 -1.47751 4.8081 0
M  V30 1456 H 126.325 -0.0830621 5.87541 0
M  V30 1457 H 127.849 -1.00375 6.02293 0
M  V30 1458 H 129.263 1.22796 5.59995 0
M  V30 1459 H 127.66 2.01745 5.65172 0
M  V30 1460 H 128.73 2.30285 4.26728 0
M  V30 1461 N 130.073 -1.45103 0.615059 0
M  V30 1462 C 131.036 -2.29025 -0.0895485 0
M  V30 1463 C 132.036 -1.40174 -0.787906 0
M  V30 1464 O 133.226 -1.62217 -0.634933 0
M  V30 1465 C 130.358 -3.21376 -1.13711 0
M  V30 1466 H 131.551 -2.92807 0.648382 0
M  V30 1467 H 129.104 -1.51749 0.374444 0
M  V30 1468 H 129.839 -2.6241 -1.90556 0
M  V30 1469 H 129.624 -3.86834 -0.640475 0
M  V30 1470 H 131.114 -3.84459 -1.63036 0
M  V30 1471 N 131.551 -0.354651 -1.53558 0
M  V30 1472 C 132.499 0.512195 -2.26891 0
M  V30 1473 C 133.493 1.09263 -1.29452 0
M  V30 1474 O 134.699 1.03709 -1.47121 0
M  V30 1475 H 131.074 0.183878 -0.729173 0
M  V30 1476 H 133.045 -0.128202 -2.98124 0
M  V30 1477 C 131.794 1.64563 -3.06291 0
M  V30 1478 H 131.117 1.20829 -3.81104 0
M  V30 1479 H 132.557 2.22711 -3.60799 0
M  V30 1480 C 131.016 2.58158 -2.16462 0
M  V30 1481 O 131.546 3.60695 -1.76811 0
M  V30 1482 N 129.752 2.27096 -1.81317 0
M  V30 1483 H 129.299 1.43751 -2.1376 0
M  V30 1484 H 129.257 2.89975 -1.21498 0
M  V30 1485 N 133.029 1.57378 -0.0835403 0
M  V30 1486 C 134.275 1.94217 0.583733 0
M  V30 1487 C 134.608 0.964653 1.68547 0
M  V30 1488 O 133.883 -0.00422258 1.945 0
M  V30 1489 C 134.166 3.41253 1.14972 0
M  V30 1490 C 134.019 4.49768 0.0538277 0
M  V30 1491 C 135.338 3.89352 2.05166 0
M  V30 1492 H 132.457 0.706233 0.210724 0
M  V30 1493 H 135.099 1.89392 -0.1519 0
M  V30 1494 H 133.249 3.45496 1.77665 0
M  V30 1495 H 134.921 4.57641 -0.579851 0
M  V30 1496 H 133.164 4.29432 -0.614068 0
M  V30 1497 H 133.835 5.49817 0.490452 0
M  V30 1498 H 136.311 3.87189 1.52393 0
M  V30 1499 H 135.187 4.92822 2.41698 0
M  V30 1500 H 135.448 3.27973 2.96456 0
M  V30 1501 N 134.507 -0.190092 1.56449 0
M  V30 1502 C 135.737 -0.92443 1.84764 0
M  V30 1503 C 136.145 -1.77146 0.664529 0
M  V30 1504 O 135.488 -1.79812 -0.375957 0
M  V30 1505 C 135.55 -1.86651 3.07248 0
M  V30 1506 C 135.214 -1.20094 4.40938 0
M  V30 1507 C 136.211 -0.575445 5.16706 0
M  V30 1508 C 133.896 -1.2033 4.87674 0
M  V30 1509 C 135.89 0.0388111 6.37388 0
M  V30 1510 C 133.577 -0.585214 6.08291 0
M  V30 1511 C 134.575 0.0347578 6.82991 0
M  V30 1512 O 134.263 0.643147 8.01323 0
M  V30 1513 H 133.995 -0.274974 0.617548 0
M  V30 1514 H 136.549 -0.200788 2.04416 0
M  V30 1515 H 134.779 -2.62998 2.83494 0
M  V30 1516 H 136.468 -2.46907 3.22167 0
M  V30 1517 H 137.234 -0.565728 4.81689 0
M  V30 1518 H 133.113 -1.67526 4.29484 0
M  V30 1519 H 136.657 0.523329 6.95634 0
M  V30 1520 H 132.554 -0.592451 6.42775 0
M  V30 1521 H 133.322 0.540545 8.16713 0
M  V30 1522 N 135.985 -1.50799 -0.457987 0
M  V30 1523 C 136.935 -1.67003 -1.55222 0
M  V30 1524 C 137.919 -0.52434 -1.52117 0
M  V30 1525 O 139.111 -0.779345 -1.58919 0
M  V30 1526 C 136.24 -1.77956 -2.93576 0
M  V30 1527 C 135.326 -2.98243 -3.01516 0
M  V30 1528 N 135.717 -4.21732 -2.79241 0
M  V30 1529 C 134.015 -2.97072 -3.32662 0
M  V30 1530 C 134.716 -5.02817 -2.92489 0
M  V30 1531 N 133.692 -4.37038 -3.23262 0
M  V30 1532 H 137.494 -2.60163 -1.36721 0
M  V30 1533 H 135.008 -1.48163 -0.664952 0
M  V30 1534 H 137.005 -1.87671 -3.72271 0
M  V30 1535 H 135.665 -0.859634 -3.13114 0
M  V30 1536 H 136.676 -4.51016 -2.54567 0
M  V30 1537 H 133.353 -2.14631 -3.58106 0
M  V30 1538 H 134.743 -6.11054 -2.79396 0
M  V30 1539 N 137.463 0.71206 -1.40597 0
M  V30 1540 C 138.395 1.83704 -1.37061 0
M  V30 1541 C 139.408 1.60453 -0.275426 0
M  V30 1542 O 140.597 1.70262 -0.53602 0
M  V30 1543 C 137.697 3.20172 -1.11099 0
M  V30 1544 C 136.87 3.7059 -2.3234 0
M  V30 1545 C 135.929 4.85681 -2.02485 0
M  V30 1546 O 134.955 4.9815 -2.75382 0
M  V30 1547 N 136.157 5.71735 -1.00497 0
M  V30 1548 H 138.922 1.87235 -2.34016 0
M  V30 1549 H 136.483 0.893739 -1.34996 0
M  V30 1550 H 138.475 3.94768 -0.891064 0
M  V30 1551 H 137.045 3.11767 -0.227989 0
M  V30 1552 H 136.265 2.87085 -2.7014 0
M  V30 1553 H 137.553 4.01011 -3.13157 0
M  V30 1554 H 136.951 5.64275 -0.401298 0
M  V30 1555 H 135.508 6.463 -0.844942 0
M  V30 1556 N 138.941 1.26152 0.944643 0
M  V30 1557 C 140.19 1.10883 1.68487 0
M  V30 1558 C 140.503 -0.348153 1.92477 0
M  V30 1559 O 141.709 -0.621459 2.64292 0
M  V30 1560 C 140.165 1.93624 3.03377 0
M  V30 1561 C 139.773 3.43875 2.87148 0
M  V30 1562 C 141.517 1.86954 3.81115 0
M  V30 1563 C 139.424 4.18875 4.1749 0
M  V30 1564 H 138.354 0.41135 0.631907 0
M  V30 1565 H 141.005 1.50433 1.05082 0
M  V30 1566 H 139.387 1.46904 3.67743 0
M  V30 1567 H 140.561 3.98338 2.31653 0
M  V30 1568 H 138.876 3.51744 2.22856 0
M  V30 1569 H 141.473 2.40275 4.77673 0
M  V30 1570 H 141.816 0.839518 4.07747 0
M  V30 1571 H 142.349 2.31477 3.23517 0
M  V30 1572 H 139.088 5.22332 3.96043 0
M  V30 1573 H 138.608 3.69193 4.72712 0
M  V30 1574 H 140.287 4.27134 4.85968 0
M  V30 1575 N 140.419 -1.14872 1.07899 0
M  V30 1576 C 141.367 -2.21857 0.698727 0
M  V30 1577 C 142.361 -1.66845 -0.293086 0
M  V30 1578 O 143.567 -1.79321 -0.156204 0
M  V30 1579 H 139.942 -0.722691 0.207899 0
M  V30 1580 H 141.913 -2.51205 1.61054 0
M  V30 1581 C 140.662 -3.47498 0.11858 0
M  V30 1582 H 139.985 -3.90154 0.872914 0
M  V30 1583 H 141.425 -4.23858 -0.109759 0
M  V30 1584 C 139.884 -3.16947 -1.1422 0
M  V30 1585 O 140.414 -3.3426 -2.22785 0
M  V30 1586 N 138.62 -2.70946 -1.05055 0
M  V30 1587 H 138.167 -2.57058 -0.167038 0
M  V30 1588 H 138.125 -2.50879 -1.89491 0
M  V30 1589 N 141.898 -0.863906 -1.31812 0
M  V30 1590 C 142.848 -0.286898 -2.26188 0
M  V30 1591 C 143.832 0.572577 -1.50367 0
M  V30 1592 O 145.024 0.420447 -1.71934 0
M  V30 1593 C 142.153 0.515849 -3.39402 0
M  V30 1594 C 141.239 -0.356531 -4.22599 0
M  V30 1595 N 141.63 -1.44716 -4.84656 0
M  V30 1596 C 139.928 -0.147898 -4.45755 0
M  V30 1597 C 140.629 -1.98462 -5.46798 0
M  V30 1598 N 139.605 -1.28247 -5.28255 0
M  V30 1599 H 143.407 -1.12055 -2.717 0
M  V30 1600 H 140.921 -0.711012 -1.46008 0
M  V30 1601 H 142.918 0.945701 -4.06032 0
M  V30 1602 H 141.578 1.34718 -2.95434 0
M  V30 1603 H 142.589 -1.83008 -4.84488 0
M  V30 1604 H 139.266 0.647973 -4.12441 0
M  V30 1605 H 140.656 -2.89932 -6.06126 0
M  V30 1606 N 143.376 1.44774 -0.622745 0
M  V30 1607 C 144.306 2.33382 0.0741861 0
M  V30 1608 C 145.287 1.47719 0.843387 0
M  V30 1609 O 146.472 1.76458 0.810934 0
M  V30 1610 C 143.602 3.30663 1.06204 0
M  V30 1611 C 142.556 4.26079 0.405037 0
M  V30 1612 C 141.882 5.13165 1.5022 0
M  V30 1613 C 143.182 5.1781 -0.683414 0
M  V30 1614 H 144.876 2.91905 -0.665713 0
M  V30 1615 H 142.422 1.40363 -0.321587 0
M  V30 1616 H 144.375 3.9153 1.55827 0
M  V30 1617 H 143.099 2.70331 1.83272 0
M  V30 1618 H 141.758 3.66532 -0.0704683 0
M  V30 1619 H 141.406 4.49191 2.26355 0
M  V30 1620 H 141.106 5.77812 1.06803 0
M  V30 1621 H 142.63 5.76902 2.00041 0
M  V30 1622 H 144.044 5.72661 -0.270631 0
M  V30 1623 H 142.441 5.91015 -1.04023 0
M  V30 1624 H 143.511 4.59326 -1.55395 0
M  V30 1625 N 144.854 0.36279 1.53368 0
M  V30 1626 C 145.801 -0.485008 2.25646 0
M  V30 1627 C 146.771 -1.07982 1.2621 0
M  V30 1628 O 147.956 -1.11284 1.54986 0
M  V30 1629 C 145.096 -1.62023 3.04701 0
M  V30 1630 C 144.209 -1.05086 4.19024 0
M  V30 1631 C 143.344 -2.15496 4.85525 0
M  V30 1632 C 142.383 -1.5601 5.91884 0
M  V30 1633 N 141.52 -2.60241 6.52088 0
M  V30 1634 H 146.36 0.137864 2.97681 0
M  V30 1635 H 143.897 0.0798061 1.46883 0
M  V30 1636 H 145.855 -2.28887 3.48807 0
M  V30 1637 H 144.485 -2.2138 2.34927 0
M  V30 1638 H 143.537 -0.27259 3.79422 0
M  V30 1639 H 144.849 -0.575926 4.95464 0
M  V30 1640 H 144.003 -2.90186 5.32801 0
M  V30 1641 H 142.742 -2.66341 4.08551 0
M  V30 1642 H 141.747 -0.798338 5.43973 0
M  V30 1643 H 142.972 -1.05994 6.70777 0
M  V30 1644 H 140.918 -3.10304 5.77968 0
M  V30 1645 H 140.835 -2.17426 7.24059 0
M  V30 1646 H 142.103 -3.34641 7.04014 0
M  V30 1647 N 146.332 -1.57332 0.0918853 0
M  V30 1648 C 147.56 -1.98574 -0.581048 0
M  V30 1649 C 147.975 -0.970903 -1.61923 0
M  V30 1650 O 147.332 0.0399054 -1.82456 0
M  V30 1651 C 147.383 -3.39872 -1.23164 0
M  V30 1652 O 147.104 -4.37469 -0.234989 0
M  V30 1653 C 148.605 -3.96099 -1.99049 0
M  V30 1654 H 145.825 -0.65261 -0.156018 0
M  V30 1655 H 148.369 -2.0379 0.170225 0
M  V30 1656 H 146.524 -3.35679 -1.93386 0
M  V30 1657 H 146.938 -5.19751 -0.70418 0
M  V30 1658 H 148.412 -4.97127 -2.39934 0
M  V30 1659 H 148.889 -3.3374 -2.85507 0
M  V30 1660 H 149.495 -4.03755 -1.3365 0
M  V30 1661 N 147.81 0.181792 -1.56548 0
M  V30 1662 C 149.056 0.901431 -1.81665 0
M  V30 1663 C 149.389 1.82347 -0.668075 0
M  V30 1664 O 148.664 1.91669 0.330615 0
M  V30 1665 C 148.947 1.70618 -3.17115 0
M  V30 1666 C 148.8 0.807964 -4.42484 0
M  V30 1667 C 150.119 2.67605 -3.49393 0
M  V30 1668 H 147.238 0.32627 -0.660846 0
M  V30 1669 H 149.88 0.168134 -1.89255 0
M  V30 1670 H 148.03 2.33133 -3.10775 0
M  V30 1671 H 149.702 0.19649 -4.60881 0
M  V30 1672 H 147.945 0.115411 -4.33646 0
M  V30 1673 H 148.616 1.40632 -5.33785 0
M  V30 1674 H 151.092 2.15218 -3.56118 0
M  V30 1675 H 149.968 3.20985 -4.45264 0
M  V30 1676 H 150.229 3.47298 -2.73563 0
M  V30 1677 N 149.288 1.51039 0.449983 0
M  V30 1678 C 150.218 1.74379 1.55288 0
M  V30 1679 C 151.199 0.593236 1.5942 0
M  V30 1680 O 152.384 0.834625 1.7535 0
M  V30 1681 C 149.514 1.85728 2.93466 0
M  V30 1682 C 148.468 3.01078 3.04197 0
M  V30 1683 C 147.794 2.97595 4.44231 0
M  V30 1684 C 149.094 4.41254 2.7945 0
M  V30 1685 H 150.788 2.66725 1.36008 0
M  V30 1686 H 148.334 1.2835 0.652864 0
M  V30 1687 H 150.287 2.0064 3.70569 0
M  V30 1688 H 149.011 0.900207 3.13949 0
M  V30 1689 H 147.67 2.85851 2.29531 0
M  V30 1690 H 147.318 1.99691 4.61663 0
M  V30 1691 H 147.018 3.75046 4.52343 0
M  V30 1692 H 148.542 3.14583 5.23326 0
M  V30 1693 H 149.956 4.56897 3.46292 0
M  V30 1694 H 148.353 5.20315 2.98985 0
M  V30 1695 H 149.423 4.52164 1.75144 0
M  V30 1696 N 150.766 -0.704594 1.40972 0
M  V30 1697 C 151.676 -1.84856 1.44448 0
M  V30 1698 C 152.692 -1.70726 0.335961 0
M  V30 1699 O 153.868 -1.92799 0.582276 0
M  V30 1700 C 150.933 -3.20758 1.31587 0
M  V30 1701 C 149.994 -3.47063 2.52677 0
M  V30 1702 C 149.227 -4.76481 2.4042 0
M  V30 1703 O 149.45 -5.52341 1.42391 0
M  V30 1704 O 148.384 -5.03367 3.30007 0
M  V30 1705 H 152.21 -1.8488 2.40942 0
M  V30 1706 H 149.795 -0.85647 1.22413 0
M  V30 1707 H 151.677 -4.01913 1.26665 0
M  V30 1708 H 150.352 -3.21438 0.382049 0
M  V30 1709 H 149.259 -2.65873 2.63177 0
M  V30 1710 H 150.592 -3.5119 3.44858 0
M  V30 1711 N 152.244 -1.26651 -0.937939 0
M  V30 1712 C 153.154 -1.10276 -2.07066 0
M  V30 1713 C 154.17 -0.0354197 -1.73964 0
M  V30 1714 O 155.346 -0.239816 -1.99967 0
M  V30 1715 C 152.411 -0.740887 -3.38691 0
M  V30 1716 C 151.472 -1.88799 -3.85556 0
M  V30 1717 C 150.705 -1.54329 -5.10899 0
M  V30 1718 O 150.928 -0.446494 -5.6865 0
M  V30 1719 O 149.862 -2.37911 -5.52885 0
M  V30 1720 H 153.688 -2.05309 -2.23789 0
M  V30 1721 H 151.273 -1.05743 -1.0554 0
M  V30 1722 H 153.155 -0.55195 -4.1777 0
M  V30 1723 H 151.83 0.180022 -3.23199 0
M  V30 1724 H 150.737 -2.13191 -3.07409 0
M  V30 1725 H 152.07 -2.78874 -4.05574 0
M  V30 1726 N 153.722 1.14298 -1.08507 0
M  V30 1727 C 154.669 2.19414 -0.715965 0
M  V30 1728 C 155.639 1.63399 0.298326 0
M  V30 1729 O 156.824 1.89929 0.182101 0
M  V30 1730 C 153.964 3.44845 -0.132534 0
M  V30 1731 C 153.077 4.15007 -1.19973 0
M  V30 1732 C 152.212 5.28024 -0.580048 0
M  V30 1733 C 151.251 5.9002 -1.62921 0
M  V30 1734 N 150.388 6.94485 -1.03125 0
M  V30 1735 H 155.228 2.50336 -1.61666 0
M  V30 1736 H 152.765 1.2293 -0.807882 0
M  V30 1737 H 154.723 4.16601 0.223454 0
M  V30 1738 H 153.353 3.14403 0.731467 0
M  V30 1739 H 152.405 3.41629 -1.67313 0
M  V30 1740 H 153.717 4.57178 -1.99473 0
M  V30 1741 H 152.871 6.06455 -0.172364 0
M  V30 1742 H 151.61 4.87076 0.246603 0
M  V30 1743 H 150.615 5.10291 -2.04654 0
M  V30 1744 H 151.84 6.33042 -2.45835 0
M  V30 1745 H 149.786 6.55612 -0.225711 0
M  V30 1746 H 149.703 7.35148 -1.76334 0
M  V30 1747 H 150.971 7.7679 -0.649458 0
M  V30 1748 N 155.201 0.870884 1.31352 0
M  V30 1749 C 156.131 0.343096 2.30966 0
M  V30 1750 C 157.112 -0.566507 1.60389 0
M  V30 1751 O 158.297 -0.483336 1.88089 0
M  V30 1752 C 155.427 -0.455487 3.443 0
M  V30 1753 C 154.381 0.361103 4.26474 0
M  V30 1754 C 153.707 -0.563221 5.31725 0
M  V30 1755 C 155.007 1.59566 4.97329 0
M  V30 1756 H 156.701 1.17548 2.75359 0
M  V30 1757 H 154.247 0.566686 1.32381 0
M  V30 1758 H 156.2 -0.83525 4.13039 0
M  V30 1759 H 154.924 -1.32139 2.98675 0
M  V30 1760 H 153.583 0.722825 3.59403 0
M  V30 1761 H 153.231 -1.42643 4.82351 0
M  V30 1762 H 152.931 -0.0207409 5.87596 0
M  V30 1763 H 154.455 -0.939808 6.03324 0
M  V30 1764 H 155.869 1.28728 5.58661 0
M  V30 1765 H 154.266 2.07728 5.63 0
M  V30 1766 H 155.336 2.34798 4.24262 0
M  V30 1767 N 156.679 -1.44442 0.630414 0
M  V30 1768 C 157.589 -2.34476 -0.0761693 0
M  V30 1769 C 158.605 -1.52576 -0.836449 0
M  V30 1770 O 159.781 -1.85307 -0.788874 0
M  V30 1771 C 156.846 -3.30545 -1.04599 0
M  V30 1772 C 155.907 -4.28352 -0.28516 0
M  V30 1773 C 155.14 -5.19831 -1.20878 0
M  V30 1774 O 155.363 -5.15223 -2.44747 0
M  V30 1775 O 154.297 -5.97892 -0.693491 0
M  V30 1776 H 158.123 -2.96345 0.664324 0
M  V30 1777 H 155.708 -1.44203 0.39061 0
M  V30 1778 H 157.59 -3.89681 -1.60396 0
M  V30 1779 H 156.265 -2.7121 -1.76711 0
M  V30 1780 H 155.172 -3.72764 0.315837 0
M  V30 1781 H 156.505 -4.90605 0.395924 0
M  V30 1782 N 158.157 -0.370918 -1.53173 0
M  V30 1783 C 159.104 0.473035 -2.259 0
M  V30 1784 C 160.074 1.07311 -1.26781 0
M  V30 1785 O 161.259 1.1046 -1.55574 0
M  V30 1786 C 158.399 1.60405 -3.05556 0
M  V30 1787 C 157.512 1.02863 -4.19575 0
M  V30 1788 C 156.647 2.12918 -4.86661 0
M  V30 1789 C 155.686 1.52869 -5.92704 0
M  V30 1790 N 154.823 2.56779 -6.53459 0
M  V30 1791 H 159.663 -0.153649 -2.97604 0
M  V30 1792 H 157.2 -0.0875946 -1.46839 0
M  V30 1793 H 159.158 2.27034 -3.50016 0
M  V30 1794 H 157.788 2.20131 -2.36097 0
M  V30 1795 H 156.84 0.252465 -3.79561 0
M  V30 1796 H 158.152 0.549642 -4.95762 0
M  V30 1797 H 157.306 2.87356 -5.34333 0
M  V30 1798 H 156.045 2.6417 -4.09958 0
M  V30 1799 H 155.05 0.769479 -5.44389 0
M  V30 1800 H 156.275 1.02435 -6.7133 0
M  V30 1801 H 154.221 3.07235 -5.79606 0
M  V30 1802 H 154.138 2.13583 -7.25202 0
M  V30 1803 H 155.406 3.30903 -7.05779 0
M  V30 1804 N 159.635 1.57281 -0.100228 0
M  V30 1805 C 160.545 2.17833 0.870965 0
M  V30 1806 C 161.561 1.14921 1.30649 0
M  V30 1807 O 162.737 1.47313 1.37335 0
M  V30 1808 C 159.802 2.75085 2.1102 0
M  V30 1809 C 158.863 3.9297 1.72838 0
M  V30 1810 C 158.096 4.47482 2.90854 0
M  V30 1811 O 158.319 4.00922 4.05731 0
M  V30 1812 O 157.253 5.38433 2.69023 0
M  V30 1813 H 161.079 3.0124 0.38575 0
M  V30 1814 H 158.664 1.48881 0.124397 0
M  V30 1815 H 160.546 3.11656 2.83634 0
M  V30 1816 H 159.221 1.94721 2.58584 0
M  V30 1817 H 158.128 3.61201 0.973883 0
M  V30 1818 H 159.461 4.74713 1.30033 0
M  V30 1819 N 161.113 -0.173488 1.56642 0
M  V30 1820 C 162.39 -0.917617 1.7274 0
M  V30 1821 C 162.77 -2.00484 0.661027 0
M  V30 1822 O 162.118 -2.26184 -0.32453 0
M  V30 1823 C 162.328 -1.48433 3.15862 0
M  V30 1824 C 163.676 -1.95809 3.76754 0
M  V30 1825 O 164.7 -1.58231 3.19126 0
M  V30 1826 O 163.559 -2.65024 4.77938 0
M  V30 1827 H 160.653 -0.431772 0.705338 0
M  V30 1828 H 163.199 -0.161487 1.6893 0
M  V30 1829 H 161.971 -0.701715 3.84957 0
M  V30 1830 H 161.594 -2.30471 3.23989 0
M  V30 1831 N 162.591 -1.51276 -0.441967 0
M  V30 1832 C 163.838 -1.63715 -1.19179 0
M  V30 1833 C 164.166 -0.351175 -1.91303 0
M  V30 1834 O 163.421 0.664524 -1.84072 0
M  V30 1835 C 163.72 -2.78746 -2.23686 0
M  V30 1836 C 163.386 -4.18189 -1.68607 0
M  V30 1837 C 162.048 -4.56125 -1.53308 0
M  V30 1838 C 164.4 -5.05222 -1.28062 0
M  V30 1839 C 161.728 -5.78804 -0.959317 0
M  V30 1840 C 164.08 -6.28476 -0.721162 0
M  V30 1841 C 162.744 -6.65188 -0.55504 0
M  V30 1842 H 162.014 -0.599076 -0.436106 0
M  V30 1843 H 164.661 -1.85296 -0.48351 0
M  V30 1844 H 162.966 -2.51369 -3.00535 0
M  V30 1845 H 164.663 -2.8557 -2.81515 0
M  V30 1846 H 161.253 -3.88277 -1.8149 0
M  V30 1847 H 165.437 -4.76524 -1.38704 0
M  V30 1848 H 160.693 -6.05899 -0.81833 0
M  V30 1849 H 164.867 -6.95259 -0.398458 0
M  V30 1850 H 162.494 -7.60123 -0.108311 0
M  V30 1851 N 164.069 0.697108 -1.41344 0
M  V30 1852 C 165.297 1.48593 -1.43972 0
M  V30 1853 C 165.712 1.88747 -0.0445612 0
M  V30 1854 O 165.069 1.56682 0.935785 0
M  V30 1855 C 165.12 2.74946 -2.34706 0
M  V30 1856 O 164.841 2.36484 -3.68791 0
M  V30 1857 C 166.342 3.687 -2.46121 0
M  V30 1858 H 163.562 0.457964 -0.490418 0
M  V30 1859 H 166.106 0.858429 -1.8561 0
M  V30 1860 H 164.261 3.33937 -1.9638 0
M  V30 1861 H 164.675 3.17918 -4.17167 0
M  V30 1862 H 166.149 4.54145 -3.13777 0
M  V30 1863 H 166.626 4.13081 -1.49199 0
M  V30 1864 H 167.232 3.15613 -2.85076 0
M  V30 1865 N 165.547 1.27147 0.931209 0
M  V30 1866 C 166.963 1.04475 1.20653 0
M  V30 1867 C 167.163 -0.223885 2.00252 0
M  V30 1868 O 166.219 -0.930332 2.34736 0
M  V30 1869 C 167.532 2.28209 1.95809 0
M  V30 1870 C 169.08 2.33211 2.08762 0
M  V30 1871 C 169.555 3.56665 2.87323 0
M  V30 1872 N 171.046 3.57201 2.94892 0
M  V30 1873 C 171.781 4.49395 3.56134 0
M  V30 1874 N 171.277 5.51889 4.18796 0
M  V30 1875 N 173.07 4.37026 3.53504 0
M  V30 1876 H 165.221 2.08612 0.399333 0
M  V30 1877 H 167.484 0.917312 0.239253 0
M  V30 1878 H 167.19 3.20538 1.44736 0
M  V30 1879 H 167.064 2.33247 2.96438 0
M  V30 1880 H 169.451 1.41391 2.59023 0
M  V30 1881 H 169.532 2.32178 1.07364 0
M  V30 1882 H 169.176 4.4882 2.37746 0
M  V30 1883 H 169.106 3.54948 3.88998 0
M  V30 1884 H 171.597 2.83074 2.50354 0
M  V30 1885 H 171.91 6.18409 4.63454 0
M  V30 1886 H 170.255 5.55735 4.17353 0
M  V30 1887 H 173.446 3.56166 3.03749 0
M  V30 1888 H 173.619 5.09067 4.00942 0
M  V30 1889 N 167.025 -1.13721 1.09112 0
M  V30 1890 C 168.273 -1.84559 0.823562 0
M  V30 1891 C 168.594 -1.83754 -0.652658 0
M  V30 1892 O 167.864 -1.29102 -1.47342 0
M  V30 1893 H 166.444 -0.683376 0.301673 0
M  V30 1894 H 169.106 -1.37771 1.37859 0
M  V30 1895 H 168.202 -2.8917 1.17419 0
M  V30 1896 N 168.503 -0.877838 -1.30888 0
M  V30 1897 C 169.45 -0.337538 -2.28318 0
M  V30 1898 C 170.42 0.568346 -1.56074 0
M  V30 1899 O 171.605 0.498298 -1.84178 0
M  V30 1900 C 168.745 0.448142 -3.42178 0
M  V30 1901 C 167.858 -0.48615 -4.29256 0
M  V30 1902 C 166.993 0.314427 -5.30269 0
M  V30 1903 C 166.032 -0.615791 -6.08995 0
M  V30 1904 N 165.169 0.14902 -7.01942 0
M  V30 1905 H 170.009 -1.17356 -2.73919 0
M  V30 1906 H 167.546 -0.590094 -1.34745 0
M  V30 1907 H 169.504 0.919517 -4.06941 0
M  V30 1908 H 168.134 1.24879 -2.97666 0
M  V30 1909 H 167.186 -1.076 -3.64865 0
M  V30 1910 H 168.498 -1.19909 -4.84173 0
M  V30 1911 H 167.652 0.847969 -6.00745 0
M  V30 1912 H 166.391 1.06062 -4.76027 0
M  V30 1913 H 165.396 -1.16102 -5.37401 0
M  V30 1914 H 166.621 -1.36097 -6.65323 0
M  V30 1915 H 164.567 0.877884 -6.50099 0
M  V30 1916 H 164.484 -0.504433 -7.54315 0
M  V30 1917 H 165.752 0.663537 -7.76671 0
M  V30 1918 N 169.982 1.44106 -0.638065 0
M  V30 1919 C 170.912 2.33448 0.0494287 0
M  V30 1920 C 171.893 1.48606 0.827672 0
M  V30 1921 O 173.078 1.77308 0.792173 0
M  V30 1922 C 170.208 3.31771 1.02691 0
M  V30 1923 C 169.162 4.26485 0.359823 0
M  V30 1924 C 168.488 5.14729 1.44769 0
M  V30 1925 C 169.788 5.17056 -0.738296 0
M  V30 1926 H 171.482 2.91183 -0.696636 0
M  V30 1927 H 169.028 1.40014 -0.336456 0
M  V30 1928 H 170.981 3.93161 1.51666 0
M  V30 1929 H 169.705 2.7226 1.80395 0
M  V30 1930 H 168.364 3.66437 -0.10934 0
M  V30 1931 H 168.012 4.51566 2.21578 0
M  V30 1932 H 167.712 5.78913 1.00668 0
M  V30 1933 H 169.236 5.78991 1.93911 0
M  V30 1934 H 170.65 5.72342 -0.331354 0
M  V30 1935 H 169.047 5.89879 -1.10286 0
M  V30 1936 H 170.117 4.57652 -1.60258 0
M  V30 1937 N 171.46 0.379036 1.52974 0
M  V30 1938 C 172.393 -0.504932 2.22544 0
M  V30 1939 C 173.371 -1.0723 1.22231 0
M  V30 1940 O 174.555 -1.12589 1.51182 0
M  V30 1941 C 171.682 -1.69794 2.93066 0
M  V30 1942 C 170.728 -1.25678 4.07563 0
M  V30 1943 S 171.561 -0.246852 5.34931 0
M  V30 1944 C 172.717 -1.44588 6.08971 0
M  V30 1945 H 172.95 0.0858666 2.97176 0
M  V30 1946 H 170.483 0.163183 1.53535 0
M  V30 1947 H 172.441 -2.38219 3.34308 0
M  V30 1948 H 171.102 -2.26002 2.18133 0
M  V30 1949 H 170.295 -2.14725 4.5597 0
M  V30 1950 H 169.897 -0.651584 3.6828 0
M  V30 1951 H 172.189 -2.37469 6.34519 0
M  V30 1952 H 173.132 -1.00292 7.00962 0
M  V30 1953 H 173.54 -1.65804 5.39601 0
M  V30 1954 N 172.938 -1.57226 0.108567 0
M  V30 1955 C 174.163 -1.99604 -0.563303 0
M  V30 1956 C 174.588 -0.987563 -1.6009 0
M  V30 1957 O 173.946 0.0421687 -1.81251 0
M  V30 1958 C 173.994 -3.40902 -1.17552 0
M  V30 1959 O 173.098 -3.42896 -2.2912 0
M  V30 1960 H 172.439 -0.648704 -0.1417 0
M  V30 1961 H 174.969 -2.03679 0.193961 0
M  V30 1962 H 174.979 -3.78886 -1.51357 0
M  V30 1963 H 173.654 -4.1382 -0.415445 0
M  V30 1964 H 172.231 -3.1672 -1.96832 0
M  V30 1965 N 174.416 0.165178 -1.56732 0
M  V30 1966 C 175.641 0.900253 -1.86843 0
M  V30 1967 C 176.066 1.74766 -0.695596 0
M  V30 1968 O 175.424 1.77786 0.35522 0
M  V30 1969 C 175.472 1.74777 -3.15413 0
M  V30 1970 O 174.576 2.85007 -2.98068 0
M  V30 1971 H 173.917 0.251832 -0.614391 0
M  V30 1972 H 176.447 0.161468 -2.03962 0
M  V30 1973 H 176.457 2.14646 -3.46974 0
M  V30 1974 H 175.132 1.12537 -4.00385 0
M  V30 1975 H 173.709 2.48676 -2.77875 0
M  V30 1976 N 175.894 1.51508 0.433938 0
M  V30 1977 C 176.824 1.76016 1.53429 0
M  V30 1978 C 177.805 0.610112 1.58782 0
M  V30 1979 O 178.99 0.853177 1.74455 0
M  V30 1980 C 176.12 1.88831 2.9148 0
M  V30 1981 C 175.074 3.04288 3.00987 0
M  V30 1982 C 174.4 3.0229 4.4105 0
M  V30 1983 C 175.7 4.44193 2.74754 0
M  V30 1984 H 177.394 2.68152 1.33171 0
M  V30 1985 H 174.94 1.29035 0.639214 0
M  V30 1986 H 176.893 2.04559 3.6842 0
M  V30 1987 H 175.617 0.933455 3.12976 0
M  V30 1988 H 174.276 2.8827 2.26486 0
M  V30 1989 H 173.924 2.04576 4.59519 0
M  V30 1990 H 173.624 3.79822 4.4834 0
M  V30 1991 H 175.148 3.20116 5.1996 0
M  V30 1992 H 176.562 4.60544 3.41426 0
M  V30 1993 H 174.959 5.23457 2.9345 0
M  V30 1994 H 176.029 4.53996 1.70339 0
M  V30 1995 N 177.372 -0.689602 1.41712 0
M  V30 1996 C 178.322 -1.79571 1.40493 0
M  V30 1997 C 179.306 -1.58473 0.278409 0
M  V30 1998 O 180.498 -1.69204 0.519532 0
M  V30 1999 C 177.627 -3.17923 1.29536 0
M  V30 2000 C 176.713 -3.44695 2.47075 0
M  V30 2001 N 177.104 -3.42132 3.72531 0
M  V30 2002 C 175.402 -3.75269 2.41017 0
M  V30 2003 C 176.103 -3.67976 4.50521 0
M  V30 2004 N 175.079 -3.88014 3.80718 0
M  V30 2005 H 178.881 -1.75961 2.35404 0
M  V30 2006 H 176.395 -0.889839 1.35851 0
M  V30 2007 H 178.392 -3.97167 1.26745 0
M  V30 2008 H 177.052 -3.22741 0.356153 0
M  V30 2009 H 178.063 -3.22375 4.05333 0
M  V30 2010 H 174.74 -3.87421 1.55599 0
M  V30 2011 H 176.13 -3.7208 5.59469 0
M  V30 2012 N 178.85 -1.27639 -0.924453 0
M  V30 2013 C 179.78 -1.13166 -2.04244 0
M  V30 2014 C 180.761 -0.032256 -1.70069 0
M  V30 2015 O 181.946 -0.207328 -1.9309 0
M  V30 2016 C 179.076 -0.781496 -3.38393 0
M  V30 2017 C 178.03 -1.83449 -3.86692 0
M  V30 2018 C 177.356 -1.33822 -5.17683 0
M  V30 2019 C 178.656 -3.23917 -4.09726 0
M  V30 2020 H 180.35 -2.06689 -2.1661 0
M  V30 2021 H 177.896 -0.995136 -1.04082 0
M  V30 2022 H 179.849 -0.667057 -4.16087 0
M  V30 2023 H 178.573 0.189439 -3.2605 0
M  V30 2024 H 177.232 -1.93789 -3.11193 0
M  V30 2025 H 176.88 -0.35665 -5.01734 0
M  V30 2026 H 176.58 -2.04224 -5.50968 0
M  V30 2027 H 178.104 -1.23679 -5.97943 0
M  V30 2028 H 179.518 -3.16559 -4.77978 0
M  V30 2029 H 177.915 -3.92059 -4.54324 0
M  V30 2030 H 178.985 -3.68729 -3.14908 0
M  V30 2031 N 180.328 1.1314 -1.09713 0
M  V30 2032 C 181.275 2.18642 -0.739196 0
M  V30 2033 C 182.245 1.63706 0.280978 0
M  V30 2034 O 183.43 1.90111 0.161946 0
M  V30 2035 C 180.57 3.44685 -0.169102 0
M  V30 2036 C 179.683 4.13711 -1.24367 0
M  V30 2037 C 178.818 5.27379 -0.636019 0
M  V30 2038 C 177.857 5.88259 -1.69169 0
M  V30 2039 N 176.994 6.93352 -1.10485 0
M  V30 2040 H 181.834 2.48607 -1.64312 0
M  V30 2041 H 179.371 1.22066 -0.820875 0
M  V30 2042 H 181.329 4.16815 0.179256 0
M  V30 2043 H 179.959 3.15161 0.698079 0
M  V30 2044 H 179.011 3.39835 -1.70927 0
M  V30 2045 H 180.323 4.55037 -2.04311 0
M  V30 2046 H 179.477 6.06238 -0.236677 0
M  V30 2047 H 178.216 4.8731 0.194928 0
M  V30 2048 H 177.221 5.08092 -2.10055 0
M  V30 2049 H 178.446 6.30399 -2.52536 0
M  V30 2050 H 176.392 6.55335 -0.295234 0
M  V30 2051 H 176.309 7.33236 -1.84121 0
M  V30 2052 H 177.577 7.76057 -0.73181 0
M  V30 2053 N 181.806 0.884767 1.30421 0
M  V30 2054 C 183.222 0.57874 1.48737 0
M  V30 2055 C 183.422 -0.883567 1.81095 0
M  V30 2056 O 182.478 -1.6648 1.89844 0
M  V30 2057 C 183.791 1.49171 2.61091 0
M  V30 2058 C 185.339 1.49532 2.74971 0
M  V30 2059 C 185.814 2.39421 3.90438 0
M  V30 2060 N 187.305 2.37383 3.97748 0
M  V30 2061 C 188.04 3.03647 4.86401 0
M  V30 2062 N 187.536 3.79136 5.79852 0
M  V30 2063 N 189.329 2.9288 4.79768 0
M  V30 2064 H 181.48 1.83075 1.0769 0
M  V30 2065 H 183.743 0.783637 0.533495 0
M  V30 2066 H 183.449 2.53291 2.44001 0
M  V30 2067 H 183.323 1.20113 3.57565 0
M  V30 2068 H 185.71 0.46163 2.91467 0
M  V30 2069 H 185.791 1.8262 1.79119 0
M  V30 2070 H 185.435 3.42874 3.74699 0
M  V30 2071 H 185.365 2.03649 4.85628 0
M  V30 2072 H 187.856 1.82525 3.30897 0
M  V30 2073 H 188.169 4.26789 6.4426 0
M  V30 2074 H 186.514 3.83243 5.79784 0
M  V30 2075 H 189.705 2.33433 4.05742 0
M  V30 2076 H 189.878 3.448 5.4865 0
M  V30 2077 N 183.284 -1.43765 0.645699 0
M  V30 2078 C 184.514 -2.05953 0.163318 0
M  V30 2079 C 184.922 -1.48432 -1.17322 0
M  V30 2080 O 184.265 -0.607295 -1.73371 0
M  V30 2081 C 184.327 -3.59499 -0.0103065 0
M  V30 2082 C 183.991 -4.39563 1.25035 0
M  V30 2083 C 184.988 -4.72108 2.17739 0
M  V30 2084 C 182.673 -4.79697 1.48983 0
M  V30 2085 C 184.667 -5.43688 3.3269 0
M  V30 2086 C 182.354 -5.51023 2.64229 0
M  V30 2087 C 183.352 -5.8294 3.55908 0
M  V30 2088 O 183.04 -6.5281 4.69142 0
M  V30 2089 H 182.772 -0.670798 0.0836986 0
M  V30 2090 H 185.326 -1.85384 0.884407 0
M  V30 2091 H 183.556 -3.78613 -0.78669 0
M  V30 2092 H 185.245 -4.03408 -0.449087 0
M  V30 2093 H 186.011 -4.41627 2.00476 0
M  V30 2094 H 181.89 -4.54266 0.785078 0
M  V30 2095 H 185.434 -5.68517 4.04269 0
M  V30 2096 H 181.331 -5.8092 2.81429 0
M  V30 2097 H 182.099 -6.71288 4.6831 0
M  V30 2098 N 184.763 -0.387143 -1.52771 0
M  V30 2099 C 185.993 0.195585 -2.05672 0
M  V30 2100 C 186.401 1.41241 -1.25887 0
M  V30 2101 O 185.744 1.81265 -0.298081 0
M  V30 2102 C 185.806 0.632327 -3.53895 0
M  V30 2103 C 185.47 -0.470739 -4.54569 0
M  V30 2104 C 186.467 -1.32746 -5.02667 0
M  V30 2105 C 184.152 -0.637151 -4.98243 0
M  V30 2106 C 186.146 -2.33574 -5.93061 0
M  V30 2107 C 183.833 -1.64877 -5.88438 0
M  V30 2108 C 184.831 -2.49649 -6.35739 0
M  V30 2109 O 184.519 -3.49082 -7.24153 0
M  V30 2110 H 184.251 0.033658 -0.675162 0
M  V30 2111 H 186.805 -0.550221 -1.97893 0
M  V30 2112 H 185.035 1.43008 -3.59285 0
M  V30 2113 H 186.724 1.14048 -3.89548 0
M  V30 2114 H 187.49 -1.21019 -4.69659 0
M  V30 2115 H 183.369 0.0129567 -4.60998 0
M  V30 2116 H 186.913 -2.99777 -6.29904 0
M  V30 2117 H 182.81 -1.76643 -6.2086 0
M  V30 2118 H 183.578 -3.45065 -7.42208 0
M  V30 2119 N 186.241 1.57166 -0.116904 0
M  V30 2120 C 187.489 1.94737 0.540533 0
M  V30 2121 C 187.81 1.00096 1.67349 0
M  V30 2122 O 187.08 0.0568854 1.95817 0
M  V30 2123 H 185.66 0.718981 0.202669 0
M  V30 2124 H 188.322 1.94017 -0.185353 0
M  V30 2125 H 187.418 2.97719 0.936483 0
M  V30 2126 N 187.719 -0.156864 1.56817 0
M  V30 2127 C 189.135 -0.50916 1.5126 0
M  V30 2128 C 189.335 -1.83897 0.823658 0
M  V30 2129 O 188.391 -2.49469 0.390055 0
M  V30 2130 C 189.704 -0.52857 2.96018 0
M  V30 2131 C 191.252 -0.614771 3.06903 0
M  V30 2132 C 191.727 -0.664938 4.53147 0
M  V30 2133 N 193.218 -0.727433 4.57452 0
M  V30 2134 C 193.953 -0.787067 5.67973 0
M  V30 2135 N 193.449 -0.806649 6.88088 0
M  V30 2136 N 195.242 -0.827195 5.5598 0
M  V30 2137 H 187.393 0.714935 2.00006 0
M  V30 2138 H 189.656 0.259526 0.911784 0
M  V30 2139 H 189.362 0.380154 3.49639 0
M  V30 2140 H 189.236 -1.36998 3.51442 0
M  V30 2141 H 191.623 -1.51392 2.53307 0
M  V30 2142 H 191.704 0.253597 2.5454 0
M  V30 2143 H 191.348 0.230011 5.07379 0
M  V30 2144 H 191.278 -1.54966 5.03282 0
M  V30 2145 H 193.769 -0.719998 3.70978 0
M  V30 2146 H 194.082 -0.853727 7.6807 0
M  V30 2147 H 192.427 -0.774687 6.90669 0
M  V30 2148 H 195.618 -0.808998 4.61056 0
M  V30 2149 H 195.791 -0.870206 6.4213 0
M  V30 2150 N 189.197 -1.51736 -0.425897 0
M  V30 2151 C 190.446 -1.64201 -1.17136 0
M  V30 2152 C 190.759 -0.369705 -1.92074 0
M  V30 2153 O 191.965 -0.373898 -2.68913 0
M  V30 2154 C 190.421 -2.90035 -2.13091 0
M  V30 2155 C 190.029 -4.24312 -1.43747 0
M  V30 2156 C 191.773 -3.1186 -2.87999 0
M  V30 2157 C 189.68 -5.41285 -2.38253 0
M  V30 2158 H 188.61 -0.611624 -0.440944 0
M  V30 2159 H 191.261 -1.78212 -0.437328 0
M  V30 2160 H 189.643 -2.69684 -2.89977 0
M  V30 2161 H 190.817 -4.55086 -0.723408 0
M  V30 2162 H 189.132 -4.08456 -0.809465 0
M  V30 2163 H 191.729 -3.96427 -3.58817 0
M  V30 2164 H 192.072 -2.25403 -3.49999 0
M  V30 2165 H 192.605 -3.32605 -2.18217 0
M  V30 2166 H 189.344 -6.30037 -1.80925 0
M  V30 2167 H 188.864 -5.14872 -3.0768 0
M  V30 2168 H 190.543 -5.73694 -2.99139 0
M  V30 2169 N 190.675 0.682077 -1.42076 0
M  V30 2170 C 191.605 1.80796 -1.47767 0
M  V30 2171 C 192.586 1.6677 -0.334954 0
M  V30 2172 O 193.771 1.863 -0.548264 0
M  V30 2173 C 190.901 3.19038 -1.37229 0
M  V30 2174 C 189.855 3.47789 -2.49453 0
M  V30 2175 C 189.181 4.8553 -2.23975 0
M  V30 2176 C 190.481 3.45411 -3.91776 0
M  V30 2177 H 192.175 1.7629 -2.41997 0
M  V30 2178 H 189.721 0.846721 -1.16476 0
M  V30 2179 H 191.674 3.97528 -1.39821 0
M  V30 2180 H 190.398 3.24204 -0.394907 0
M  V30 2181 H 189.057 2.71657 -2.46166 0
M  V30 2182 H 188.705 4.87337 -1.24547 0
M  V30 2183 H 188.405 5.0573 -2.99184 0
M  V30 2184 H 189.929 5.66312 -2.28304 0
M  V30 2185 H 191.343 4.13882 -3.96705 0
M  V30 2186 H 189.74 3.77145 -4.66778 0
M  V30 2187 H 190.81 2.44122 -4.18966 0
M  V30 2188 N 192.153 1.28127 0.917671 0
M  V30 2189 C 193.103 1.08361 2.00604 0
M  V30 2190 C 194.087 0.00847518 1.60898 0
M  V30 2191 O 195.279 0.228167 1.75523 0
M  V30 2192 C 192.408 0.743376 3.35155 0
M  V30 2193 C 191.494 1.85716 3.81275 0
M  V30 2194 N 191.885 3.09822 3.99805 0
M  V30 2195 C 190.183 1.74612 4.10398 0
M  V30 2196 C 190.884 3.82368 4.38372 0
M  V30 2197 N 189.86 3.10192 4.4641 0
M  V30 2198 H 193.662 2.02531 2.12975 0
M  V30 2199 H 191.176 1.18989 1.10523 0
M  V30 2200 H 193.173 0.582859 4.12805 0
M  V30 2201 H 191.833 -0.190595 3.2414 0
M  V30 2202 H 192.844 3.45475 3.85833 0
M  V30 2203 H 189.521 0.883657 4.08041 0
M  V30 2204 H 190.911 4.89082 4.60704 0
M  V30 2205 N 193.631 -1.12557 1.10312 0
M  V30 2206 C 194.861 -1.87592 0.865617 0
M  V30 2207 C 195.269 -1.79851 -0.587389 0
M  V30 2208 O 194.612 -1.16949 -1.41664 0
M  V30 2209 C 194.674 -3.37665 1.23381 0
M  V30 2210 C 194.338 -3.69181 2.69359 0
M  V30 2211 C 195.335 -3.67652 3.67597 0
M  V30 2212 C 193.02 -3.98555 3.05711 0
M  V30 2213 C 195.014 -3.95053 5.00212 0
M  V30 2214 C 192.701 -4.25616 4.38514 0
M  V30 2215 C 193.699 -4.23851 5.35574 0
M  V30 2216 O 193.387 -4.50242 6.65986 0
M  V30 2217 H 193.119 -0.600442 0.310557 0
M  V30 2218 H 195.673 -1.4335 1.47105 0
M  V30 2219 H 193.903 -3.82454 0.571467 0
M  V30 2220 H 195.592 -3.94041 0.973994 0
M  V30 2221 H 196.358 -3.45024 3.40857 0
M  V30 2222 H 192.237 -3.99071 2.30789 0
M  V30 2223 H 195.781 -3.93591 5.75962 0
M  V30 2224 H 191.678 -4.47718 4.64994 0
M  V30 2225 H 192.446 -4.67867 6.71597 0
M  V30 2226 N 195.109 -0.891671 -1.2995 0
M  V30 2227 C 196.039 -0.379797 -2.30391 0
M  V30 2228 C 197.02 0.540919 -1.6127 0
M  V30 2229 O 198.205 0.453352 -1.88834 0
M  V30 2230 C 195.335 0.400654 -3.44981 0
M  V30 2231 C 194.289 -0.428905 -4.25846 0
M  V30 2232 C 193.615 0.478557 -5.32554 0
M  V30 2233 C 194.915 -1.67458 -4.94727 0
M  V30 2234 H 196.609 -1.21914 -2.73454 0
M  V30 2235 H 194.155 -0.587675 -1.31462 0
M  V30 2236 H 196.108 0.769434 -4.14316 0
M  V30 2237 H 194.832 1.27371 -3.0074 0
M  V30 2238 H 193.491 -0.779911 -3.58208 0
M  V30 2239 H 193.139 1.34951 -4.84559 0
M  V30 2240 H 192.839 -0.0727433 -5.87555 0
M  V30 2241 H 194.363 0.843705 -6.04743 0
M  V30 2242 H 195.777 -1.376 -5.56542 0
M  V30 2243 H 194.174 -2.16659 -5.59624 0
M  V30 2244 H 195.244 -2.41518 -4.20473 0
M  V30 2245 N 196.587 1.43421 -0.653314 0
M  V30 2246 C 197.534 2.30768 0.0382271 0
M  V30 2247 C 198.504 1.44755 0.814576 0
M  V30 2248 O 199.689 1.73624 0.791162 0
M  V30 2249 C 196.829 3.30336 0.998599 0
M  V30 2250 C 195.942 4.31448 0.218342 0
M  V30 2251 C 195.077 5.18098 1.17252 0
M  V30 2252 C 194.116 6.10902 0.382702 0
M  V30 2253 N 193.253 6.90176 1.28848 0
M  V30 2254 H 198.093 2.89357 -0.712511 0
M  V30 2255 H 195.63 1.42548 -0.363128 0
M  V30 2256 H 197.588 3.86572 1.56901 0
M  V30 2257 H 196.218 2.73397 1.71621 0
M  V30 2258 H 195.27 3.77506 -0.46836 0
M  V30 2259 H 196.582 4.97227 -0.395812 0
M  V30 2260 H 195.736 5.7896 1.81356 0
M  V30 2261 H 194.475 4.52444 1.82058 0
M  V30 2262 H 193.48 5.49128 -0.27169 0
M  V30 2263 H 194.705 6.78598 -0.260957 0
M  V30 2264 H 192.651 6.27171 1.92334 0
M  V30 2265 H 192.568 7.52478 0.728887 0
M  V30 2266 H 193.836 7.55543 1.91766 0
M  V30 2267 N 198.065 0.39524 1.52563 0
M  V30 2268 C 199.028 -0.425001 2.25225 0
M  V30 2269 C 200.028 -0.985266 1.27079 0
M  V30 2270 O 201.218 -0.866332 1.5113 0
M  V30 2271 C 198.35 -1.59686 3.01186 0
M  V30 2272 H 199.543 0.211233 2.99155 0
M  V30 2273 H 197.096 0.147472 1.55603 0
M  V30 2274 H 197.831 -2.27035 2.31572 0
M  V30 2275 H 197.616 -1.20176 3.73229 0
M  V30 2276 H 199.106 -2.17743 3.5634 0
M  V30 2277 N 199.544 -1.57102 0.125237 0
M  V30 2278 C 200.491 -2.15641 -0.822655 0
M  V30 2279 C 201.461 -1.08313 -1.25927 0
M  V30 2280 O 202.646 -1.36251 -1.33567 0
M  V30 2281 C 199.786 -2.76504 -2.06494 0
M  V30 2282 C 198.899 -3.98158 -1.67612 0
M  V30 2283 C 198.034 -4.47088 -2.86854 0
M  V30 2284 C 197.073 -5.6126 -2.44242 0
M  V30 2285 N 196.21 -6.04905 -3.56419 0
M  V30 2286 H 201.05 -2.96313 -0.316625 0
M  V30 2287 H 198.587 -1.46388 -0.144588 0
M  V30 2288 H 200.545 -3.09925 -2.79289 0
M  V30 2289 H 199.175 -1.98512 -2.54545 0
M  V30 2290 H 198.227 -3.70858 -0.846661 0
M  V30 2291 H 199.539 -4.80934 -1.32301 0
M  V30 2292 H 198.693 -4.82451 -3.67867 0
M  V30 2293 H 197.432 -3.63275 -3.25396 0
M  V30 2294 H 196.437 -5.25495 -1.61663 0
M  V30 2295 H 197.662 -6.46843 -2.0681 0
M  V30 2296 H 195.608 -5.24032 -3.94623 0
M  V30 2297 H 195.525 -6.82552 -3.25051 0
M  V30 2298 H 196.793 -6.44907 -4.37853 0
M  V30 2299 N 201.022 0.148545 -1.56898 0
M  V30 2300 C 201.932 1.20293 -2.01412 0
M  V30 2301 C 202.948 1.47107 -0.929273 0
M  V30 2302 O 204.124 1.58807 -1.23863 0
M  V30 2303 C 201.189 2.51682 -2.38447 0
M  V30 2304 C 200.25 2.32529 -3.60872 0
M  V30 2305 C 199.483 3.57653 -3.96132 0
M  V30 2306 O 199.706 4.63771 -3.32073 0
M  V30 2307 O 198.64 3.50408 -4.89385 0
M  V30 2308 H 202.466 0.855025 -2.91416 0
M  V30 2309 H 200.051 0.357151 -1.45068 0
M  V30 2310 H 201.933 3.29147 -2.63135 0
M  V30 2311 H 200.608 2.86006 -1.51599 0
M  V30 2312 H 199.515 1.53019 -3.41373 0
M  V30 2313 H 200.848 2.03121 -4.48333 0
M  V30 2314 N 202.5 1.5196 0.417844 0
M  V30 2315 C 203.73 1.69181 1.18581 0
M  V30 2316 C 204.138 0.397104 1.84986 0
M  V30 2317 O 203.481 -0.636011 1.72339 0
M  V30 2318 C 203.543 2.76497 2.29759 0
M  V30 2319 C 203.207 4.18514 1.83563 0
M  V30 2320 C 204.204 5.02648 1.32821 0
M  V30 2321 C 201.889 4.64708 1.90661 0
M  V30 2322 C 203.883 6.31044 0.897894 0
M  V30 2323 C 201.57 5.93096 1.47241 0
M  V30 2324 C 202.568 6.76093 0.968891 0
M  V30 2325 O 202.256 8.02078 0.540924 0
M  V30 2326 H 201.988 0.570457 0.362705 0
M  V30 2327 H 204.542 1.99249 0.498885 0
M  V30 2328 H 202.772 2.41786 3.01789 0
M  V30 2329 H 204.461 2.82403 2.91553 0
M  V30 2330 H 205.227 4.68154 1.26716 0
M  V30 2331 H 201.106 4.00216 2.28797 0
M  V30 2332 H 204.65 6.95776 0.504192 0
M  V30 2333 H 200.547 6.271 1.53022 0
M  V30 2334 H 201.315 8.15794 0.66502 0
M  V30 2335 N 203.978 -0.674533 1.42435 0
M  V30 2336 C 205.203 -1.46784 1.46524 0
M  V30 2337 C 205.628 -1.87938 0.078066 0
M  V30 2338 O 204.986 -1.56014 -0.92354 0
M  V30 2339 C 205.034 -2.69307 2.39805 0
M  V30 2340 O 204.138 -3.67587 1.86959 0
M  V30 2341 H 203.479 -0.440959 0.496439 0
M  V30 2342 H 206.009 -0.827326 1.87127 0
M  V30 2343 H 206.019 -3.17374 2.56393 0
M  V30 2344 H 204.694 -2.38692 3.40586 0
M  V30 2345 H 203.271 -3.2662 1.79927 0
M  V30 2346 N 205.456 -1.28612 -0.910864 0
M  V30 2347 C 206.406 -1.09423 -2.00026 0
M  V30 2348 C 207.39 -0.0170079 -1.60891 0
M  V30 2349 O 208.582 -0.237472 -1.754 0
M  V30 2350 C 205.711 -0.76114 -3.34756 0
M  V30 2351 C 204.797 -1.87735 -3.80285 0
M  V30 2352 N 205.188 -3.11938 -3.98156 0
M  V30 2353 C 203.486 -1.76786 -4.09467 0
M  V30 2354 C 204.187 -3.84687 -4.36338 0
M  V30 2355 N 203.163 -3.12555 -4.44759 0
M  V30 2356 H 206.965 -2.03658 -2.11898 0
M  V30 2357 H 204.479 -1.19573 -1.09891 0
M  V30 2358 H 206.476 -0.604743 -4.12491 0
M  V30 2359 H 205.136 0.173403 -3.24237 0
M  V30 2360 H 206.147 -3.47516 -3.83996 0
M  V30 2361 H 202.824 -0.905284 -4.07567 0
M  V30 2362 H 204.214 -4.91518 -4.58104 0
M  V30 2363 N 206.934 1.1197 -1.10907 0
M  V30 2364 C 208.174 1.85224 -0.864378 0
M  V30 2365 C 208.538 1.82411 0.599178 0
M  V30 2366 O 209.739 2.51057 0.960416 0
M  V30 2367 C 208.01 3.2868 -1.40371 0
M  V30 2368 S 209.569 4.1925 -1.29518 0
M  V30 2369 H 206.387 0.63878 -0.312219 0
M  V30 2370 H 208.989 1.3485 -1.41548 0
M  V30 2371 H 207.693 3.28289 -2.46281 0
M  V30 2372 H 207.224 3.84121 -0.849402 0
M  V30 2373 H 209.239 4.95539 -0.256059 0
M  V30 2374 N 208.412 0.89855 1.29475 0
M  V30 2375 C 209.375 0.380272 2.26023 0
M  V30 2376 C 210.375 -0.484891 1.53315 0
M  V30 2377 O 211.565 -0.290108 1.71767 0
M  V30 2378 C 208.697 -0.45651 3.3783 0
M  V30 2379 H 209.89 1.23295 2.73383 0
M  V30 2380 H 207.443 0.676589 1.40897 0
M  V30 2381 H 208.178 -1.32922 2.95808 0
M  V30 2382 H 207.963 0.163393 3.91759 0
M  V30 2383 H 209.453 -0.810466 4.0966 0
M  V30 2384 N 209.89 -1.43072 0.660911 0
M  V30 2385 C 211.136 -2.02545 0.186337 0
M  V30 2386 C 211.491 -1.51253 -1.18913 0
M  V30 2387 O 210.784 -0.699167 -1.78388 0
M  V30 2388 C 210.978 -3.57103 0.145563 0
M  V30 2389 C 210.807 -4.23393 1.51554 0
M  V30 2390 C 209.577 -4.59144 2.10984 0
M  V30 2391 C 211.775 -4.51897 2.45548 0
M  V30 2392 N 209.757 -5.10545 3.40907 0
M  V30 2393 C 211.128 -5.04698 3.6011 0
M  V30 2394 C 213.183 -4.33872 2.44253 0
M  V30 2395 C 211.886 -5.41371 4.73613 0
M  V30 2396 C 213.912 -4.71612 3.56842 0
M  V30 2397 C 213.274 -5.24553 4.70131 0
M  V30 2398 H 209.373 -0.773823 0.112792 0
M  V30 2399 H 211.957 -1.74137 0.870885 0
M  V30 2400 H 210.128 -3.85059 -0.508353 0
M  V30 2401 H 211.86 -4.03264 -0.340598 0
M  V30 2402 H 208.615 -4.4444 1.63615 0
M  V30 2403 H 209.039 -5.40689 4.07411 0
M  V30 2404 H 213.681 -3.92208 1.579 0
M  V30 2405 H 211.399 -5.81975 5.60652 0
M  V30 2406 H 214.985 -4.59354 3.57051 0
M  V30 2407 H 213.865 -5.53213 5.5581 0
M  V30 2408 N 211.368 -0.403325 -1.52352 0
M  V30 2409 C 212.596 0.174012 -2.06167 0
M  V30 2410 C 213.011 1.39347 -1.27388 0
M  V30 2411 O 212.368 1.79597 -0.324201 0
M  V30 2412 C 212.419 0.530223 -3.5759 0
M  V30 2413 O 212.14 -0.640806 -4.33388 0
M  V30 2414 C 213.641 1.16192 -4.27802 0
M  V30 2415 H 210.861 0.0229464 -0.670608 0
M  V30 2416 H 213.405 -0.572604 -1.9632 0
M  V30 2417 H 211.56 1.22673 -3.67464 0
M  V30 2418 H 211.974 -0.344851 -5.23365 0
M  V30 2419 H 213.448 1.36141 -5.34948 0
M  V30 2420 H 213.925 2.13335 -3.83907 0
M  V30 2421 H 214.531 0.505775 -4.22282 0
M  V30 2422 N 212.846 1.57033 -0.133567 0
M  V30 2423 C 214.095 1.94861 0.520768 0
M  V30 2424 C 214.408 1.02012 1.66892 0
M  V30 2425 O 215.614 1.29365 2.38699 0
M  V30 2426 C 214.07 3.46362 0.977809 0
M  V30 2427 C 213.678 4.47773 -0.142674 0
M  V30 2428 C 215.422 3.93083 1.60269 0
M  V30 2429 C 213.329 5.90468 0.331883 0
M  V30 2430 H 212.259 0.727453 0.198315 0
M  V30 2431 H 214.91 1.82227 -0.215759 0
M  V30 2432 H 213.292 3.54282 1.7692 0
M  V30 2433 H 214.466 4.51536 -0.919317 0
M  V30 2434 H 212.781 4.10891 -0.675124 0
M  V30 2435 H 215.378 4.97121 1.96914 0
M  V30 2436 H 215.721 3.33876 2.48662 0
M  V30 2437 H 216.254 3.88025 0.876453 0
M  V30 2438 H 212.993 6.53463 -0.516341 0
M  V30 2439 H 212.513 5.90094 1.07469 0
M  V30 2440 H 214.192 6.42179 0.788332 0
M  V30 2441 N 214.325 -0.140222 1.56975 0
M  V30 2442 C 215.571 -0.852949 1.83991 0
M  V30 2443 C 215.904 -1.80512 0.716187 0
M  V30 2444 O 215.179 -1.92479 -0.279681 0
M  V30 2445 C 215.462 -1.6215 3.21527 0
M  V30 2446 C 215.315 -0.690363 4.4447 0
M  V30 2447 C 216.634 -2.58247 3.56366 0
M  V30 2448 H 213.753 -0.308634 0.669264 0
M  V30 2449 H 216.395 -0.117898 1.89634 0
M  V30 2450 H 214.545 -2.24812 3.16847 0
M  V30 2451 H 216.217 -0.0742264 4.6124 0
M  V30 2452 H 214.46 -0.000396433 4.338 0
M  V30 2453 H 215.131 -1.2643 5.37326 0
M  V30 2454 H 217.607 -2.05701 3.61699 0
M  V30 2455 H 216.483 -3.09067 4.53617 0
M  V30 2456 H 216.744 -3.39923 2.82674 0
M  V30 2457 N 215.803 -1.52179 -0.40978 0
M  V30 2458 C 217.219 -1.40968 -0.74835 0
M  V30 2459 C 217.419 -0.513657 -1.94843 0
M  V30 2460 O 216.475 0.0208026 -2.52491 0
M  V30 2461 C 217.788 -2.83483 -1.0029 0
M  V30 2462 C 219.336 -2.92821 -1.10565 0
M  V30 2463 C 219.811 -4.36303 -1.39296 0
M  V30 2464 N 221.302 -4.39535 -1.46162 0
M  V30 2465 C 222.037 -5.47614 -1.70018 0
M  V30 2466 N 221.533 -6.65812 -1.91483 0
M  V30 2467 N 223.326 -5.35129 -1.72027 0
M  V30 2468 H 215.477 -2.0897 0.380186 0
M  V30 2469 H 217.74 -0.94185 0.107805 0
M  V30 2470 H 217.446 -3.51168 -0.193461 0
M  V30 2471 H 217.32 -3.24487 -1.92323 0
M  V30 2472 H 219.707 -2.25318 -1.90568 0
M  V30 2473 H 219.788 -2.55276 -0.16369 0
M  V30 2474 H 219.432 -5.04366 -0.598109 0
M  V30 2475 H 219.362 -4.71385 -2.34743 0
M  V30 2476 H 221.853 -3.54332 -1.31367 0
M  V30 2477 H 222.166 -7.43964 -2.09134 0
M  V30 2478 H 220.511 -6.68879 -1.88749 0
M  V30 2479 H 223.702 -4.41764 -1.54796 0
M  V30 2480 H 223.875 -6.19433 -1.9028 0
M  V30 2481 N 217.281 0.66697 -1.42791 0
M  V30 2482 C 218.527 1.4291 -1.43891 0
M  V30 2483 C 218.86 1.94114 -0.0578972 0
M  V30 2484 O 218.135 1.71414 0.91911 0
M  V30 2485 C 218.418 2.62049 -2.46987 0
M  V30 2486 C 218.271 2.16426 -3.94309 0
M  V30 2487 C 219.59 3.64266 -2.46978 0
M  V30 2488 H 216.709 0.518306 -0.523954 0
M  V30 2489 H 219.351 0.757321 -1.74255 0
M  V30 2490 H 217.501 3.19361 -2.21225 0
M  V30 2491 H 219.173 1.64221 -4.31079 0
M  V30 2492 H 217.416 1.47925 -4.078 0
M  V30 2493 H 218.087 3.02038 -4.62036 0
M  V30 2494 H 220.563 3.16686 -2.69906 0
M  V30 2495 H 219.439 4.45196 -3.21079 0
M  V30 2496 H 219.7 4.15927 -1.49857 0
M  V30 2497 N 218.759 1.29093 0.90403 0
M  V30 2498 C 219.669 1.15727 2.0407 0
M  V30 2499 C 220.685 0.0815308 1.73809 0
M  V30 2500 O 221.861 0.292749 1.99261 0
M  V30 2501 C 218.926 0.830424 3.36608 0
M  V30 2502 C 217.987 1.98955 3.80415 0
M  V30 2503 C 217.22 1.6782 5.06628 0
M  V30 2504 O 217.443 0.597105 5.67266 0
M  V30 2505 O 216.377 2.52486 5.46383 0
M  V30 2506 H 220.203 2.11171 2.18267 0
M  V30 2507 H 217.788 1.08504 1.027 0
M  V30 2508 H 219.67 0.662521 4.16159 0
M  V30 2509 H 218.345 -0.0942678 3.23563 0
M  V30 2510 H 217.252 2.21267 3.01648 0
M  V30 2511 H 218.585 2.89529 3.98037 0
M  V30 2512 N 220.237 -1.11381 1.11499 0
M  V30 2513 C 221.486 -1.82494 0.858993 0
M  V30 2514 C 221.799 -1.85605 -0.617278 0
M  V30 2515 O 223.005 -2.52824 -0.989552 0
M  V30 2516 C 221.461 -3.27745 1.48699 0
M  V30 2517 C 221.069 -3.32961 2.99735 0
M  V30 2518 C 222.813 -4.03754 1.31085 0
M  V30 2519 C 220.72 -4.72612 3.55516 0
M  V30 2520 H 219.65 -0.683802 0.317696 0
M  V30 2521 H 222.301 -1.25331 1.34031 0
M  V30 2522 H 220.683 -3.84844 0.933339 0
M  V30 2523 H 221.857 -2.85741 3.61509 0
M  V30 2524 H 220.172 -2.70433 3.16631 0
M  V30 2525 H 222.769 -5.06891 1.70192 0
M  V30 2526 H 223.112 -4.15527 0.253496 0
M  V30 2527 H 223.645 -3.53043 1.83318 0
M  V30 2528 H 220.384 -4.66036 4.60967 0
M  V30 2529 H 219.904 -5.2024 2.98513 0
M  V30 2530 H 221.583 -5.4157 3.53992 0
M  V30 2531 N 221.715 -0.905404 -1.28997 0
M  V30 2532 C 222.645 -0.404212 -2.29975 0
M  V30 2533 C 223.626 0.523784 -1.61835 0
M  V30 2534 O 224.811 0.433298 -1.89304 0
M  V30 2535 C 221.941 0.364042 -3.45387 0
M  V30 2536 C 220.895 -0.474048 -4.25367 0
M  V30 2537 C 220.221 0.422045 -5.33032 0
M  V30 2538 C 221.521 -1.72696 -4.92923 0
M  V30 2539 H 223.215 -1.24807 -2.72146 0
M  V30 2540 H 220.761 -0.601585 -1.30832 0
M  V30 2541 H 222.714 0.725447 -4.15109 0
M  V30 2542 H 221.438 1.24174 -3.02074 0
M  V30 2543 H 220.097 -0.81786 -3.57361 0
M  V30 2544 H 219.745 1.29804 -4.85963 0
M  V30 2545 H 219.445 -0.135057 -5.87445 0
M  V30 2546 H 220.969 0.779517 -6.05604 0
M  V30 2547 H 222.383 -1.43495 -5.55051 0
M  V30 2548 H 220.78 -2.22582 -5.57295 0
M  V30 2549 H 221.85 -2.45964 -4.17887 0
M  V30 2550 N 223.193 1.4272 -0.668489 0
M  V30 2551 C 224.609 1.55992 -0.33745 0
M  V30 2552 C 224.809 1.64933 1.15756 0
M  V30 2553 O 223.865 1.61278 1.94282 0
M  V30 2554 C 225.178 2.81314 -1.06222 0
M  V30 2555 C 226.726 2.95078 -1.04394 0
M  V30 2556 C 227.201 4.23252 -1.74991 0
M  V30 2557 N 228.692 4.3015 -1.71829 0
M  V30 2558 C 229.427 5.28127 -2.23315 0
M  V30 2559 N 228.923 6.32293 -2.83156 0
M  V30 2560 N 230.716 5.19882 -2.13726 0
M  V30 2561 H 222.867 1.3516 -1.63846 0
M  V30 2562 H 225.13 0.650174 -0.689912 0
M  V30 2563 H 224.836 2.80823 -2.11734 0
M  V30 2564 H 224.71 3.72012 -0.62344 0
M  V30 2565 H 227.097 2.951 0.0028244 0
M  V30 2566 H 227.178 2.05627 -1.52155 0
M  V30 2567 H 226.822 4.2399 -2.79633 0
M  V30 2568 H 226.752 5.11626 -1.24685 0
M  V30 2569 H 229.243 3.55499 -1.28175 0
M  V30 2570 H 229.556 7.03398 -3.20079 0
M  V30 2571 H 227.901 6.32873 -2.87223 0
M  V30 2572 H 231.092 4.37423 -1.66669 0
M  V30 2573 H 231.265 5.96077 -2.54158 0
M  V30 2574 N 224.671 0.411399 1.52136 0
M  V30 2575 C 225.619 -0.427633 2.28635 0
M  V30 2576 C 226.613 -1.04383 1.33419 0
M  V30 2577 O 227.819 -0.981772 1.50868 0
M  V30 2578 H 224.194 -0.156689 0.735495 0
M  V30 2579 H 226.165 0.238761 2.97443 0
M  V30 2580 C 224.914 -1.53082 3.12188 0
M  V30 2581 H 224.237 -1.06601 3.85326 0
M  V30 2582 H 225.677 -2.09167 3.68816 0
M  V30 2583 C 224.136 -2.49946 2.25895 0
M  V30 2584 O 224.666 -3.53884 1.90076 0
M  V30 2585 N 222.872 -2.2021 1.8962 0
M  V30 2586 H 222.419 -1.35719 2.18948 0
M  V30 2587 H 222.377 -2.85266 1.32176 0
M  V30 2588 N 226.149 -1.5696 0.141893 0
M  V30 2589 C 227.396 -1.9596 -0.510492 0
M  V30 2590 C 227.724 -1.02648 -1.65208 0
M  V30 2591 O 226.979 -0.0546947 -1.95624 0
M  V30 2592 C 227.278 -3.41242 -1.06249 0
M  V30 2593 C 226.944 -4.50882 -0.0398791 0
M  V30 2594 C 225.606 -4.80595 0.241247 0
M  V30 2595 C 227.958 -5.17058 0.65578 0
M  V30 2596 C 225.286 -5.73792 1.22393 0
M  V30 2597 C 227.638 -6.11313 1.62724 0
M  V30 2598 C 226.302 -6.39407 1.91612 0
M  V30 2599 H 225.572 -0.717068 -0.186802 0
M  V30 2600 H 228.219 -1.90142 0.227643 0
M  V30 2601 H 226.524 -3.43866 -1.87785 0
M  V30 2602 H 228.221 -3.68742 -1.57576 0
M  V30 2603 H 224.811 -4.27754 -0.269174 0
M  V30 2604 H 228.995 -4.94239 0.451779 0
M  V30 2605 H 224.251 -5.93853 1.45424 0
M  V30 2606 H 228.425 -6.61668 2.17183 0
M  V30 2607 H 226.052 -7.11427 2.6791 0
M  V30 2608 N 227.627 0.131896 -1.57047 0
M  V30 2609 C 228.857 0.855219 -1.88068 0
M  V30 2610 C 229.265 1.74557 -0.729817 0
M  V30 2611 O 228.608 1.81083 0.308962 0
M  V30 2612 C 228.67 1.75119 -3.13964 0
M  V30 2613 C 228.334 1.03646 -4.45091 0
M  V30 2614 C 229.331 0.383276 -5.18485 0
M  V30 2615 C 227.016 1.02148 -4.91804 0
M  V30 2616 C 229.01 -0.275347 -6.36805 0
M  V30 2617 C 226.697 0.359047 -6.10044 0
M  V30 2618 C 227.695 -0.288222 -6.82392 0
M  V30 2619 O 227.383 -0.94011 -7.98384 0
M  V30 2620 H 227.115 0.251864 -0.627328 0
M  V30 2621 H 229.669 0.124782 -2.05021 0
M  V30 2622 H 227.899 2.52295 -2.9306 0
M  V30 2623 H 229.588 2.3478 -3.31109 0
M  V30 2624 H 230.354 0.386562 -4.83457 0
M  V30 2625 H 226.233 1.5147 -4.35405 0
M  V30 2626 H 229.777 -0.781148 -6.93213 0
M  V30 2627 H 225.674 0.35348 -6.44531 0
M  V30 2628 H 226.442 -0.84329 -8.14144 0
M  V30 2629 N 229.106 1.52395 0.401703 0
M  V30 2630 C 230.353 1.66817 1.14796 0
M  V30 2631 C 230.681 0.401772 1.90305 0
M  V30 2632 O 229.936 -0.615487 1.85769 0
M  V30 2633 C 230.235 2.84578 2.16217 0
M  V30 2634 C 229.901 4.22513 1.5746 0
M  V30 2635 C 228.563 4.60029 1.41161 0
M  V30 2636 C 230.915 5.0844 1.14622 0
M  V30 2637 C 228.243 5.81144 0.80552 0
M  V30 2638 C 230.595 6.30167 0.55428 0
M  V30 2639 C 229.259 6.66426 0.378482 0
M  V30 2640 H 228.529 0.610428 0.420069 0
M  V30 2641 H 231.176 1.86512 0.434212 0
M  V30 2642 H 229.481 2.59248 2.93764 0
M  V30 2643 H 231.178 2.92933 2.73845 0
M  V30 2644 H 227.768 3.92953 1.71132 0
M  V30 2645 H 231.952 4.80034 1.26021 0
M  V30 2646 H 227.208 6.07855 0.657399 0
M  V30 2647 H 231.382 6.96071 0.213983 0
M  V30 2648 H 229.009 7.60143 -0.0932606 0
M  V30 2649 N 230.584 -0.659388 1.43143 0
M  V30 2650 C 231.833 -1.41518 1.43721 0
M  V30 2651 C 232.146 -1.95499 0.0628176 0
M  V30 2652 O 233.352 -2.71446 -0.0539683 0
M  V30 2653 C 231.808 -2.5608 2.52885 0
M  V30 2654 C 231.416 -2.08733 3.96402 0
M  V30 2655 C 233.16 -3.3349 2.62649 0
M  V30 2656 C 231.067 -3.20469 4.97045 0
M  V30 2657 H 229.997 -0.531705 0.534608 0
M  V30 2658 H 232.648 -0.712343 1.69109 0
M  V30 2659 H 231.03 -3.28805 2.20688 0
M  V30 2660 H 232.204 -1.43059 4.3803 0
M  V30 2661 H 230.519 -1.44219 3.90627 0
M  V30 2662 H 233.116 -4.16734 3.35017 0
M  V30 2663 H 233.459 -3.8111 1.67513 0
M  V30 2664 H 233.992 -2.67842 2.94118 0
M  V30 2665 H 230.731 -2.77824 5.93712 0
M  V30 2666 H 230.251 -3.84874 4.60034 0
M  V30 2667 H 231.93 -3.85698 5.19467 0
M  V30 2668 N 232.062 -1.29571 -0.897171 0
M  V30 2669 C 233.01 -1.14802 -2.02295 0
M  V30 2670 C 234.004 -0.0629637 -1.69283 0
M  V30 2671 O 235.21 -0.222945 -1.78614 0
M  V30 2672 H 231.585 -0.354692 -0.663097 0
M  V30 2673 H 233.556 -2.10108 -2.11889 0
M  V30 2674 C 232.305 -0.843966 -3.37302 0
M  V30 2675 H 231.628 -1.67093 -3.63208 0
M  V30 2676 H 233.068 -0.780672 -4.16751 0
M  V30 2677 C 231.527 0.452843 -3.33843 0
M  V30 2678 O 232.057 1.47813 -3.73516 0
M  V30 2679 N 230.263 0.459601 -2.86943 0
M  V30 2680 H 229.81 -0.375213 -2.54853 0
M  V30 2681 H 229.768 1.32726 -2.85011 0
M  V30 2682 N 233.54 1.10788 -1.12088 0
M  V30 2683 C 234.956 1.34691 -0.856186 0
M  V30 2684 C 235.156 1.94791 0.515615 0
M  V30 2685 O 234.212 2.18524 1.26505 0
M  V30 2686 C 235.525 2.27208 -1.9697 0
M  V30 2687 C 237.073 2.40755 -2.00016 0
M  V30 2688 C 237.548 3.36598 -3.1059 0
M  V30 2689 N 239.039 3.44164 -3.10008 0
M  V30 2690 C 239.774 4.18284 -3.92206 0
M  V30 2691 N 239.27 4.95322 -4.84384 0
M  V30 2692 N 241.063 4.13865 -3.80357 0
M  V30 2693 H 233.214 0.70144 -2.00483 0
M  V30 2694 H 235.477 0.371405 -0.872217 0
M  V30 2695 H 235.183 1.90251 -2.958 0
M  V30 2696 H 235.057 3.27485 -1.87172 0
M  V30 2697 H 237.444 2.76982 -1.01808 0
M  V30 2698 H 237.525 1.40305 -2.13888 0
M  V30 2699 H 237.169 3.01096 -4.09028 0
M  V30 2700 H 237.099 4.36918 -2.93956 0
M  V30 2701 H 239.59 2.8922 -2.43228 0
M  V30 2702 H 239.903 5.49267 -5.43623 0
M  V30 2703 H 238.248 4.94459 -4.884 0
M  V30 2704 H 241.439 3.52773 -3.07683 0
M  V30 2705 H 241.612 4.71372 -4.44649 0
M  V30 2706 N 235.018 0.912232 1.28515 0
M  V30 2707 C 235.948 0.416403 2.29757 0
M  V30 2708 C 236.929 -0.515194 1.6211 0
M  V30 2709 O 238.114 -0.423253 1.89532 0
M  V30 2710 C 235.244 -0.34572 3.45575 0
M  V30 2711 C 234.198 0.496599 4.25109 0
M  V30 2712 C 233.524 -0.393771 5.33248 0
M  V30 2713 C 234.824 1.75307 4.92001 0
M  V30 2714 H 236.518 1.26249 2.7148 0
M  V30 2715 H 234.064 0.608515 1.30511 0
M  V30 2716 H 236.017 -0.703422 4.15488 0
M  V30 2717 H 234.741 -1.2257 3.02728 0
M  V30 2718 H 233.4 0.8368 3.56922 0
M  V30 2719 H 233.048 -1.27225 4.86644 0
M  V30 2720 H 232.748 0.166209 5.87365 0
M  V30 2721 H 234.272 -0.747389 6.06009 0
M  V30 2722 H 235.686 1.46437 5.54283 0
M  V30 2723 H 234.083 2.25534 5.56106 0
M  V30 2724 H 235.153 2.48176 4.16577 0
M  V30 2725 N 236.496 -1.42363 0.676048 0
M  V30 2726 C 237.724 -2.05859 0.207268 0
M  V30 2727 C 238.139 -1.50796 -1.13605 0
M  V30 2728 O 237.496 -0.648265 -1.70598 0
M  V30 2729 C 237.547 -3.61248 0.134975 0
M  V30 2730 O 237.268 -4.1427 1.42521 0
M  V30 2731 C 238.769 -4.41859 -0.357151 0
M  V30 2732 H 235.989 -0.663431 0.100503 0
M  V30 2733 H 238.533 -1.82479 0.923136 0
M  V30 2734 H 236.688 -3.83735 -0.531588 0
M  V30 2735 H 237.102 -5.0815 1.29939 0
M  V30 2736 H 238.576 -5.50847 -0.356641 0
M  V30 2737 H 239.053 -4.16536 -1.39264 0
M  V30 2738 H 239.659 -4.24392 0.27772 0
M  V30 2739 N 237.974 -0.419461 -1.51915 0
M  V30 2740 C 239.222 0.152637 -2.01523 0
M  V30 2741 C 239.543 1.44762 -1.30649 0
M  V30 2742 O 238.813 1.90997 -0.435535 0
M  V30 2743 H 237.393 0.0593966 -0.744635 0
M  V30 2744 H 240.055 -0.558073 -1.86739 0
M  V30 2745 H 239.151 0.341369 -3.10227 0
M  V30 2746 N 239.452 1.56882 -0.150215 0
M  V30 2747 C 240.682 2.00302 0.506213 0
M  V30 2748 C 241.09 1.02934 1.58749 0
M  V30 2749 O 240.433 0.0188384 1.8369 0
M  V30 2750 C 240.495 3.40156 1.16337 0
M  V30 2751 C 240.159 4.56439 0.226311 0
M  V30 2752 C 241.156 5.17012 -0.547265 0
M  V30 2753 C 238.841 5.02136 0.128279 0
M  V30 2754 C 240.835 6.21693 -1.40629 0
M  V30 2755 C 238.522 6.06672 -0.734345 0
M  V30 2756 C 239.52 6.6632 -1.50023 0
M  V30 2757 O 239.208 7.68831 -2.34848 0
M  V30 2758 H 238.94 0.662182 0.135984 0
M  V30 2759 H 241.494 2.03961 -0.242746 0
M  V30 2760 H 239.724 3.33346 1.96004 0
M  V30 2761 H 241.413 3.67663 1.71985 0
M  V30 2762 H 242.179 4.82603 -0.48158 0
M  V30 2763 H 238.058 4.55435 0.714157 0
M  V30 2764 H 241.602 6.68179 -2.00455 0
M  V30 2765 H 237.499 6.40507 -0.801309 0
M  V30 2766 H 238.267 7.86065 -2.28131 0
M  V30 2767 N 240.93 -0.123565 1.57115 0
M  V30 2768 C 241.86 -1.15309 2.03042 0
M  V30 2769 C 242.841 -1.43454 0.914061 0
M  V30 2770 O 244.026 -1.53973 1.18347 0
M  V30 2771 C 241.156 -2.48043 2.43089 0
M  V30 2772 C 240.11 -2.3437 3.58127 0
M  V30 2773 C 239.436 -3.72026 3.84059 0
M  V30 2774 C 240.736 -1.80804 4.90007 0
M  V30 2775 H 242.43 -0.771102 2.893 0
M  V30 2776 H 239.976 -0.369479 1.39179 0
M  V30 2777 H 241.929 -3.20311 2.73823 0
M  V30 2778 H 240.653 -2.88122 1.53796 0
M  V30 2779 H 239.312 -1.64551 3.27595 0
M  V30 2780 H 238.96 -4.09582 2.91979 0
M  V30 2781 H 238.66 -3.63732 4.6149 0
M  V30 2782 H 240.184 -4.45806 4.1724 0
M  V30 2783 H 241.598 -2.42886 5.19307 0
M  V30 2784 H 239.995 -1.83343 5.71407 0
M  V30 2785 H 241.065 -0.76528 4.78823 0
M  V30 2786 N 242.408 -1.52605 -0.393616 0
M  V30 2787 C 243.824 -1.41753 -0.733357 0
M  V30 2788 C 244.024 -0.534293 -1.94287 0
M  V30 2789 O 243.08 -0.0059787 -2.52499 0
M  V30 2790 C 244.393 -2.84531 -0.972772 0
M  V30 2791 C 245.941 -2.93978 -1.07453 0
M  V30 2792 C 246.416 -4.37756 -1.3466 0
M  V30 2793 N 247.907 -4.4106 -1.41492 0
M  V30 2794 C 248.642 -5.49387 -1.642 0
M  V30 2795 N 248.138 -6.67806 -1.8441 0
M  V30 2796 N 249.931 -5.36923 -1.66342 0
M  V30 2797 H 242.082 -2.08555 0.402328 0
M  V30 2798 H 244.345 -0.940654 0.117789 0
M  V30 2799 H 244.051 -3.51353 -0.156204 0
M  V30 2800 H 243.925 -3.26508 -1.88871 0
M  V30 2801 H 246.312 -2.27326 -1.88167 0
M  V30 2802 H 246.393 -2.55435 -0.136605 0
M  V30 2803 H 246.037 -5.04972 -0.544581 0
M  V30 2804 H 245.967 -4.73848 -2.2973 0
M  V30 2805 H 248.458 -3.55705 -1.27601 0
M  V30 2806 H 248.771 -7.46141 -2.01231 0
M  V30 2807 H 247.116 -6.70843 -1.81644 0
M  V30 2808 H 250.307 -4.43381 -1.50102 0
M  V30 2809 H 250.48 -6.21416 -1.837 0
M  V30 2810 N 243.887 0.651787 -1.4349 0
M  V30 2811 C 244.835 1.78586 -1.49029 0
M  V30 2812 C 245.829 1.65448 -0.363767 0
M  V30 2813 O 247.035 1.71777 -0.537821 0
M  V30 2814 H 243.41 0.589236 -0.467231 0
M  V30 2815 H 245.381 1.71035 -2.44519 0
M  V30 2816 C 244.13 3.16851 -1.43181 0
M  V30 2817 H 243.453 3.27598 -2.29171 0
M  V30 2818 H 244.893 3.96156 -1.51118 0
M  V30 2819 C 243.352 3.36568 -0.149616 0
M  V30 2820 O 243.882 3.93885 0.788509 0
M  V30 2821 N 242.088 2.90539 -0.0593484 0
M  V30 2822 H 241.635 2.4408 -0.823575 0
M  V30 2823 H 241.593 3.04108 0.797853 0
M  V30 2824 O 245.404 1.40586 0.794848 0
M  V30 2825 H 246.095 1.29493 1.44053 0
M  V30 END ATOM
M  V30 BEGIN BOND
M  V30 END BOND
M  V30 END CTAB
M  END
$$$$
