drugbank_target|Q9KWU1 Alginate lyase (DB04548)
 OpenBabel12092120303D

  0  0  0     0  0            999 V3000
M  V30 BEGIN CTAB
M  V30 COUNTS 9893 10022 0 0 0
M  V30 BEGIN ATOM
M  V30 1 H -0.908 1.98254 -0.117106 0
M  V30 2 N 0 1.576 0 0
M  V30 3 C 0.933 2.03868 1.02534 0
M  V30 4 C 1.911 0.928543 1.3348 0
M  V30 5 O 3.095 1.19667 1.45644 0
M  V30 6 C 0.222 2.43627 2.35294 0
M  V30 7 C -0.732 3.65373 2.2001 0
M  V30 8 S 0.101 5.13292 1.52614 0
M  V30 9 C 1.257 5.56322 2.86805 0
M  V30 10 H 1.49 2.90518 0.631377 0
M  V30 11 H -0.977 1.52953 0.210867 0
M  V30 12 H 0.981 2.67203 3.11629 0
M  V30 13 H -0.358 1.57376 2.7183 0
M  V30 14 H -1.165 3.90944 3.18086 0
M  V30 15 H -1.563 3.418 1.51819 0
M  V30 16 H 0.729 5.58782 3.83104 0
M  V30 17 H 1.672 6.56266 2.65933 0
M  V30 18 H 2.08 4.83886 2.90714 0
M  V30 19 N 1.4781 -0.272755 1.55222 0
M  V30 20 C 2.8891 -0.84378 1.66545 0
M  V30 21 C 3.2401 -1.87035 0.592641 0
M  V30 22 O 2.3651 -2.14761 -0.265818 0
M  V30 23 C 2.9601 -1.53723 3.01918 0
M  V30 24 C 1.5191 -2.05628 3.15268 0
M  V30 25 C 0.6661 -0.898424 2.62343 0
M  V30 26 H 3.6171 -0.0490998 1.58624 0
M  V30 27 H 3.6381 -2.40421 2.94921 0
M  V30 28 H 3.1501 -0.78983 3.79978 0
M  V30 29 H 1.2511 -2.83329 2.41983 0
M  V30 30 H 1.3641 -2.27142 4.21833 0
M  V30 31 H -0.2719 -1.29186 2.19506 0
M  V30 32 H 0.5111 -0.164528 3.42906 0
M  V30 33 N 2.9562 -1.48159 -0.537278 0
M  V30 34 C 3.8862 -1.65029 -1.6519 0
M  V30 35 C 4.8672 -0.499281 -1.62607 0
M  V30 36 O 6.0522 -0.730972 -1.79918 0
M  V30 37 C 3.1822 -1.68303 -3.03795 0
M  V30 38 C 2.1362 -2.8283 -3.21234 0
M  V30 39 C 1.4622 -2.71189 -4.60826 0
M  V30 40 C 2.7622 -4.24211 -3.04701 0
M  V30 41 H 4.4562 -2.58341 -1.51328 0
M  V30 42 H 2.0022 -1.24325 -0.726585 0
M  V30 43 H 3.9552 -1.78693 -3.81637 0
M  V30 44 H 2.6792 -0.715635 -3.18663 0
M  V30 45 H 1.3382 -2.71983 -2.45807 0
M  V30 46 H 0.9862 -1.72435 -4.7252 0
M  V30 47 H 0.6862 -3.48035 -4.7344 0
M  V30 48 H 2.2102 -2.83537 -5.40777 0
M  V30 49 H 3.6242 -4.3593 -3.72341 0
M  V30 50 H 2.0212 -5.01998 -3.28813 0
M  V30 51 H 3.0912 -4.41184 -2.01209 0
M  V30 52 N 4.4343 0.785586 -1.36625 0
M  V30 53 C 5.3973 1.87999 -1.31107 0
M  V30 54 C 6.3973 1.59316 -0.217959 0
M  V30 55 O 7.5873 1.67656 -0.472977 0
M  V30 56 C 4.7193 3.24861 -1.03334 0
M  V30 57 H 5.9123 1.94307 -2.2844 0
M  V30 58 H 3.4653 0.983813 -1.21453 0
M  V30 59 H 4.2003 3.24235 -0.0647432 0
M  V30 60 H 3.9853 3.4707 -1.82441 0
M  V30 61 H 5.4753 4.04929 -1.02088 0
M  V30 62 N 5.9124 1.20967 1.01018 0
M  V30 63 C 7.1524 1.03511 1.76252 0
M  V30 64 C 7.5164 -0.42458 1.87247 0
M  V30 65 O 8.7174 -0.719508 2.58991 0
M  V30 66 C 6.9884 1.70726 3.13986 0
M  V30 67 S 8.5474 1.68458 4.05176 0
M  V30 68 H 5.3654 0.371037 0.606508 0
M  V30 69 H 7.9674 1.53628 1.20908 0
M  V30 70 H 6.6714 2.76128 3.03614 0
M  V30 71 H 6.2024 1.20767 3.74405 0
M  V30 72 H 8.2174 0.721987 4.90919 0
M  V30 73 N 7.3905 -1.2043 1.01659 0
M  V30 74 C 8.3205 -2.25466 0.607226 0
M  V30 75 C 9.3015 -1.65853 -0.377716 0
M  V30 76 O 10.4865 -1.92409 -0.263149 0
M  V30 77 C 7.6165 -3.47256 -0.0552949 0
M  V30 78 C 6.5705 -4.19462 0.850632 0
M  V30 79 C 5.8965 -5.34673 0.0538859 0
M  V30 80 C 7.1965 -4.75603 2.15868 0
M  V30 81 H 8.8905 -2.59962 1.48526 0
M  V30 82 H 6.4365 -1.2496 0.715605 0
M  V30 83 H 8.3895 -4.19917 -0.353233 0
M  V30 84 H 7.1135 -3.11924 -0.968045 0
M  V30 85 H 5.7725 -3.48667 1.13257 0
M  V30 86 H 5.4205 -4.95585 -0.860514 0
M  V30 87 H 5.1205 -5.83913 0.657192 0
M  V30 88 H 6.6445 -6.10138 -0.237598 0
M  V30 89 H 8.0585 -5.40083 1.92311 0
M  V30 90 H 6.4555 -5.3528 2.71284 0
M  V30 91 H 7.5255 -3.94346 2.82169 0
M  V30 92 N 8.8686 -0.792821 -1.36206 0
M  V30 93 C 9.8316 -0.199459 -2.2833 0
M  V30 94 C 10.8316 0.605189 -1.48977 0
M  V30 95 O 12.0216 0.425685 -1.68919 0
M  V30 96 C 9.1536 0.723523 -3.33134 0
M  V30 97 H 10.3466 -1.01181 -2.82316 0
M  V30 98 H 7.8996 -0.562485 -1.45828 0
M  V30 99 H 8.6346 1.56008 -2.84309 0
M  V30 100 H 8.4196 0.148436 -3.91819 0
M  V30 101 H 9.9096 1.13344 -4.01924 0
M  V30 102 N 10.3467 1.47872 -0.545128 0
M  V30 103 C 11.5747 2.06889 -0.021084 0
M  V30 104 C 11.9897 1.39955 1.2672 0
M  V30 105 O 11.3467 0.492036 1.75742 0
M  V30 106 C 11.3977 3.60996 0.190817 0
M  V30 107 O 11.1187 4.25419 -1.04644 0
M  V30 108 C 12.6197 4.36849 0.753521 0
M  V30 109 H 9.8397 0.669785 -0.0403635 0
M  V30 110 H 12.3837 1.90049 -0.755095 0
M  V30 111 H 10.5387 3.77391 0.87492 0
M  V30 112 H 10.9527 5.17785 -0.836611 0
M  V30 113 H 12.4267 5.45399 0.851139 0
M  V30 114 H 12.9037 4.02306 1.762 0
M  V30 115 H 13.5097 4.25169 0.105503 0
M  V30 116 N 11.8248 0.280983 1.55075 0
M  V30 117 C 13.0528 -0.337293 2.04132 0
M  V30 118 C 13.4678 -1.4903 1.15912 0
M  V30 119 O 12.8248 -1.81606 0.180459 0
M  V30 120 C 12.8758 -0.812706 3.52246 0
M  V30 121 O 12.5968 0.294387 4.3711 0
M  V30 122 C 14.0978 -1.4982 4.17216 0
M  V30 123 H 11.3178 -0.0761638 0.666663 0
M  V30 124 H 13.8618 0.414787 2.00249 0
M  V30 125 H 12.0168 -1.51486 3.56554 0
M  V30 126 H 12.4308 -0.0721325 5.2445 0
M  V30 127 H 13.9048 -1.7822 5.22438 0
M  V30 128 H 14.3818 -2.43168 3.65741 0
M  V30 129 H 14.9878 -0.839742 4.16927 0
M  V30 130 N 13.3029 -1.57598 0.00835791 0
M  V30 131 C 14.7189 -1.55764 -0.347822 0
M  V30 132 C 14.9189 -1.01186 -1.74252 0
M  V30 133 O 13.9749 -0.649371 -2.44007 0
M  V30 134 C 15.2879 -2.99927 -0.215407 0
M  V30 135 C 16.8359 -3.11656 -0.289725 0
M  V30 136 C 17.3109 -4.57621 -0.18634 0
M  V30 137 N 18.8019 -4.62557 -0.243978 0
M  V30 138 C 19.5369 -5.73094 -0.18745 0
M  V30 139 N 19.0329 -6.92753 -0.0810331 0
M  V30 140 N 20.8259 -5.61588 -0.239925 0
M  V30 141 H 12.9769 -1.91411 0.92062 0
M  V30 142 H 15.2399 -0.879562 0.353659 0
M  V30 143 H 14.9459 -3.43729 0.744512 0
M  V30 144 H 14.8199 -3.63865 -0.994097 0
M  V30 145 H 17.2069 -2.67779 -1.24009 0
M  V30 146 H 17.2879 -2.5048 0.51898 0
M  V30 147 H 16.9319 -5.02174 0.760519 0
M  V30 148 H 16.8619 -5.16752 -1.01364 0
M  V30 149 H 19.3529 -3.76481 -0.327217 0
M  V30 150 H 19.6659 -7.72787 -0.0440241 0
M  V30 151 H 18.0109 -6.94984 -0.0465419 0
M  V30 152 H 21.2019 -4.66996 -0.321317 0
M  V30 153 H 21.3749 -6.47714 -0.192407 0
M  V30 154 N 14.781 0.264519 -1.55364 0
M  V30 155 C 16.027 0.99646 -1.76631 0
M  V30 156 C 16.36 1.85632 -0.570478 0
M  V30 157 O 15.635 1.89647 0.43175 0
M  V30 158 C 15.918 1.87187 -3.07625 0
M  V30 159 C 15.771 1.04138 -4.37579 0
M  V30 160 C 17.09 2.85749 -3.34717 0
M  V30 161 H 14.209 0.360841 -0.642622 0
M  V30 162 H 16.851 0.268218 -1.88097 0
M  V30 163 H 15.001 2.49279 -2.9798 0
M  V30 164 H 16.673 0.440517 -4.59192 0
M  V30 165 H 14.916 0.345115 -4.32425 0
M  V30 166 H 15.587 1.68729 -5.2558 0
M  V30 167 H 18.063 2.33793 -3.4421 0
M  V30 168 H 16.939 3.44136 -4.27623 0
M  V30 169 H 17.2 3.61311 -2.54768 0
M  V30 170 N 16.2591 1.48442 0.529413 0
M  V30 171 C 17.5071 1.56179 1.28267 0
M  V30 172 C 17.8281 0.237721 1.93546 0
M  V30 173 O 17.0981 -0.740779 1.81354 0
M  V30 174 H 15.6781 0.575367 0.476405 0
M  V30 175 H 18.3401 1.84909 0.61602 0
M  V30 176 H 17.4361 2.34312 2.06165 0
M  V30 177 N 17.7372 -0.778329 1.37039 0
M  V30 178 C 18.7002 -1.87301 1.32102 0
M  V30 179 C 19.7002 -1.59198 0.226405 0
M  V30 180 O 20.8902 -1.67403 0.481861 0
M  V30 181 C 18.0222 -3.24309 1.05055 0
M  V30 182 H 19.2152 -1.93093 2.29467 0
M  V30 183 H 16.7682 -0.977358 1.21973 0
M  V30 184 H 17.5032 -3.24196 0.0819373 0
M  V30 185 H 17.2882 -3.46098 1.84279 0
M  V30 186 H 18.7782 -4.04382 1.04234 0
M  V30 187 N 19.2153 -1.21501 -1.00376 0
M  V30 188 C 20.1783 -0.976927 -2.07337 0
M  V30 189 C 21.1783 0.0525322 -1.60714 0
M  V30 190 O 22.3683 -0.184869 -1.73216 0
M  V30 191 C 19.5003 -0.473423 -3.37597 0
M  V30 192 H 20.6933 -1.92587 -2.29892 0
M  V30 193 H 18.2463 -1.03217 -1.17371 0
M  V30 194 H 18.9813 0.480379 -3.20722 0
M  V30 195 H 18.7663 -1.216 -3.72768 0
M  V30 196 H 20.2563 -0.32675 -4.1632 0
M  V30 197 N 20.6934 1.19889 -1.02296 0
M  V30 198 C 22.1094 1.41462 -0.738954 0
M  V30 199 C 22.3094 1.89721 0.678846 0
M  V30 200 O 21.3654 2.07016 1.4457 0
M  V30 201 C 22.6784 2.43083 -1.77005 0
M  V30 202 C 24.2264 2.5684 -1.78892 0
M  V30 203 C 24.7014 3.61709 -2.80945 0
M  V30 204 N 26.1924 3.69199 -2.79725 0
M  V30 205 C 26.9274 4.50019 -3.55345 0
M  V30 206 N 26.4234 5.34592 -4.40662 0
M  V30 207 N 28.2164 4.44612 -3.43914 0
M  V30 208 H 20.3674 0.868827 -1.93817 0
M  V30 209 H 22.6304 0.44399 -0.837602 0
M  V30 210 H 22.3364 2.14636 -2.78612 0
M  V30 211 H 22.2104 3.4217 -1.58744 0
M  V30 212 H 24.5974 2.84614 -0.779674 0
M  V30 213 H 24.6784 1.57927 -2.01228 0
M  V30 214 H 24.3224 3.34678 -3.82038 0
M  V30 215 H 24.2524 4.60259 -2.5587 0
M  V30 216 H 26.7434 3.08794 -2.17842 0
M  V30 217 H 27.0564 5.93363 -4.95116 0
M  V30 218 H 25.4014 5.34073 -4.44737 0
M  V30 219 H 28.5924 3.7758 -2.76679 0
M  V30 220 H 28.7654 5.0736 -4.031 0
M  V30 221 N 22.1715 0.800033 1.35784 0
M  V30 222 C 23.0815 0.207204 2.33683 0
M  V30 223 C 24.0975 -0.64631 1.61551 0
M  V30 224 O 25.2735 -0.559604 1.93469 0
M  V30 225 C 22.3385 -0.639659 3.40748 0
M  V30 226 C 21.3995 0.233585 4.28664 0
M  V30 227 C 20.6325 -0.572954 5.30616 0
M  V30 228 O 20.8555 -1.80816 5.40982 0
M  V30 229 O 19.7895 0.0327285 6.01891 0
M  V30 230 H 23.6155 1.01692 2.86169 0
M  V30 231 H 21.2005 0.561691 1.38439 0
M  V30 232 H 23.0825 -1.12223 4.06182 0
M  V30 233 H 21.7575 -1.42708 2.90544 0
M  V30 234 H 20.6645 0.763147 3.66233 0
M  V30 235 H 21.9975 0.984784 4.82248 0
M  V30 236 N 23.6496 -1.47581 0.552962 0
M  V30 237 C 24.5966 -2.29957 -0.197108 0
M  V30 238 C 25.5666 -1.38799 -0.912359 0
M  V30 239 O 26.7516 -1.67761 -0.908888 0
M  V30 240 C 23.8916 -3.22672 -1.22379 0
M  V30 241 C 23.0046 -4.28919 -0.515038 0
M  V30 242 C 22.1396 -5.0879 -1.52664 0
M  V30 243 C 21.1786 -6.06815 -0.802631 0
M  V30 244 N 20.3156 -6.7966 -1.76086 0
M  V30 245 H 25.1556 -2.93578 0.511486 0
M  V30 246 H 22.6926 -1.4471 0.264067 0
M  V30 247 H 24.6506 -3.74845 -1.83159 0
M  V30 248 H 23.2806 -2.60925 -1.90047 0
M  V30 249 H 22.3326 -3.79835 0.207192 0
M  V30 250 H 23.6446 -4.98773 0.0523425 0
M  V30 251 H 22.7986 -5.65091 -2.20809 0
M  V30 252 H 21.5376 -4.38828 -2.12794 0
M  V30 253 H 20.5426 -5.49695 -0.107238 0
M  V30 254 H 21.7676 -6.78784 -0.207135 0
M  V30 255 H 19.7136 -6.12432 -2.35081 0
M  V30 256 H 19.6306 -7.45669 -1.24552 0
M  V30 257 H 20.8986 -7.40538 -2.43359 0
M  V30 258 N 25.1277 -0.289203 -1.54924 0
M  V30 259 C 26.3527 0.329299 -2.04769 0
M  V30 260 C 26.7777 1.4763 -1.16564 0
M  V30 261 O 26.1357 1.80527 -0.167186 0
M  V30 262 C 26.1837 0.774438 -3.52186 0
M  V30 263 O 25.2877 1.88038 -3.67036 0
M  V30 264 H 24.6287 0.0659259 -0.660719 0
M  V30 265 H 27.1587 -0.42761 -2.00082 0
M  V30 266 H 27.1687 1.06642 -3.93816 0
M  V30 267 H 25.8437 -0.0646707 -4.1585 0
M  V30 268 H 24.4207 1.58985 -3.3731 0
M  V30 269 N 26.6058 1.57591 -0.0167156 0
M  V30 270 C 27.8538 1.90906 0.663285 0
M  V30 271 C 28.1748 0.892509 1.73376 0
M  V30 272 O 27.4448 -0.0677623 1.95783 0
M  V30 273 H 26.0248 0.704637 0.247983 0
M  V30 274 H 28.6868 1.94803 -0.0615909 0
M  V30 275 H 27.7828 2.9116 1.12393 0
M  V30 276 N 28.0839 -0.256276 1.55502 0
M  V30 277 C 29.3609 -1.00789 1.67633 0
M  V30 278 C 29.7409 -2.03706 0.553826 0
M  V30 279 O 29.0889 -2.24145 -0.443969 0
M  V30 280 C 29.2989 -1.64968 3.07549 0
M  V30 281 C 30.6469 -2.15505 3.65845 0
M  V30 282 O 31.6709 -1.74925 3.1029 0
M  V30 283 O 30.5299 -2.89986 4.63217 0
M  V30 284 H 27.6239 -0.468553 0.681459 0
M  V30 285 H 30.1699 -0.250806 1.67836 0
M  V30 286 H 28.9419 -0.904785 3.80696 0
M  V30 287 H 28.5649 -2.47321 3.11317 0
M  V30 288 N 29.562 -1.4872 -0.521534 0
M  V30 289 C 30.787 -1.61101 -1.30618 0
M  V30 290 C 31.212 -0.274611 -1.86085 0
M  V30 291 O 30.57 0.754937 -1.64834 0
M  V30 292 C 30.618 -2.66709 -2.4269 0
M  V30 293 O 29.722 -2.24456 -3.45967 0
M  V30 294 H 29.063 -0.539921 -0.386499 0
M  V30 295 H 31.593 -1.94767 -0.626645 0
M  V30 296 H 31.603 -2.88245 -2.88754 0
M  V30 297 H 30.278 -3.63727 -2.01682 0
M  V30 298 H 28.855 -2.13168 -3.05964 0
M  V30 299 N 31.0401 0.771051 -1.3745 0
M  V30 300 C 32.2651 1.56529 -1.36065 0
M  V30 301 C 32.6901 1.88029 0.0515859 0
M  V30 302 O 32.0481 1.49282 1.02882 0
M  V30 303 C 32.0961 2.85187 -2.20683 0
M  V30 304 O 31.2001 3.79593 -1.61193 0
M  V30 305 H 30.5411 0.47411 -0.464883 0
M  V30 306 H 33.0711 0.954269 -1.80983 0
M  V30 307 H 33.0811 3.34283 -2.33921 0
M  V30 308 H 31.7561 2.61588 -3.23334 0
M  V30 309 H 30.3331 3.38239 -1.56999 0
M  V30 310 N 32.5182 1.22032 0.997298 0
M  V30 311 C 33.4512 0.929735 2.08401 0
M  V30 312 C 34.4292 -0.125681 1.62114 0
M  V30 313 O 35.6132 0.00495409 1.88499 0
M  V30 314 C 32.7402 0.397488 3.3636 0
M  V30 315 C 31.7862 1.4369 4.01566 0
M  V30 316 S 32.6192 3.00874 4.42984 0
M  V30 317 C 33.7752 2.49276 5.74119 0
M  V30 318 H 34.0082 1.84998 2.32729 0
M  V30 319 H 31.5412 1.0509 1.13117 0
M  V30 320 H 33.4992 0.0969846 4.10385 0
M  V30 321 H 32.1602 -0.501571 3.10069 0
M  V30 322 H 31.3532 1.01427 4.93689 0
M  V30 323 H 30.9552 1.68588 3.33847 0
M  V30 324 H 33.2472 1.90242 6.50242 0
M  V30 325 H 34.1902 3.39872 6.21203 0
M  V30 326 H 34.5982 1.90714 5.31308 0
M  V30 327 N 33.9963 -1.19345 1.0293 0
M  V30 328 C 35.2433 -1.89038 0.726008 0
M  V30 329 C 35.5713 -1.79649 -0.745427 0
M  V30 330 O 34.8263 -1.18354 -1.55855 0
M  V30 331 C 35.1253 -3.39292 1.12319 0
M  V30 332 C 34.7913 -3.68885 2.59297 0
M  V30 333 C 33.4533 -3.76671 2.99453 0
M  V30 334 C 35.8053 -3.82178 3.54386 0
M  V30 335 C 33.1333 -3.9522 4.33611 0
M  V30 336 C 35.4853 -4.0224 4.88248 0
M  V30 337 C 34.1493 -4.08259 5.28092 0
M  V30 338 H 33.4193 -0.691739 0.265665 0
M  V30 339 H 36.0663 -1.41328 1.29223 0
M  V30 340 H 34.3713 -3.88903 0.475584 0
M  V30 341 H 36.0683 -3.91536 0.866037 0
M  V30 342 H 32.6583 -3.63433 2.27189 0
M  V30 343 H 36.8423 -3.75505 3.24514 0
M  V30 344 H 32.0983 -3.98119 4.64016 0
M  V30 345 H 36.2723 -4.11468 5.61843 0
M  V30 346 H 33.8993 -4.22384 6.32057 0
M  V30 347 N 35.4744 -0.807222 -1.35358 0
M  V30 348 C 36.7514 -0.311126 -1.9311 0
M  V30 349 C 37.1314 1.19937 -1.73719 0
M  V30 350 O 36.4794 1.99918 -1.10657 0
M  V30 351 C 36.6894 -0.723226 -3.41424 0
M  V30 352 C 38.0374 -0.713078 -4.18569 0
M  V30 353 O 39.0614 -0.664811 -3.49941 0
M  V30 354 O 37.9204 -0.772022 -5.41019 0
M  V30 355 H 35.0144 -0.081526 -0.822972 0
M  V30 356 H 37.5604 -0.890962 -1.4443 0
M  V30 357 H 36.3324 -1.76426 -3.4927 0
M  V30 358 H 35.9554 -0.118232 -3.97424 0
M  V30 359 N 36.9525 1.47285 -0.560781 0
M  V30 360 C 38.2015 2.01668 -0.035895 0
M  V30 361 C 38.5145 1.44021 1.32353 0
M  V30 362 O 39.7205 1.90088 1.93853 0
M  V30 363 C 38.1765 3.59897 -0.0136659 0
M  V30 364 C 37.7845 4.26536 -1.37006 0
M  V30 365 C 39.5285 4.22017 0.458425 0
M  V30 366 C 37.4355 5.76782 -1.30675 0
M  V30 367 H 36.3655 0.753938 -0.00964879 0
M  V30 368 H 39.0165 1.69243 -0.709166 0
M  V30 369 H 37.3985 3.89301 0.725325 0
M  V30 370 H 38.5725 4.0877 -2.12705 0
M  V30 371 H 36.8875 3.76419 -1.78038 0
M  V30 372 H 39.4845 5.32124 0.524247 0
M  V30 373 H 39.8275 3.89437 1.4712 0
M  V30 374 H 40.3605 3.97159 -0.225818 0
M  V30 375 H 37.0995 6.13988 -2.29564 0
M  V30 376 H 36.6195 5.96875 -0.591622 0
M  V30 377 H 38.2985 6.39063 -1.01033 0
M  V30 378 N 38.4306 0.297415 1.54768 0
M  V30 379 C 39.8416 -0.195947 1.85669 0
M  V30 380 C 40.1926 -1.53707 1.21937 0
M  V30 381 O 39.3176 -2.10164 0.515754 0
M  V30 382 C 39.9126 -0.362318 3.36857 0
M  V30 383 C 38.4716 -0.799901 3.67802 0
M  V30 384 C 37.6186 0.0938578 2.77141 0
M  V30 385 H 40.5696 0.518538 1.4999 0
M  V30 386 H 40.5906 -1.19745 3.61167 0
M  V30 387 H 40.1026 0.613921 3.83214 0
M  V30 388 H 38.2036 -1.78682 3.26961 0
M  V30 389 H 38.3166 -0.621773 4.75048 0
M  V30 390 H 36.6806 -0.426254 2.51108 0
M  V30 391 H 37.4636 1.06639 3.26318 0
M  V30 392 N 39.9087 -1.5758 0.0250728 0
M  V30 393 C 41.1557 -1.91633 -0.654444 0
M  V30 394 C 41.4837 -0.901103 -1.72367 0
M  V30 395 O 40.7387 0.0905647 -1.9549 0
M  V30 396 C 41.0377 -3.32421 -1.31268 0
M  V30 397 C 40.7037 -4.49344 -0.374223 0
M  V30 398 C 39.3657 -4.8106 -0.115911 0
M  V30 399 C 41.7177 -5.20498 0.270432 0
M  V30 400 C 39.0457 -5.8129 0.79493 0
M  V30 401 C 41.3977 -6.21699 1.1693 0
M  V30 402 C 40.0617 -6.51859 1.43655 0
M  V30 403 H 39.3317 -0.701236 -0.239478 0
M  V30 404 H 41.9787 -1.91307 0.0859734 0
M  V30 405 H 40.2837 -3.28989 -2.12775 0
M  V30 406 H 41.9807 -3.56038 -1.84494 0
M  V30 407 H 38.5707 -4.24579 -0.58573 0
M  V30 408 H 42.7547 -4.96229 0.0839194 0
M  V30 409 H 38.0107 -6.03005 1.00973 0
M  V30 410 H 42.1847 -6.75955 1.67504 0
M  V30 411 H 39.8117 -7.2934 2.144 0
M  V30 412 N 41.3868 0.248026 -1.55636 0
M  V30 413 C 42.7978 0.817177 -1.67866 0
M  V30 414 C 43.1488 1.86069 -0.622322 0
M  V30 415 O 42.2738 2.15157 0.231618 0
M  V30 416 C 42.8688 1.489 -3.04326 0
M  V30 417 C 41.4278 2.00587 -3.185 0
M  V30 418 C 40.5748 0.856573 -2.63739 0
M  V30 419 H 43.5258 0.0238579 -1.58682 0
M  V30 420 H 43.5468 2.35698 -2.98708 0
M  V30 421 H 43.0588 0.729279 -3.81186 0
M  V30 422 H 41.1598 2.79443 -2.4646 0
M  V30 423 H 41.2728 2.20402 -4.25393 0
M  V30 424 H 39.6368 1.25678 -2.21534 0
M  V30 425 H 40.4198 0.109953 -3.43124 0
M  V30 426 N 42.8649 1.48995 0.513639 0
M  V30 427 C 44.1129 1.57531 1.26604 0
M  V30 428 C 44.4339 0.258236 1.93283 0
M  V30 429 O 43.7039 -0.721502 1.8213 0
M  V30 430 H 42.2839 0.580387 0.470276 0
M  V30 431 H 44.9459 1.85552 0.596373 0
M  V30 432 H 44.0419 2.36486 2.03669 0
M  V30 433 N 44.343 -0.763751 1.37857 0
M  V30 434 C 45.293 -1.86765 1.30777 0
M  V30 435 C 46.277 -1.59726 0.194015 0
M  V30 436 O 47.469 -1.7172 0.42911 0
M  V30 437 C 44.598 -3.24343 1.12502 0
M  V30 438 C 43.684 -3.57307 2.28456 0
M  V30 439 N 44.075 -3.61398 3.53871 0
M  V30 440 C 42.373 -3.87517 2.20786 0
M  V30 441 C 43.074 -3.91339 4.30382 0
M  V30 442 N 42.05 -4.07649 3.59615 0
M  V30 443 H 45.852 -1.88191 2.25746 0
M  V30 444 H 43.366 -0.9606 1.30944 0
M  V30 445 H 45.363 -4.03327 1.05514 0
M  V30 446 H 44.023 -3.24175 0.184574 0
M  V30 447 H 45.034 -3.43407 3.87675 0
M  V30 448 H 41.711 -3.95125 1.34844 0
M  V30 449 H 43.101 -4.01213 5.3896 0
M  V30 450 N 45.8211 -1.22559 -0.990812 0
M  V30 451 C 47.0691 -1.04933 -1.72724 0
M  V30 452 C 47.3901 0.416158 -1.90508 0
M  V30 453 O 46.6601 1.29918 -1.46622 0
M  V30 454 H 45.2401 -0.385296 -0.639965 0
M  V30 455 H 47.9021 -1.54105 -1.19322 0
M  V30 456 H 46.9981 -1.52886 -2.72089 0
M  V30 457 N 47.2992 1.18797 -1.03562 0
M  V30 458 C 48.7152 1.40671 -0.753917 0
M  V30 459 C 48.9152 1.9043 0.658686 0
M  V30 460 O 47.9712 2.08538 1.42366 0
M  V30 461 C 49.2842 2.41192 -1.79574 0
M  V30 462 C 50.8322 2.54928 -1.81606 0
M  V30 463 C 51.3072 3.58709 -2.84766 0
M  V30 464 N 52.7982 3.66212 -2.83625 0
M  V30 465 C 53.5332 4.46225 -3.60098 0
M  V30 466 N 53.0292 5.29888 -4.46308 0
M  V30 467 N 54.8222 4.40939 -3.4861 0
M  V30 468 H 46.9732 0.848221 -1.94728 0
M  V30 469 H 49.2362 0.435081 -0.842264 0
M  V30 470 H 48.9422 2.11669 -2.80872 0
M  V30 471 H 48.8162 3.40467 -1.62365 0
M  V30 472 H 51.2032 2.83771 -0.809817 0
M  V30 473 H 51.2842 1.55784 -2.02891 0
M  V30 474 H 50.9282 3.30607 -3.85566 0
M  V30 475 H 50.8582 4.57519 -2.60737 0
M  V30 476 H 53.3492 3.06466 -2.21105 0
M  V30 477 H 53.6622 5.88078 -5.01382 0
M  V30 478 H 52.0072 5.29326 -4.50377 0
M  V30 479 H 55.1982 3.74624 -2.80668 0
M  V30 480 H 55.3712 5.03056 -4.08459 0
M  V30 481 N 48.7773 0.814389 1.34928 0
M  V30 482 C 50.1933 0.499084 1.51596 0
M  V30 483 C 50.3933 -0.978319 1.76157 0
M  V30 484 O 49.4493 -1.76309 1.80752 0
M  V30 485 C 50.7623 1.35121 2.68631 0
M  V30 486 C 52.3103 1.34746 2.82511 0
M  V30 487 C 52.7853 2.18388 4.0258 0
M  V30 488 N 54.2763 2.15966 4.09772 0
M  V30 489 C 55.0113 2.77437 5.01813 0
M  V30 490 N 54.5073 3.47866 5.99134 0
M  V30 491 N 56.3003 2.67037 4.94619 0
M  V30 492 H 48.4513 1.7711 1.17243 0
M  V30 493 H 50.7143 0.754256 0.574284 0
M  V30 494 H 50.4203 2.40001 2.57085 0
M  V30 495 H 50.2943 1.00991 3.63429 0
M  V30 496 H 52.6813 0.30648 2.93504 0
M  V30 497 H 52.7623 1.72869 1.88547 0
M  V30 498 H 52.4063 3.2253 3.92347 0
M  V30 499 H 52.3363 1.77621 4.9574 0
M  V30 500 H 54.8273 1.64729 3.40107 0
M  V30 501 H 55.1403 3.92038 6.65977 0
M  V30 502 H 53.4853 3.51972 5.99284 0
M  V30 503 H 56.6763 2.11597 4.17546 0
M  V30 504 H 56.8493 3.15232 5.66156 0
M  V30 505 N 50.2554 -1.46986 0.568584 0
M  V30 506 C 51.1854 -2.32946 -0.160753 0
M  V30 507 C 52.1664 -1.44487 -0.897631 0
M  V30 508 O 53.3514 -1.73327 -0.875867 0
M  V30 509 C 50.4814 -3.26494 -1.18403 0
M  V30 510 C 49.4354 -4.24282 -0.562895 0
M  V30 511 C 48.7614 -5.07236 -1.69163 0
M  V30 512 C 50.0614 -5.19989 0.490761 0
M  V30 513 H 51.7554 -2.94175 0.556916 0
M  V30 514 H 49.3014 -1.4146 0.26927 0
M  V30 515 H 51.2544 -3.85477 -1.70251 0
M  V30 516 H 49.9784 -2.63343 -1.93179 0
M  V30 517 H 48.6374 -3.66541 -0.0656164 0
M  V30 518 H 48.2854 -4.4048 -2.42871 0
M  V30 519 H 47.9854 -5.7345 -1.28174 0
M  V30 520 H 49.5094 -5.6908 -2.21314 0
M  V30 521 H 50.9234 -5.73271 0.0579047 0
M  V30 522 H 49.3204 -5.94469 0.820165 0
M  V30 523 H 50.3904 -4.64777 1.3824 0
M  V30 524 N 51.7335 -0.305618 -1.54608 0
M  V30 525 C 52.6965 0.555591 -2.22364 0
M  V30 526 C 53.6965 1.05768 -1.21119 0
M  V30 527 O 54.8865 0.952972 -1.45822 0
M  V30 528 C 52.0185 1.76974 -2.91364 0
M  V30 529 H 53.2115 -0.0364572 -2.99878 0
M  V30 530 H 50.7645 -0.0565007 -1.56198 0
M  V30 531 H 51.4995 2.40151 -2.17941 0
M  V30 532 H 51.2845 1.41732 -3.65588 0
M  V30 533 H 52.7745 2.38148 -3.43038 0
M  V30 534 N 53.2116 1.57565 -0.0334293 0
M  V30 535 C 54.4576 1.92262 0.645226 0
M  V30 536 C 54.7906 0.910543 1.71531 0
M  V30 537 O 54.0656 -0.066099 1.94388 0
M  V30 538 C 54.3486 3.37422 1.2577 0
M  V30 539 C 54.2016 4.49369 0.196891 0
M  V30 540 C 55.5206 3.82628 2.17449 0
M  V30 541 H 52.6396 0.699171 0.233085 0
M  V30 542 H 55.2816 1.89779 -0.0915694 0
M  V30 543 H 53.4316 3.39669 1.88566 0
M  V30 544 H 55.1036 4.59254 -0.433962 0
M  V30 545 H 53.3466 4.31168 -0.477137 0
M  V30 546 H 54.0176 5.47978 0.665124 0
M  V30 547 H 56.4936 3.82145 1.64634 0
M  V30 548 H 55.3696 4.84883 2.57254 0
M  V30 549 H 55.6306 3.18376 3.0674 0
M  V30 550 N 54.6897 -0.239769 1.55765 0
M  V30 551 C 55.6527 -1.28038 1.90103 0
M  V30 552 C 56.6527 -1.40723 0.778055 0
M  V30 553 O 57.8427 -1.39301 1.04599 0
M  V30 554 C 54.9747 -2.65702 2.13577 0
M  V30 555 H 56.1677 -0.988048 2.83157 0
M  V30 556 H 53.7207 -0.479382 1.48767 0
M  V30 557 H 54.4557 -3.00063 1.23015 0
M  V30 558 H 54.2407 -2.57875 2.95369 0
M  V30 559 H 55.7307 -3.40828 2.41301 0
M  V30 560 N 56.1678 -1.49265 -0.50573 0
M  V30 561 C 57.1308 -1.65075 -1.59006 0
M  V30 562 C 58.1308 -0.522768 -1.52065 0
M  V30 563 O 59.3208 -0.789117 -1.55302 0
M  V30 564 C 56.4528 -1.64369 -2.98656 0
M  V30 565 H 57.6458 -2.61784 -1.46319 0
M  V30 566 H 55.1988 -1.38226 -0.729616 0
M  V30 567 H 55.9338 -0.692272 -3.16825 0
M  V30 568 H 55.7188 -2.46282 -3.05103 0
M  V30 569 H 57.2088 -1.78674 -3.77446 0
M  V30 570 N 57.6459 0.756429 -1.3826 0
M  V30 571 C 58.5759 1.88374 -1.37976 0
M  V30 572 C 59.5569 1.68311 -0.246082 0
M  V30 573 O 60.7419 1.88944 -0.44874 0
M  V30 574 C 57.8719 3.25864 -1.20125 0
M  V30 575 C 56.8259 3.60523 -2.30666 0
M  V30 576 C 56.1519 4.9672 -1.97923 0
M  V30 577 C 57.4519 3.65692 -3.72916 0
M  V30 578 H 59.1459 1.88869 -2.32312 0
M  V30 579 H 56.6919 0.907272 -1.11824 0
M  V30 580 H 58.6449 4.0438 -1.18552 0
M  V30 581 H 57.3689 3.25841 -0.222498 0
M  V30 582 H 56.0279 2.84324 -2.3142 0
M  V30 583 H 55.6759 4.93253 -0.985393 0
M  V30 584 H 55.3759 5.20878 -2.71955 0
M  V30 585 H 56.8999 5.77618 -1.97964 0
M  V30 586 H 58.3139 4.34328 -3.74208 0
M  V30 587 H 56.7109 4.01358 -4.4613 0
M  V30 588 H 57.7809 2.65987 -4.05436 0
M  V30 589 N 59.124 1.23083 0.984299 0
M  V30 590 C 60.087 1.00979 2.05757 0
M  V30 591 C 61.087 -0.0269573 1.60777 0
M  V30 592 O 62.277 0.212403 1.729 0
M  V30 593 C 59.409 0.527072 3.36801 0
M  V30 594 H 60.602 1.9622 2.26799 0
M  V30 595 H 58.155 1.05072 1.15714 0
M  V30 596 H 58.89 -0.429294 3.21446 0
M  V30 597 H 58.675 1.27515 3.70786 0
M  V30 598 H 60.165 0.392942 4.15747 0
M  V30 599 N 60.6021 -1.18246 1.0419 0
M  V30 600 C 61.8491 -1.88257 0.746017 0
M  V30 601 C 62.1771 -1.80429 -0.726331 0
M  V30 602 O 61.4321 -1.2 -1.54591 0
M  V30 603 C 61.7311 -3.38082 1.15911 0
M  V30 604 C 61.3971 -3.66114 2.63195 0
M  V30 605 C 60.0591 -3.73474 3.03432 0
M  V30 606 C 62.4111 -3.78398 3.5842 0
M  V30 607 C 59.7391 -3.90599 4.37778 0
M  V30 608 C 62.0911 -3.97039 4.92487 0
M  V30 609 C 60.7551 -4.02635 5.32392 0
M  V30 610 H 60.0251 -0.688883 0.272987 0
M  V30 611 H 62.6721 -1.3995 1.30715 0
M  V30 612 H 60.9771 -3.88377 0.516806 0
M  V30 613 H 62.6741 -3.90596 0.907516 0
M  V30 614 H 59.2641 -3.61003 2.3103 0
M  V30 615 H 63.4481 -3.72042 3.28479 0
M  V30 616 H 58.7041 -3.93175 4.68213 0
M  V30 617 H 62.8781 -4.05486 5.66175 0
M  V30 618 H 60.5051 -4.15657 6.36501 0
M  V30 619 N 62.0802 -0.821533 -1.34494 0
M  V30 620 C 63.0432 -0.247847 -2.27856 0
M  V30 621 C 64.0432 0.573453 -1.50227 0
M  V30 622 O 65.2332 0.389759 -1.69784 0
M  V30 623 C 62.3652 0.652698 -3.34593 0
M  V30 624 H 63.5582 -1.07146 -2.80107 0
M  V30 625 H 61.1112 -0.593291 -1.44602 0
M  V30 626 H 61.8462 1.49943 -2.87555 0
M  V30 627 H 61.6312 0.065292 -3.92046 0
M  V30 628 H 63.1212 1.04793 -4.04238 0
M  V30 629 N 63.5583 1.46682 -0.576371 0
M  V30 630 C 64.8063 2.02013 -0.0594163 0
M  V30 631 C 65.1273 1.45101 1.30271 0
M  V30 632 O 64.3973 0.633317 1.8538 0
M  V30 633 H 62.9773 0.746759 -0.0189745 0
M  V30 634 H 65.6393 1.79862 -0.750717 0
M  V30 635 H 64.7353 3.12097 0.014345 0
M  V30 636 N 65.0364 0.313813 1.54444 0
M  V30 637 C 66.2764 -0.292389 2.02298 0
M  V30 638 C 66.6404 -1.50105 1.19719 0
M  V30 639 O 67.8414 -2.17947 1.5733 0
M  V30 640 C 66.1124 -0.627682 3.51845 0
M  V30 641 S 67.6714 -1.21493 4.21646 0
M  V30 642 H 64.4894 -0.0890247 0.705405 0
M  V30 643 H 67.0914 0.444668 1.90376 0
M  V30 644 H 65.7954 0.260265 4.09574 0
M  V30 645 H 65.3264 -1.39519 3.67829 0
M  V30 646 H 67.3414 -2.5022 4.28491 0
M  V30 647 N 66.5145 -1.57545 0.0417849 0
M  V30 648 C 67.4775 -2.09885 -0.92093 0
M  V30 649 C 68.4775 -1.01648 -1.24596 0
M  V30 650 O 69.6675 -1.27759 -1.1842 0
M  V30 651 C 66.7995 -2.57527 -2.23367 0
M  V30 652 H 67.9925 -2.96236 -0.467382 0
M  V30 653 H 65.5455 -1.5493 -0.206467 0
M  V30 654 H 66.2805 -1.74542 -2.73323 0
M  V30 655 H 66.0655 -3.36613 -2.01083 0
M  V30 656 H 67.5555 -2.98201 -2.92346 0
M  V30 657 N 67.9926 0.231505 -1.5589 0
M  V30 658 C 69.2396 0.957352 -1.78441 0
M  V30 659 C 69.5676 1.84726 -0.60882 0
M  V30 660 O 68.8226 1.91416 0.40725 0
M  V30 661 C 69.1216 1.83577 -3.0665 0
M  V30 662 C 68.7876 1.09993 -4.37278 0
M  V30 663 C 67.4496 0.896629 -4.72773 0
M  V30 664 C 69.8016 0.579558 -5.17968 0
M  V30 665 C 67.1296 0.160896 -5.86479 0
M  V30 666 C 69.4816 -0.142783 -6.32439 0
M  V30 667 C 68.1456 -0.357427 -6.66542 0
M  V30 668 H 67.4156 0.35032 -0.65296 0
M  V30 669 H 70.0626 0.226259 -1.90159 0
M  V30 670 H 68.3676 2.63441 -2.90011 0
M  V30 671 H 70.0646 2.39934 -3.21298 0
M  V30 672 H 66.6546 1.26835 -4.09403 0
M  V30 673 H 70.8386 0.724125 -4.90989 0
M  V30 674 H 66.0946 -0.0157293 -6.11398 0
M  V30 675 H 70.2686 -0.553559 -6.94196 0
M  V30 676 H 67.8956 -0.929466 -7.54497 0
M  V30 677 N 69.4707 1.49531 0.497807 0
M  V30 678 C 70.4337 1.65916 1.58128 0
M  V30 679 C 71.4337 0.530825 1.51786 0
M  V30 680 O 72.6237 0.797342 1.54881 0
M  V30 681 C 69.7557 1.65951 2.9778 0
M  V30 682 H 70.9487 2.62556 1.44929 0
M  V30 683 H 68.5017 1.38611 0.722275 0
M  V30 684 H 69.2367 0.709065 3.16453 0
M  V30 685 H 69.0217 2.47897 3.03792 0
M  V30 686 H 70.5117 1.80673 3.76493 0
M  V30 687 N 70.9488 -0.749086 1.3866 0
M  V30 688 C 72.1968 -1.50535 1.34847 0
M  V30 689 C 72.5178 -1.94909 -0.0595016 0
M  V30 690 O 71.7878 -1.67973 -1.00806 0
M  V30 691 H 70.3678 -0.558395 0.49619 0
M  V30 692 H 73.0298 -0.890165 1.73384 0
M  V30 693 H 72.1258 -2.39413 2.00219 0
M  V30 694 N 72.4269 -1.23603 -0.977757 0
M  V30 695 C 73.6519 -1.09735 -1.75991 0
M  V30 696 C 74.0769 0.346858 -1.84874 0
M  V30 697 O 73.4349 1.25093 -1.3123 0
M  V30 698 C 73.4829 -1.73051 -3.16363 0
M  V30 699 O 72.5869 -0.994452 -4.0023 0
M  V30 700 H 71.9279 -0.384476 -0.541364 0
M  V30 701 H 74.4579 -1.6371 -1.2272 0
M  V30 702 H 74.4679 -1.78398 -3.66931 0
M  V30 703 H 73.1429 -2.78137 -3.09213 0
M  V30 704 H 71.7199 -1.01812 -3.58732 0
M  V30 705 N 73.905 1.17692 -1.04816 0
M  V30 706 C 74.835 2.23777 -0.666791 0
M  V30 707 C 75.816 1.66796 0.33361 0
M  V30 708 O 77.001 1.93039 0.212042 0
M  V30 709 C 74.131 3.47281 -0.0367933 0
M  V30 710 C 73.085 4.17059 -0.961546 0
M  V30 711 C 72.411 5.34342 -0.195626 0
M  V30 712 C 73.711 4.69713 -2.28402 0
M  V30 713 H 75.405 2.55933 -1.55367 0
M  V30 714 H 72.951 1.23019 -0.748484 0
M  V30 715 H 74.904 4.20706 0.241775 0
M  V30 716 H 73.628 3.14381 0.885004 0
M  V30 717 H 72.287 3.45541 -1.22462 0
M  V30 718 H 71.935 4.97692 0.728816 0
M  V30 719 H 71.635 5.81966 -0.811775 0
M  V30 720 H 73.159 6.10553 0.0757473 0
M  V30 721 H 74.573 5.34794 -2.06563 0
M  V30 722 H 72.97 5.279 -2.8538 0
M  V30 723 H 74.04 3.86726 -2.92525 0
M  V30 724 N 75.3831 0.828654 1.34056 0
M  V30 725 C 76.3151 0.212052 2.28217 0
M  V30 726 C 77.3281 -0.601362 1.51286 0
M  V30 727 O 78.5171 -0.430104 1.73241 0
M  V30 728 C 75.6171 -0.72088 3.31144 0
M  V30 729 C 74.7901 0.0509587 4.3737 0
M  V30 730 C 73.8491 -0.803766 5.20025 0
M  V30 731 O 72.8751 -0.246667 5.68665 0
M  V30 732 N 74.0771 -2.1227 5.40298 0
M  V30 733 H 76.8421 1.02105 2.81771 0
M  V30 734 H 74.4031 0.686153 1.46641 0
M  V30 735 H 76.3951 -1.29742 3.8334 0
M  V30 736 H 74.9651 -1.43061 2.77943 0
M  V30 737 H 74.1851 0.808831 3.85813 0
M  V30 738 H 75.4731 0.582065 5.0546 0
M  V30 739 H 74.8711 -2.59898 5.02464 0
M  V30 740 H 73.4281 -2.64796 5.95589 0
M  V30 741 N 76.8612 -1.46375 0.584142 0
M  V30 742 C 77.8242 -2.28784 -0.138108 0
M  V30 743 C 78.8242 -1.38471 -0.817462 0
M  V30 744 O 80.0142 -1.60833 -0.669199 0
M  V30 745 C 77.1462 -3.18892 -1.20503 0
M  V30 746 H 78.3392 -2.94117 0.586127 0
M  V30 747 H 75.8922 -1.52509 0.342171 0
M  V30 748 H 76.6272 -2.58309 -1.96079 0
M  V30 749 H 76.4122 -3.85388 -0.722384 0
M  V30 750 H 77.9022 -3.80914 -1.71155 0
M  V30 751 N 78.3393 -0.321999 -1.54275 0
M  V30 752 C 79.2893 0.560185 -2.21011 0
M  V30 753 C 80.2733 1.08283 -1.19011 0
M  V30 754 O 81.4653 1.02011 -1.44647 0
M  V30 755 C 78.5943 1.72137 -2.97025 0
M  V30 756 C 77.6803 1.21369 -4.06363 0
M  V30 757 N 78.0713 0.425566 -5.04007 0
M  V30 758 C 76.3693 1.49255 -4.20284 0
M  V30 759 C 77.0703 0.152601 -5.815 0
M  V30 760 N 76.0463 0.738294 -5.38563 0
M  V30 761 H 79.8483 -0.049265 -2.93859 0
M  V30 762 H 77.3623 -0.127779 -1.61897 0
M  V30 763 H 79.3593 2.36512 -3.43319 0
M  V30 764 H 78.0193 2.33431 -2.25699 0
M  V30 765 H 79.0303 0.068551 -5.17855 0
M  V30 766 H 75.7073 2.11145 -3.60172 0
M  V30 767 H 77.0973 -0.481764 -6.70171 0
M  V30 768 N 79.8174 1.5752 -0.0501392 0
M  V30 769 C 81.2284 1.80271 0.485705 0
M  V30 770 C 81.5794 0.96228 1.70981 0
M  V30 771 O 80.7044 0.178578 2.15662 0
M  V30 772 C 81.2994 3.26957 0.887938 0
M  V30 773 C 79.8584 3.5063 1.36877 0
M  V30 774 C 79.0054 2.75165 0.343468 0
M  V30 775 H 81.9564 1.56281 -0.276028 0
M  V30 776 H 81.9774 3.37821 1.75093 0
M  V30 777 H 81.4894 3.881 -0.0031809 0
M  V30 778 H 79.5904 2.94766 2.27911 0
M  V30 779 H 79.7034 4.59343 1.36164 0
M  V30 780 H 78.0674 2.4127 0.816128 0
M  V30 781 H 78.8504 3.39034 -0.539548 0
M  V30 782 N 81.2955 -0.223234 1.56011 0
M  V30 783 C 82.5425 -0.947875 1.78946 0
M  V30 784 C 82.8705 -1.844 0.618608 0
M  V30 785 O 82.1255 -1.91629 -0.397093 0
M  V30 786 C 82.4245 -1.81948 3.0762 0
M  V30 787 C 82.0905 -1.07672 4.37856 0
M  V30 788 C 80.7525 -0.871544 4.73242 0
M  V30 789 C 83.1045 -0.552081 5.18268 0
M  V30 790 C 80.4325 -0.129791 5.86556 0
M  V30 791 C 82.7845 0.17632 6.32354 0
M  V30 792 C 81.4485 0.39277 6.66343 0
M  V30 793 H 80.7185 -0.346852 0.654809 0
M  V30 794 H 83.3655 -0.216171 1.90276 0
M  V30 795 H 81.6705 -2.61899 2.91404 0
M  V30 796 H 83.3675 -2.38227 3.22566 0
M  V30 797 H 79.9575 -1.24662 4.1007 0
M  V30 798 H 84.1415 -0.698076 4.91366 0
M  V30 799 H 79.3975 0.048153 6.11381 0
M  V30 800 H 83.5715 0.590367 6.93893 0
M  V30 801 H 81.1985 0.969466 7.53993 0
M  V30 802 N 82.7736 -1.49793 -0.48987 0
M  V30 803 C 84.0506 -1.50348 -1.25119 0
M  V30 804 C 84.4306 -0.237466 -2.0976 0
M  V30 805 O 83.7786 0.77981 -2.14782 0
M  V30 806 C 83.9886 -2.78872 -2.09837 0
M  V30 807 C 85.3366 -3.288 -2.68655 0
M  V30 808 O 86.3606 -2.80065 -2.20096 0
M  V30 809 O 85.2196 -4.13707 -3.57083 0
M  V30 810 H 82.3136 -0.602242 -0.566775 0
M  V30 811 H 84.8596 -1.62067 -0.503229 0
M  V30 812 H 83.6316 -3.62499 -1.47343 0
M  V30 813 H 83.2546 -2.70066 -2.91805 0
M  V30 814 N 84.2517 0.741722 -1.39055 0
M  V30 815 C 85.1837 1.8657 -1.33133 0
M  V30 816 C 86.1967 1.61001 -0.241329 0
M  V30 817 O 87.3857 1.7136 -0.499784 0
M  V30 818 C 84.4857 3.22457 -1.04283 0
M  V30 819 C 83.6587 3.75435 -2.24427 0
M  V30 820 C 82.7177 4.89867 -1.92138 0
M  V30 821 O 81.7437 5.03879 -2.64754 0
M  V30 822 N 82.9457 5.73738 -0.88347 0
M  V30 823 H 85.7107 1.92156 -2.29991 0
M  V30 824 H 83.2717 0.922172 -1.3307 0
M  V30 825 H 85.2637 3.9657 -0.807128 0
M  V30 826 H 83.8337 3.12181 -0.161807 0
M  V30 827 H 83.0537 2.92751 -2.6399 0
M  V30 828 H 84.3417 4.07563 -3.04581 0
M  V30 829 H 83.7397 5.64999 -0.281517 0
M  V30 830 H 82.2967 6.47947 -0.707662 0
M  V30 831 N 85.7298 1.2412 0.971189 0
M  V30 832 C 86.6928 1.03156 2.04674 0
M  V30 833 C 87.6928 -0.00990322 1.60797 0
M  V30 834 O 88.8828 0.230729 1.72665 0
M  V30 835 C 86.0148 0.562765 3.36223 0
M  V30 836 H 87.2078 1.98614 2.24705 0
M  V30 837 H 84.7608 1.06293 1.14593 0
M  V30 838 H 85.4958 -0.395176 3.21883 0
M  V30 839 H 85.2808 1.31441 3.69413 0
M  V30 840 H 86.7708 0.437015 4.15307 0
M  V30 841 N 87.2079 -1.17134 1.05439 0
M  V30 842 C 88.4539 -1.87733 0.767077 0
M  V30 843 C 88.7869 -1.8098 -0.704253 0
M  V30 844 O 88.0619 -1.21951 -1.5152 0
M  V30 845 C 88.3449 -3.37659 1.25133 0
M  V30 846 C 88.1979 -3.53149 2.78578 0
M  V30 847 C 89.5169 -4.31768 0.852324 0
M  V30 848 H 86.6359 -0.681687 0.280129 0
M  V30 849 H 89.2779 -1.37732 1.30881 0
M  V30 850 H 87.4279 -3.80373 0.790469 0
M  V30 851 H 89.0999 -3.19434 3.32806 0
M  V30 852 H 87.3429 -2.95345 3.17732 0
M  V30 853 H 88.0139 -4.58403 3.07523 0
M  V30 854 H 90.4899 -3.96909 1.24911 0
M  V30 855 H 89.3659 -5.35199 1.21873 0
M  V30 856 H 89.6269 -4.41429 -0.243485 0
M  V30 857 N 88.686 -0.835752 -1.33615 0
M  V30 858 C 89.932 -0.430596 -1.98176 0
M  V30 859 C 90.265 1.00684 -1.66061 0
M  V30 860 O 89.54 1.70339 -0.938877 0
M  V30 861 C 89.823 -0.648065 -3.5422 0
M  V30 862 C 89.676 -2.13255 -3.96033 0
M  V30 863 C 90.995 -0.0922113 -4.40003 0
M  V30 864 H 88.114 -0.157924 -0.719881 0
M  V30 865 H 90.756 -1.05069 -1.58305 0
M  V30 866 H 88.906 -0.120237 -3.88314 0
M  V30 867 H 90.578 -2.725 -3.72211 0
M  V30 868 H 88.821 -2.61823 -3.45878 0
M  V30 869 H 89.492 -2.23547 -5.04708 0
M  V30 870 H 91.968 -0.543343 -4.12537 0
M  V30 871 H 90.844 -0.274083 -5.48215 0
M  V30 872 H 91.105 1.00378 -4.30554 0
M  V30 873 N 90.1641 1.46063 -0.591896 0
M  V30 874 C 91.1111 2.30399 0.136069 0
M  V30 875 C 92.0811 1.41169 0.875238 0
M  V30 876 O 93.2661 1.70112 0.86409 0
M  V30 877 C 90.4061 3.25804 1.13781 0
M  V30 878 C 89.5191 4.30134 0.401137 0
M  V30 879 C 88.6541 5.12659 1.39121 0
M  V30 880 C 87.6931 6.0873 0.641462 0
M  V30 881 N 86.8301 6.8409 1.58004 0
M  V30 882 H 91.6701 2.92118 -0.589144 0
M  V30 883 H 89.2071 1.43959 -0.302342 0
M  V30 884 H 91.1651 3.79569 1.73156 0
M  V30 885 H 89.7951 2.65872 1.83062 0
M  V30 886 H 88.8471 3.79152 -0.307826 0
M  V30 887 H 90.1591 4.98458 -0.184565 0
M  V30 888 H 89.3131 5.70747 2.05749 0
M  V30 889 H 88.0521 4.44316 2.01084 0
M  V30 890 H 87.0571 5.49786 -0.0385419 0
M  V30 891 H 88.2821 6.79095 0.0270945 0
M  V30 892 H 86.2281 6.18449 2.18761 0
M  V30 893 H 86.1451 7.48709 1.04738 0
M  V30 894 H 87.4131 7.4673 2.23639 0
M  V30 895 N 91.6422 0.330177 1.54103 0
M  V30 896 C 92.9192 -0.325007 1.92881 0
M  V30 897 C 93.2992 -1.6934 1.26045 0
M  V30 898 O 92.6472 -2.24855 0.406526 0
M  V30 899 C 92.8572 -0.410634 3.46576 0
M  V30 900 C 94.2052 -0.667801 4.19316 0
M  V30 901 O 95.2292 -0.49329 3.52768 0
M  V30 902 O 94.0882 -1.00491 5.37181 0
M  V30 903 H 91.1822 -0.186873 0.80561 0
M  V30 904 H 93.7282 0.380376 1.65382 0
M  V30 905 H 92.5002 0.550164 3.87413 0
M  V30 906 H 92.1232 -1.16333 3.802 0
M  V30 907 N 93.1203 -1.57491 0.0584922 0
M  V30 908 C 94.5313 -1.80526 -0.476138 0
M  V30 909 C 94.8823 -0.971334 -1.70469 0
M  V30 910 O 94.0073 -0.190012 -2.15564 0
M  V30 911 C 94.6023 -3.27424 -0.870587 0
M  V30 912 C 93.1613 -3.51351 -1.35015 0
M  V30 913 C 92.3083 -2.75343 -0.32887 0
M  V30 914 H 95.2593 -1.56133 0.284312 0
M  V30 915 H 95.2803 -3.38745 -1.73299 0
M  V30 916 H 94.7923 -3.88093 0.0237627 0
M  V30 917 H 92.8933 -2.95971 -2.26345 0
M  V30 918 H 93.0063 -4.60059 -1.33726 0
M  V30 919 H 91.3703 -2.417 -0.803321 0
M  V30 920 H 92.1533 -3.38743 0.557521 0
M  V30 921 N 94.5984 0.214957 -1.56127 0
M  V30 922 C 95.8264 0.955092 -1.83536 0
M  V30 923 C 96.2414 1.77677 -0.638472 0
M  V30 924 O 95.5984 1.78219 0.392968 0
M  V30 925 C 95.6494 1.86734 -3.09536 0
M  V30 926 O 95.3704 1.07887 -4.24608 0
M  V30 927 C 96.8714 2.72082 -3.4998 0
M  V30 928 H 94.0914 0.279611 -0.609966 0
M  V30 929 H 96.6354 0.228197 -2.03223 0
M  V30 930 H 94.7904 2.5481 -2.91806 0
M  V30 931 H 95.2044 1.69872 -4.9623 0
M  V30 932 H 96.6784 3.31782 -4.41163 0
M  V30 933 H 97.1554 3.44806 -2.7204 0
M  V30 934 H 97.7614 2.09409 -3.70173 0
M  V30 935 N 96.0765 1.50051 0.48192 0
M  V30 936 C 97.0395 1.67584 1.5636 0
M  V30 937 C 98.0395 0.546894 1.51214 0
M  V30 938 O 99.2295 0.813725 1.54026 0
M  V30 939 C 96.3615 1.691 2.96003 0
M  V30 940 H 97.5545 2.64078 1.42136 0
M  V30 941 H 95.1075 1.39369 0.707533 0
M  V30 942 H 95.8425 0.742589 3.15684 0
M  V30 943 H 95.6275 2.51105 3.01146 0
M  V30 944 H 97.1175 1.84656 3.74556 0
M  V30 945 N 97.5546 -0.734337 1.39446 0
M  V30 946 C 98.7796 -1.52866 1.40167 0
M  V30 947 C 99.2046 -1.881 -0.00171513 0
M  V30 948 O 98.5626 -1.51957 -0.988879 0
M  V30 949 C 98.6106 -2.79235 2.28167 0
M  V30 950 O 97.7146 -3.75185 1.71201 0
M  V30 951 H 97.0556 -0.461618 0.477289 0
M  V30 952 H 99.5856 -0.905949 1.8345 0
M  V30 953 H 99.5956 -3.27963 2.42702 0
M  V30 954 H 98.2706 -2.52923 3.30156 0
M  V30 955 H 96.8476 -3.33958 1.65912 0
M  V30 956 N 99.0327 -1.24633 -0.964593 0
M  V30 957 C 100.263 -1.11339 -1.74032 0
M  V30 958 C 100.671 0.336593 -1.86182 0
M  V30 959 O 100.014 1.24389 -1.35178 0
M  V30 960 C 100.076 -1.68284 -3.1768 0
M  V30 961 C 99.7397 -3.17196 -3.28992 0
M  V30 962 C 100.737 -4.14308 -3.14078 0
M  V30 963 C 98.4217 -3.57215 -3.53133 0
M  V30 964 C 100.416 -5.4942 -3.23135 0
M  V30 965 C 98.1027 -4.92468 -3.61827 0
M  V30 966 C 99.1007 -5.8838 -3.46841 0
M  V30 967 O 98.7887 -7.21173 -3.55197 0
M  V30 968 H 98.5207 -0.389551 -0.552472 0
M  V30 969 H 101.075 -1.65282 -1.21946 0
M  V30 970 H 99.3047 -1.08777 -3.71085 0
M  V30 971 H 100.994 -1.50234 -3.77074 0
M  V30 972 H 101.76 -3.84731 -2.95308 0
M  V30 973 H 97.6387 -2.83063 -3.63863 0
M  V30 974 H 101.183 -6.24263 -3.11355 0
M  V30 975 H 97.0797 -5.21714 -3.80111 0
M  V30 976 H 97.8477 -7.29135 -3.71892 0
M  V30 977 N 100.511 1.16574 -1.06058 0
M  V30 978 C 101.757 1.87324 -0.777022 0
M  V30 979 C 102.09 1.81351 0.694645 0
M  V30 980 O 101.365 1.22753 1.50871 0
M  V30 981 C 101.648 3.36991 -1.26922 0
M  V30 982 C 101.501 3.51667 -2.80447 0
M  V30 983 C 102.82 4.3131 -0.87521 0
M  V30 984 H 99.9388 0.680191 -0.28374 0
M  V30 985 H 102.581 1.37036 -1.3161 0
M  V30 986 H 100.731 3.79949 -0.81063 0
M  V30 987 H 102.403 3.17664 -3.34495 0
M  V30 988 H 100.646 2.93656 -3.19294 0
M  V30 989 H 101.317 4.56766 -3.0995 0
M  V30 990 H 103.793 3.9624 -1.27014 0
M  V30 991 H 102.669 5.34545 -1.2471 0
M  V30 992 H 102.93 4.41552 0.220071 0
M  V30 993 N 101.989 0.842826 1.3317 0
M  V30 994 C 103.266 0.362216 1.92217 0
M  V30 995 C 103.646 -1.15289 1.76838 0
M  V30 996 O 102.994 -1.96914 1.15919 0
M  V30 997 C 103.204 0.813495 3.39387 0
M  V30 998 C 104.552 0.823804 4.16532 0
M  V30 999 O 105.576 0.757358 3.48055 0
M  V30 1000 O 104.435 0.915193 5.38782 0
M  V30 1001 H 101.529 0.103317 0.820521 0
M  V30 1002 H 104.075 0.928942 1.42017 0
M  V30 1003 H 102.847 1.85624 3.4447 0
M  V30 1004 H 102.47 0.223561 3.96971 0
M  V30 1005 N 103.467 -1.45747 0.599634 0
M  V30 1006 C 104.713 -2.02592 0.0918643 0
M  V30 1007 C 105.046 -1.46806 -1.27128 0
M  V30 1008 O 104.321 -0.639658 -1.83681 0
M  V30 1009 C 104.604 -3.60073 0.0443398 0
M  V30 1010 C 104.457 -4.26208 1.43759 0
M  V30 1011 C 105.776 -4.35309 -0.647608 0
M  V30 1012 H 102.895 -0.736175 0.034857 0
M  V30 1013 H 105.537 -1.73694 0.770081 0
M  V30 1014 H 103.687 -3.84823 -0.533224 0
M  V30 1015 H 105.359 -4.12668 2.06162 0
M  V30 1016 H 103.602 -3.84916 2.00056 0
M  V30 1017 H 104.273 -5.35069 1.35665 0
M  V30 1018 H 106.749 -4.15805 -0.156776 0
M  V30 1019 H 105.625 -5.45038 -0.649942 0
M  V30 1020 H 105.886 -4.07598 -1.71219 0
M  V30 1021 N 104.945 -0.338344 -1.53925 0
M  V30 1022 C 105.892 0.520845 -2.24846 0
M  V30 1023 C 106.862 1.09976 -1.24477 0
M  V30 1024 O 108.047 1.13735 -1.53196 0
M  V30 1025 C 105.187 1.6685 -3.02084 0
M  V30 1026 C 104.3 1.11739 -4.17299 0
M  V30 1027 C 103.435 2.23193 -4.82036 0
M  V30 1028 C 102.474 1.65407 -5.89328 0
M  V30 1029 N 101.611 2.70582 -6.47866 0
M  V30 1030 H 106.451 -0.0904881 -2.97863 0
M  V30 1031 H 103.988 -0.0564282 -1.46992 0
M  V30 1032 H 105.946 2.34407 -3.45122 0
M  V30 1033 H 104.576 2.2509 -2.31375 0
M  V30 1034 H 103.628 0.332919 -3.7894 0
M  V30 1035 H 104.94 0.654677 -4.94485 0
M  V30 1036 H 104.094 2.98626 -5.28117 0
M  V30 1037 H 102.833 2.72807 -4.04262 0
M  V30 1038 H 101.838 0.884779 -5.42634 0
M  V30 1039 H 103.063 1.16652 -6.69006 0
M  V30 1040 H 101.009 3.1946 -5.72959 0
M  V30 1041 H 100.926 2.28917 -7.20509 0
M  V30 1042 H 102.194 3.45799 -6.98601 0
M  V30 1043 N 106.423 1.57458 -0.0668435 0
M  V30 1044 C 107.386 2.11323 0.887422 0
M  V30 1045 C 108.386 1.03618 1.22964 0
M  V30 1046 O 109.576 1.29626 1.16373 0
M  V30 1047 C 106.708 2.61048 2.19242 0
M  V30 1048 H 107.901 2.96942 0.420194 0
M  V30 1049 H 105.454 1.55239 0.181793 0
M  V30 1050 H 106.189 1.78868 2.70512 0
M  V30 1051 H 105.974 3.39769 1.95702 0
M  V30 1052 H 107.464 3.02814 2.87565 0
M  V30 1053 N 107.901 -0.206675 1.56239 0
M  V30 1054 C 109.317 -0.557025 1.49564 0
M  V30 1055 C 109.517 -1.86424 0.764735 0
M  V30 1056 O 108.573 -2.50584 0.310491 0
M  V30 1057 C 109.886 -0.622478 2.94186 0
M  V30 1058 C 111.434 -0.712099 3.04792 0
M  V30 1059 C 111.909 -0.808767 4.50803 0
M  V30 1060 N 113.4 -0.8726 4.54907 0
M  V30 1061 C 114.135 -0.967365 5.65181 0
M  V30 1062 N 113.631 -1.02515 6.85173 0
M  V30 1063 N 115.424 -1.00366 5.53067 0
M  V30 1064 H 107.575 0.650943 2.02179 0
M  V30 1065 H 109.838 0.230387 0.919579 0
M  V30 1066 H 109.544 0.268727 3.50672 0
M  V30 1067 H 109.418 -1.4811 3.46905 0
M  V30 1068 H 111.805 -1.59374 2.48363 0
M  V30 1069 H 111.886 0.172489 2.55218 0
M  V30 1070 H 111.53 0.0684754 5.07854 0
M  V30 1071 H 111.46 -1.70899 4.98098 0
M  V30 1072 H 113.951 -0.837657 3.68499 0
M  V30 1073 H 114.264 -1.09765 7.64965 0
M  V30 1074 H 112.609 -0.994026 6.87855 0
M  V30 1075 H 115.8 -0.95527 4.58249 0
M  V30 1076 H 115.973 -1.07405 6.39037 0
M  V30 1077 N 109.379 -1.50304 -0.473955 0
M  V30 1078 C 110.795 -1.37667 -0.807466 0
M  V30 1079 C 110.995 -0.430555 -1.96846 0
M  V30 1080 O 110.051 0.127874 -2.52176 0
M  V30 1081 C 111.364 -2.78974 -1.12223 0
M  V30 1082 C 112.912 -2.87868 -1.22885 0
M  V30 1083 C 113.387 -4.30003 -1.57676 0
M  V30 1084 N 114.878 -4.3294 -1.64673 0
M  V30 1085 C 115.613 -5.3991 -1.93091 0
M  V30 1086 N 115.109 -6.57092 -2.1955 0
M  V30 1087 N 116.902 -5.27351 -1.94569 0
M  V30 1088 H 109.053 -2.10394 0.291212 0
M  V30 1089 H 111.316 -0.945575 0.0677609 0
M  V30 1090 H 111.022 -3.50031 -0.342229 0
M  V30 1091 H 110.896 -3.16038 -2.05913 0
M  V30 1092 H 113.283 -2.17032 -1.99953 0
M  V30 1093 H 113.364 -2.54352 -0.271814 0
M  V30 1094 H 113.008 -5.01375 -0.81149 0
M  V30 1095 H 112.938 -4.61004 -2.54525 0
M  V30 1096 H 115.429 -3.48441 -1.46277 0
M  V30 1097 H 115.742 -7.34425 -2.405 0
M  V30 1098 H 114.087 -6.60272 -2.16948 0
M  V30 1099 H 117.278 -4.34801 -1.73394 0
M  V30 1100 H 117.451 -6.10805 -2.16381 0
M  V30 1101 N 110.857 0.726932 -1.39834 0
M  V30 1102 C 112.085 1.51613 -1.40787 0
M  V30 1103 C 112.5 1.88799 -0.00451505 0
M  V30 1104 O 111.857 1.54662 0.968809 0
M  V30 1105 C 111.908 2.79863 -2.28821 0
M  V30 1106 O 111.629 2.44253 -3.63692 0
M  V30 1107 C 113.13 3.73837 -2.38245 0
M  V30 1108 H 110.35 0.468264 -0.480593 0
M  V30 1109 H 112.894 0.897607 -1.83748 0
M  V30 1110 H 111.049 3.38027 -1.89252 0
M  V30 1111 H 111.463 3.26695 -4.1033 0
M  V30 1112 H 112.937 4.60699 -3.04073 0
M  V30 1113 H 113.414 4.16153 -1.40403 0
M  V30 1114 H 114.02 3.21589 -2.78317 0
M  V30 1115 N 112.336 1.25143 0.95797 0
M  V30 1116 C 113.583 1.09692 1.70217 0
M  V30 1117 C 113.911 -0.362654 1.91089 0
M  V30 1118 O 113.166 -1.28386 1.47701 0
M  V30 1119 C 113.465 1.79272 3.09187 0
M  V30 1120 C 113.131 3.29196 3.08125 0
M  V30 1121 C 111.793 3.70096 3.07543 0
M  V30 1122 C 114.145 4.24995 3.0171 0
M  V30 1123 C 111.473 5.05213 2.9829 0
M  V30 1124 C 113.825 5.60132 2.93999 0
M  V30 1125 C 112.489 6.00365 2.9175 0
M  V30 1126 H 111.759 0.401393 0.622868 0
M  V30 1127 H 114.406 1.55372 1.11945 0
M  V30 1128 H 112.711 1.26014 3.70982 0
M  V30 1129 H 114.408 1.64773 3.65583 0
M  V30 1130 H 110.998 2.96651 3.09348 0
M  V30 1131 H 115.182 3.9439 3.01281 0
M  V30 1132 H 110.438 5.35569 2.94916 0
M  V30 1133 H 114.612 6.3406 2.87996 0
M  V30 1134 H 112.239 7.05023 2.84336 0
M  V30 1135 N 113.814 -1.1601 1.06675 0
M  V30 1136 C 114.744 -2.22688 0.702307 0
M  V30 1137 C 115.725 -1.67306 -0.307032 0
M  V30 1138 O 116.91 -1.93352 -0.181305 0
M  V30 1139 C 114.04 -3.47178 0.092038 0
M  V30 1140 C 112.994 -4.15477 1.02777 0
M  V30 1141 C 112.32 -5.33963 0.28061 0
M  V30 1142 C 113.62 -4.66019 2.35846 0
M  V30 1143 H 115.314 -2.53429 1.59419 0
M  V30 1144 H 112.86 -1.21813 0.767961 0
M  V30 1145 H 114.813 -4.21037 -0.174814 0
M  V30 1146 H 113.537 -3.15749 -0.834877 0
M  V30 1147 H 112.196 -3.43549 1.27944 0
M  V30 1148 H 111.844 -4.98788 -0.649545 0
M  V30 1149 H 111.544 -5.806 0.904258 0
M  V30 1150 H 113.068 -6.10596 0.021396 0
M  V30 1151 H 114.482 -5.3144 2.15045 0
M  V30 1152 H 112.879 -5.23293 2.93743 0
M  V30 1153 H 113.949 -3.82023 2.98641 0
M  V30 1154 N 115.292 -0.849877 -1.32721 0
M  V30 1155 C 116.224 -0.248332 -2.27851 0
M  V30 1156 C 117.237 0.577218 -1.52224 0
M  V30 1157 O 118.426 0.402489 -1.73903 0
M  V30 1158 C 115.526 0.668107 -3.32249 0
M  V30 1159 C 114.699 -0.120534 -4.37234 0
M  V30 1160 C 113.758 0.720932 -5.21238 0
M  V30 1161 O 112.784 0.156166 -5.68986 0
M  V30 1162 N 113.986 2.03647 -5.43607 0
M  V30 1163 H 116.751 -1.06575 -2.80111 0
M  V30 1164 H 114.312 -0.709395 -1.45531 0
M  V30 1165 H 116.304 1.23627 -3.85355 0
M  V30 1166 H 114.874 1.38621 -2.80184 0
M  V30 1167 H 114.094 -0.870108 -3.84477 0
M  V30 1168 H 115.382 -0.662406 -5.0447 0
M  V30 1169 H 114.78 2.51871 -5.06535 0
M  V30 1170 H 113.337 2.55287 -5.99727 0
M  V30 1171 N 116.77 1.45427 -0.607355 0
M  V30 1172 C 117.995 2.07124 -0.107006 0
M  V30 1173 C 118.42 1.44906 1.19933 0
M  V30 1174 O 117.778 0.541687 1.73019 0
M  V30 1175 C 117.826 3.60595 0.0194119 0
M  V30 1176 O 116.93 3.98285 1.0697 0
M  V30 1177 H 116.271 0.659868 -0.0739597 0
M  V30 1178 H 118.801 1.86683 -0.837297 0
M  V30 1179 H 118.811 4.07419 0.2177 0
M  V30 1180 H 117.486 4.05266 -0.934453 0
M  V30 1181 H 116.063 3.63133 0.847889 0
M  V30 1182 N 118.248 0.346503 1.53744 0
M  V30 1183 C 119.496 -0.248612 2.00565 0
M  V30 1184 C 119.817 -1.5083 1.23593 0
M  V30 1185 O 119.087 -1.92858 0.343912 0
M  V30 1186 H 117.667 -0.0948564 0.740953 0
M  V30 1187 H 120.329 0.468341 1.89189 0
M  V30 1188 H 119.425 -0.488994 3.08245 0
M  V30 1189 N 119.726 -1.57421 0.075193 0
M  V30 1190 C 120.658 -2.09904 -0.920483 0
M  V30 1191 C 121.671 -1.03191 -1.25918 0
M  V30 1192 O 122.86 -1.30695 -1.21577 0
M  V30 1193 C 119.96 -2.54726 -2.23534 0
M  V30 1194 C 119.133 -3.8505 -2.07498 0
M  V30 1195 C 118.192 -4.15929 -3.22319 0
M  V30 1196 O 117.218 -4.85474 -2.9716 0
M  V30 1197 N 118.42 -3.69745 -4.47514 0
M  V30 1198 H 121.185 -2.95954 -0.472359 0
M  V30 1199 H 118.746 -1.61523 -0.110444 0
M  V30 1200 H 120.738 -2.72443 -2.9926 0
M  V30 1201 H 119.308 -1.73795 -2.59835 0
M  V30 1202 H 118.528 -3.76679 -1.16219 0
M  V30 1203 H 119.816 -4.70348 -1.94038 0
M  V30 1204 H 119.214 -3.13569 -4.7084 0
M  V30 1205 H 117.771 -3.92655 -5.20255 0
M  V30 1206 N 121.204 0.198386 -1.56346 0
M  V30 1207 C 122.134 1.24865 -1.9731 0
M  V30 1208 C 123.115 1.47651 -0.844576 0
M  V30 1209 O 124.3 1.59444 -1.10866 0
M  V30 1210 C 121.43 2.59358 -2.30977 0
M  V30 1211 C 120.384 2.5119 -3.46537 0
M  V30 1212 C 119.71 3.89926 -3.65871 0
M  V30 1213 C 121.01 2.03977 -4.80823 0
M  V30 1214 H 122.704 0.908252 -2.85291 0
M  V30 1215 H 120.25 0.435462 -1.37258 0
M  V30 1216 H 122.203 3.33011 -2.58228 0
M  V30 1217 H 120.927 2.95132 -1.39874 0
M  V30 1218 H 119.586 1.79993 -3.19371 0
M  V30 1219 H 119.234 4.23046 -2.72105 0
M  V30 1220 H 118.934 3.85336 -4.4361 0
M  V30 1221 H 120.458 4.65205 -3.95495 0
M  V30 1222 H 121.872 2.67386 -5.07127 0
M  V30 1223 H 120.269 2.10397 -5.62008 0
M  V30 1224 H 121.339 0.992861 -4.74626 0
M  V30 1225 N 122.682 1.50554 0.465978 0
M  V30 1226 C 123.959 1.5232 1.22712 0
M  V30 1227 C 124.339 0.270807 2.09356 0
M  V30 1228 O 123.687 -0.745541 2.15995 0
M  V30 1229 C 123.897 2.82175 2.05374 0
M  V30 1230 C 125.245 3.33033 2.6339 0
M  V30 1231 O 126.269 2.83531 2.15612 0
M  V30 1232 O 125.128 4.19336 3.50456 0
M  V30 1233 H 122.222 0.611183 0.557122 0
M  V30 1234 H 124.768 1.62847 0.477381 0
M  V30 1235 H 123.54 3.64797 1.41558 0
M  V30 1236 H 123.163 2.74675 2.87471 0
M  V30 1237 N 124.16 -0.719506 1.40217 0
M  V30 1238 C 125.437 -1.47221 1.28784 0
M  V30 1239 C 125.817 -2.10883 -0.0956067 0
M  V30 1240 O 125.165 -1.99833 -1.10811 0
M  V30 1241 C 125.375 -2.5111 2.42373 0
M  V30 1242 C 126.723 -3.17053 2.82423 0
M  V30 1243 O 127.747 -2.61429 2.41937 0
M  V30 1244 O 126.606 -4.17742 3.52355 0
M  V30 1245 H 123.7 -0.654491 0.50554 0
M  V30 1246 H 126.246 -0.752014 1.52128 0
M  V30 1247 H 125.018 -2.02556 3.34793 0
M  V30 1248 H 124.641 -3.3067 2.20778 0
M  V30 1249 N 125.638 -1.25649 -0.95132 0
M  V30 1250 C 127.054 -1.02542 -1.223 0
M  V30 1251 C 127.254 0.255715 -1.99871 0
M  V30 1252 O 126.31 0.967558 -2.33226 0
M  V30 1253 C 127.623 -2.25065 -1.99415 0
M  V30 1254 C 129.171 -2.29861 -2.12446 0
M  V30 1255 C 129.646 -3.52048 -2.92961 0
M  V30 1256 N 131.137 -3.52465 -3.00538 0
M  V30 1257 C 131.872 -4.43672 -3.63239 0
M  V30 1258 N 131.368 -5.45157 -4.27523 0
M  V30 1259 N 133.161 -4.31346 -3.60412 0
M  V30 1260 H 125.312 -2.07951 -0.432471 0
M  V30 1261 H 127.575 -0.91339 -0.253816 0
M  V30 1262 H 127.281 -3.18194 -1.49817 0
M  V30 1263 H 127.155 -2.28502 -3.00111 0
M  V30 1264 H 129.542 -1.37252 -2.61239 0
M  V30 1265 H 129.623 -2.3044 -1.11044 0
M  V30 1266 H 129.267 -4.44981 -2.44856 0
M  V30 1267 H 129.197 -3.48715 -3.94596 0
M  V30 1268 H 131.688 -2.79056 -2.54826 0
M  V30 1269 H 132.001 -6.10958 -4.73234 0
M  V30 1270 H 130.346 -5.49025 -4.26141 0
M  V30 1271 H 133.537 -3.51288 -3.09377 0
M  V30 1272 H 133.71 -5.02624 -4.0899 0
M  V30 1273 N 127.117 1.15442 -1.07289 0
M  V30 1274 C 128.047 2.22312 -0.714107 0
M  V30 1275 C 129.028 1.67467 0.298155 0
M  V30 1276 O 130.213 1.93445 0.171048 0
M  V30 1277 C 127.343 3.47124 -0.110448 0
M  V30 1278 C 126.297 4.14926 -1.04979 0
M  V30 1279 C 125.623 5.33807 -0.308924 0
M  V30 1280 C 126.923 4.64762 -2.38314 0
M  V30 1281 H 128.617 2.5258 -1.6076 0
M  V30 1282 H 126.163 1.21404 -0.77441 0
M  V30 1283 H 128.116 4.21124 0.152482 0
M  V30 1284 H 126.84 3.16187 0.81812 0
M  V30 1285 H 125.499 3.42866 -1.29764 0
M  V30 1286 H 125.147 4.99126 0.623084 0
M  V30 1287 H 124.847 5.80113 -0.935036 0
M  V30 1288 H 126.371 6.10576 -0.0537771 0
M  V30 1289 H 127.785 5.30292 -2.1786 0
M  V30 1290 H 126.182 5.21728 -2.96514 0
M  V30 1291 H 127.252 3.80434 -3.00663 0
M  V30 1292 N 128.595 0.856903 1.32268 0
M  V30 1293 C 129.542 0.301172 2.28827 0
M  V30 1294 C 130.512 -0.593104 1.5515 0
M  V30 1295 O 131.697 -0.527537 1.83362 0
M  V30 1296 C 128.837 -0.502523 3.41422 0
M  V30 1297 C 127.95 0.417797 4.29975 0
M  V30 1298 C 127.085 -0.398749 5.29701 0
M  V30 1299 C 126.124 0.518827 6.09897 0
M  V30 1300 N 125.261 -0.260674 7.01616 0
M  V30 1301 H 130.101 1.12983 2.75751 0
M  V30 1302 H 127.638 0.568582 1.35667 0
M  V30 1303 H 129.596 -0.984141 4.05426 0
M  V30 1304 H 128.226 -1.29599 2.95642 0
M  V30 1305 H 127.278 1.01781 3.66531 0
M  V30 1306 H 128.59 1.12191 4.86019 0
M  V30 1307 H 127.744 -0.943435 5.9932 0
M  V30 1308 H 126.483 -1.13622 4.7428 0
M  V30 1309 H 125.488 1.07538 5.39181 0
M  V30 1310 H 126.713 1.25495 6.67404 0
M  V30 1311 H 124.659 -0.981198 6.4862 0
M  V30 1312 H 124.576 0.384364 7.55022 0
M  V30 1313 H 125.844 -0.787014 7.75517 0
M  V30 1314 N 130.073 -1.45103 0.615059 0
M  V30 1315 C 131.036 -2.29025 -0.0895485 0
M  V30 1316 C 132.036 -1.40174 -0.787906 0
M  V30 1317 O 133.226 -1.62217 -0.634933 0
M  V30 1318 C 130.358 -3.21376 -1.13711 0
M  V30 1319 H 131.551 -2.92807 0.648382 0
M  V30 1320 H 129.104 -1.51749 0.374444 0
M  V30 1321 H 129.839 -2.6241 -1.90556 0
M  V30 1322 H 129.624 -3.86834 -0.640475 0
M  V30 1323 H 131.114 -3.84459 -1.63036 0
M  V30 1324 N 131.551 -0.354651 -1.53558 0
M  V30 1325 C 132.514 0.484566 -2.24019 0
M  V30 1326 C 133.514 1.01861 -1.24422 0
M  V30 1327 O 134.704 0.906097 -1.4878 0
M  V30 1328 C 131.836 1.67615 -2.96847 0
M  V30 1329 H 133.029 -0.131843 -2.9961 0
M  V30 1330 H 130.582 -0.106165 -1.55939 0
M  V30 1331 H 131.317 2.33095 -2.25471 0
M  V30 1332 H 131.102 1.30029 -3.69912 0
M  V30 1333 H 132.592 2.27114 -3.50441 0
M  V30 1334 N 133.029 1.57378 -0.0835403 0
M  V30 1335 C 133.959 2.1641 0.87686 0
M  V30 1336 C 134.94 1.09429 1.30228 0
M  V30 1337 O 136.125 1.37516 1.37124 0
M  V30 1338 C 133.255 2.73517 2.14022 0
M  V30 1339 C 132.209 3.85769 1.85381 0
M  V30 1340 C 131.535 4.29529 3.18448 0
M  V30 1341 C 132.835 5.09486 1.14984 0
M  V30 1342 H 134.529 2.96914 0.385059 0
M  V30 1343 H 132.075 1.42823 0.18377 0
M  V30 1344 H 134.028 3.13463 2.81636 0
M  V30 1345 H 132.752 1.90252 2.65465 0
M  V30 1346 H 131.411 3.46345 1.20169 0
M  V30 1347 H 131.059 3.43169 3.67755 0
M  V30 1348 H 130.759 5.05204 3.00071 0
M  V30 1349 H 132.283 4.72099 3.8724 0
M  V30 1350 H 133.697 5.46674 1.72687 0
M  V30 1351 H 132.094 5.90515 1.06826 0
M  V30 1352 H 133.164 4.84724 0.130749 0
M  V30 1353 N 134.507 -0.190092 1.56449 0
M  V30 1354 C 135.918 -0.754312 1.70784 0
M  V30 1355 C 136.269 -1.83631 0.690951 0
M  V30 1356 O 135.394 -2.15868 -0.151604 0
M  V30 1357 C 135.989 -1.37503 3.09642 0
M  V30 1358 C 134.548 -1.88628 3.25725 0
M  V30 1359 C 133.695 -0.758098 2.66736 0
M  V30 1360 H 136.646 0.0350524 1.58661 0
M  V30 1361 H 136.667 -2.2445 3.0725 0
M  V30 1362 H 136.179 -0.587302 3.83631 0
M  V30 1363 H 134.28 -2.70103 2.56661 0
M  V30 1364 H 134.393 -2.04462 4.3328 0
M  V30 1365 H 132.757 -1.17369 2.26046 0
M  V30 1366 H 133.54 0.0174705 3.43296 0
M  V30 1367 N 135.985 -1.50799 -0.457987 0
M  V30 1368 C 136.932 -1.70617 -1.5543 0
M  V30 1369 C 137.902 -0.547562 -1.56815 0
M  V30 1370 O 139.087 -0.779647 -1.74144 0
M  V30 1371 C 136.227 -1.81831 -2.93311 0
M  V30 1372 C 135.34 -3.09278 -3.01615 0
M  V30 1373 C 134.475 -3.11209 -4.30491 0
M  V30 1374 C 133.514 -4.33055 -4.32585 0
M  V30 1375 N 132.651 -4.32652 -5.52952 0
M  V30 1376 H 137.491 -2.64207 -1.37836 0
M  V30 1377 H 135.028 -1.30959 -0.669937 0
M  V30 1378 H 136.986 -1.86314 -3.73287 0
M  V30 1379 H 135.616 -0.916685 -3.0951 0
M  V30 1380 H 134.668 -3.14203 -2.1443 0
M  V30 1381 H 135.98 -3.99233 -2.99022 0
M  V30 1382 H 135.134 -3.14494 -5.18824 0
M  V30 1383 H 133.873 -2.19106 -4.35711 0
M  V30 1384 H 132.878 -4.29969 -3.42647 0
M  V30 1385 H 134.103 -5.264 -4.29046 0
M  V30 1386 H 132.049 -3.43409 -5.58933 0
M  V30 1387 H 131.966 -5.16392 -5.52155 0
M  V30 1388 H 133.234 -4.40101 -6.43375 0
M  V30 1389 N 137.463 0.71206 -1.40597 0
M  V30 1390 C 138.373 1.8562 -1.43466 0
M  V30 1391 C 139.389 1.70902 -0.326902 0
M  V30 1392 O 140.565 1.93105 -0.572043 0
M  V30 1393 C 137.63 3.21451 -1.29884 0
M  V30 1394 C 136.691 3.48398 -2.50833 0
M  V30 1395 C 135.924 4.77749 -2.3789 0
M  V30 1396 O 136.147 5.53089 -1.39459 0
M  V30 1397 O 135.081 5.05111 -3.27333 0
M  V30 1398 H 138.907 1.86155 -2.39958 0
M  V30 1399 H 136.492 0.86295 -1.21957 0
M  V30 1400 H 138.374 4.02579 -1.24531 0
M  V30 1401 H 137.049 3.21636 -0.364997 0
M  V30 1402 H 135.956 2.67265 -2.61763 0
M  V30 1403 H 137.289 3.53014 -3.4299 0
M  V30 1404 N 138.941 1.26152 0.944643 0
M  V30 1405 C 140.171 1.14094 1.72239 0
M  V30 1406 C 140.579 -0.306931 1.86694 0
M  V30 1407 O 139.922 -1.22222 1.3714 0
M  V30 1408 C 139.984 1.73316 3.14963 0
M  V30 1409 C 139.648 3.2239 3.23904 0
M  V30 1410 C 140.645 4.19252 3.07447 0
M  V30 1411 C 138.33 3.62788 3.47405 0
M  V30 1412 C 140.324 5.54491 3.14353 0
M  V30 1413 C 138.011 4.98162 3.53947 0
M  V30 1414 C 139.009 5.93823 3.37436 0
M  V30 1415 O 138.697 7.26732 3.43679 0
M  V30 1416 H 138.429 0.398292 0.546205 0
M  V30 1417 H 140.983 1.67201 1.19301 0
M  V30 1418 H 139.213 1.14667 3.69308 0
M  V30 1419 H 140.902 1.56214 3.74636 0
M  V30 1420 H 141.668 3.8938 2.8915 0
M  V30 1421 H 137.547 2.88816 3.59313 0
M  V30 1422 H 141.091 6.29137 3.01384 0
M  V30 1423 H 136.988 5.27695 3.71763 0
M  V30 1424 H 137.756 7.3496 3.60245 0
M  V30 1425 N 140.419 -1.14872 1.07899 0
M  V30 1426 C 141.696 -1.81928 0.71845 0
M  V30 1427 C 142.076 -1.95417 -0.798455 0
M  V30 1428 O 141.424 -1.50997 -1.715 0
M  V30 1429 C 141.634 -3.17937 1.43935 0
M  V30 1430 C 142.982 -3.93501 1.59506 0
M  V30 1431 O 144.006 -3.27509 1.40058 0
M  V30 1432 O 142.865 -5.1183 1.91551 0
M  V30 1433 H 139.959 -0.78628 0.256305 0
M  V30 1434 H 142.505 -1.21934 1.18026 0
M  V30 1435 H 141.277 -3.0325 2.47295 0
M  V30 1436 H 140.9 -3.85619 0.968687 0
M  V30 1437 N 141.898 -0.863906 -1.31812 0
M  V30 1438 C 143.138 -0.47825 -1.98726 0
M  V30 1439 C 143.502 0.950397 -1.66828 0
M  V30 1440 O 144.703 1.44109 -2.26905 0
M  V30 1441 C 142.974 -0.721134 -3.50049 0
M  V30 1442 S 144.533 -0.434432 -4.36644 0
M  V30 1443 H 141.351 -0.178773 -0.688158 0
M  V30 1444 H 143.953 -1.11862 -1.60334 0
M  V30 1445 H 142.657 -1.75981 -3.70755 0
M  V30 1446 H 142.188 -0.0675315 -3.93342 0
M  V30 1447 H 144.203 0.735786 -4.90714 0
M  V30 1448 N 143.376 1.44774 -0.622745 0
M  V30 1449 C 144.604 2.06487 -0.130722 0
M  V30 1450 C 145.019 1.46476 1.19123 0
M  V30 1451 O 144.376 0.584502 1.72887 0
M  V30 1452 C 144.427 3.615 -0.000807207 0
M  V30 1453 O 144.148 4.19274 -1.27048 0
M  V30 1454 C 145.649 4.40229 0.520898 0
M  V30 1455 H 142.869 0.666704 -0.0758106 0
M  V30 1456 H 145.413 1.85779 -0.854774 0
M  V30 1457 H 143.568 3.81498 0.673643 0
M  V30 1458 H 143.982 5.12622 -1.1099 0
M  V30 1459 H 145.456 5.49144 0.560838 0
M  V30 1460 H 145.933 4.1108 1.54627 0
M  V30 1461 H 146.539 4.25131 -0.120018 0
M  V30 1462 N 144.854 0.36279 1.53368 0
M  V30 1463 C 146.082 -0.228613 2.05633 0
M  V30 1464 C 146.497 -1.42676 1.23649 0
M  V30 1465 O 145.854 -1.80394 0.27647 0
M  V30 1466 C 145.905 -0.624845 3.56059 0
M  V30 1467 O 145.626 0.525675 4.34935 0
M  V30 1468 C 147.127 -1.27493 4.24571 0
M  V30 1469 H 144.347 -0.0407183 0.669763 0
M  V30 1470 H 146.891 0.520352 1.97769 0
M  V30 1471 H 145.046 -1.32373 3.64083 0
M  V30 1472 H 145.46 0.205969 5.24095 0
M  V30 1473 H 146.934 -1.50277 5.31151 0
M  V30 1474 H 147.411 -2.23439 3.78116 0
M  V30 1475 H 148.017 -0.617558 4.20792 0
M  V30 1476 N 146.332 -1.57332 0.0918853 0
M  V30 1477 C 147.242 -2.17368 -0.882505 0
M  V30 1478 C 148.258 -1.14226 -1.31257 0
M  V30 1479 O 149.434 -1.46582 -1.38115 0
M  V30 1480 C 146.499 -2.73962 -2.12476 0
M  V30 1481 C 145.56 -3.92048 -1.7492 0
M  V30 1482 C 144.793 -4.45933 -2.93223 0
M  V30 1483 O 145.016 -3.98764 -4.07852 0
M  V30 1484 O 143.95 -5.36999 -2.71875 0
M  V30 1485 H 147.776 -3.01031 -0.40172 0
M  V30 1486 H 145.361 -1.48813 -0.132291 0
M  V30 1487 H 147.243 -3.10147 -2.85283 0
M  V30 1488 H 145.918 -1.93347 -2.59613 0
M  V30 1489 H 144.825 -3.6068 -0.993025 0
M  V30 1490 H 146.158 -4.74017 -1.32548 0
M  V30 1491 N 147.81 0.181792 -1.56548 0
M  V30 1492 C 148.773 1.20894 -1.94724 0
M  V30 1493 C 149.773 1.37738 -0.829747 0
M  V30 1494 O 150.963 1.35323 -1.09697 0
M  V30 1495 C 148.095 2.57593 -2.23291 0
M  V30 1496 H 149.288 0.882275 -2.86629 0
M  V30 1497 H 146.841 0.423838 -1.50444 0
M  V30 1498 H 147.576 2.95291 -1.34067 0
M  V30 1499 H 147.361 2.46735 -3.04736 0
M  V30 1500 H 148.851 3.31637 -2.53785 0
M  V30 1501 N 149.288 1.51039 0.449983 0
M  V30 1502 C 150.516 1.66869 1.2232 0
M  V30 1503 C 150.931 0.360727 1.85322 0
M  V30 1504 O 150.288 -0.659531 1.70166 0
M  V30 1505 C 150.339 2.77524 2.31652 0
M  V30 1506 O 150.06 4.03252 1.7123 0
M  V30 1507 C 151.561 3.04512 3.2216 0
M  V30 1508 H 148.781 0.560326 0.369155 0
M  V30 1509 H 151.325 1.97385 0.534719 0
M  V30 1510 H 149.48 2.49642 2.96239 0
M  V30 1511 H 149.894 4.64609 2.43389 0
M  V30 1512 H 151.368 3.85551 3.95038 0
M  V30 1513 H 151.845 2.16415 3.8218 0
M  V30 1514 H 152.451 3.34005 2.63288 0
M  V30 1515 N 150.766 -0.704594 1.40972 0
M  V30 1516 C 152.177 -1.28418 1.3552 0
M  V30 1517 C 152.528 -1.96171 0.0339434 0
M  V30 1518 O 151.653 -1.98231 -0.867944 0
M  V30 1519 C 152.248 -2.33528 2.45459 0
M  V30 1520 C 150.807 -2.87085 2.43433 0
M  V30 1521 C 149.954 -1.61007 2.2577 0
M  V30 1522 H 152.905 -0.499963 1.50619 0
M  V30 1523 H 152.926 -3.14619 2.13998 0
M  V30 1524 H 152.438 -1.84187 3.41609 0
M  V30 1525 H 150.539 -3.40626 1.51013 0
M  V30 1526 H 150.652 -3.3813 3.39419 0
M  V30 1527 H 149.016 -1.86482 1.73483 0
M  V30 1528 H 149.799 -1.13675 3.23933 0
M  V30 1529 N 152.244 -1.26651 -0.937939 0
M  V30 1530 C 153.192 -1.08308 -2.05845 0
M  V30 1531 C 154.186 -0.0090757 -1.69398 0
M  V30 1532 O 155.392 -0.166007 -1.79233 0
M  V30 1533 H 151.767 -0.333416 -0.674046 0
M  V30 1534 H 153.738 -2.03261 -2.18467 0
M  V30 1535 C 152.487 -0.736229 -3.39816 0
M  V30 1536 H 151.81 -1.55453 -3.6834 0
M  V30 1537 H 153.25 -0.64769 -4.19024 0
M  V30 1538 C 151.709 0.558824 -3.32233 0
M  V30 1539 O 152.239 1.59621 -3.68624 0
M  V30 1540 N 150.445 0.550657 -2.85335 0
M  V30 1541 H 149.992 -0.293943 -2.55917 0
M  V30 1542 H 149.95 1.41726 -2.80644 0
M  V30 1543 N 153.722 1.14298 -1.08507 0
M  V30 1544 C 155.133 1.66926 -0.836227 0
M  V30 1545 C 155.484 1.85576 0.63686 0
M  V30 1546 O 154.609 1.56767 1.49175 0
M  V30 1547 C 155.204 3.03219 -1.51142 0
M  V30 1548 C 153.763 3.52876 -1.30979 0
M  V30 1549 C 152.91 2.2833 -1.57356 0
M  V30 1550 H 155.861 0.983491 -1.24552 0
M  V30 1551 H 155.882 3.68726 -0.939211 0
M  V30 1552 H 155.394 2.89612 -2.58353 0
M  V30 1553 H 153.495 3.71703 -0.258429 0
M  V30 1554 H 153.608 4.33586 -2.03814 0
M  V30 1555 H 151.972 2.34454 -0.995164 0
M  V30 1556 H 152.755 2.17298 -2.65775 0
M  V30 1557 N 155.201 0.870884 1.31352 0
M  V30 1558 C 156.133 0.28455 2.27427 0
M  V30 1559 C 157.146 -0.552927 1.53123 0
M  V30 1560 O 158.335 -0.374771 1.74521 0
M  V30 1561 C 155.435 -0.615164 3.3327 0
M  V30 1562 C 154.608 0.190079 4.36987 0
M  V30 1563 C 153.667 -0.637917 5.22319 0
M  V30 1564 O 152.693 -0.065626 5.69162 0
M  V30 1565 N 153.895 -1.94973 5.46778 0
M  V30 1566 H 156.66 1.11017 2.7838 0
M  V30 1567 H 154.221 0.732458 1.44384 0
M  V30 1568 H 156.213 -1.1748 3.87273 0
M  V30 1569 H 154.783 -1.34146 2.82354 0
M  V30 1570 H 154.003 0.931165 3.83044 0
M  V30 1571 H 155.291 0.742579 5.03352 0
M  V30 1572 H 154.689 -2.4378 5.10478 0
M  V30 1573 H 153.246 -2.45713 6.03712 0
M  V30 1574 N 156.679 -1.44442 0.630414 0
M  V30 1575 C 157.611 -2.2892 -0.113347 0
M  V30 1576 C 158.624 -1.41243 -0.80959 0
M  V30 1577 O 159.813 -1.65402 -0.671156 0
M  V30 1578 C 156.913 -3.17594 -1.18266 0
M  V30 1579 C 156.086 -4.33682 -0.569073 0
M  V30 1580 C 155.145 -5.03397 -1.53226 0
M  V30 1581 O 154.171 -5.59438 -1.04967 0
M  V30 1582 N 155.373 -5.04783 -2.86661 0
M  V30 1583 H 158.138 -2.93392 0.611636 0
M  V30 1584 H 155.699 -1.54881 0.471523 0
M  V30 1585 H 157.691 -3.61097 -1.82732 0
M  V30 1586 H 156.261 -2.54876 -1.80988 0
M  V30 1587 H 155.481 -3.9338 0.254187 0
M  V30 1588 H 156.769 -5.08608 -0.139767 0
M  V30 1589 H 156.167 -4.60584 -3.28449 0
M  V30 1590 H 154.724 -5.52077 -3.46489 0
M  V30 1591 N 158.157 -0.370918 -1.53173 0
M  V30 1592 C 159.405 0.216673 -2.00935 0
M  V30 1593 C 159.726 1.48845 -1.25977 0
M  V30 1594 O 158.996 1.92286 -0.374551 0
M  V30 1595 H 157.576 0.0830565 -0.742368 0
M  V30 1596 H 160.238 -0.49838 -1.8842 0
M  V30 1597 H 159.334 0.439893 -3.08984 0
M  V30 1598 N 159.635 1.57281 -0.100228 0
M  V30 1599 C 160.545 2.17833 0.870965 0
M  V30 1600 C 161.561 1.14921 1.30649 0
M  V30 1601 O 162.737 1.47313 1.37335 0
M  V30 1602 C 159.802 2.75085 2.1102 0
M  V30 1603 C 158.863 3.9297 1.72838 0
M  V30 1604 C 158.096 4.47482 2.90854 0
M  V30 1605 O 158.319 4.00922 4.05731 0
M  V30 1606 O 157.253 5.38433 2.69023 0
M  V30 1607 H 161.079 3.0124 0.38575 0
M  V30 1608 H 158.664 1.48881 0.124397 0
M  V30 1609 H 160.546 3.11656 2.83634 0
M  V30 1610 H 159.221 1.94721 2.58584 0
M  V30 1611 H 158.128 3.61201 0.973883 0
M  V30 1612 H 159.461 4.74713 1.30033 0
M  V30 1613 N 161.113 -0.173488 1.56642 0
M  V30 1614 C 162.046 -1.24353 1.91342 0
M  V30 1615 C 163.024 -1.4289 0.775965 0
M  V30 1616 O 164.208 -1.57932 1.02907 0
M  V30 1617 C 161.335 -2.60683 2.16245 0
M  V30 1618 C 160.381 -2.58894 3.38934 0
M  V30 1619 S 161.214 -2.0819 4.93373 0
M  V30 1620 C 162.37 -3.46302 5.21369 0
M  V30 1621 H 162.603 -0.947345 2.81803 0
M  V30 1622 H 160.136 -0.377958 1.49703 0
M  V30 1623 H 162.094 -3.39149 2.31275 0
M  V30 1624 H 160.755 -2.87502 1.26496 0
M  V30 1625 H 159.948 -3.59188 3.53553 0
M  V30 1626 H 159.55 -1.88522 3.2301 0
M  V30 1627 H 161.842 -4.42287 5.13214 0
M  V30 1628 H 162.785 -3.3656 6.23003 0
M  V30 1629 H 163.193 -3.42214 4.48943 0
M  V30 1630 N 162.591 -1.51276 -0.441967 0
M  V30 1631 C 163.837 -1.63958 -1.19355 0
M  V30 1632 C 164.17 -0.352543 -1.90973 0
M  V30 1633 O 163.445 0.647627 -1.83401 0
M  V30 1634 C 163.728 -2.83979 -2.21422 0
M  V30 1635 C 163.581 -4.22646 -1.53918 0
M  V30 1636 C 164.9 -2.99521 -3.22451 0
M  V30 1637 H 162.019 -0.596709 -0.432559 0
M  V30 1638 H 164.661 -1.83748 -0.483398 0
M  V30 1639 H 162.811 -2.67237 -2.81987 0
M  V30 1640 H 164.483 -4.51045 -0.967256 0
M  V30 1641 H 162.726 -4.25558 -0.841615 0
M  V30 1642 H 163.397 -5.02609 -2.28229 0
M  V30 1643 H 165.873 -3.14944 -2.71937 0
M  V30 1644 H 164.749 -3.85072 -3.91166 0
M  V30 1645 H 165.01 -2.11391 -3.88287 0
M  V30 1646 N 164.069 0.697108 -1.41344 0
M  V30 1647 C 165.318 1.45279 -1.39918 0
M  V30 1648 C 165.631 1.95597 -0.0109624 0
M  V30 1649 O 166.837 2.71208 0.125919 0
M  V30 1650 C 165.293 2.62695 -2.46007 0
M  V30 1651 C 164.901 2.19169 -3.90729 0
M  V30 1652 C 166.645 3.40336 -2.53715 0
M  V30 1653 C 164.552 3.33535 -4.88373 0
M  V30 1654 H 163.482 0.545692 -0.520323 0
M  V30 1655 H 166.133 0.756929 -1.67161 0
M  V30 1656 H 164.515 3.34541 -2.11892 0
M  V30 1657 H 165.689 1.54623 -4.34083 0
M  V30 1658 H 164.004 1.54525 -3.86666 0
M  V30 1659 H 166.601 4.2547 -3.2385 0
M  V30 1660 H 166.944 3.85418 -1.5735 0
M  V30 1661 H 167.477 2.75546 -2.86913 0
M  V30 1662 H 164.216 2.93468 -5.86137 0
M  V30 1663 H 163.736 3.96936 -4.49668 0
M  V30 1664 H 165.415 3.99335 -5.09059 0
M  V30 1665 N 165.547 1.27147 0.931209 0
M  V30 1666 C 166.958 1.12044 1.49342 0
M  V30 1667 C 167.309 -0.295795 1.93957 0
M  V30 1668 O 166.434 -1.18835 1.80852 0
M  V30 1669 C 167.029 2.02781 2.71414 0
M  V30 1670 C 165.588 1.91794 3.2387 0
M  V30 1671 C 164.735 1.95543 1.96617 0
M  V30 1672 H 167.686 1.40091 0.745672 0
M  V30 1673 H 167.707 1.58156 3.46074 0
M  V30 1674 H 167.219 3.05848 2.38911 0
M  V30 1675 H 165.32 0.916992 3.6114 0
M  V30 1676 H 165.433 2.77852 3.90302 0
M  V30 1677 H 163.797 1.39722 2.12955 0
M  V30 1678 H 164.58 3.00259 1.66432 0
M  V30 1679 N 167.025 -1.13721 1.09112 0
M  V30 1680 C 168.441 -1.36914 0.820174 0
M  V30 1681 C 168.641 -1.93356 -0.567079 0
M  V30 1682 O 167.697 -2.15093 -1.32255 0
M  V30 1683 C 169.01 -2.3235 1.90877 0
M  V30 1684 C 170.558 -2.45973 1.93562 0
M  V30 1685 C 171.033 -3.44714 3.01556 0
M  V30 1686 N 172.524 -3.52263 3.00775 0
M  V30 1687 C 173.259 -4.28536 3.80978 0
M  V30 1688 N 172.755 -5.07991 4.71081 0
M  V30 1689 N 174.548 -4.23804 3.69251 0
M  V30 1690 H 166.699 -0.754348 1.98553 0
M  V30 1691 H 168.962 -0.3944 0.862063 0
M  V30 1692 H 168.668 -1.98027 2.90651 0
M  V30 1693 H 168.542 -3.32332 1.78424 0
M  V30 1694 H 170.929 -2.79584 0.944286 0
M  V30 1695 H 171.01 -1.45926 2.10093 0
M  V30 1696 H 170.654 -3.11835 4.00901 0
M  V30 1697 H 170.584 -4.44558 2.82269 0
M  V30 1698 H 173.075 -2.95567 2.35475 0
M  V30 1699 H 173.388 -5.63487 5.28869 0
M  V30 1700 H 171.733 -5.07235 4.75119 0
M  V30 1701 H 174.924 -3.60806 2.98222 0
M  V30 1702 H 175.097 -4.82995 4.31995 0
M  V30 1703 N 168.503 -0.877838 -1.30888 0
M  V30 1704 C 169.919 -0.570844 -1.49042 0
M  V30 1705 C 170.119 0.893159 -1.80624 0
M  V30 1706 O 169.175 1.67485 -1.88958 0
M  V30 1707 C 170.488 -1.47784 -2.61878 0
M  V30 1708 C 172.036 -1.48071 -2.75761 0
M  V30 1709 C 172.511 -2.37347 -3.91702 0
M  V30 1710 N 174.002 -2.35271 -3.99001 0
M  V30 1711 C 174.737 -3.01063 -4.88004 0
M  V30 1712 N 174.233 -3.76055 -5.81854 0
M  V30 1713 N 176.026 -2.90332 -4.81315 0
M  V30 1714 H 168.177 -1.82502 -1.0866 0
M  V30 1715 H 170.44 -0.780797 -0.537644 0
M  V30 1716 H 170.146 -2.51993 -2.45341 0
M  V30 1717 H 170.02 -1.18215 -3.58197 0
M  V30 1718 H 172.407 -0.446166 -2.91708 0
M  V30 1719 H 172.488 -1.81668 -1.80085 0
M  V30 1720 H 172.132 -3.40883 -3.76512 0
M  V30 1721 H 172.062 -2.01071 -4.86701 0
M  V30 1722 H 174.553 -1.80768 -3.3186 0
M  V30 1723 H 174.866 -4.23366 -6.46514 0
M  V30 1724 H 173.211 -3.80163 -5.81808 0
M  V30 1725 H 176.402 -2.31278 -4.06974 0
M  V30 1726 H 176.575 -3.41885 -5.50471 0
M  V30 1727 N 169.982 1.44106 -0.638065 0
M  V30 1728 C 171.212 2.06037 -0.152394 0
M  V30 1729 C 171.62 1.47808 1.18108 0
M  V30 1730 O 170.963 0.598092 1.73691 0
M  V30 1731 C 171.025 3.59488 0.0293714 0
M  V30 1732 C 170.689 4.4022 -1.22702 0
M  V30 1733 C 171.686 4.73256 -2.15232 0
M  V30 1734 C 169.371 4.8048 -1.46437 0
M  V30 1735 C 171.365 5.45444 -3.29802 0
M  V30 1736 C 169.052 5.52417 -2.61303 0
M  V30 1737 C 170.05 5.84819 -3.52811 0
M  V30 1738 O 169.738 6.55289 -4.65673 0
M  V30 1739 H 169.47 0.671233 -0.0801401 0
M  V30 1740 H 172.024 1.85851 -0.874563 0
M  V30 1741 H 170.254 3.78191 0.806758 0
M  V30 1742 H 171.943 4.03164 0.470475 0
M  V30 1743 H 172.709 4.42684 -1.98131 0
M  V30 1744 H 168.588 4.54676 -0.760977 0
M  V30 1745 H 172.132 5.70653 -4.01249 0
M  V30 1746 H 168.029 5.82404 -2.78344 0
M  V30 1747 H 168.797 6.73762 -4.64744 0
M  V30 1748 N 171.46 0.379036 1.52974 0
M  V30 1749 C 172.39 -0.452706 2.29069 0
M  V30 1750 C 173.371 -1.07237 1.32039 0
M  V30 1751 O 174.556 -1.08708 1.60923 0
M  V30 1752 C 171.686 -1.5856 3.08992 0
M  V30 1753 C 170.64 -1.0925 4.13822 0
M  V30 1754 C 169.966 -2.31668 4.81907 0
M  V30 1755 C 171.266 -0.167702 5.22031 0
M  V30 1756 H 172.96 0.182181 2.98845 0
M  V30 1757 H 170.506 0.0890592 1.43724 0
M  V30 1758 H 172.459 -2.1742 3.6098 0
M  V30 1759 H 171.183 -2.24792 2.36931 0
M  V30 1760 H 169.842 -0.526494 3.628 0
M  V30 1761 H 169.49 -2.96386 4.06404 0
M  V30 1762 H 169.19 -1.9934 5.52754 0
M  V30 1763 H 170.714 -2.91189 5.36695 0
M  V30 1764 H 172.128 -0.664186 5.6944 0
M  V30 1765 H 170.525 0.0653265 6.00064 0
M  V30 1766 H 171.595 0.786347 4.78482 0
M  V30 1767 N 172.938 -1.57226 0.108567 0
M  V30 1768 C 174.163 -1.99604 -0.563303 0
M  V30 1769 C 174.588 -0.987563 -1.6009 0
M  V30 1770 O 173.946 0.0421687 -1.81251 0
M  V30 1771 C 173.994 -3.40902 -1.17552 0
M  V30 1772 O 173.098 -3.42896 -2.2912 0
M  V30 1773 H 172.439 -0.648704 -0.1417 0
M  V30 1774 H 174.969 -2.03679 0.193961 0
M  V30 1775 H 174.979 -3.78886 -1.51357 0
M  V30 1776 H 173.654 -4.1382 -0.415445 0
M  V30 1777 H 172.231 -3.1672 -1.96832 0
M  V30 1778 N 174.416 0.165178 -1.56732 0
M  V30 1779 C 175.664 0.879068 -1.8198 0
M  V30 1780 C 175.985 1.82514 -0.686561 0
M  V30 1781 O 175.255 1.93694 0.293146 0
M  V30 1782 H 173.835 0.327608 -0.671329 0
M  V30 1783 H 176.497 0.163526 -1.94213 0
M  V30 1784 H 175.593 1.45228 -2.76252 0
M  V30 1785 N 175.894 1.51508 0.433938 0
M  V30 1786 C 176.842 1.73646 1.54757 0
M  V30 1787 C 177.836 0.602854 1.5831 0
M  V30 1788 O 179.042 0.784318 1.62014 0
M  V30 1789 H 175.417 0.548718 0.51421 0
M  V30 1790 H 177.388 2.66991 1.33261 0
M  V30 1791 C 176.137 1.88172 2.92381 0
M  V30 1792 H 175.46 2.74808 2.90381 0
M  V30 1793 H 176.9 2.07672 3.6966 0
M  V30 1794 C 175.359 0.64239 3.30719 0
M  V30 1795 O 175.889 -0.201362 4.01195 0
M  V30 1796 N 174.095 0.485489 2.86516 0
M  V30 1797 H 173.642 1.17318 2.29334 0
M  V30 1798 H 173.6 -0.342482 3.12529 0
M  V30 1799 N 177.372 -0.689602 1.41712 0
M  V30 1800 C 178.322 -1.79571 1.40493 0
M  V30 1801 C 179.306 -1.58473 0.278409 0
M  V30 1802 O 180.498 -1.69204 0.519532 0
M  V30 1803 C 177.627 -3.17923 1.29536 0
M  V30 1804 C 176.713 -3.44695 2.47075 0
M  V30 1805 N 177.104 -3.42132 3.72531 0
M  V30 1806 C 175.402 -3.75269 2.41017 0
M  V30 1807 C 176.103 -3.67976 4.50521 0
M  V30 1808 N 175.079 -3.88014 3.80718 0
M  V30 1809 H 178.881 -1.75961 2.35404 0
M  V30 1810 H 176.395 -0.889839 1.35851 0
M  V30 1811 H 178.392 -3.97167 1.26745 0
M  V30 1812 H 177.052 -3.22741 0.356153 0
M  V30 1813 H 178.063 -3.22375 4.05333 0
M  V30 1814 H 174.74 -3.87421 1.55599 0
M  V30 1815 H 176.13 -3.7208 5.59469 0
M  V30 1816 N 178.85 -1.27639 -0.924453 0
M  V30 1817 C 180.098 -1.13941 -1.66918 0
M  V30 1818 C 180.419 0.314589 -1.92446 0
M  V30 1819 O 179.689 1.21964 -1.53303 0
M  V30 1820 H 178.269 -0.418678 -0.618642 0
M  V30 1821 H 180.931 -1.60213 -1.10985 0
M  V30 1822 H 180.027 -1.67094 -2.63602 0
M  V30 1823 N 180.328 1.1314 -1.09713 0
M  V30 1824 C 181.739 1.66029 -0.853885 0
M  V30 1825 C 182.09 1.86241 0.617142 0
M  V30 1826 O 181.215 1.5834 1.47503 0
M  V30 1827 C 181.81 3.01599 -1.5435 0
M  V30 1828 C 180.369 3.51467 -1.34714 0
M  V30 1829 C 179.516 2.26648 -1.59769 0
M  V30 1830 H 182.467 0.970226 -1.25588 0
M  V30 1831 H 182.488 3.67709 -0.978267 0
M  V30 1832 H 182 2.86856 -2.6141 0
M  V30 1833 H 180.101 3.71408 -0.297838 0
M  V30 1834 H 180.214 4.314 -2.08401 0
M  V30 1835 H 178.578 2.33385 -1.01998 0
M  V30 1836 H 179.361 2.14467 -2.68065 0
M  V30 1837 N 181.806 0.884767 1.30421 0
M  V30 1838 C 183.052 0.503851 1.96441 0
M  V30 1839 C 183.385 -0.944518 1.69684 0
M  V30 1840 O 182.66 -1.66737 1.00145 0
M  V30 1841 C 182.943 0.779085 3.51571 0
M  V30 1842 C 182.796 2.27807 3.87846 0
M  V30 1843 C 184.115 0.255452 4.39358 0
M  V30 1844 H 181.234 0.184533 0.713524 0
M  V30 1845 H 183.876 1.10872 1.54297 0
M  V30 1846 H 182.026 0.264274 3.876 0
M  V30 1847 H 183.698 2.86127 3.61841 0
M  V30 1848 H 181.941 2.74479 3.35922 0
M  V30 1849 H 182.612 2.42125 4.96064 0
M  V30 1850 H 185.088 0.696079 4.10236 0
M  V30 1851 H 183.964 0.477361 5.4682 0
M  V30 1852 H 184.225 -0.843293 4.33983 0
M  V30 1853 N 183.284 -1.43765 0.645699 0
M  V30 1854 C 184.232 -2.32516 -0.0624849 0
M  V30 1855 C 185.226 -1.48183 -0.820855 0
M  V30 1856 O 186.432 -1.64439 -0.732106 0
M  V30 1857 H 182.807 -0.750989 -0.0389864 0
M  V30 1858 H 184.778 -2.89979 0.703892 0
M  V30 1859 C 183.527 -3.32389 -1.02044 0
M  V30 1860 H 182.85 -3.97301 -0.446312 0
M  V30 1861 H 184.29 -3.97138 -1.48517 0
M  V30 1862 C 182.749 -2.62416 -2.11281 0
M  V30 1863 O 183.279 -2.434 -3.19561 0
M  V30 1864 N 181.485 -2.21913 -1.87624 0
M  V30 1865 H 181.032 -2.37578 -0.995703 0
M  V30 1866 H 180.99 -1.75424 -2.6091 0
M  V30 1867 N 184.763 -0.387143 -1.52771 0
M  V30 1868 C 186.174 0.0873634 -1.86495 0
M  V30 1869 C 186.525 1.46336 -1.30691 0
M  V30 1870 O 185.65 2.068 -0.637409 0
M  V30 1871 C 186.245 0.165305 -3.38396 0
M  V30 1872 C 184.804 0.584101 -3.7184 0
M  V30 1873 C 183.951 -0.255279 -2.76122 0
M  V30 1874 H 186.902 -0.605104 -1.46711 0
M  V30 1875 H 186.923 0.984848 -3.67534 0
M  V30 1876 H 186.435 -0.836301 -3.78982 0
M  V30 1877 H 184.536 1.59315 -3.36823 0
M  V30 1878 H 184.649 0.343749 -4.77865 0
M  V30 1879 H 183.013 0.279126 -2.53166 0
M  V30 1880 H 183.796 -1.25482 -3.19545 0
M  V30 1881 N 186.241 1.57166 -0.116904 0
M  V30 1882 C 187.518 1.86645 0.585049 0
M  V30 1883 C 187.898 1.0177 1.84949 0
M  V30 1884 O 187.246 0.0960379 2.28298 0
M  V30 1885 C 187.456 3.37736 0.879507 0
M  V30 1886 C 188.804 4.06289 1.23348 0
M  V30 1887 O 189.828 3.42743 0.969836 0
M  V30 1888 O 188.687 5.18455 1.7282 0
M  V30 1889 H 185.781 0.772593 0.295007 0
M  V30 1890 H 188.327 1.69025 -0.151249 0
M  V30 1891 H 187.099 3.91296 -0.0166136 0
M  V30 1892 H 186.722 3.6078 1.67103 0
M  V30 1893 N 187.719 -0.156864 1.56817 0
M  V30 1894 C 188.949 -0.885031 1.86684 0
M  V30 1895 C 189.357 -1.75696 0.701954 0
M  V30 1896 O 188.7 -1.80569 -0.337732 0
M  V30 1897 C 188.762 -1.80092 3.11138 0
M  V30 1898 C 188.426 -1.10714 4.43386 0
M  V30 1899 C 189.423 -0.465714 5.1781 0
M  V30 1900 C 187.108 -1.09959 4.90117 0
M  V30 1901 C 189.102 0.174002 6.37162 0
M  V30 1902 C 186.789 -0.456055 6.09396 0
M  V30 1903 C 187.787 0.179622 6.82764 0
M  V30 1904 O 187.475 0.812975 7.99779 0
M  V30 1905 H 187.207 -0.261813 0.623242 0
M  V30 1906 H 189.761 -0.157383 2.04796 0
M  V30 1907 H 187.991 -2.56926 2.89009 0
M  V30 1908 H 189.68 -2.40018 3.27332 0
M  V30 1909 H 190.446 -0.463427 4.82781 0
M  V30 1910 H 186.325 -1.58378 4.3294 0
M  V30 1911 H 189.869 0.670765 6.94368 0
M  V30 1912 H 185.766 -0.455975 6.43888 0
M  V30 1913 H 186.534 0.71366 8.15383 0
M  V30 1914 N 189.197 -1.51736 -0.425897 0
M  V30 1915 C 190.107 -1.76738 -1.54275 0
M  V30 1916 C 191.123 -0.65211 -1.61318 0
M  V30 1917 O 192.299 -0.935654 -1.78346 0
M  V30 1918 C 189.364 -1.89755 -2.90162 0
M  V30 1919 C 188.425 -3.13633 -2.93143 0
M  V30 1920 C 187.658 -3.2602 -4.22548 0
M  V30 1921 O 187.881 -2.44067 -5.15546 0
M  V30 1922 O 186.815 -4.19071 -4.32046 0
M  V30 1923 H 190.641 -2.71502 -1.36089 0
M  V30 1924 H 188.226 -1.36376 -0.610069 0
M  V30 1925 H 190.108 -2.00236 -3.70788 0
M  V30 1926 H 188.783 -0.981785 -3.08452 0
M  V30 1927 H 187.69 -3.08622 -2.11431 0
M  V30 1928 H 189.023 -4.04936 -2.798 0
M  V30 1929 N 190.675 0.682077 -1.42076 0
M  V30 1930 C 192.086 1.26246 -1.37546 0
M  V30 1931 C 192.437 1.96092 -0.0651481 0
M  V30 1932 O 191.562 1.99587 0.836297 0
M  V30 1933 C 192.157 2.29594 -2.49143 0
M  V30 1934 C 190.716 2.83175 -2.47969 0
M  V30 1935 C 189.863 1.57395 -2.28303 0
M  V30 1936 H 192.814 0.475937 -1.51395 0
M  V30 1937 H 192.835 3.11175 -2.18976 0
M  V30 1938 H 192.347 1.78729 -3.44496 0
M  V30 1939 H 190.448 3.3818 -1.56413 0
M  V30 1940 H 190.561 3.32687 -3.44755 0
M  V30 1941 H 188.925 1.83699 -1.76428 0
M  V30 1942 H 189.708 1.08507 -3.25701 0
M  V30 1943 N 192.153 1.28127 0.917671 0
M  V30 1944 C 193.399 1.15223 1.66888 0
M  V30 1945 C 193.732 -0.299293 1.9188 0
M  V30 1946 O 193.007 -1.21805 1.51637 0
M  V30 1947 C 193.29 1.94706 3.02922 0
M  V30 1948 C 193.143 3.47898 2.85109 0
M  V30 1949 C 194.462 1.75939 4.03402 0
M  V30 1950 H 191.581 0.419946 0.605652 0
M  V30 1951 H 194.223 1.57398 1.06423 0
M  V30 1952 H 192.373 1.58864 3.54534 0
M  V30 1953 H 194.045 3.93624 2.40537 0
M  V30 1954 H 192.288 3.7373 2.20246 0
M  V30 1955 H 192.959 3.98765 3.81694 0
M  V30 1956 H 195.435 2.07209 3.60837 0
M  V30 1957 H 194.311 2.33931 4.96556 0
M  V30 1958 H 194.572 0.709877 4.36364 0
M  V30 1959 N 193.631 -1.12557 1.10312 0
M  V30 1960 C 194.877 -1.84311 0.846011 0
M  V30 1961 C 195.21 -1.83805 -0.626859 0
M  V30 1962 O 194.485 -1.28268 -1.46211 0
M  V30 1963 C 194.768 -3.32048 1.39341 0
M  V30 1964 C 194.621 -3.41016 2.93305 0
M  V30 1965 C 195.94 -4.27764 1.03468 0
M  V30 1966 H 193.059 -0.669192 0.30879 0
M  V30 1967 H 195.701 -1.32057 1.36605 0
M  V30 1968 H 193.851 -3.76678 0.951087 0
M  V30 1969 H 195.523 -3.05031 3.46055 0
M  V30 1970 H 193.766 -2.81603 3.29973 0
M  V30 1971 H 194.437 -4.44948 3.26689 0
M  V30 1972 H 196.913 -3.91253 1.41633 0
M  V30 1973 H 195.789 -5.29549 1.44463 0
M  V30 1974 H 196.05 -4.42064 -0.0560404 0
M  V30 1975 N 195.109 -0.891671 -1.2995 0
M  V30 1976 C 196.337 -0.52866 -2.00032 0
M  V30 1977 C 196.752 0.884574 -1.66795 0
M  V30 1978 O 196.109 1.5827 -0.908669 0
M  V30 1979 C 196.16 -0.701814 -3.54622 0
M  V30 1980 O 195.881 -2.05942 -3.86678 0
M  V30 1981 C 197.382 -0.342683 -4.41973 0
M  V30 1982 H 194.602 -0.203659 -0.639347 0
M  V30 1983 H 197.146 -1.19881 -1.65677 0
M  V30 1984 H 195.301 -0.0789468 -3.8732 0
M  V30 1985 H 195.715 -2.08291 -4.81368 0
M  V30 1986 H 197.189 -0.514709 -5.49595 0
M  V30 1987 H 197.666 0.71975 -4.33262 0
M  V30 1988 H 198.272 -0.942154 -4.14733 0
M  V30 1989 N 196.587 1.43421 -0.653314 0
M  V30 1990 C 197.517 2.33487 0.0246656 0
M  V30 1991 C 198.498 1.49475 0.811863 0
M  V30 1992 O 199.683 1.78139 0.773322 0
M  V30 1993 C 196.813 3.32841 0.99166 0
M  V30 1994 C 195.767 4.26842 0.314568 0
M  V30 1995 C 195.093 5.16236 1.39302 0
M  V30 1996 C 196.393 5.16243 -0.793095 0
M  V30 1997 H 198.087 2.90427 -0.727481 0
M  V30 1998 H 195.633 1.39649 -0.351287 0
M  V30 1999 H 197.586 3.94747 1.47487 0
M  V30 2000 H 196.31 2.74158 1.77497 0
M  V30 2001 H 194.969 3.663 -0.148199 0
M  V30 2002 H 194.617 4.53891 2.16776 0
M  V30 2003 H 194.317 5.79948 0.945223 0
M  V30 2004 H 195.841 5.81015 1.87759 0
M  V30 2005 H 197.255 5.71958 -0.392039 0
M  V30 2006 H 195.652 5.88676 -1.16536 0
M  V30 2007 H 196.722 4.55927 -1.65103 0
M  V30 2008 N 198.065 0.39524 1.52563 0
M  V30 2009 C 199.295 -0.184675 2.05773 0
M  V30 2010 C 199.703 -1.40571 1.26635 0
M  V30 2011 O 199.046 -1.81105 0.30769 0
M  V30 2012 C 199.108 -0.613551 3.54226 0
M  V30 2013 C 198.772 0.49484 4.54313 0
M  V30 2014 C 199.769 1.3541 5.01956 0
M  V30 2015 C 197.454 0.663565 4.97898 0
M  V30 2016 C 199.448 2.36716 5.91814 0
M  V30 2017 C 197.135 1.67996 5.87555 0
M  V30 2018 C 198.133 2.53017 6.34406 0
M  V30 2019 O 197.821 3.52917 7.22291 0
M  V30 2020 H 197.553 -0.030077 0.675331 0
M  V30 2021 H 200.107 0.560708 1.97599 0
M  V30 2022 H 198.337 -1.411 3.60038 0
M  V30 2023 H 200.026 -1.11981 3.90148 0
M  V30 2024 H 200.792 1.23509 4.6901 0
M  V30 2025 H 196.671 0.0114913 4.60999 0
M  V30 2026 H 200.215 3.03113 6.28306 0
M  V30 2027 H 196.112 1.79933 6.19915 0
M  V30 2028 H 196.88 3.48996 7.40367 0
M  V30 2029 N 199.544 -1.57102 0.125237 0
M  V30 2030 C 200.96 -1.57915 -0.231322 0
M  V30 2031 C 201.16 -1.13833 -1.66266 0
M  V30 2032 O 200.216 -0.828581 -2.38518 0
M  V30 2033 C 201.529 -3.00699 0.00766489 0
M  V30 2034 C 203.077 -3.12947 -0.0577483 0
M  V30 2035 C 203.552 -4.57742 0.153626 0
M  V30 2036 N 205.043 -4.63092 0.0998073 0
M  V30 2037 C 205.778 -5.72905 0.238174 0
M  V30 2038 N 205.274 -6.91445 0.433057 0
M  V30 2039 N 207.067 -5.6182 0.177308 0
M  V30 2040 H 199.218 -1.84055 1.06007 0
M  V30 2041 H 201.481 -0.850905 0.417929 0
M  V30 2042 H 201.187 -3.3726 0.997431 0
M  V30 2043 H 201.061 -3.70236 -0.721452 0
M  V30 2044 H 203.448 -2.7624 -1.03804 0
M  V30 2045 H 203.529 -2.4594 0.70335 0
M  V30 2046 H 203.173 -4.95149 1.13092 0
M  V30 2047 H 203.103 -5.22848 -0.627534 0
M  V30 2048 H 205.594 -3.77871 -0.047051 0
M  V30 2049 H 205.907 -7.70985 0.529332 0
M  V30 2050 H 204.252 -6.93415 0.469109 0
M  V30 2051 H 207.443 -4.68093 0.0259748 0
M  V30 2052 H 207.616 -6.47357 0.288582 0
M  V30 2053 N 201.022 0.148545 -1.56898 0
M  V30 2054 C 202.299 0.890019 -1.74178 0
M  V30 2055 C 202.679 1.99407 -0.692839 0
M  V30 2056 O 202.027 2.26671 0.288505 0
M  V30 2057 C 202.237 1.43389 -3.18183 0
M  V30 2058 C 203.585 1.89791 -3.79822 0
M  V30 2059 O 204.609 1.53134 -3.21603 0
M  V30 2060 O 203.468 2.57387 -4.82093 0
M  V30 2061 H 200.562 0.420496 -0.712118 0
M  V30 2062 H 203.108 0.134591 -1.69165 0
M  V30 2063 H 201.88 0.640383 -3.86024 0
M  V30 2064 H 201.503 2.25287 -3.27615 0
M  V30 2065 N 202.5 1.5196 0.417844 0
M  V30 2066 C 203.747 1.65591 1.16559 0
M  V30 2067 C 204.075 0.381565 1.90721 0
M  V30 2068 O 203.33 -0.635156 1.85106 0
M  V30 2069 C 203.629 2.82269 2.19223 0
M  V30 2070 C 203.295 4.20819 1.61933 0
M  V30 2071 C 201.957 4.58506 1.46033 0
M  V30 2072 C 204.309 5.07196 1.20008 0
M  V30 2073 C 201.637 5.80257 0.867113 0
M  V30 2074 C 203.989 6.29544 0.621086 0
M  V30 2075 C 202.653 6.65987 0.449144 0
M  V30 2076 H 201.923 0.605939 0.42652 0
M  V30 2077 H 204.57 1.86041 0.45397 0
M  V30 2078 H 202.875 2.56118 2.96498 0
M  V30 2079 H 204.572 2.90012 2.76936 0
M  V30 2080 H 201.162 3.91116 1.7529 0
M  V30 2081 H 205.346 4.7867 1.31105 0
M  V30 2082 H 200.602 6.07124 0.721833 0
M  V30 2083 H 204.776 6.95805 0.287798 0
M  V30 2084 H 202.403 7.60199 -0.012632 0
M  V30 2085 N 203.978 -0.674533 1.42435 0
M  V30 2086 C 204.888 -1.81751 1.48337 0
M  V30 2087 C 205.904 -1.69975 0.372099 0
M  V30 2088 O 207.08 -1.91521 0.62304 0
M  V30 2089 C 204.145 -3.17895 1.38361 0
M  V30 2090 C 203.206 -3.41625 2.59982 0
M  V30 2091 C 202.439 -4.71274 2.50473 0
M  V30 2092 O 202.662 -5.49197 1.54075 0
M  V30 2093 O 201.596 -4.96254 3.4061 0
M  V30 2094 H 205.422 -1.79728 2.44809 0
M  V30 2095 H 203.007 -0.830312 1.24202 0
M  V30 2096 H 204.889 -3.99136 1.35161 0
M  V30 2097 H 203.564 -3.20555 0.450144 0
M  V30 2098 H 202.471 -2.60231 2.68757 0
M  V30 2099 H 203.804 -3.43796 3.52229 0
M  V30 2100 N 205.456 -1.28612 -0.910864 0
M  V30 2101 C 206.403 -1.12786 -2.01365 0
M  V30 2102 C 207.373 -0.024201 -1.66082 0
M  V30 2103 O 208.558 -0.189667 -1.89855 0
M  V30 2104 C 205.698 -0.798743 -3.35729 0
M  V30 2105 C 204.811 -1.98173 -3.83864 0
M  V30 2106 C 203.946 -1.59298 -5.06752 0
M  V30 2107 C 202.985 -2.74245 -5.47226 0
M  V30 2108 N 202.122 -2.35842 -6.61304 0
M  V30 2109 H 206.962 -2.07142 -2.14234 0
M  V30 2110 H 204.499 -1.03093 -1.0493 0
M  V30 2111 H 206.457 -0.588662 -4.13026 0
M  V30 2112 H 205.087 0.10789 -3.2262 0
M  V30 2113 H 204.139 -2.30386 -3.02699 0
M  V30 2114 H 205.451 -2.84343 -4.09818 0
M  V30 2115 H 204.605 -1.34513 -5.916 0
M  V30 2116 H 203.344 -0.702618 -4.82612 0
M  V30 2117 H 202.349 -2.99725 -4.60918 0
M  V30 2118 H 203.574 -3.63928 -5.73353 0
M  V30 2119 H 201.52 -1.49279 -6.38789 0
M  V30 2120 H 201.437 -3.15546 -6.86998 0
M  V30 2121 H 202.705 -2.14348 -7.4945 0
M  V30 2122 N 206.934 1.1197 -1.10907 0
M  V30 2123 C 208.183 1.82947 -0.849302 0
M  V30 2124 C 208.496 1.85275 0.627112 0
M  V30 2125 O 209.702 2.52296 1.00295 0
M  V30 2126 C 208.158 3.28529 -1.46959 0
M  V30 2127 C 207.766 3.34546 -2.97965 0
M  V30 2128 C 209.51 4.04443 -1.28942 0
M  V30 2129 C 207.417 4.74491 -3.53004 0
M  V30 2130 H 206.347 0.685477 -0.314065 0
M  V30 2131 H 208.998 1.2604 -1.33365 0
M  V30 2132 H 207.38 3.85333 -0.912917 0
M  V30 2133 H 208.554 2.87654 -3.59989 0
M  V30 2134 H 206.869 2.72108 -3.15192 0
M  V30 2135 H 209.466 5.07787 -1.67502 0
M  V30 2136 H 209.809 4.15656 -0.231456 0
M  V30 2137 H 210.342 3.5401 -1.81443 0
M  V30 2138 H 207.081 4.68474 -4.58489 0
M  V30 2139 H 206.601 5.21816 -2.9575 0
M  V30 2140 H 208.28 5.4344 -3.51115 0
M  V30 2141 N 208.412 0.89855 1.29475 0
M  V30 2142 C 209.637 0.538561 2.00285 0
M  V30 2143 C 210.062 -0.869135 1.66816 0
M  V30 2144 O 209.42 -1.57831 0.892145 0
M  V30 2145 C 209.468 0.736475 3.52999 0
M  V30 2146 O 208.572 -0.211537 4.11857 0
M  V30 2147 H 207.913 0.210563 0.62973 0
M  V30 2148 H 210.443 1.20982 1.64998 0
M  V30 2149 H 210.453 0.640685 4.02938 0
M  V30 2150 H 209.128 1.76276 3.76696 0
M  V30 2151 H 207.705 -0.0682991 3.72837 0
M  V30 2152 N 209.89 -1.43072 0.660911 0
M  V30 2153 C 210.853 -2.29194 -0.0166406 0
M  V30 2154 C 211.853 -1.42609 -0.742912 0
M  V30 2155 O 213.043 -1.64155 -0.583004 0
M  V30 2156 C 210.175 -3.24831 -1.0343 0
M  V30 2157 H 211.368 -2.90596 0.741208 0
M  V30 2158 H 208.921 -1.5048 0.422532 0
M  V30 2159 H 209.656 -2.68339 -1.82111 0
M  V30 2160 H 209.441 -3.88676 -0.517082 0
M  V30 2161 H 210.931 -3.89451 -1.50723 0
M  V30 2162 N 211.368 -0.403325 -1.52352 0
M  V30 2163 C 212.596 0.174012 -2.06167 0
M  V30 2164 C 213.011 1.39347 -1.27388 0
M  V30 2165 O 212.368 1.79597 -0.324201 0
M  V30 2166 C 212.419 0.530223 -3.5759 0
M  V30 2167 O 212.14 -0.640806 -4.33388 0
M  V30 2168 C 213.641 1.16192 -4.27802 0
M  V30 2169 H 210.861 0.0229464 -0.670608 0
M  V30 2170 H 213.405 -0.572604 -1.9632 0
M  V30 2171 H 211.56 1.22673 -3.67464 0
M  V30 2172 H 211.974 -0.344851 -5.23365 0
M  V30 2173 H 213.448 1.36141 -5.34948 0
M  V30 2174 H 213.925 2.13335 -3.83907 0
M  V30 2175 H 214.531 0.505775 -4.22282 0
M  V30 2176 N 212.846 1.57033 -0.133567 0
M  V30 2177 C 213.776 2.1909 0.807567 0
M  V30 2178 C 214.757 1.13517 1.26681 0
M  V30 2179 O 215.942 1.41809 1.32679 0
M  V30 2180 C 213.072 2.80188 2.05212 0
M  V30 2181 C 212.026 3.91471 1.73015 0
M  V30 2182 C 211.352 4.39443 3.04622 0
M  V30 2183 C 212.652 5.12886 0.987168 0
M  V30 2184 H 214.346 2.97988 0.290403 0
M  V30 2185 H 211.892 1.43335 0.138239 0
M  V30 2186 H 213.845 3.22264 2.71521 0
M  V30 2187 H 212.569 1.98601 2.59278 0
M  V30 2188 H 211.228 3.49993 1.0909 0
M  V30 2189 H 210.876 3.54695 3.56651 0
M  V30 2190 H 210.576 5.14495 2.83847 0
M  V30 2191 H 212.1 4.8418 3.72024 0
M  V30 2192 H 213.514 5.51891 1.55208 0
M  V30 2193 H 211.911 5.93615 0.87985 0
M  V30 2194 H 212.981 4.84894 -0.0235286 0
M  V30 2195 N 214.325 -0.140222 1.56975 0
M  V30 2196 C 215.573 -0.850005 1.83356 0
M  V30 2197 C 215.894 -1.81399 0.71551 0
M  V30 2198 O 215.164 -1.94136 -0.262294 0
M  V30 2199 H 213.744 -0.316886 0.676456 0
M  V30 2200 H 216.406 -0.132608 1.94448 0
M  V30 2201 H 215.502 -1.40814 2.78528 0
M  V30 2202 N 215.803 -1.52179 -0.40978 0
M  V30 2203 C 216.751 -1.76086 -1.51975 0
M  V30 2204 C 217.745 -0.627964 -1.57331 0
M  V30 2205 O 218.951 -0.809993 -1.60745 0
M  V30 2206 H 215.326 -0.556829 -0.505416 0
M  V30 2207 H 217.297 -2.69077 -1.28996 0
M  V30 2208 C 216.046 -1.92799 -2.8935 0
M  V30 2209 H 215.369 -2.79392 -2.85972 0
M  V30 2210 H 216.809 -2.13527 -3.66309 0
M  V30 2211 C 215.268 -0.694923 -3.29655 0
M  V30 2212 O 215.798 0.13751 -4.01465 0
M  V30 2213 N 214.004 -0.53101 -2.85707 0
M  V30 2214 H 213.551 -1.20952 -2.27439 0
M  V30 2215 H 213.509 0.292718 -3.13034 0
M  V30 2216 N 217.281 0.66697 -1.42791 0
M  V30 2217 C 218.211 1.79218 -1.49677 0
M  V30 2218 C 219.192 1.66405 -0.352623 0
M  V30 2219 O 220.377 1.85708 -0.567993 0
M  V30 2220 C 217.507 3.17565 -1.40605 0
M  V30 2221 C 216.461 3.45124 -2.53127 0
M  V30 2222 C 215.787 4.83127 -2.29112 0
M  V30 2223 C 217.087 3.41236 -3.95418 0
M  V30 2224 H 218.781 1.73713 -2.43853 0
M  V30 2225 H 216.327 0.83432 -1.17367 0
M  V30 2226 H 218.28 3.96022 -1.44029 0
M  V30 2227 H 217.004 3.23767 -0.429271 0
M  V30 2228 H 215.663 2.69031 -2.49034 0
M  V30 2229 H 215.311 4.85988 -1.29709 0
M  V30 2230 H 215.011 5.02528 -3.04531 0
M  V30 2231 H 216.535 5.63859 -2.34297 0
M  V30 2232 H 217.949 4.09651 -4.01073 0
M  V30 2233 H 216.346 3.72173 -4.70752 0
M  V30 2234 H 217.416 2.39665 -4.21532 0
M  V30 2235 N 218.759 1.29093 0.90403 0
M  V30 2236 C 219.989 1.19516 1.68522 0
M  V30 2237 C 220.397 -0.24738 1.87576 0
M  V30 2238 O 219.74 -1.17798 1.40959 0
M  V30 2239 C 219.802 1.83249 3.0929 0
M  V30 2240 C 219.466 3.32531 3.13484 0
M  V30 2241 C 220.463 4.28821 2.93953 0
M  V30 2242 C 218.148 3.73656 3.35688 0
M  V30 2243 C 220.142 5.64212 2.96553 0
M  V30 2244 C 217.829 5.0917 3.37919 0
M  V30 2245 C 218.827 6.04258 3.18373 0
M  V30 2246 O 218.515 7.37298 3.20385 0
M  V30 2247 H 218.247 0.415467 0.533257 0
M  V30 2248 H 220.801 1.70912 1.13922 0
M  V30 2249 H 219.031 1.26358 3.65473 0
M  V30 2250 H 220.72 1.68054 3.69476 0
M  V30 2251 H 221.486 3.98382 2.76616 0
M  V30 2252 H 217.365 3.00101 3.49943 0
M  V30 2253 H 220.909 6.38407 2.81216 0
M  V30 2254 H 216.806 5.39256 3.54787 0
M  V30 2255 H 217.574 7.46048 3.36681 0
M  V30 2256 N 220.237 -1.11381 1.11499 0
M  V30 2257 C 221.483 -1.83403 0.865512 0
M  V30 2258 C 221.816 -1.84459 -0.607329 0
M  V30 2259 O 221.091 -1.29811 -1.44842 0
M  V30 2260 C 221.374 -3.30552 1.42855 0
M  V30 2261 C 221.227 -3.37886 2.96906 0
M  V30 2262 C 222.546 -4.26643 1.08 0
M  V30 2263 H 219.665 -0.665879 0.31587 0
M  V30 2264 H 222.307 -1.30601 1.37998 0
M  V30 2265 H 220.457 -3.75648 0.990985 0
M  V30 2266 H 222.129 -3.01343 3.49271 0
M  V30 2267 H 220.372 -2.78088 3.32941 0
M  V30 2268 H 221.043 -4.41458 3.31389 0
M  V30 2269 H 223.519 -3.89729 1.45775 0
M  V30 2270 H 222.395 -5.27986 1.50072 0
M  V30 2271 H 222.656 -4.42099 -0.00915037 0
M  V30 2272 N 221.715 -0.905404 -1.28997 0
M  V30 2273 C 222.678 -0.392253 -2.25819 0
M  V30 2274 C 223.678 0.476753 -1.5357 0
M  V30 2275 O 224.868 0.280994 -1.71919 0
M  V30 2276 C 222 0.438588 -3.38067 0
M  V30 2277 H 223.193 -1.24743 -2.72725 0
M  V30 2278 H 220.746 -0.684051 -1.40536 0
M  V30 2279 H 221.481 1.31352 -2.96508 0
M  V30 2280 H 221.266 -0.184167 -3.91667 0
M  V30 2281 H 222.756 0.78873 -4.10084 0
M  V30 2282 N 223.193 1.4272 -0.668489 0
M  V30 2283 C 224.421 2.05966 -0.196348 0
M  V30 2284 C 224.836 1.50191 1.14403 0
M  V30 2285 O 224.193 0.639208 1.7094 0
M  V30 2286 C 224.244 3.61314 -0.115815 0
M  V30 2287 O 223.965 4.1502 -1.40322 0
M  V30 2288 C 225.466 4.41663 0.380579 0
M  V30 2289 H 222.686 0.663954 -0.0969829 0
M  V30 2290 H 225.23 1.82966 -0.913446 0
M  V30 2291 H 223.385 3.83448 0.551931 0
M  V30 2292 H 223.799 5.08832 -1.27243 0
M  V30 2293 H 225.273 5.5065 0.385848 0
M  V30 2294 H 225.75 4.15792 1.41471 0
M  V30 2295 H 226.356 4.24534 -0.255209 0
M  V30 2296 N 224.671 0.411399 1.52136 0
M  V30 2297 C 225.919 -0.163322 2.01439 0
M  V30 2298 C 226.24 -1.45453 1.29879 0
M  V30 2299 O 225.51 -1.91225 0.4254 0
M  V30 2300 H 224.09 -0.0633447 0.744309 0
M  V30 2301 H 226.752 0.548161 1.87033 0
M  V30 2302 H 225.848 -0.357817 3.10042 0
M  V30 2303 N 226.149 -1.5696 0.141893 0
M  V30 2304 C 227.096 -2.16501 -0.799737 0
M  V30 2305 C 228.066 -1.09643 -1.24771 0
M  V30 2306 O 229.251 -1.3766 -1.32115 0
M  V30 2307 C 226.391 -2.78679 -2.03549 0
M  V30 2308 C 225.504 -3.99914 -1.6338 0
M  V30 2309 C 224.639 -4.50106 -2.82096 0
M  V30 2310 C 223.678 -5.63819 -2.38275 0
M  V30 2311 N 222.815 -6.08651 -3.49983 0
M  V30 2312 H 227.655 -2.96632 -0.285179 0
M  V30 2313 H 225.192 -1.46533 -0.129053 0
M  V30 2314 H 227.15 -3.1287 -2.75986 0
M  V30 2315 H 225.78 -2.012 -2.52425 0
M  V30 2316 H 224.832 -3.71735 -0.807279 0
M  V30 2317 H 226.144 -4.82311 -1.27192 0
M  V30 2318 H 225.298 -4.86325 -3.62729 0
M  V30 2319 H 224.037 -3.66706 -3.21525 0
M  V30 2320 H 223.042 -5.2718 -1.56081 0
M  V30 2321 H 224.267 -6.49 -1.99938 0
M  V30 2322 H 222.213 -5.28188 -3.89042 0
M  V30 2323 H 222.13 -6.85961 -3.17794 0
M  V30 2324 H 223.398 -6.49515 -4.30988 0
M  V30 2325 N 227.627 0.131896 -1.57047 0
M  V30 2326 C 229.038 0.690407 -1.73465 0
M  V30 2327 C 229.389 1.8094 -0.758629 0
M  V30 2328 O 228.514 2.16282 0.0713813 0
M  V30 2329 C 229.109 1.25916 -3.14532 0
M  V30 2330 C 227.668 1.76409 -3.32501 0
M  V30 2331 C 226.815 0.658579 -2.69366 0
M  V30 2332 H 229.766 -0.0939144 -1.58422 0
M  V30 2333 H 229.787 2.12892 -3.15369 0
M  V30 2334 H 229.299 0.444515 -3.85546 0
M  V30 2335 H 227.4 2.60391 -2.66509 0
M  V30 2336 H 227.513 1.88241 -4.4057 0
M  V30 2337 H 225.877 1.08899 -2.30246 0
M  V30 2338 H 226.66 -0.14487 -3.42994 0
M  V30 2339 N 229.106 1.52395 0.401703 0
M  V30 2340 C 230.352 1.67065 1.14966 0
M  V30 2341 C 230.685 0.403052 1.89971 0
M  V30 2342 O 229.96 -0.598774 1.85054 0
M  V30 2343 C 230.243 2.8975 2.13815 0
M  V30 2344 C 230.096 4.26578 1.42658 0
M  V30 2345 C 231.415 3.07965 3.14397 0
M  V30 2346 H 228.534 0.607968 0.416587 0
M  V30 2347 H 231.176 1.84965 0.434511 0
M  V30 2348 H 229.326 2.74619 2.74803 0
M  V30 2349 H 230.998 4.53451 0.847329 0
M  V30 2350 H 229.241 4.27639 0.72849 0
M  V30 2351 H 229.912 5.08483 2.14823 0
M  V30 2352 H 232.388 3.22043 2.63491 0
M  V30 2353 H 231.264 3.95308 3.80819 0
M  V30 2354 H 231.525 2.21611 3.82545 0
M  V30 2355 N 230.584 -0.659388 1.43143 0
M  V30 2356 C 231.814 -1.44513 1.47646 0
M  V30 2357 C 232.222 -1.88981 0.0910095 0
M  V30 2358 O 231.565 -1.59702 -0.907789 0
M  V30 2359 C 231.627 -2.71663 2.35456 0
M  V30 2360 C 231.291 -2.49175 3.83094 0
M  V30 2361 C 232.288 -2.1279 4.74359 0
M  V30 2362 C 229.973 -2.63691 4.27519 0
M  V30 2363 C 231.967 -1.9121 6.08044 0
M  V30 2364 C 229.654 -2.41726 5.61259 0
M  V30 2365 C 230.652 -2.0554 6.51339 0
M  V30 2366 O 230.34 -1.838 7.82606 0
M  V30 2367 H 230.072 -0.45064 0.503884 0
M  V30 2368 H 232.626 -0.816248 1.88485 0
M  V30 2369 H 230.856 -3.37089 1.89493 0
M  V30 2370 H 232.545 -3.33595 2.31235 0
M  V30 2371 H 233.311 -2.01157 4.41317 0
M  V30 2372 H 229.19 -2.90832 3.57684 0
M  V30 2373 H 232.734 -1.62889 6.78316 0
M  V30 2374 H 228.631 -2.52959 5.9387 0
M  V30 2375 H 229.399 -1.98275 7.94122 0
M  V30 2376 N 232.062 -1.29571 -0.897171 0
M  V30 2377 C 233.025 -1.14913 -1.98312 0
M  V30 2378 C 234.025 -0.0838629 -1.60581 0
M  V30 2379 O 235.215 -0.331006 -1.71026 0
M  V30 2380 C 232.347 -0.757835 -3.3237 0
M  V30 2381 H 233.54 -2.11377 -2.12743 0
M  V30 2382 H 231.093 -1.12793 -1.08201 0
M  V30 2383 H 231.828 0.206837 -3.2364 0
M  V30 2384 H 231.613 -1.52755 -3.61121 0
M  V30 2385 H 233.103 -0.678408 -4.12053 0
M  V30 2386 N 233.54 1.10788 -1.12088 0
M  V30 2387 C 234.768 1.86461 -0.896651 0
M  V30 2388 C 235.183 1.80492 0.553912 0
M  V30 2389 O 234.54 1.19102 1.38278 0
M  V30 2390 C 234.591 3.35006 -1.35843 0
M  V30 2391 O 234.312 3.40866 -2.75213 0
M  V30 2392 C 235.813 4.27565 -1.1706 0
M  V30 2393 H 233.033 0.589425 -0.320654 0
M  V30 2394 H 235.577 1.40076 -1.48993 0
M  V30 2395 H 233.732 3.7887 -0.808458 0
M  V30 2396 H 234.146 4.33411 -2.9539 0
M  V30 2397 H 235.62 5.30007 -1.54263 0
M  V30 2398 H 236.097 4.3906 -0.110814 0
M  V30 2399 H 236.703 3.89501 -1.70789 0
M  V30 2400 N 235.018 0.912232 1.28515 0
M  V30 2401 C 236.258 0.551677 1.96814 0
M  V30 2402 C 236.622 -0.887825 1.7024 0
M  V30 2403 O 237.823 -1.35588 2.32098 0
M  V30 2404 C 236.094 0.850555 3.47132 0
M  V30 2405 S 237.653 0.59619 4.34731 0
M  V30 2406 H 234.471 0.204191 0.681049 0
M  V30 2407 H 237.073 1.17736 1.56072 0
M  V30 2408 H 235.777 1.8962 3.63968 0
M  V30 2409 H 235.308 0.213471 3.9282 0
M  V30 2410 H 237.323 -0.553154 4.93107 0
M  V30 2411 N 236.496 -1.42363 0.676048 0
M  V30 2412 C 237.426 -2.33497 0.0124832 0
M  V30 2413 C 238.407 -1.50748 -0.787981 0
M  V30 2414 O 239.592 -1.79346 -0.744884 0
M  V30 2415 C 236.722 -3.34377 -0.938582 0
M  V30 2416 C 235.676 -4.27289 -0.246622 0
M  V30 2417 C 235.002 -5.18386 -1.31071 0
M  V30 2418 C 236.302 -5.14916 0.875125 0
M  V30 2419 H 237.996 -2.89233 0.773593 0
M  V30 2420 H 235.542 -1.39073 0.37346 0
M  V30 2421 H 237.495 -3.97044 -1.41188 0
M  V30 2422 H 236.219 -2.76947 -1.73113 0
M  V30 2423 H 234.878 -3.66018 0.206456 0
M  V30 2424 H 234.526 -4.57282 -2.09528 0
M  V30 2425 H 234.226 -5.81378 -0.852839 0
M  V30 2426 H 235.75 -5.83929 -1.78492 0
M  V30 2427 H 237.164 -5.71262 0.482983 0
M  V30 2428 H 235.561 -5.86747 1.25887 0
M  V30 2429 H 236.631 -4.53242 1.72335 0
M  V30 2430 N 237.974 -0.419461 -1.51915 0
M  V30 2431 C 238.904 0.391813 -2.30189 0
M  V30 2432 C 239.885 1.03699 -1.34836 0
M  V30 2433 O 241.07 1.04403 -1.63748 0
M  V30 2434 C 238.2 1.50312 -3.13087 0
M  V30 2435 C 237.154 0.9824 -4.16573 0
M  V30 2436 C 236.48 2.18809 -4.8788 0
M  V30 2437 C 237.78 0.0292356 -5.22292 0
M  V30 2438 H 239.474 -0.26135 -2.98257 0
M  V30 2439 H 237.02 -0.127134 -1.43438 0
M  V30 2440 H 238.973 2.07773 -3.66617 0
M  V30 2441 H 237.697 2.18431 -2.42807 0
M  V30 2442 H 236.356 0.430119 -3.64068 0
M  V30 2443 H 236.004 2.85507 -4.14119 0
M  V30 2444 H 235.704 1.84615 -5.57845 0
M  V30 2445 H 237.228 2.76858 -5.44226 0
M  V30 2446 H 238.642 0.512976 -5.71 0
M  V30 2447 H 237.039 -0.2244 -5.9968 0
M  V30 2448 H 238.109 -0.912931 -4.76228 0
M  V30 2449 N 239.452 1.56882 -0.150215 0
M  V30 2450 C 240.4 2.18214 0.805313 0
M  V30 2451 C 241.394 1.14006 1.25296 0
M  V30 2452 O 242.6 1.3225 1.22107 0
M  V30 2453 H 238.975 0.698762 0.277913 0
M  V30 2454 H 240.946 2.97231 0.263862 0
M  V30 2455 C 239.695 2.82065 2.03309 0
M  V30 2456 H 239.018 3.61968 1.69763 0
M  V30 2457 H 240.458 3.28477 2.68103 0
M  V30 2458 C 238.917 1.80739 2.84315 0
M  V30 2459 O 239.447 1.27983 3.80767 0
M  V30 2460 N 237.653 1.4997 2.48913 0
M  V30 2461 H 237.2 1.93062 1.70542 0
M  V30 2462 H 237.158 0.824217 3.03404 0
M  V30 2463 N 240.93 -0.123565 1.57115 0
M  V30 2464 C 241.863 -1.18202 1.95201 0
M  V30 2465 C 242.841 -1.40349 0.821031 0
M  V30 2466 O 244.025 -1.54578 1.07879 0
M  V30 2467 C 241.152 -2.53671 2.24429 0
M  V30 2468 C 240.198 -2.4798 3.46999 0
M  V30 2469 S 241.031 -1.92389 4.99747 0
M  V30 2470 C 242.187 -3.2954 5.32123 0
M  V30 2471 H 242.42 -0.857212 2.84674 0
M  V30 2472 H 239.953 -0.33014 1.50829 0
M  V30 2473 H 241.911 -3.3162 2.41947 0
M  V30 2474 H 240.572 -2.83332 1.35579 0
M  V30 2475 H 239.765 -3.47758 3.64801 0
M  V30 2476 H 239.367 -1.7815 3.28844 0
M  V30 2477 H 241.659 -4.25736 5.27025 0
M  V30 2478 H 242.602 -3.16569 6.33395 0
M  V30 2479 H 243.01 -3.27758 4.59603 0
M  V30 2480 N 242.408 -1.52605 -0.393616 0
M  V30 2481 C 243.338 -1.80022 -1.48709 0
M  V30 2482 C 244.319 -0.651995 -1.57108 0
M  V30 2483 O 245.504 -0.89913 -1.72132 0
M  V30 2484 C 242.634 -1.96492 -2.86371 0
M  V30 2485 C 241.588 -3.12161 -2.92813 0
M  V30 2486 C 240.914 -3.13877 -4.3288 0
M  V30 2487 C 242.214 -4.51322 -2.6288 0
M  V30 2488 H 243.908 -2.71589 -1.26015 0
M  V30 2489 H 241.454 -1.30684 -0.604778 0
M  V30 2490 H 243.407 -2.14255 -3.62867 0
M  V30 2491 H 242.131 -1.01611 -3.10391 0
M  V30 2492 H 240.79 -2.94173 -2.18764 0
M  V30 2493 H 240.438 -2.16687 -4.53933 0
M  V30 2494 H 240.138 -3.91576 -4.38112 0
M  V30 2495 H 241.662 -3.33789 -5.1129 0
M  V30 2496 H 243.076 -4.69435 -3.29096 0
M  V30 2497 H 241.473 -5.31053 -2.79468 0
M  V30 2498 H 242.543 -4.58353 -1.58242 0
M  V30 2499 N 243.887 0.651787 -1.4349 0
M  V30 2500 C 245.164 1.40909 -1.35661 0
M  V30 2501 C 245.544 2.11099 -0.00511733 0
M  V30 2502 O 244.892 2.04892 1.0115 0
M  V30 2503 C 245.102 2.3926 -2.54078 0
M  V30 2504 C 246.45 3.03217 -2.97228 0
M  V30 2505 O 247.474 2.49588 -2.54135 0
M  V30 2506 O 246.333 4.00455 -3.71885 0
M  V30 2507 H 243.427 0.629625 -0.536191 0
M  V30 2508 H 245.973 0.678575 -1.55542 0
M  V30 2509 H 244.745 1.86352 -3.44076 0
M  V30 2510 H 244.368 3.1976 -2.36303 0
M  V30 2511 N 245.365 1.30045 0.890287 0
M  V30 2512 C 246.312 1.15976 1.99545 0
M  V30 2513 C 247.282 0.0506202 1.66023 0
M  V30 2514 O 248.467 0.219847 1.89529 0
M  V30 2515 C 245.607 0.852054 3.34416 0
M  V30 2516 C 244.72 2.04255 3.80662 0
M  V30 2517 C 243.855 1.6734 5.04154 0
M  V30 2518 C 242.894 2.82916 5.42794 0
M  V30 2519 N 242.031 2.46333 6.57468 0
M  V30 2520 H 246.871 2.10524 2.10911 0
M  V30 2521 H 244.408 1.04749 1.03276 0
M  V30 2522 H 246.366 0.654296 4.12037 0
M  V30 2523 H 244.996 -0.0565502 3.2275 0
M  V30 2524 H 244.048 2.35172 2.98995 0
M  V30 2525 H 245.36 2.90826 4.05242 0
M  V30 2526 H 244.514 1.43908 5.89386 0
M  V30 2527 H 243.253 0.779308 4.81433 0
M  V30 2528 H 242.258 3.0702 4.56091 0
M  V30 2529 H 243.483 3.73004 5.6749 0
M  V30 2530 H 241.429 1.59423 6.36334 0
M  V30 2531 H 241.346 3.26436 6.81891 0
M  V30 2532 H 242.614 2.26244 7.45945 0
M  V30 2533 N 246.843 -1.10192 1.12674 0
M  V30 2534 C 248.089 -1.82658 0.894847 0
M  V30 2535 C 248.444 -1.83666 -0.573107 0
M  V30 2536 O 247.737 -1.28816 -1.41835 0
M  V30 2537 C 247.931 -3.28552 1.4067 0
M  V30 2538 C 247.76 -3.41756 2.92289 0
M  V30 2539 C 246.53 -3.54021 3.60551 0
M  V30 2540 C 248.728 -3.34949 3.90274 0
M  V30 2541 N 246.71 -3.55827 5.0026 0
M  V30 2542 C 248.081 -3.43531 5.16127 0
M  V30 2543 C 250.136 -3.18565 3.8265 0
M  V30 2544 C 248.839 -3.37416 6.3525 0
M  V30 2545 C 250.865 -3.13772 5.01299 0
M  V30 2546 C 250.227 -3.22938 6.26012 0
M  V30 2547 H 246.326 -0.683044 0.380756 0
M  V30 2548 H 248.91 -1.31752 1.43351 0
M  V30 2549 H 247.081 -3.77946 0.895055 0
M  V30 2550 H 248.813 -3.88991 1.11661 0
M  V30 2551 H 245.568 -3.57135 3.1105 0
M  V30 2552 H 245.992 -3.60335 5.73138 0
M  V30 2553 H 250.634 -3.10354 2.87124 0
M  V30 2554 H 248.352 -3.44391 7.3104 0
M  V30 2555 H 251.938 -3.02242 4.97133 0
M  V30 2556 H 250.818 -3.19235 7.16281 0
M  V30 2557 N 248.321 -0.919034 -1.28029 0
M  V30 2558 C 249.284 -0.416182 -2.2539 0
M  V30 2559 C 250.284 0.460438 -1.54067 0
M  V30 2560 O 251.474 0.262744 -1.72207 0
M  V30 2561 C 248.606 0.402707 -3.38513 0
M  V30 2562 H 249.799 -1.27629 -2.71387 0
M  V30 2563 H 247.352 -0.698919 -1.39803 0
M  V30 2564 H 248.087 1.282 -2.97885 0
M  V30 2565 H 247.872 -0.225698 -3.9145 0
M  V30 2566 H 249.362 0.745191 -4.10897 0
M  V30 2567 N 249.799 1.42003 -0.683588 0
M  V30 2568 C 250.746 2.30798 -0.0107309 0
M  V30 2569 C 251.716 1.4645 0.783688 0
M  V30 2570 O 252.901 1.75263 0.754156 0
M  V30 2571 C 250.041 3.3238 0.928306 0
M  V30 2572 C 249.154 4.31814 0.126776 0
M  V30 2573 C 248.289 5.20468 1.06236 0
M  V30 2574 C 247.328 6.11577 0.253035 0
M  V30 2575 N 246.465 6.92754 1.14179 0
M  V30 2576 H 251.305 2.8778 -0.773727 0
M  V30 2577 H 248.842 1.41745 -0.393283 0
M  V30 2578 H 250.8 3.89813 1.48666 0
M  V30 2579 H 249.43 2.76976 1.65783 0
M  V30 2580 H 248.482 3.76427 -0.54833 0
M  V30 2581 H 249.794 4.96276 -0.501192 0
M  V30 2582 H 248.948 5.82677 1.69035 0
M  V30 2583 H 247.687 4.56204 1.7242 0
M  V30 2584 H 246.692 5.48428 -0.388108 0
M  V30 2585 H 247.917 6.77892 -0.404839 0
M  V30 2586 H 245.863 6.3111 1.78987 0
M  V30 2587 H 245.78 7.53855 0.569111 0
M  V30 2588 H 247.048 7.59441 1.75697 0
M  V30 2589 N 251.277 0.427512 1.51691 0
M  V30 2590 C 252.24 -0.377132 2.26076 0
M  V30 2591 C 253.24 -0.958089 1.29141 0
M  V30 2592 O 254.43 -0.83408 1.52934 0
M  V30 2593 C 251.562 -1.53262 3.04506 0
M  V30 2594 H 252.755 0.27464 2.9864 0
M  V30 2595 H 250.308 0.180445 1.55255 0
M  V30 2596 H 251.043 -2.22072 2.36335 0
M  V30 2597 H 250.828 -1.12232 3.75694 0
M  V30 2598 H 252.318 -2.10135 3.60878 0
M  V30 2599 N 252.755 -1.56801 0.158532 0
M  V30 2600 C 254.032 -1.88131 -0.535357 0
M  V30 2601 C 254.412 -1.06638 -1.82186 0
M  V30 2602 O 253.76 -0.156533 -2.27963 0
M  V30 2603 C 253.97 -3.39949 -0.789653 0
M  V30 2604 C 255.318 -4.09416 -1.12533 0
M  V30 2605 O 256.342 -3.45194 -0.878622 0
M  V30 2606 O 255.201 -5.22855 -1.59014 0
M  V30 2607 H 252.295 -0.780143 -0.27442 0
M  V30 2608 H 254.841 -1.68564 0.19601 0
M  V30 2609 H 253.613 -3.91115 0.120353 0
M  V30 2610 H 253.236 -3.65084 -1.57479 0
M  V30 2611 N 254.233 0.115231 -1.57178 0
M  V30 2612 C 255.196 1.12526 -1.99676 0
M  V30 2613 C 256.196 1.34095 -0.88742 0
M  V30 2614 O 257.386 1.30548 -1.15337 0
M  V30 2615 C 254.518 2.4789 -2.34015 0
M  V30 2616 H 255.711 0.759912 -2.90113 0
M  V30 2617 H 253.264 0.359648 -1.52106 0
M  V30 2618 H 253.999 2.89339 -1.4647 0
M  V30 2619 H 253.784 2.33588 -3.14927 0
M  V30 2620 H 255.274 3.20575 -2.67622 0
M  V30 2621 N 255.711 1.52812 0.385517 0
M  V30 2622 C 256.641 1.80808 1.47752 0
M  V30 2623 C 257.622 0.660318 1.5676 0
M  V30 2624 O 258.807 0.908246 1.71652 0
M  V30 2625 C 255.937 1.98008 2.85324 0
M  V30 2626 C 254.891 3.13709 2.91154 0
M  V30 2627 C 254.217 3.16169 4.31209 0
M  V30 2628 C 255.517 4.52709 2.60483 0
M  V30 2629 H 257.211 2.72253 1.24573 0
M  V30 2630 H 254.757 1.31003 0.597839 0
M  V30 2631 H 256.71 2.16176 3.61726 0
M  V30 2632 H 255.434 1.03255 3.09848 0
M  V30 2633 H 254.093 2.95329 2.17201 0
M  V30 2634 H 253.741 2.19092 4.52778 0
M  V30 2635 H 253.441 3.93894 4.36029 0
M  V30 2636 H 254.965 3.36496 5.09512 0
M  V30 2637 H 256.379 4.71173 3.26602 0
M  V30 2638 H 254.776 5.32528 2.76648 0
M  V30 2639 H 255.846 4.59186 1.55809 0
M  V30 2640 N 257.189 -0.644168 1.43834 0
M  V30 2641 C 258.119 -1.76814 1.52509 0
M  V30 2642 C 259.1 -1.65823 0.379052 0
M  V30 2643 O 260.285 -1.84781 0.597466 0
M  V30 2644 C 257.415 -3.15288 1.4564 0
M  V30 2645 C 256.369 -3.41053 2.58586 0
M  V30 2646 C 255.695 -4.79421 2.36769 0
M  V30 2647 C 256.995 -3.34902 4.00797 0
M  V30 2648 H 258.689 -1.69812 2.46586 0
M  V30 2649 H 256.235 -0.815542 1.1868 0
M  V30 2650 H 258.188 -3.93681 1.50311 0
M  V30 2651 H 256.912 -3.23043 0.480725 0
M  V30 2652 H 255.571 -2.65035 2.53282 0
M  V30 2653 H 255.219 -4.83863 1.37424 0
M  V30 2654 H 254.919 -4.9762 3.12487 0
M  V30 2655 H 256.443 -5.6006 2.43238 0
M  V30 2656 H 257.857 -4.03218 4.07539 0
M  V30 2657 H 256.254 -3.64637 4.76613 0
M  V30 2658 H 257.324 -2.32928 4.25291 0
M  V30 2659 N 258.668 -1.30515 -0.883378 0
M  V30 2660 C 259.616 -1.16941 -2.01066 0
M  V30 2661 C 260.61 -0.0809148 -1.69207 0
M  V30 2662 O 261.816 -0.241877 -1.78367 0
M  V30 2663 H 258.191 -0.361705 -0.659298 0
M  V30 2664 H 260.162 -2.12344 -2.09649 0
M  V30 2665 C 258.911 -0.879694 -3.36388 0
M  V30 2666 H 258.234 -1.70936 -3.61415 0
M  V30 2667 H 259.674 -0.82483 -4.159 0
M  V30 2668 C 258.133 0.417409 -3.34304 0
M  V30 2669 O 258.663 1.43843 -3.75063 0
M  V30 2670 N 256.869 0.429141 -2.87414 0
M  V30 2671 H 256.416 -0.402222 -2.5444 0
M  V30 2672 H 256.374 1.29696 -2.86403 0
M  V30 2673 N 260.146 1.09593 -1.13257 0
M  V30 2674 C 261.376 1.85231 -0.915049 0
M  V30 2675 C 261.784 1.81345 0.539498 0
M  V30 2676 O 261.127 1.20664 1.38513 0
M  V30 2677 C 261.189 3.34275 -1.3229 0
M  V30 2678 C 260.853 3.6191 -2.79052 0
M  V30 2679 C 261.85 3.57777 -3.77216 0
M  V30 2680 C 259.535 3.90309 -3.16171 0
M  V30 2681 C 261.529 3.81652 -5.1051 0
M  V30 2682 C 259.216 4.13839 -4.49644 0
M  V30 2683 C 260.214 4.09502 -5.46623 0
M  V30 2684 O 259.902 4.32426 -6.77689 0
M  V30 2685 H 259.634 0.591997 -0.326367 0
M  V30 2686 H 262.188 1.394 -1.50854 0
M  V30 2687 H 260.418 3.80805 -0.672667 0
M  V30 2688 H 262.107 3.9132 -1.07812 0
M  V30 2689 H 262.873 3.35865 -3.49885 0
M  V30 2690 H 258.752 3.92811 -2.41289 0
M  V30 2691 H 262.296 3.78182 -5.86195 0
M  V30 2692 H 258.193 4.35232 -4.767 0
M  V30 2693 H 258.961 4.49896 -6.83766 0
M  V30 2694 N 261.624 0.925811 1.2754 0
M  V30 2695 C 262.901 0.483726 1.89524 0
M  V30 2696 C 263.281 -1.03809 1.83812 0
M  V30 2697 O 262.629 -1.89143 1.28207 0
M  V30 2698 C 262.839 1.02769 3.33526 0
M  V30 2699 C 264.187 1.08703 4.10449 0
M  V30 2700 O 265.211 0.977175 3.42534 0
M  V30 2701 O 264.07 1.25599 5.31871 0
M  V30 2702 H 261.164 0.15529 0.812289 0
M  V30 2703 H 263.71 1.01738 1.35822 0
M  V30 2704 H 262.482 2.07155 3.31967 0
M  V30 2705 H 262.105 0.475567 3.94746 0
M  V30 2706 N 263.102 -1.41638 0.69111 0
M  V30 2707 C 264.513 -1.84346 0.295517 0
M  V30 2708 C 264.864 -1.57833 -1.16547 0
M  V30 2709 O 263.989 -1.04648 -1.89414 0
M  V30 2710 C 264.584 -3.34636 0.529575 0
M  V30 2711 C 263.143 -3.7593 0.187944 0
M  V30 2712 C 262.29 -2.65082 0.814052 0
M  V30 2713 H 265.241 -1.31253 0.892092 0
M  V30 2714 H 265.262 -3.79903 -0.213148 0
M  V30 2715 H 264.774 -3.53901 1.59297 0
M  V30 2716 H 262.875 -3.62268 -0.871367 0
M  V30 2717 H 262.988 -4.74808 0.63985 0
M  V30 2718 H 261.352 -2.53528 0.244017 0
M  V30 2719 H 262.135 -2.87167 1.88123 0
M  V30 2720 N 264.58 -0.43555 -1.51462 0
M  V30 2721 C 265.527 0.376797 -2.27703 0
M  V30 2722 C 266.497 1.01838 -1.31219 0
M  V30 2723 O 267.682 1.03762 -1.60119 0
M  V30 2724 C 264.822 1.47301 -3.12084 0
M  V30 2725 C 263.935 0.849744 -4.2356 0
M  V30 2726 C 263.07 1.92086 -4.95254 0
M  V30 2727 C 262.109 1.27593 -5.98654 0
M  V30 2728 N 261.246 2.28833 -6.63762 0
M  V30 2729 H 266.086 -0.279734 -2.96684 0
M  V30 2730 H 263.623 -0.149795 -1.46335 0
M  V30 2731 H 265.581 2.11984 -3.59331 0
M  V30 2732 H 264.211 2.0992 -2.45221 0
M  V30 2733 H 263.263 0.0912529 -3.80291 0
M  V30 2734 H 264.575 0.338878 -4.97648 0
M  V30 2735 H 263.729 2.64435 -5.46039 0
M  V30 2736 H 262.468 2.46545 -4.20793 0
M  V30 2737 H 261.473 0.537893 -5.47162 0
M  V30 2738 H 262.698 0.738693 -6.7507 0
M  V30 2739 H 260.644 2.82375 -5.92115 0
M  V30 2740 H 260.561 1.82632 -7.33608 0
M  V30 2741 H 261.829 3.00671 -7.19178 0
M  V30 2742 N 266.058 1.56714 -0.166846 0
M  V30 2743 C 267.283 2.01557 0.488833 0
M  V30 2744 C 267.708 1.0463 1.56314 0
M  V30 2745 O 267.066 0.0251304 1.81283 0
M  V30 2746 C 267.114 3.4503 1.04818 0
M  V30 2747 O 266.218 3.51163 2.16236 0
M  V30 2748 H 265.559 0.653516 0.117526 0
M  V30 2749 H 268.089 2.02818 -0.269421 0
M  V30 2750 H 268.099 3.84243 1.37191 0
M  V30 2751 H 266.774 4.15077 0.261572 0
M  V30 2752 H 265.351 3.23807 1.84942 0
M  V30 2753 N 267.536 -0.106894 1.57237 0
M  V30 2754 C 268.468 -1.15646 1.97885 0
M  V30 2755 C 269.481 -1.36981 0.879779 0
M  V30 2756 O 270.67 -1.35841 1.15799 0
M  V30 2757 C 267.77 -2.51425 2.27241 0
M  V30 2758 C 266.943 -2.50529 3.58545 0
M  V30 2759 C 266.002 -3.68145 3.75973 0
M  V30 2760 O 265.028 -3.51176 4.47956 0
M  V30 2761 N 266.23 -4.87177 3.15656 0
M  V30 2762 H 268.995 -0.81059 2.8853 0
M  V30 2763 H 266.556 -0.296024 1.59171 0
M  V30 2764 H 268.548 -3.28689 2.36105 0
M  V30 2765 H 267.118 -2.78147 1.42663 0
M  V30 2766 H 266.338 -1.58894 3.60758 0
M  V30 2767 H 267.626 -2.46997 4.44826 0
M  V30 2768 H 267.024 -5.03868 2.57165 0
M  V30 2769 H 265.581 -5.62075 3.30023 0
M  V30 2770 N 269.014 -1.53014 -0.377408 0
M  V30 2771 C 270.239 -1.72818 -1.14668 0
M  V30 2772 C 270.664 -0.450725 -1.8262 0
M  V30 2773 O 270.022 0.59439 -1.7128 0
M  V30 2774 C 270.07 -2.88627 -2.16164 0
M  V30 2775 O 269.174 -2.56409 -3.22998 0
M  V30 2776 H 268.515 -0.574301 -0.333278 0
M  V30 2777 H 271.045 -1.99853 -0.438152 0
M  V30 2778 H 271.055 -3.14455 -2.59966 0
M  V30 2779 H 269.73 -3.81294 -1.66095 0
M  V30 2780 H 268.307 -2.4136 -2.84253 0
M  V30 2781 N 270.492 0.636531 -1.44174 0
M  V30 2782 C 271.738 1.39649 -1.47884 0
M  V30 2783 C 272.093 1.92098 -0.107747 0
M  V30 2784 O 271.386 1.70391 0.876208 0
M  V30 2785 C 271.58 2.58309 -2.47005 0
M  V30 2786 C 271.409 2.17476 -3.93617 0
M  V30 2787 C 270.179 2.0501 -4.61843 0
M  V30 2788 C 272.377 1.76722 -4.82984 0
M  V30 2789 N 270.359 1.57683 -5.93304 0
M  V30 2790 C 271.73 1.40601 -6.03847 0
M  V30 2791 C 273.785 1.64054 -4.70096 0
M  V30 2792 C 272.488 0.930787 -7.13252 0
M  V30 2793 C 274.514 1.17937 -5.79521 0
M  V30 2794 C 273.876 0.827625 -6.99521 0
M  V30 2795 H 269.975 0.506027 -0.596205 0
M  V30 2796 H 272.559 0.730791 -1.80465 0
M  V30 2797 H 270.73 3.22514 -2.16423 0
M  V30 2798 H 272.462 3.25083 -2.41045 0
M  V30 2799 H 269.217 2.25294 -4.16581 0
M  V30 2800 H 269.641 1.36334 -6.63131 0
M  V30 2801 H 274.283 1.89882 -3.77762 0
M  V30 2802 H 272.001 0.660012 -8.054 0
M  V30 2803 H 275.587 1.08601 -5.71574 0
M  V30 2804 H 274.467 0.476231 -7.82753 0
M  V30 2805 N 271.97 1.30982 0.876444 0
M  V30 2806 C 273.2 1.23063 1.65949 0
M  V30 2807 C 273.608 -0.207537 1.88058 0
M  V30 2808 O 272.951 -1.14781 1.43426 0
M  V30 2809 C 273.013 1.89768 3.05333 0
M  V30 2810 C 272.677 3.39106 3.0636 0
M  V30 2811 C 273.674 4.3496 2.84791 0
M  V30 2812 C 271.359 3.80693 3.27686 0
M  V30 2813 C 273.353 5.70375 2.84519 0
M  V30 2814 C 271.04 5.16223 3.27043 0
M  V30 2815 C 272.038 6.10875 3.05485 0
M  V30 2816 O 271.726 7.43928 3.04674 0
M  V30 2817 H 271.458 0.426685 0.524324 0
M  V30 2818 H 274.012 1.7329 1.10271 0
M  V30 2819 H 272.242 1.34082 3.6271 0
M  V30 2820 H 273.931 1.75853 3.65829 0
M  V30 2821 H 274.697 4.0416 2.68103 0
M  V30 2822 H 270.576 3.07457 3.43499 0
M  V30 2823 H 274.12 6.44228 2.67611 0
M  V30 2824 H 270.017 5.4666 3.43269 0
M  V30 2825 H 270.785 7.53022 3.2078 0
M  V30 2826 N 273.449 -1.08991 1.13837 0
M  V30 2827 C 274.381 -2.15606 0.777612 0
M  V30 2828 C 275.394 -1.61533 -0.202739 0
M  V30 2829 O 276.583 -1.78491 0.0181055 0
M  V30 2830 C 273.683 -3.3864 0.132623 0
M  V30 2831 C 272.856 -4.22115 1.1462 0
M  V30 2832 C 271.915 -5.23564 0.526074 0
M  V30 2833 O 270.941 -5.56678 1.18735 0
M  V30 2834 N 272.143 -5.76266 -0.699866 0
M  V30 2835 H 274.908 -2.47159 1.69506 0
M  V30 2836 H 272.469 -1.24747 1.03198 0
M  V30 2837 H 274.461 -4.03626 -0.29459 0
M  V30 2838 H 273.031 -3.04938 -0.687849 0
M  V30 2839 H 272.251 -3.53199 1.75055 0
M  V30 2840 H 273.539 -4.74709 1.83109 0
M  V30 2841 H 272.937 -5.51585 -1.25581 0
M  V30 2842 H 271.494 -6.42963 -1.06968 0
M  V30 2843 N 274.927 -0.932562 -1.27047 0
M  V30 2844 C 276.173 -0.576412 -1.94436 0
M  V30 2845 C 276.506 0.880891 -1.73072 0
M  V30 2846 O 275.781 1.62905 -1.06264 0
M  V30 2847 C 276.064 -0.909031 -3.48437 0
M  V30 2848 C 275.917 -2.42044 -3.79123 0
M  V30 2849 C 277.236 -0.418341 -4.38107 0
M  V30 2850 H 274.355 -0.210888 -0.706184 0
M  V30 2851 H 276.997 -1.16522 -1.50075 0
M  V30 2852 H 275.147 -0.407947 -3.86352 0
M  V30 2853 H 276.819 -2.99359 -3.50973 0
M  V30 2854 H 275.062 -2.86758 -3.25503 0
M  V30 2855 H 275.733 -2.6037 -4.86736 0
M  V30 2856 H 278.209 -0.847856 -4.0737 0
M  V30 2857 H 277.085 -0.679981 -5.44672 0
M  V30 2858 H 277.346 0.681642 -4.36814 0
M  V30 2859 N 276.405 1.4127 -0.698611 0
M  V30 2860 C 277.315 2.34573 -0.0357891 0
M  V30 2861 C 278.331 1.56393 0.762701 0
M  V30 2862 O 279.507 1.8886 0.699564 0
M  V30 2863 C 276.572 3.35159 0.887089 0
M  V30 2864 C 275.633 4.29225 0.0804634 0
M  V30 2865 C 274.866 5.25006 0.959387 0
M  V30 2866 O 275.089 5.26314 2.19886 0
M  V30 2867 O 274.023 6.00519 0.407439 0
M  V30 2868 H 277.849 2.92838 -0.804957 0
M  V30 2869 H 275.434 1.42175 -0.458966 0
M  V30 2870 H 277.316 3.9689 1.41621 0
M  V30 2871 H 275.991 2.79333 1.6357 0
M  V30 2872 H 274.898 3.70833 -0.493328 0
M  V30 2873 H 276.231 4.88157 -0.629547 0
M  V30 2874 N 277.883 0.443576 1.51229 0
M  V30 2875 C 279.129 -0.11321 2.03085 0
M  V30 2876 C 279.484 -1.39841 1.32145 0
M  V30 2877 O 278.777 -1.86723 0.429542 0
M  V30 2878 C 278.971 -0.380579 3.55368 0
M  V30 2879 C 278.8 0.877157 4.41062 0
M  V30 2880 C 277.57 1.4125 4.85156 0
M  V30 2881 C 279.768 1.76503 4.83064 0
M  V30 2882 N 277.75 2.62213 5.55083 0
M  V30 2883 C 279.121 2.82067 5.52122 0
M  V30 2884 C 281.176 1.7787 4.65045 0
M  V30 2885 C 279.879 3.88952 6.05069 0
M  V30 2886 C 281.905 2.83694 5.18914 0
M  V30 2887 C 281.267 3.87978 5.87922 0
M  V30 2888 H 277.366 -0.00210178 0.781997 0
M  V30 2889 H 279.95 0.605641 1.85041 0
M  V30 2890 H 278.121 -1.06847 3.73414 0
M  V30 2891 H 279.853 -0.929274 3.93887 0
M  V30 2892 H 276.608 0.965542 4.63653 0
M  V30 2893 H 277.032 3.23568 5.9467 0
M  V30 2894 H 281.674 0.985744 4.11148 0
M  V30 2895 H 279.392 4.69082 6.58018 0
M  V30 2896 H 282.978 2.85702 5.06819 0
M  V30 2897 H 281.858 4.68517 6.28857 0
M  V30 2898 N 279.361 -1.56624 0.175154 0
M  V30 2899 C 280.586 -2.01813 -0.478137 0
M  V30 2900 C 281.011 -1.05457 -1.55757 0
M  V30 2901 O 280.369 -0.0347439 -1.81267 0
M  V30 2902 C 280.417 -3.45581 -1.02987 0
M  V30 2903 O 279.521 -3.52305 -2.14371 0
M  V30 2904 H 278.862 -0.65413 -0.114059 0
M  V30 2905 H 281.392 -2.02673 0.280173 0
M  V30 2906 H 281.402 -3.84965 -1.35151 0
M  V30 2907 H 280.077 -4.1521 -0.239556 0
M  V30 2908 H 278.654 -3.24783 -1.83222 0
M  V30 2909 N 280.839 0.0985539 -1.57292 0
M  V30 2910 C 281.802 1.10402 -2.00858 0
M  V30 2911 C 282.802 1.33146 -0.901593 0
M  V30 2912 O 283.992 1.29318 -1.16716 0
M  V30 2913 C 281.124 2.45394 -2.36632 0
M  V30 2914 H 282.317 0.729099 -2.90902 0
M  V30 2915 H 279.87 0.343495 -1.52479 0
M  V30 2916 H 280.605 2.87769 -1.49531 0
M  V30 2917 H 280.39 2.30235 -3.17387 0
M  V30 2918 H 281.88 3.17718 -2.71007 0
M  V30 2919 N 282.317 1.53212 0.369288 0
M  V30 2920 C 283.28 1.7872 1.43498 0
M  V30 2921 C 284.28 0.657554 1.46741 0
M  V30 2922 O 285.47 0.925736 1.47566 0
M  V30 2923 C 282.602 1.90591 2.82645 0
M  V30 2924 H 283.795 2.73894 1.22156 0
M  V30 2925 H 281.348 1.44233 0.602203 0
M  V30 2926 H 282.083 0.974709 3.09306 0
M  V30 2927 H 281.868 2.72751 2.8169 0
M  V30 2928 H 283.358 2.11931 3.59826 0
M  V30 2929 N 283.795 -0.628877 1.44509 0
M  V30 2930 C 285.023 -1.41554 1.50897 0
M  V30 2931 C 285.438 -1.8832 0.134564 0
M  V30 2932 O 284.795 -1.60969 -0.859965 0
M  V30 2933 C 284.846 -2.63435 2.47556 0
M  V30 2934 O 284.567 -2.18619 3.79654 0
M  V30 2935 C 286.068 -3.56537 2.63431 0
M  V30 2936 H 283.288 -0.434044 0.511709 0
M  V30 2937 H 285.832 -0.768895 1.89495 0
M  V30 2938 H 283.987 -3.24187 2.12089 0
M  V30 2939 H 284.401 -2.97652 4.31861 0
M  V30 2940 H 285.875 -4.38657 3.35088 0
M  V30 2941 H 286.352 -4.05493 1.68738 0
M  V30 2942 H 286.958 -3.01653 2.9981 0
M  V30 2943 N 285.273 -1.31445 -0.869486 0
M  V30 2944 C 286.236 -1.19094 -1.9583 0
M  V30 2945 C 287.236 -0.117906 -1.60367 0
M  V30 2946 O 288.426 -0.367208 -1.70286 0
M  V30 2947 C 285.558 -0.828165 -3.30688 0
M  V30 2948 H 286.751 -2.15842 -2.08212 0
M  V30 2949 H 284.304 -1.15063 -1.05784 0
M  V30 2950 H 285.039 0.138142 -3.24006 0
M  V30 2951 H 284.824 -1.6038 -3.578 0
M  V30 2952 H 286.314 -0.765658 -4.10521 0
M  V30 2953 N 286.751 1.08385 -1.14413 0
M  V30 2954 C 287.714 2.13486 -0.834048 0
M  V30 2955 C 288.714 1.59988 0.161418 0
M  V30 2956 O 289.904 1.74071 -0.0669575 0
M  V30 2957 C 287.036 3.4003 -0.243354 0
M  V30 2958 H 288.229 2.42425 -1.7655 0
M  V30 2959 H 285.782 1.24101 -0.950189 0
M  V30 2960 H 286.517 3.16726 0.696807 0
M  V30 2961 H 286.302 3.80157 -0.960367 0
M  V30 2962 H 287.792 4.17577 -0.0436242 0
M  V30 2963 N 288.23 0.939286 1.26551 0
M  V30 2964 C 289.477 0.585847 1.9384 0
M  V30 2965 C 289.805 -0.874784 1.73718 0
M  V30 2966 O 289.06 -1.64092 1.06642 0
M  V30 2967 C 289.359 0.872106 3.46596 0
M  V30 2968 C 289.025 2.31632 3.86856 0
M  V30 2969 C 287.687 2.71111 3.97558 0
M  V30 2970 C 290.039 3.25494 4.07066 0
M  V30 2971 C 287.367 4.03553 4.25866 0
M  V30 2972 C 289.719 4.57531 4.36862 0
M  V30 2973 C 288.383 4.96828 4.45778 0
M  V30 2974 H 287.653 0.214377 0.709312 0
M  V30 2975 H 290.3 1.18544 1.50398 0
M  V30 2976 H 288.605 0.18996 3.91339 0
M  V30 2977 H 290.302 0.577442 3.96821 0
M  V30 2978 H 286.892 2.00008 3.79071 0
M  V30 2979 H 291.076 2.9619 3.98227 0
M  V30 2980 H 286.332 4.33665 4.30981 0
M  V30 2981 H 290.506 5.30254 4.51446 0
M  V30 2982 H 288.133 5.99482 4.67468 0
M  V30 2983 N 289.708 -1.40897 0.706093 0
M  V30 2984 C 290.671 -2.29131 0.0562841 0
M  V30 2985 C 291.671 -1.44901 -0.697166 0
M  V30 2986 O 292.861 -1.65926 -0.530484 0
M  V30 2987 C 289.993 -3.27957 -0.93043 0
M  V30 2988 H 291.186 -2.88091 0.833284 0
M  V30 2989 H 288.739 -1.4906 0.470192 0
M  V30 2990 H 289.474 -2.73997 -1.73482 0
M  V30 2991 H 289.259 -3.90124 -0.393166 0
M  V30 2992 H 290.749 -3.94049 -1.38256 0
M  V30 2993 N 291.186 -0.45159 -1.50991 0
M  V30 2994 C 292.116 0.342898 -2.30969 0
M  V30 2995 C 293.097 1.00815 -1.37005 0
M  V30 2996 O 294.282 1.00907 -1.65926 0
M  V30 2997 C 291.412 1.43637 -3.16205 0
M  V30 2998 C 290.366 0.893818 -4.18563 0
M  V30 2999 C 289.692 2.08411 -4.92411 0
M  V30 3000 C 290.992 -0.0815568 -5.22236 0
M  V30 3001 H 292.686 -0.324556 -2.97636 0
M  V30 3002 H 290.232 -0.157531 -1.43136 0
M  V30 3003 H 292.185 1.9995 -3.70942 0
M  V30 3004 H 290.909 2.13232 -2.47386 0
M  V30 3005 H 289.568 0.352798 -3.64898 0
M  V30 3006 H 289.216 2.76658 -4.20082 0
M  V30 3007 H 288.916 1.72741 -5.61636 0
M  V30 3008 H 290.44 2.65251 -5.49976 0
M  V30 3009 H 291.854 0.391742 -5.7196 0
M  V30 3010 H 290.251 -0.351551 -5.99069 0
M  V30 3011 H 291.321 -1.01374 -4.74185 0
M  V30 3012 N 292.664 1.56529 -0.183458 0
M  V30 3013 C 293.889 2.02064 0.467428 0
M  V30 3014 C 294.314 1.06282 1.55196 0
M  V30 3015 O 293.672 0.0443565 1.81246 0
M  V30 3016 C 293.72 3.46122 1.01153 0
M  V30 3017 O 292.824 3.53437 2.12499 0
M  V30 3018 H 292.165 0.654726 0.110588 0
M  V30 3019 H 294.695 2.02521 -0.290917 0
M  V30 3020 H 294.705 3.85676 1.33108 0
M  V30 3021 H 293.38 4.15331 0.217533 0
M  V30 3022 H 291.957 3.2575 1.81497 0
M  V30 3023 N 294.142 -0.090211 1.57342 0
M  V30 3024 C 295.37 -0.806224 1.90546 0
M  V30 3025 C 295.785 -1.72041 0.777644 0
M  V30 3026 O 295.142 -1.80778 -0.250103 0
M  V30 3027 C 295.193 -1.61546 3.23396 0
M  V30 3028 O 294.914 -0.738043 4.31839 0
M  V30 3029 C 296.415 -2.4341 3.70495 0
M  V30 3030 H 293.635 -0.230256 0.630257 0
M  V30 3031 H 296.179 -0.0659843 2.04394 0
M  V30 3032 H 294.334 -2.30816 3.11131 0
M  V30 3033 H 294.748 -1.29901 5.08159 0
M  V30 3034 H 296.222 -2.95676 4.66133 0
M  V30 3035 H 296.699 -3.22098 2.98579 0
M  V30 3036 H 297.305 -1.79331 3.85643 0
M  V30 3037 N 295.62 -1.53406 -0.361157 0
M  V30 3038 C 296.553 -1.74946 -1.46524 0
M  V30 3039 C 297.531 -0.59795 -1.51206 0
M  V30 3040 O 298.715 -0.831062 -1.69191 0
M  V30 3041 C 295.842 -1.83224 -2.84863 0
M  V30 3042 C 294.888 -3.05233 -2.97885 0
M  V30 3043 S 295.721 -4.6466 -2.66179 0
M  V30 3044 C 296.877 -4.75793 -4.06659 0
M  V30 3045 H 297.11 -2.68319 -1.28033 0
M  V30 3046 H 294.643 -1.44051 -0.555764 0
M  V30 3047 H 296.601 -1.88679 -3.64569 0
M  V30 3048 H 295.262 -0.908948 -3.00661 0
M  V30 3049 H 294.455 -3.07648 -3.9921 0
M  V30 3050 H 294.057 -2.97913 -2.26106 0
M  V30 3051 H 296.349 -4.5612 -5.0096 0
M  V30 3052 H 297.292 -5.7786 -4.09247 0
M  V30 3053 H 297.7 -4.04389 -3.93865 0
M  V30 3054 N 297.098 0.621204 -1.44841 0
M  V30 3055 C 298.031 1.7459 -1.46947 0
M  V30 3056 C 299.009 1.59273 -0.327238 0
M  V30 3057 O 300.193 1.81021 -0.525706 0
M  V30 3058 C 297.32 3.12274 -1.31159 0
M  V30 3059 C 296.366 3.46216 -2.49072 0
M  V30 3060 S 297.199 3.4258 -4.11581 0
M  V30 3061 C 298.355 4.82867 -3.98233 0
M  V30 3062 H 298.588 1.72538 -2.42111 0
M  V30 3063 H 296.121 0.796683 -1.32259 0
M  V30 3064 H 298.079 3.91722 -1.22737 0
M  V30 3065 H 296.74 3.11855 -0.374885 0
M  V30 3066 H 295.933 4.4643 -2.33915 0
M  V30 3067 H 295.535 2.74253 -2.54286 0
M  V30 3068 H 297.827 5.7234 -3.62537 0
M  V30 3069 H 298.77 5.0308 -4.98313 0
M  V30 3070 H 299.178 4.57908 -3.30121 0
M  V30 3071 N 298.576 1.31904 0.862503 0
M  V30 3072 C 299.539 1.20131 1.95195 0
M  V30 3073 C 300.539 0.126409 1.60302 0
M  V30 3074 O 301.729 0.376234 1.70089 0
M  V30 3075 C 298.861 0.845691 3.30244 0
M  V30 3076 H 300.054 2.16943 2.07064 0
M  V30 3077 H 297.607 1.15622 1.05172 0
M  V30 3078 H 298.342 -0.120957 3.24074 0
M  V30 3079 H 298.127 1.62276 3.56944 0
M  V30 3080 H 299.617 0.787418 4.10109 0
M  V30 3081 N 300.054 -1.07777 1.14986 0
M  V30 3082 C 300.964 -2.18404 0.856546 0
M  V30 3083 C 301.98 -1.73211 -0.165485 0
M  V30 3084 O 303.156 -2.01399 0.00755219 0
M  V30 3085 C 300.221 -3.44977 0.34526 0
M  V30 3086 C 299.282 -4.0476 1.43065 0
M  V30 3087 C 298.515 -5.25291 0.943663 0
M  V30 3088 O 298.738 -5.70004 -0.212426 0
M  V30 3089 O 297.672 -5.76638 1.72547 0
M  V30 3090 H 301.498 -2.45978 1.78125 0
M  V30 3091 H 299.083 -1.17033 0.928631 0
M  V30 3092 H 300.965 -4.21348 0.0663671 0
M  V30 3093 H 299.64 -3.18965 -0.551631 0
M  V30 3094 H 298.547 -3.29949 1.76309 0
M  V30 3095 H 299.88 -4.35035 2.30229 0
M  V30 3096 N 301.532 -0.945985 -1.26051 0
M  V30 3097 C 302.943 -0.638096 -1.75457 0
M  V30 3098 C 303.294 0.846672 -1.76991 0
M  V30 3099 O 302.419 1.66262 -1.38513 0
M  V30 3100 C 303.014 -1.15157 -3.18629 0
M  V30 3101 C 301.573 -0.894004 -3.65629 0
M  V30 3102 C 300.72 -1.29967 -2.44957 0
M  V30 3103 H 303.671 -1.12376 -1.1206 0
M  V30 3104 H 303.692 -0.507615 -3.77099 0
M  V30 3105 H 303.204 -2.23222 -3.1748 0
M  V30 3106 H 301.305 0.172057 -3.72203 0
M  V30 3107 H 301.418 -1.52439 -4.54202 0
M  V30 3108 H 299.782 -0.718078 -2.44368 0
M  V30 3109 H 300.565 -2.38935 -2.46505 0
M  V30 3110 N 303.011 1.40521 -0.713556 0
M  V30 3111 C 303.959 2.32549 -0.0485227 0
M  V30 3112 C 304.953 1.51931 0.74922 0
M  V30 3113 O 306.159 1.67745 0.652816 0
M  V30 3114 H 302.534 0.751994 0.00311138 0
M  V30 3115 H 304.505 2.86291 -0.841443 0
M  V30 3116 C 303.254 3.36879 0.860687 0
M  V30 3117 H 302.577 3.98978 0.256246 0
M  V30 3118 H 304.017 4.03772 1.294 0
M  V30 3119 C 302.476 2.72197 1.9852 0
M  V30 3120 O 303.006 2.5837 3.07584 0
M  V30 3121 N 301.212 2.30612 1.76823 0
M  V30 3122 H 300.759 2.42059 0.881217 0
M  V30 3123 H 300.717 1.87672 2.52243 0
M  V30 3124 N 304.489 0.459591 1.5075 0
M  V30 3125 C 305.735 -0.0994966 2.02556 0
M  V30 3126 C 306.068 -1.40399 1.3417 0
M  V30 3127 O 305.343 -1.88892 0.463683 0
M  V30 3128 C 305.626 -0.295242 3.58888 0
M  V30 3129 C 305.479 1.02947 4.37861 0
M  V30 3130 C 306.798 -1.05502 4.27267 0
M  V30 3131 H 303.917 -0.034686 0.736183 0
M  V30 3132 H 306.559 0.602938 1.8018 0
M  V30 3133 H 304.709 -0.893563 3.78084 0
M  V30 3134 H 306.381 1.66348 4.30263 0
M  V30 3135 H 304.624 1.62885 4.02058 0
M  V30 3136 H 305.295 0.846281 5.45474 0
M  V30 3137 H 307.771 -0.547993 4.12476 0
M  V30 3138 H 306.647 -1.16077 5.36486 0
M  V30 3139 H 306.908 -2.08875 3.89645 0
M  V30 3140 N 305.967 -1.56429 0.191757 0
M  V30 3141 C 307.244 -1.89224 -0.495332 0
M  V30 3142 C 307.624 -1.10478 -1.79883 0
M  V30 3143 O 306.972 -0.204852 -2.2758 0
M  V30 3144 C 307.182 -3.41548 -0.717367 0
M  V30 3145 C 308.53 -4.11711 -1.03823 0
M  V30 3146 O 309.554 -3.4698 -0.805204 0
M  V30 3147 O 308.413 -5.2611 -1.47887 0
M  V30 3148 H 305.507 -0.785788 -0.25781 0
M  V30 3149 H 308.053 -1.68111 0.231721 0
M  V30 3150 H 306.825 -3.90772 0.203287 0
M  V30 3151 H 306.448 -3.68342 -1.497 0
M  V30 3152 N 307.445 0.0818655 -1.57387 0
M  V30 3153 C 308.673 0.796108 -1.9097 0
M  V30 3154 C 309.088 1.71626 -0.786757 0
M  V30 3155 O 308.445 1.80908 0.240513 0
M  V30 3156 C 308.496 1.59829 -3.24248 0
M  V30 3157 O 308.217 0.715131 -4.32224 0
M  V30 3158 C 309.718 2.41442 -3.7178 0
M  V30 3159 H 306.938 0.22691 -0.631469 0
M  V30 3160 H 309.482 0.0551439 -2.04426 0
M  V30 3161 H 307.637 2.29163 -3.12351 0
M  V30 3162 H 308.051 1.27205 -5.08841 0
M  V30 3163 H 309.525 2.932 -4.67694 0
M  V30 3164 H 310.002 3.2051 -3.00283 0
M  V30 3165 H 310.608 1.77283 -3.86589 0
M  V30 3166 N 308.923 1.53595 0.353017 0
M  V30 3167 C 309.886 1.80232 1.41594 0
M  V30 3168 C 310.886 0.673081 1.46035 0
M  V30 3169 O 312.076 0.941335 1.46576 0
M  V30 3170 C 309.208 1.93578 2.80607 0
M  V30 3171 H 310.401 2.75174 1.19244 0
M  V30 3172 H 307.954 1.44864 0.586872 0
M  V30 3173 H 308.689 1.00746 3.08254 0
M  V30 3174 H 308.474 2.75724 2.78781 0
M  V30 3175 H 309.964 2.15735 3.57558 0
M  V30 3176 N 310.401 -0.613514 1.45168 0
M  V30 3177 C 311.333 -1.73825 1.4939 0
M  V30 3178 C 312.346 -1.58175 0.385304 0
M  V30 3179 O 313.535 -1.66165 0.652036 0
M  V30 3180 C 310.635 -3.11758 1.32891 0
M  V30 3181 C 309.808 -3.53704 2.57317 0
M  V30 3182 C 308.867 -4.70579 2.35462 0
M  V30 3183 O 307.893 -4.77996 3.09044 0
M  V30 3184 N 309.095 -5.63454 1.39644 0
M  V30 3185 H 311.86 -1.70669 2.46358 0
M  V30 3186 H 309.421 -0.79862 1.40832 0
M  V30 3187 H 311.413 -3.87692 1.1609 0
M  V30 3188 H 309.983 -3.09456 0.442218 0
M  V30 3189 H 309.203 -2.67794 2.89275 0
M  V30 3190 H 310.491 -3.78486 3.40038 0
M  V30 3191 H 309.889 -5.6017 0.789062 0
M  V30 3192 H 308.446 -6.38944 1.28816 0
M  V30 3193 N 311.879 -1.3236 -0.855495 0
M  V30 3194 C 313.295 -1.11332 -1.14356 0
M  V30 3195 C 313.495 0.106751 -2.01217 0
M  V30 3196 O 312.551 0.791891 -2.39761 0
M  V30 3197 C 313.864 -2.39237 -1.82171 0
M  V30 3198 C 315.412 -2.44986 -1.9481 0
M  V30 3199 C 315.887 -3.7281 -2.66039 0
M  V30 3200 N 317.378 -3.73787 -2.73565 0
M  V30 3201 C 318.113 -4.69394 -3.29327 0
M  V30 3202 N 317.609 -5.75367 -3.85907 0
M  V30 3203 N 319.402 -4.56893 -3.27423 0
M  V30 3204 H 311.553 -2.10586 -0.277027 0
M  V30 3205 H 313.816 -0.929701 -0.185364 0
M  V30 3206 H 313.522 -3.28431 -1.25802 0
M  V30 3207 H 313.396 -2.50134 -2.82335 0
M  V30 3208 H 315.783 -1.56252 -2.50338 0
M  V30 3209 H 315.864 -2.38043 -0.936448 0
M  V30 3210 H 315.508 -4.61918 -2.11174 0
M  V30 3211 H 315.438 -3.77024 -3.67642 0
M  V30 3212 H 317.929 -2.97189 -2.33424 0
M  V30 3213 H 318.242 -6.44378 -4.26611 0
M  V30 3214 H 316.587 -5.79123 -3.84242 0
M  V30 3215 H 319.778 -3.73269 -2.82467 0
M  V30 3216 H 319.951 -5.31577 -3.7058 0
M  V30 3217 N 313.357 1.07166 -1.15556 0
M  V30 3218 C 314.267 2.17947 -0.868116 0
M  V30 3219 C 315.283 1.73297 0.156297 0
M  V30 3220 O 316.459 2.01392 -0.0182327 0
M  V30 3221 C 313.524 3.44789 -0.36355 0
M  V30 3222 C 312.585 4.03996 -1.45209 0
M  V30 3223 C 311.818 5.24783 -0.971508 0
M  V30 3224 O 312.041 5.70109 0.182194 0
M  V30 3225 O 310.975 5.75715 -1.75603 0
M  V30 3226 H 314.801 2.4503 -1.79427 0
M  V30 3227 H 312.386 1.16539 -0.934824 0
M  V30 3228 H 314.268 4.21307 -0.0887113 0
M  V30 3229 H 312.943 3.19253 0.534708 0
M  V30 3230 H 311.85 3.29009 -1.78056 0
M  V30 3231 H 313.183 4.33808 -2.32533 0
M  V30 3232 N 314.835 0.952656 1.25548 0
M  V30 3233 C 316.251 0.656769 1.4546 0
M  V30 3234 C 316.451 -0.78633 1.85524 0
M  V30 3235 O 315.507 -1.56183 1.98402 0
M  V30 3236 C 316.82 1.62801 2.52817 0
M  V30 3237 C 318.368 1.63897 2.66659 0
M  V30 3238 C 318.843 2.5978 3.77198 0
M  V30 3239 N 320.334 2.58133 3.84606 0
M  V30 3240 C 321.069 3.29003 4.69621 0
M  V30 3241 N 320.565 4.09339 5.58939 0
M  V30 3242 N 322.358 3.179 4.63569 0
M  V30 3243 H 314.509 1.88526 0.978344 0
M  V30 3244 H 316.772 0.810815 0.491206 0
M  V30 3245 H 316.478 2.65869 2.30232 0
M  V30 3246 H 316.352 1.38898 3.50695 0
M  V30 3247 H 318.739 0.615481 2.8861 0
M  V30 3248 H 318.82 1.91858 1.69187 0
M  V30 3249 H 318.464 3.62254 3.55997 0
M  V30 3250 H 318.394 2.29105 4.7415 0
M  V30 3251 H 320.885 1.99809 3.20757 0
M  V30 3252 H 321.198 4.6034 6.20731 0
M  V30 3253 H 319.543 4.13438 5.58654 0
M  V30 3254 H 322.734 2.54612 3.92798 0
M  V30 3255 H 322.907 3.73398 5.29602 0
M  V30 3256 N 316.313 -1.40141 0.720998 0
M  V30 3257 C 317.559 -2.01084 0.263231 0
M  V30 3258 C 317.892 -1.57052 -1.14229 0
M  V30 3259 O 317.167 -0.793027 -1.77599 0
M  V30 3260 C 317.45 -3.58401 0.349344 0
M  V30 3261 C 317.303 -4.12491 1.79363 0
M  V30 3262 C 318.622 -4.39231 -0.276351 0
M  V30 3263 H 315.741 -0.730572 0.0971228 0
M  V30 3264 H 318.383 -1.66543 0.914518 0
M  V30 3265 H 316.533 -3.87958 -0.205165 0
M  V30 3266 H 318.205 -3.93711 2.40394 0
M  V30 3267 H 316.448 -3.66576 2.31958 0
M  V30 3268 H 317.119 -5.21646 1.80524 0
M  V30 3269 H 319.595 -4.15637 0.196184 0
M  V30 3270 H 318.471 -5.48586 -0.185681 0
M  V30 3271 H 318.732 -4.20643 -1.36059 0
M  V30 3272 N 317.792 -0.46758 -1.50504 0
M  V30 3273 C 319.038 0.0887532 -2.02606 0
M  V30 3274 C 319.371 1.39686 -1.34913 0
M  V30 3275 O 318.646 1.88644 -0.473694 0
M  V30 3276 C 318.929 0.276206 -3.59039 0
M  V30 3277 C 318.782 -1.05267 -4.37309 0
M  V30 3278 C 320.101 1.03235 -4.27821 0
M  V30 3279 H 317.22 0.0307814 -0.736357 0
M  V30 3280 H 319.862 -0.612485 -1.79857 0
M  V30 3281 H 318.012 0.8735 -3.78553 0
M  V30 3282 H 319.684 -1.68628 -4.29374 0
M  V30 3283 H 317.927 -1.65015 -4.01189 0
M  V30 3284 H 318.598 -0.875197 -5.45018 0
M  V30 3285 H 321.074 0.526111 -4.12761 0
M  V30 3286 H 319.95 1.1323 -5.37094 0
M  V30 3287 H 320.211 2.06806 -3.90748 0
M  V30 3288 N 319.27 1.56325 -0.20005 0
M  V30 3289 C 320.217 2.1932 0.718833 0
M  V30 3290 C 321.187 1.14198 1.20615 0
M  V30 3291 O 322.372 1.42469 1.26914 0
M  V30 3292 C 319.512 2.86041 1.93066 0
M  V30 3293 C 318.625 4.05702 1.48425 0
M  V30 3294 C 317.76 4.60266 2.65196 0
M  V30 3295 C 316.799 5.72273 2.17185 0
M  V30 3296 N 315.936 6.21221 3.27152 0
M  V30 3297 H 320.776 2.97486 0.17489 0
M  V30 3298 H 318.313 1.46911 0.0745794 0
M  V30 3299 H 320.271 3.22897 2.64184 0
M  V30 3300 H 318.901 2.1043 2.44783 0
M  V30 3301 H 317.953 3.74475 0.668755 0
M  V30 3302 H 319.265 4.86699 1.09204 0
M  V30 3303 H 318.419 4.99453 3.4443 0
M  V30 3304 H 317.158 3.78386 3.07693 0
M  V30 3305 H 316.163 5.3261 1.36407 0
M  V30 3306 H 317.388 6.55974 1.75713 0
M  V30 3307 H 315.334 5.42263 3.69171 0
M  V30 3308 H 315.251 6.97284 2.92116 0
M  V30 3309 H 316.519 6.65063 4.06585 0
M  V30 3310 N 320.748 -0.0735177 1.57428 0
M  V30 3311 C 321.994 -0.768909 1.88307 0
M  V30 3312 C 322.349 -1.75273 0.793535 0
M  V30 3313 O 321.642 -1.90527 -0.202466 0
M  V30 3314 C 321.836 -1.51799 3.23561 0
M  V30 3315 C 321.665 -0.608217 4.45568 0
M  V30 3316 C 320.435 -0.245808 5.04702 0
M  V30 3317 C 322.633 0.0942904 5.14214 0
M  V30 3318 N 320.615 0.66987 6.10234 0
M  V30 3319 C 321.986 0.867222 6.13905 0
M  V30 3320 C 324.041 0.165943 4.97623 0
M  V30 3321 C 322.744 1.70515 6.98797 0
M  V30 3322 C 324.77 0.990837 5.83041 0
M  V30 3323 C 324.132 1.75182 6.82269 0
M  V30 3324 H 320.231 -0.25685 0.738615 0
M  V30 3325 H 322.815 -0.030499 1.94676 0
M  V30 3326 H 320.986 -2.22713 3.18203 0
M  V30 3327 H 322.718 -2.16226 3.42094 0
M  V30 3328 H 319.473 -0.598284 4.69806 0
M  V30 3329 H 319.897 1.1209 6.67656 0
M  V30 3330 H 324.539 -0.408064 4.20826 0
M  V30 3331 H 322.257 2.29013 7.7497 0
M  V30 3332 H 325.843 1.04923 5.72261 0
M  V30 3333 H 324.723 2.37983 7.47217 0
M  V30 3334 N 322.226 -1.5378 -0.344866 0
M  V30 3335 C 323.156 -1.84662 -1.42906 0
M  V30 3336 C 324.137 -0.701648 -1.54955 0
M  V30 3337 O 325.322 -0.953438 -1.69184 0
M  V30 3338 C 322.452 -2.05503 -2.79974 0
M  V30 3339 C 321.406 -3.21318 -2.82734 0
M  V30 3340 C 320.732 -3.2749 -4.22675 0
M  V30 3341 C 322.032 -4.59456 -2.48389 0
M  V30 3342 H 323.726 -2.75461 -1.17311 0
M  V30 3343 H 321.272 -1.32542 -0.562896 0
M  V30 3344 H 323.225 -2.25691 -3.55867 0
M  V30 3345 H 321.949 -1.11434 -3.07002 0
M  V30 3346 H 320.608 -3.00984 -2.09294 0
M  V30 3347 H 320.256 -2.31019 -4.4681 0
M  V30 3348 H 319.956 -4.05316 -4.25433 0
M  V30 3349 H 321.48 -3.49887 -5.00412 0
M  V30 3350 H 322.894 -4.79667 -3.13995 0
M  V30 3351 H 321.291 -5.39675 -2.62432 0
M  V30 3352 H 322.361 -4.63155 -1.4358 0
M  V30 3353 N 323.704 0.605807 -1.45491 0
M  V30 3354 C 324.652 1.73754 -1.54636 0
M  V30 3355 C 325.646 1.64207 -0.416219 0
M  V30 3356 O 326.852 1.69979 -0.592199 0
M  V30 3357 H 323.227 0.574073 -0.485741 0
M  V30 3358 H 325.198 1.63169 -2.49837 0
M  V30 3359 C 323.947 3.12135 -1.53189 0
M  V30 3360 H 323.27 3.20141 -2.39478 0
M  V30 3361 H 324.71 3.91147 -1.63645 0
M  V30 3362 C 323.169 3.35921 -0.256616 0
M  V30 3363 O 323.699 3.96194 0.662798 0
M  V30 3364 N 321.905 2.90204 -0.151751 0
M  V30 3365 H 321.452 2.41336 -0.90081 0
M  V30 3366 H 321.41 3.06492 0.700699 0
M  V30 3367 N 325.182 1.32811 0.848464 0
M  V30 3368 C 326.598 1.11937 1.13764 0
M  V30 3369 C 326.798 -0.0960789 2.01271 0
M  V30 3370 O 325.854 -0.779165 2.40178 0
M  V30 3371 C 327.167 2.402 1.809 0
M  V30 3372 C 328.715 2.46016 1.93508 0
M  V30 3373 C 329.19 3.74215 2.64059 0
M  V30 3374 N 330.681 3.75232 2.71579 0
M  V30 3375 C 331.416 4.71134 3.26833 0
M  V30 3376 N 330.912 5.77406 3.8285 0
M  V30 3377 N 332.705 4.58623 3.24995 0
M  V30 3378 H 324.856 2.1073 0.265855 0
M  V30 3379 H 327.119 0.930671 0.180431 0
M  V30 3380 H 326.825 3.29093 1.24058 0
M  V30 3381 H 326.699 2.51628 2.81004 0
M  V30 3382 H 329.086 1.57577 2.49506 0
M  V30 3383 H 329.167 2.38536 0.923811 0
M  V30 3384 H 328.811 4.63031 2.08722 0
M  V30 3385 H 328.741 3.78968 3.65637 0
M  V30 3386 H 331.232 2.98423 2.31845 0
M  V30 3387 H 331.545 6.46632 4.23187 0
M  V30 3388 H 329.89 5.81152 3.81165 0
M  V30 3389 H 333.081 3.74762 2.80484 0
M  V30 3390 H 333.254 5.33535 3.67756 0
M  V30 3391 N 326.66 -1.06551 1.16123 0
M  V30 3392 C 327.906 -1.79567 0.94252 0
M  V30 3393 C 328.239 -1.86869 -0.528547 0
M  V30 3394 O 327.514 -1.35838 -1.39206 0
M  V30 3395 C 327.797 -3.24195 1.56747 0
M  V30 3396 C 327.65 -3.24989 3.10969 0
M  V30 3397 C 328.969 -4.21678 1.25998 0
M  V30 3398 H 326.088 -0.651883 0.343828 0
M  V30 3399 H 328.73 -1.2463 1.43413 0
M  V30 3400 H 326.88 -3.71107 1.14942 0
M  V30 3401 H 328.552 -2.86258 3.61737 0
M  V30 3402 H 326.795 -2.63716 3.44436 0
M  V30 3403 H 327.466 -4.27005 3.49815 0
M  V30 3404 H 329.942 -3.83196 1.62174 0
M  V30 3405 H 328.818 -5.21146 1.7233 0
M  V30 3406 H 329.079 -4.4174 0.178367 0
M  V30 3407 N 328.138 -0.959301 -1.25041 0
M  V30 3408 C 329.101 -0.487677 -2.23952 0
M  V30 3409 C 330.101 0.41119 -1.55454 0
M  V30 3410 O 331.291 0.207825 -1.72956 0
M  V30 3411 C 328.423 0.294807 -3.39623 0
M  V30 3412 H 329.616 -1.36198 -2.67189 0
M  V30 3413 H 327.169 -0.743042 -1.37508 0
M  V30 3414 H 327.904 1.18658 -3.01813 0
M  V30 3415 H 327.689 -0.35012 -3.90534 0
M  V30 3416 H 329.179 0.614089 -4.1306 0
M  V30 3417 N 329.616 1.39756 -0.72842 0
M  V30 3418 C 331.032 1.5442 -0.403308 0
M  V30 3419 C 331.232 1.69694 1.08656 0
M  V30 3420 O 330.288 1.69373 1.87267 0
M  V30 3421 C 331.601 2.76555 -1.18058 0
M  V30 3422 C 333.149 2.90384 -1.16815 0
M  V30 3423 C 333.624 4.15449 -1.92785 0
M  V30 3424 N 335.115 4.22475 -1.89918 0
M  V30 3425 C 335.85 5.1818 -2.45514 0
M  V30 3426 N 335.346 6.19714 -3.09719 0
M  V30 3427 N 337.139 5.1035 -2.35584 0
M  V30 3428 H 329.29 1.28089 -1.69431 0
M  V30 3429 H 331.553 0.620327 -0.716867 0
M  V30 3430 H 331.259 2.7159 -2.23455 0
M  V30 3431 H 331.133 3.69033 -0.780662 0
M  V30 3432 H 333.52 2.94846 -0.12234 0
M  V30 3433 H 333.601 1.98988 -1.6074 0
M  V30 3434 H 333.245 4.11749 -2.97364 0
M  V30 3435 H 333.175 5.05877 -1.46272 0
M  V30 3436 H 335.666 3.49743 -1.43138 0
M  V30 3437 H 335.979 6.8919 -3.49625 0
M  V30 3438 H 334.324 6.20121 -3.13807 0
M  V30 3439 H 337.515 4.2996 -1.85072 0
M  V30 3440 H 337.688 5.84761 -2.79211 0
M  V30 3441 N 331.094 0.475555 1.50254 0
M  V30 3442 C 332.044 -0.335025 2.25525 0
M  V30 3443 C 333.028 -0.957625 1.29299 0
M  V30 3444 O 334.22 -0.869436 1.54175 0
M  V30 3445 C 331.349 -1.41385 3.12834 0
M  V30 3446 C 330.435 -0.798762 4.1651 0
M  V30 3447 N 330.826 0.0835815 5.05731 0
M  V30 3448 C 329.124 -1.06221 4.33166 0
M  V30 3449 C 329.825 0.433113 5.80085 0
M  V30 3450 N 328.801 -0.1928 5.43258 0
M  V30 3451 H 332.603 0.344612 2.91873 0
M  V30 3452 H 330.117 0.289986 1.5979 0
M  V30 3453 H 332.114 -2.00777 3.65368 0
M  V30 3454 H 330.774 -2.09543 2.48036 0
M  V30 3455 H 331.785 0.452715 5.15918 0
M  V30 3456 H 328.462 -1.73844 3.79585 0
M  V30 3457 H 329.852 1.15346 6.61925 0
M  V30 3458 N 332.573 -1.56217 0.208337 0
M  V30 3459 C 333.505 -2.1695 -0.739276 0
M  V30 3460 C 334.518 -1.13492 -1.1672 0
M  V30 3461 O 335.707 -1.40529 -1.10063 0
M  V30 3462 C 332.807 -2.72755 -2.01142 0
M  V30 3463 C 331.98 -4.0125 -1.74118 0
M  V30 3464 C 331.039 -4.41749 -2.85909 0
M  V30 3465 O 330.065 -5.08912 -2.54946 0
M  V30 3466 N 331.267 -4.06342 -4.14568 0
M  V30 3467 H 334.032 -2.98893 -0.219837 0
M  V30 3468 H 331.593 -1.61878 0.0268445 0
M  V30 3469 H 333.585 -2.96826 -2.75094 0
M  V30 3470 H 332.155 -1.95191 -2.4417 0
M  V30 3471 H 331.375 -3.85173 -0.838775 0
M  V30 3472 H 332.663 -4.851 -1.53477 0
M  V30 3473 H 332.061 -3.52345 -4.42571 0
M  V30 3474 H 330.618 -4.35335 -4.85105 0
M  V30 3475 N 334.051 0.0651679 -1.57465 0
M  V30 3476 C 335.279 0.775808 -1.91804 0
M  V30 3477 C 335.694 1.70782 -0.804916 0
M  V30 3478 O 335.051 1.81153 0.221311 0
M  V30 3479 C 335.102 1.56381 -3.25925 0
M  V30 3480 O 334.823 0.669248 -4.32958 0
M  V30 3481 C 336.324 2.37485 -3.7432 0
M  V30 3482 H 333.544 0.2202 -0.63384 0
M  V30 3483 H 336.088 0.0334587 -2.04473 0
M  V30 3484 H 334.243 2.25837 -3.14764 0
M  V30 3485 H 334.657 1.21801 -5.10162 0
M  V30 3486 H 336.131 2.88223 -4.70778 0
M  V30 3487 H 336.608 3.17307 -3.03666 0
M  V30 3488 H 337.214 1.73173 -3.88447 0
M  V30 3489 N 335.529 1.53961 0.336706 0
M  V30 3490 C 336.754 1.75797 1.10046 0
M  V30 3491 C 337.179 0.498985 1.81361 0
M  V30 3492 O 336.537 -0.548769 1.72795 0
M  V30 3493 C 336.585 2.94257 2.08436 0
M  V30 3494 O 335.689 2.64883 3.16087 0
M  V30 3495 H 335.03 0.582936 0.317934 0
M  V30 3496 H 337.56 2.00945 0.38501 0
M  V30 3497 H 337.57 3.21237 2.51537 0
M  V30 3498 H 336.245 3.85564 1.55927 0
M  V30 3499 H 334.822 2.48812 2.77753 0
M  V30 3500 N 337.007 -0.598083 1.45811 0
M  V30 3501 C 338.254 -1.35681 1.50323 0
M  V30 3502 C 338.582 -1.9393 0.148739 0
M  V30 3503 O 337.837 -1.76094 -0.853787 0
M  V30 3504 C 338.136 -2.51669 2.53766 0
M  V30 3505 C 337.802 -2.11508 3.98215 0
M  V30 3506 C 336.464 -2.0027 4.37545 0
M  V30 3507 C 338.816 -1.80308 4.89018 0
M  V30 3508 C 336.144 -1.56067 5.65562 0
M  V30 3509 C 338.496 -1.37589 6.17456 0
M  V30 3510 C 337.16 -1.24916 6.55708 0
M  V30 3511 H 336.43 -0.496492 0.550069 0
M  V30 3512 H 339.077 -0.675052 1.79207 0
M  V30 3513 H 337.382 -3.25225 2.18486 0
M  V30 3514 H 339.079 -3.09895 2.54492 0
M  V30 3515 H 335.669 -2.21185 3.67117 0
M  V30 3516 H 339.853 -1.87884 4.59362 0
M  V30 3517 H 335.109 -1.44886 5.93985 0
M  V30 3518 H 339.283 -1.12495 6.87254 0
M  V30 3519 H 336.91 -0.904386 7.54801 0
M  V30 3520 N 338.485 -1.33259 -0.841409 0
M  V30 3521 C 339.896 -1.22066 -1.41269 0
M  V30 3522 C 340.247 0.161479 -1.95534 0
M  V30 3523 O 339.372 1.06094 -1.88608 0
M  V30 3524 C 339.967 -2.20996 -2.568 0
M  V30 3525 C 338.526 -2.13649 -3.09888 0
M  V30 3526 C 337.673 -2.08623 -1.82679 0
M  V30 3527 H 340.624 -1.44895 -0.647395 0
M  V30 3528 H 340.645 -1.81621 -3.34356 0
M  V30 3529 H 340.157 -3.2158 -2.17274 0
M  V30 3530 H 338.258 -1.16359 -3.53965 0
M  V30 3531 H 338.371 -3.04079 -3.70234 0
M  V30 3532 H 336.735 -1.54061 -2.02824 0
M  V30 3533 H 337.518 -3.1101 -1.45353 0
M  V30 3534 N 339.963 1.05934 -1.16686 0
M  V30 3535 C 341.211 1.78447 -0.948744 0
M  V30 3536 C 341.532 1.87813 0.524523 0
M  V30 3537 O 340.802 1.38945 1.38098 0
M  V30 3538 H 339.382 0.660971 -0.348033 0
M  V30 3539 H 342.044 1.27947 -1.47022 0
M  V30 3540 H 341.14 2.80394 -1.37061 0
M  V30 3541 N 341.441 0.965919 1.2453 0
M  V30 3542 C 342.689 0.625593 1.92174 0
M  V30 3543 C 343.01 -0.841652 1.75901 0
M  V30 3544 O 342.28 -1.60061 1.12948 0
M  V30 3545 H 340.86 0.228388 0.71123 0
M  V30 3546 H 343.522 1.2266 1.51461 0
M  V30 3547 H 342.618 0.864653 2.99884 0
M  V30 3548 N 342.919 -1.39368 0.735821 0
M  V30 3549 C 344.196 -1.94465 0.210395 0
M  V30 3550 C 344.576 -1.67254 -1.28799 0
M  V30 3551 O 343.924 -1.00123 -2.05396 0
M  V30 3552 C 344.134 -3.4472 0.544897 0
M  V30 3553 C 345.482 -4.21708 0.494689 0
M  V30 3554 O 346.506 -3.52922 0.482136 0
M  V30 3555 O 345.365 -5.44299 0.489947 0
M  V30 3556 H 342.459 -0.826096 0.0386666 0
M  V30 3557 H 345.005 -1.48863 0.814735 0
M  V30 3558 H 343.777 -3.57963 1.58045 0
M  V30 3559 H 343.4 -3.97502 -0.08837 0
M  V30 3560 N 344.397 -0.483516 -1.5 0
M  V30 3561 C 345.625 0.0644831 -2.06799 0
M  V30 3562 C 346.04 1.32399 -1.34596 0
M  V30 3563 O 345.397 1.77626 -0.418946 0
M  V30 3564 C 345.448 0.339927 -3.59898 0
M  V30 3565 O 345.169 -0.869635 -4.29382 0
M  V30 3566 C 346.67 0.933515 -4.33359 0
M  V30 3567 H 343.89 -0.0126333 -0.670881 0
M  V30 3568 H 346.434 -0.675864 -1.93009 0
M  V30 3569 H 344.589 1.03022 -3.7345 0
M  V30 3570 H 345.003 -0.62179 -5.20801 0
M  V30 3571 H 346.477 1.07593 -5.41413 0
M  V30 3572 H 346.954 1.92685 -3.94676 0
M  V30 3573 H 347.56 0.281221 -4.24369 0
M  V30 3574 N 345.875 1.56104 -0.216619 0
M  V30 3575 C 347.1 2.0301 0.424462 0
M  V30 3576 C 347.525 1.0955 1.52907 0
M  V30 3577 O 346.883 0.0827914 1.81111 0
M  V30 3578 C 346.931 3.4819 0.937883 0
M  V30 3579 O 346.035 3.57865 2.04955 0
M  V30 3580 H 345.376 0.656925 0.0966755 0
M  V30 3581 H 347.906 2.01859 -0.33381 0
M  V30 3582 H 347.916 3.88413 1.24897 0
M  V30 3583 H 346.591 4.15699 0.129387 0
M  V30 3584 H 345.168 3.29527 1.74546 0
M  V30 3585 N 347.353 -0.0568162 1.57498 0
M  V30 3586 C 348.593 -0.758273 1.89815 0
M  V30 3587 C 348.957 -1.73978 0.812132 0
M  V30 3588 O 350.158 -2.48744 1.01881 0
M  V30 3589 C 348.429 -1.43465 3.27342 0
M  V30 3590 S 349.988 -2.1691 3.81439 0
M  V30 3591 H 346.806 -0.251836 0.664906 0
M  V30 3592 H 349.408 -0.0137997 1.95495 0
M  V30 3593 H 348.112 -0.706693 4.0427 0
M  V30 3594 H 347.643 -2.21825 3.24896 0
M  V30 3595 H 349.658 -3.43658 3.5793 0
M  V30 3596 N 348.832 -1.54138 -0.328536 0
M  V30 3597 C 350.072 -1.73827 -1.07534 0
M  V30 3598 C 350.436 -0.498777 -1.85408 0
M  V30 3599 O 351.637 -0.572937 -2.62623 0
M  V30 3600 C 349.908 -2.97573 -1.97952 0
M  V30 3601 S 351.467 -3.38143 -2.79652 0
M  V30 3602 H 348.285 -0.611287 -0.36311 0
M  V30 3603 H 350.887 -1.92306 -0.351931 0
M  V30 3604 H 349.591 -3.85939 -1.39569 0
M  V30 3605 H 349.122 -2.81603 -2.74706 0
M  V30 3606 H 351.137 -2.93052 -4.00418 0
M  V30 3607 N 350.31 0.590341 -1.46126 0
M  V30 3608 C 351.258 1.72105 -1.5647 0
M  V30 3609 C 352.252 1.63756 -0.433612 0
M  V30 3610 O 353.458 1.69342 -0.610194 0
M  V30 3611 H 349.833 0.568889 -0.491802 0
M  V30 3612 H 351.804 1.6051 -2.51553 0
M  V30 3613 C 350.553 3.10493 -1.56491 0
M  V30 3614 H 349.876 3.17583 -2.4286 0
M  V30 3615 H 351.316 3.8939 -1.67785 0
M  V30 3616 C 349.775 3.3563 -0.292231 0
M  V30 3617 O 350.305 3.96875 0.620739 0
M  V30 3618 N 348.511 2.90026 -0.182523 0
M  V30 3619 H 348.058 2.40367 -0.926356 0
M  V30 3620 H 348.016 3.07218 0.668152 0
M  V30 3621 N 351.788 1.33704 0.83433 0
M  V30 3622 C 352.736 1.24323 1.96587 0
M  V30 3623 C 353.73 0.143659 1.6879 0
M  V30 3624 O 354.936 0.30791 1.77347 0
M  V30 3625 H 351.311 0.385925 0.645419 0
M  V30 3626 H 353.282 2.19978 2.01624 0
M  V30 3627 C 352.031 1.00394 3.32891 0
M  V30 3628 H 351.354 1.84231 3.54822 0
M  V30 3629 H 352.794 0.97862 4.12552 0
M  V30 3630 C 351.253 -0.293047 3.35623 0
M  V30 3631 O 351.783 -1.29823 3.80143 0
M  V30 3632 N 349.989 -0.322174 2.88809 0
M  V30 3633 H 349.536 0.496379 2.52772 0
M  V30 3634 H 349.494 -1.18977 2.91019 0
M  V30 3635 N 353.266 -1.05314 1.17247 0
M  V30 3636 C 354.216 -2.11313 0.856196 0
M  V30 3637 C 355.2 -1.60013 -0.168694 0
M  V30 3638 O 356.392 -1.76968 0.0335624 0
M  V30 3639 C 353.521 -3.41301 0.369917 0
M  V30 3640 C 352.607 -3.99401 1.42616 0
M  V30 3641 N 352.998 -4.31481 2.63928 0
M  V30 3642 C 351.296 -4.27126 1.28373 0
M  V30 3643 C 351.997 -4.77799 3.31787 0
M  V30 3644 N 350.973 -4.77843 2.59166 0
M  V30 3645 H 354.775 -2.33976 1.77856 0
M  V30 3646 H 352.289 -1.2295 1.06099 0
M  V30 3647 H 354.286 -4.16713 0.124897 0
M  V30 3648 H 352.946 -3.20072 -0.546253 0
M  V30 3649 H 353.957 -4.21519 3.00902 0
M  V30 3650 H 350.634 -4.15289 0.429111 0
M  V30 3651 H 352.024 -5.11743 4.35395 0
M  V30 3652 N 354.744 -0.972509 -1.24016 0
M  V30 3653 C 355.969 -0.654417 -1.96805 0
M  V30 3654 C 356.394 0.770398 -1.716 0
M  V30 3655 O 355.752 1.52361 -0.982647 0
M  V30 3656 C 355.8 -0.941031 -3.48105 0
M  V30 3657 O 354.904 -0.0289472 -4.1239 0
M  V30 3658 H 354.245 -0.24692 -0.616382 0
M  V30 3659 H 356.775 -1.30396 -1.57664 0
M  V30 3660 H 356.785 -0.87452 -3.98517 0
M  V30 3661 H 355.46 -1.97939 -3.65777 0
M  V30 3662 H 354.037 -0.149192 -3.72601 0
M  V30 3663 N 356.222 1.38976 -0.743202 0
M  V30 3664 C 357.452 2.04339 -0.304807 0
M  V30 3665 C 357.86 1.56162 1.06819 0
M  V30 3666 O 357.203 0.725284 1.68776 0
M  V30 3667 C 357.265 3.58716 -0.237369 0
M  V30 3668 C 356.929 4.29905 -1.55018 0
M  V30 3669 C 357.926 4.55987 -2.49744 0
M  V30 3670 C 355.611 4.68294 -1.81675 0
M  V30 3671 C 357.605 5.19478 -3.69353 0
M  V30 3672 C 355.292 5.31512 -3.0156 0
M  V30 3673 C 356.29 5.57037 -3.9522 0
M  V30 3674 O 355.978 6.18941 -5.12998 0
M  V30 3675 H 355.71 0.663439 -0.12971 0
M  V30 3676 H 358.264 1.78852 -1.01001 0
M  V30 3677 H 356.494 3.83133 0.524003 0
M  V30 3678 H 358.183 4.05543 0.170121 0
M  V30 3679 H 358.949 4.26767 -2.30423 0
M  V30 3680 H 354.828 4.47779 -1.09615 0
M  V30 3681 H 358.372 5.39318 -4.42473 0
M  V30 3682 H 354.269 5.60153 -3.20778 0
M  V30 3683 H 355.037 6.37433 -5.13441 0
M  V30 3684 N 357.7 0.491464 1.49741 0
M  V30 3685 C 358.946 -0.0485431 2.03342 0
M  V30 3686 C 359.301 -1.35566 1.36527 0
M  V30 3687 O 358.594 -1.85262 0.488729 0
M  V30 3688 C 358.788 -0.267329 3.56399 0
M  V30 3689 C 358.617 1.01703 4.38049 0
M  V30 3690 C 357.387 1.56614 4.80417 0
M  V30 3691 C 359.585 1.91782 4.77204 0
M  V30 3692 N 357.567 2.7974 5.4646 0
M  V30 3693 C 358.938 2.99489 5.42868 0
M  V30 3694 C 360.993 1.92575 4.5915 0
M  V30 3695 C 359.696 4.08005 5.92389 0
M  V30 3696 C 361.722 3.0006 5.09626 0
M  V30 3697 C 361.084 4.06485 5.75282 0
M  V30 3698 H 357.183 0.0227779 0.781668 0
M  V30 3699 H 359.767 0.664204 1.8302 0
M  V30 3700 H 357.938 -0.949126 3.76625 0
M  V30 3701 H 359.67 -0.803492 3.96644 0
M  V30 3702 H 356.425 1.11256 4.60347 0
M  V30 3703 H 356.849 3.42323 5.84075 0
M  V30 3704 H 361.491 1.11605 4.07804 0
M  V30 3705 H 359.209 4.89779 6.42761 0
M  V30 3706 H 362.795 3.01681 4.97473 0
M  V30 3707 H 361.675 4.88287 6.13633 0
M  V30 3708 N 359.178 -1.55987 0.224894 0
M  V30 3709 C 360.594 -1.59066 -0.130426 0
M  V30 3710 C 360.794 -1.24176 -1.5869 0
M  V30 3711 O 359.85 -0.978592 -2.32766 0
M  V30 3712 C 361.163 -3.00042 0.198883 0
M  V30 3713 C 362.711 -3.1268 0.141391 0
M  V30 3714 C 363.186 -4.55839 0.444422 0
M  V30 3715 N 364.677 -4.6152 0.394115 0
M  V30 3716 C 365.412 -5.70231 0.602038 0
M  V30 3717 N 364.908 -6.87291 0.871914 0
M  V30 3718 N 366.701 -5.59555 0.534245 0
M  V30 3719 H 358.852 -1.76941 1.17497 0
M  V30 3720 H 361.115 -0.822604 0.471197 0
M  V30 3721 H 360.821 -3.30234 1.2099 0
M  V30 3722 H 360.695 -3.74075 -0.484535 0
M  V30 3723 H 363.082 -2.82283 -0.860265 0
M  V30 3724 H 363.163 -2.40969 0.858335 0
M  V30 3725 H 362.807 -4.86954 1.44353 0
M  V30 3726 H 362.737 -5.2578 -0.293752 0
M  V30 3727 H 365.228 -3.77405 0.193356 0
M  V30 3728 H 365.541 -7.66058 1.01858 0
M  V30 3729 H 363.886 -6.89028 0.909145 0
M  V30 3730 H 367.077 -4.6698 0.323612 0
M  V30 3731 H 367.25 -6.44211 0.699693 0
M  V30 3732 N 360.656 0.0484629 -1.57525 0
M  V30 3733 C 361.904 0.741657 -1.88 0
M  V30 3734 C 362.225 1.76918 -0.820054 0
M  V30 3735 O 361.495 1.95335 0.148661 0
M  V30 3736 H 360.075 0.276908 -0.69378 0
M  V30 3737 H 362.737 0.019013 -1.94891 0
M  V30 3738 H 361.833 1.24336 -2.86264 0
M  V30 3739 N 362.134 1.5431 0.320358 0
M  V30 3740 C 363.066 1.80262 1.41556 0
M  V30 3741 C 364.079 0.684723 1.477 0
M  V30 3742 O 365.268 0.961886 1.50366 0
M  V30 3743 C 362.368 1.90825 2.8007 0
M  V30 3744 C 361.541 3.21023 2.97091 0
M  V30 3745 C 360.6 3.22247 4.15985 0
M  V30 3746 O 359.626 3.95871 4.08992 0
M  V30 3747 N 360.828 2.46258 5.25678 0
M  V30 3748 H 363.593 2.74778 1.19655 0
M  V30 3749 H 361.154 1.53646 0.510358 0
M  V30 3750 H 363.146 1.89067 3.57821 0
M  V30 3751 H 361.716 1.03392 2.95006 0
M  V30 3752 H 360.936 3.35715 2.06614 0
M  V30 3753 H 362.224 4.0698 3.05361 0
M  V30 3754 H 361.622 1.86037 5.34235 0
M  V30 3755 H 360.179 2.50275 6.01835 0
M  V30 3756 N 363.613 -0.582584 1.46437 0
M  V30 3757 C 364.523 -1.71949 1.59595 0
M  V30 3758 C 365.539 -1.67264 0.479443 0
M  V30 3759 O 366.715 -1.87171 0.743579 0
M  V30 3760 C 363.78 -3.08452 1.58298 0
M  V30 3761 C 362.841 -3.244 2.81182 0
M  V30 3762 C 362.074 -4.54391 2.79937 0
M  V30 3763 O 362.297 -5.38287 1.8869 0
M  V30 3764 O 361.231 -4.73588 3.71481 0
M  V30 3765 H 365.057 -1.63795 2.55744 0
M  V30 3766 H 362.642 -0.749643 1.29231 0
M  V30 3767 H 364.524 -3.89732 1.60271 0
M  V30 3768 H 363.199 -3.17043 0.653094 0
M  V30 3769 H 362.106 -2.42613 2.84763 0
M  V30 3770 H 363.439 -3.20699 3.7338 0
M  V30 3771 N 365.091 -1.34144 -0.827227 0
M  V30 3772 C 366.054 -1.25264 -1.91942 0
M  V30 3773 C 367.054 -0.168866 -1.59911 0
M  V30 3774 O 368.244 -0.421198 -1.69031 0
M  V30 3775 C 365.376 -0.932952 -3.27885 0
M  V30 3776 H 366.569 -2.22357 -2.0124 0
M  V30 3777 H 364.122 -1.1837 -1.0207 0
M  V30 3778 H 364.857 0.0349917 -3.24281 0
M  V30 3779 H 364.642 -1.71682 -3.52516 0
M  V30 3780 H 366.132 -0.895874 -4.07877 0
M  V30 3781 N 366.569 1.04691 -1.17803 0
M  V30 3782 C 367.797 1.81446 -0.99423 0
M  V30 3783 C 368.212 1.83174 0.457459 0
M  V30 3784 O 367.569 1.26265 1.31771 0
M  V30 3785 C 367.62 3.27334 -1.5341 0
M  V30 3786 O 367.341 3.25798 -2.92895 0
M  V30 3787 C 368.842 4.20759 -1.39559 0
M  V30 3788 H 366.062 0.571599 -0.351447 0
M  V30 3789 H 368.606 1.31982 -1.56208 0
M  V30 3790 H 366.761 3.74052 -1.00815 0
M  V30 3791 H 367.175 4.17144 -3.17949 0
M  V30 3792 H 368.649 5.21084 -1.82141 0
M  V30 3793 H 369.126 4.37856 -0.343394 0
M  V30 3794 H 369.732 3.79901 -1.91195 0
M  V30 3795 N 368.047 0.979072 1.23499 0
M  V30 3796 C 369.296 0.642751 1.91185 0
M  V30 3797 C 369.609 -0.827253 1.77245 0
M  V30 3798 O 370.815 -1.27458 2.39722 0
M  V30 3799 C 369.271 1.09901 3.42709 0
M  V30 3800 C 368.879 2.59327 3.65313 0
M  V30 3801 C 370.623 0.836371 4.16179 0
M  V30 3802 C 368.53 2.98627 5.10467 0
M  V30 3803 H 367.46 0.236698 0.715884 0
M  V30 3804 H 370.111 1.1868 1.39955 0
M  V30 3805 H 368.493 0.48319 3.93041 0
M  V30 3806 H 369.667 3.26136 3.25533 0
M  V30 3807 H 367.982 2.83323 3.05151 0
M  V30 3808 H 370.579 1.10586 5.23139 0
M  V30 3809 H 370.922 -0.227509 4.15678 0
M  V30 3810 H 371.455 1.41371 3.71832 0
M  V30 3811 H 368.194 4.04133 5.16098 0
M  V30 3812 H 367.714 2.3651 5.51201 0
M  V30 3813 H 369.393 2.89159 5.78788 0
M  V30 3814 N 369.525 -1.3858 0.750561 0
M  V30 3815 C 370.774 -1.99424 0.302172 0
M  V30 3816 C 371.087 -1.60254 -1.12152 0
M  V30 3817 O 372.293 -2.14046 -1.67023 0
M  V30 3818 C 370.749 -3.56558 0.489307 0
M  V30 3819 C 370.357 -4.04682 1.92189 0
M  V30 3820 C 372.101 -4.24374 0.103478 0
M  V30 3821 C 370.008 -5.54446 2.05775 0
M  V30 3822 H 368.938 -0.746046 0.10923 0
M  V30 3823 H 371.589 -1.58383 0.92667 0
M  V30 3824 H 369.971 -3.95472 -0.204329 0
M  V30 3825 H 371.145 -3.77065 2.64875 0
M  V30 3826 H 369.46 -3.4958 2.26236 0
M  V30 3827 H 372.057 -5.34384 0.183787 0
M  V30 3828 H 372.4 -4.05468 -0.943481 0
M  V30 3829 H 372.933 -3.90688 0.748854 0
M  V30 3830 H 369.672 -5.78252 3.08714 0
M  V30 3831 H 369.192 -5.83816 1.37546 0
M  V30 3832 H 370.871 -6.20099 1.84626 0
M  V30 3833 N 371.003 -0.499398 -1.49478 0
M  V30 3834 C 372.251 0.0455996 -2.02049 0
M  V30 3835 C 372.572 1.37633 -1.38138 0
M  V30 3836 O 371.842 1.8842 -0.536166 0
M  V30 3837 H 370.422 0.0198416 -0.746736 0
M  V30 3838 H 373.084 -0.656274 -1.83519 0
M  V30 3839 H 372.18 0.176445 -3.11601 0
M  V30 3840 N 372.481 1.55866 -0.233164 0
M  V30 3841 C 373.727 1.98897 0.395959 0
M  V30 3842 C 374.06 1.12091 1.58585 0
M  V30 3843 O 373.335 0.181182 1.93654 0
M  V30 3844 C 373.618 3.50658 0.819224 0
M  V30 3845 C 373.471 4.48233 -0.375109 0
M  V30 3846 C 374.79 4.07135 1.67121 0
M  V30 3847 H 371.909 0.723102 0.142451 0
M  V30 3848 H 374.551 1.87082 -0.331725 0
M  V30 3849 H 372.701 3.60857 1.43925 0
M  V30 3850 H 374.373 4.50031 -1.01341 0
M  V30 3851 H 372.616 4.21624 -1.02058 0
M  V30 3852 H 373.287 5.51988 -0.0358328 0
M  V30 3853 H 375.763 3.99952 1.14795 0
M  V30 3854 H 374.639 5.13615 1.93625 0
M  V30 3855 H 374.9 3.54736 2.63846 0
M  V30 3856 N 373.959 -0.0401083 1.57549 0
M  V30 3857 C 375.208 -0.732108 1.87944 0
M  V30 3858 C 375.521 -1.77107 0.830206 0
M  V30 3859 O 376.727 -2.51488 1.02302 0
M  V30 3860 C 375.183 -1.35315 3.33494 0
M  V30 3861 C 374.791 -0.351105 4.46622 0
M  V30 3862 C 376.535 -2.02566 3.73051 0
M  V30 3863 C 374.442 -0.979859 5.83226 0
M  V30 3864 H 373.372 -0.277188 0.701201 0
M  V30 3865 H 376.023 0.0138501 1.83495 0
M  V30 3866 H 374.405 -2.14844 3.32653 0
M  V30 3867 H 375.579 0.416674 4.58912 0
M  V30 3868 H 373.894 0.218708 4.15825 0
M  V30 3869 H 376.491 -2.50441 4.72423 0
M  V30 3870 H 376.834 -2.83904 3.04474 0
M  V30 3871 H 377.367 -1.29827 3.76018 0
M  V30 3872 H 374.106 -0.206135 6.55176 0
M  V30 3873 H 373.626 -1.71774 5.74677 0
M  V30 3874 H 375.305 -1.49046 6.29599 0
M  V30 3875 N 375.437 -1.54477 -0.31217 0
M  V30 3876 C 376.662 -1.77526 -1.07235 0
M  V30 3877 C 377.087 -0.527775 -1.80544 0
M  V30 3878 O 376.445 0.52121 -1.73646 0
M  V30 3879 C 376.493 -2.97535 -2.03728 0
M  V30 3880 O 375.597 -2.69878 -3.11833 0
M  V30 3881 H 374.938 -0.58792 -0.30862 0
M  V30 3882 H 377.468 -2.01532 -0.352993 0
M  V30 3883 H 377.478 -3.25198 -2.46395 0
M  V30 3884 H 376.153 -3.87996 -1.49774 0
M  V30 3885 H 374.73 -2.53199 -2.7376 0
M  V30 3886 N 376.915 0.57481 -1.46744 0
M  V30 3887 C 377.862 1.68329 -1.57905 0
M  V30 3888 C 378.832 1.60625 -0.422927 0
M  V30 3889 O 380.017 1.79721 -0.640711 0
M  V30 3890 C 377.157 3.06665 -1.58274 0
M  V30 3891 C 376.27 3.24935 -2.84678 0
M  V30 3892 C 375.405 4.53566 -2.76499 0
M  V30 3893 C 374.444 4.65207 -3.97806 0
M  V30 3894 N 373.581 5.85172 -3.87967 0
M  V30 3895 H 378.421 1.58127 -2.52587 0
M  V30 3896 H 375.958 0.770552 -1.25303 0
M  V30 3897 H 377.916 3.86745 -1.56473 0
M  V30 3898 H 376.546 3.15745 -0.671194 0
M  V30 3899 H 375.598 2.38405 -2.96424 0
M  V30 3900 H 376.91 3.29403 -3.7456 0
M  V30 3901 H 376.064 5.41885 -2.72848 0
M  V30 3902 H 374.803 4.51548 -1.8427 0
M  V30 3903 H 373.808 3.75304 -4.0178 0
M  V30 3904 H 375.033 4.68997 -4.9114 0
M  V30 3905 H 372.979 5.84137 -2.98529 0
M  V30 3906 H 372.896 5.90943 -4.71511 0
M  V30 3907 H 374.164 6.759 -3.88303 0
M  V30 3908 N 378.394 1.34581 0.820102 0
M  V30 3909 C 379.671 1.17675 1.56244 0
M  V30 3910 C 380.051 -0.249541 2.0962 0
M  V30 3911 O 379.399 -1.25125 1.91196 0
M  V30 3912 C 379.609 2.23364 2.6816 0
M  V30 3913 C 380.957 2.58485 3.36854 0
M  V30 3914 O 381.981 2.22175 2.78418 0
M  V30 3915 O 380.84 3.20868 4.42386 0
M  V30 3916 H 377.934 0.456333 0.689702 0
M  V30 3917 H 380.48 1.46222 0.861231 0
M  V30 3918 H 379.252 3.19087 2.26493 0
M  V30 3919 H 378.875 1.96009 3.45928 0
M  V30 3920 N 379.872 -1.04064 1.18357 0
M  V30 3921 C 381.149 -1.74252 0.888581 0
M  V30 3922 C 381.529 -2.02138 -0.60856 0
M  V30 3923 O 380.877 -1.66656 -1.56327 0
M  V30 3924 C 381.087 -3.0277 1.73584 0
M  V30 3925 C 382.435 -3.76506 1.96286 0
M  V30 3926 O 383.459 -3.12668 1.70637 0
M  V30 3927 O 382.318 -4.91243 2.39464 0
M  V30 3928 H 379.412 -0.758271 0.330082 0
M  V30 3929 H 381.958 -1.1013 1.2911 0
M  V30 3930 H 380.73 -2.78299 2.75073 0
M  V30 3931 H 380.353 -3.74631 1.33183 0
M  V30 3932 N 381.35 -0.985608 -1.22978 0
M  V30 3933 C 382.26 -0.538548 -2.28335 0
M  V30 3934 C 383.276 0.409163 -1.69121 0
M  V30 3935 O 384.452 0.277797 -1.99475 0
M  V30 3936 C 381.517 0.146867 -3.46389 0
M  V30 3937 C 380.578 -0.842896 -4.20944 0
M  V30 3938 C 379.811 -0.190095 -5.33361 0
M  V30 3939 O 380.034 1.01767 -5.61248 0
M  V30 3940 O 378.968 -0.891289 -5.95264 0
M  V30 3941 H 382.794 -1.41487 -2.68729 0
M  V30 3942 H 380.379 -0.753495 -1.29007 0
M  V30 3943 H 382.261 0.531125 -4.1804 0
M  V30 3944 H 380.936 0.997871 -3.07935 0
M  V30 3945 H 379.843 -1.27795 -3.51595 0
M  V30 3946 H 381.176 -1.66287 -4.6326 0
M  V30 3947 N 382.828 1.3818 -0.7579 0
M  V30 3948 C 383.758 2.33027 -0.148597 0
M  V30 3949 C 384.739 1.55085 0.69875 0
M  V30 3950 O 385.924 1.83384 0.639053 0
M  V30 3951 C 383.054 3.3928 0.742034 0
M  V30 3952 C 382.008 4.28 -0.00291946 0
M  V30 3953 C 381.334 5.25146 1.00625 0
M  V30 3954 C 382.634 5.08938 -1.17385 0
M  V30 3955 H 384.328 2.84231 -0.940909 0
M  V30 3956 H 381.874 1.36659 -0.453908 0
M  V30 3957 H 383.827 4.046 1.17799 0
M  V30 3958 H 382.551 2.86569 1.56671 0
M  V30 3959 H 381.21 3.64192 -0.419504 0
M  V30 3960 H 380.858 4.68721 1.8251 0
M  V30 3961 H 380.558 5.85361 0.512428 0
M  V30 3962 H 382.082 5.93342 1.44143 0
M  V30 3963 H 383.496 5.67474 -0.815224 0
M  V30 3964 H 381.893 5.7841 -1.59882 0
M  V30 3965 H 382.963 4.42424 -1.98468 0
M  V30 3966 N 384.306 0.507319 1.49211 0
M  V30 3967 C 385.553 -0.0349529 2.0247 0
M  V30 3968 C 385.881 -1.36409 1.38647 0
M  V30 3969 O 385.136 -1.88841 0.513566 0
M  V30 3970 C 385.435 -0.229513 3.56662 0
M  V30 3971 C 385.101 1.02241 4.39156 0
M  V30 3972 C 383.763 1.36557 4.61417 0
M  V30 3973 C 386.115 1.85428 4.871 0
M  V30 3974 C 383.443 2.53999 5.28868 0
M  V30 3975 C 385.795 3.02028 5.55843 0
M  V30 3976 C 384.459 3.36717 5.76349 0
M  V30 3977 H 383.729 -0.0127902 0.74089 0
M  V30 3978 H 386.376 0.668756 1.79443 0
M  V30 3979 H 384.681 -1.0158 3.78403 0
M  V30 3980 H 386.378 -0.663641 3.9547 0
M  V30 3981 H 382.968 0.745124 4.22073 0
M  V30 3982 H 387.152 1.6023 4.69723 0
M  V30 3983 H 382.408 2.81105 5.42946 0
M  V30 3984 H 386.582 3.66808 5.91967 0
M  V30 3985 H 384.209 4.27821 6.28389 0
M  V30 3986 N 385.784 -1.5574 0.241426 0
M  V30 3987 C 387.2 -1.59196 -0.113548 0
M  V30 3988 C 387.4 -1.25852 -1.57364 0
M  V30 3989 O 386.456 -1.00322 -2.31715 0
M  V30 3990 C 387.769 -2.99814 0.230695 0
M  V30 3991 C 389.317 -3.12513 0.174547 0
M  V30 3992 C 389.792 -4.55342 0.492744 0
M  V30 3993 N 391.283 -4.61076 0.443043 0
M  V30 3994 C 392.018 -5.6956 0.662484 0
M  V30 3995 N 391.514 -6.86328 0.944761 0
M  V30 3996 N 393.307 -5.58957 0.593564 0
M  V30 3997 H 385.458 -1.75685 1.19368 0
M  V30 3998 H 387.721 -0.81756 0.479896 0
M  V30 3999 H 387.427 -3.28932 1.24485 0
M  V30 4000 H 387.301 -3.74568 -0.444833 0
M  V30 4001 H 389.688 -2.83179 -0.830277 0
M  V30 4002 H 389.769 -2.40045 0.883845 0
M  V30 4003 H 389.413 -4.85396 1.4951 0
M  V30 4004 H 389.343 -5.26062 -0.23797 0
M  V30 4005 H 391.834 -3.77179 0.233374 0
M  V30 4006 H 392.147 -7.64935 1.09977 0
M  V30 4007 H 390.492 -6.88025 0.982175 0
M  V30 4008 H 393.683 -4.66611 0.373123 0
M  V30 4009 H 393.856 -6.43433 0.767981 0
M  V30 4010 N 387.262 0.0317525 -1.57568 0
M  V30 4011 C 388.508 0.718712 -1.90279 0
M  V30 4012 C 388.863 1.73108 -0.839727 0
M  V30 4013 O 388.156 1.90997 0.15188 0
M  V30 4014 C 388.35 1.43167 -3.27472 0
M  V30 4015 C 388.179 0.489869 -4.47024 0
M  V30 4016 C 386.949 0.111909 -5.05176 0
M  V30 4017 C 389.147 -0.230592 -5.13783 0
M  V30 4018 N 387.129 -0.831427 -6.08244 0
M  V30 4019 C 388.5 -1.02968 -6.1139 0
M  V30 4020 C 390.555 -0.297821 -4.97008 0
M  V30 4021 C 389.258 -1.88982 -6.9403 0
M  V30 4022 C 391.284 -1.14507 -5.80209 0
M  V30 4023 C 390.646 -1.9321 -6.77384 0
M  V30 4024 H 386.745 0.237177 -0.745165 0
M  V30 4025 H 389.329 -0.0211267 -1.94689 0
M  V30 4026 H 387.5 2.14199 -3.23996 0
M  V30 4027 H 389.232 2.0708 -3.47707 0
M  V30 4028 H 385.987 0.473513 -4.71227 0
M  V30 4029 H 386.411 -1.29752 -6.6445 0
M  V30 4030 H 391.053 0.296346 -4.2176 0
M  V30 4031 H 388.771 -2.4948 -7.68626 0
M  V30 4032 H 392.357 -1.20059 -5.69278 0
M  V30 4033 H 391.237 -2.57711 -7.40645 0
M  V30 4034 N 388.74 1.54641 0.303973 0
M  V30 4035 C 389.988 1.73437 1.0375 0
M  V30 4036 C 390.309 0.521449 1.87899 0
M  V30 4037 O 389.579 -0.46432 1.90318 0
M  V30 4038 H 388.159 0.639518 0.386039 0
M  V30 4039 H 390.821 1.91988 0.335675 0
M  V30 4040 H 389.917 2.62235 1.69231 0
M  V30 4041 N 390.218 -0.567019 1.47046 0
M  V30 4042 C 391.148 -1.68482 1.61667 0
M  V30 4043 C 392.129 -1.6358 0.466418 0
M  V30 4044 O 393.314 -1.81354 0.694574 0
M  V30 4045 C 390.444 -3.07124 1.62148 0
M  V30 4046 C 389.398 -3.26867 2.76301 0
M  V30 4047 C 388.724 -4.66196 2.61849 0
M  V30 4048 C 390.024 -3.13186 4.17986 0
M  V30 4049 H 391.718 -1.56502 2.5524 0
M  V30 4050 H 389.264 -0.751486 1.22836 0
M  V30 4051 H 391.217 -3.8516 1.70968 0
M  V30 4052 H 389.941 -3.2004 0.651287 0
M  V30 4053 H 388.6 -2.51237 2.66975 0
M  V30 4054 H 388.248 -4.75898 1.62879 0
M  V30 4055 H 387.948 -4.80356 3.38425 0
M  V30 4056 H 389.472 -5.46379 2.72584 0
M  V30 4057 H 390.886 -3.81049 4.2834 0
M  V30 4058 H 389.283 -3.3886 4.95272 0
M  V30 4059 H 390.353 -2.10057 4.3704 0
M  V30 4060 N 391.696 -1.35014 -0.812953 0
M  V30 4061 C 392.944 -1.27678 -1.56661 0
M  V30 4062 C 393.265 0.150359 -1.94419 0
M  V30 4063 O 392.535 1.08532 -1.63088 0
M  V30 4064 H 391.115 -0.469602 -0.580933 0
M  V30 4065 H 393.777 -1.69043 -0.970076 0
M  V30 4066 H 392.873 -1.88833 -2.48492 0
M  V30 4067 N 393.175 1.03435 -1.18907 0
M  V30 4068 C 394.591 1.28973 -0.940111 0
M  V30 4069 C 394.791 1.97676 0.390691 0
M  V30 4070 O 393.847 2.26127 1.12352 0
M  V30 4071 C 395.16 2.14221 -2.11021 0
M  V30 4072 C 396.708 2.27547 -2.14922 0
M  V30 4073 C 397.183 3.16164 -3.31367 0
M  V30 4074 N 398.674 3.23752 -3.31269 0
M  V30 4075 C 399.409 3.92495 -4.18014 0
M  V30 4076 N 398.905 4.63515 -5.14904 0
M  V30 4077 N 400.698 3.88838 -4.05908 0
M  V30 4078 H 392.849 0.57252 -2.04538 0
M  V30 4079 H 395.112 0.315184 -0.894071 0
M  V30 4080 H 394.818 1.71054 -3.073 0
M  V30 4081 H 394.692 3.14919 -2.0762 0
M  V30 4082 H 397.079 2.69947 -1.19217 0
M  V30 4083 H 397.16 1.26418 -2.22378 0
M  V30 4084 H 396.804 2.74474 -4.27348 0
M  V30 4085 H 396.734 4.17339 -3.21148 0
M  V30 4086 H 399.225 2.73167 -2.61129 0
M  V30 4087 H 399.538 5.13583 -5.77453 0
M  V30 4088 H 397.883 4.62398 -5.18857 0
M  V30 4089 H 401.074 3.32491 -3.29495 0
M  V30 4090 H 401.247 4.4214 -4.73726 0
M  V30 4091 N 394.653 0.992116 1.22453 0
M  V30 4092 C 395.883 0.684949 1.94915 0
M  V30 4093 C 396.291 -0.754292 1.73514 0
M  V30 4094 O 395.634 -1.52056 1.03076 0
M  V30 4095 C 395.696 0.910054 3.47791 0
M  V30 4096 C 395.36 2.33363 3.92926 0
M  V30 4097 C 396.357 3.31308 4.00663 0
M  V30 4098 C 394.042 2.66785 4.25595 0
M  V30 4099 C 396.036 4.6075 4.40441 0
M  V30 4100 C 393.723 3.96446 4.65053 0
M  V30 4101 C 394.721 4.9324 4.72444 0
M  V30 4102 O 394.409 6.20584 5.1101 0
M  V30 4103 H 394.141 0.25258 0.62704 0
M  V30 4104 H 396.695 1.32939 1.56577 0
M  V30 4105 H 394.925 0.208443 3.86138 0
M  V30 4106 H 396.614 0.598257 4.01467 0
M  V30 4107 H 397.38 3.0682 3.75615 0
M  V30 4108 H 393.259 1.92148 4.19047 0
M  V30 4109 H 396.803 5.363 4.46126 0
M  V30 4110 H 392.7 4.20724 4.89552 0
M  V30 4111 H 393.468 6.24509 5.29085 0
M  V30 4112 N 396.131 -1.37776 0.765217 0
M  V30 4113 C 397.377 -2.00145 0.327072 0
M  V30 4114 C 397.71 -1.60607 -1.09175 0
M  V30 4115 O 396.985 -0.849127 -1.74986 0
M  V30 4116 C 397.268 -3.57109 0.46319 0
M  V30 4117 C 397.121 -4.06576 1.92395 0
M  V30 4118 C 398.44 -4.39888 -0.136473 0
M  V30 4119 H 395.559 -0.727113 0.120316 0
M  V30 4120 H 398.201 -1.63549 0.967039 0
M  V30 4121 H 396.351 -3.88414 -0.0816358 0
M  V30 4122 H 398.023 -3.85864 2.52798 0
M  V30 4123 H 396.266 -3.59011 2.43503 0
M  V30 4124 H 396.937 -5.15639 1.97028 0
M  V30 4125 H 399.413 -4.14803 0.328317 0
M  V30 4126 H 398.289 -5.48899 -0.0110582 0
M  V30 4127 H 398.55 -4.24758 -1.22608 0
M  V30 4128 N 397.609 -0.515225 -1.4894 0
M  V30 4129 C 398.541 0.292481 -2.27326 0
M  V30 4130 C 399.554 0.917838 -1.3446 0
M  V30 4131 O 400.743 0.798772 -1.5963 0
M  V30 4132 C 397.843 1.42803 -3.07344 0
M  V30 4133 C 397.016 0.907347 -4.27885 0
M  V30 4134 C 396.075 1.92222 -4.89834 0
M  V30 4135 O 395.101 1.48506 -5.49486 0
M  V30 4136 N 396.303 3.25355 -4.80754 0
M  V30 4137 H 399.068 -0.379721 -2.97285 0
M  V30 4138 H 396.629 -0.348638 -1.58102 0
M  V30 4139 H 398.621 2.10481 -3.45658 0
M  V30 4140 H 397.191 2.00414 -2.39902 0
M  V30 4141 H 396.411 0.0550218 -3.94162 0
M  V30 4142 H 397.699 0.538108 -5.05946 0
M  V30 4143 H 397.097 3.6355 -4.33414 0
M  V30 4144 H 395.654 3.88707 -5.23211 0
M  V30 4145 N 399.087 1.5561 -0.249682 0
M  V30 4146 C 400.05 2.20217 0.635394 0
M  V30 4147 C 401.05 1.17227 1.10066 0
M  V30 4148 O 402.24 1.42292 1.00492 0
M  V30 4149 C 399.372 2.84794 1.87363 0
M  V30 4150 H 400.565 2.99814 0.0716752 0
M  V30 4151 H 398.118 1.563 -0.000153234 0
M  V30 4152 H 398.853 2.09142 2.47851 0
M  V30 4153 H 398.638 3.60241 1.5482 0
M  V30 4154 H 400.128 3.3423 2.5036 0
M  V30 4155 N 400.565 -0.0233959 1.57583 0
M  V30 4156 C 401.498 -1.05549 2.02323 0
M  V30 4157 C 402.476 -1.34843 0.908626 0
M  V30 4158 O 403.66 -1.47404 1.17491 0
M  V30 4159 C 400.787 -2.38885 2.40108 0
M  V30 4160 C 399.833 -2.2541 3.62067 0
M  V30 4161 S 400.666 -1.60217 5.1097 0
M  V30 4162 C 401.822 -2.95032 5.52003 0
M  V30 4163 H 402.055 -0.674435 2.89549 0
M  V30 4164 H 399.588 -0.23355 1.52623 0
M  V30 4165 H 401.546 -3.15562 2.62547 0
M  V30 4166 H 400.207 -2.74137 1.53323 0
M  V30 4167 H 399.4 -3.23854 3.86179 0
M  V30 4168 H 399.002 -1.56876 3.39508 0
M  V30 4169 H 401.294 -3.91357 5.53033 0
M  V30 4170 H 402.237 -2.75646 6.52246 0
M  V30 4171 H 402.645 -2.97865 4.79517 0
M  V30 4172 N 402.043 -1.548 -0.295768 0
M  V30 4173 C 403.291 -1.73985 -1.02828 0
M  V30 4174 C 403.612 -0.531406 -1.87619 0
M  V30 4175 O 402.882 0.454221 -1.90561 0
M  V30 4176 H 401.462 -0.641556 -0.382642 0
M  V30 4177 H 404.124 -1.92163 -0.325489 0
M  V30 4178 H 403.22 -2.63129 -1.67838 0
M  V30 4179 N 403.521 0.559213 -1.47345 0
M  V30 4180 C 404.451 1.67622 -1.62558 0
M  V30 4181 C 405.432 1.63331 -0.475087 0
M  V30 4182 O 406.617 1.80983 -0.704182 0
M  V30 4183 C 403.747 3.0626 -1.63774 0
M  V30 4184 C 402.701 3.25397 -2.7803 0
M  V30 4185 C 402.027 4.64801 -2.64318 0
M  V30 4186 C 403.327 3.10965 -4.19641 0
M  V30 4187 H 405.021 1.55146 -2.56067 0
M  V30 4188 H 402.567 0.744961 -1.23233 0
M  V30 4189 H 404.52 3.84247 -1.73008 0
M  V30 4190 H 403.244 3.1969 -0.66825 0
M  V30 4191 H 401.903 2.49817 -2.68304 0
M  V30 4192 H 401.551 4.75028 -1.65401 0
M  V30 4193 H 401.251 4.78555 -3.40968 0
M  V30 4194 H 402.775 5.44926 -2.75478 0
M  V30 4195 H 404.189 3.78772 -4.30354 0
M  V30 4196 H 402.586 3.36229 -4.97062 0
M  V30 4197 H 403.656 2.07736 -4.38148 0
M  V30 4198 N 404.999 1.35443 0.805782 0
M  V30 4199 C 406.248 1.28097 1.55801 0
M  V30 4200 C 406.561 -0.142428 1.95081 0
M  V30 4201 O 407.767 -0.33817 2.69386 0
M  V30 4202 C 406.223 2.24653 2.81174 0
M  V30 4203 C 405.831 3.72342 2.49129 0
M  V30 4204 C 407.575 2.2625 3.59181 0
M  V30 4205 C 405.482 4.60719 3.70799 0
M  V30 4206 H 404.412 0.475937 0.584808 0
M  V30 4207 H 407.063 1.60712 0.885661 0
M  V30 4208 H 405.445 1.85011 3.50124 0
M  V30 4209 H 406.619 4.20624 1.88181 0
M  V30 4210 H 404.934 3.73361 1.84366 0
M  V30 4211 H 407.531 2.89495 4.49552 0
M  V30 4212 H 407.874 1.26647 3.96568 0
M  V30 4213 H 408.407 2.64426 2.97193 0
M  V30 4214 H 405.146 5.61324 3.3852 0
M  V30 4215 H 404.666 4.17163 4.3097 0
M  V30 4216 H 406.345 4.76182 4.38018 0
M  V30 4217 N 406.477 -1.02803 1.19454 0
M  V30 4218 C 407.425 -2.13213 0.929673 0
M  V30 4219 C 408.419 -1.69011 -0.114806 0
M  V30 4220 O 409.625 -1.79967 0.0345147 0
M  V30 4221 H 406 -0.69662 0.28324 0
M  V30 4222 H 407.971 -2.32744 1.86743 0
M  V30 4223 C 406.72 -3.4429 0.485797 0
M  V30 4224 H 406.043 -3.7872 1.28105 0
M  V30 4225 H 407.483 -4.22638 0.339582 0
M  V30 4226 C 405.942 -3.27258 -0.800244 0
M  V30 4227 O 406.472 -3.55967 -1.86146 0
M  V30 4228 N 404.678 -2.80545 -0.75781 0
M  V30 4229 H 404.225 -2.57382 0.106039 0
M  V30 4230 H 404.183 -2.6953 -1.61867 0
M  V30 4231 N 407.956 -0.998596 -1.21925 0
M  V30 4232 C 408.866 -0.562736 -2.27751 0
M  V30 4233 C 409.882 0.391203 -1.69545 0
M  V30 4234 O 411.058 0.256625 -1.99758 0
M  V30 4235 C 408.123 0.11012 -3.46525 0
M  V30 4236 C 407.184 -0.887495 -4.20026 0
M  V30 4237 C 406.417 -0.246654 -5.3313 0
M  V30 4238 O 406.64 0.958088 -5.62296 0
M  V30 4239 O 405.574 -0.954374 -5.94286 0
M  V30 4240 H 409.4 -1.44329 -2.67213 0
M  V30 4241 H 406.985 -0.767135 -1.28201 0
M  V30 4242 H 408.867 0.486756 -4.18579 0
M  V30 4243 H 407.542 0.965154 -3.08976 0
M  V30 4244 H 406.449 -1.31517 -3.5022 0
M  V30 4245 H 407.782 -1.71191 -4.6147 0
M  V30 4246 N 409.434 1.37368 -0.772513 0
M  V30 4247 C 410.711 1.93839 -0.26188 0
M  V30 4248 C 411.091 1.7061 1.24319 0
M  V30 4249 O 410.439 1.05534 2.02669 0
M  V30 4250 C 410.649 3.43154 -0.636102 0
M  V30 4251 C 411.997 4.20249 -0.606324 0
M  V30 4252 O 413.021 3.5152 -0.575538 0
M  V30 4253 O 411.88 5.42809 -0.634086 0
M  V30 4254 H 408.974 0.82478 -0.0605555 0
M  V30 4255 H 411.52 1.4665 -0.853917 0
M  V30 4256 H 410.292 3.53647 -1.6748 0
M  V30 4257 H 409.915 3.97596 -0.0170516 0
M  V30 4258 N 410.912 0.523116 1.48665 0
M  V30 4259 C 412.16 -0.0134497 2.02096 0
M  V30 4260 C 412.481 -1.35418 1.40311 0
M  V30 4261 O 411.751 -1.87543 0.566074 0
M  V30 4262 H 410.331 -0.00795915 0.746958 0
M  V30 4263 H 412.993 0.685388 1.82451 0
M  V30 4264 H 412.089 -0.126849 3.11842 0
M  V30 4265 N 412.39 -1.55475 0.257931 0
M  V30 4266 C 413.615 -2.04064 -0.370488 0
M  V30 4267 C 414.04 -1.13565 -1.49948 0
M  V30 4268 O 413.398 -0.130781 -1.80828 0
M  V30 4269 C 413.446 -3.50554 -0.845237 0
M  V30 4270 O 412.55 -3.63173 -1.95394 0
M  V30 4271 H 411.891 -0.659257 -0.0792243 0
M  V30 4272 H 414.421 -2.00903 0.387212 0
M  V30 4273 H 414.431 -3.91588 -1.14555 0
M  V30 4274 H 413.106 -4.15896 -0.0191259 0
M  V30 4275 H 411.683 -3.34039 -1.65748 0
M  V30 4276 N 413.868 0.0150385 -1.57593 0
M  V30 4277 C 415.115 0.703001 -1.89906 0
M  V30 4278 C 415.443 1.74604 -0.856944 0
M  V30 4279 O 414.698 1.95197 0.140287 0
M  V30 4280 C 414.997 1.39686 -3.28972 0
M  V30 4281 C 414.663 0.488457 -4.48246 0
M  V30 4282 C 413.325 0.2383 -4.8061 0
M  V30 4283 C 415.677 -0.137881 -5.21018 0
M  V30 4284 C 413.005 -0.646738 -5.83125 0
M  V30 4285 C 415.357 -1.0107 -6.24474 0
M  V30 4286 C 414.021 -1.27019 -6.55303 0
M  V30 4287 H 413.291 0.257246 -0.694914 0
M  V30 4288 H 415.938 -0.037259 -1.91464 0
M  V30 4289 H 414.243 2.21079 -3.23468 0
M  V30 4290 H 415.94 1.93495 -3.51227 0
M  V30 4291 H 412.53 0.693593 -4.22951 0
M  V30 4292 H 416.714 0.0423953 -4.96282 0
M  V30 4293 H 411.97 -0.855937 -6.05379 0
M  V30 4294 H 416.144 -1.50247 -6.79999 0
M  V30 4295 H 413.771 -1.95769 -7.3456 0
M  V30 4296 N 415.346 1.54954 0.287554 0
M  V30 4297 C 416.592 1.75132 1.02257 0
M  V30 4298 C 416.925 0.542858 1.86458 0
M  V30 4299 O 416.2 -0.459856 1.88986 0
M  V30 4300 C 416.483 3.04812 1.91733 0
M  V30 4301 C 416.336 4.35985 1.10622 0
M  V30 4302 C 417.655 3.30438 2.90687 0
M  V30 4303 H 414.774 0.637194 0.370341 0
M  V30 4304 H 417.416 1.87678 0.296111 0
M  V30 4305 H 415.566 2.94247 2.53675 0
M  V30 4306 H 417.238 4.58487 0.508636 0
M  V30 4307 H 415.481 4.31865 0.409271 0
M  V30 4308 H 416.152 5.23017 1.76513 0
M  V30 4309 H 418.628 3.40701 2.38877 0
M  V30 4310 H 417.504 4.22467 3.50447 0
M  V30 4311 H 417.765 2.49377 3.65053 0
M  V30 4312 N 416.824 -0.551391 1.4764 0
M  V30 4313 C 417.774 -1.65362 1.56969 0
M  V30 4314 C 418.758 -1.55098 0.428189 0
M  V30 4315 O 419.95 -1.63481 0.678441 0
M  V30 4316 C 417.079 -3.04129 1.59249 0
M  V30 4317 C 416.165 -3.19576 2.78804 0
M  V30 4318 N 416.556 -3.05067 4.03445 0
M  V30 4319 C 414.854 -3.50588 2.75688 0
M  V30 4320 C 415.555 -3.2336 4.83543 0
M  V30 4321 N 414.531 -3.4996 4.15968 0
M  V30 4322 H 418.333 -1.52722 2.51104 0
M  V30 4323 H 415.847 -0.756303 1.43714 0
M  V30 4324 H 417.844 -3.83278 1.64024 0
M  V30 4325 H 416.504 -3.17877 0.662148 0
M  V30 4326 H 417.515 -2.82273 4.34215 0
M  V30 4327 H 414.192 -3.70827 1.91817 0
M  V30 4328 H 415.582 -3.17061 5.92387 0
M  V30 4329 N 418.302 -1.35869 -0.798587 0
M  V30 4330 C 419.212 -1.31578 -1.94228 0
M  V30 4331 C 420.228 -0.21939 -1.72611 0
M  V30 4332 O 421.404 -0.450167 -1.96305 0
M  V30 4333 C 418.469 -1.09528 -3.28944 0
M  V30 4334 C 417.53 -2.28556 -3.63402 0
M  V30 4335 C 416.763 -2.07549 -4.9169 0
M  V30 4336 O 416.986 -1.046 -5.60727 0
M  V30 4337 O 415.92 -2.95106 -5.24591 0
M  V30 4338 H 419.746 -2.27847 -2.00796 0
M  V30 4339 H 417.331 -1.16322 -0.937526 0
M  V30 4340 H 419.213 -0.991127 -4.09579 0
M  V30 4341 H 417.888 -0.16315 -3.23289 0
M  V30 4342 H 416.795 -2.44538 -2.83112 0
M  V30 4343 H 418.128 -3.20244 -3.73771 0
M  V30 4344 N 419.78 1.02168 -1.19998 0
M  V30 4345 C 420.713 2.10232 -0.887558 0
M  V30 4346 C 421.691 1.61827 0.158317 0
M  V30 4347 O 422.875 1.88471 0.0330249 0
M  V30 4348 C 420.002 3.37092 -0.32964 0
M  V30 4349 C 419.048 4.0438 -1.3557 0
M  V30 4350 S 419.881 4.48956 -2.91888 0
M  V30 4351 C 421.037 5.79024 -2.37658 0
M  V30 4352 H 421.27 2.36409 -1.80272 0
M  V30 4353 H 418.803 1.15211 -1.0279 0
M  V30 4354 H 420.761 4.10498 -0.0142824 0
M  V30 4355 H 419.422 3.08996 0.563941 0
M  V30 4356 H 418.615 4.95632 -0.9146 0
M  V30 4357 H 418.217 3.37176 -1.61828 0
M  V30 4358 H 420.509 6.53942 -1.77103 0
M  V30 4359 H 421.452 6.27924 -3.27287 0
M  V30 4360 H 421.86 5.35043 -1.79971 0
M  V30 4361 N 421.258 1.00505 1.21394 0
M  V30 4362 C 422.486 0.706609 1.9446 0
M  V30 4363 C 422.901 -0.73081 1.74082 0
M  V30 4364 O 422.258 -1.49446 1.04747 0
M  V30 4365 C 422.309 1.01824 3.46863 0
M  V30 4366 O 422.03 2.39919 3.66566 0
M  V30 4367 C 423.531 0.739216 4.37093 0
M  V30 4368 H 420.751 0.260394 0.618414 0
M  V30 4369 H 423.295 1.34311 1.54211 0
M  V30 4370 H 421.45 0.427343 3.85036 0
M  V30 4371 H 421.864 2.50784 4.6066 0
M  V30 4372 H 423.338 1.00744 5.42729 0
M  V30 4373 H 423.815 -0.326746 4.37983 0
M  V30 4374 H 424.421 1.31173 4.04566 0
M  V30 4375 N 422.737 -1.36956 0.779787 0
M  V30 4376 C 424.153 -1.52817 0.460342 0
M  V30 4377 C 424.353 -1.7361 -1.02283 0
M  V30 4378 O 423.409 -1.76207 -1.80852 0
M  V30 4379 C 424.722 -2.71983 1.28241 0
M  V30 4380 C 426.27 -2.85849 1.27512 0
M  V30 4381 C 426.745 -4.08008 2.08072 0
M  V30 4382 N 428.236 -4.15135 2.05467 0
M  V30 4383 C 428.971 -5.08711 2.64577 0
M  V30 4384 N 428.467 -6.07792 3.32506 0
M  V30 4385 N 430.26 -5.01254 2.54363 0
M  V30 4386 H 422.411 -1.21713 1.74068 0
M  V30 4387 H 424.674 -0.593294 0.739396 0
M  V30 4388 H 424.38 -2.63109 2.33381 0
M  V30 4389 H 424.254 -3.65882 0.917088 0
M  V30 4390 H 426.641 -2.94189 0.231686 0
M  V30 4391 H 426.722 -1.92886 1.68014 0
M  V30 4392 H 426.366 -4.00429 3.12441 0
M  V30 4393 H 426.296 -5.001 1.64947 0
M  V30 4394 H 428.787 -3.44189 1.5602 0
M  V30 4395 H 429.1 -6.75739 3.74963 0
M  V30 4396 H 427.445 -6.08047 3.36606 0
M  V30 4397 H 430.636 -4.22795 2.00902 0
M  V30 4398 H 430.809 -5.73995 3.00722 0
M  V30 4399 N 424.215 -0.530993 -1.48385 0
M  V30 4400 C 425.165 0.251092 -2.26613 0
M  V30 4401 C 426.149 0.908977 -1.32765 0
M  V30 4402 O 427.341 0.811616 -1.57295 0
M  V30 4403 C 424.47 1.29677 -3.17866 0
M  V30 4404 C 423.556 0.643627 -4.19188 0
M  V30 4405 N 423.947 -0.271223 -5.05072 0
M  V30 4406 C 422.245 0.900711 -4.3681 0
M  V30 4407 C 422.946 -0.648109 -5.78078 0
M  V30 4408 N 421.922 -0.00895987 -5.43599 0
M  V30 4409 H 425.724 -0.452702 -2.90393 0
M  V30 4410 H 423.238 -0.349091 -1.58604 0
M  V30 4411 H 425.235 1.87079 -3.72568 0
M  V30 4412 H 423.895 2.00193 -2.55642 0
M  V30 4413 H 424.906 -0.643883 -5.13882 0
M  V30 4414 H 421.583 1.59636 -3.85775 0
M  V30 4415 H 422.973 -1.39833 -6.57188 0
M  V30 4416 N 425.693 1.55336 -0.266172 0
M  V30 4417 C 426.603 2.2583 0.635458 0
M  V30 4418 C 427.619 1.28106 1.17749 0
M  V30 4419 O 428.795 1.61024 1.20968 0
M  V30 4420 C 425.86 2.95879 1.80712 0
M  V30 4421 C 424.921 4.09059 1.30265 0
M  V30 4422 C 424.154 4.75759 2.41846 0
M  V30 4423 O 424.377 4.41622 3.61007 0
M  V30 4424 O 423.311 5.63888 2.1051 0
M  V30 4425 H 427.137 3.03631 0.0646693 0
M  V30 4426 H 424.722 1.49361 -0.0339177 0
M  V30 4427 H 426.604 3.39932 2.49047 0
M  V30 4428 H 425.279 2.21002 2.36516 0
M  V30 4429 H 424.186 3.69482 0.586019 0
M  V30 4430 H 425.519 4.85811 0.790458 0
M  V30 4431 N 427.171 -0.0066808 1.57599 0
M  V30 4432 C 428.103 -1.02827 2.04839 0
M  V30 4433 C 429.116 -1.31108 0.965113 0
M  V30 4434 O 430.305 -1.28202 1.24203 0
M  V30 4435 C 427.405 -2.36464 2.42771 0
M  V30 4436 C 426.578 -2.27219 3.73751 0
M  V30 4437 C 425.637 -3.43489 3.98625 0
M  V30 4438 O 424.663 -3.21976 4.69382 0
M  V30 4439 N 425.865 -4.66116 3.46 0
M  V30 4440 H 428.63 -0.625455 2.93101 0
M  V30 4441 H 426.191 -0.194198 1.60731 0
M  V30 4442 H 428.183 -3.13008 2.56531 0
M  V30 4443 H 426.753 -2.68512 1.60063 0
M  V30 4444 H 425.973 -1.35629 3.70133 0
M  V30 4445 H 427.261 -2.18208 4.59633 0
M  V30 4446 H 426.659 -4.86493 2.88688 0
M  V30 4447 H 425.216 -5.39949 3.65101 0
M  V30 4448 N 428.649 -1.55105 -0.279332 0
M  V30 4449 C 429.874 -1.7976 -1.03446 0
M  V30 4450 C 430.299 -0.565952 -1.79384 0
M  V30 4451 O 429.657 0.484259 -1.74713 0
M  V30 4452 C 429.705 -3.0179 -1.97371 0
M  V30 4453 O 428.809 -2.76432 -3.06038 0
M  V30 4454 H 428.15 -0.594334 -0.29608 0
M  V30 4455 H 430.68 -2.02235 -0.310165 0
M  V30 4456 H 430.69 -3.30351 -2.39441 0
M  V30 4457 H 429.365 -3.91085 -1.4151 0
M  V30 4458 H 427.942 -2.58949 -2.68328 0
M  V30 4459 N 430.127 0.543554 -1.4793 0
M  V30 4460 C 431.057 1.65888 -1.64327 0
M  V30 4461 C 432.038 1.62818 -0.492383 0
M  V30 4462 O 433.223 1.80226 -0.723338 0
M  V30 4463 C 430.353 3.04506 -1.67013 0
M  V30 4464 C 429.307 3.2243 -2.81466 0
M  V30 4465 C 428.633 4.61972 -2.69233 0
M  V30 4466 C 429.933 3.06496 -4.22915 0
M  V30 4467 H 431.627 1.52421 -2.57698 0
M  V30 4468 H 429.173 0.731849 -1.24016 0
M  V30 4469 H 431.126 3.82391 -1.77074 0
M  V30 4470 H 429.85 3.18964 -0.70212 0
M  V30 4471 H 428.509 2.46957 -2.70938 0
M  V30 4472 H 428.157 4.73247 -1.7043 0
M  V30 4473 H 427.857 4.74911 -3.46025 0
M  V30 4474 H 429.381 5.41974 -2.81242 0
M  V30 4475 H 430.795 3.74186 -4.34348 0
M  V30 4476 H 429.192 3.30938 -5.006 0
M  V30 4477 H 430.262 2.03077 -4.40327 0
M  V30 4478 N 431.605 1.3629 0.791371 0
M  V30 4479 C 432.555 1.26988 1.89362 0
M  V30 4480 C 433.539 0.161795 1.60084 0
M  V30 4481 O 434.731 0.394426 1.72549 0
M  V30 4482 C 431.86 1.05944 3.26544 0
M  V30 4483 C 430.946 2.21211 3.61838 0
M  V30 4484 N 431.337 3.46518 3.68455 0
M  V30 4485 C 429.635 2.12933 3.91887 0
M  V30 4486 C 430.336 4.2241 3.99931 0
M  V30 4487 N 429.312 3.51329 4.14812 0
M  V30 4488 H 433.114 2.21908 1.92702 0
M  V30 4489 H 430.628 1.28982 0.986787 0
M  V30 4490 H 432.625 0.973666 4.05371 0
M  V30 4491 H 431.285 0.119223 3.24481 0
M  V30 4492 H 432.296 3.80677 3.51148 0
M  V30 4493 H 428.973 1.26855 3.97761 0
M  V30 4494 H 430.363 5.30767 4.1199 0
M  V30 4495 N 433.083 -1.0153 1.20538 0
M  V30 4496 C 434.313 -1.78487 1.04048 0
M  V30 4497 C 434.721 -1.84631 -0.413292 0
M  V30 4498 O 434.064 -1.29919 -1.29872 0
M  V30 4499 C 434.126 -3.24367 1.55003 0
M  V30 4500 C 433.79 -3.41827 3.0332 0
M  V30 4501 C 434.787 -3.30941 4.00966 0
M  V30 4502 C 432.472 -3.67602 3.42307 0
M  V30 4503 C 434.466 -3.45577 5.35589 0
M  V30 4504 C 432.153 -3.81881 4.77085 0
M  V30 4505 C 433.151 -3.70874 5.73534 0
M  V30 4506 O 432.839 -3.84714 7.05868 0
M  V30 4507 H 432.571 -0.568108 0.366373 0
M  V30 4508 H 435.125 -1.28677 1.60098 0
M  V30 4509 H 433.355 -3.75266 0.933397 0
M  V30 4510 H 435.044 -3.82963 1.34514 0
M  V30 4511 H 435.81 -3.10964 3.72191 0
M  V30 4512 H 431.689 -3.75256 2.67776 0
M  V30 4513 H 435.233 -3.36902 6.10854 0
M  V30 4514 H 431.13 -4.01359 5.0555 0
M  V30 4515 H 431.898 -4.01724 7.13134 0
M  V30 4516 N 434.561 -1.01147 -1.20859 0
M  V30 4517 C 435.493 -0.535546 -2.22855 0
M  V30 4518 C 436.506 0.379323 -1.58319 0
M  V30 4519 O 437.695 0.178489 -1.77605 0
M  V30 4520 C 434.795 0.240962 -3.38042 0
M  V30 4521 C 433.968 -0.674562 -4.32167 0
M  V30 4522 C 433.027 0.053467 -5.26173 0
M  V30 4523 O 432.053 -0.567339 -5.66366 0
M  V30 4524 N 433.255 1.32997 -5.65059 0
M  V30 4525 H 436.02 -1.41268 -2.64317 0
M  V30 4526 H 433.581 -0.888386 -1.35349 0
M  V30 4527 H 435.573 0.737115 -3.97931 0
M  V30 4528 H 434.143 1.01935 -2.95513 0
M  V30 4529 H 433.363 -1.35111 -3.70322 0
M  V30 4530 H 434.651 -1.2974 -4.91981 0
M  V30 4531 H 434.049 1.85536 -5.34409 0
M  V30 4532 H 432.606 1.77095 -6.2728 0
M  V30 4533 N 436.039 1.36541 -0.78704 0
M  V30 4534 C 436.987 2.31965 -0.171724 0
M  V30 4535 C 437.981 1.55689 0.667631 0
M  V30 4536 O 439.187 1.70969 0.562981 0
M  V30 4537 H 435.562 0.751101 -0.0367545 0
M  V30 4538 H 437.533 2.81428 -0.992017 0
M  V30 4539 C 436.282 3.40968 0.680904 0
M  V30 4540 H 435.605 3.99775 0.0443961 0
M  V30 4541 H 437.045 4.10063 1.07815 0
M  V30 4542 C 435.504 2.82338 1.83813 0
M  V30 4543 O 436.034 2.74311 2.93456 0
M  V30 4544 N 434.24 2.39661 1.6435 0
M  V30 4545 H 433.787 2.46389 0.751668 0
M  V30 4546 H 433.745 2.00779 2.4194 0
M  V30 4547 N 437.518 0.538854 1.48102 0
M  V30 4548 C 438.748 0.0122958 2.06596 0
M  V30 4549 C 439.156 -1.27861 1.39457 0
M  V30 4550 O 438.499 -1.77348 0.478907 0
M  V30 4551 C 438.561 -0.273131 3.58461 0
M  V30 4552 C 438.225 0.92561 4.47528 0
M  V30 4553 C 439.222 1.82637 4.86765 0
M  V30 4554 C 436.907 1.13511 4.89306 0
M  V30 4555 C 438.901 2.92047 5.66558 0
M  V30 4556 C 436.588 2.23233 5.68868 0
M  V30 4557 C 437.586 3.12333 6.07402 0
M  V30 4558 O 437.274 4.20155 6.85365 0
M  V30 4559 H 437.006 0.0344283 0.675123 0
M  V30 4560 H 439.56 0.746494 1.91355 0
M  V30 4561 H 437.79 -1.06141 3.71848 0
M  V30 4562 H 439.479 -0.742842 3.99045 0
M  V30 4563 H 440.245 1.67649 4.55103 0
M  V30 4564 H 436.124 0.450835 4.5879 0
M  V30 4565 H 439.668 3.6162 5.96554 0
M  V30 4566 H 435.565 2.38201 5.99942 0
M  V30 4567 H 436.333 4.17975 7.03732 0
M  V30 4568 N 438.996 -1.55193 0.274407 0
M  V30 4569 C 439.959 -2.212 -0.600279 0
M  V30 4570 C 440.959 -1.18963 -1.08187 0
M  V30 4571 O 442.149 -1.43873 -0.982158 0
M  V30 4572 C 439.281 -2.87739 -1.82809 0
M  V30 4573 H 440.474 -2.9989 -0.0239682 0
M  V30 4574 H 438.027 -1.5628 0.0250192 0
M  V30 4575 H 438.762 -2.13058 -2.44493 0
M  V30 4576 H 438.547 -3.62658 -1.49069 0
M  V30 4577 H 440.037 -3.38171 -2.45011 0
M  V30 4578 N 440.474 -0.00167713 -1.576 0
M  V30 4579 C 441.407 1.02317 -2.03977 0
M  V30 4580 C 442.385 1.33381 -0.929963 0
M  V30 4581 O 443.569 1.45517 -1.19822 0
M  V30 4582 C 440.696 2.35035 -2.43878 0
M  V30 4583 C 439.742 2.19621 -3.65607 0
M  V30 4584 S 440.575 1.52068 -5.13455 0
M  V30 4585 C 441.731 2.86212 -5.56627 0
M  V30 4586 H 441.964 0.628285 -2.90585 0
M  V30 4587 H 439.497 0.209239 -1.52976 0
M  V30 4588 H 441.455 3.11345 -2.67534 0
M  V30 4589 H 440.116 2.71663 -1.57665 0
M  V30 4590 H 439.309 3.1767 -3.91282 0
M  V30 4591 H 438.911 1.51455 -3.41961 0
M  V30 4592 H 441.203 3.82509 -5.59189 0
M  V30 4593 H 442.146 2.65235 -6.56549 0
M  V30 4594 H 442.554 2.90199 -4.84195 0
M  V30 4595 N 441.952 1.55251 0.271103 0
M  V30 4596 C 442.882 1.9127 1.33933 0
M  V30 4597 C 443.863 0.77478 1.5143 0
M  V30 4598 O 445.048 1.03307 1.64442 0
M  V30 4599 C 442.178 2.18627 2.69851 0
M  V30 4600 C 441.132 3.34442 2.67081 0
M  V30 4601 C 440.458 3.47284 4.06569 0
M  V30 4602 C 441.758 4.70784 2.26185 0
M  V30 4603 H 443.452 2.80744 1.04035 0
M  V30 4604 H 440.998 1.35077 0.499017 0
M  V30 4605 H 442.951 2.42413 3.44694 0
M  V30 4606 H 441.675 1.25955 3.01335 0
M  V30 4607 H 440.334 3.10627 1.94695 0
M  V30 4608 H 439.982 2.52074 4.35279 0
M  V30 4609 H 439.682 4.25152 4.0561 0
M  V30 4610 H 441.206 3.73363 4.83148 0
M  V30 4611 H 442.62 4.94102 2.90751 0
M  V30 4612 H 441.017 5.51582 2.36384 0
M  V30 4613 H 442.087 4.69478 1.21319 0
M  V30 4614 N 443.43 -0.535701 1.48216 0
M  V30 4615 C 444.841 -1.11769 1.49548 0
M  V30 4616 C 445.192 -1.94442 0.26207 0
M  V30 4617 O 444.317 -2.06987 -0.631287 0
M  V30 4618 C 444.912 -2.03367 2.70975 0
M  V30 4619 C 443.471 -2.56795 2.75196 0
M  V30 4620 C 442.618 -1.33631 2.42977 0
M  V30 4621 H 445.569 -0.321232 1.55415 0
M  V30 4622 H 445.59 -2.87569 2.49167 0
M  V30 4623 H 445.102 -1.43169 3.60727 0
M  V30 4624 H 443.203 -3.20731 1.89638 0
M  V30 4625 H 443.316 -2.9632 3.76472 0
M  V30 4626 H 441.68 -1.6502 1.94012 0
M  V30 4627 H 442.463 -0.75194 3.34964 0
M  V30 4628 N 444.908 -1.36708 -0.784132 0
M  V30 4629 C 445.838 -1.34153 -1.91116 0
M  V30 4630 C 446.819 -0.212121 -1.68772 0
M  V30 4631 O 448.004 -0.410581 -1.8981 0
M  V30 4632 C 445.134 -1.13535 -3.28218 0
M  V30 4633 C 444.088 -2.23356 -3.65097 0
M  V30 4634 C 443.414 -1.87875 -5.00607 0
M  V30 4635 C 444.714 -3.65473 -3.73131 0
M  V30 4636 H 446.408 -2.28459 -1.93512 0
M  V30 4637 H 443.954 -1.09973 -0.929618 0
M  V30 4638 H 445.907 -1.10381 -4.06687 0
M  V30 4639 H 444.631 -0.156804 -3.26223 0
M  V30 4640 H 443.29 -2.25645 -2.88929 0
M  V30 4641 H 442.938 -0.885814 -4.95139 0
M  V30 4642 H 442.638 -2.61406 -5.26252 0
M  V30 4643 H 444.162 -1.86286 -5.81489 0
M  V30 4644 H 445.576 -3.65382 -4.41779 0
M  V30 4645 H 443.973 -4.37953 -4.10265 0
M  V30 4646 H 445.043 -3.99995 -2.74102 0
M  V30 4647 N 446.386 1.0089 -1.21074 0
M  V30 4648 C 447.614 1.78191 -1.05145 0
M  V30 4649 C 448.029 1.84537 0.398952 0
M  V30 4650 O 447.386 1.30393 1.27687 0
M  V30 4651 C 447.437 3.22288 -1.63746 0
M  V30 4652 O 447.158 3.16315 -3.03111 0
M  V30 4653 C 448.659 4.16106 -1.52875 0
M  V30 4654 H 445.879 0.560129 -0.369454 0
M  V30 4655 H 448.423 1.26945 -1.60328 0
M  V30 4656 H 446.578 3.70655 -1.12664 0
M  V30 4657 H 446.992 4.06817 -3.31059 0
M  V30 4658 H 448.466 5.15026 -1.98626 0
M  V30 4659 H 448.943 4.36541 -0.482521 0
M  V30 4660 H 449.549 3.73625 -2.03185 0
M  V30 4661 N 447.864 1.01787 1.20321 0
M  V30 4662 C 448.797 0.533882 2.21867 0
M  V30 4663 C 449.775 -0.419361 1.57099 0
M  V30 4664 O 450.959 -0.339062 1.85426 0
M  V30 4665 C 448.086 -0.222899 3.37966 0
M  V30 4666 C 447.132 0.680091 4.21043 0
M  V30 4667 S 447.965 2.14997 4.90445 0
M  V30 4668 C 449.121 1.40339 6.09964 0
M  V30 4669 H 449.354 1.39429 2.62577 0
M  V30 4670 H 446.887 0.826867 1.30393 0
M  V30 4671 H 448.845 -0.653425 4.05266 0
M  V30 4672 H 447.506 -1.0589 2.95713 0
M  V30 4673 H 446.699 0.0964704 5.03908 0
M  V30 4674 H 446.301 1.04845 3.59004 0
M  V30 4675 H 448.593 0.68407 6.74038 0
M  V30 4676 H 449.536 2.20823 6.72787 0
M  V30 4677 H 449.944 0.905716 5.57187 0
M  V30 4678 N 449.342 -1.36122 0.79427 0
M  V30 4679 C 450.591 -1.98361 0.365464 0
M  V30 4680 C 450.904 -1.6374 -1.06997 0
M  V30 4681 O 452.11 -2.19251 -1.60129 0
M  V30 4682 C 450.566 -3.54821 0.602496 0
M  V30 4683 C 450.174 -3.98362 2.04967 0
M  V30 4684 C 451.918 -4.2383 0.238437 0
M  V30 4685 C 449.825 -5.47619 2.2331 0
M  V30 4686 H 448.755 -0.742193 0.13291 0
M  V30 4687 H 451.406 -1.55354 0.976589 0
M  V30 4688 H 449.788 -3.95922 -0.078409 0
M  V30 4689 H 450.962 -3.68447 2.76737 0
M  V30 4690 H 449.277 -3.42206 2.37243 0
M  V30 4691 H 451.874 -5.33529 0.353705 0
M  V30 4692 H 452.217 -4.08264 -0.814006 0
M  V30 4693 H 452.75 -3.88108 0.872769 0
M  V30 4694 H 449.489 -5.68138 3.26955 0
M  V30 4695 H 449.009 -5.79145 1.5605 0
M  V30 4696 H 450.688 -6.13911 2.0426 0
M  V30 4697 N 450.82 -0.546701 -1.47814 0
M  V30 4698 C 451.783 0.196287 -2.28358 0
M  V30 4699 C 452.783 0.852437 -1.36346 0
M  V30 4700 O 453.973 0.709913 -1.59078 0
M  V30 4701 C 451.105 1.28579 -3.15722 0
M  V30 4702 H 452.298 -0.511086 -2.95513 0
M  V30 4703 H 449.851 -0.303248 -1.5333 0
M  V30 4704 H 450.586 2.0259 -2.53235 0
M  V30 4705 H 450.371 0.820229 -3.83425 0
M  V30 4706 H 451.861 1.80793 -3.76435 0
M  V30 4707 N 452.299 1.55045 -0.282633 0
M  V30 4708 C 453.209 2.26491 0.61147 0
M  V30 4709 C 454.225 1.29348 1.16384 0
M  V30 4710 O 455.401 1.62298 1.19253 0
M  V30 4711 C 452.466 2.97779 1.77563 0
M  V30 4712 C 451.527 4.10418 1.25919 0
M  V30 4713 C 450.76 4.78297 2.36786 0
M  V30 4714 O 450.983 4.45426 3.56303 0
M  V30 4715 O 449.917 5.66089 2.04517 0
M  V30 4716 H 453.743 3.03683 0.0324615 0
M  V30 4717 H 451.328 1.49317 -0.0497576 0
M  V30 4718 H 453.21 3.42554 2.45427 0
M  V30 4719 H 451.885 2.23498 2.34159 0
M  V30 4720 H 450.792 3.70082 0.546797 0
M  V30 4721 H 452.125 4.86622 0.738887 0
M  V30 4722 N 453.777 0.010035 1.57597 0
M  V30 4723 C 455.005 -0.683413 1.95287 0
M  V30 4724 C 455.42 -1.66747 0.885481 0
M  V30 4725 O 454.777 -1.82003 -0.134629 0
M  V30 4726 C 454.828 -1.40652 3.33015 0
M  V30 4727 O 454.549 -0.461916 4.35658 0
M  V30 4728 C 456.05 -2.19356 3.85225 0
M  V30 4729 H 453.27 -0.189708 0.643624 0
M  V30 4730 H 455.814 0.0641359 2.04399 0
M  V30 4731 H 453.969 -2.10562 3.2518 0
M  V30 4732 H 454.383 -0.973215 5.15392 0
M  V30 4733 H 455.857 -2.65433 4.83993 0
M  V30 4734 H 456.334 -3.02457 3.18459 0
M  V30 4735 H 456.94 -1.54442 3.96267 0
M  V30 4736 N 455.255 -1.55392 -0.262866 0
M  V30 4737 C 456.218 -1.88181 -1.30846 0
M  V30 4738 C 457.218 -0.757079 -1.41862 0
M  V30 4739 O 458.408 -1.02519 -1.40838 0
M  V30 4740 C 455.54 -2.09609 -2.68844 0
M  V30 4741 H 456.733 -2.81659 -1.02997 0
M  V30 4742 H 454.286 -1.48039 -0.501414 0
M  V30 4743 H 455.021 -1.18547 -3.01856 0
M  V30 4744 H 454.806 -2.91508 -2.62231 0
M  V30 4745 H 456.296 -2.36215 -3.44372 0
M  V30 4746 N 456.733 0.527833 -1.48498 0
M  V30 4747 C 457.958 1.313 -1.60546 0
M  V30 4748 C 458.383 1.86199 -0.26672 0
M  V30 4749 O 457.741 1.64513 0.761918 0
M  V30 4750 C 457.789 2.43818 -2.65678 0
M  V30 4751 O 456.893 3.46916 -2.22987 0
M  V30 4752 H 456.234 0.388784 -0.538277 0
M  V30 4753 H 458.764 0.634896 -1.945 0
M  V30 4754 H 458.774 2.89973 -2.87018 0
M  V30 4755 H 457.449 2.03222 -3.62869 0
M  V30 4756 H 456.026 3.06864 -2.11869 0
M  V30 4757 N 458.211 1.37122 0.776871 0
M  V30 4758 C 459.627 1.1781 1.07671 0
M  V30 4759 C 459.827 0.0107454 2.01497 0
M  V30 4760 O 458.883 -0.650756 2.4397 0
M  V30 4761 C 460.196 2.49451 1.67913 0
M  V30 4762 C 461.744 2.55927 1.80195 0
M  V30 4763 C 462.219 3.87686 2.43851 0
M  V30 4764 N 463.71 3.891 2.51307 0
M  V30 4765 C 464.445 4.87797 3.014 0
M  V30 4766 N 463.941 5.96888 3.51705 0
M  V30 4767 N 465.734 4.75205 3.00227 0
M  V30 4768 H 457.885 2.11843 0.153778 0
M  V30 4769 H 460.148 0.938927 0.130844 0
M  V30 4770 H 459.854 3.35207 1.06439 0
M  V30 4771 H 459.728 2.66169 2.67271 0
M  V30 4772 H 462.115 1.70582 2.40803 0
M  V30 4773 H 462.196 2.43097 0.796069 0
M  V30 4774 H 461.84 4.73444 1.83884 0
M  V30 4775 H 461.77 3.97817 3.45035 0
M  V30 4776 H 464.261 3.10293 2.157 0
M  V30 4777 H 464.574 6.68155 3.88316 0
M  V30 4778 H 462.919 6.0054 3.49824 0
M  V30 4779 H 466.11 3.89103 2.60224 0
M  V30 4780 H 466.283 5.52279 3.38957 0
M  V30 4781 N 459.689 -1.00246 1.21608 0
M  V30 4782 C 460.621 -2.09244 0.935401 0
M  V30 4783 C 461.634 -1.62592 -0.0823594 0
M  V30 4784 O 462.823 -1.77865 0.150456 0
M  V30 4785 C 459.923 -3.36724 0.383453 0
M  V30 4786 C 459.096 -4.1245 1.45615 0
M  V30 4787 C 458.155 -5.18219 0.912991 0
M  V30 4788 O 457.181 -5.46337 1.59701 0
M  V30 4789 N 458.383 -5.7987 -0.270478 0
M  V30 4790 H 461.148 -2.33905 1.87373 0
M  V30 4791 H 458.709 -1.16748 1.12167 0
M  V30 4792 H 460.701 -4.047 0.00562157 0
M  V30 4793 H 459.271 -3.09201 -0.459758 0
M  V30 4794 H 458.491 -3.39241 2.00772 0
M  V30 4795 H 459.779 -4.59819 2.17817 0
M  V30 4796 H 459.177 -5.59381 -0.843195 0
M  V30 4797 H 457.734 -6.49126 -0.589794 0
M  V30 4798 N 461.167 -1.02423 -1.1978 0
M  V30 4799 C 462.415 -0.716569 -1.8897 0
M  V30 4800 C 462.736 0.756769 -1.79716 0
M  V30 4801 O 462.006 1.5449 -1.20456 0
M  V30 4802 H 460.586 -0.262062 -0.699523 0
M  V30 4803 H 463.248 -1.29747 -1.45436 0
M  V30 4804 H 462.344 -1.00675 -2.95417 0
M  V30 4805 N 462.645 1.35699 -0.801477 0
M  V30 4806 C 463.894 1.98165 -0.375979 0
M  V30 4807 C 464.207 1.64306 1.06127 0
M  V30 4808 O 465.413 2.20097 1.58964 0
M  V30 4809 C 463.869 3.54497 -0.621305 0
M  V30 4810 C 463.477 3.9727 -2.07076 0
M  V30 4811 C 465.221 4.23697 -0.26091 0
M  V30 4812 C 463.128 5.46427 -2.26211 0
M  V30 4813 H 462.058 0.741478 -0.136844 0
M  V30 4814 H 464.709 1.54834 -0.984814 0
M  V30 4815 H 463.091 3.95958 0.0574112 0
M  V30 4816 H 464.265 3.66974 -2.78687 0
M  V30 4817 H 462.58 3.40943 -2.39054 0
M  V30 4818 H 465.177 5.33334 -0.381994 0
M  V30 4819 H 465.52 4.0869 0.792344 0
M  V30 4820 H 466.053 3.87639 -0.893339 0
M  V30 4821 H 462.792 5.66396 -3.29963 0
M  V30 4822 H 462.312 5.78309 -1.59119 0
M  V30 4823 H 463.991 6.12819 -2.07513 0
M  V30 4824 N 464.123 0.554532 1.47522 0
M  V30 4825 C 465.4 -0.0360704 1.95567 0
M  V30 4826 C 465.78 -1.48828 1.49711 0
M  V30 4827 O 465.128 -2.16366 0.734717 0
M  V30 4828 C 465.338 0.106631 3.48837 0
M  V30 4829 C 466.686 -0.0400899 4.24581 0
M  V30 4830 O 467.71 0.0340453 3.56184 0
M  V30 4831 O 466.569 -0.199111 5.46137 0
M  V30 4832 H 463.663 -0.0656294 0.824392 0
M  V30 4833 H 466.209 0.620867 1.57935 0
M  V30 4834 H 464.981 1.11727 3.7501 0
M  V30 4835 H 464.604 -0.58804 3.93227 0
M  V30 4836 N 465.601 -1.54893 0.290851 0
M  V30 4837 C 466.531 -2.26103 -0.583084 0
M  V30 4838 C 467.512 -1.25684 -1.14619 0
M  V30 4839 O 468.697 -1.54436 -1.17741 0
M  V30 4840 C 465.827 -2.99409 -1.75987 0
M  V30 4841 C 464.781 -4.0689 -1.32758 0
M  V30 4842 C 464.107 -4.67856 -2.58872 0
M  V30 4843 C 465.407 -5.20215 -0.46624 0
M  V30 4844 H 467.101 -2.99398 0.0108214 0
M  V30 4845 H 464.647 -1.43998 0.00664468 0
M  V30 4846 H 466.6 -3.47943 -2.37727 0
M  V30 4847 H 465.324 -2.23675 -2.37985 0
M  V30 4848 H 463.983 -3.59191 -0.733299 0
M  V30 4849 H 463.631 -3.88772 -3.19163 0
M  V30 4850 H 463.331 -5.40438 -2.30653 0
M  V30 4851 H 464.855 -5.19147 -3.21433 0
M  V30 4852 H 466.269 -5.64704 -0.989047 0
M  V30 4853 H 464.666 -5.99455 -0.27826 0
M  V30 4854 H 465.736 -4.82198 0.511173 0
M  V30 4855 N 467.08 -0.0183926 -1.57589 0
M  V30 4856 C 468.31 0.67207 -1.95363 0
M  V30 4857 C 468.718 1.66807 -0.892872 0
M  V30 4858 O 468.061 1.83204 0.134958 0
M  V30 4859 C 468.123 1.44397 -3.29226 0
M  V30 4860 C 467.787 0.607511 -4.52944 0
M  V30 4861 C 468.784 -0.112657 -5.19778 0
M  V30 4862 C 466.469 0.548068 -4.99301 0
M  V30 4863 C 468.463 -0.881057 -6.31281 0
M  V30 4864 C 466.15 -0.224044 -6.10689 0
M  V30 4865 C 467.148 -0.937323 -6.76538 0
M  V30 4866 O 466.836 -1.6968 -7.85789 0
M  V30 4867 H 466.568 0.190925 -0.648478 0
M  V30 4868 H 469.122 -0.0711994 -2.05277 0
M  V30 4869 H 467.352 2.23214 -3.15773 0
M  V30 4870 H 469.041 2.02152 -3.51979 0
M  V30 4871 H 469.807 -0.0759998 -4.8494 0
M  V30 4872 H 465.686 1.09281 -4.4786 0
M  V30 4873 H 469.23 -1.43832 -6.82611 0
M  V30 4874 H 465.127 -0.262457 -6.44966 0
M  V30 4875 H 465.895 -1.61544 -8.024 0
M  V30 4876 N 468.558 1.5553 0.254621 0
M  V30 4877 C 469.521 1.88872 1.29846 0
M  V30 4878 C 470.521 0.764591 1.41459 0
M  V30 4879 O 471.711 1.03265 1.40293 0
M  V30 4880 C 468.843 2.11032 2.67728 0
M  V30 4881 H 470.036 2.82201 1.01502 0
M  V30 4882 H 467.589 1.48303 0.493556 0
M  V30 4883 H 468.324 1.20146 3.01223 0
M  V30 4884 H 468.109 2.92895 2.60682 0
M  V30 4885 H 469.599 2.38038 3.43115 0
M  V30 4886 N 470.036 -0.519951 1.48776 0
M  V30 4887 C 471.266 -1.29783 1.60748 0
M  V30 4888 C 471.674 -1.87253 0.27072 0
M  V30 4889 O 471.017 -1.67628 -0.751438 0
M  V30 4890 C 471.079 -2.47984 2.60277 0
M  V30 4891 C 470.743 -2.11526 4.051 0
M  V30 4892 C 471.74 -1.66608 4.92481 0
M  V30 4893 C 469.425 -2.21742 4.50706 0
M  V30 4894 C 471.419 -1.32384 6.23501 0
M  V30 4895 C 469.106 -1.87129 5.81744 0
M  V30 4896 C 470.104 -1.42523 6.67964 0
M  V30 4897 O 469.792 -1.0837 7.96562 0
M  V30 4898 H 469.524 -0.400562 0.544542 0
M  V30 4899 H 472.078 -0.632879 1.95407 0
M  V30 4900 H 470.308 -3.17493 2.2076 0
M  V30 4901 H 471.997 -3.10036 2.61978 0
M  V30 4902 H 472.763 -1.58178 4.58481 0
M  V30 4903 H 468.642 -2.55415 3.83776 0
M  V30 4904 H 472.186 -0.974949 6.90754 0
M  V30 4905 H 468.083 -1.95204 6.15277 0
M  V30 4906 H 468.851 -1.21681 8.09405 0
M  V30 4907 N 471.514 -1.37532 -0.769588 0
M  V30 4908 C 472.461 -1.3347 -1.88293 0
M  V30 4909 C 473.431 -0.199891 -1.64893 0
M  V30 4910 O 474.616 -0.389594 -1.8678 0
M  V30 4911 C 471.756 -1.14968 -3.25387 0
M  V30 4912 C 470.869 -2.37698 -3.60727 0
M  V30 4913 C 470.004 -2.12051 -4.8704 0
M  V30 4914 C 469.043 -3.30636 -5.15117 0
M  V30 4915 N 468.18 -3.04527 -6.3262 0
M  V30 4916 H 473.02 -2.28658 -1.911 0
M  V30 4917 H 470.557 -1.13622 -0.934257 0
M  V30 4918 H 472.515 -1.02261 -4.04473 0
M  V30 4919 H 471.145 -0.234263 -3.21949 0
M  V30 4920 H 470.197 -2.61137 -2.76608 0
M  V30 4921 H 471.509 -3.26131 -3.77413 0
M  V30 4922 H 470.663 -1.96388 -5.74035 0
M  V30 4923 H 469.402 -1.20959 -4.72462 0
M  V30 4924 H 468.407 -3.46836 -4.26597 0
M  V30 4925 H 469.632 -4.22582 -5.31603 0
M  V30 4926 H 467.578 -2.16067 -6.19396 0
M  V30 4927 H 467.495 -3.86503 -6.49732 0
M  V30 4928 H 468.763 -2.92485 -7.22546 0
M  V30 4929 N 472.992 0.995999 -1.22138 0
M  V30 4930 C 473.902 2.11985 -1.00496 0
M  V30 4931 C 474.918 1.7394 0.0457701 0
M  V30 4932 O 476.094 2.00868 -0.146273 0
M  V30 4933 C 473.159 3.41779 -0.582086 0
M  V30 4934 C 472.22 3.93943 -1.70608 0
M  V30 4935 C 471.453 5.17542 -1.30328 0
M  V30 4936 O 471.676 5.70114 -0.180743 0
M  V30 4937 O 470.61 5.63382 -2.11861 0
M  V30 4938 H 474.436 2.33123 -1.94647 0
M  V30 4939 H 472.021 1.10358 -1.00705 0
M  V30 4940 H 473.903 4.1989 -0.356467 0
M  V30 4941 H 472.578 3.22007 0.330592 0
M  V30 4942 H 471.485 3.17019 -1.98619 0
M  V30 4943 H 472.818 4.18141 -2.59651 0
M  V30 4944 N 474.47 1.03057 1.19235 0
M  V30 4945 C 475.418 0.606391 2.24557 0
M  V30 4946 C 476.412 -0.361826 1.65491 0
M  V30 4947 O 477.618 -0.23022 1.78522 0
M  V30 4948 H 473.993 0.177838 0.730669 0
M  V30 4949 H 475.964 1.50529 2.5765 0
M  V30 4950 C 474.713 -0.0252127 3.47691 0
M  V30 4951 H 474.036 0.710838 3.9343 0
M  V30 4952 H 475.476 -0.284931 4.23042 0
M  V30 4953 C 473.935 -1.27229 3.11953 0
M  V30 4954 O 474.465 -2.36416 3.24762 0
M  V30 4955 N 472.671 -1.16169 2.6637 0
M  V30 4956 H 472.218 -0.273189 2.56147 0
M  V30 4957 H 472.176 -1.99703 2.42829 0
M  V30 4958 N 475.948 -1.35272 0.808662 0
M  V30 4959 C 477.196 -1.98316 0.389233 0
M  V30 4960 C 477.517 -1.64465 -1.04767 0
M  V30 4961 O 476.787 -0.928175 -1.72516 0
M  V30 4962 H 475.367 -0.733585 0.140935 0
M  V30 4963 H 478.029 -1.6515 1.03496 0
M  V30 4964 H 477.125 -3.08123 0.496631 0
M  V30 4965 N 477.426 -0.562348 -1.47226 0
M  V30 4966 C 478.842 -0.222492 -1.58042 0
M  V30 4967 C 479.042 1.27505 -1.56028 0
M  V30 4968 O 478.098 2.05555 -1.46641 0
M  V30 4969 C 479.411 -0.853694 -2.88327 0
M  V30 4970 C 480.959 -0.825397 -3.01921 0
M  V30 4971 C 481.434 -1.43576 -4.34914 0
M  V30 4972 N 482.925 -1.39918 -4.41562 0
M  V30 4973 C 483.66 -1.84103 -5.43041 0
M  V30 4974 N 483.156 -2.36167 -6.51304 0
M  V30 4975 N 484.949 -1.75142 -5.34118 0
M  V30 4976 H 477.1 -1.53525 -1.46778 0
M  V30 4977 H 479.363 -0.640527 -0.698877 0
M  V30 4978 H 479.069 -1.90635 -2.95552 0
M  V30 4979 H 478.943 -0.34977 -3.75575 0
M  V30 4980 H 481.33 0.218583 -2.94289 0
M  V30 4981 H 481.411 -1.36713 -2.16202 0
M  V30 4982 H 481.055 -2.47884 -4.43301 0
M  V30 4983 H 480.985 -0.869427 -5.19373 0
M  V30 4984 H 483.476 -1.0184 -3.63919 0
M  V30 4985 H 483.789 -2.67793 -7.24919 0
M  V30 4986 H 482.134 -2.40181 -6.52179 0
M  V30 4987 H 485.325 -1.34241 -4.48439 0
M  V30 4988 H 485.498 -2.09895 -6.13065 0
M  V30 4989 N 478.904 1.54736 -0.299062 0
M  V30 4990 C 480.181 1.92187 0.363802 0
M  V30 4991 C 480.561 1.22607 1.71845 0
M  V30 4992 O 479.909 0.361141 2.25628 0
M  V30 4993 C 480.119 3.45678 0.480377 0
M  V30 4994 C 481.467 4.17885 0.752147 0
M  V30 4995 O 482.491 3.51702 0.564264 0
M  V30 4996 O 481.35 5.35048 1.11294 0
M  V30 4997 H 478.444 0.801681 0.203066 0
M  V30 4998 H 480.99 1.66115 -0.346978 0
M  V30 4999 H 479.762 3.88443 -0.471999 0
M  V30 5000 H 479.385 3.77779 1.2397 0
M  V30 5001 N 480.382 0.0267497 1.57577 0
M  V30 5002 C 481.631 -0.651736 1.9088 0
M  V30 5003 C 481.944 -1.73427 0.904576 0
M  V30 5004 O 483.15 -2.46923 1.12877 0
M  V30 5005 C 481.606 -1.21048 3.38933 0
M  V30 5006 C 481.214 -0.161362 4.47709 0
M  V30 5007 C 482.958 -1.86562 3.81307 0
M  V30 5008 C 480.865 -0.731611 5.86857 0
M  V30 5009 H 479.795 -0.247198 0.712326 0
M  V30 5010 H 482.446 0.0916641 1.83271 0
M  V30 5011 H 480.828 -2.00542 3.41466 0
M  V30 5012 H 482.002 0.61094 4.56732 0
M  V30 5013 H 480.317 0.394877 4.14523 0
M  V30 5014 H 482.914 -2.30178 4.8262 0
M  V30 5015 H 483.257 -2.70735 3.16241 0
M  V30 5016 H 483.79 -1.13762 3.81186 0
M  V30 5017 H 480.529 0.0719329 6.55461 0
M  V30 5018 H 480.049 -1.47245 5.81445 0
M  V30 5019 H 481.728 -1.22208 6.35354 0
M  V30 5020 N 481.861 -1.55662 -0.24637 0
M  V30 5021 C 482.811 -1.86753 -1.30795 0
M  V30 5022 C 483.795 -0.728445 -1.43466 0
M  V30 5023 O 484.987 -0.99038 -1.46699 0
M  V30 5024 C 482.116 -2.16618 -2.66329 0
M  V30 5025 C 481.202 -3.36855 -2.57661 0
M  V30 5026 N 481.593 -4.56111 -2.18624 0
M  V30 5027 C 479.891 -3.39976 -2.88673 0
M  V30 5028 C 480.592 -5.38247 -2.20601 0
M  V30 5029 N 479.568 -4.77322 -2.60124 0
M  V30 5030 H 483.37 -2.76486 -0.996642 0
M  V30 5031 H 480.884 -1.55896 -0.454994 0
M  V30 5032 H 482.881 -2.37057 -3.42942 0
M  V30 5033 H 481.541 -1.28185 -2.98327 0
M  V30 5034 H 482.552 -4.81726 -1.9016 0
M  V30 5035 H 479.229 -2.61815 -3.25206 0
M  V30 5036 H 480.619 -6.43657 -1.92756 0
M  V30 5037 N 483.339 0.512053 -1.4905 0
M  V30 5038 C 484.564 1.2959 -1.6193 0
M  V30 5039 C 484.989 1.85906 -0.286454 0
M  V30 5040 O 484.347 1.65312 0.744426 0
M  V30 5041 C 484.395 2.40987 -2.68249 0
M  V30 5042 O 483.499 3.44531 -2.26654 0
M  V30 5043 H 482.84 0.383053 -0.542371 0
M  V30 5044 H 485.37 0.614231 -1.95162 0
M  V30 5045 H 485.38 2.86913 -2.90078 0
M  V30 5046 H 484.055 1.99361 -3.65004 0
M  V30 5047 H 482.632 3.046 -2.15112 0
M  V30 5048 N 484.817 1.37938 0.762283 0
M  V30 5049 C 485.78 1.34279 1.85747 0
M  V30 5050 C 486.78 0.244969 1.58923 0
M  V30 5051 O 487.97 0.501365 1.66829 0
M  V30 5052 C 485.102 1.08833 3.23061 0
M  V30 5053 H 486.295 2.31705 1.90401 0
M  V30 5054 H 483.848 1.23105 0.963057 0
M  V30 5055 H 484.583 0.119767 3.24079 0
M  V30 5056 H 484.368 1.88306 3.43923 0
M  V30 5057 H 485.858 1.08946 4.03138 0
M  V30 5058 N 486.295 -0.989507 1.22664 0
M  V30 5059 C 487.711 -1.25395 0.987331 0
M  V30 5060 C 487.911 -1.9899 -0.317056 0
M  V30 5061 O 486.967 -2.30141 -1.03882 0
M  V30 5062 C 488.28 -2.06242 2.18826 0
M  V30 5063 C 489.828 -2.19413 2.23219 0
M  V30 5064 C 490.303 -3.03648 3.42873 0
M  V30 5065 N 491.794 -3.11234 3.43056 0
M  V30 5066 C 492.529 -3.7671 4.32293 0
M  V30 5067 N 492.025 -4.44085 5.31752 0
M  V30 5068 N 493.818 -3.73505 4.2006 0
M  V30 5069 H 485.969 -0.496212 2.06522 0
M  V30 5070 H 488.232 -0.281784 0.905153 0
M  V30 5071 H 487.938 -1.59531 3.13437 0
M  V30 5072 H 487.812 -3.06996 2.19165 0
M  V30 5073 H 490.199 -2.65336 1.29154 0
M  V30 5074 H 490.28 -1.18078 2.26917 0
M  V30 5075 H 489.924 -2.58424 4.37241 0
M  V30 5076 H 489.854 -4.05132 3.36416 0
M  V30 5077 H 492.345 -2.63287 2.71088 0
M  V30 5078 H 492.658 -4.91797 5.96117 0
M  V30 5079 H 491.003 -4.42822 5.35662 0
M  V30 5080 H 494.194 -3.20033 3.41609 0
M  V30 5081 H 494.367 -4.24253 4.8981 0
M  V30 5082 N 487.773 -1.03688 -1.18687 0
M  V30 5083 C 488.72 -0.624624 -2.22187 0
M  V30 5084 C 489.69 0.365636 -1.62026 0
M  V30 5085 O 490.875 0.260481 -1.89014 0
M  V30 5086 C 488.015 0.0101738 -3.45099 0
M  V30 5087 C 487.128 -1.02709 -4.19613 0
M  V30 5088 C 486.263 -0.361213 -5.2997 0
M  V30 5089 C 485.302 -1.38384 -5.96252 0
M  V30 5090 N 484.439 -0.743196 -6.98155 0
M  V30 5091 H 489.279 -1.51176 -2.56807 0
M  V30 5092 H 486.816 -0.75636 -1.26165 0
M  V30 5093 H 488.774 0.395528 -4.15321 0
M  V30 5094 H 487.404 0.860848 -3.1111 0
M  V30 5095 H 486.456 -1.53043 -3.48256 0
M  V30 5096 H 487.768 -1.80398 -4.65036 0
M  V30 5097 H 486.922 0.0785537 -6.06649 0
M  V30 5098 H 485.661 0.447799 -4.8564 0
M  V30 5099 H 484.666 -1.83378 -5.18317 0
M  V30 5100 H 485.891 -2.19448 -6.42666 0
M  V30 5101 H 483.837 0.0455789 -6.55984 0
M  V30 5102 H 483.754 -1.45784 -7.41811 0
M  V30 5103 H 485.022 -0.327698 -7.78811 0
M  V30 5104 N 489.251 1.34841 -0.815825 0
M  V30 5105 C 490.498 1.98499 -0.400535 0
M  V30 5106 C 490.826 1.64699 1.03463 0
M  V30 5107 O 490.081 0.907006 1.73412 0
M  V30 5108 C 490.38 3.53273 -0.541541 0
M  V30 5109 C 490.046 4.06966 -1.94138 0
M  V30 5110 C 488.708 4.21341 -2.32433 0
M  V30 5111 C 491.06 4.35933 -2.85677 0
M  V30 5112 C 488.388 4.62007 -3.61617 0
M  V30 5113 C 490.74 4.78042 -4.14317 0
M  V30 5114 C 489.404 4.90622 -4.52599 0
M  V30 5115 H 488.674 0.72636 -0.146566 0
M  V30 5116 H 491.321 1.60902 -1.0384 0
M  V30 5117 H 489.626 3.91387 0.179741 0
M  V30 5118 H 491.323 4.00497 -0.20085 0
M  V30 5119 H 487.913 3.96235 -1.63388 0
M  V30 5120 H 492.097 4.24372 -2.57337 0
M  V30 5121 H 487.353 4.69937 -3.91113 0
M  V30 5122 H 491.527 4.99415 -4.85342 0
M  V30 5123 H 489.154 5.2189 -5.52752 0
M  V30 5124 N 490.729 0.570148 1.46925 0
M  V30 5125 C 491.975 0.0510284 2.02736 0
M  V30 5126 C 492.308 -1.3006 1.44215 0
M  V30 5127 O 491.583 -1.84932 0.602521 0
M  V30 5128 C 491.866 -0.028215 3.60089 0
M  V30 5129 C 491.719 1.35142 4.29018 0
M  V30 5130 C 493.038 -0.735181 4.33916 0
M  V30 5131 H 490.157 0.0200178 0.736728 0
M  V30 5132 H 492.799 0.73493 1.75211 0
M  V30 5133 H 490.949 -0.610648 3.83671 0
M  V30 5134 H 492.621 1.97806 4.16738 0
M  V30 5135 H 490.864 1.9226 3.88868 0
M  V30 5136 H 491.535 1.24857 5.37694 0
M  V30 5137 H 494.011 -0.240519 4.15404 0
M  V30 5138 H 492.887 -0.759622 5.43618 0
M  V30 5139 H 493.148 -1.79397 4.04066 0
M  V30 5140 N 492.207 -1.54576 0.307264 0
M  V30 5141 C 493.454 -2.00263 -0.300167 0
M  V30 5142 C 493.782 -1.19561 -1.53413 0
M  V30 5143 O 493.037 -0.261487 -1.93945 0
M  V30 5144 C 493.336 -3.50572 -0.695253 0
M  V30 5145 C 493.002 -4.48771 0.437679 0
M  V30 5146 C 491.664 -4.7534 0.748681 0
M  V30 5147 C 494.016 -5.0721 1.19949 0
M  V30 5148 C 491.344 -5.5761 1.8245 0
M  V30 5149 C 493.696 -5.90651 2.26527 0
M  V30 5150 C 492.36 -6.15528 2.58227 0
M  V30 5151 H 491.63 -0.732814 -0.109839 0
M  V30 5152 H 494.277 -1.86664 0.427661 0
M  V30 5153 H 492.582 -3.61814 -1.50326 0
M  V30 5154 H 494.279 -3.83352 -1.17653 0
M  V30 5155 H 490.869 -4.282 0.185187 0
M  V30 5156 H 495.053 -4.86679 0.972474 0
M  V30 5157 H 490.309 -5.75121 2.07476 0
M  V30 5158 H 494.483 -6.34957 2.86011 0
M  V30 5159 H 492.11 -6.79066 3.4172 0
M  V30 5160 N 493.685 -0.035106 -1.57561 0
M  V30 5161 C 494.648 0.929819 -2.09492 0
M  V30 5162 C 495.648 1.25026 -1.01119 0
M  V30 5163 O 496.838 1.18961 -1.27255 0
M  V30 5164 C 493.97 2.24457 -2.56577 0
M  V30 5165 H 495.163 0.479935 -2.96035 0
M  V30 5166 H 492.716 0.213033 -1.54841 0
M  V30 5167 H 493.451 2.74061 -1.73382 0
M  V30 5168 H 493.236 2.02508 -3.35757 0
M  V30 5169 H 494.726 2.93607 -2.96959 0
M  V30 5170 N 495.163 1.55791 0.238111 0
M  V30 5171 C 496.126 1.90239 1.27835 0
M  V30 5172 C 497.126 0.779552 1.4064 0
M  V30 5173 O 498.316 1.04747 1.3919 0
M  V30 5174 C 495.448 2.13859 2.65475 0
M  V30 5175 H 496.641 2.83262 0.985034 0
M  V30 5176 H 494.194 1.48818 0.477799 0
M  V30 5177 H 494.929 1.23334 2.99932 0
M  V30 5178 H 494.714 2.95643 2.57561 0
M  V30 5179 H 496.204 2.41664 3.40571 0
M  V30 5180 N 496.642 -0.504142 1.49319 0
M  V30 5181 C 497.888 -1.26033 1.58882 0
M  V30 5182 C 498.221 -1.92268 0.273274 0
M  V30 5183 O 497.496 -1.80567 -0.72291 0
M  V30 5184 C 497.779 -2.32976 2.7458 0
M  V30 5185 C 497.632 -1.71263 4.1592 0
M  V30 5186 C 498.951 -3.34561 2.85932 0
M  V30 5187 H 496.07 -0.456863 0.578312 0
M  V30 5188 H 498.712 -0.558965 1.81592 0
M  V30 5189 H 496.862 -2.92796 2.55348 0
M  V30 5190 H 498.534 -1.15294 4.4666 0
M  V30 5191 H 496.777 -1.01686 4.21714 0
M  V30 5192 H 497.448 -2.48816 4.92742 0
M  V30 5193 H 499.924 -2.84727 3.0343 0
M  V30 5194 H 498.8 -4.06754 3.68568 0
M  V30 5195 H 499.061 -3.96695 1.95154 0
M  V30 5196 N 498.12 -1.38341 -0.754957 0
M  V30 5197 C 499.067 -1.3546 -1.86867 0
M  V30 5198 C 500.037 -0.217369 -1.64672 0
M  V30 5199 O 501.222 -0.409383 -1.86356 0
M  V30 5200 C 498.362 -1.18413 -3.24149 0
M  V30 5201 C 497.475 -2.41511 -3.58185 0
M  V30 5202 C 496.61 -2.17205 -4.84763 0
M  V30 5203 C 495.649 -3.36081 -5.11582 0
M  V30 5204 N 494.786 -3.11219 -6.29354 0
M  V30 5205 H 499.626 -2.30672 -1.88664 0
M  V30 5206 H 497.163 -1.14607 -0.922154 0
M  V30 5207 H 499.121 -1.06545 -4.03366 0
M  V30 5208 H 497.751 -0.268397 -3.21682 0
M  V30 5209 H 496.803 -2.64056 -2.73822 0
M  V30 5210 H 498.115 -3.30115 -3.73932 0
M  V30 5211 H 497.269 -2.02465 -5.7192 0
M  V30 5212 H 496.008 -1.25964 -4.71152 0
M  V30 5213 H 495.013 -3.51341 -4.22894 0
M  V30 5214 H 496.238 -4.28196 -5.27091 0
M  V30 5215 H 494.184 -2.22624 -6.17069 0
M  V30 5216 H 494.101 -3.93373 -6.45596 0
M  V30 5217 H 495.369 -3.00132 -7.19403 0
M  V30 5218 N 499.598 0.982988 -1.23187 0
M  V30 5219 C 500.546 2.09616 -1.00817 0
M  V30 5220 C 501.54 1.6932 0.0519995 0
M  V30 5221 O 502.746 1.79715 -0.101284 0
M  V30 5222 H 499.121 0.685628 -0.308899 0
M  V30 5223 H 501.092 2.25652 -1.95253 0
M  V30 5224 C 499.841 3.42249 -0.613243 0
M  V30 5225 H 499.164 3.73705 -1.42073 0
M  V30 5226 H 500.604 4.21086 -0.496208 0
M  V30 5227 C 499.063 3.30002 0.678233 0
M  V30 5228 O 499.593 3.6263 1.72807 0
M  V30 5229 N 497.799 2.83164 0.653165 0
M  V30 5230 H 497.346 2.56811 -0.201492 0
M  V30 5231 H 497.304 2.75352 1.51752 0
M  V30 5232 N 501.076 1.04316 1.18135 0
M  V30 5233 C 502.487 0.775505 1.69832 0
M  V30 5234 C 502.838 -0.703348 1.8316 0
M  V30 5235 O 501.963 -1.54729 1.51287 0
M  V30 5236 C 502.558 1.40112 3.0847 0
M  V30 5237 C 501.117 1.18172 3.57368 0
M  V30 5238 C 500.264 1.49022 2.33854 0
M  V30 5239 H 503.215 1.20925 1.02775 0
M  V30 5240 H 503.236 0.805672 3.71873 0
M  V30 5241 H 502.748 2.47744 2.98738 0
M  V30 5242 H 500.849 0.124258 3.72393 0
M  V30 5243 H 500.962 1.8805 4.40652 0
M  V30 5244 H 499.326 0.909995 2.37889 0
M  V30 5245 H 500.109 2.57768 2.26738 0
M  V30 5246 N 502.554 -1.34406 0.822964 0
M  V30 5247 C 503.831 -1.92733 0.333641 0
M  V30 5248 C 504.211 -1.75107 -1.17901 0
M  V30 5249 O 503.559 -1.12983 -1.98613 0
M  V30 5250 C 503.769 -3.40557 0.763023 0
M  V30 5251 C 505.117 -4.17709 0.761879 0
M  V30 5252 O 506.141 -3.49141 0.705606 0
M  V30 5253 O 505 -5.40082 0.835109 0
M  V30 5254 H 502.094 -0.821964 0.0911249 0
M  V30 5255 H 504.64 -1.4338 0.907757 0
M  V30 5256 H 503.412 -3.47187 1.8049 0
M  V30 5257 H 503.035 -3.97259 0.164605 0
M  V30 5258 N 504.032 -0.577932 -1.46621 0
M  V30 5259 C 504.962 0.145917 -2.33044 0
M  V30 5260 C 505.943 0.888412 -1.45056 0
M  V30 5261 O 507.128 0.864812 -1.73881 0
M  V30 5262 C 504.258 1.16322 -3.27241 0
M  V30 5263 C 503.212 0.535868 -4.24632 0
M  V30 5264 C 502.538 1.65929 -5.08303 0
M  V30 5265 C 503.838 -0.523861 -5.19666 0
M  V30 5266 H 505.532 -0.575636 -2.93814 0
M  V30 5267 H 503.078 -0.278272 -1.41286 0
M  V30 5268 H 505.031 1.67793 -3.86553 0
M  V30 5269 H 503.755 1.91498 -2.64567 0
M  V30 5270 H 502.414 0.0422759 -3.66576 0
M  V30 5271 H 502.062 2.40061 -4.42018 0
M  V30 5272 H 501.762 1.2452 -5.74255 0
M  V30 5273 H 503.286 2.17686 -5.70478 0
M  V30 5274 H 504.7 -0.0944059 -5.73222 0
M  V30 5275 H 503.097 -0.858 -5.93935 0
M  V30 5276 H 504.167 -1.41197 -4.63887 0
M  V30 5277 N 505.51 1.54411 -0.315457 0
M  V30 5278 C 506.759 1.99599 0.290395 0
M  V30 5279 C 507.072 1.20746 1.53882 0
M  V30 5280 O 508.278 1.56272 2.22017 0
M  V30 5281 C 506.734 3.5539 0.56797 0
M  V30 5282 C 506.342 4.43068 -0.662945 0
M  V30 5283 C 508.086 4.09067 1.13422 0
M  V30 5284 C 505.993 5.90317 -0.357722 0
M  V30 5285 H 504.923 0.745592 0.112286 0
M  V30 5286 H 507.574 1.78477 -0.426418 0
M  V30 5287 H 505.956 3.72468 1.34476 0
M  V30 5288 H 507.13 4.37765 -1.43869 0
M  V30 5289 H 505.445 4.00238 -1.14884 0
M  V30 5290 H 508.042 5.16663 1.37707 0
M  V30 5291 H 508.385 3.60552 2.08106 0
M  V30 5292 H 508.918 3.95589 0.418805 0
M  V30 5293 H 505.657 6.4301 -1.27351 0
M  V30 5294 H 505.177 5.98592 0.380472 0
M  V30 5295 H 506.856 6.4699 0.0354284 0
M  V30 5296 N 506.988 0.0434614 1.5754 0
M  V30 5297 C 507.935 -0.93356 2.11077 0
M  V30 5298 C 508.905 -1.31383 1.01626 0
M  V30 5299 O 510.09 -1.40465 1.29129 0
M  V30 5300 C 507.23 -2.20578 2.65404 0
M  V30 5301 C 506.343 -1.88068 3.88914 0
M  V30 5302 C 505.478 -3.09691 4.31584 0
M  V30 5303 C 504.517 -2.73067 5.47815 0
M  V30 5304 N 503.654 -3.87359 5.85574 0
M  V30 5305 H 508.494 -0.470118 2.94268 0
M  V30 5306 H 506.031 -0.220434 1.45439 0
M  V30 5307 H 507.989 -2.95011 2.94999 0
M  V30 5308 H 506.619 -2.64513 1.85021 0
M  V30 5309 H 505.671 -1.03816 3.6596 0
M  V30 5310 H 506.983 -1.57104 4.73413 0
M  V30 5311 H 506.137 -3.92431 4.62691 0
M  V30 5312 H 504.876 -3.43827 3.45882 0
M  V30 5313 H 503.881 -1.88742 5.16388 0
M  V30 5314 H 505.106 -2.40131 6.35227 0
M  V30 5315 H 503.052 -4.21311 5.02825 0
M  V30 5316 H 502.969 -3.60068 6.64746 0
M  V30 5317 H 504.237 -4.70761 6.21292 0
M  V30 5318 N 508.466 -1.55915 -0.229846 0
M  V30 5319 C 509.413 -1.91734 -1.28478 0
M  V30 5320 C 510.383 -0.773539 -1.46988 0
M  V30 5321 O 511.568 -1.02871 -1.60693 0
M  V30 5322 C 508.708 -2.23224 -2.63182 0
M  V30 5323 C 507.821 -3.50497 -2.52539 0
M  V30 5324 C 506.956 -3.71474 -3.79711 0
M  V30 5325 C 505.995 -4.92289 -3.63755 0
M  V30 5326 N 505.132 -5.09698 -4.82858 0
M  V30 5327 H 509.972 -2.81692 -0.972308 0
M  V30 5328 H 507.509 -1.39429 -0.468815 0
M  V30 5329 H 509.467 -2.3949 -3.41614 0
M  V30 5330 H 508.097 -1.36451 -2.92542 0
M  V30 5331 H 507.149 -3.4247 -1.65585 0
M  V30 5332 H 508.461 -4.39079 -2.36666 0
M  V30 5333 H 507.615 -3.87791 -4.66586 0
M  V30 5334 H 506.354 -2.81157 -3.985 0
M  V30 5335 H 505.359 -4.7593 -2.75264 0
M  V30 5336 H 506.584 -5.84083 -3.46445 0
M  V30 5337 H 504.53 -4.22322 -5.01976 0
M  V30 5338 H 504.447 -5.92399 -4.69681 0
M  V30 5339 H 505.715 -5.30443 -5.71183 0
M  V30 5340 N 509.944 0.496216 -1.49584 0
M  V30 5341 C 511.174 1.27209 -1.62793 0
M  V30 5342 C 511.582 1.86799 -0.300476 0
M  V30 5343 O 510.925 1.68802 0.724674 0
M  V30 5344 C 510.987 2.43812 -2.64189 0
M  V30 5345 C 510.651 2.05055 -4.08414 0
M  V30 5346 C 511.648 1.58752 -4.9507 0
M  V30 5347 C 509.333 2.14543 -4.54177 0
M  V30 5348 C 511.327 1.22448 -6.25528 0
M  V30 5349 C 509.014 1.77851 -5.84647 0
M  V30 5350 C 510.012 1.31878 -6.70147 0
M  V30 5351 O 509.7 0.956834 -7.98185 0
M  V30 5352 H 509.432 0.391848 -0.550846 0
M  V30 5353 H 511.986 0.601712 -1.96389 0
M  V30 5354 H 510.216 3.13941 -2.25783 0
M  V30 5355 H 511.905 3.05829 -2.66877 0
M  V30 5356 H 512.671 1.50863 -4.60939 0
M  V30 5357 H 508.55 2.49277 -3.87791 0
M  V30 5358 H 512.094 0.864933 -6.92217 0
M  V30 5359 H 507.991 1.8539 -6.18305 0
M  V30 5360 H 508.759 1.08789 -8.11238 0
M  V30 5361 N 511.423 1.38739 0.74761 0
M  V30 5362 C 512.386 1.36241 1.84312 0
M  V30 5363 C 513.386 0.261811 1.58654 0
M  V30 5364 O 514.576 0.519031 1.66288 0
M  V30 5365 C 511.708 1.12253 3.21888 0
M  V30 5366 H 512.901 2.33712 1.87933 0
M  V30 5367 H 510.454 1.2412 0.949946 0
M  V30 5368 H 511.189 0.154133 3.23934 0
M  V30 5369 H 510.974 1.91943 3.41907 0
M  V30 5370 H 512.464 1.13215 4.0196 0
M  V30 5371 N 512.901 -0.976442 1.23707 0
M  V30 5372 C 514.126 -1.75875 1.09922 0
M  V30 5373 C 514.551 -1.84911 -0.34489 0
M  V30 5374 O 513.909 -1.31363 -1.24954 0
M  V30 5375 C 513.957 -3.16179 1.73388 0
M  V30 5376 O 513.061 -4.00124 0.99871 0
M  V30 5377 H 512.402 -0.540954 0.385052 0
M  V30 5378 H 514.932 -1.22546 1.6384 0
M  V30 5379 H 514.942 -3.66741 1.78788 0
M  V30 5380 H 513.617 -3.08917 2.78466 0
M  V30 5381 H 512.194 -3.58624 1.02193 0
M  V30 5382 N 514.379 -1.04941 -1.1758 0
M  V30 5383 C 515.289 -0.658826 -2.25159 0
M  V30 5384 C 516.305 0.318941 -1.71052 0
M  V30 5385 O 517.481 0.171669 -2.00667 0
M  V30 5386 C 514.546 -0.0369522 -3.4668 0
M  V30 5387 C 513.607 -1.06484 -4.15884 0
M  V30 5388 C 512.84 -0.472551 -5.31604 0
M  V30 5389 O 513.063 0.718736 -5.65854 0
M  V30 5390 O 511.997 -1.20557 -5.89703 0
M  V30 5391 H 515.823 -1.55533 -2.60851 0
M  V30 5392 H 513.408 -0.820819 -1.24832 0
M  V30 5393 H 515.29 0.308784 -4.20267 0
M  V30 5394 H 513.965 0.833238 -3.12792 0
M  V30 5395 H 512.872 -1.46253 -3.44327 0
M  V30 5396 H 514.205 -1.9061 -4.53794 0
M  V30 5397 N 515.857 1.33968 -0.830081 0
M  V30 5398 C 517.268 1.80439 -0.479455 0
M  V30 5399 C 517.619 1.68756 1.00079 0
M  V30 5400 O 516.744 1.23171 1.77927 0
M  V30 5401 C 517.339 3.27611 -0.863505 0
M  V30 5402 C 515.898 3.72133 -0.565145 0
M  V30 5403 C 515.045 2.55549 -1.07657 0
M  V30 5404 H 517.996 1.21614 -1.0196 0
M  V30 5405 H 518.017 3.8012 -0.170083 0
M  V30 5406 H 517.529 3.36082 -1.94089 0
M  V30 5407 H 515.63 3.69196 0.502536 0
M  V30 5408 H 515.743 4.65963 -1.11422 0
M  V30 5409 H 514.107 2.49788 -0.497807 0
M  V30 5410 H 514.89 2.66786 -2.16055 0
M  V30 5411 N 517.335 0.585699 1.46312 0
M  V30 5412 C 518.267 -0.183687 2.28463 0
M  V30 5413 C 519.28 -0.85264 1.38686 0
M  V30 5414 O 520.469 -0.721701 1.6326 0
M  V30 5415 C 517.569 -1.27977 3.13808 0
M  V30 5416 C 516.742 -0.702164 4.31727 0
M  V30 5417 C 515.801 -1.68633 4.98447 0
M  V30 5418 O 514.827 -1.22121 5.55945 0
M  V30 5419 N 516.029 -3.02047 4.95729 0
M  V30 5420 H 518.794 0.521127 2.95134 0
M  V30 5421 H 516.355 0.423673 1.56258 0
M  V30 5422 H 518.347 -1.9375 3.55307 0
M  V30 5423 H 516.917 -1.8874 2.4919 0
M  V30 5424 H 516.137 0.1331 3.93975 0
M  V30 5425 H 517.425 -0.296101 5.07938 0
M  V30 5426 H 516.823 -3.42457 4.50266 0
M  V30 5427 H 515.38 -3.63301 5.41161 0
M  V30 5428 N 518.813 -1.54241 0.323641 0
M  V30 5429 C 520.09 -1.92741 -0.333181 0
M  V30 5430 C 520.47 -1.25326 -1.69872 0
M  V30 5431 O 519.818 -0.396991 -2.25025 0
M  V30 5432 C 520.028 -3.46399 -0.425322 0
M  V30 5433 C 521.376 -4.19029 -0.68557 0
M  V30 5434 O 522.4 -3.52555 -0.50824 0
M  V30 5435 O 521.259 -5.36751 -1.02767 0
M  V30 5436 H 518.353 -0.804811 -0.190286 0
M  V30 5437 H 520.899 -1.65542 0.373361 0
M  V30 5438 H 519.671 -3.87643 0.533737 0
M  V30 5439 H 519.294 -3.79704 -1.17944 0
M  V30 5440 N 520.291 -0.0518155 -1.57515 0
M  V30 5441 C 521.519 0.631395 -1.9703 0
M  V30 5442 C 521.934 1.64341 -0.92938 0
M  V30 5443 O 521.291 1.82296 0.0863266 0
M  V30 5444 C 521.342 1.31774 -3.36627 0
M  V30 5445 O 521.063 0.346247 -4.3673 0
M  V30 5446 C 522.564 2.09065 -3.90905 0
M  V30 5447 H 519.784 0.172576 -0.648428 0
M  V30 5448 H 522.328 -0.118306 -2.04158 0
M  V30 5449 H 520.483 2.01867 -3.30649 0
M  V30 5450 H 520.897 0.836226 -5.17791 0
M  V30 5451 H 522.371 2.52508 -4.9086 0
M  V30 5452 H 522.848 2.93908 -3.26366 0
M  V30 5453 H 523.454 1.43882 -4.00223 0
M  V30 5454 N 521.769 1.56035 0.221574 0
M  V30 5455 C 523.185 1.49026 0.571271 0
M  V30 5456 C 523.385 0.746912 1.87146 0
M  V30 5457 O 522.441 0.286566 2.50869 0
M  V30 5458 C 523.754 2.93579 0.650522 0
M  V30 5459 C 525.302 3.04099 0.741151 0
M  V30 5460 C 525.777 4.5001 0.851747 0
M  V30 5461 N 527.268 4.54053 0.915968 0
M  V30 5462 C 528.003 5.64232 1.02125 0
M  V30 5463 N 527.499 6.84164 1.09049 0
M  V30 5464 N 529.292 5.52084 1.05639 0
M  V30 5465 H 521.443 2.02791 -0.63162 0
M  V30 5466 H 523.706 0.921736 -0.221602 0
M  V30 5467 H 523.412 3.50912 -0.235253 0
M  V30 5468 H 523.286 3.45476 1.51413 0
M  V30 5469 H 525.673 2.4683 1.61737 0
M  V30 5470 H 525.754 2.55371 -0.148128 0
M  V30 5471 H 525.398 5.07896 -0.0200117 0
M  V30 5472 H 525.328 4.96444 1.75644 0
M  V30 5473 H 527.819 3.67683 0.872782 0
M  V30 5474 H 528.132 7.63883 1.1706 0
M  V30 5475 H 526.477 6.86875 1.05962 0
M  V30 5476 H 529.668 4.57317 0.998953 0
M  V30 5477 H 529.841 6.37983 1.13498 0
M  V30 5478 N 523.247 -0.488276 1.49845 0
M  V30 5479 C 524.21 -1.57069 1.66919 0
M  V30 5480 C 525.21 -1.51445 0.540479 0
M  V30 5481 O 526.4 -1.5437 0.807188 0
M  V30 5482 C 523.532 -2.96718 1.67844 0
M  V30 5483 H 524.725 -1.43254 2.63474 0
M  V30 5484 H 522.278 -0.713435 1.39068 0
M  V30 5485 H 523.013 -3.15996 0.7292 0
M  V30 5486 H 522.798 -3.02208 2.49826 0
M  V30 5487 H 524.288 -3.75335 1.83066 0
M  V30 5488 N 524.725 -1.39134 -0.740242 0
M  V30 5489 C 525.972 -1.36071 -1.49969 0
M  V30 5490 C 526.3 0.0450245 -1.94448 0
M  V30 5491 O 525.555 1.02482 -1.66721 0
M  V30 5492 C 525.854 -2.27457 -2.75678 0
M  V30 5493 C 525.52 -3.75185 -2.50094 0
M  V30 5494 C 524.182 -4.15439 -2.42825 0
M  V30 5495 C 526.534 -4.68643 -2.28086 0
M  V30 5496 C 523.862 -5.4722 -2.11584 0
M  V30 5497 C 526.214 -6.00695 -1.98363 0
M  V30 5498 C 524.878 -6.40018 -1.8956 0
M  V30 5499 H 524.148 -0.497921 -0.548777 0
M  V30 5500 H 526.795 -1.71599 -0.85007 0
M  V30 5501 H 525.1 -1.8503 -3.45356 0
M  V30 5502 H 526.797 -2.22384 -3.33686 0
M  V30 5503 H 523.387 -3.43279 -2.56627 0
M  V30 5504 H 527.571 -4.3838 -2.32672 0
M  V30 5505 H 522.827 -5.76615 -2.03287 0
M  V30 5506 H 527.001 -6.72644 -1.80341 0
M  V30 5507 H 524.628 -7.42051 -1.65117 0
M  V30 5508 N 526.204 0.969867 -1.24223 0
M  V30 5509 C 527.151 2.06407 -1.0327 0
M  V30 5510 C 528.121 1.66014 0.0533 0
M  V30 5511 O 529.306 1.90533 -0.100896 0
M  V30 5512 C 526.446 3.3909 -0.641262 0
M  V30 5513 C 525.559 3.9269 -1.80051 0
M  V30 5514 C 524.694 5.13631 -1.35486 0
M  V30 5515 C 523.733 5.59423 -2.48419 0
M  V30 5516 N 522.87 6.71586 -2.04737 0
M  V30 5517 H 527.71 2.23663 -1.96923 0
M  V30 5518 H 525.247 1.09624 -0.980862 0
M  V30 5519 H 527.205 4.15323 -0.395351 0
M  V30 5520 H 525.835 3.21765 0.258269 0
M  V30 5521 H 524.887 3.13116 -2.16014 0
M  V30 5522 H 526.199 4.22636 -2.64916 0
M  V30 5523 H 525.353 5.97231 -1.0677 0
M  V30 5524 H 524.092 4.85364 -0.476722 0
M  V30 5525 H 523.097 4.74398 -2.77897 0
M  V30 5526 H 524.322 5.89705 -3.36786 0
M  V30 5527 H 522.268 6.45058 -1.19318 0
M  V30 5528 H 522.185 7.0097 -2.83156 0
M  V30 5529 H 523.453 7.58633 -1.79154 0
M  V30 5530 N 527.682 1.05563 1.17022 0
M  V30 5531 C 529.093 0.793475 1.69 0
M  V30 5532 C 529.444 -0.683882 1.83895 0
M  V30 5533 O 528.569 -1.53116 1.5292 0
M  V30 5534 C 529.164 1.43376 3.06967 0
M  V30 5535 C 527.723 1.21956 3.56095 0
M  V30 5536 C 526.87 1.51494 2.3226 0
M  V30 5537 H 529.821 1.22008 1.01487 0
M  V30 5538 H 529.842 0.845068 3.70997 0
M  V30 5539 H 529.354 2.50899 2.96093 0
M  V30 5540 H 527.455 0.163749 3.7224 0
M  V30 5541 H 527.568 1.92713 4.38633 0
M  V30 5542 H 525.932 0.935175 2.3691 0
M  V30 5543 H 526.715 2.60159 2.23992 0
M  V30 5544 N 529.16 -1.33526 0.837174 0
M  V30 5545 C 530.408 -1.97446 0.431211 0
M  V30 5546 C 530.729 -1.6665 -1.01255 0
M  V30 5547 O 529.999 -0.964559 -1.70508 0
M  V30 5548 H 528.579 -0.73043 0.156463 0
M  V30 5549 H 531.241 -1.62918 1.06976 0
M  V30 5550 H 530.337 -3.07001 0.561877 0
M  V30 5551 N 530.638 -0.59345 -1.46 0
M  V30 5552 C 532.054 -0.255965 -1.57534 0
M  V30 5553 C 532.254 1.24167 -1.58697 0
M  V30 5554 O 531.31 2.02398 -1.50968 0
M  V30 5555 C 532.623 -0.91466 -2.86451 0
M  V30 5556 C 534.171 -0.889253 -3.00102 0
M  V30 5557 C 534.646 -1.52769 -4.3177 0
M  V30 5558 N 536.137 -1.49253 -4.38495 0
M  V30 5559 C 536.872 -1.9558 -5.39014 0
M  V30 5560 N 536.368 -2.49929 -6.46148 0
M  V30 5561 N 538.161 -1.86432 -5.30282 0
M  V30 5562 H 530.312 -1.56604 -1.43489 0
M  V30 5563 H 532.575 -0.655207 -0.685133 0
M  V30 5564 H 532.281 -1.96861 -2.91442 0
M  V30 5565 H 532.155 -0.429356 -3.74748 0
M  V30 5566 H 534.542 0.156111 -2.94687 0
M  V30 5567 H 534.623 -1.41268 -2.13253 0
M  V30 5568 H 534.267 -2.57231 -4.37944 0
M  V30 5569 H 534.197 -0.979398 -5.17412 0
M  V30 5570 H 536.688 -1.09536 -3.61677 0
M  V30 5571 H 537.001 -2.83109 -7.19075 0
M  V30 5572 H 535.346 -2.53961 -6.46938 0
M  V30 5573 H 538.537 -1.43722 -4.4549 0
M  V30 5574 H 538.71 -2.22852 -6.08474 0
M  V30 5575 N 532.116 1.54067 -0.331816 0
M  V30 5576 C 533.364 2.00319 0.267739 0
M  V30 5577 C 533.685 1.22148 1.52003 0
M  V30 5578 O 532.955 0.325494 1.93177 0
M  V30 5579 H 531.535 0.740014 0.101922 0
M  V30 5580 H 534.197 1.89628 -0.450267 0
M  V30 5581 H 533.293 3.07765 0.518385 0
M  V30 5582 N 533.594 0.0601682 1.57485 0
M  V30 5583 C 534.871 -0.651956 1.84415 0
M  V30 5584 C 535.251 -1.88498 0.950361 0
M  V30 5585 O 534.599 -2.28496 0.0136719 0
M  V30 5586 C 534.809 -1.00069 3.34346 0
M  V30 5587 C 536.157 -1.37915 4.01578 0
M  V30 5588 O 537.181 -1.09277 3.39024 0
M  V30 5589 O 536.04 -1.91399 5.11887 0
M  V30 5590 H 533.134 -0.322668 0.761455 0
M  V30 5591 H 535.68 0.0902159 1.6946 0
M  V30 5592 H 534.452 -0.124463 3.91102 0
M  V30 5593 H 534.075 -1.80001 3.54521 0
M  V30 5594 N 535.072 -1.5615 -0.213296 0
M  V30 5595 C 536.002 -1.96109 -1.26742 0
M  V30 5596 C 536.983 -0.830448 -1.48451 0
M  V30 5597 O 538.168 -1.09339 -1.60495 0
M  V30 5598 C 535.298 -2.28492 -2.61551 0
M  V30 5599 C 534.252 -3.44124 -2.54485 0
M  V30 5600 C 533.578 -3.62134 -3.93399 0
M  V30 5601 C 534.878 -4.78855 -2.08556 0
M  V30 5602 H 536.572 -2.84412 -0.935434 0
M  V30 5603 H 534.118 -1.36836 -0.44854 0
M  V30 5604 H 536.071 -2.55039 -3.3546 0
M  V30 5605 H 534.795 -1.37052 -2.96453 0
M  V30 5606 H 533.454 -3.17639 -1.83033 0
M  V30 5607 H 533.102 -2.68055 -4.25623 0
M  V30 5608 H 532.802 -4.39913 -3.89551 0
M  V30 5609 H 534.326 -3.91038 -4.68958 0
M  V30 5610 H 535.74 -5.04552 -2.72213 0
M  V30 5611 H 534.137 -5.59975 -2.1575 0
M  V30 5612 H 535.207 -4.73657 -1.03811 0
M  V30 5613 N 536.55 0.480323 -1.50102 0
M  V30 5614 C 537.498 1.60024 -1.68805 0
M  V30 5615 C 538.492 1.60089 -0.553888 0
M  V30 5616 O 539.698 1.64349 -0.734127 0
M  V30 5617 H 536.073 0.530841 -0.532646 0
M  V30 5618 H 538.044 1.41408 -2.62767 0
M  V30 5619 C 536.793 2.98029 -1.79092 0
M  V30 5620 H 536.116 2.98694 -2.65748 0
M  V30 5621 H 537.556 3.75871 -1.96206 0
M  V30 5622 C 536.015 3.32538 -0.540388 0
M  V30 5623 O 536.545 4.00386 0.324637 0
M  V30 5624 N 534.751 2.87873 -0.397154 0
M  V30 5625 H 534.298 2.32834 -1.1021 0
M  V30 5626 H 534.256 3.11328 0.438425 0
M  V30 5627 N 538.028 1.39524 0.732853 0
M  V30 5628 C 539.274 1.38072 1.49358 0
M  V30 5629 C 539.629 -0.0227943 1.92386 0
M  V30 5630 O 538.922 -0.98976 1.64056 0
M  V30 5631 C 539.116 2.28916 2.74468 0
M  V30 5632 C 538.945 3.7796 2.43673 0
M  V30 5633 C 537.715 4.46874 2.35863 0
M  V30 5634 C 539.913 4.69886 2.09074 0
M  V30 5635 N 537.895 5.81242 1.97561 0
M  V30 5636 C 539.266 5.9292 1.81234 0
M  V30 5637 C 541.321 4.57887 1.95561 0
M  V30 5638 C 540.024 7.05297 1.41242 0
M  V30 5639 C 542.05 5.70187 1.56972 0
M  V30 5640 C 541.412 6.92297 1.30018 0
M  V30 5641 H 537.511 0.56051 0.5453 0
M  V30 5642 H 540.095 1.75093 0.85151 0
M  V30 5643 H 538.266 1.9405 3.36451 0
M  V30 5644 H 539.998 2.18441 3.40684 0
M  V30 5645 H 536.753 4.00341 2.5303 0
M  V30 5646 H 537.177 6.52356 1.80997 0
M  V30 5647 H 541.819 3.64014 2.15067 0
M  V30 5648 H 539.537 7.99069 1.20476 0
M  V30 5649 H 543.123 5.62892 1.47119 0
M  V30 5650 H 542.003 7.7772 1.00605 0
M  V30 5651 N 539.506 -0.963266 1.24736 0
M  V30 5652 C 540.755 -1.70115 1.08369 0
M  V30 5653 C 541.068 -1.91939 -0.376688 0
M  V30 5654 O 542.274 -2.6334 -0.660624 0
M  V30 5655 C 540.73 -3.06218 1.89099 0
M  V30 5656 C 540.338 -2.92221 3.39574 0
M  V30 5657 C 542.082 -3.83848 1.81275 0
M  V30 5658 C 539.989 -4.23662 4.12631 0
M  V30 5659 H 538.919 -0.637944 0.401924 0
M  V30 5660 H 541.57 -1.07304 1.48856 0
M  V30 5661 H 539.952 -3.69884 1.41429 0
M  V30 5662 H 541.126 -2.37541 3.94856 0
M  V30 5663 H 539.441 -2.28054 3.48397 0
M  V30 5664 H 542.038 -4.81188 2.33158 0
M  V30 5665 H 542.381 -4.08949 0.778895 0
M  V30 5666 H 542.914 -3.26918 2.26649 0
M  V30 5667 H 539.653 -4.03753 5.16395 0
M  V30 5668 H 539.173 -4.78141 3.62135 0
M  V30 5669 H 540.852 -4.92256 4.19873 0
M  V30 5670 N 540.985 -1.06182 -1.16461 0
M  V30 5671 C 541.895 -0.682671 -2.24448 0
M  V30 5672 C 542.911 0.30078 -1.71381 0
M  V30 5673 O 544.087 0.150376 -2.00838 0
M  V30 5674 C 541.152 -0.0737202 -3.46622 0
M  V30 5675 C 540.213 -1.10889 -4.14731 0
M  V30 5676 C 539.446 -0.528908 -5.31073 0
M  V30 5677 O 539.669 0.65868 -5.66584 0
M  V30 5678 O 538.603 -1.26805 -5.88391 0
M  V30 5679 H 542.429 -1.58291 -2.59187 0
M  V30 5680 H 540.014 -0.834013 -1.23954 0
M  V30 5681 H 541.896 0.264192 -4.20571 0
M  V30 5682 H 540.571 0.800015 -3.13658 0
M  V30 5683 H 539.478 -1.49896 -3.42756 0
M  V30 5684 H 540.811 -1.95412 -4.51747 0
M  V30 5685 N 542.463 1.3308 -0.844243 0
M  V30 5686 C 543.693 2.01515 -0.455541 0
M  V30 5687 C 544.101 1.63655 0.949406 0
M  V30 5688 O 543.444 0.84848 1.62931 0
M  V30 5689 C 543.506 3.55967 -0.502801 0
M  V30 5690 C 543.17 4.17222 -1.86481 0
M  V30 5691 C 544.167 4.36205 -2.8288 0
M  V30 5692 C 541.852 4.53528 -2.15911 0
M  V30 5693 C 543.846 4.90649 -4.06869 0
M  V30 5694 C 541.533 5.07679 -3.40155 0
M  V30 5695 C 542.531 5.26186 -4.35451 0
M  V30 5696 O 542.219 5.79183 -5.57496 0
M  V30 5697 H 541.951 0.65199 -0.178565 0
M  V30 5698 H 544.505 1.70867 -1.1399 0
M  V30 5699 H 542.735 3.85965 0.23836 0
M  V30 5700 H 544.424 4.05688 -0.131169 0
M  V30 5701 H 545.19 4.085 -2.61444 0
M  V30 5702 H 541.069 4.38414 -1.42528 0
M  V30 5703 H 544.613 5.0501 -4.81259 0
M  V30 5704 H 540.51 5.34815 -3.61446 0
M  V30 5705 H 541.278 5.97591 -5.5931 0
M  V30 5706 N 543.941 0.601185 1.45683 0
M  V30 5707 C 544.873 -0.159446 2.28645 0
M  V30 5708 C 545.886 -0.837882 1.39583 0
M  V30 5709 O 547.075 -0.704344 1.64016 0
M  V30 5710 C 544.175 -1.24641 3.15147 0
M  V30 5711 C 543.348 -0.656334 4.32448 0
M  V30 5712 C 542.407 -1.63337 5.00208 0
M  V30 5713 O 541.433 -1.16217 5.57209 0
M  V30 5714 N 542.635 -2.96773 4.98905 0
M  V30 5715 H 545.4 0.5524 2.94565 0
M  V30 5716 H 542.961 0.440223 1.558 0
M  V30 5717 H 544.953 -1.8997 3.57342 0
M  V30 5718 H 543.523 -1.86087 2.51178 0
M  V30 5719 H 542.743 0.174879 3.93812 0
M  V30 5720 H 544.031 -0.242211 5.08223 0
M  V30 5721 H 543.429 -3.37662 4.53873 0
M  V30 5722 H 541.986 -3.57541 5.44984 0
M  V30 5723 N 545.419 -1.53889 0.339982 0
M  V30 5724 C 546.835 -1.59595 -0.0120752 0
M  V30 5725 C 547.035 -1.35605 -1.49042 0
M  V30 5726 O 546.091 -1.14856 -2.24865 0
M  V30 5727 C 547.404 -2.9774 0.420898 0
M  V30 5728 C 548.952 -3.1077 0.37294 0
M  V30 5729 C 549.427 -4.51286 0.781327 0
M  V30 5730 N 550.918 -4.57325 0.735374 0
M  V30 5731 C 551.653 -5.64194 1.02336 0
M  V30 5732 N 551.149 -6.7893 1.37933 0
M  V30 5733 N 552.942 -5.54051 0.947838 0
M  V30 5734 H 545.093 -1.67738 1.30299 0
M  V30 5735 H 547.356 -0.785385 0.530918 0
M  V30 5736 H 547.062 -3.20349 1.45152 0
M  V30 5737 H 546.936 -3.76639 -0.205721 0
M  V30 5738 H 549.323 -2.87886 -0.648505 0
M  V30 5739 H 549.404 -2.33939 1.03472 0
M  V30 5740 H 549.048 -4.74905 1.80077 0
M  V30 5741 H 548.978 -5.26511 0.0970679 0
M  V30 5742 H 551.469 -3.74931 0.472773 0
M  V30 5743 H 551.782 -7.56392 1.58402 0
M  V30 5744 H 550.127 -6.80386 1.41774 0
M  V30 5745 H 553.318 -4.63293 0.669115 0
M  V30 5746 H 553.491 -6.37246 1.17563 0
M  V30 5747 N 546.897 -0.0685191 -1.57451 0
M  V30 5748 C 547.86 0.885173 -2.11417 0
M  V30 5749 C 548.86 1.22853 -1.03748 0
M  V30 5750 O 550.05 1.16235 -1.2975 0
M  V30 5751 C 547.182 2.18964 -2.61281 0
M  V30 5752 H 548.375 0.417034 -2.96986 0
M  V30 5753 H 545.928 0.18014 -1.55258 0
M  V30 5754 H 546.663 2.70321 -1.79156 0
M  V30 5755 H 546.448 1.9534 -3.39977 0
M  V30 5756 H 547.938 2.87242 -3.0312 0
M  V30 5757 N 548.375 1.56261 0.205012 0
M  V30 5758 C 549.791 1.49623 0.555433 0
M  V30 5759 C 549.991 0.766719 1.86343 0
M  V30 5760 O 549.047 0.313158 2.50551 0
M  V30 5761 C 550.36 2.94253 0.619347 0
M  V30 5762 C 551.908 3.04868 0.708855 0
M  V30 5763 C 552.383 4.50888 0.803969 0
M  V30 5764 N 553.874 4.54999 0.867758 0
M  V30 5765 C 554.609 5.65284 0.96135 0
M  V30 5766 N 554.105 6.85282 1.01786 0
M  V30 5767 N 555.898 5.53174 0.997771 0
M  V30 5768 H 548.049 2.0211 -0.653094 0
M  V30 5769 H 550.312 0.919333 -0.231366 0
M  V30 5770 H 550.018 3.50643 -0.272458 0
M  V30 5771 H 549.892 3.47063 1.47741 0
M  V30 5772 H 552.279 2.48532 1.5911 0
M  V30 5773 H 552.36 2.55199 -0.175205 0
M  V30 5774 H 552.004 5.07846 -0.0738798 0
M  V30 5775 H 551.934 4.98279 1.70369 0
M  V30 5776 H 554.425 3.68588 0.833735 0
M  V30 5777 H 554.738 7.65081 1.08951 0
M  V30 5778 H 553.083 6.8796 0.986706 0
M  V30 5779 H 556.274 4.5835 0.950392 0
M  V30 5780 H 556.447 6.39151 1.06725 0
M  V30 5781 N 549.853 -0.472356 1.50355 0
M  V30 5782 C 551.1 -1.22453 1.61281 0
M  V30 5783 C 551.428 -1.91972 0.31256 0
M  V30 5784 O 550.683 -1.82696 -0.701475 0
M  V30 5785 C 550.982 -2.29257 2.74182 0
M  V30 5786 C 550.648 -1.76999 4.14708 0
M  V30 5787 C 549.31 -1.62467 4.52944 0
M  V30 5788 C 551.662 -1.38215 5.0254 0
M  V30 5789 C 548.99 -1.07574 5.76754 0
M  V30 5790 C 551.342 -0.847638 6.26895 0
M  V30 5791 C 550.006 -0.688946 6.63935 0
M  V30 5792 H 549.276 -0.448087 0.590168 0
M  V30 5793 H 551.923 -0.520744 1.84284 0
M  V30 5794 H 550.228 -3.05538 2.45263 0
M  V30 5795 H 551.925 -2.87212 2.7984 0
M  V30 5796 H 548.515 -1.89276 3.84542 0
M  V30 5797 H 552.699 -1.48276 4.73633 0
M  V30 5798 H 547.955 -0.940237 6.04127 0
M  V30 5799 H 552.129 -0.538455 6.94315 0
M  V30 5800 H 549.756 -0.261435 7.5975 0
M  V30 5801 N 551.331 -1.39911 -0.725443 0
M  V30 5802 C 552.579 -1.37382 -1.48224 0
M  V30 5803 C 552.9 0.0264107 -1.94982 0
M  V30 5804 O 552.17 0.979408 -1.6966 0
M  V30 5805 H 550.75 -0.505596 -0.549892 0
M  V30 5806 H 553.412 -1.7487 -0.860608 0
M  V30 5807 H 552.508 -2.04254 -2.3598 0
M  V30 5808 N 552.809 0.956637 -1.25245 0
M  V30 5809 C 554.056 1.701 -1.09874 0
M  V30 5810 C 554.384 1.91128 0.36062 0
M  V30 5811 O 553.639 1.47837 1.28229 0
M  V30 5812 C 553.938 3.08996 -1.79601 0
M  V30 5813 C 553.604 3.07774 -3.29523 0
M  V30 5814 C 552.266 3.07149 -3.70423 0
M  V30 5815 C 554.618 3.01257 -4.25316 0
M  V30 5816 C 551.946 2.97752 -5.0553 0
M  V30 5817 C 554.298 2.93403 -5.60444 0
M  V30 5818 C 552.962 2.91111 -6.00675 0
M  V30 5819 H 552.232 0.62244 -0.402056 0
M  V30 5820 H 554.879 1.1178 -1.55491 0
M  V30 5821 H 553.184 3.70848 -1.26408 0
M  V30 5822 H 554.881 3.65407 -1.65162 0
M  V30 5823 H 551.471 3.09032 -2.9698 0
M  V30 5824 H 555.655 3.00861 -3.9471 0
M  V30 5825 H 550.911 2.94346 -5.35883 0
M  V30 5826 H 555.085 2.87321 -6.34366 0
M  V30 5827 H 552.712 2.83586 -7.05325 0
M  V30 5828 N 554.287 1.06798 1.15896 0
M  V30 5829 C 555.25 0.687328 2.18651 0
M  V30 5830 C 556.25 -0.269559 1.58524 0
M  V30 5831 O 557.44 -0.0512627 1.74125 0
M  V30 5832 C 554.572 0.0121642 3.40898 0
M  V30 5833 H 555.765 1.59701 2.53842 0
M  V30 5834 H 553.318 0.863828 1.3026 0
M  V30 5835 H 554.053 -0.910025 3.1127 0
M  V30 5836 H 553.838 0.700309 3.85795 0
M  V30 5837 H 555.328 -0.239703 4.16911 0
M  V30 5838 N 555.766 -1.3263 0.851289 0
M  V30 5839 C 557.043 -1.91982 0.374448 0
M  V30 5840 C 557.423 -1.77568 -1.14161 0
M  V30 5841 O 556.771 -1.1717 -1.96172 0
M  V30 5842 C 556.981 -3.38862 0.835088 0
M  V30 5843 C 558.329 -4.15999 0.850309 0
M  V30 5844 O 559.353 -3.47566 0.779505 0
M  V30 5845 O 558.212 -5.38189 0.949481 0
M  V30 5846 H 555.306 -0.819846 0.10854 0
M  V30 5847 H 557.852 -1.41422 0.937966 0
M  V30 5848 H 556.624 -3.43281 1.87814 0
M  V30 5849 H 556.247 -3.96821 0.248833 0
M  V30 5850 N 557.244 -0.608902 -1.45362 0
M  V30 5851 C 558.154 0.110969 -2.34337 0
M  V30 5852 C 559.17 0.859007 -1.51318 0
M  V30 5853 O 560.346 0.816296 -1.84116 0
M  V30 5854 C 557.411 1.09494 -3.28956 0
M  V30 5855 C 556.472 0.348718 -4.27881 0
M  V30 5856 C 555.705 1.28582 -5.17979 0
M  V30 5857 O 555.928 2.52369 -5.11533 0
M  V30 5858 O 554.862 0.782172 -5.96796 0
M  V30 5859 H 558.688 -0.620258 -2.97299 0
M  V30 5860 H 556.273 -0.36916 -1.44767 0
M  V30 5861 H 558.155 1.66163 -3.87257 0
M  V30 5862 H 556.83 1.80717 -2.68557 0
M  V30 5863 H 555.737 -0.260465 -3.73192 0
M  V30 5864 H 557.07 -0.323049 -4.91139 0
M  V30 5865 N 558.722 1.53707 -0.348139 0
M  V30 5866 C 559.652 2.28111 0.498766 0
M  V30 5867 C 560.633 1.29851 1.09876 0
M  V30 5868 O 561.818 1.587 1.11928 0
M  V30 5869 C 558.948 3.05735 1.64753 0
M  V30 5870 C 557.902 4.11537 1.17565 0
M  V30 5871 C 557.228 4.77142 2.4133 0
M  V30 5872 C 558.528 5.21587 0.272844 0
M  V30 5873 H 560.222 2.99152 -0.121934 0
M  V30 5874 H 557.768 1.43875 -0.0600842 0
M  V30 5875 H 559.721 3.56526 2.24649 0
M  V30 5876 H 558.445 2.32354 2.2952 0
M  V30 5877 H 557.104 3.61665 0.599483 0
M  V30 5878 H 556.752 4.0035 3.04514 0
M  V30 5879 H 556.452 5.48626 2.10436 0
M  V30 5880 H 557.976 5.30719 3.01943 0
M  V30 5881 H 559.39 5.67986 0.778779 0
M  V30 5882 H 557.787 6.00074 0.0555849 0
M  V30 5883 H 558.857 4.79969 -0.689785 0
M  V30 5884 N 560.2 0.0768682 1.57412 0
M  V30 5885 C 561.448 -0.589918 1.93299 0
M  V30 5886 C 561.769 -1.69842 0.958049 0
M  V30 5887 O 561.039 -1.95899 0.00703261 0
M  V30 5888 H 559.619 -0.220901 0.713591 0
M  V30 5889 H 562.281 0.135917 1.94425 0
M  V30 5890 H 561.377 -1.01195 2.95239 0
M  V30 5891 N 561.678 -1.56367 -0.196722 0
M  V30 5892 C 562.925 -1.80529 -0.917366 0
M  V30 5893 C 563.253 -0.649817 -1.83324 0
M  V30 5894 O 562.508 0.36451 -1.92275 0
M  V30 5895 C 562.807 -3.10663 -1.767 0
M  V30 5896 C 562.473 -4.3962 -1.00225 0
M  V30 5897 C 561.135 -4.74653 -0.791095 0
M  V30 5898 C 563.487 -5.1913 -0.464035 0
M  V30 5899 C 560.815 -5.86692 -0.0302155 0
M  V30 5900 C 563.167 -6.31964 0.283625 0
M  V30 5901 C 561.831 -6.65581 0.505813 0
M  V30 5902 H 561.101 -0.660602 -0.335688 0
M  V30 5903 H 563.748 -1.90615 -0.183844 0
M  V30 5904 H 562.053 -2.95807 -2.56915 0
M  V30 5905 H 563.75 -3.26563 -2.32718 0
M  V30 5906 H 560.34 -4.12127 -1.17684 0
M  V30 5907 H 564.524 -4.9248 -0.614575 0
M  V30 5908 H 559.78 -6.11211 0.151917 0
M  V30 5909 H 563.954 -6.92791 0.708057 0
M  V30 5910 H 561.581 -7.52239 1.0973 0
M  V30 5911 N 563.156 0.464375 -1.50603 0
M  V30 5912 C 564.089 1.58052 -1.64605 0
M  V30 5913 C 565.067 1.54914 -0.494016 0
M  V30 5914 O 566.251 1.74438 -0.714393 0
M  V30 5915 C 563.378 2.96634 -1.63481 0
M  V30 5916 C 562.424 3.17901 -2.84325 0
M  V30 5917 S 563.257 2.97083 -4.45536 0
M  V30 5918 C 564.413 4.37994 -4.47115 0
M  V30 5919 H 564.646 1.45937 -2.59017 0
M  V30 5920 H 562.179 0.652189 -1.39949 0
M  V30 5921 H 564.137 3.76527 -1.63517 0
M  V30 5922 H 562.798 3.06134 -0.702928 0
M  V30 5923 H 561.991 4.19158 -2.79862 0
M  V30 5924 H 561.593 2.45792 -2.81891 0
M  V30 5925 H 563.885 5.30743 -4.21091 0
M  V30 5926 H 564.828 4.47499 -5.48772 0
M  V30 5927 H 565.236 4.20386 -3.76743 0
M  V30 5928 N 564.634 1.40294 0.718013 0
M  V30 5929 C 565.862 1.4175 1.50714 0
M  V30 5930 C 566.277 0.0165366 1.88793 0
M  V30 5931 O 565.634 -0.958942 1.55276 0
M  V30 5932 C 565.685 2.30598 2.784 0
M  V30 5933 O 565.406 3.6524 2.41932 0
M  V30 5934 C 566.907 2.4062 3.72313 0
M  V30 5935 H 564.127 0.483565 0.465194 0
M  V30 5936 H 566.671 1.84316 0.885889 0
M  V30 5937 H 564.826 1.91401 3.36815 0
M  V30 5938 H 565.24 4.12402 3.24076 0
M  V30 5939 H 566.714 3.07001 4.58753 0
M  V30 5940 H 567.191 1.4305 4.15251 0
M  V30 5941 H 567.797 2.80359 3.19811 0
M  V30 5942 N 566.112 -0.949982 1.2575 0
M  V30 5943 C 567.358 -1.69766 1.10938 0
M  V30 5944 C 567.691 -1.91056 -0.348028 0
M  V30 5945 O 566.966 -1.48488 -1.25625 0
M  V30 5946 C 567.249 -3.07779 1.86933 0
M  V30 5947 C 567.102 -2.9387 3.4053 0
M  V30 5948 C 568.421 -4.07749 1.65616 0
M  V30 5949 H 565.54 -0.616144 0.404396 0
M  V30 5950 H 568.182 -1.10394 1.54639 0
M  V30 5951 H 566.332 -3.58462 1.4979 0
M  V30 5952 H 568.004 -2.50476 3.87375 0
M  V30 5953 H 566.247 -2.29686 3.68004 0
M  V30 5954 H 566.918 -3.91719 3.88922 0
M  V30 5955 H 569.394 -3.65994 1.97959 0
M  V30 5956 H 568.27 -5.02348 2.21218 0
M  V30 5957 H 568.531 -4.38029 0.598595 0
M  V30 5958 N 567.59 -1.07411 -1.15328 0
M  V30 5959 C 569.001 -0.820261 -1.67716 0
M  V30 5960 C 569.352 0.654539 -1.8496 0
M  V30 5961 O 568.477 1.50664 -1.55337 0
M  V30 5962 C 569.072 -1.48242 -3.04647 0
M  V30 5963 C 567.631 -1.27606 -3.5411 0
M  V30 5964 C 566.778 -1.5517 -2.29821 0
M  V30 5965 H 569.729 -1.23608 -0.995332 0
M  V30 5966 H 569.75 -0.903984 -3.69606 0
M  V30 5967 H 569.262 -2.55578 -2.92064 0
M  V30 5968 H 567.363 -0.222948 -3.71932 0
M  V30 5969 H 567.476 -1.99667 -4.35511 0
M  V30 5970 H 565.84 -0.972747 -2.35393 0
M  V30 5971 H 566.623 -2.63689 -2.19824 0
M  V30 5972 N 569.068 1.32177 -0.85831 0
M  V30 5973 C 570.317 1.96392 -0.459689 0
M  V30 5974 C 570.63 1.68659 0.990632 0
M  V30 5975 O 571.836 2.26641 1.49485 0
M  V30 5976 C 570.292 3.51542 -0.7711 0
M  V30 5977 C 569.9 3.8813 -2.2374 0
M  V30 5978 C 571.644 4.2221 -0.44038 0
M  V30 5979 C 569.551 5.36341 -2.49183 0
M  V30 5980 H 568.481 0.735007 -0.168169 0
M  V30 5981 H 571.132 1.50518 -1.0496 0
M  V30 5982 H 569.514 3.95846 -0.11058 0
M  V30 5983 H 570.688 3.54824 -2.94001 0
M  V30 5984 H 569.003 3.30497 -2.533 0
M  V30 5985 H 571.6 5.31234 -0.607855 0
M  V30 5986 H 571.943 4.11683 0.618291 0
M  V30 5987 H 572.476 3.83502 -1.05695 0
M  V30 5988 H 569.215 5.51892 -3.53689 0
M  V30 5989 H 568.735 5.7104 -1.83504 0
M  V30 5990 H 570.414 6.03466 -2.33318 0
M  V30 5991 N 570.547 0.616602 1.45037 0
M  V30 5992 C 571.794 0.115331 2.02171 0
M  V30 5993 C 572.122 -1.25748 1.48383 0
M  V30 5994 O 571.377 -1.84511 0.652229 0
M  V30 5995 C 571.676 0.0356829 3.57382 0
M  V30 5996 C 571.342 1.34535 4.30362 0
M  V30 5997 C 570.004 1.70408 4.50016 0
M  V30 5998 C 572.356 2.21049 4.72003 0
M  V30 5999 C 569.684 2.92529 5.0857 0
M  V30 6000 C 572.036 3.42427 5.31908 0
M  V30 6001 C 570.7 3.78541 5.49784 0
M  V30 6002 H 569.97 0.0422024 0.739797 0
M  V30 6003 H 572.617 0.80002 1.73988 0
M  V30 6004 H 570.922 -0.732314 3.84895 0
M  V30 6005 H 572.619 -0.368463 3.99304 0
M  V30 6006 H 569.209 1.05615 4.15383 0
M  V30 6007 H 573.393 1.94632 4.56544 0
M  V30 6008 H 568.649 3.20605 5.20598 0
M  V30 6009 H 572.823 4.09709 5.63127 0
M  V30 6010 H 570.45 4.73255 5.94923 0
M  V30 6011 N 572.025 -1.5352 0.356285 0
M  V30 6012 C 573.302 -1.93405 -0.292223 0
M  V30 6013 C 573.682 -1.28901 -1.67176 0
M  V30 6014 O 573.03 -0.444632 -2.24132 0
M  V30 6015 C 573.24 -3.47223 -0.35175 0
M  V30 6016 C 574.588 -4.20389 -0.596534 0
M  V30 6017 O 575.612 -3.53554 -0.433344 0
M  V30 6018 O 574.471 -5.3881 -0.913589 0
M  V30 6019 H 571.565 -0.808666 -0.173172 0
M  V30 6020 H 574.111 -1.64713 0.408391 0
M  V30 6021 H 572.883 -3.86423 0.615841 0
M  V30 6022 H 572.506 -3.8212 -1.09864 0
M  V30 6023 N 573.503 -0.0852151 -1.57369 0
M  V30 6024 C 574.914 0.445428 -1.81309 0
M  V30 6025 C 575.265 1.68795 -1.00013 0
M  V30 6026 O 574.39 2.15211 -0.226573 0
M  V30 6027 C 574.985 0.814887 -3.28854 0
M  V30 6028 C 573.544 1.29032 -3.53592 0
M  V30 6029 C 572.691 0.282089 -2.75861 0
M  V30 6030 H 575.642 -0.310771 -1.55627 0
M  V30 6031 H 575.663 1.67524 -3.41637 0
M  V30 6032 H 575.175 -0.0896309 -3.87996 0
M  V30 6033 H 573.276 2.21289 -2.9977 0
M  V30 6034 H 573.389 1.25898 -4.62262 0
M  V30 6035 H 571.753 0.762182 -2.43029 0
M  V30 6036 H 572.536 -0.614936 -3.37748 0
M  V30 6037 N 574.981 1.5647 0.188427 0
M  V30 6038 C 576.397 1.50204 0.539532 0
M  V30 6039 C 576.597 0.78644 1.85519 0
M  V30 6040 O 575.653 0.339714 2.50204 0
M  V30 6041 C 576.966 2.94893 0.588103 0
M  V30 6042 C 578.514 3.05602 0.67648 0
M  V30 6043 C 578.989 4.51716 0.756101 0
M  V30 6044 N 580.48 4.55894 0.819451 0
M  V30 6045 C 581.215 5.66272 0.90134 0
M  V30 6046 N 580.711 6.86323 0.945118 0
M  V30 6047 N 582.504 5.54201 0.939043 0
M  V30 6048 H 574.655 2.01406 -0.674493 0
M  V30 6049 H 576.918 0.916828 -0.241103 0
M  V30 6050 H 576.624 3.50334 -0.309633 0
M  V30 6051 H 576.498 3.4861 1.44051 0
M  V30 6052 H 578.885 2.50206 1.56465 0
M  V30 6053 H 578.966 2.54999 -0.202262 0
M  V30 6054 H 578.61 5.07739 -0.12774 0
M  V30 6055 H 578.54 5.00058 1.65074 0
M  V30 6056 H 581.031 3.69452 0.794594 0
M  V30 6057 H 581.344 7.66194 1.0083 0
M  V30 6058 H 579.689 6.88968 0.913683 0
M  V30 6059 H 582.88 4.59333 0.901725 0
M  V30 6060 H 583.053 6.40247 0.999402 0
M  V30 6061 N 576.459 -0.456382 1.50847 0
M  V30 6062 C 577.687 -1.23026 1.66349 0
M  V30 6063 C 578.102 -1.85473 0.352868 0
M  V30 6064 O 577.459 -1.69885 -0.666739 0
M  V30 6065 C 577.51 -2.32827 2.76539 0
M  V30 6066 O 577.231 -1.72938 4.02522 0
M  V30 6067 C 578.732 -3.23448 3.03144 0
M  V30 6068 H 575.952 -0.371527 0.558756 0
M  V30 6069 H 578.496 -0.543082 1.97157 0
M  V30 6070 H 576.651 -2.97294 2.48384 0
M  V30 6071 H 577.065 -2.45357 4.63573 0
M  V30 6072 H 578.539 -3.96669 3.83872 0
M  V30 6073 H 579.016 -3.83094 2.14793 0
M  V30 6074 H 579.622 -2.64702 3.32886 0
M  V30 6075 N 577.937 -1.40673 -0.710563 0
M  V30 6076 C 579.185 -1.38947 -1.46759 0
M  V30 6077 C 579.506 0.00572879 -1.94999 0
M  V30 6078 O 578.776 0.961358 -1.70689 0
M  V30 6079 H 577.356 -0.5114 -0.544499 0
M  V30 6080 H 580.018 -1.75773 -0.842012 0
M  V30 6081 H 579.114 -2.06745 -2.33801 0
M  V30 6082 N 579.415 0.9433 -1.26252 0
M  V30 6083 C 580.663 1.68592 -1.11451 0
M  V30 6084 C 580.984 1.91957 0.343123 0
M  V30 6085 O 580.254 1.51475 1.24226 0
M  V30 6086 H 578.834 0.624789 -0.409448 0
M  V30 6087 H 581.496 1.13351 -1.58548 0
M  V30 6088 H 580.592 2.66054 -1.63162 0
M  V30 6089 N 580.893 1.08022 1.14757 0
M  V30 6090 C 582.118 0.82895 1.90114 0
M  V30 6091 C 582.543 -0.612772 1.77839 0
M  V30 6092 O 581.901 -1.42895 1.11583 0
M  V30 6093 C 581.949 1.25062 3.38219 0
M  V30 6094 O 581.053 0.400119 4.10454 0
M  V30 6095 H 580.394 0.301412 0.591648 0
M  V30 6096 H 582.924 1.44062 1.45284 0
M  V30 6097 H 582.934 1.22977 3.89025 0
M  V30 6098 H 581.609 2.30067 3.46471 0
M  V30 6099 H 580.186 0.484052 3.69745 0
M  V30 6100 N 582.371 -1.3172 0.865308 0
M  V30 6101 C 583.619 -1.96487 0.472995 0
M  V30 6102 C 583.94 -1.68761 -0.976975 0
M  V30 6103 O 583.21 -1.00051 -1.68424 0
M  V30 6104 H 581.79 -0.726947 0.171922 0
M  V30 6105 H 584.452 -1.60612 1.10407 0
M  V30 6106 H 583.548 -3.0574 0.62687 0
M  V30 6107 N 583.85 -0.624285 -1.44708 0
M  V30 6108 C 585.077 -0.132919 -2.06473 0
M  V30 6109 C 585.493 1.18967 -1.46602 0
M  V30 6110 O 584.85 1.72824 -0.586341 0
M  V30 6111 C 584.901 -0.00465418 -3.615 0
M  V30 6112 O 584.622 -1.27494 -4.19138 0
M  V30 6113 C 586.123 0.516213 -4.40284 0
M  V30 6114 H 583.343 -0.0765201 -0.666623 0
M  V30 6115 H 585.887 -0.856751 -1.85688 0
M  V30 6116 H 584.042 0.669583 -3.8157 0
M  V30 6117 H 584.456 -1.11536 -5.12504 0
M  V30 6118 H 585.93 0.554994 -5.49203 0
M  V30 6119 H 586.407 1.5419 -4.11245 0
M  V30 6120 H 587.013 -0.124542 -4.25118 0
M  V30 6121 N 585.328 1.53329 -0.364422 0
M  V30 6122 C 586.258 2.28627 0.474543 0
M  V30 6123 C 587.239 1.31009 1.08492 0
M  V30 6124 O 588.424 1.59878 1.10239 0
M  V30 6125 C 585.554 3.07465 1.61501 0
M  V30 6126 C 584.508 4.1276 1.13194 0
M  V30 6127 C 583.834 4.79674 2.36255 0
M  V30 6128 C 585.134 5.21847 0.217507 0
M  V30 6129 H 586.828 2.99005 -0.153656 0
M  V30 6130 H 584.374 1.43803 -0.0753406 0
M  V30 6131 H 586.327 3.58889 2.20855 0
M  V30 6132 H 585.051 2.34775 2.27042 0
M  V30 6133 H 583.71 3.62281 0.56109 0
M  V30 6134 H 583.358 4.03557 3.00251 0
M  V30 6135 H 583.058 5.50827 2.04606 0
M  V30 6136 H 584.582 5.33892 2.96297 0
M  V30 6137 H 585.996 5.6878 0.718493 0
M  V30 6138 H 584.393 6.00099 -0.00806408 0
M  V30 6139 H 585.463 4.7921 -0.740653 0
M  V30 6140 N 586.806 0.0935595 1.57322 0
M  V30 6141 C 587.736 -0.863062 2.16964 0
M  V30 6142 C 588.717 -1.29528 1.10256 0
M  V30 6143 O 589.902 -1.36245 1.38387 0
M  V30 6144 C 587.032 -2.12276 2.74875 0
M  V30 6145 C 585.986 -1.82921 3.86942 0
M  V30 6146 C 585.312 -3.15707 4.31548 0
M  V30 6147 C 586.612 -1.11737 5.10208 0
M  V30 6148 H 588.306 -0.366145 2.97153 0
M  V30 6149 H 585.852 -0.174673 1.42937 0
M  V30 6150 H 587.805 -2.79634 3.1525 0
M  V30 6151 H 586.529 -2.64248 1.91938 0
M  V30 6152 H 585.188 -1.17961 3.47103 0
M  V30 6153 H 584.836 -3.65563 3.45504 0
M  V30 6154 H 584.536 -2.96849 5.07104 0
M  V30 6155 H 586.06 -3.84226 4.74555 0
M  V30 6156 H 587.474 -1.69203 5.47762 0
M  V30 6157 H 585.871 -1.03064 5.91183 0
M  V30 6158 H 586.941 -0.0998818 4.84797 0
M  V30 6159 N 588.284 -1.56567 -0.180126 0
M  V30 6160 C 589.247 -1.94852 -1.20686 0
M  V30 6161 C 590.247 -0.831212 -1.3765 0
M  V30 6162 O 591.437 -1.09841 -1.35206 0
M  V30 6163 C 588.569 -2.23565 -2.57355 0
M  V30 6164 H 589.762 -2.86722 -0.879225 0
M  V30 6165 H 587.315 -1.50489 -0.422237 0
M  V30 6166 H 588.05 -1.34381 -2.95148 0
M  V30 6167 H 587.835 -3.04999 -2.46411 0
M  V30 6168 H 589.325 -2.54137 -3.31367 0
M  V30 6169 N 589.762 0.448376 -1.51087 0
M  V30 6170 C 590.992 1.21965 -1.66757 0
M  V30 6171 C 591.4 1.85748 -0.359753 0
M  V30 6172 O 590.743 1.71022 0.670604 0
M  V30 6173 C 590.805 2.35284 -2.71812 0
M  V30 6174 C 590.469 1.91957 -4.1473 0
M  V30 6175 C 591.466 1.42921 -4.9987 0
M  V30 6176 C 589.151 1.99985 -4.60772 0
M  V30 6177 C 591.145 1.02485 -6.29107 0
M  V30 6178 C 588.832 1.5916 -5.90009 0
M  V30 6179 C 589.83 1.10491 -6.74004 0
M  V30 6180 O 589.518 0.702413 -8.00825 0
M  V30 6181 H 589.25 0.374125 -0.563034 0
M  V30 6182 H 591.804 0.538927 -1.98204 0
M  V30 6183 H 590.034 3.06599 -2.35657 0
M  V30 6184 H 591.723 2.97184 -2.76472 0
M  V30 6185 H 592.489 1.36123 -4.65506 0
M  V30 6186 H 588.368 2.36814 -3.95525 0
M  V30 6187 H 591.912 0.644271 -6.94619 0
M  V30 6188 H 587.809 1.65626 -6.2389 0
M  V30 6189 H 588.577 0.829248 -8.14288 0
M  V30 6190 N 591.24 1.41047 0.703093 0
M  V30 6191 C 592.187 1.42302 1.81711 0
M  V30 6192 C 593.157 0.278336 1.63751 0
M  V30 6193 O 594.342 0.478266 1.84709 0
M  V30 6194 C 591.482 1.30362 3.19531 0
M  V30 6195 C 590.595 2.54638 3.48975 0
M  V30 6196 C 589.73 2.35047 4.76368 0
M  V30 6197 C 588.769 3.54837 4.98756 0
M  V30 6198 N 587.906 3.34363 6.1737 0
M  V30 6199 H 592.746 2.37516 1.79973 0
M  V30 6200 H 590.283 1.1795 0.878983 0
M  V30 6201 H 592.241 1.21443 3.99134 0
M  V30 6202 H 590.871 0.387602 3.20464 0
M  V30 6203 H 589.923 2.74037 2.63833 0
M  V30 6204 H 591.235 3.43766 3.61423 0
M  V30 6205 H 590.389 2.23552 5.64012 0
M  V30 6206 H 589.128 1.43363 4.66153 0
M  V30 6207 H 588.133 3.66795 4.09563 0
M  V30 6208 H 589.358 4.47464 5.10835 0
M  V30 6209 H 587.304 2.45373 6.08382 0
M  V30 6210 H 587.221 4.17063 6.30551 0
M  V30 6211 H 588.489 3.26626 7.07768 0
M  V30 6212 N 592.718 -0.936591 1.26751 0
M  V30 6213 C 594.129 -1.49816 1.1141 0
M  V30 6214 C 594.48 -1.9383 -0.304015 0
M  V30 6215 O 593.605 -1.80346 -1.196 0
M  V30 6216 C 594.2 -2.72271 2.01629 0
M  V30 6217 C 592.759 -3.2468 1.9042 0
M  V30 6218 C 591.906 -1.97444 1.94708 0
M  V30 6219 H 594.857 -0.751604 1.39773 0
M  V30 6220 H 594.878 -3.46741 1.56688 0
M  V30 6221 H 594.39 -2.40205 3.04833 0
M  V30 6222 H 592.491 -3.61525 0.901674 0
M  V30 6223 H 592.604 -3.91476 2.76195 0
M  V30 6224 H 590.968 -2.13545 1.38818 0
M  V30 6225 H 591.751 -1.67703 2.9955 0
M  V30 6226 N 594.196 -1.08629 -1.14182 0
M  V30 6227 C 595.128 -0.676189 -2.18998 0
M  V30 6228 C 596.141 0.277871 -1.60411 0
M  V30 6229 O 597.33 0.0651771 -1.78381 0
M  V30 6230 C 594.43 0.0254916 -3.3889 0
M  V30 6231 C 593.603 -0.948039 -4.27002 0
M  V30 6232 C 592.662 -0.281268 -5.25448 0
M  V30 6233 O 591.688 -0.926378 -5.61611 0
M  V30 6234 N 592.89 0.967923 -5.72374 0
M  V30 6235 H 595.655 -1.57792 -2.54798 0
M  V30 6236 H 593.216 -0.972665 -1.29425 0
M  V30 6237 H 595.208 0.482554 -4.01813 0
M  V30 6238 H 593.778 0.829348 -3.01398 0
M  V30 6239 H 592.998 -1.58388 -3.6098 0
M  V30 6240 H 594.286 -1.60765 -4.82734 0
M  V30 6241 H 593.684 1.51175 -5.45126 0
M  V30 6242 H 592.241 1.36844 -6.37273 0
M  V30 6243 N 595.674 1.31259 -0.872281 0
M  V30 6244 C 596.922 1.96233 -0.483409 0
M  V30 6245 C 597.243 1.69276 0.968012 0
M  V30 6246 O 596.513 1.00943 1.67891 0
M  V30 6247 H 595.093 0.726025 -0.175774 0
M  V30 6248 H 597.755 1.60024 -1.11258 0
M  V30 6249 H 596.851 3.05403 -0.643075 0
M  V30 6250 N 597.152 0.631951 1.44375 0
M  V30 6251 C 598.115 -0.0628142 2.29114 0
M  V30 6252 C 599.115 -0.771494 1.41084 0
M  V30 6253 O 600.305 -0.615959 1.62947 0
M  V30 6254 C 597.437 -1.09953 3.22681 0
M  V30 6255 H 598.63 0.682509 2.92031 0
M  V30 6256 H 596.183 0.392128 1.51301 0
M  V30 6257 H 596.918 -1.87481 2.64616 0
M  V30 6258 H 596.703 -0.595286 3.87555 0
M  V30 6259 H 598.193 -1.58538 3.86336 0
M  V30 6260 N 598.631 -1.53133 0.372548 0
M  V30 6261 C 599.594 -2.24569 -0.458389 0
M  V30 6262 C 600.594 -1.25603 -1.00402 0
M  V30 6263 O 601.784 -1.49827 -0.888672 0
M  V30 6264 C 598.916 -2.98783 -1.6414 0
M  V30 6265 H 600.109 -2.99436 0.166799 0
M  V30 6266 H 597.662 -1.55805 0.124357 0
M  V30 6267 H 598.397 -2.28176 -2.30448 0
M  V30 6268 H 598.182 -3.71404 -1.25704 0
M  V30 6269 H 599.672 -3.53068 -2.23008 0
M  V30 6270 N 600.109 -0.101901 -1.5727 0
M  V30 6271 C 601.072 0.840129 -2.13247 0
M  V30 6272 C 602.072 1.20625 -1.06331 0
M  V30 6273 O 603.262 1.13456 -1.32186 0
M  V30 6274 C 600.394 2.13372 -2.65867 0
M  V30 6275 H 601.587 0.353945 -2.97804 0
M  V30 6276 H 599.14 0.147167 -1.55606 0
M  V30 6277 H 599.875 2.66461 -1.84849 0
M  V30 6278 H 599.66 1.88085 -3.44044 0
M  V30 6279 H 601.15 2.80748 -3.09145 0
M  V30 6280 N 601.587 1.56661 0.17182 0
M  V30 6281 C 602.519 1.92934 1.2373 0
M  V30 6282 C 603.532 0.822385 1.40502 0
M  V30 6283 O 604.721 1.10083 1.40514 0
M  V30 6284 C 601.821 2.16651 2.60607 0
M  V30 6285 C 600.994 3.47878 2.6514 0
M  V30 6286 C 600.053 3.60429 3.83377 0
M  V30 6287 O 599.079 4.33051 3.69398 0
M  V30 6288 N 600.281 2.95241 4.99813 0
M  V30 6289 H 603.046 2.84931 0.929205 0
M  V30 6290 H 600.607 1.5781 0.361588 0
M  V30 6291 H 602.599 2.22312 3.38171 0
M  V30 6292 H 601.169 1.3104 2.83809 0
M  V30 6293 H 600.389 3.53879 1.73675 0
M  V30 6294 H 601.677 4.34232 2.6518 0
M  V30 6295 H 601.075 2.3611 5.14071 0
M  V30 6296 H 599.632 3.06499 5.75241 0
M  V30 6297 N 603.065 -0.440357 1.51323 0
M  V30 6298 C 604.028 -1.51679 1.71832 0
M  V30 6299 C 605.028 -1.49648 0.588386 0
M  V30 6300 O 606.218 -1.51724 0.855891 0
M  V30 6301 C 603.35 -2.91228 1.77199 0
M  V30 6302 H 604.543 -1.34799 2.67898 0
M  V30 6303 H 602.096 -0.66883 1.41267 0
M  V30 6304 H 602.831 -3.13516 0.829363 0
M  V30 6305 H 602.616 -2.94107 2.59314 0
M  V30 6306 H 604.106 -3.69321 1.94915 0
M  V30 6307 N 604.543 -1.41418 -0.695603 0
M  V30 6308 C 605.954 -1.36335 -1.27552 0
M  V30 6309 C 606.305 -0.0464336 -1.96145 0
M  V30 6310 O 605.43 0.855304 -1.9878 0
M  V30 6311 C 606.025 -2.46941 -2.3196 0
M  V30 6312 C 604.584 -2.45256 -2.85529 0
M  V30 6313 C 603.731 -2.2679 -1.59566 0
M  V30 6314 H 606.682 -1.50934 -0.490362 0
M  V30 6315 H 606.703 -2.15997 -3.1325 0
M  V30 6316 H 606.215 -3.42775 -1.82008 0
M  V30 6317 H 604.316 -1.53179 -3.39657 0
M  V30 6318 H 604.429 -3.41565 -3.35961 0
M  V30 6319 H 602.793 -1.74667 -1.85374 0
M  V30 6320 H 603.576 -3.24651 -1.1161 0
M  V30 6321 N 606.021 0.929856 -1.27246 0
M  V30 6322 C 607.267 1.6798 -1.13625 0
M  V30 6323 C 607.6 1.91586 0.317589 0
M  V30 6324 O 606.875 1.50467 1.23247 0
M  V30 6325 C 607.158 3.04766 -1.91806 0
M  V30 6326 C 607.011 2.88415 -3.45162 0
M  V30 6327 C 608.33 4.05063 -1.72082 0
M  V30 6328 H 605.449 0.609632 -0.414147 0
M  V30 6329 H 608.091 1.0792 -1.56376 0
M  V30 6330 H 606.241 3.56034 -1.55474 0
M  V30 6331 H 607.913 2.44282 -3.91311 0
M  V30 6332 H 606.156 2.23802 -3.71611 0
M  V30 6333 H 606.827 3.85482 -3.95105 0
M  V30 6334 H 609.303 3.62798 -2.03757 0
M  V30 6335 H 608.179 4.98765 -2.29182 0
M  V30 6336 H 608.44 4.37021 -0.668206 0
M  V30 6337 N 607.499 1.09233 1.13605 0
M  V30 6338 C 608.724 0.849067 1.89224 0
M  V30 6339 C 609.149 -0.593875 1.78479 0
M  V30 6340 O 608.507 -1.41703 1.13092 0
M  V30 6341 C 608.555 1.28642 3.36873 0
M  V30 6342 O 607.659 0.44363 4.10007 0
M  V30 6343 H 607 0.30767 0.588417 0
M  V30 6344 H 609.53 1.45595 1.43748 0
M  V30 6345 H 609.54 1.27096 3.87699 0
M  V30 6346 H 608.215 2.33729 3.44011 0
M  V30 6347 H 606.792 0.523241 3.69211 0
M  V30 6348 N 608.977 -1.30795 0.87923 0
M  V30 6349 C 609.94 -2.26563 0.346676 0
M  V30 6350 C 610.94 -1.52578 -0.507597 0
M  V30 6351 O 612.13 -1.71318 -0.315575 0
M  V30 6352 C 609.262 -3.37115 -0.506611 0
M  V30 6353 H 610.455 -2.75183 1.19223 0
M  V30 6354 H 608.008 -1.41886 0.655598 0
M  V30 6355 H 608.743 -2.93802 -1.37299 0
M  V30 6356 H 608.528 -3.91959 0.105218 0
M  V30 6357 H 610.018 -4.08412 -0.871192 0
M  V30 6358 N 610.455 -0.639598 -1.44038 0
M  V30 6359 C 611.866 -0.228866 -1.85292 0
M  V30 6360 C 612.217 1.22161 -1.53529 0
M  V30 6361 O 611.342 1.93064 -0.977518 0
M  V30 6362 C 611.937 -0.408592 -3.36327 0
M  V30 6363 C 610.496 -0.0522953 -3.76364 0
M  V30 6364 C 609.643 -0.717959 -2.67844 0
M  V30 6365 H 612.594 -0.844194 -1.34384 0
M  V30 6366 H 612.615 0.349968 -3.78887 0
M  V30 6367 H 612.127 -1.46435 -3.59414 0
M  V30 6368 H 610.228 1.0014 -3.58891 0
M  V30 6369 H 610.341 -0.468261 -4.76806 0
M  V30 6370 H 608.705 -0.152459 -2.54243 0
M  V30 6371 H 609.488 -1.77648 -2.93762 0
M  V30 6372 N 611.933 1.52934 -0.380664 0
M  V30 6373 C 612.896 2.24809 0.446473 0
M  V30 6374 C 613.896 1.26133 0.997347 0
M  V30 6375 O 615.086 1.50297 0.880714 0
M  V30 6376 C 612.218 2.99649 1.62553 0
M  V30 6377 H 613.411 2.99343 -0.182677 0
M  V30 6378 H 610.964 1.55736 -0.132618 0
M  V30 6379 H 611.699 2.29395 2.29235 0
M  V30 6380 H 611.484 3.72066 1.23732 0
M  V30 6381 H 612.974 3.54246 2.21133 0
M  V30 6382 N 613.412 0.11024 1.57214 0
M  V30 6383 C 614.375 -0.828808 2.1369 0
M  V30 6384 C 615.375 -1.20059 1.06969 0
M  V30 6385 O 616.565 -1.12754 1.32786 0
M  V30 6386 C 613.697 -2.11959 2.66994 0
M  V30 6387 H 614.89 -0.338146 2.97988 0
M  V30 6388 H 612.443 -0.138913 1.55681 0
M  V30 6389 H 613.178 -2.65476 1.8626 0
M  V30 6390 H 612.963 -1.86258 3.45037 0
M  V30 6391 H 614.453 -2.79105 3.10629 0
M  V30 6392 N 614.89 -1.56749 -0.16351 0
M  V30 6393 C 615.853 -1.96121 -1.18613 0
M  V30 6394 C 616.853 -0.845765 -1.36761 0
M  V30 6395 O 618.043 -1.11268 -1.34033 0
M  V30 6396 C 615.175 -2.26282 -2.54969 0
M  V30 6397 H 616.368 -2.87639 -0.848764 0
M  V30 6398 H 613.921 -1.50928 -0.406251 0
M  V30 6399 H 614.656 -1.37504 -2.93706 0
M  V30 6400 H 614.441 -3.07595 -2.43162 0
M  V30 6401 H 615.931 -2.57638 -3.28653 0
M  V30 6402 N 616.368 0.432326 -1.51554 0
M  V30 6403 C 617.318 1.52366 -1.69614 0
M  V30 6404 C 618.302 1.51205 -0.550083 0
M  V30 6405 O 619.494 1.57573 -0.806206 0
M  V30 6406 C 616.623 2.90513 -1.82913 0
M  V30 6407 C 615.709 2.9641 -3.03318 0
M  V30 6408 N 616.1 2.72043 -4.26411 0
M  V30 6409 C 614.398 3.27572 -3.02675 0
M  V30 6410 C 615.099 2.83912 -5.07709 0
M  V30 6411 N 614.075 3.15798 -4.42462 0
M  V30 6412 H 617.877 1.32285 -2.62446 0
M  V30 6413 H 615.391 0.639708 -1.4927 0
M  V30 6414 H 617.388 3.69032 -1.93962 0
M  V30 6415 H 616.048 3.1161 -0.912655 0
M  V30 6416 H 617.059 2.46876 -4.55272 0
M  V30 6417 H 613.736 3.54411 -2.20678 0
M  V30 6418 H 615.126 2.68984 -6.15709 0
M  V30 6419 N 617.846 1.41785 0.688094 0
M  V30 6420 C 619.071 1.45117 1.48175 0
M  V30 6421 C 619.496 0.060129 1.88004 0
M  V30 6422 O 618.854 -0.938385 1.55126 0
M  V30 6423 C 618.902 2.37224 2.71583 0
M  V30 6424 O 618.006 1.83443 3.69354 0
M  V30 6425 H 617.347 0.492208 0.445676 0
M  V30 6426 H 619.877 1.86329 0.845145 0
M  V30 6427 H 619.887 2.53353 3.19806 0
M  V30 6428 H 618.562 3.38293 2.41931 0
M  V30 6429 H 617.139 1.76802 3.28322 0
M  V30 6430 N 619.324 -0.923095 1.27737 0
M  V30 6431 C 620.549 -1.71054 1.17283 0
M  V30 6432 C 620.974 -1.86208 -0.266153 0
M  V30 6433 O 620.332 -1.36545 -1.1927 0
M  V30 6434 C 620.38 -3.0854 1.86642 0
M  V30 6435 O 619.484 -3.95528 1.16752 0
M  V30 6436 H 618.825 -0.524136 0.407649 0
M  V30 6437 H 621.355 -1.15487 1.6889 0
M  V30 6438 H 621.365 -3.58828 1.94182 0
M  V30 6439 H 620.04 -2.96828 2.91317 0
M  V30 6440 H 618.617 -3.53967 1.17312 0
M  V30 6441 N 620.802 -1.09834 -1.13024 0
M  V30 6442 C 622.051 -0.831806 -1.83749 0
M  V30 6443 C 622.364 0.644763 -1.84668 0
M  V30 6444 O 623.57 1.02697 -2.51327 0
M  V30 6445 C 622.026 -1.43817 -3.29916 0
M  V30 6446 C 621.634 -2.94759 -3.37374 0
M  V30 6447 C 623.378 -1.25077 -4.05655 0
M  V30 6448 C 621.285 -3.48461 -4.77838 0
M  V30 6449 H 620.215 -0.30751 -0.688443 0
M  V30 6450 H 622.866 -1.32156 -1.27307 0
M  V30 6451 H 621.248 -0.876106 -3.86187 0
M  V30 6452 H 622.422 -3.57228 -2.91076 0
M  V30 6453 H 620.737 -3.12581 -2.75103 0
M  V30 6454 H 623.334 -1.62649 -5.09362 0
M  V30 6455 H 623.677 -0.191782 -4.15858 0
M  V30 6456 H 624.21 -1.78057 -3.55725 0
M  V30 6457 H 620.949 -4.53998 -4.72828 0
M  V30 6458 H 620.469 -2.90757 -5.24615 0
M  V30 6459 H 622.148 -3.45914 -5.46766 0
M  V30 6460 N 622.28 1.30327 -0.886154 0
M  V30 6461 C 623.557 1.90922 -0.425217 0
M  V30 6462 C 623.937 1.80533 1.09413 0
M  V30 6463 O 623.285 1.2233 1.92996 0
M  V30 6464 C 623.495 3.36529 -0.924638 0
M  V30 6465 C 624.843 4.13598 -0.960305 0
M  V30 6466 O 625.867 3.45377 -0.871382 0
M  V30 6467 O 624.726 5.35482 -1.09184 0
M  V30 6468 H 621.82 0.81668 -0.130238 0
M  V30 6469 H 624.366 1.38886 -0.975132 0
M  V30 6470 H 623.138 3.38181 -1.96849 0
M  V30 6471 H 622.761 3.96021 -0.353955 0
M  V30 6472 N 623.758 0.647228 1.43697 0
M  V30 6473 C 624.688 -0.0345631 2.33474 0
M  V30 6474 C 625.669 -0.818193 1.4913 0
M  V30 6475 O 626.854 -0.780867 1.77809 0
M  V30 6476 C 623.984 -1.00576 3.32418 0
M  V30 6477 C 622.938 -0.33266 4.26705 0
M  V30 6478 C 622.264 -1.41489 5.1564 0
M  V30 6479 C 623.564 0.771204 5.16575 0
M  V30 6480 H 625.258 0.715163 2.90733 0
M  V30 6481 H 622.804 0.345364 1.39797 0
M  V30 6482 H 624.757 -1.49159 3.94119 0
M  V30 6483 H 623.481 -1.78657 2.73403 0
M  V30 6484 H 622.14 0.13267 3.6636 0
M  V30 6485 H 621.788 -2.18698 4.52968 0
M  V30 6486 H 621.488 -0.969799 5.79542 0
M  V30 6487 H 623.012 -1.9022 5.80214 0
M  V30 6488 H 624.426 0.36779 5.72119 0
M  V30 6489 H 622.823 1.1404 5.89165 0
M  V30 6490 H 623.893 1.63169 4.56622 0
M  V30 6491 N 625.236 -1.5273 0.388769 0
M  V30 6492 C 626.461 -2.0647 -0.19621 0
M  V30 6493 C 626.886 -1.25865 -1.39784 0
M  V30 6494 O 626.244 -0.283562 -1.79069 0
M  V30 6495 C 626.292 -3.56456 -0.5451 0
M  V30 6496 O 625.396 -3.78426 -1.63912 0
M  V30 6497 H 624.737 -0.663599 -0.023067 0
M  V30 6498 H 627.267 -1.96898 0.556084 0
M  V30 6499 H 627.277 -3.99888 -0.809557 0
M  V30 6500 H 625.952 -4.14561 0.333417 0
M  V30 6501 H 624.529 -3.46884 -1.36842 0
M  V30 6502 N 626.714 -0.118576 -1.57153 0
M  V30 6503 C 627.661 0.831789 -2.1529 0
M  V30 6504 C 628.631 1.26385 -1.07778 0
M  V30 6505 O 629.816 1.34144 -1.35684 0
M  V30 6506 C 626.956 2.07664 -2.75626 0
M  V30 6507 C 626.069 1.69298 -3.97444 0
M  V30 6508 C 625.204 2.88747 -4.45868 0
M  V30 6509 C 624.243 2.46619 -5.60219 0
M  V30 6510 N 623.38 3.5898 -6.03389 0
M  V30 6511 H 628.22 0.329183 -2.96176 0
M  V30 6512 H 625.757 0.150792 -1.46325 0
M  V30 6513 H 627.715 2.80601 -3.08738 0
M  V30 6514 H 626.345 2.55384 -1.97431 0
M  V30 6515 H 625.397 0.862374 -3.70496 0
M  V30 6516 H 626.709 1.34338 -4.80369 0
M  V30 6517 H 625.863 3.69909 -4.80887 0
M  V30 6518 H 624.602 3.26933 -3.61892 0
M  V30 6519 H 623.607 1.63889 -5.24805 0
M  V30 6520 H 624.832 2.0955 -6.45961 0
M  V30 6521 H 622.778 3.9684 -5.22354 0
M  V30 6522 H 622.695 3.27942 -6.81168 0
M  V30 6523 H 623.963 4.40583 -6.43045 0
M  V30 6524 N 628.193 1.56834 0.155195 0
M  V30 6525 C 629.439 1.84058 0.865687 0
M  V30 6526 C 629.794 0.701418 1.79159 0
M  V30 6527 O 629.087 -0.301162 1.89218 0
M  V30 6528 C 629.281 3.15239 1.68402 0
M  V30 6529 C 629.11 4.41807 0.838847 0
M  V30 6530 C 627.88 5.02744 0.507645 0
M  V30 6531 C 630.078 5.14009 0.172946 0
M  V30 6532 N 628.06 6.1289 -0.351978 0
M  V30 6533 C 629.431 6.17581 -0.547158 0
M  V30 6534 C 631.486 4.97814 0.0927721 0
M  V30 6535 C 630.189 7.06711 -1.33985 0
M  V30 6536 C 632.215 5.874 -0.686638 0
M  V30 6537 C 631.577 6.90447 -1.39505 0
M  V30 6538 H 627.676 0.724276 0.294871 0
M  V30 6539 H 630.26 1.94255 0.131583 0
M  V30 6540 H 628.431 3.06205 2.38942 0
M  V30 6541 H 630.163 3.304 2.33705 0
M  V30 6542 H 626.918 4.66064 0.841517 0
M  V30 6543 H 627.342 6.72577 -0.772573 0
M  V30 6544 H 631.984 4.18138 0.626112 0
M  V30 6545 H 629.702 7.8582 -1.88448 0
M  V30 6546 H 633.288 5.76938 -0.750555 0
M  V30 6547 H 632.168 7.58571 -1.98847 0
M  V30 6548 N 629.671 -0.424282 1.51781 0
M  V30 6549 C 630.618 -1.51591 1.74037 0
M  V30 6550 C 631.588 -1.55556 0.582358 0
M  V30 6551 O 632.773 -1.72364 0.818245 0
M  V30 6552 C 629.913 -2.89188 1.8832 0
M  V30 6553 C 629.026 -2.9465 3.1592 0
M  V30 6554 C 628.161 -4.23452 3.20721 0
M  V30 6555 C 627.2 -4.22831 4.42584 0
M  V30 6556 N 626.337 -5.43178 4.44862 0
M  V30 6557 H 631.177 -1.31917 2.67212 0
M  V30 6558 H 628.714 -0.640599 1.32419 0
M  V30 6559 H 630.672 -3.69044 1.94583 0
M  V30 6560 H 629.302 -3.07392 0.985402 0
M  V30 6561 H 628.354 -2.07378 3.18902 0
M  V30 6562 H 629.666 -2.90055 4.05795 0
M  V30 6563 H 628.82 -5.1169 3.25973 0
M  V30 6564 H 627.559 -4.30722 2.28757 0
M  V30 6565 H 626.564 -3.32984 4.37495 0
M  V30 6566 H 627.789 -4.17213 5.35826 0
M  V30 6567 H 625.735 -5.51145 3.55775 0
M  V30 6568 H 625.652 -5.40515 5.28563 0
M  V30 6569 H 626.92 -6.33412 4.54324 0
M  V30 6570 N 631.149 -1.42148 -0.680565 0
M  V30 6571 C 632.079 -1.4796 -1.80638 0
M  V30 6572 C 633.06 -0.336728 -1.66734 0
M  V30 6573 O 634.245 -0.550247 -1.86242 0
M  V30 6574 C 631.375 -1.37569 -3.18892 0
M  V30 6575 C 630.329 -2.49823 -3.47524 0
M  V30 6576 C 629.655 -2.24491 -4.85291 0
M  V30 6577 C 630.955 -3.92144 -3.44994 0
M  V30 6578 H 632.649 -2.42184 -1.76032 0
M  V30 6579 H 630.195 -1.16566 -0.845481 0
M  V30 6580 H 632.148 -1.40243 -3.97379 0
M  V30 6581 H 630.872 -0.398357 -3.24162 0
M  V30 6582 H 629.531 -2.46455 -2.71395 0
M  V30 6583 H 629.179 -1.25066 -4.87204 0
M  V30 6584 H 628.879 -2.99722 -5.05411 0
M  V30 6585 H 630.403 -2.28906 -5.66069 0
M  V30 6586 H 631.817 -3.97145 -4.13459 0
M  V30 6587 H 630.214 -4.67179 -3.76648 0
M  V30 6588 H 631.284 -4.19225 -2.43676 0
M  V30 6589 N 632.627 0.916307 -1.28225 0
M  V30 6590 C 633.559 2.02303 -1.07732 0
M  V30 6591 C 634.572 1.62773 -0.0298421 0
M  V30 6592 O 635.761 1.76406 -0.272626 0
M  V30 6593 C 632.861 3.33282 -0.614504 0
M  V30 6594 C 632.034 4.01439 -1.73682 0
M  V30 6595 C 631.093 5.10698 -1.26781 0
M  V30 6596 O 630.119 5.34038 -1.96958 0
M  V30 6597 N 631.321 5.80355 -0.129624 0
M  V30 6598 H 634.086 2.20442 -2.03041 0
M  V30 6599 H 631.647 1.08744 -1.19943 0
M  V30 6600 H 633.639 4.03699 -0.284397 0
M  V30 6601 H 632.209 3.11633 0.245664 0
M  V30 6602 H 631.429 3.24604 -2.23665 0
M  V30 6603 H 632.717 4.43721 -2.48976 0
M  V30 6604 H 632.115 5.6386 0.455847 0
M  V30 6605 H 630.672 6.51647 0.141224 0
M  V30 6606 N 634.105 1.10431 1.1244 0
M  V30 6607 C 635.354 0.841539 1.83306 0
M  V30 6608 C 635.667 -0.634961 1.85007 0
M  V30 6609 O 636.873 -1.01363 2.51869 0
M  V30 6610 C 635.329 1.45565 3.29149 0
M  V30 6611 C 634.937 2.96544 3.35806 0
M  V30 6612 C 636.681 1.27227 4.04986 0
M  V30 6613 C 634.588 3.5099 4.75983 0
M  V30 6614 H 633.518 0.311156 0.686803 0
M  V30 6615 H 636.169 1.32829 1.26604 0
M  V30 6616 H 634.551 0.896574 3.85717 0
M  V30 6617 H 635.725 3.58766 2.89177 0
M  V30 6618 H 634.04 3.14036 2.73442 0
M  V30 6619 H 636.637 1.65348 5.08492 0
M  V30 6620 H 636.98 0.213834 4.1575 0
M  V30 6621 H 637.513 1.79941 3.54776 0
M  V30 6622 H 634.252 4.56499 4.70413 0
M  V30 6623 H 633.772 2.93535 5.23065 0
M  V30 6624 H 635.451 3.48808 5.44924 0
M  V30 6625 N 635.583 -1.29855 0.893053 0
M  V30 6626 C 636.994 -1.77946 0.564998 0
M  V30 6627 C 637.345 -1.73339 -0.919134 0
M  V30 6628 O 636.47 -1.3152 -1.71847 0
M  V30 6629 C 637.065 -3.23118 1.01883 0
M  V30 6630 C 635.624 -3.69013 0.742051 0
M  V30 6631 C 634.771 -2.50121 1.19727 0
M  V30 6632 H 637.722 -1.16611 1.07646 0
M  V30 6633 H 637.743 -3.78875 0.351249 0
M  V30 6634 H 637.255 -3.26439 2.09903 0
M  V30 6635 H 635.356 -3.71173 -0.325816 0
M  V30 6636 H 635.469 -4.60117 1.33527 0
M  V30 6637 H 633.833 -2.47128 0.616418 0
M  V30 6638 H 634.616 -2.56174 2.28538 0
M  V30 6639 N 637.061 -0.65484 -1.43351 0
M  V30 6640 C 638.307 -0.169142 -2.02093 0
M  V30 6641 C 638.64 1.21431 -1.51553 0
M  V30 6642 O 637.915 1.81105 -0.709317 0
M  V30 6643 C 638.198 -0.181775 -3.59641 0
M  V30 6644 C 638.051 -1.59926 -4.20409 0
M  V30 6645 C 639.37 0.480945 -4.37464 0
M  V30 6646 H 636.489 -0.0629371 -0.734308 0
M  V30 6647 H 639.131 -0.835833 -1.70628 0
M  V30 6648 H 637.281 0.385918 -3.86578 0
M  V30 6649 H 638.953 -2.21766 -4.04497 0
M  V30 6650 H 637.196 -2.14605 -3.76998 0
M  V30 6651 H 637.867 -1.55994 -5.295 0
M  V30 6652 H 640.343 -0.00208273 -4.161 0
M  V30 6653 H 639.219 0.441384 -5.47122 0
M  V30 6654 H 639.48 1.55533 -4.13838 0
M  V30 6655 N 638.539 1.52521 -0.396863 0
M  V30 6656 C 639.816 1.94112 0.240842 0
M  V30 6657 C 640.196 1.33288 1.637 0
M  V30 6658 O 639.544 0.503901 2.22875 0
M  V30 6659 C 639.754 3.48033 0.259567 0
M  V30 6660 C 641.102 4.21822 0.484866 0
M  V30 6661 O 642.126 3.54579 0.339453 0
M  V30 6662 O 640.985 5.41042 0.770412 0
M  V30 6663 H 638.079 0.812973 0.151671 0
M  V30 6664 H 640.625 1.63572 -0.451918 0
M  V30 6665 H 639.397 3.84655 -0.718078 0
M  V30 6666 H 639.02 3.84899 0.996937 0
M  V30 6667 N 640.017 0.126909 1.57088 0
M  V30 6668 C 641.428 -0.397201 1.82426 0
M  V30 6669 C 641.779 -1.66084 1.04453 0
M  V30 6670 O 640.904 -2.14534 0.283552 0
M  V30 6671 C 641.499 -0.727411 3.30899 0
M  V30 6672 C 640.058 -1.19612 3.56889 0
M  V30 6673 C 639.205 -0.20885 2.76512 0
M  V30 6674 H 642.156 0.351924 1.54749 0
M  V30 6675 H 642.177 -1.58407 3.45959 0
M  V30 6676 H 641.689 0.19247 3.87622 0
M  V30 6677 H 639.79 -2.13263 3.05532 0
M  V30 6678 H 639.903 -1.13598 4.65438 0
M  V30 6679 H 638.267 -0.697479 2.44964 0
M  V30 6680 H 639.05 0.704267 3.35998 0
M  V30 6681 N 641.495 -1.56914 -0.146875 0
M  V30 6682 C 642.744 -1.82546 -0.857898 0
M  V30 6683 C 643.057 -0.708169 -1.8233 0
M  V30 6684 O 644.263 -0.850093 -2.57848 0
M  V30 6685 C 642.719 -3.23548 -1.57623 0
M  V30 6686 C 642.327 -4.43212 -0.653224 0
M  V30 6687 C 644.071 -3.58453 -2.27402 0
M  V30 6688 C 641.978 -5.75237 -1.37318 0
M  V30 6689 H 640.908 -0.680786 -0.32411 0
M  V30 6690 H 643.559 -1.83166 -0.110639 0
M  V30 6691 H 641.941 -3.17315 -2.36912 0
M  V30 6692 H 643.115 -4.60682 0.104452 0
M  V30 6693 H 641.43 -4.16351 -0.0638336 0
M  V30 6694 H 644.027 -4.54349 -2.81907 0
M  V30 6695 H 644.37 -2.84516 -3.03901 0
M  V30 6696 H 644.903 -3.66347 -1.55032 0
M  V30 6697 H 641.642 -6.52269 -0.650041 0
M  V30 6698 H 641.162 -5.61703 -2.10357 0
M  V30 6699 H 642.841 -6.18039 -1.91406 0
M  V30 6700 N 642.974 0.416227 -1.52004 0
M  V30 6701 C 644.251 1.17637 -1.56272 0
M  V30 6702 C 644.631 2.08352 -0.339493 0
M  V30 6703 O 643.979 2.1833 0.674124 0
M  V30 6704 C 644.189 1.95986 -2.88774 0
M  V30 6705 C 645.537 2.52299 -3.41512 0
M  V30 6706 O 646.561 2.06174 -2.90467 0
M  V30 6707 O 645.42 3.3648 -4.30631 0
M  V30 6708 H 642.514 0.536726 -0.629169 0
M  V30 6709 H 645.06 0.423583 -1.64329 0
M  V30 6710 H 643.832 1.29487 -3.69254 0
M  V30 6711 H 643.455 2.78285 -2.83978 0
M  V30 6712 N 644.452 1.42507 0.673017 0
M  V30 6713 C 645.698 1.43284 1.43519 0
M  V30 6714 C 646.031 0.049668 1.94136 0
M  V30 6715 O 645.306 -0.926369 1.71022 0
M  V30 6716 C 645.589 2.45874 2.63093 0
M  V30 6717 C 645.442 3.93388 2.18096 0
M  V30 6718 C 646.761 2.45431 3.6531 0
M  V30 6719 H 643.88 0.521752 0.520522 0
M  V30 6720 H 646.522 1.73932 0.764701 0
M  V30 6721 H 644.672 2.19869 3.20296 0
M  V30 6722 H 646.344 4.30379 1.66046 0
M  V30 6723 H 644.587 4.07169 1.49652 0
M  V30 6724 H 645.258 4.60752 3.03993 0
M  V30 6725 H 647.734 2.68561 3.17827 0
M  V30 6726 H 646.61 3.19189 4.46553 0
M  V30 6727 H 646.871 1.48092 4.16559 0
M  V30 6728 N 645.93 -0.909495 1.28709 0
M  V30 6729 C 646.893 -1.99399 1.13016 0
M  V30 6730 C 647.893 -1.60654 0.068536 0
M  V30 6731 O 649.083 -1.71334 0.314671 0
M  V30 6732 C 646.215 -3.33078 0.726085 0
M  V30 6733 H 647.408 -2.14751 2.09338 0
M  V30 6734 H 644.961 -1.09272 1.11756 0
M  V30 6735 H 645.696 -3.23428 -0.23771 0
M  V30 6736 H 645.481 -3.62562 1.49302 0
M  V30 6737 H 646.971 -4.12681 0.639058 0
M  V30 6738 N 647.408 -1.11026 -1.11852 0
M  V30 6739 C 648.636 -0.878818 -1.87308 0
M  V30 6740 C 649.051 0.57111 -1.79955 0
M  V30 6741 O 648.408 1.39409 -1.17777 0
M  V30 6742 C 648.459 -1.3264 -3.36287 0
M  V30 6743 O 648.18 -2.71948 -3.43476 0
M  V30 6744 C 649.681 -1.12974 -4.28663 0
M  V30 6745 H 646.901 -0.315015 -0.592458 0
M  V30 6746 H 649.445 -1.47649 -1.41492 0
M  V30 6747 H 647.6 -0.772269 -3.79625 0
M  V30 6748 H 648.014 -2.91241 -4.3621 0
M  V30 6749 H 649.488 -1.49198 -5.31454 0
M  V30 6750 H 649.965 -0.0689127 -4.39146 0
M  V30 6751 H 650.571 -1.67064 -3.91113 0
M  V30 6752 N 648.886 1.2938 -0.899927 0
M  V30 6753 C 650.302 1.48052 -0.596059 0
M  V30 6754 C 650.502 1.82114 0.862372 0
M  V30 6755 O 649.558 1.91774 1.64253 0
M  V30 6756 C 650.871 2.59332 -1.52208 0
M  V30 6757 C 652.419 2.73208 -1.5273 0
M  V30 6758 C 652.894 3.87617 -2.43961 0
M  V30 6759 N 654.385 3.9495 -2.42009 0
M  V30 6760 C 655.12 4.82824 -3.09303 0
M  V30 6761 N 654.616 5.75387 -3.85877 0
M  V30 6762 N 656.409 4.76317 -2.98459 0
M  V30 6763 H 648.56 1.05546 -1.8432 0
M  V30 6764 H 650.823 0.524314 -0.78981 0
M  V30 6765 H 650.529 2.41029 -2.56121 0
M  V30 6766 H 650.403 3.56139 -1.24278 0
M  V30 6767 H 652.79 2.90908 -0.495614 0
M  V30 6768 H 652.871 1.76975 -1.84698 0
M  V30 6769 H 652.515 3.70672 -3.47224 0
M  V30 6770 H 652.445 4.83218 -2.09303 0
M  V30 6771 H 654.936 3.28744 -1.86375 0
M  V30 6772 H 655.249 6.39235 -4.34279 0
M  V30 6773 H 653.594 5.75272 -3.89984 0
M  V30 6774 H 656.785 4.0299 -2.38152 0
M  V30 6775 H 656.958 5.44589 -3.51179 0
M  V30 6776 N 650.364 0.662433 1.43002 0
M  V30 6777 C 651.641 0.109096 1.95296 0
M  V30 6778 C 652.021 -1.37313 1.60338 0
M  V30 6779 O 651.369 -2.1032 0.893187 0
M  V30 6780 C 651.579 0.365096 3.47085 0
M  V30 6781 C 652.927 0.274964 4.23709 0
M  V30 6782 O 653.951 0.29816 3.5495 0
M  V30 6783 O 652.81 0.206549 5.4611 0
M  V30 6784 H 649.904 -0.00429724 0.826989 0
M  V30 6785 H 652.45 0.736308 1.52894 0
M  V30 6786 H 651.222 1.39237 3.65689 0
M  V30 6787 H 650.845 -0.294733 3.96506 0
M  V30 6788 N 651.842 -1.52309 0.404946 0
M  V30 6789 C 652.772 -2.29805 -0.41376 0
M  V30 6790 C 653.753 -1.3384 -1.0498 0
M  V30 6791 O 654.938 -1.62745 -1.05961 0
M  V30 6792 C 652.068 -3.11639 -1.53292 0
M  V30 6793 C 651.022 -4.15616 -1.02211 0
M  V30 6794 C 650.348 -4.8577 -2.23455 0
M  V30 6795 C 651.648 -5.2224 -0.0790725 0
M  V30 6796 H 653.342 -2.98493 0.232878 0
M  V30 6797 H 650.888 -1.43552 0.113441 0
M  V30 6798 H 652.841 -3.64618 -2.11262 0
M  V30 6799 H 651.565 -2.40712 -2.20738 0
M  V30 6800 H 650.224 -3.63641 -0.46484 0
M  V30 6801 H 649.872 -4.11376 -2.89445 0
M  V30 6802 H 649.572 -5.56058 -1.89929 0
M  V30 6803 H 651.096 -5.4156 -2.82038 0
M  V30 6804 H 652.51 -5.70485 -0.567438 0
M  V30 6805 H 650.907 -5.99867 0.167167 0
M  V30 6806 H 651.977 -4.77078 0.867447 0
M  V30 6807 N 653.32 -0.135238 -1.57019 0
M  V30 6808 C 654.25 0.805235 -2.19176 0
M  V30 6809 C 655.231 1.2656 -1.13651 0
M  V30 6810 O 656.416 1.32528 -1.4195 0
M  V30 6811 C 653.546 2.04914 -2.80406 0
M  V30 6812 C 652.5 1.72598 -3.91655 0
M  V30 6813 C 651.826 3.04154 -4.39766 0
M  V30 6814 C 653.126 0.981709 -5.12991 0
M  V30 6815 H 654.82 0.287232 -2.98019 0
M  V30 6816 H 652.366 0.136714 -1.4335 0
M  V30 6817 H 654.319 2.71178 -3.22553 0
M  V30 6818 H 653.043 2.59067 -1.98877 0
M  V30 6819 H 651.702 1.08717 -3.50109 0
M  V30 6820 H 651.35 3.56274 -3.55075 0
M  V30 6821 H 651.05 2.83299 -5.14796 0
M  V30 6822 H 652.574 3.71509 -4.84576 0
M  V30 6823 H 653.988 1.5462 -5.52056 0
M  V30 6824 H 652.385 0.873533 -5.93708 0
M  V30 6825 H 653.455 -0.0286887 -4.84892 0
M  V30 6826 N 654.798 1.5699 0.138552 0
M  V30 6827 C 655.745 1.98899 1.17081 0
M  V30 6828 C 656.715 0.857922 1.42228 0
M  V30 6829 O 657.9 1.12065 1.54422 0
M  V30 6830 C 655.04 2.38189 2.4972 0
M  V30 6831 C 654.153 3.64624 2.31674 0
M  V30 6832 C 653.288 3.9298 3.57407 0
M  V30 6833 C 652.327 5.1266 3.34435 0
M  V30 6834 N 651.464 5.36983 4.5232 0
M  V30 6835 H 656.304 2.86881 0.80642 0
M  V30 6836 H 653.841 1.41925 0.386727 0
M  V30 6837 H 655.799 2.59 3.2707 0
M  V30 6838 H 654.429 1.53275 2.84089 0
M  V30 6839 H 653.481 3.51542 1.45337 0
M  V30 6840 H 654.793 4.52131 2.10664 0
M  V30 6841 H 653.947 4.14335 4.43183 0
M  V30 6842 H 652.686 3.03912 3.8143 0
M  V30 6843 H 651.691 4.9117 2.47048 0
M  V30 6844 H 652.916 6.03288 3.11802 0
M  V30 6845 H 650.862 4.50871 4.76499 0
M  V30 6846 H 650.779 6.18775 4.34343 0
M  V30 6847 H 652.047 5.62842 5.39285 0
M  V30 6848 N 656.276 -0.40816 1.52223 0
M  V30 6849 C 657.524 -1.15274 1.66001 0
M  V30 6850 C 657.845 -1.91003 0.392803 0
M  V30 6851 O 657.115 -1.8673 -0.592336 0
M  V30 6852 H 655.695 -0.428526 0.611861 0
M  V30 6853 H 658.357 -0.46512 1.89269 0
M  V30 6854 H 657.453 -1.86628 2.50153 0
M  V30 6855 N 657.755 -1.42862 -0.66545 0
M  V30 6856 C 658.985 -1.47032 -1.45138 0
M  V30 6857 C 659.393 -0.0829977 -1.89018 0
M  V30 6858 O 658.736 0.914551 -1.59316 0
M  V30 6859 C 658.798 -2.34302 -2.72659 0
M  V30 6860 C 658.462 -3.82034 -2.50796 0
M  V30 6861 C 659.459 -4.73453 -2.14799 0
M  V30 6862 C 657.144 -4.26397 -2.655 0
M  V30 6863 C 659.138 -6.07228 -1.93785 0
M  V30 6864 C 656.825 -5.6023 -2.44103 0
M  V30 6865 C 657.823 -6.50462 -2.08299 0
M  V30 6866 O 657.511 -7.8182 -1.87116 0
M  V30 6867 H 657.243 -0.501969 -0.452772 0
M  V30 6868 H 659.797 -1.88137 -0.82423 0
M  V30 6869 H 658.027 -1.88063 -3.37889 0
M  V30 6870 H 659.716 -2.29818 -3.34572 0
M  V30 6871 H 660.482 -4.4046 -2.03026 0
M  V30 6872 H 656.361 -3.56448 -2.92345 0
M  V30 6873 H 659.905 -6.7762 -1.65763 0
M  V30 6874 H 655.802 -5.92793 -2.55475 0
M  V30 6875 H 656.57 -7.93274 -2.01639 0
M  V30 6876 N 659.233 0.902656 -1.29189 0
M  V30 6877 C 660.165 2.01149 -1.09872 0
M  V30 6878 C 661.178 1.62732 -0.0471046 0
M  V30 6879 O 662.367 1.76107 -0.29132 0
M  V30 6880 C 659.467 3.32612 -0.649818 0
M  V30 6881 C 658.64 3.99574 -1.7793 0
M  V30 6882 C 657.699 5.09325 -1.32191 0
M  V30 6883 O 656.725 5.31919 -2.02611 0
M  V30 6884 N 657.927 5.80185 -0.191171 0
M  V30 6885 H 660.692 2.18276 -2.05368 0
M  V30 6886 H 658.253 1.07466 -1.2109 0
M  V30 6887 H 660.245 4.03375 -0.327199 0
M  V30 6888 H 658.815 3.11876 0.212597 0
M  V30 6889 H 658.035 3.22213 -2.27095 0
M  V30 6890 H 659.323 4.41056 -2.53668 0
M  V30 6891 H 658.721 5.64312 0.396016 0
M  V30 6892 H 657.278 6.5176 0.0721001 0
M  V30 6893 N 660.711 1.11618 1.11262 0
M  V30 6894 C 661.988 0.777876 1.79467 0
M  V30 6895 C 662.368 -0.733774 1.97937 0
M  V30 6896 O 661.716 -1.66443 1.56554 0
M  V30 6897 C 661.926 1.5431 3.13032 0
M  V30 6898 C 663.274 1.72357 3.88044 0
M  V30 6899 O 664.298 1.5075 3.22727 0
M  V30 6900 O 663.157 2.08276 5.05256 0
M  V30 6901 H 660.251 0.282018 0.777428 0
M  V30 6902 H 662.797 1.21971 1.17988 0
M  V30 6903 H 661.569 2.57132 2.94956 0
M  V30 6904 H 661.192 1.09495 3.82226 0
M  V30 6905 N 662.189 -1.289 0.906776 0
M  V30 6906 C 663.136 -2.2751 0.388313 0
M  V30 6907 C 664.106 -1.57301 -0.533439 0
M  V30 6908 O 665.291 -1.85243 -0.457148 0
M  V30 6909 C 662.431 -3.43091 -0.37181 0
M  V30 6910 C 661.544 -4.28066 0.581647 0
M  V30 6911 C 660.679 -5.30837 -0.19623 0
M  V30 6912 C 659.718 -6.07472 0.751294 0
M  V30 6913 N 658.855 -7.021 0.00737727 0
M  V30 6914 H 663.695 -2.71237 1.23428 0
M  V30 6915 H 661.232 -1.33397 0.619962 0
M  V30 6916 H 663.19 -4.08888 -0.828641 0
M  V30 6917 H 661.82 -3.00374 -1.18218 0
M  V30 6918 H 660.872 -3.62378 1.157 0
M  V30 6919 H 662.184 -4.81382 1.30665 0
M  V30 6920 H 661.338 -6.02485 -0.71394 0
M  V30 6921 H 660.077 -4.78272 -0.954324 0
M  V30 6922 H 659.082 -5.34682 1.28044 0
M  V30 6923 H 660.307 -6.62126 1.50883 0
M  V30 6924 H 658.253 -6.51894 -0.732854 0
M  V30 6925 H 658.17 -7.53004 0.672334 0
M  V30 6926 H 659.438 -7.77956 -0.490365 0
M  V30 6927 N 663.667 -0.670007 -1.42649 0
M  V30 6928 C 664.897 -0.198252 -2.05647 0
M  V30 6929 C 665.305 1.14786 -1.50402 0
M  V30 6930 O 664.648 1.72316 -0.636634 0
M  V30 6931 C 664.71 -0.0507132 -3.59464 0
M  V30 6932 C 664.374 -1.32478 -4.37377 0
M  V30 6933 C 665.371 -2.2572 -4.68344 0
M  V30 6934 C 663.056 -1.57104 -4.77099 0
M  V30 6935 C 665.05 -3.4187 -5.37963 0
M  V30 6936 C 662.737 -2.73543 -5.46459 0
M  V30 6937 C 663.735 -3.65751 -5.76815 0
M  V30 6938 O 663.423 -4.80154 -6.44753 0
M  V30 6939 H 663.155 -0.0950721 -0.669281 0
M  V30 6940 H 665.709 -0.915745 -1.83857 0
M  V30 6941 H 663.939 0.722314 -3.79894 0
M  V30 6942 H 665.628 0.380552 -4.04112 0
M  V30 6943 H 666.394 -2.07943 -4.38161 0
M  V30 6944 H 662.273 -0.862069 -4.52868 0
M  V30 6945 H 665.817 -4.13861 -5.61574 0
M  V30 6946 H 661.714 -2.91248 -5.7606 0
M  V30 6947 H 662.482 -4.79637 -6.63243 0
M  V30 6948 N 665.145 1.52092 -0.413018 0
M  V30 6949 C 666.392 2.01855 0.161497 0
M  V30 6950 C 666.72 1.29845 1.44812 0
M  V30 6951 O 665.975 0.394471 1.91683 0
M  V30 6952 C 666.274 3.54529 0.4521 0
M  V30 6953 C 665.94 4.4469 -0.745788 0
M  V30 6954 C 664.602 4.69053 -1.07435 0
M  V30 6955 C 666.954 4.97742 -1.54604 0
M  V30 6956 C 664.282 5.43717 -2.20429 0
M  V30 6957 C 666.634 5.73642 -2.66678 0
M  V30 6958 C 665.298 5.96277 -3.00016 0
M  V30 6959 H 664.568 0.73864 0.0590961 0
M  V30 6960 H 667.215 1.83274 -0.555234 0
M  V30 6961 H 665.52 3.7131 1.25045 0
M  V30 6962 H 667.217 3.90546 0.909647 0
M  V30 6963 H 663.807 4.25907 -0.479725 0
M  V30 6964 H 667.991 4.78824 -1.30543 0
M  V30 6965 H 663.247 5.59462 -2.46602 0
M  V30 6966 H 667.421 6.13746 -3.29072 0
M  V30 6967 H 665.048 6.53913 -3.87688 0
M  V30 6968 N 666.623 0.143563 1.56945 0
M  V30 6969 C 667.853 -0.514699 2.00086 0
M  V30 6970 C 668.261 -1.59184 1.0226 0
M  V30 6971 O 667.604 -1.83697 0.0110514 0
M  V30 6972 C 667.666 -1.17778 3.39659 0
M  V30 6973 C 667.33 -0.245657 4.56339 0
M  V30 6974 C 668.327 0.525343 5.17239 0
M  V30 6975 C 666.012 -0.149564 5.02077 0
M  V30 6976 C 668.006 1.37992 6.22284 0
M  V30 6977 C 665.693 0.708621 6.06978 0
M  V30 6978 C 666.691 1.47197 6.6695 0
M  V30 6979 O 666.379 2.31586 7.6982 0
M  V30 6980 H 666.111 -0.138789 0.661599 0
M  V30 6981 H 668.665 0.234098 2.04062 0
M  V30 6982 H 666.895 -1.97415 3.32512 0
M  V30 6983 H 668.584 -1.73542 3.6693 0
M  V30 6984 H 669.35 0.461118 4.82803 0
M  V30 6985 H 665.229 -0.733457 4.55128 0
M  V30 6986 H 668.773 1.97621 6.69023 0
M  V30 6987 H 664.67 0.77415 6.40841 0
M  V30 6988 H 665.438 2.24796 7.87025 0
M  V30 6989 N 668.101 -1.57061 -0.130224 0
M  V30 6990 C 669.347 -1.8453 -0.841216 0
M  V30 6991 C 669.68 -0.727666 -1.80052 0
M  V30 6992 O 668.955 0.267419 -1.92653 0
M  V30 6993 C 669.238 -3.22553 -1.60099 0
M  V30 6994 C 669.091 -4.44901 -0.662048 0
M  V30 6995 C 670.41 -3.58003 -2.55973 0
M  V30 6996 H 667.529 -0.671215 -0.304366 0
M  V30 6997 H 670.171 -1.89705 -0.105821 0
M  V30 6998 H 668.321 -3.18272 -2.22789 0
M  V30 6999 H 669.993 -4.61278 -0.0448559 0
M  V30 7000 H 668.236 -4.33791 0.0272253 0
M  V30 7001 H 668.907 -5.3812 -1.23006 0
M  V30 7002 H 671.383 -3.63002 -2.03393 0
M  V30 7003 H 670.259 -4.55576 -3.06172 0
M  V30 7004 H 670.52 -2.84833 -3.38116 0
M  V30 7005 N 669.579 0.400081 -1.52437 0
M  V30 7006 C 670.856 1.15973 -1.57511 0
M  V30 7007 C 671.236 2.0798 -0.361572 0
M  V30 7008 O 670.584 2.19032 0.650929 0
M  V30 7009 C 670.794 1.92912 -2.90837 0
M  V30 7010 C 672.142 2.48662 -3.44169 0
M  V30 7011 O 673.166 2.03081 -2.92637 0
M  V30 7012 O 672.025 3.31894 -4.34176 0
M  V30 7013 H 669.119 0.530023 -0.634827 0
M  V30 7014 H 671.665 0.40613 -1.64769 0
M  V30 7015 H 670.437 1.25564 -3.70607 0
M  V30 7016 H 670.06 2.75257 -2.86913 0
M  V30 7017 N 671.057 1.43213 0.657864 0
M  V30 7018 C 672.004 1.48011 1.77092 0
M  V30 7019 C 672.974 0.330291 1.62783 0
M  V30 7020 O 674.159 0.536787 1.83094 0
M  V30 7021 C 671.299 1.40461 3.15222 0
M  V30 7022 C 670.412 2.65612 3.40697 0
M  V30 7023 C 669.547 2.50083 4.68649 0
M  V30 7024 C 668.586 3.70525 4.87214 0
M  V30 7025 N 667.723 3.53835 6.0642 0
M  V30 7026 H 672.563 2.43121 1.72326 0
M  V30 7027 H 670.1 1.20687 0.841013 0
M  V30 7028 H 672.058 1.34079 3.95068 0
M  V30 7029 H 670.688 0.489359 3.19069 0
M  V30 7030 H 669.74 2.82292 2.54982 0
M  V30 7031 H 671.052 3.5509 3.50303 0
M  V30 7032 H 670.206 2.41383 5.56614 0
M  V30 7033 H 668.945 1.58121 4.61356 0
M  V30 7034 H 667.95 3.79639 3.97686 0
M  V30 7035 H 669.175 4.63489 4.96341 0
M  V30 7036 H 667.121 2.64604 6.00267 0
M  V30 7037 H 667.038 4.36912 6.16963 0
M  V30 7038 H 668.306 3.48978 6.97019 0
M  V30 7039 N 672.536 -0.895792 1.29666 0
M  V30 7040 C 673.813 -1.62723 1.08538 0
M  V30 7041 C 674.193 -2.07848 -0.369119 0
M  V30 7042 O 673.541 -1.8372 -1.35864 0
M  V30 7043 C 673.751 -2.80505 2.07648 0
M  V30 7044 C 675.099 -3.51098 2.3878 0
M  V30 7045 O 676.123 -2.90679 2.05874 0
M  V30 7046 O 674.982 -4.60028 2.9502 0
M  V30 7047 H 672.076 -0.714692 0.416106 0
M  V30 7048 H 674.622 -0.943517 1.41053 0
M  V30 7049 H 673.394 -2.44386 3.05599 0
M  V30 7050 H 673.017 -3.5658 1.75887 0
M  V30 7051 N 674.014 -1.12206 -1.10668 0
M  V30 7052 C 675.262 -0.874144 -1.82217 0
M  V30 7053 C 675.583 0.601736 -1.85484 0
M  V30 7054 O 674.853 1.43725 -1.33116 0
M  V30 7055 H 673.433 -0.320404 -0.674797 0
M  V30 7056 H 676.095 -1.41606 -1.33917 0
M  V30 7057 H 675.191 -1.25349 -2.85822 0
M  V30 7058 N 675.492 1.28418 -0.913599 0
M  V30 7059 C 676.717 1.99643 -0.561899 0
M  V30 7060 C 677.142 1.67819 0.849608 0
M  V30 7061 O 676.5 0.910503 1.56779 0
M  V30 7062 C 676.548 3.52116 -0.777622 0
M  V30 7063 O 675.652 4.12076 0.163457 0
M  V30 7064 H 674.993 0.627229 -0.217898 0
M  V30 7065 H 677.523 1.63575 -1.229 0
M  V30 7066 H 677.533 4.02163 -0.687666 0
M  V30 7067 H 676.208 3.74613 -1.8066 0
M  V30 7068 H 674.785 3.72892 0.0247827 0
M  V30 7069 N 676.97 0.677563 1.42291 0
M  V30 7070 C 677.9 0.014968 2.33495 0
M  V30 7071 C 678.881 -0.786376 1.50831 0
M  V30 7072 O 680.066 -0.742975 1.79426 0
M  V30 7073 C 677.196 -0.935023 3.34477 0
M  V30 7074 C 676.15 -0.242074 4.27315 0
M  V30 7075 C 675.476 -1.30519 5.18526 0
M  V30 7076 C 676.776 0.880604 5.14823 0
M  V30 7077 H 678.47 0.776671 2.89151 0
M  V30 7078 H 676.016 0.37494 1.39033 0
M  V30 7079 H 677.969 -1.40766 3.97194 0
M  V30 7080 H 676.693 -1.72818 2.77131 0
M  V30 7081 H 675.352 0.210351 3.65996 0
M  V30 7082 H 675 -2.09041 4.57505 0
M  V30 7083 H 674.7 -0.846652 5.81468 0
M  V30 7084 H 676.224 -1.7787 5.84119 0
M  V30 7085 H 677.638 0.489062 5.7121 0
M  V30 7086 H 676.035 1.26511 5.86613 0
M  V30 7087 H 677.105 1.72818 4.53059 0
M  V30 7088 N 678.448 -1.51871 0.421078 0
M  V30 7089 C 679.411 -2.25914 -0.386712 0
M  V30 7090 C 680.411 -1.28733 -0.963555 0
M  V30 7091 O 681.601 -1.52579 -0.840556 0
M  V30 7092 C 678.733 -3.03853 -1.54551 0
M  V30 7093 H 679.926 -2.98754 0.261978 0
M  V30 7094 H 677.479 -1.5533 0.173862 0
M  V30 7095 H 678.214 -2.35392 -2.23072 0
M  V30 7096 H 677.999 -3.75215 -1.13824 0
M  V30 7097 H 679.489 -3.59984 -2.11663 0
M  V30 7098 N 679.926 -0.151884 -1.56866 0
M  V30 7099 C 681.173 0.498004 -1.96281 0
M  V30 7100 C 681.501 1.64551 -1.03698 0
M  V30 7101 O 680.756 1.95585 -0.0671497 0
M  V30 7102 C 681.055 1.04074 -3.41911 0
M  V30 7103 C 680.721 0.0111688 -4.50899 0
M  V30 7104 C 679.383 -0.271844 -4.80432 0
M  V30 7105 C 681.735 -0.68869 -5.1663 0
M  V30 7106 C 679.063 -1.26044 -5.73001 0
M  V30 7107 C 681.415 -1.66613 -6.10264 0
M  V30 7108 C 680.079 -1.9568 -6.38174 0
M  V30 7109 H 679.349 0.182233 -0.718242 0
M  V30 7110 H 681.996 -0.239746 -1.89993 0
M  V30 7111 H 680.301 1.85592 -3.45055 0
M  V30 7112 H 681.998 1.55224 -3.69738 0
M  V30 7113 H 678.588 0.241932 -4.27917 0
M  V30 7114 H 682.772 -0.48324 -4.93942 0
M  V30 7115 H 678.028 -1.49202 -5.92915 0
M  V30 7116 H 682.202 -2.21392 -6.60272 0
M  V30 7117 H 679.829 -2.72434 -7.09707 0
M  V30 7118 N 681.404 1.57128 0.121893 0
M  V30 7119 C 682.65 1.85853 0.826451 0
M  V30 7120 C 683.005 0.739262 1.77631 0
M  V30 7121 O 682.298 -0.260959 1.89815 0
M  V30 7122 C 682.492 3.1874 1.61677 0
M  V30 7123 C 682.321 4.43487 0.744944 0
M  V30 7124 C 681.091 5.03707 0.400891 0
M  V30 7125 C 683.289 5.1426 0.0638779 0
M  V30 7126 N 681.271 6.12006 -0.481902 0
M  V30 7127 C 682.642 6.16281 -0.678033 0
M  V30 7128 C 684.697 4.97898 -0.0128424 0
M  V30 7129 C 683.4 7.0371 -1.48946 0
M  V30 7130 C 685.426 5.85812 -0.81108 0
M  V30 7131 C 684.788 6.87333 -1.54119 0
M  V30 7132 H 680.887 0.730367 0.279442 0
M  V30 7133 H 683.471 1.9449 0.0903486 0
M  V30 7134 H 681.642 3.11204 2.32393 0
M  V30 7135 H 683.374 3.35283 2.26644 0
M  V30 7136 H 680.129 4.67744 0.742469 0
M  V30 7137 H 680.553 6.70787 -0.915063 0
M  V30 7138 H 685.195 4.19372 0.537278 0
M  V30 7139 H 682.913 7.81646 -2.05074 0
M  V30 7140 H 686.499 5.75217 -0.872764 0
M  V30 7141 H 685.379 7.54182 -2.14893 0
M  V30 7142 N 682.882 -0.391992 1.52647 0
M  V30 7143 C 684.122 -1.1463 1.69232 0
M  V30 7144 C 684.486 -1.87312 0.421684 0
M  V30 7145 O 685.687 -2.64768 0.463852 0
M  V30 7146 C 683.958 -2.10088 2.89133 0
M  V30 7147 S 685.517 -2.93395 3.2629 0
M  V30 7148 H 682.335 -0.388076 0.59575 0
M  V30 7149 H 684.937 -0.431149 1.90687 0
M  V30 7150 H 683.641 -1.55408 3.79837 0
M  V30 7151 H 683.172 -2.86116 2.70003 0
M  V30 7152 H 685.187 -4.12193 2.76244 0
M  V30 7153 N 684.36 -1.4356 -0.65026 0
M  V30 7154 C 685.771 -1.40324 -1.2315 0
M  V30 7155 C 686.122 -0.108812 -1.95898 0
M  V30 7156 O 685.247 0.79163 -2.01401 0
M  V30 7157 C 685.842 -2.54195 -2.23987 0
M  V30 7158 C 684.401 -2.54215 -2.77582 0
M  V30 7159 C 683.548 -2.31752 -1.5227 0
M  V30 7160 H 686.499 -1.52418 -0.442095 0
M  V30 7161 H 686.52 -2.25854 -3.0622 0
M  V30 7162 H 686.032 -3.48392 -1.71011 0
M  V30 7163 H 684.133 -1.63907 -3.34612 0
M  V30 7164 H 684.246 -3.52081 -3.24925 0
M  V30 7165 H 682.61 -1.80476 -1.79723 0
M  V30 7166 H 683.393 -3.28037 -1.01225 0
M  V30 7167 N 685.838 0.888903 -1.30139 0
M  V30 7168 C 686.801 1.97576 -1.16174 0
M  V30 7169 C 687.801 1.60525 -0.094086 0
M  V30 7170 O 688.991 1.70812 -0.341889 0
M  V30 7171 C 686.123 3.3188 -0.778983 0
M  V30 7172 H 687.316 2.11393 -2.12728 0
M  V30 7173 H 684.869 1.0748 -1.1348 0
M  V30 7174 H 685.604 3.23765 0.186225 0
M  V30 7175 H 685.389 3.60141 -1.55051 0
M  V30 7176 H 686.879 4.11612 -0.704631 0
M  V30 7177 N 687.317 1.12792 1.10072 0
M  V30 7178 C 688.542 0.908838 1.86427 0
M  V30 7179 C 688.967 -0.536793 1.80278 0
M  V30 7180 O 688.325 -1.38033 1.17543 0
M  V30 7181 C 688.373 1.39295 3.3261 0
M  V30 7182 O 687.477 0.573846 4.08388 0
M  V30 7183 H 686.818 0.326234 0.578331 0
M  V30 7184 H 689.348 1.50094 1.39043 0
M  V30 7185 H 689.358 1.39366 3.83459 0
M  V30 7186 H 688.033 2.44555 3.36401 0
M  V30 7187 H 686.61 0.640438 3.67359 0
M  V30 7188 N 688.795 -1.27931 0.920396 0
M  V30 7189 C 690.043 -1.94304 0.555906 0
M  V30 7190 C 690.364 -1.72753 -0.904519 0
M  V30 7191 O 689.634 -1.07104 -1.64029 0
M  V30 7192 H 688.214 -0.719001 0.202599 0
M  V30 7193 H 690.876 -1.55785 1.1712 0
M  V30 7194 H 689.972 -3.02806 0.755981 0
M  V30 7195 N 690.273 -0.685099 -1.4193 0
M  V30 7196 C 691.52 -0.211658 -2.01391 0
M  V30 7197 C 691.848 1.18526 -1.54214 0
M  V30 7198 O 691.103 1.81189 -0.739519 0
M  V30 7199 C 691.402 -0.206154 -3.56805 0
M  V30 7200 C 691.068 -1.54915 -4.23453 0
M  V30 7201 C 689.73 -1.91684 -4.41373 0
M  V30 7202 C 692.082 -2.43317 -4.60919 0
M  V30 7203 C 689.41 -3.16461 -4.94034 0
M  V30 7204 C 691.762 -3.67415 -5.14965 0
M  V30 7205 C 690.426 -4.04341 -5.31098 0
M  V30 7206 H 689.696 -0.0774511 -0.736941 0
M  V30 7207 H 692.343 -0.882121 -1.69973 0
M  V30 7208 H 690.648 0.547841 -3.87951 0
M  V30 7209 H 692.345 0.17753 -4.00607 0
M  V30 7210 H 688.935 -1.25314 -4.09871 0
M  V30 7211 H 693.119 -2.16192 -4.46738 0
M  V30 7212 H 688.375 -3.45078 -5.04709 0
M  V30 7213 H 692.549 -4.3611 -5.42938 0
M  V30 7214 H 690.176 -5.01101 -5.71666 0
M  V30 7215 N 691.751 1.51645 -0.429126 0
M  V30 7216 C 692.698 2.27542 0.386446 0
M  V30 7217 C 693.668 1.30786 1.02393 0
M  V30 7218 O 694.853 1.59678 1.0444 0
M  V30 7219 C 691.993 3.11457 1.48623 0
M  V30 7220 C 691.106 4.23196 0.867691 0
M  V30 7221 C 690.241 4.94435 1.94183 0
M  V30 7222 C 689.28 5.98108 1.30129 0
M  V30 7223 N 688.417 6.62786 2.31644 0
M  V30 7224 H 693.257 2.968 -0.267155 0
M  V30 7225 H 690.794 1.46397 -0.143591 0
M  V30 7226 H 692.752 3.58429 2.13506 0
M  V30 7227 H 691.382 2.44329 2.10957 0
M  V30 7228 H 690.434 3.80248 0.107373 0
M  V30 7229 H 691.746 4.97499 0.35997 0
M  V30 7230 H 690.9 5.44914 2.66747 0
M  V30 7231 H 689.639 4.19744 2.48326 0
M  V30 7232 H 688.644 5.4693 0.561082 0
M  V30 7233 H 689.869 6.74751 0.767303 0
M  V30 7234 H 687.815 5.90913 2.84883 0
M  V30 7235 H 687.732 7.32828 1.85741 0
M  V30 7236 H 689 7.17897 3.03717 0
M  V30 7237 N 693.229 0.160201 1.56784 0
M  V30 7238 C 694.457 -0.494165 2.00912 0
M  V30 7239 C 694.872 -1.57548 1.04038 0
M  V30 7240 O 694.229 -1.82457 0.0394581 0
M  V30 7241 C 694.28 -1.08271 3.44905 0
M  V30 7242 O 694.001 -0.0445704 4.38077 0
M  V30 7243 C 695.502 -1.8164 4.04378 0
M  V30 7244 H 692.722 -0.127498 0.658776 0
M  V30 7245 H 695.266 0.258665 2.02858 0
M  V30 7246 H 693.421 -1.78609 3.4377 0
M  V30 7247 H 693.835 -0.477544 5.22322 0
M  V30 7248 H 695.309 -2.18094 5.07089 0
M  V30 7249 H 695.786 -2.70727 3.45838 0
M  V30 7250 H 696.392 -1.15969 4.09184 0
M  V30 7251 N 694.707 -1.5719 -0.113559 0
M  V30 7252 C 695.935 -1.89328 -0.834422 0
M  V30 7253 C 696.35 -0.752018 -1.73177 0
M  V30 7254 O 695.707 0.276912 -1.80387 0
M  V30 7255 C 695.758 -3.20962 -1.66329 0
M  V30 7256 O 695.479 -4.30695 -0.802069 0
M  V30 7257 C 696.98 -3.6684 -2.48884 0
M  V30 7258 H 694.2 -0.626769 -0.239587 0
M  V30 7259 H 696.744 -2.04273 -0.0963195 0
M  V30 7260 H 694.899 -3.0767 -2.35409 0
M  V30 7261 H 695.313 -5.06175 -1.37431 0
M  V30 7262 H 696.787 -4.61692 -3.02563 0
M  V30 7263 H 697.264 -2.93765 -3.26495 0
M  V30 7264 H 697.87 -3.82938 -1.85036 0
M  V30 7265 N 696.185 0.383891 -1.52853 0
M  V30 7266 C 697.148 1.45197 -1.77343 0
M  V30 7267 C 698.148 1.47362 -0.643522 0
M  V30 7268 O 699.338 1.48443 -0.911613 0
M  V30 7269 C 696.47 2.8445 -1.87885 0
M  V30 7270 H 697.663 1.24764 -2.72716 0
M  V30 7271 H 695.216 0.615939 -1.43652 0
M  V30 7272 H 695.951 3.10222 -0.94515 0
M  V30 7273 H 695.736 2.8428 -2.70051 0
M  V30 7274 H 697.226 3.61832 -2.08488 0
M  V30 7275 N 697.663 1.43903 0.642637 0
M  V30 7276 C 698.611 1.50164 1.77634 0
M  V30 7277 C 699.605 0.374294 1.65213 0
M  V30 7278 O 700.811 0.548748 1.71431 0
M  V30 7279 H 697.186 0.470974 0.586249 0
M  V30 7280 H 699.157 2.45603 1.69474 0
M  V30 7281 C 697.906 1.45196 3.15933 0
M  V30 7282 H 697.229 2.31253 3.26132 0
M  V30 7283 H 698.669 1.53638 3.95185 0
M  V30 7284 C 697.128 0.171043 3.36466 0
M  V30 7285 O 697.658 -0.763413 3.94379 0
M  V30 7286 N 695.864 0.077847 2.90496 0
M  V30 7287 H 695.411 0.8391 2.43551 0
M  V30 7288 H 695.369 -0.778473 3.0461 0
M  V30 7289 N 699.141 -0.881989 1.30609 0
M  V30 7290 C 700.369 -1.66711 1.22536 0
M  V30 7291 C 700.784 -1.87614 -0.2113 0
M  V30 7292 O 700.141 -1.42576 -1.13923 0
M  V30 7293 C 700.192 -3.04182 1.95335 0
M  V30 7294 O 699.913 -2.8422 3.33393 0
M  V30 7295 C 701.414 -3.98617 1.93956 0
M  V30 7296 H 698.634 -0.520124 0.423925 0
M  V30 7297 H 701.178 -1.10174 1.72285 0
M  V30 7298 H 699.333 -3.57442 1.49378 0
M  V30 7299 H 699.747 -3.71452 3.70302 0
M  V30 7300 H 701.221 -4.92433 2.49426 0
M  V30 7301 H 701.698 -4.29473 0.919198 0
M  V30 7302 H 702.304 -3.51292 2.39738 0
M  V30 7303 N 700.619 -1.13374 -1.09472 0
M  V30 7304 C 701.566 -0.810682 -2.16094 0
M  V30 7305 C 702.536 0.227003 -1.64541 0
M  V30 7306 O 703.721 0.0993538 -1.90541 0
M  V30 7307 C 700.861 -0.282336 -3.43943 0
M  V30 7308 C 699.974 -1.37902 -4.09398 0
M  V30 7309 C 699.109 -0.809066 -5.25002 0
M  V30 7310 C 698.148 -1.88419 -5.82379 0
M  V30 7311 N 697.285 -1.33221 -6.89345 0
M  V30 7312 H 702.125 -1.72397 -2.43071 0
M  V30 7313 H 699.662 -0.860564 -1.19301 0
M  V30 7314 H 701.62 0.0421189 -4.17179 0
M  V30 7315 H 700.25 0.594083 -3.17286 0
M  V30 7316 H 699.302 -1.82008 -3.34032 0
M  V30 7317 H 700.614 -2.19161 -4.48074 0
M  V30 7318 H 699.768 -0.435867 -6.05132 0
M  V30 7319 H 698.507 0.0346058 -4.87688 0
M  V30 7320 H 697.512 -2.26646 -5.00911 0
M  V30 7321 H 698.737 -2.73125 -6.21755 0
M  V30 7322 H 696.683 -0.510535 -6.5401 0
M  V30 7323 H 696.6 -2.08129 -7.26786 0
M  V30 7324 H 697.868 -0.986565 -7.73232 0
M  V30 7325 N 702.098 1.27442 -0.927168 0
M  V30 7326 C 703.328 1.9821 -0.582775 0
M  V30 7327 C 703.736 1.69361 0.843406 0
M  V30 7328 O 703.079 0.950381 1.57205 0
M  V30 7329 C 703.141 3.52048 -0.728165 0
M  V30 7330 C 702.805 4.04518 -2.12637 0
M  V30 7331 C 703.802 4.17332 -3.10048 0
M  V30 7332 C 701.487 4.38879 -2.44317 0
M  V30 7333 C 703.481 4.6378 -4.37249 0
M  V30 7334 C 701.168 4.85018 -3.71753 0
M  V30 7335 C 702.166 4.97428 -4.68033 0
M  V30 7336 O 701.854 5.42556 -5.93202 0
M  V30 7337 H 701.586 0.639314 -0.219667 0
M  V30 7338 H 704.14 1.63272 -1.24626 0
M  V30 7339 H 702.37 3.86699 -0.00758143 0
M  V30 7340 H 704.059 4.04033 -0.388906 0
M  V30 7341 H 704.825 3.91046 -2.86894 0
M  V30 7342 H 700.704 4.28462 -1.70121 0
M  V30 7343 H 704.248 4.73382 -5.12402 0
M  V30 7344 H 700.145 5.10746 -3.94726 0
M  V30 7345 H 700.913 5.60811 -5.96182 0
M  V30 7346 N 703.576 0.692616 1.41565 0
M  V30 7347 C 704.987 0.297478 1.84315 0
M  V30 7348 C 705.338 -1.16379 1.57957 0
M  V30 7349 O 704.463 -1.89303 1.0485 0
M  V30 7350 C 705.058 0.533136 3.34579 0
M  V30 7351 C 703.617 0.191944 3.7591 0
M  V30 7352 C 702.764 0.816873 2.64995 0
M  V30 7353 H 705.715 0.893488 1.31158 0
M  V30 7354 H 705.736 -0.209105 3.79925 0
M  V30 7355 H 705.248 1.59674 3.53731 0
M  V30 7356 H 703.349 -0.867512 3.6236 0
M  V30 7357 H 703.462 0.644902 4.7474 0
M  V30 7358 H 701.826 0.246715 2.53502 0
M  V30 7359 H 702.609 1.88429 2.86966 0
M  V30 7360 N 705.054 -1.51416 0.437162 0
M  V30 7361 C 706.47 -1.59349 0.0894459 0
M  V30 7362 C 706.67 -1.44809 -1.40116 0
M  V30 7363 O 705.726 -1.28924 -2.17106 0
M  V30 7364 C 707.039 -2.9446 0.609398 0
M  V30 7365 C 708.587 -3.07769 0.569824 0
M  V30 7366 C 709.062 -4.45404 1.06675 0
M  V30 7367 N 710.553 -4.51723 1.02473 0
M  V30 7368 C 711.288 -5.56544 1.3801 0
M  V30 7369 N 710.784 -6.68784 1.80831 0
M  V30 7370 N 712.577 -5.46901 1.29828 0
M  V30 7371 H 704.728 -1.59112 1.40703 0
M  V30 7372 H 706.991 -0.750031 0.579791 0
M  V30 7373 H 706.697 -3.1047 1.65231 0
M  V30 7374 H 706.571 -3.77184 0.0342236 0
M  V30 7375 H 708.958 -2.91428 -0.464107 0
M  V30 7376 H 709.039 -2.26885 1.1814 0
M  V30 7377 H 708.683 -4.62492 2.09914 0
M  V30 7378 H 708.613 -5.24827 0.431712 0
M  V30 7379 H 711.104 -3.71165 0.710258 0
M  V30 7380 H 711.417 -7.44787 2.06185 0
M  V30 7381 H 709.762 -6.69992 1.84757 0
M  V30 7382 H 712.953 -4.581 0.962397 0
M  V30 7383 H 713.126 -6.2848 1.57851 0
M  V30 7384 N 706.532 -0.168513 -1.56696 0
M  V30 7385 C 707.757 0.486688 -2.01609 0
M  V30 7386 C 708.182 1.56203 -1.04796 0
M  V30 7387 O 707.54 1.8128 -0.0270596 0
M  V30 7388 C 707.588 1.04451 -3.45141 0
M  V30 7389 O 706.692 2.15862 -3.51393 0
M  V30 7390 H 706.033 0.116831 -0.653641 0
M  V30 7391 H 708.563 -0.271579 -2.0279 0
M  V30 7392 H 708.573 1.36782 -3.84389 0
M  V30 7393 H 707.248 0.257155 -4.15104 0
M  V30 7394 H 705.825 1.84597 -3.24004 0
M  V30 7395 N 708.01 1.57248 0.105221 0
M  V30 7396 C 708.92 2.04653 1.14693 0
M  V30 7397 C 709.936 0.969488 1.44489 0
M  V30 7398 O 711.112 1.28196 1.55331 0
M  V30 7399 C 708.177 2.45297 2.45011 0
M  V30 7400 C 707.238 3.67148 2.22489 0
M  V30 7401 C 706.471 4.05844 3.46592 0
M  V30 7402 O 706.694 3.44736 4.54437 0
M  V30 7403 O 705.628 4.98862 3.36779 0
M  V30 7404 H 709.454 2.93663 0.774336 0
M  V30 7405 H 707.039 1.45998 0.31701 0
M  V30 7406 H 708.921 2.72112 3.21766 0
M  V30 7407 H 707.596 1.59429 2.81717 0
M  V30 7408 H 706.503 3.45463 1.43547 0
M  V30 7409 H 707.836 4.53764 1.9068 0
M  V30 7410 N 709.488 -0.375779 1.53054 0
M  V30 7411 C 710.418 -1.46598 1.81745 0
M  V30 7412 C 711.399 -1.56337 0.670286 0
M  V30 7413 O 712.584 -1.71071 0.919158 0
M  V30 7414 C 709.714 -2.84058 1.99821 0
M  V30 7415 C 708.668 -2.8915 3.15557 0
M  V30 7416 C 707.994 -4.29187 3.18908 0
M  V30 7417 C 709.294 -2.57595 4.54359 0
M  V30 7418 H 710.988 -1.22837 2.73041 0
M  V30 7419 H 708.534 -0.589485 1.31381 0
M  V30 7420 H 710.487 -3.60342 2.18475 0
M  V30 7421 H 709.211 -3.09184 1.05226 0
M  V30 7422 H 707.87 -2.15316 2.96706 0
M  V30 7423 H 707.518 -4.51374 2.2197 0
M  V30 7424 H 707.218 -4.33512 3.96662 0
M  V30 7425 H 708.742 -5.07359 3.39734 0
M  V30 7426 H 710.156 -3.23595 4.73243 0
M  V30 7427 H 708.553 -2.73252 5.34279 0
M  V30 7428 H 709.623 -1.52882 4.60169 0
M  V30 7429 N 710.966 -1.44241 -0.634997 0
M  V30 7430 C 712.382 -1.28043 -0.952742 0
M  V30 7431 C 712.582 -0.21338 -2.00367 0
M  V30 7432 O 711.638 0.402042 -2.49279 0
M  V30 7433 C 712.951 -2.65076 -1.41968 0
M  V30 7434 C 714.499 -2.72755 -1.53537 0
M  V30 7435 C 714.974 -4.10249 -2.03616 0
M  V30 7436 N 716.465 -4.12406 -2.10892 0
M  V30 7437 C 717.2 -5.15641 -2.50803 0
M  V30 7438 N 716.696 -6.29239 -2.89879 0
M  V30 7439 N 718.489 -5.02995 -2.50903 0
M  V30 7440 H 710.64 -2.12315 0.060098 0
M  V30 7441 H 712.903 -0.947326 -0.0357325 0
M  V30 7442 H 712.609 -3.44213 -0.721804 0
M  V30 7443 H 712.483 -2.91704 -2.39141 0
M  V30 7444 H 714.87 -1.93939 -2.22422 0
M  V30 7445 H 714.951 -2.49872 -0.547496 0
M  V30 7446 H 714.595 -4.8954 -1.35327 0
M  V30 7447 H 714.525 -4.30507 -3.03268 0
M  V30 7448 H 717.016 -3.30417 -1.83393 0
M  V30 7449 H 717.329 -7.03827 -3.19135 0
M  V30 7450 H 715.674 -6.32683 -2.8764 0
M  V30 7451 H 718.865 -4.13306 -2.19763 0
M  V30 7452 H 719.038 -5.83574 -2.81683 0
M  V30 7453 N 712.444 0.87505 -1.31075 0
M  V30 7454 C 713.354 2.01441 -1.20244 0
M  V30 7455 C 714.37 1.73584 -0.120227 0
M  V30 7456 O 715.546 1.98559 -0.337063 0
M  V30 7457 C 712.611 3.34675 -0.905199 0
M  V30 7458 C 711.672 3.75889 -2.0738 0
M  V30 7459 C 710.905 5.02764 -1.79064 0
M  V30 7460 O 711.128 5.65795 -0.723318 0
M  V30 7461 O 710.062 5.40623 -2.64594 0
M  V30 7462 H 713.888 2.13509 -2.1598 0
M  V30 7463 H 711.473 1.00257 -1.10765 0
M  V30 7464 H 713.355 4.1458 -0.755057 0
M  V30 7465 H 712.03 3.23692 0.0221695 0
M  V30 7466 H 710.937 2.96645 -2.27931 0
M  V30 7467 H 712.27 3.91489 -2.98324 0
M  V30 7468 N 713.922 1.13953 1.08869 0
M  V30 7469 C 714.855 0.765765 2.14968 0
M  V30 7470 C 715.833 -0.250689 1.60656 0
M  V30 7471 O 717.017 -0.140852 1.87973 0
M  V30 7472 C 714.144 0.136146 3.38426 0
M  V30 7473 C 713.19 1.12201 4.11477 0
M  V30 7474 S 714.023 2.65711 4.64928 0
M  V30 7475 C 715.179 2.04125 5.91679 0
M  V30 7476 H 715.412 1.66444 2.46341 0
M  V30 7477 H 712.945 0.960263 1.20906 0
M  V30 7478 H 714.903 -0.220712 4.09906 0
M  V30 7479 H 713.564 -0.739887 3.05261 0
M  V30 7480 H 712.757 0.629398 5.00055 0
M  V30 7481 H 712.359 1.42262 3.45886 0
M  V30 7482 H 714.651 1.39381 6.63008 0
M  V30 7483 H 715.594 2.90808 6.45629 0
M  V30 7484 H 716.002 1.4905 5.44467 0
M  V30 7485 N 715.4 -1.26948 0.933913 0
M  V30 7486 C 716.33 -2.29017 0.45534 0
M  V30 7487 C 717.311 -1.62961 -0.487605 0
M  V30 7488 O 718.496 -1.90223 -0.391022 0
M  V30 7489 C 715.626 -3.46112 -0.287015 0
M  V30 7490 C 714.58 -4.24205 0.568682 0
M  V30 7491 C 713.906 -5.3384 -0.303206 0
M  V30 7492 C 715.206 -4.88954 1.83633 0
M  V30 7493 H 716.9 -2.69298 1.30839 0
M  V30 7494 H 714.446 -1.29459 0.630579 0
M  V30 7495 H 716.399 -4.16622 -0.6328 0
M  V30 7496 H 715.123 -3.04765 -1.17414 0
M  V30 7497 H 713.782 -3.5545 0.897261 0
M  V30 7498 H 713.43 -4.88734 -1.18947 0
M  V30 7499 H 713.13 -5.86998 0.265879 0
M  V30 7500 H 714.654 -6.0719 -0.644423 0
M  V30 7501 H 716.068 -5.51717 1.55823 0
M  V30 7502 H 714.465 -5.52198 2.34941 0
M  V30 7503 H 715.535 -4.12305 2.55211 0
M  V30 7504 N 716.879 -0.700114 -1.41195 0
M  V30 7505 C 718.156 -0.160836 -1.94938 0
M  V30 7506 C 718.536 1.33014 -1.63922 0
M  V30 7507 O 717.884 2.07878 -0.948636 0
M  V30 7508 C 718.094 -0.456991 -3.45995 0
M  V30 7509 C 719.442 -0.387207 -4.22831 0
M  V30 7510 O 720.466 -0.392164 -3.54035 0
M  V30 7511 O 719.325 -0.351267 -5.4537 0
M  V30 7512 H 716.419 -0.0176304 -0.826812 0
M  V30 7513 H 718.965 -0.776586 -1.50888 0
M  V30 7514 H 717.737 -1.48884 -3.61869 0
M  V30 7515 H 717.36 0.189503 -3.97148 0
M  V30 7516 N 718.357 1.51182 -0.445186 0
M  V30 7517 C 719.768 1.86693 0.0160999 0
M  V30 7518 C 720.119 1.36183 1.4124 0
M  V30 7519 O 719.244 0.715895 2.04215 0
M  V30 7520 C 719.839 3.38781 0.0359918 0
M  V30 7521 C 718.398 3.73799 0.441715 0
M  V30 7522 C 717.545 2.74947 -0.360511 0
M  V30 7523 H 720.496 1.44294 -0.660674 0
M  V30 7524 H 720.517 3.71026 0.843813 0
M  V30 7525 H 720.029 3.75513 -0.980378 0
M  V30 7526 H 718.13 3.42659 1.4634 0
M  V30 7527 H 718.243 4.78829 0.16106 0
M  V30 7528 H 716.607 2.54047 0.182269 0
M  V30 7529 H 717.39 3.14521 -1.3759 0
M  V30 7530 N 719.835 0.176821 1.56605 0
M  V30 7531 C 721.112 -0.513365 1.88743 0
M  V30 7532 C 721.492 -1.80929 1.08757 0
M  V30 7533 O 720.84 -2.27765 0.183127 0
M  V30 7534 C 721.05 -0.749925 3.40848 0
M  V30 7535 C 722.398 -1.07747 4.10701 0
M  V30 7536 O 723.422 -0.838277 3.46196 0
M  V30 7537 O 722.281 -1.52901 5.24675 0
M  V30 7538 H 719.375 -0.265296 0.783292 0
M  V30 7539 H 721.921 0.215669 1.68324 0
M  V30 7540 H 720.693 0.16599 3.90948 0
M  V30 7541 H 720.316 -1.53208 3.66897 0
M  V30 7542 N 721.313 -1.57302 -0.09688 0
M  V30 7543 C 722.261 -2.02942 -1.13654 0
M  V30 7544 C 723.255 -0.930173 -1.41577 0
M  V30 7545 O 724.461 -1.11535 -1.41279 0
M  V30 7546 H 720.836 -0.646726 -0.383731 0
M  V30 7547 H 722.807 -2.89452 -0.725267 0
M  V30 7548 C 721.556 -2.46815 -2.44903 0
M  V30 7549 H 720.879 -3.30979 -2.24261 0
M  V30 7550 H 722.319 -2.82527 -3.16156 0
M  V30 7551 C 720.778 -1.34071 -3.09074 0
M  V30 7552 O 721.308 -0.668856 -3.96092 0
M  V30 7553 N 719.514 -1.09214 -2.69296 0
M  V30 7554 H 719.061 -1.64029 -1.98626 0
M  V30 7555 H 719.019 -0.339785 -3.12559 0
M  V30 7556 N 722.791 0.367657 -1.53252 0
M  V30 7557 C 723.741 1.45035 -1.75923 0
M  V30 7558 C 724.725 1.48736 -0.613719 0
M  V30 7559 O 725.917 1.54012 -0.872313 0
M  V30 7560 C 723.046 2.82493 -1.9507 0
M  V30 7561 C 722.132 2.83279 -3.15617 0
M  V30 7562 N 722.523 2.53712 -4.37566 0
M  V30 7563 C 720.821 3.1444 -3.16297 0
M  V30 7564 C 721.522 2.62123 -5.19294 0
M  V30 7565 N 720.498 2.96747 -4.55458 0
M  V30 7566 H 724.3 1.21035 -2.6782 0
M  V30 7567 H 721.814 0.575822 -1.51849 0
M  V30 7568 H 723.811 3.60473 -2.0944 0
M  V30 7569 H 722.471 3.07459 -1.044 0
M  V30 7570 H 723.482 2.27344 -4.65333 0
M  V30 7571 H 720.159 3.44733 -2.35511 0
M  V30 7572 H 721.549 2.42628 -6.26563 0
M  V30 7573 N 724.269 1.44576 0.627338 0
M  V30 7574 C 725.232 1.51372 1.72102 0
M  V30 7575 C 726.232 0.395329 1.55865 0
M  V30 7576 O 727.422 0.658094 1.61291 0
M  V30 7577 C 724.554 1.39129 3.11217 0
M  V30 7578 H 725.747 2.48798 1.6745 0
M  V30 7579 H 723.3 1.31724 0.841336 0
M  V30 7580 H 724.035 0.428114 3.21462 0
M  V30 7581 H 723.82 2.20229 3.24409 0
M  V30 7582 H 725.31 1.46874 3.90919 0
M  V30 7583 N 725.747 -0.868086 1.31537 0
M  V30 7584 C 726.993 -1.62367 1.2151 0
M  V30 7585 C 727.326 -1.92883 -0.225819 0
M  V30 7586 O 726.601 -1.56176 -1.15927 0
M  V30 7587 C 726.884 -2.95268 2.06129 0
M  V30 7588 C 726.737 -2.71619 3.58529 0
M  V30 7589 C 728.056 -3.96391 1.91212 0
M  V30 7590 H 725.175 -0.589178 0.442762 0
M  V30 7591 H 727.817 -1.00336 1.61347 0
M  V30 7592 H 725.967 -3.4821 1.72284 0
M  V30 7593 H 727.639 -2.25334 4.0252 0
M  V30 7594 H 725.882 -2.05817 3.81866 0
M  V30 7595 H 726.553 -3.66192 4.13047 0
M  V30 7596 H 729.029 -3.52663 2.20834 0
M  V30 7597 H 727.905 -4.87263 2.52718 0
M  V30 7598 H 728.166 -4.33335 0.875953 0
M  V30 7599 N 727.225 -1.14528 -1.08264 0
M  V30 7600 C 728.173 -0.829201 -2.17318 0
M  V30 7601 C 729.167 0.193521 -1.68291 0
M  V30 7602 O 730.373 0.0494744 -1.79932 0
M  V30 7603 H 726.748 -0.250435 -0.709074 0
M  V30 7604 H 728.719 -1.75683 -2.41201 0
M  V30 7605 C 727.468 -0.324663 -3.46181 0
M  V30 7606 H 726.791 -1.10299 -3.84284 0
M  V30 7607 H 728.231 -0.142059 -4.23762 0
M  V30 7608 C 726.69 0.952033 -3.23169 0
M  V30 7609 O 727.22 2.02549 -3.46896 0
M  V30 7610 N 725.426 0.887854 -2.76705 0
M  V30 7611 H 724.973 0.0141402 -2.57596 0
M  V30 7612 H 724.931 1.74263 -2.61686 0
M  V30 7613 N 728.703 1.26451 -0.940633 0
M  V30 7614 C 729.949 1.94401 -0.598303 0
M  V30 7615 C 730.304 1.72449 0.853178 0
M  V30 7616 O 729.597 1.0506 1.60228 0
M  V30 7617 C 729.791 3.46503 -0.875794 0
M  V30 7618 C 729.62 3.83247 -2.3527 0
M  V30 7619 C 728.39 4.06032 -3.00776 0
M  V30 7620 C 730.588 3.91841 -3.33114 0
M  V30 7621 N 728.57 4.29656 -4.38485 0
M  V30 7622 C 729.941 4.19991 -4.56078 0
M  V30 7623 C 731.996 3.74466 -3.28146 0
M  V30 7624 C 730.699 4.32574 -5.74693 0
M  V30 7625 C 732.725 3.88281 -4.46085 0
M  V30 7626 C 732.087 4.16829 -5.67831 0
M  V30 7627 H 728.186 0.734168 -0.269297 0
M  V30 7628 H 730.77 1.52541 -1.20992 0
M  V30 7629 H 728.941 3.87292 -0.293223 0
M  V30 7630 H 730.673 4.01664 -0.494788 0
M  V30 7631 H 727.428 4.01369 -2.51396 0
M  V30 7632 H 727.852 4.45501 -5.09762 0
M  V30 7633 H 732.494 3.51424 -2.35077 0
M  V30 7634 H 730.212 4.54438 -6.68215 0
M  V30 7635 H 733.798 3.76241 -4.43773 0
M  V30 7636 H 732.678 4.27284 -6.5757 0
M  V30 7637 N 730.181 0.707592 1.40822 0
M  V30 7638 C 731.429 0.243189 2.00632 0
M  V30 7639 C 731.75 -1.16512 1.56365 0
M  V30 7640 O 731.02 -1.78841 0.799553 0
M  V30 7641 H 729.6 0.0869203 0.741926 0
M  V30 7642 H 732.262 0.911438 1.72275 0
M  V30 7643 H 731.358 0.270014 3.1093 0
M  V30 7644 N 731.66 -1.50943 0.453197 0
M  V30 7645 C 732.906 -2.03153 -0.100277 0
M  V30 7646 C 733.261 -1.33032 -1.38997 0
M  V30 7647 O 732.554 -0.441423 -1.86446 0
M  V30 7648 C 732.748 -3.55603 -0.357944 0
M  V30 7649 C 732.577 -4.40495 0.905223 0
M  V30 7650 C 731.347 -4.84247 1.44337 0
M  V30 7651 C 733.545 -4.81931 1.79575 0
M  V30 7652 N 731.527 -5.53403 2.65742 0
M  V30 7653 C 732.898 -5.50314 2.85577 0
M  V30 7654 C 734.953 -4.63903 1.80828 0
M  V30 7655 C 733.656 -6.02581 3.92797 0
M  V30 7656 C 735.682 -5.17097 2.86993 0
M  V30 7657 C 735.044 -5.8544 3.91713 0
M  V30 7658 H 731.143 -0.781995 0.00287755 0
M  V30 7659 H 733.727 -1.84651 0.617411 0
M  V30 7660 H 731.898 -3.74087 -1.04467 0
M  V30 7661 H 733.63 -3.9447 -0.904175 0
M  V30 7662 H 730.385 -4.63029 0.995045 0
M  V30 7663 H 730.809 -5.92598 3.27348 0
M  V30 7664 H 735.451 -4.10512 1.0119 0
M  V30 7665 H 733.169 -6.55018 4.73262 0
M  V30 7666 H 736.755 -5.0499 2.88923 0
M  V30 7667 H 735.635 -6.25861 4.72512 0
M  V30 7668 N 733.138 -0.185124 -1.56509 0
M  V30 7669 C 734.07 0.771401 -2.15829 0
M  V30 7670 C 735.083 1.18392 -1.11747 0
M  V30 7671 O 736.272 1.12137 -1.38879 0
M  V30 7672 C 733.372 2.05169 -2.69739 0
M  V30 7673 C 732.545 1.80056 -3.98621 0
M  V30 7674 C 731.604 2.92435 -4.37456 0
M  V30 7675 O 730.63 2.62473 -5.05071 0
M  V30 7676 N 731.832 4.20554 -4.00143 0
M  V30 7677 H 734.597 0.264184 -2.98533 0
M  V30 7678 H 732.158 -0.00281069 -1.619 0
M  V30 7679 H 734.15 2.7947 -2.92709 0
M  V30 7680 H 732.72 2.47041 -1.91545 0
M  V30 7681 H 731.94 0.895862 -3.83885 0
M  V30 7682 H 733.228 1.60662 -4.82768 0
M  V30 7683 H 732.626 4.47753 -3.45736 0
M  V30 7684 H 731.183 4.91514 -4.28085 0
M  V30 7685 N 734.616 1.57351 0.0885366 0
M  V30 7686 C 735.864 1.86051 0.789262 0
M  V30 7687 C 736.185 0.774763 1.78948 0
M  V30 7688 O 735.455 -0.198324 1.94894 0
M  V30 7689 H 734.035 0.686508 0.294475 0
M  V30 7690 H 736.697 1.94779 0.0686055 0
M  V30 7691 H 735.793 2.83007 1.31581 0
M  V30 7692 N 736.094 -0.359525 1.53444 0
M  V30 7693 C 737.322 -1.12198 1.73837 0
M  V30 7694 C 737.737 -1.82854 0.470107 0
M  V30 7695 O 737.094 -1.73781 -0.557349 0
M  V30 7696 C 737.145 -2.14769 2.90786 0
M  V30 7697 O 736.866 -1.46989 4.12706 0
M  V30 7698 C 738.367 -3.03514 3.231 0
M  V30 7699 H 735.587 -0.33524 0.581253 0
M  V30 7700 H 738.131 -0.416598 2.00212 0
M  V30 7701 H 736.286 -2.80896 2.66788 0
M  V30 7702 H 736.7 -2.15378 4.78239 0
M  V30 7703 H 738.174 -3.71453 4.08322 0
M  V30 7704 H 738.651 -3.68658 2.38721 0
M  V30 7705 H 739.257 -2.42996 3.49046 0
M  V30 7706 N 737.572 -1.44907 -0.619662 0
M  V30 7707 C 738.522 -1.49085 -1.72504 0
M  V30 7708 C 739.506 -0.355372 -1.56926 0
M  V30 7709 O 740.698 -0.601441 -1.66468 0
M  V30 7710 C 737.827 -1.44889 -3.11227 0
M  V30 7711 C 736.913 -2.63593 -3.32234 0
M  V30 7712 N 737.304 -3.88775 -3.23555 0
M  V30 7713 C 735.602 -2.59033 -3.63067 0
M  V30 7714 C 736.303 -4.67932 -3.45564 0
M  V30 7715 N 735.279 -3.9919 -3.68983 0
M  V30 7716 H 739.081 -2.43706 -1.6427 0
M  V30 7717 H 736.595 -1.4003 -0.82252 0
M  V30 7718 H 738.592 -1.45966 -3.90512 0
M  V30 7719 H 737.252 -0.513143 -3.2062 0
M  V30 7720 H 738.263 -4.20574 -3.02221 0
M  V30 7721 H 734.94 -1.7431 -3.79371 0
M  V30 7722 H 736.33 -5.76952 -3.44349 0
M  V30 7723 N 739.05 0.861098 -1.31996 0
M  V30 7724 C 739.96 2.00154 -1.22374 0
M  V30 7725 C 740.976 1.73447 -0.138631 0
M  V30 7726 O 742.152 1.98191 -0.358104 0
M  V30 7727 C 739.217 3.33696 -0.940645 0
M  V30 7728 C 738.278 3.73668 -2.11355 0
M  V30 7729 C 737.511 5.00837 -1.84386 0
M  V30 7730 O 737.734 5.64996 -0.783287 0
M  V30 7731 O 736.668 5.37787 -2.70313 0
M  V30 7732 H 740.494 2.11207 -2.18233 0
M  V30 7733 H 738.079 0.990768 -1.11822 0
M  V30 7734 H 739.961 4.13756 -0.798987 0
M  V30 7735 H 738.636 3.23698 -0.0121636 0
M  V30 7736 H 737.543 2.94211 -2.31065 0
M  V30 7737 H 738.876 3.88303 -3.02459 0
M  V30 7738 N 740.528 1.15101 1.07655 0
M  V30 7739 C 741.461 0.788522 2.14144 0
M  V30 7740 C 742.439 -0.233635 1.60913 0
M  V30 7741 O 743.623 -0.120908 1.88112 0
M  V30 7742 C 740.75 0.172033 3.38263 0
M  V30 7743 C 739.796 1.16559 4.10264 0
M  V30 7744 S 740.629 2.70627 4.62084 0
M  V30 7745 C 741.785 2.10389 5.8948 0
M  V30 7746 H 742.018 1.69047 2.44561 0
M  V30 7747 H 739.551 0.973033 1.19881 0
M  V30 7748 H 741.509 -0.177223 4.10117 0
M  V30 7749 H 740.17 -0.707468 3.06029 0
M  V30 7750 H 739.363 0.6824 4.99359 0
M  V30 7751 H 738.965 1.45923 3.44358 0
M  V30 7752 H 741.257 1.46405 6.61492 0
M  V30 7753 H 742.2 2.97639 6.42508 0
M  V30 7754 H 742.608 1.54816 5.42856 0
M  V30 7755 N 742.006 -1.2595 0.947325 0
M  V30 7756 C 742.954 -2.28152 0.452687 0
M  V30 7757 C 743.948 -1.62655 -0.473239 0
M  V30 7758 O 745.154 -1.76549 -0.350774 0
M  V30 7759 H 741.529 -0.741049 0.12787 0
M  V30 7760 H 743.5 -2.67267 1.32707 0
M  V30 7761 C 742.249 -3.46719 -0.26098 0
M  V30 7762 H 741.572 -3.97345 0.442352 0
M  V30 7763 H 743.012 -4.20135 -0.571208 0
M  V30 7764 C 741.471 -3.02605 -1.48094 0
M  V30 7765 O 742.001 -3.07979 -2.57899 0
M  V30 7766 N 740.207 -2.57877 -1.33969 0
M  V30 7767 H 739.754 -2.53704 -0.446295 0
M  V30 7768 H 739.712 -2.28725 -2.15713 0
M  V30 7769 N 743.484 -0.715051 -1.40445 0
M  V30 7770 C 744.414 -0.0768699 -2.33373 0
M  V30 7771 C 745.395 0.746109 -1.52863 0
M  V30 7772 O 746.58 0.695142 -1.81332 0
M  V30 7773 C 743.71 0.846014 -3.36838 0
M  V30 7774 C 742.664 0.128694 -4.27806 0
M  V30 7775 C 741.99 1.16726 -5.21804 0
M  V30 7776 C 743.29 -1.01679 -5.12307 0
M  V30 7777 H 744.984 -0.853061 -2.8699 0
M  V30 7778 H 742.53 -0.41167 -1.3799 0
M  V30 7779 H 744.483 1.30185 -4.00786 0
M  V30 7780 H 743.207 1.6541 -2.81615 0
M  V30 7781 H 741.866 -0.307314 -3.6531 0
M  V30 7782 H 741.514 1.96838 -4.62887 0
M  V30 7783 H 741.214 0.692188 -5.83509 0
M  V30 7784 H 742.738 1.62321 -5.88629 0
M  V30 7785 H 744.152 -0.640337 -5.69713 0
M  V30 7786 H 742.549 -1.4202 -5.83053 0
M  V30 7787 H 743.619 -1.84769 -4.48317 0
M  V30 7788 N 744.962 1.50701 -0.461195 0
M  V30 7789 C 746.378 1.59187 -0.114786 0
M  V30 7790 C 746.578 1.4702 1.37794 0
M  V30 7791 O 745.634 1.32361 2.15027 0
M  V30 7792 C 746.947 2.93453 -0.656167 0
M  V30 7793 C 748.495 3.06824 -0.618715 0
M  V30 7794 C 748.97 4.4365 -1.13747 0
M  V30 7795 N 750.461 4.50035 -1.09646 0
M  V30 7796 C 751.196 5.54278 -1.46846 0
M  V30 7797 N 750.692 6.65822 -1.91448 0
M  V30 7798 N 752.485 5.44767 -1.38512 0
M  V30 7799 H 744.636 1.56853 -1.43216 0
M  V30 7800 H 746.899 0.740712 -0.59165 0
M  V30 7801 H 746.605 3.07802 -1.7015 0
M  V30 7802 H 746.479 3.77082 -0.0942261 0
M  V30 7803 H 748.866 2.92129 0.417685 0
M  V30 7804 H 748.947 2.24976 -1.21734 0
M  V30 7805 H 748.591 4.59093 -2.17245 0
M  V30 7806 H 748.521 5.24074 -0.515153 0
M  V30 7807 H 751.012 3.69988 -0.769217 0
M  V30 7808 H 751.325 7.41413 -2.18007 0
M  V30 7809 H 749.67 6.66968 -1.95393 0
M  V30 7810 H 752.861 4.56511 -1.03516 0
M  V30 7811 H 753.034 6.25889 -1.6783 0
M  V30 7812 N 746.441 0.193421 1.56409 0
M  V30 7813 C 747.689 -0.444908 1.97142 0
M  V30 7814 C 748.01 -1.62268 1.08139 0
M  V30 7815 O 747.28 -1.95307 0.152326 0
M  V30 7816 H 745.86 -0.16736 0.728011 0
M  V30 7817 H 748.522 0.279763 1.92882 0
M  V30 7818 H 747.618 -0.790159 3.01932 0
M  V30 7819 N 747.919 -1.57396 -0.0801906 0
M  V30 7820 C 748.882 -2.02133 -1.0805 0
M  V30 7821 C 749.882 -0.91707 -1.32085 0
M  V30 7822 O 751.072 -1.18217 -1.27947 0
M  V30 7823 C 748.204 -2.39479 -2.42616 0
M  V30 7824 H 749.397 -2.91733 -0.6951 0
M  V30 7825 H 746.95 -1.52869 -0.325677 0
M  V30 7826 H 747.685 -1.52879 -2.86004 0
M  V30 7827 H 747.47 -3.20052 -2.26515 0
M  V30 7828 H 748.96 -2.74697 -3.14534 0
M  V30 7829 N 749.397 0.351382 -1.53633 0
M  V30 7830 C 750.643 1.09411 -1.70754 0
M  V30 7831 C 750.976 1.88544 -0.465293 0
M  V30 7832 O 750.251 1.86923 0.537608 0
M  V30 7833 C 750.534 2.04173 -2.96623 0
M  V30 7834 C 750.387 1.28556 -4.31038 0
M  V30 7835 C 751.706 3.04102 -3.18136 0
M  V30 7836 H 748.825 0.396373 -0.621335 0
M  V30 7837 H 751.467 0.373464 -1.86293 0
M  V30 7838 H 749.617 2.65625 -2.83506 0
M  V30 7839 H 751.289 0.697786 -4.55992 0
M  V30 7840 H 749.532 0.587498 -4.29803 0
M  V30 7841 H 750.203 1.97989 -5.15271 0
M  V30 7842 H 752.679 2.5276 -3.30532 0
M  V30 7843 H 751.555 3.67616 -4.07615 0
M  V30 7844 H 751.816 3.75053 -2.34068 0
M  V30 7845 N 750.875 1.45233 0.611969 0
M  V30 7846 C 751.808 1.48056 1.73651 0
M  V30 7847 C 752.786 0.337373 1.59061 0
M  V30 7848 O 753.97 0.537222 1.80683 0
M  V30 7849 C 751.097 1.33144 3.11433 0
M  V30 7850 C 750.143 2.51272 3.44623 0
M  V30 7851 S 750.976 4.13754 3.39953 0
M  V30 7852 C 752.132 4.013 4.80322 0
M  V30 7853 H 752.365 2.43205 1.70993 0
M  V30 7854 H 749.898 1.32763 0.788246 0
M  V30 7855 H 751.856 1.25228 3.90932 0
M  V30 7856 H 750.517 0.394734 3.1161 0
M  V30 7857 H 749.71 2.36753 4.44932 0
M  V30 7858 H 749.312 2.56027 2.72629 0
M  V30 7859 H 751.604 3.66174 5.7002 0
M  V30 7860 H 752.547 5.01506 4.99897 0
M  V30 7861 H 752.955 3.3303 4.55797 0
M  V30 7862 N 752.353 -0.854086 1.3245 0
M  V30 7863 C 753.303 -1.9508 1.18016 0
M  V30 7864 C 754.287 -1.60665 0.0869417 0
M  V30 7865 O 755.479 -1.74201 0.313505 0
M  V30 7866 C 752.608 -3.3113 0.905961 0
M  V30 7867 C 751.694 -3.71763 2.04091 0
M  V30 7868 N 752.085 -3.84218 3.28953 0
M  V30 7869 C 750.383 -4.01393 1.94421 0
M  V30 7870 C 751.084 -4.192 4.03294 0
M  V30 7871 N 750.06 -4.30749 3.31596 0
M  V30 7872 H 753.862 -2.02843 2.12678 0
M  V30 7873 H 751.376 -1.04588 1.24238 0
M  V30 7874 H 753.373 -4.09471 0.783508 0
M  V30 7875 H 752.033 -3.24684 -0.0322715 0
M  V30 7876 H 753.044 -3.68524 3.63883 0
M  V30 7877 H 749.721 -4.03246 1.08162 0
M  V30 7878 H 751.111 -4.36301 5.1097 0
M  V30 7879 N 753.831 -1.1567 -1.07043 0
M  V30 7880 C 755.077 -0.9349 -1.79965 0
M  V30 7881 C 755.41 0.536464 -1.86643 0
M  V30 7882 O 754.685 1.39781 -1.35247 0
M  V30 7883 C 754.968 -1.55371 -3.24857 0
M  V30 7884 C 754.821 -3.09589 -3.26305 0
M  V30 7885 C 756.14 -1.24209 -4.22209 0
M  V30 7886 H 753.259 -0.341061 -0.653335 0
M  V30 7887 H 755.901 -1.42883 -1.25237 0
M  V30 7888 H 754.051 -1.13368 -3.71591 0
M  V30 7889 H 755.723 -3.60521 -2.87789 0
M  V30 7890 H 753.966 -3.43315 -2.65174 0
M  V30 7891 H 754.637 -3.48002 -4.28484 0
M  V30 7892 H 757.113 -1.60548 -3.8388 0
M  V30 7893 H 755.989 -1.70119 -5.21872 0
M  V30 7894 H 756.25 -0.15964 -4.41812 0
M  V30 7895 N 755.309 1.25446 -0.953992 0
M  V30 7896 C 756.534 1.97755 -0.625129 0
M  V30 7897 C 756.959 1.70437 0.795787 0
M  V30 7898 O 756.317 0.95992 1.53803 0
M  V30 7899 C 756.365 3.49463 -0.889251 0
M  V30 7900 O 755.469 4.12387 0.0322757 0
M  V30 7901 H 754.81 0.61998 -0.237742 0
M  V30 7902 H 757.34 1.59582 -1.28041 0
M  V30 7903 H 757.35 3.99772 -0.815263 0
M  V30 7904 H 756.025 3.68676 -1.92487 0
M  V30 7905 H 754.602 3.72782 -0.0938625 0
M  V30 7906 N 756.787 0.722489 1.40064 0
M  V30 7907 C 758.198 0.336507 1.83642 0
M  V30 7908 C 758.549 -1.13002 1.6039 0
M  V30 7909 O 757.674 -1.87036 1.08842 0
M  V30 7910 C 758.269 0.603985 3.33373 0
M  V30 7911 C 756.828 0.271637 3.75419 0
M  V30 7912 C 755.975 0.872898 2.63203 0
M  V30 7913 H 758.926 0.921108 1.29233 0
M  V30 7914 H 758.947 -0.128471 3.80283 0
M  V30 7915 H 758.459 1.67141 3.50265 0
M  V30 7916 H 756.56 -0.790455 3.64119 0
M  V30 7917 H 756.673 0.745457 4.73265 0
M  V30 7918 H 755.037 0.300431 2.52922 0
M  V30 7919 H 755.82 1.94473 2.82905 0
M  V30 7920 N 758.265 -1.50454 0.469181 0
M  V30 7921 C 759.49 -2.0722 -0.0864892 0
M  V30 7922 C 759.915 -1.33098 -1.32916 0
M  V30 7923 O 759.273 -0.378084 -1.77314 0
M  V30 7924 C 759.321 -3.58845 -0.355384 0
M  V30 7925 O 758.425 -3.86583 -1.43622 0
M  V30 7926 H 757.766 -0.663889 0.0121414 0
M  V30 7927 H 760.296 -1.93674 0.659674 0
M  V30 7928 H 760.306 -4.03617 -0.596447 0
M  V30 7929 H 758.981 -4.12211 0.552698 0
M  V30 7930 H 757.558 -3.5365 -1.18262 0
M  V30 7931 N 759.743 -0.201713 -1.56304 0
M  V30 7932 C 760.991 0.434447 -1.97375 0
M  V30 7933 C 761.312 1.61692 -1.08998 0
M  V30 7934 O 760.582 1.95223 -0.162682 0
M  V30 7935 H 759.162 0.163497 -0.728888 0
M  V30 7936 H 761.824 -0.289988 -1.92731 0
M  V30 7937 H 760.92 0.774136 -3.02347 0
M  V30 7938 N 761.222 1.57436 0.0718424 0
M  V30 7939 C 762.169 2.03686 1.08539 0
M  V30 7940 C 763.139 0.917474 1.38462 0
M  V30 7941 O 764.324 1.18513 1.4953 0
M  V30 7942 C 761.464 2.48566 2.39393 0
M  V30 7943 C 760.577 3.74122 2.16001 0
M  V30 7944 C 759.712 4.07786 3.40418 0
M  V30 7945 C 758.751 5.26383 3.1239 0
M  V30 7946 N 757.888 5.55685 4.29138 0
M  V30 7947 H 762.728 2.90043 0.684018 0
M  V30 7948 H 760.265 1.43438 0.326183 0
M  V30 7949 H 762.223 2.72639 3.15791 0
M  V30 7950 H 760.853 1.65186 2.77333 0
M  V30 7951 H 759.905 3.57389 1.30296 0
M  V30 7952 H 761.217 4.60659 1.91298 0
M  V30 7953 H 760.371 4.32759 4.25211 0
M  V30 7954 H 759.11 3.19817 3.68197 0
M  V30 7955 H 758.115 5.01206 2.25993 0
M  V30 7956 H 759.34 6.1597 2.85934 0
M  V30 7957 H 757.286 4.70675 4.56948 0
M  V30 7958 H 757.203 6.3664 4.07708 0
M  V30 7959 H 758.471 5.85209 5.14928 0
M  V30 7960 N 762.7 -0.34323 1.53817 0
M  V30 7961 C 763.928 -1.10348 1.75017 0
M  V30 7962 C 764.343 -1.82345 0.489475 0
M  V30 7963 O 763.7 -1.74362 -0.538886 0
M  V30 7964 C 763.751 -2.11672 2.93048 0
M  V30 7965 O 763.472 -1.42603 4.14241 0
M  V30 7966 C 764.973 -3.0007 3.26301 0
M  V30 7967 H 762.193 -0.329056 0.584776 0
M  V30 7968 H 764.737 -0.395339 2.00642 0
M  V30 7969 H 762.892 -2.78051 2.69753 0
M  V30 7970 H 763.306 -2.10294 4.80496 0
M  V30 7971 H 764.78 -3.67101 4.12239 0
M  V30 7972 H 765.257 -3.66105 2.42618 0
M  V30 7973 H 765.863 -2.3928 3.51604 0
M  V30 7974 N 764.178 -1.45556 -0.604258 0
M  V30 7975 C 765.427 -1.49019 -1.35928 0
M  V30 7976 C 765.74 -0.137409 -1.95117 0
M  V30 7977 O 766.946 -0.0497032 -2.71455 0
M  V30 7978 C 765.402 -2.62477 -2.46239 0
M  V30 7979 C 765.01 -4.04082 -1.93447 0
M  V30 7980 C 766.754 -2.7519 -3.23219 0
M  V30 7981 C 764.661 -5.08917 -3.0126 0
M  V30 7982 H 763.591 -0.554518 -0.510907 0
M  V30 7983 H 766.242 -1.71705 -0.647262 0
M  V30 7984 H 764.624 -2.3308 -3.2014 0
M  V30 7985 H 765.798 -4.43173 -1.26232 0
M  V30 7986 H 764.113 -3.95849 -1.29201 0
M  V30 7987 H 766.71 -3.50683 -4.0364 0
M  V30 7988 H 767.053 -1.81941 -3.74437 0
M  V30 7989 H 767.586 -3.04129 -2.56418 0
M  V30 7990 H 764.325 -6.03886 -2.54955 0
M  V30 7991 H 763.845 -4.74393 -3.67031 0
M  V30 7992 H 765.524 -5.33814 -3.65584 0
M  V30 7993 N 765.656 0.84705 -1.32902 0
M  V30 7994 C 766.902 1.60414 -1.24078 0
M  V30 7995 C 767.235 1.93217 0.195105 0
M  V30 7996 O 766.51 1.58001 1.13428 0
M  V30 7997 C 766.793 2.91951 -2.108 0
M  V30 7998 C 766.646 2.6588 -3.62805 0
M  V30 7999 C 767.965 3.93299 -1.97494 0
M  V30 8000 H 765.084 0.58206 -0.452079 0
M  V30 8001 H 767.726 0.977562 -1.62922 0
M  V30 8002 H 765.876 3.45425 -1.77802 0
M  V30 8003 H 767.548 2.18902 -4.06054 0
M  V30 8004 H 765.791 1.99716 -3.85092 0
M  V30 8005 H 766.462 3.59574 -4.1882 0
M  V30 8006 H 768.938 3.49105 -2.26417 0
M  V30 8007 H 767.814 4.8318 -2.60438 0
M  V30 8008 H 768.075 4.31887 -0.944782 0
M  V30 8009 N 767.134 1.16236 1.06428 0
M  V30 8010 C 768.067 0.81119 2.13295 0
M  V30 8011 C 769.045 -0.216555 1.61151 0
M  V30 8012 O 770.229 -0.100949 1.88229 0
M  V30 8013 C 767.356 0.207901 3.38061 0
M  V30 8014 C 766.402 1.20904 4.09004 0
M  V30 8015 S 767.235 2.75513 4.59187 0
M  V30 8016 C 768.391 2.1663 5.87216 0
M  V30 8017 H 768.624 1.71632 2.42755 0
M  V30 8018 H 766.157 0.985693 1.18842 0
M  V30 8019 H 768.115 -0.133715 4.10282 0
M  V30 8020 H 766.776 -0.67497 3.06762 0
M  V30 8021 H 765.969 0.735326 4.98607 0
M  V30 8022 H 765.571 1.49567 3.42791 0
M  V30 8023 H 767.863 1.53413 6.59902 0
M  V30 8024 H 768.806 3.04437 6.39315 0
M  V30 8025 H 769.214 1.60565 5.41183 0
M  V30 8026 N 768.612 -1.24939 0.960631 0
M  V30 8027 C 769.544 -2.24879 0.442937 0
M  V30 8028 C 770.557 -1.56615 -0.444464 0
M  V30 8029 O 771.746 -1.76715 -0.251776 0
M  V30 8030 C 768.846 -3.36757 -0.380537 0
M  V30 8031 C 768.019 -4.34587 0.495283 0
M  V30 8032 C 767.078 -5.25502 -0.270995 0
M  V30 8033 O 766.104 -5.68227 0.332661 0
M  V30 8034 N 767.306 -5.59077 -1.56249 0
M  V30 8035 H 770.071 -2.69932 1.30218 0
M  V30 8036 H 767.632 -1.38907 0.83166 0
M  V30 8037 H 769.624 -3.94542 -0.90103 0
M  V30 8038 H 768.194 -2.91045 -1.14067 0
M  V30 8039 H 767.414 -3.75593 1.19682 0
M  V30 8040 H 768.702 -4.96925 1.09285 0
M  V30 8041 H 768.1 -5.2628 -2.07476 0
M  V30 8042 H 766.657 -6.19421 -2.02882 0
M  V30 8043 N 770.09 -0.729906 -1.39679 0
M  V30 8044 C 771.339 -0.272534 -1.9985 0
M  V30 8045 C 771.652 1.14519 -1.58571 0
M  V30 8046 O 772.858 1.70182 -2.11543 0
M  V30 8047 C 771.314 -0.436322 -3.57245 0
M  V30 8048 C 770.922 -1.86161 -4.0749 0
M  V30 8049 C 772.666 -0.0404679 -4.24481 0
M  V30 8050 C 770.573 -1.97522 -5.5744 0
M  V30 8051 H 769.503 -0.0981428 -0.747585 0
M  V30 8052 H 772.154 -0.903056 -1.59741 0
M  V30 8053 H 770.536 0.263015 -3.95126 0
M  V30 8054 H 771.71 -2.59248 -3.80955 0
M  V30 8055 H 770.025 -2.21021 -3.529 0
M  V30 8056 H 772.622 -0.104437 -5.34598 0
M  V30 8057 H 772.965 1.00357 -4.04023 0
M  V30 8058 H 773.498 -0.690774 -3.91757 0
M  V30 8059 H 770.237 -3.00096 -5.82771 0
M  V30 8060 H 769.757 -1.28864 -5.85794 0
M  V30 8061 H 771.436 -1.754 -6.22771 0
M  V30 8062 N 771.568 1.50203 -0.477153 0
M  V30 8063 C 772.518 2.25561 0.332625 0
M  V30 8064 C 773.502 1.29401 0.956249 0
M  V30 8065 O 774.694 1.54267 0.867795 0
M  V30 8066 C 771.823 3.12984 1.41052 0
M  V30 8067 C 770.909 4.16595 0.79433 0
M  V30 8068 N 771.3 5.05722 -0.0889633 0
M  V30 8069 C 769.598 4.33279 1.0576 0
M  V30 8070 C 770.299 5.80039 -0.439286 0
M  V30 8071 N 769.275 5.43278 0.187018 0
M  V30 8072 H 773.077 2.91836 -0.347718 0
M  V30 8073 H 770.591 1.59759 -0.291686 0
M  V30 8074 H 772.588 3.65582 2.00388 0
M  V30 8075 H 771.248 2.48258 2.09279 0
M  V30 8076 H 772.259 5.15869 -0.458205 0
M  V30 8077 H 768.936 3.79769 1.7344 0
M  V30 8078 H 770.326 6.61802 -1.1605 0
M  V30 8079 N 773.046 0.209999 1.56195 0
M  V30 8080 C 774.009 -0.691232 2.18528 0
M  V30 8081 C 775.009 -1.13013 1.14388 0
M  V30 8082 O 776.199 -1.04081 1.39688 0
M  V30 8083 C 773.331 -1.94551 2.79934 0
M  V30 8084 H 774.524 -0.147953 2.99535 0
M  V30 8085 H 772.077 -0.0396243 1.5625 0
M  V30 8086 H 772.812 -2.53094 2.02766 0
M  V30 8087 H 772.597 -1.63938 3.56184 0
M  V30 8088 H 774.087 -2.58785 3.2775 0
M  V30 8089 N 774.524 -1.57472 -0.0634922 0
M  V30 8090 C 775.77 -1.87932 -0.762194 0
M  V30 8091 C 776.103 -0.803377 -1.76804 0
M  V30 8092 O 775.378 0.185468 -1.93614 0
M  V30 8093 C 775.661 -3.29053 -1.46275 0
M  V30 8094 C 775.514 -4.47309 -0.472755 0
M  V30 8095 C 776.833 -3.68537 -2.40558 0
M  V30 8096 H 773.952 -0.683521 -0.275624 0
M  V30 8097 H 776.594 -1.89983 -0.0252651 0
M  V30 8098 H 774.744 -3.27435 -2.0909 0
M  V30 8099 H 776.416 -4.61053 0.150828 0
M  V30 8100 H 774.659 -4.33286 0.211187 0
M  V30 8101 H 775.33 -5.42853 -1.00072 0
M  V30 8102 H 777.806 -3.71302 -1.87814 0
M  V30 8103 H 776.682 -4.68152 -2.86574 0
M  V30 8104 H 776.943 -2.98917 -3.25731 0
M  V30 8105 N 776.003 0.335068 -1.53997 0
M  V30 8106 C 776.936 1.43533 -1.77407 0
M  V30 8107 C 777.914 1.5017 -0.623529 0
M  V30 8108 O 779.098 1.67756 -0.85966 0
M  V30 8109 C 776.225 2.81712 -1.88033 0
M  V30 8110 C 775.271 2.92661 -3.10245 0
M  V30 8111 S 776.104 2.58254 -4.69111 0
M  V30 8112 C 777.26 3.98525 -4.82627 0
M  V30 8113 H 777.493 1.2346 -2.70453 0
M  V30 8114 H 775.026 0.531234 -1.44973 0
M  V30 8115 H 776.984 3.61314 -1.9484 0
M  V30 8116 H 775.645 2.99075 -0.959849 0
M  V30 8117 H 774.838 3.93931 -3.14379 0
M  V30 8118 H 774.44 2.21017 -3.01708 0
M  V30 8119 H 776.732 4.93146 -4.64557 0
M  V30 8120 H 777.675 3.9938 -5.84723 0
M  V30 8121 H 778.083 3.86945 -4.11016 0
M  V30 8122 N 777.481 1.45874 0.596531 0
M  V30 8123 C 778.892 1.44798 1.17857 0
M  V30 8124 C 779.243 0.181443 1.95359 0
M  V30 8125 O 778.368 -0.716336 2.042 0
M  V30 8126 C 778.963 2.62333 2.14398 0
M  V30 8127 C 777.522 2.64342 2.67955 0
M  V30 8128 C 776.669 2.37244 1.43564 0
M  V30 8129 H 779.62 1.53954 0.385222 0
M  V30 8130 H 779.641 2.37063 2.97626 0
M  V30 8131 H 779.153 3.54499 1.57963 0
M  V30 8132 H 777.254 1.76213 3.28298 0
M  V30 8133 H 777.367 3.63897 3.11634 0
M  V30 8134 H 775.731 1.87022 1.72901 0
M  V30 8135 H 776.514 3.31568 0.889805 0
M  V30 8136 N 778.959 -0.83999 1.33349 0
M  V30 8137 C 780.236 -1.57973 1.15342 0
M  V30 8138 C 780.616 -2.09226 -0.280632 0
M  V30 8139 O 779.964 -1.89317 -1.2795 0
M  V30 8140 C 780.174 -2.71446 2.19359 0
M  V30 8141 C 781.522 -3.40654 2.53456 0
M  V30 8142 O 782.546 -2.81686 2.18017 0
M  V30 8143 O 781.405 -4.47101 3.14266 0
M  V30 8144 H 778.499 -0.6964 0.446044 0
M  V30 8145 H 781.045 -0.882843 1.44927 0
M  V30 8146 H 779.817 -2.31205 3.1569 0
M  V30 8147 H 779.44 -3.488 1.90852 0
M  V30 8148 N 780.437 -1.16799 -1.0581 0
M  V30 8149 C 781.685 -0.950642 -1.78346 0
M  V30 8150 C 782.006 0.522524 -1.87869 0
M  V30 8151 O 781.276 1.3795 -1.39092 0
M  V30 8152 H 779.856 -0.348736 -0.6606 0
M  V30 8153 H 782.518 -1.47158 -1.27791 0
M  V30 8154 H 781.614 -1.37359 -2.80248 0
M  V30 8155 N 781.915 1.24427 -0.967243 0
M  V30 8156 C 783.14 1.9708 -0.646069 0
M  V30 8157 C 783.565 1.71272 0.777665 0
M  V30 8158 O 782.923 0.976179 1.52776 0
M  V30 8159 C 782.971 3.48501 -0.926266 0
M  V30 8160 O 782.075 4.12398 -0.0114653 0
M  V30 8161 H 781.416 0.617423 -0.244304 0
M  V30 8162 H 783.946 1.58215 -1.29727 0
M  V30 8163 H 783.956 3.98885 -0.857619 0
M  V30 8164 H 782.631 3.66613 -1.96386 0
M  V30 8165 H 781.208 3.72661 -0.133396 0
M  V30 8166 N 783.393 0.737304 1.3929 0
M  V30 8167 C 784.341 0.0879867 2.32434 0
M  V30 8168 C 785.335 -0.723324 1.53181 0
M  V30 8169 O 786.541 -0.624251 1.68829 0
M  V30 8170 H 782.916 0.00965277 0.751938 0
M  V30 8171 H 784.887 0.889915 2.84821 0
M  V30 8172 C 783.636 -0.803384 3.38291 0
M  V30 8173 H 782.959 -0.18849 3.99355 0
M  V30 8174 H 784.399 -1.22528 4.0591 0
M  V30 8175 C 782.858 -1.93872 2.75527 0
M  V30 8176 O 783.388 -3.03154 2.63553 0
M  V30 8177 N 781.594 -1.72883 2.3358 0
M  V30 8178 H 781.141 -0.840005 2.43519 0
M  V30 8179 H 781.099 -2.49021 1.91927 0
M  V30 8180 N 784.871 -1.49948 0.485112 0
M  V30 8181 C 785.834 -2.27351 -0.290546 0
M  V30 8182 C 786.834 -1.32704 -0.908087 0
M  V30 8183 O 788.024 -1.56007 -0.775085 0
M  V30 8184 C 785.156 -3.10135 -1.41524 0
M  V30 8185 H 786.349 -2.97374 0.388454 0
M  V30 8186 H 783.902 -1.54453 0.239586 0
M  V30 8187 H 784.637 -2.44641 -2.12888 0
M  V30 8188 H 784.422 -3.79705 -0.978074 0
M  V30 8189 H 785.912 -3.68638 -1.96204 0
M  V30 8190 N 786.349 -0.21828 -1.56081 0
M  V30 8191 C 787.76 0.290166 -1.84431 0
M  V30 8192 C 788.111 1.59712 -1.13958 0
M  V30 8193 O 787.236 2.12516 -0.40815 0
M  V30 8194 C 787.831 0.53325 -3.34577 0
M  V30 8195 C 786.39 0.986011 -3.63256 0
M  V30 8196 C 785.537 0.0472798 -2.7726 0
M  V30 8197 H 788.488 -0.441548 -1.52434 0
M  V30 8198 H 788.509 1.37967 -3.54606 0
M  V30 8199 H 788.021 -0.418137 -3.85841 0
M  V30 8200 H 786.122 1.95087 -3.17446 0
M  V30 8201 H 786.235 0.862684 -4.71269 0
M  V30 8202 H 784.599 0.553471 -2.48614 0
M  V30 8203 H 785.382 -0.898966 -3.31321 0
M  V30 8204 N 787.827 1.57504 0.0551401 0
M  V30 8205 C 789.238 1.76626 0.604979 0
M  V30 8206 C 789.589 0.845978 1.77024 0
M  V30 8207 O 788.714 0.0341936 2.16373 0
M  V30 8208 C 789.309 3.203 1.10425 0
M  V30 8209 C 787.868 3.4071 1.59981 0
M  V30 8210 C 787.015 2.72258 0.526414 0
M  V30 8211 H 789.966 1.57775 -0.171072 0
M  V30 8212 H 789.987 3.25377 1.97256 0
M  V30 8213 H 789.499 3.87255 0.255939 0
M  V30 8214 H 787.6 2.78892 2.47083 0
M  V30 8215 H 787.713 4.49227 1.66528 0
M  V30 8216 H 786.077 2.35283 0.97539 0
M  V30 8217 H 786.86 3.41879 -0.311991 0
M  V30 8218 N 789.305 -0.326896 1.54172 0
M  V30 8219 C 790.235 -1.40741 1.86317 0
M  V30 8220 C 791.216 -1.54125 0.719684 0
M  V30 8221 O 792.401 -1.6806 0.973117 0
M  V30 8222 C 789.531 -2.77557 2.08757 0
M  V30 8223 C 788.485 -2.78965 3.24596 0
M  V30 8224 C 787.811 -4.18824 3.32401 0
M  V30 8225 C 789.111 -2.4301 4.62324 0
M  V30 8226 H 790.805 -1.14088 2.76811 0
M  V30 8227 H 788.351 -0.547389 1.3319 0
M  V30 8228 H 790.304 -3.53209 2.29829 0
M  V30 8229 H 789.028 -3.0568 1.15009 0
M  V30 8230 H 787.687 -2.05767 3.03406 0
M  V30 8231 H 787.335 -4.44083 2.36218 0
M  V30 8232 H 787.035 -4.20673 4.10253 0
M  V30 8233 H 788.559 -4.96294 3.55703 0
M  V30 8234 H 789.973 -3.08375 4.83299 0
M  V30 8235 H 788.37 -2.56116 5.42701 0
M  V30 8236 H 789.44 -1.38165 4.64799 0
M  V30 8237 N 790.784 -1.46188 -0.588786 0
M  V30 8238 C 792.03 -1.51407 -1.34921 0
M  V30 8239 C 792.363 -0.162771 -1.93517 0
M  V30 8240 O 791.638 0.825082 -1.76132 0
M  V30 8241 C 791.921 -2.60795 -2.48311 0
M  V30 8242 C 791.774 -4.05435 -1.94789 0
M  V30 8243 C 793.093 -2.66313 -3.50379 0
M  V30 8244 H 790.212 -0.551213 -0.489217 0
M  V30 8245 H 792.854 -1.78095 -0.661993 0
M  V30 8246 H 791.004 -2.3817 -3.06932 0
M  V30 8247 H 792.676 -4.39328 -1.40672 0
M  V30 8248 H 790.919 -4.15202 -1.25659 0
M  V30 8249 H 791.59 -4.77691 -2.76613 0
M  V30 8250 H 794.066 -2.86634 -3.01629 0
M  V30 8251 H 792.942 -3.44681 -4.27184 0
M  V30 8252 H 793.203 -1.72127 -4.07216 0
M  V30 8253 N 792.262 0.832906 -1.33792 0
M  V30 8254 C 793.209 1.94314 -1.24541 0
M  V30 8255 C 794.179 1.65646 -0.122753 0
M  V30 8256 O 795.364 1.88394 -0.30204 0
M  V30 8257 C 792.504 3.30395 -0.996641 0
M  V30 8258 C 791.617 3.71422 -2.20612 0
M  V30 8259 C 790.752 4.96401 -1.89101 0
M  V30 8260 C 789.791 5.2998 -3.06247 0
M  V30 8261 N 788.928 6.46137 -2.74685 0
M  V30 8262 H 793.768 2.01559 -2.19495 0
M  V30 8263 H 791.305 0.986243 -1.09141 0
M  V30 8264 H 793.263 4.08803 -0.832817 0
M  V30 8265 H 791.893 3.22691 -0.0838242 0
M  V30 8266 H 790.945 2.88488 -2.47949 0
M  V30 8267 H 792.257 3.92215 -3.0817 0
M  V30 8268 H 791.411 5.82572 -1.69396 0
M  V30 8269 H 790.15 4.7759 -0.987882 0
M  V30 8270 H 789.155 4.42312 -3.26559 0
M  V30 8271 H 790.38 5.50737 -3.97323 0
M  V30 8272 H 788.326 6.28801 -1.86938 0
M  V30 8273 H 788.243 6.67054 -3.55774 0
M  V30 8274 H 789.511 7.35403 -2.58461 0
M  V30 8275 N 793.74 1.17359 1.05189 0
M  V30 8276 C 794.988 0.960087 1.77839 0
M  V30 8277 C 795.309 -0.512554 1.88143 0
M  V30 8278 O 794.579 -1.3721 1.39822 0
M  V30 8279 H 793.159 0.352234 0.658741 0
M  V30 8280 H 795.821 1.47834 1.27008 0
M  V30 8281 H 794.917 1.38843 2.79516 0
M  V30 8282 N 795.218 -1.23913 0.973828 0
M  V30 8283 C 796.15 -2.24397 0.466763 0
M  V30 8284 C 797.163 -1.57078 -0.427828 0
M  V30 8285 O 798.352 -1.76973 -0.233019 0
M  V30 8286 C 795.452 -3.37141 -0.344798 0
M  V30 8287 C 794.625 -4.34037 0.541349 0
M  V30 8288 C 793.684 -5.2576 -0.215243 0
M  V30 8289 O 792.71 -5.67842 0.39291 0
M  V30 8290 N 793.912 -5.60702 -1.5031 0
M  V30 8291 H 796.677 -2.68536 1.33074 0
M  V30 8292 H 794.238 -1.38017 0.846346 0
M  V30 8293 H 796.23 -3.95476 -0.859133 0
M  V30 8294 H 794.8 -2.92239 -1.10974 0
M  V30 8295 H 794.02 -3.74302 1.23659 0
M  V30 8296 H 795.308 -4.95738 1.1455 0
M  V30 8297 H 794.706 -5.28451 -2.01882 0
M  V30 8298 H 793.263 -6.21538 -1.96301 0
M  V30 8299 N 796.696 -0.74468 -1.38897 0
M  V30 8300 C 797.943 -0.296884 -2.00312 0
M  V30 8301 C 798.271 1.11878 -1.59102 0
M  V30 8302 O 797.526 1.7789 -0.815702 0
M  V30 8303 C 797.825 -0.357302 -3.55609 0
M  V30 8304 C 797.491 -1.72736 -4.16501 0
M  V30 8305 C 796.153 -2.10232 -4.32846 0
M  V30 8306 C 798.505 -2.62647 -4.50184 0
M  V30 8307 C 795.833 -3.3713 -4.80167 0
M  V30 8308 C 798.185 -3.88926 -4.98918 0
M  V30 8309 C 796.849 -4.26503 -5.1347 0
M  V30 8310 H 796.119 -0.108638 -0.732993 0
M  V30 8311 H 798.766 -0.953419 -1.66079 0
M  V30 8312 H 797.071 0.382805 -3.89925 0
M  V30 8313 H 798.768 0.0074596 -4.00999 0
M  V30 8314 H 795.358 -1.42585 -4.04187 0
M  V30 8315 H 799.542 -2.34945 -4.37166 0
M  V30 8316 H 794.798 -3.66174 -4.89619 0
M  V30 8317 H 798.972 -4.58745 -5.23952 0
M  V30 8318 H 796.599 -5.24896 -5.49898 0
M  V30 8319 N 798.174 1.49689 -0.493057 0
M  V30 8320 C 799.404 2.06536 0.0512397 0
M  V30 8321 C 799.812 1.35459 1.32089 0
M  V30 8322 O 799.155 0.424145 1.78736 0
M  V30 8323 C 799.217 3.57452 0.383231 0
M  V30 8324 C 798.881 4.50163 -0.787555 0
M  V30 8325 C 799.878 4.92151 -1.67582 0
M  V30 8326 C 797.563 4.92565 -0.984109 0
M  V30 8327 C 799.557 5.7527 -2.74487 0
M  V30 8328 C 797.244 5.75463 -2.05634 0
M  V30 8329 C 798.242 6.16719 -2.93507 0
M  V30 8330 O 797.93 6.97961 -3.98881 0
M  V30 8331 H 797.662 0.675862 -0.0136516 0
M  V30 8332 H 800.216 1.9356 -0.687298 0
M  V30 8333 H 798.446 3.68408 1.17526 0
M  V30 8334 H 800.135 3.96572 0.8652 0
M  V30 8335 H 800.901 4.60043 -1.53575 0
M  V30 8336 H 796.78 4.5996 -0.309541 0
M  V30 8337 H 800.324 6.07392 -3.43104 0
M  V30 8338 H 796.221 6.06983 -2.19639 0
M  V30 8339 H 796.989 7.16253 -3.96137 0
M  V30 8340 N 799.652 0.226554 1.55963 0
M  V30 8341 C 800.599 -0.681504 2.20509 0
M  V30 8342 C 801.569 -1.1866 1.16229 0
M  V30 8343 O 802.754 -1.24478 1.44602 0
M  V30 8344 C 799.894 -1.88183 2.89277 0
M  V30 8345 C 799.007 -1.41517 4.08163 0
M  V30 8346 C 798.142 -2.57346 4.647 0
M  V30 8347 C 797.181 -2.07441 5.75877 0
M  V30 8348 N 796.318 -3.16561 6.26685 0
M  V30 8349 H 801.158 -0.124372 2.9774 0
M  V30 8350 H 798.695 -0.0496333 1.47016 0
M  V30 8351 H 800.653 -2.58666 3.27335 0
M  V30 8352 H 799.283 -2.41177 2.14555 0
M  V30 8353 H 798.335 -0.605099 3.75557 0
M  V30 8354 H 799.647 -1.00928 4.88482 0
M  V30 8355 H 798.801 -3.35903 5.05227 0
M  V30 8356 H 797.54 -3.01227 3.83554 0
M  V30 8357 H 796.545 -1.27347 5.34848 0
M  V30 8358 H 797.77 -1.64554 6.58862 0
M  V30 8359 H 795.716 -3.59914 5.48451 0
M  V30 8360 H 795.633 -2.80239 7.02141 0
M  V30 8361 H 796.901 -3.95238 6.71868 0
M  V30 8362 N 801.13 -1.57531 -0.0467866 0
M  V30 8363 C 802.078 -2.06455 -1.0714 0
M  V30 8364 C 803.072 -0.974744 -1.38546 0
M  V30 8365 O 804.278 -1.15974 -1.37659 0
M  V30 8366 H 800.653 -0.658607 -0.362962 0
M  V30 8367 H 802.624 -2.91613 -0.632813 0
M  V30 8368 C 801.373 -2.54481 -2.36927 0
M  V30 8369 H 800.696 -3.37946 -2.13617 0
M  V30 8370 H 802.136 -2.92442 -3.07007 0
M  V30 8371 C 800.595 -1.43836 -3.04652 0
M  V30 8372 O 801.125 -0.794531 -3.93764 0
M  V30 8373 N 799.331 -1.17727 -2.65686 0
M  V30 8374 H 798.878 -1.70265 -1.93307 0
M  V30 8375 H 798.836 -0.439051 -3.11319 0
M  V30 8376 N 802.608 0.318715 -1.54344 0
M  V30 8377 C 803.836 1.0755 -1.7675 0
M  V30 8378 C 804.251 1.81543 -0.518422 0
M  V30 8379 O 803.608 1.75198 0.511078 0
M  V30 8380 C 803.659 2.06983 -2.96378 0
M  V30 8381 O 803.38 1.35995 -4.16458 0
M  V30 8382 C 804.881 2.94841 -3.31034 0
M  V30 8383 H 802.101 0.319711 -0.589937 0
M  V30 8384 H 804.645 0.363369 -2.01246 0
M  V30 8385 H 802.8 2.73724 -2.74142 0
M  V30 8386 H 803.214 2.02623 -4.83781 0
M  V30 8387 H 804.688 3.60496 -4.18027 0
M  V30 8388 H 805.165 3.62199 -2.48412 0
M  V30 8389 H 805.771 2.33656 -3.55366 0
M  V30 8390 N 804.086 1.46499 0.581025 0
M  V30 8391 C 805.016 1.60052 1.70017 0
M  V30 8392 C 805.997 0.450788 1.64018 0
M  V30 8393 O 807.182 0.677237 1.82009 0
M  V30 8394 C 804.312 1.5921 3.08658 0
M  V30 8395 C 803.266 2.73169 3.29488 0
M  V30 8396 C 802.592 2.57389 4.68674 0
M  V30 8397 C 803.892 4.14978 3.1716 0
M  V30 8398 H 805.586 2.53735 1.5893 0
M  V30 8399 H 803.132 1.22113 0.763173 0
M  V30 8400 H 805.085 1.67285 3.86773 0
M  V30 8401 H 803.809 0.620718 3.20647 0
M  V30 8402 H 802.468 2.64566 2.53773 0
M  V30 8403 H 802.116 1.58331 4.77431 0
M  V30 8404 H 801.816 3.33826 4.83564 0
M  V30 8405 H 803.34 2.67358 5.48956 0
M  V30 8406 H 804.754 4.24684 3.85119 0
M  V30 8407 H 803.151 4.92016 3.4357 0
M  V30 8408 H 804.221 4.35016 2.14218 0
M  V30 8409 N 805.565 -0.825799 1.34232 0
M  V30 8410 C 806.842 -1.56741 1.17011 0
M  V30 8411 C 807.222 -2.09512 -0.258425 0
M  V30 8412 O 806.57 -1.90664 -1.25935 0
M  V30 8413 C 806.78 -2.69104 2.22225 0
M  V30 8414 C 808.128 -3.37947 2.57055 0
M  V30 8415 O 809.152 -2.79358 2.20992 0
M  V30 8416 O 808.011 -4.43743 3.1899 0
M  V30 8417 H 805.105 -0.69163 0.453405 0
M  V30 8418 H 807.651 -0.867422 1.45856 0
M  V30 8419 H 806.423 -2.27844 3.18124 0
M  V30 8420 H 806.046 -3.46756 1.94541 0
M  V30 8421 N 807.043 -1.17915 -1.04565 0
M  V30 8422 C 808.29 -0.971424 -1.77678 0
M  V30 8423 C 808.618 0.499401 -1.87979 0
M  V30 8424 O 807.873 1.38695 -1.38066 0
M  V30 8425 C 808.172 -1.56528 -3.213 0
M  V30 8426 C 807.838 -3.06138 -3.31044 0
M  V30 8427 C 806.5 -3.46974 -3.33411 0
M  V30 8428 C 808.852 -4.02151 -3.31548 0
M  V30 8429 C 806.18 -4.82406 -3.33918 0
M  V30 8430 C 808.532 -5.37492 -3.33595 0
M  V30 8431 C 807.196 -5.77782 -3.34251 0
M  V30 8432 H 806.466 -0.355469 -0.650171 0
M  V30 8433 H 809.113 -1.46902 -1.22849 0
M  V30 8434 H 807.418 -0.98955 -3.79098 0
M  V30 8435 H 809.115 -1.38003 -3.76505 0
M  V30 8436 H 805.705 -2.73589 -3.29919 0
M  V30 8437 H 809.889 -3.71656 -3.28916 0
M  V30 8438 H 805.145 -5.12927 -3.3274 0
M  V30 8439 H 809.319 -6.1166 -3.32934 0
M  V30 8440 H 806.946 -6.82702 -3.34397 0
M  V30 8441 N 808.521 1.23394 -0.980386 0
M  V30 8442 C 809.451 2.2717 -0.540024 0
M  V30 8443 C 810.432 1.64659 0.426787 0
M  V30 8444 O 811.617 1.91543 0.320153 0
M  V30 8445 C 808.747 3.46939 0.15836 0
M  V30 8446 C 807.701 4.21802 -0.725732 0
M  V30 8447 C 807.027 5.34597 0.104866 0
M  V30 8448 C 808.327 4.81802 -2.01654 0
M  V30 8449 H 810.021 2.64257 -1.40743 0
M  V30 8450 H 807.567 1.2703 -0.678193 0
M  V30 8451 H 809.52 4.18683 0.477737 0
M  V30 8452 H 808.244 3.08912 1.06022 0
M  V30 8453 H 806.903 3.51875 -1.02857 0
M  V30 8454 H 806.551 4.92812 1.00726 0
M  V30 8455 H 806.251 5.85607 -0.483557 0
M  V30 8456 H 807.775 6.09163 0.418624 0
M  V30 8457 H 809.189 5.45554 -1.76193 0
M  V30 8458 H 807.586 5.43098 -2.55273 0
M  V30 8459 H 808.656 4.02549 -2.70338 0
M  V30 8460 N 809.999 0.752036 1.385 0
M  V30 8461 C 811.245 0.307958 2.00448 0
M  V30 8462 C 811.578 -1.10702 1.59558 0
M  V30 8463 O 810.853 -1.75788 0.832391 0
M  V30 8464 C 811.136 0.429092 3.57534 0
M  V30 8465 C 810.989 1.88507 4.08393 0
M  V30 8466 C 812.308 -0.178442 4.39738 0
M  V30 8467 H 809.427 0.113373 0.728228 0
M  V30 8468 H 812.069 0.951389 1.64465 0
M  V30 8469 H 810.219 -0.118695 3.88319 0
M  V30 8470 H 811.891 2.49104 3.88259 0
M  V30 8471 H 810.134 2.40066 3.61318 0
M  V30 8472 H 810.805 1.92099 5.17496 0
M  V30 8473 H 813.281 0.28872 4.15097 0
M  V30 8474 H 812.157 -0.0634349 5.48863 0
M  V30 8475 H 812.418 -1.26655 4.23569 0
M  V30 8476 N 811.477 -1.49425 0.500989 0
M  V30 8477 C 812.424 -2.29126 -0.277443 0
M  V30 8478 C 813.394 -1.35522 -0.960363 0
M  V30 8479 O 814.579 -1.64479 -0.967027 0
M  V30 8480 C 811.719 -3.18193 -1.33593 0
M  V30 8481 C 810.832 -4.26854 -0.664791 0
M  V30 8482 C 809.967 -5.03137 -1.70372 0
M  V30 8483 C 809.006 -6.03635 -1.01445 0
M  V30 8484 N 808.143 -6.73083 -1.99758 0
M  V30 8485 H 812.983 -2.95187 0.408458 0
M  V30 8486 H 810.52 -1.45546 0.213275 0
M  V30 8487 H 812.478 -3.68207 -1.96161 0
M  V30 8488 H 811.108 -2.54116 -1.9906 0
M  V30 8489 H 810.16 -3.80328 0.0741708 0
M  V30 8490 H 811.472 -4.9865 -0.122197 0
M  V30 8491 H 810.626 -5.5702 -2.40445 0
M  V30 8492 H 809.365 -4.31114 -2.28017 0
M  V30 8493 H 808.37 -5.48984 -0.299496 0
M  V30 8494 H 809.595 -6.77644 -0.444497 0
M  V30 8495 H 807.541 -6.03832 -2.56365 0
M  V30 8496 H 807.458 -7.40855 -1.50565 0
M  V30 8497 H 808.726 -7.3157 -2.69119 0
M  V30 8498 N 812.955 -0.234822 -1.55841 0
M  V30 8499 C 813.903 0.686145 -2.22249 0
M  V30 8500 C 814.897 1.18948 -1.20614 0
M  V30 8501 O 816.103 1.14777 -1.38659 0
M  V30 8502 H 812.478 0.239724 -0.712767 0
M  V30 8503 H 814.449 0.102762 -2.98223 0
M  V30 8504 C 813.198 1.8776 -2.92646 0
M  V30 8505 H 812.521 1.49943 -3.70617 0
M  V30 8506 H 813.961 2.4995 -3.42493 0
M  V30 8507 C 812.42 2.74127 -1.95847 0
M  V30 8508 O 812.95 3.7329 -1.48384 0
M  V30 8509 N 811.156 2.4044 -1.63209 0
M  V30 8510 H 810.703 1.59854 -2.02001 0
M  V30 8511 H 810.661 2.98504 -0.987063 0
M  V30 8512 N 814.433 1.57553 0.0384317 0
M  V30 8513 C 815.658 1.93485 0.746872 0
M  V30 8514 C 816.083 0.834069 1.68597 0
M  V30 8515 O 815.441 -0.210902 1.80069 0
M  V30 8516 C 815.489 3.28463 1.4881 0
M  V30 8517 O 814.593 3.20051 2.60079 0
M  V30 8518 H 813.934 0.632675 0.201539 0
M  V30 8519 H 816.464 2.046 -0.00329815 0
M  V30 8520 H 816.474 3.63132 1.86009 0
M  V30 8521 H 815.149 4.08147 0.799297 0
M  V30 8522 H 813.726 2.96998 2.25492 0
M  V30 8523 N 815.911 -0.310526 1.54511 0
M  V30 8524 C 816.874 -1.3657 1.84068 0
M  V30 8525 C 817.874 -1.44123 0.713097 0
M  V30 8526 O 819.064 -1.43924 0.981399 0
M  V30 8527 C 816.196 -2.75162 2.01243 0
M  V30 8528 H 817.389 -1.1161 2.78358 0
M  V30 8529 H 814.942 -0.546699 1.46427 0
M  V30 8530 H 815.677 -3.05359 1.09208 0
M  V30 8531 H 815.462 -2.71071 2.83307 0
M  V30 8532 H 816.952 -3.51473 2.25514 0
M  V30 8533 N 817.389 -1.46805 -0.573248 0
M  V30 8534 C 818.352 -1.57655 -1.66366 0
M  V30 8535 C 819.352 -0.452905 -1.5429 0
M  V30 8536 O 820.542 -0.717502 -1.58737 0
M  V30 8537 C 817.674 -1.50584 -3.05839 0
M  V30 8538 H 818.867 -2.54842 -1.581 0
M  V30 8539 H 816.42 -1.34756 -0.791868 0
M  V30 8540 H 817.155 -0.547127 -3.19651 0
M  V30 8541 H 816.94 -2.32118 -3.16012 0
M  V30 8542 H 818.43 -1.61282 -3.85199 0
M  V30 8543 N 818.867 0.818669 -1.34668 0
M  V30 8544 C 820.115 1.57201 -1.27013 0
M  V30 8545 C 820.436 1.94354 0.158599 0
M  V30 8546 O 819.706 1.62626 1.09223 0
M  V30 8547 H 818.286 0.582919 -0.467135 0
M  V30 8548 H 820.948 0.977234 -1.6863 0
M  V30 8549 H 820.044 2.49291 -1.87778 0
M  V30 8550 N 820.346 1.18468 1.03938 0
M  V30 8551 C 821.594 0.978895 1.76811 0
M  V30 8552 C 821.915 -0.49257 1.88676 0
M  V30 8553 O 821.185 -1.3572 1.41269 0
M  V30 8554 H 819.765 0.359201 0.654968 0
M  V30 8555 H 822.427 1.49173 1.25433 0
M  V30 8556 H 821.523 1.418 2.78027 0
M  V30 8557 N 821.824 -1.22873 0.986916 0
M  V30 8558 C 822.771 -2.2458 0.532215 0
M  V30 8559 C 823.741 -1.60375 -0.432322 0
M  V30 8560 O 824.926 -1.87775 -0.338416 0
M  V30 8561 C 822.066 -3.44761 -0.152864 0
M  V30 8562 C 821.179 -4.23501 0.852704 0
M  V30 8563 C 820.314 -5.31011 0.14176 0
M  V30 8564 C 819.353 -6.01464 1.1361 0
M  V30 8565 N 818.49 -7.00631 0.453871 0
M  V30 8566 H 823.33 -2.62838 1.40428 0
M  V30 8567 H 820.867 -1.29185 0.703543 0
M  V30 8568 H 822.825 -4.1333 -0.566926 0
M  V30 8569 H 821.455 -3.07284 -0.988756 0
M  V30 8570 H 820.507 -3.54286 1.38512 0
M  V30 8571 H 821.819 -4.72097 1.61014 0
M  V30 8572 H 820.973 -6.05805 -0.329337 0
M  V30 8573 H 819.712 -4.83373 -0.648229 0
M  V30 8574 H 818.717 -5.25456 1.61789 0
M  V30 8575 H 819.942 -6.5119 1.92686 0
M  V30 8576 H 817.888 -6.55235 -0.316791 0
M  V30 8577 H 817.805 -7.47204 1.14986 0
M  V30 8578 H 819.073 -7.795 0.00537823 0
M  V30 8579 N 823.302 -0.75937 -1.38099 0
M  V30 8580 C 824.579 -0.243371 -1.9408 0
M  V30 8581 C 824.959 1.25942 -1.69416 0
M  V30 8582 O 824.307 2.03667 -1.03595 0
M  V30 8583 C 824.517 -0.603328 -3.43745 0
M  V30 8584 C 825.865 -0.566195 -4.20808 0
M  V30 8585 O 826.889 -0.541969 -3.52053 0
M  V30 8586 O 825.748 -0.582261 -5.43389 0
M  V30 8587 H 822.842 -0.0526825 -0.82532 0
M  V30 8588 H 825.388 -0.839884 -1.47459 0
M  V30 8589 H 824.16 -1.64098 -3.55229 0
M  V30 8590 H 823.783 0.0208887 -3.97595 0
M  V30 8591 N 824.78 1.49157 -0.508906 0
M  V30 8592 C 826.008 2.06879 0.0293734 0
M  V30 8593 C 826.423 1.36823 1.30095 0
M  V30 8594 O 825.78 0.449034 1.7689 0
M  V30 8595 C 825.831 3.60423 0.278791 0
M  V30 8596 O 825.552 4.27844 -0.942389 0
M  V30 8597 C 827.053 4.34881 0.859825 0
M  V30 8598 H 824.273 0.67057 -0.0240184 0
M  V30 8599 H 826.817 1.91834 -0.708526 0
M  V30 8600 H 824.972 3.75145 0.966689 0
M  V30 8601 H 825.386 5.19671 -0.710097 0
M  V30 8602 H 826.86 5.43161 0.983884 0
M  V30 8603 H 827.337 3.9789 1.85958 0
M  V30 8604 H 827.943 4.24785 0.209152 0
M  V30 8605 N 826.258 0.243083 1.55714 0
M  V30 8606 C 827.208 -0.671915 2.17875 0
M  V30 8607 C 828.192 -1.14199 1.13347 0
M  V30 8608 O 829.384 -1.09239 1.39269 0
M  V30 8609 C 826.513 -1.87027 2.87881 0
M  V30 8610 C 825.599 -1.41888 3.99661 0
M  V30 8611 N 825.99 -0.681465 5.01188 0
M  V30 8612 C 824.288 -1.70447 4.12145 0
M  V30 8613 C 824.989 -0.448285 5.7997 0
M  V30 8614 N 823.965 -1.01137 5.34109 0
M  V30 8615 H 827.767 -0.100321 2.93729 0
M  V30 8616 H 825.281 0.0452371 1.62337 0
M  V30 8617 H 827.278 -2.53674 3.3084 0
M  V30 8618 H 825.938 -2.44613 2.13529 0
M  V30 8619 H 826.949 -0.331959 5.16835 0
M  V30 8620 H 823.626 -2.29198 3.48962 0
M  V30 8621 H 825.016 0.140141 6.71754 0
M  V30 8622 N 827.736 -1.57571 -0.0300757 0
M  V30 8623 C 828.966 -1.93204 -0.731828 0
M  V30 8624 C 829.374 -0.841156 -1.69473 0
M  V30 8625 O 828.717 0.191231 -1.82702 0
M  V30 8626 C 828.779 -3.2463 -1.54453 0
M  V30 8627 C 828.443 -4.50862 -0.746507 0
M  V30 8628 C 829.44 -5.19879 -0.0472309 0
M  V30 8629 C 827.125 -4.9738 -0.701347 0
M  V30 8630 C 829.119 -6.33692 0.686518 0
M  V30 8631 C 826.806 -6.11089 0.036148 0
M  V30 8632 C 827.804 -6.791 0.728841 0
M  V30 8633 O 827.492 -7.90635 1.45436 0
M  V30 8634 H 827.224 -0.6423 -0.210775 0
M  V30 8635 H 829.778 -2.05398 0.00804194 0
M  V30 8636 H 828.008 -3.0876 -2.32818 0
M  V30 8637 H 829.697 -3.45597 -2.1288 0
M  V30 8638 H 830.463 -4.84945 -0.0731582 0
M  V30 8639 H 826.342 -4.44288 -1.23001 0
M  V30 8640 H 829.886 -6.86711 1.22773 0
M  V30 8641 H 825.783 -6.45468 0.064002 0
M  V30 8642 H 826.551 -8.06988 1.36794 0
M  V30 8643 N 829.214 0.302327 -1.54673 0
M  V30 8644 C 830.46 1.03924 -1.74149 0
M  V30 8645 C 830.793 1.86968 -0.525041 0
M  V30 8646 O 830.068 1.88538 0.477868 0
M  V30 8647 C 830.351 1.94633 -3.02969 0
M  V30 8648 C 830.204 1.14778 -4.34909 0
M  V30 8649 C 831.523 2.93826 -3.27649 0
M  V30 8650 H 828.642 0.376405 -0.633631 0
M  V30 8651 H 831.284 0.314007 -1.87387 0
M  V30 8652 H 829.434 2.56471 -2.91813 0
M  V30 8653 H 831.106 0.552363 -4.57981 0
M  V30 8654 H 829.349 0.450462 -4.31455 0
M  V30 8655 H 830.02 1.81495 -5.21309 0
M  V30 8656 H 832.496 2.42117 -3.38406 0
M  V30 8657 H 831.372 3.54462 -4.19104 0
M  V30 8658 H 831.633 3.67416 -2.45882 0
M  V30 8659 N 830.692 1.47107 0.565454 0
M  V30 8660 C 831.939 1.53308 1.32299 0
M  V30 8661 C 832.267 0.1919 1.93551 0
M  V30 8662 O 831.522 -0.81435 1.77952 0
M  V30 8663 C 831.821 2.59309 2.45954 0
M  V30 8664 C 831.487 4.02827 2.02586 0
M  V30 8665 C 830.149 4.41897 1.90474 0
M  V30 8666 C 832.501 4.92913 1.6937 0
M  V30 8667 C 829.829 5.68898 1.4343 0
M  V30 8668 C 832.181 6.20368 1.238 0
M  V30 8669 C 830.845 6.58327 1.10278 0
M  V30 8670 H 830.115 0.560993 0.484116 0
M  V30 8671 H 832.762 1.80667 0.634965 0
M  V30 8672 H 831.067 2.25676 3.20277 0
M  V30 8673 H 832.764 2.61332 3.04149 0
M  V30 8674 H 829.354 3.71953 2.12952 0
M  V30 8675 H 833.538 4.63433 1.77605 0
M  V30 8676 H 828.794 5.97065 1.31618 0
M  V30 8677 H 832.968 6.89589 0.971586 0
M  V30 8678 H 830.595 7.56628 0.736027 0
M  V30 8679 N 832.17 -0.811516 1.35101 0
M  V30 8680 C 833.08 -1.95475 1.29718 0
M  V30 8681 C 834.096 -1.72813 0.202909 0
M  V30 8682 O 835.272 -1.96725 0.431414 0
M  V30 8683 C 832.337 -3.29975 1.06385 0
M  V30 8684 C 831.398 -3.65566 2.25077 0
M  V30 8685 C 830.631 -4.93648 2.02848 0
M  V30 8686 O 830.854 -5.617 0.992442 0
M  V30 8687 O 829.788 -5.27384 2.90087 0
M  V30 8688 H 833.614 -2.02961 2.25921 0
M  V30 8689 H 831.199 -0.948583 1.15422 0
M  V30 8690 H 833.081 -4.10506 0.951999 0
M  V30 8691 H 831.756 -3.2343 0.132294 0
M  V30 8692 H 830.663 -2.85432 2.41825 0
M  V30 8693 H 831.996 -3.7681 3.16662 0
M  V30 8694 N 833.648 -1.19017 -1.03309 0
M  V30 8695 C 834.896 -0.988258 -1.76289 0
M  V30 8696 C 835.217 0.482557 -1.88935 0
M  V30 8697 O 834.487 1.34969 -1.41987 0
M  V30 8698 H 833.067 -0.36267 -0.653054 0
M  V30 8699 H 835.729 -1.49836 -1.2464 0
M  V30 8700 H 834.825 -1.43273 -2.77271 0
M  V30 8701 N 835.127 1.22348 -0.993418 0
M  V30 8702 C 836.376 1.90422 -0.665019 0
M  V30 8703 C 836.689 1.78199 0.806512 0
M  V30 8704 O 837.895 2.41193 1.24652 0
M  V30 8705 C 836.351 3.41403 -1.13893 0
M  V30 8706 C 835.959 3.62262 -2.63572 0
M  V30 8707 C 837.703 4.15175 -0.884884 0
M  V30 8708 C 835.61 5.06947 -3.04564 0
M  V30 8709 H 834.54 0.713073 -0.245037 0
M  V30 8710 H 837.191 1.3856 -1.20305 0
M  V30 8711 H 835.573 3.9245 -0.529027 0
M  V30 8712 H 836.747 3.21705 -3.29913 0
M  V30 8713 H 835.062 3.01824 -2.86865 0
M  V30 8714 H 837.659 5.21813 -1.16684 0
M  V30 8715 H 838.002 4.15915 0.178982 0
M  V30 8716 H 838.535 3.70157 -1.45701 0
M  V30 8717 H 835.274 5.11346 -4.10128 0
M  V30 8718 H 834.794 5.48404 -2.42927 0
M  V30 8719 H 836.473 5.75374 -2.95894 0
M  V30 8720 N 836.605 0.766683 1.37694 0
M  V30 8721 C 837.515 0.150158 2.34119 0
M  V30 8722 C 838.531 -0.685513 1.59927 0
M  V30 8723 O 839.707 -0.606616 1.92047 0
M  V30 8724 C 836.772 -0.722562 3.39087 0
M  V30 8725 C 835.833 0.128983 4.29106 0
M  V30 8726 C 835.066 -0.702178 5.29061 0
M  V30 8727 O 835.289 -1.93954 5.36412 0
M  V30 8728 O 834.223 -0.114056 6.01792 0
M  V30 8729 H 838.049 0.946829 2.88563 0
M  V30 8730 H 835.634 0.527765 1.39768 0
M  V30 8731 H 837.516 -1.22095 4.03325 0
M  V30 8732 H 836.191 -1.49751 2.86978 0
M  V30 8733 H 835.098 0.673612 3.67985 0
M  V30 8734 H 836.431 0.866892 4.84506 0
M  V30 8735 N 838.083 -1.48885 0.516809 0
M  V30 8736 C 839.013 -2.32241 -0.242157 0
M  V30 8737 C 839.994 -1.41258 -0.947633 0
M  V30 8738 O 841.179 -1.70156 -0.935973 0
M  V30 8739 C 838.309 -3.22151 -1.29754 0
M  V30 8740 C 837.263 -4.22053 -0.710995 0
M  V30 8741 C 836.589 -5.01007 -1.86806 0
M  V30 8742 C 837.889 -5.21388 0.30853 0
M  V30 8743 H 839.583 -2.95943 0.453651 0
M  V30 8744 H 837.129 -1.42316 0.219612 0
M  V30 8745 H 839.082 -3.79284 -1.83634 0
M  V30 8746 H 837.806 -2.56423 -2.02274 0
M  V30 8747 H 836.465 -3.66087 -0.193819 0
M  V30 8748 H 836.113 -4.31713 -2.58133 0
M  V30 8749 H 835.813 -5.68615 -1.48159 0
M  V30 8750 H 837.337 -5.60989 -2.4109 0
M  V30 8751 H 838.751 -5.73122 -0.142703 0
M  V30 8752 H 837.148 -5.96975 0.611673 0
M  V30 8753 H 838.218 -4.69329 1.21894 0
M  V30 8754 N 839.561 -0.251338 -1.55583 0
M  V30 8755 C 840.809 0.371434 -1.98657 0
M  V30 8756 C 841.13 1.58143 -1.14087 0
M  V30 8757 O 840.4 1.94607 -0.224708 0
M  V30 8758 H 838.98 0.140225 -0.733721 0
M  V30 8759 H 841.642 -0.351157 -1.9171 0
M  V30 8760 H 840.738 0.677554 -3.04657 0
M  V30 8761 N 841.039 1.57585 0.0217189 0
M  V30 8762 C 841.986 2.07036 1.02004 0
M  V30 8763 C 842.956 0.96106 1.35473 0
M  V30 8764 O 844.141 1.23211 1.45684 0
M  V30 8765 C 841.281 2.56056 2.31364 0
M  V30 8766 C 840.394 3.80805 2.03989 0
M  V30 8767 C 839.529 4.18409 3.27272 0
M  V30 8768 C 838.568 5.36055 2.95486 0
M  V30 8769 N 837.705 5.69056 4.11242 0
M  V30 8770 H 842.545 2.92073 0.591396 0
M  V30 8771 H 840.082 1.44403 0.280384 0
M  V30 8772 H 842.04 2.82548 3.06957 0
M  V30 8773 H 840.67 1.73925 2.71937 0
M  V30 8774 H 839.722 3.61354 1.1886 0
M  V30 8775 H 841.034 4.66512 1.76546 0
M  V30 8776 H 840.188 4.46068 4.11228 0
M  V30 8777 H 838.927 3.31369 3.57835 0
M  V30 8778 H 837.932 5.08142 2.09933 0
M  V30 8779 H 839.157 6.24755 2.66193 0
M  V30 8780 H 837.103 4.84974 4.41742 0
M  V30 8781 H 837.02 6.49288 3.87247 0
M  V30 8782 H 838.288 6.01295 4.96049 0
M  V30 8783 N 842.517 -0.29412 1.54831 0
M  V30 8784 C 843.928 -0.866651 1.65366 0
M  V30 8785 C 844.279 -1.87834 0.56681 0
M  V30 8786 O 843.404 -2.14374 -0.295389 0
M  V30 8787 C 843.999 -1.57869 2.99771 0
M  V30 8788 C 842.558 -2.09954 3.12404 0
M  V30 8789 C 841.705 -0.934492 2.6108 0
M  V30 8790 H 844.656 -0.0709551 1.58541 0
M  V30 8791 H 844.677 -2.44462 2.91579 0
M  V30 8792 H 844.189 -0.84212 3.78853 0
M  V30 8793 H 842.29 -2.86637 2.38055 0
M  V30 8794 H 842.403 -2.32934 4.18663 0
M  V30 8795 H 840.767 -1.32199 2.17705 0
M  V30 8796 H 841.55 -0.211768 3.42646 0
M  V30 8797 N 843.995 -1.47404 -0.557645 0
M  V30 8798 C 845.225 -1.57393 -1.33832 0
M  V30 8799 C 845.633 -0.222978 -1.87881 0
M  V30 8800 O 844.976 0.793854 -1.65661 0
M  V30 8801 C 845.038 -2.53882 -2.54528 0
M  V30 8802 C 844.702 -3.99585 -2.21767 0
M  V30 8803 C 845.699 -4.88082 -1.79087 0
M  V30 8804 C 843.384 -4.44917 -2.3314 0
M  V30 8805 C 845.378 -6.1993 -1.48209 0
M  V30 8806 C 843.065 -5.76793 -2.01874 0
M  V30 8807 C 844.063 -6.64121 -1.59476 0
M  V30 8808 O 843.751 -7.93546 -1.28607 0
M  V30 8809 H 843.483 -0.534172 -0.41429 0
M  V30 8810 H 846.037 -1.93733 -0.682404 0
M  V30 8811 H 844.267 -2.12609 -3.23009 0
M  V30 8812 H 845.956 -2.54003 -3.16603 0
M  V30 8813 H 846.722 -4.54307 -1.69794 0
M  V30 8814 H 842.601 -3.77152 -2.65099 0
M  V30 8815 H 846.145 -6.88049 -1.15043 0
M  V30 8816 H 842.042 -6.1011 -2.10799 0
M  V30 8817 H 842.81 -8.06046 -1.42241 0
M  V30 8818 N 845.473 0.80434 -1.35529 0
M  V30 8819 C 846.75 1.5486 -1.1949 0
M  V30 8820 C 847.13 2.09897 0.22506 0
M  V30 8821 O 846.478 1.92643 1.22886 0
M  V30 8822 C 846.688 2.65535 -2.26478 0
M  V30 8823 C 848.036 3.33814 -2.62399 0
M  V30 8824 O 849.06 2.75807 -2.25409 0
M  V30 8825 O 847.919 4.38612 -3.26009 0
M  V30 8826 H 845.013 0.68433 -0.464351 0
M  V30 8827 H 847.559 0.844107 -1.47217 0
M  V30 8828 H 846.331 2.22754 -3.21709 0
M  V30 8829 H 845.954 3.43617 -2.00033 0
M  V30 8830 N 846.951 1.19563 1.02676 0
M  V30 8831 C 847.914 0.937182 2.09164 0
M  V30 8832 C 848.914 -0.0831927 1.60585 0
M  V30 8833 O 850.104 0.15178 1.73538 0
M  V30 8834 C 847.236 0.408912 3.38439 0
M  V30 8835 H 848.429 1.88164 2.33526 0
M  V30 8836 H 845.982 1.00959 1.19319 0
M  V30 8837 H 846.717 -0.541497 3.19747 0
M  V30 8838 H 846.502 1.14464 3.7502 0
M  V30 8839 H 847.992 0.247242 4.16867 0
M  V30 8840 N 848.429 -1.21819 0.999893 0
M  V30 8841 C 849.361 -2.23356 0.514256 0
M  V30 8842 C 850.374 -1.5795 -0.394413 0
M  V30 8843 O 851.563 -1.77427 -0.195428 0
M  V30 8844 C 848.663 -3.37797 -0.273207 0
M  V30 8845 C 847.836 -4.32791 0.633293 0
M  V30 8846 C 846.895 -5.26098 -0.103673 0
M  V30 8847 O 845.921 -5.66881 0.513269 0
M  V30 8848 N 847.123 -5.63764 -1.38383 0
M  V30 8849 H 849.888 -2.65653 1.3874 0
M  V30 8850 H 847.449 -1.3619 0.875431 0
M  V30 8851 H 849.441 -3.97209 -0.775053 0
M  V30 8852 H 848.011 -2.94527 -1.0475 0
M  V30 8853 H 847.231 -3.71595 1.31571 0
M  V30 8854 H 848.519 -4.93196 1.25039 0
M  V30 8855 H 847.917 -5.32614 -1.90627 0
M  V30 8856 H 846.474 -6.25562 -1.83073 0
M  V30 8857 N 849.908 -0.773975 -1.37286 0
M  V30 8858 C 851.157 -0.335977 -1.98882 0
M  V30 8859 C 851.47 1.09416 -1.62134 0
M  V30 8860 O 852.676 1.63366 -2.1685 0
M  V30 8861 C 851.132 -0.549756 -3.55676 0
M  V30 8862 C 850.74 -1.9903 -4.01361 0
M  V30 8863 C 852.484 -0.175493 -4.24137 0
M  V30 8864 C 850.391 -2.15156 -5.50874 0
M  V30 8865 H 849.321 -0.121877 -0.744085 0
M  V30 8866 H 851.972 -0.953419 -1.56787 0
M  V30 8867 H 850.354 0.137175 -3.95762 0
M  V30 8868 H 851.528 -2.71237 -3.72515 0
M  V30 8869 H 849.843 -2.32137 -3.4569 0
M  V30 8870 H 852.44 -0.274463 -5.33995 0
M  V30 8871 H 852.783 0.874524 -4.07011 0
M  V30 8872 H 853.316 -0.815058 -3.89361 0
M  V30 8873 H 850.055 -3.18485 -5.72929 0
M  V30 8874 H 849.575 -1.47435 -5.81397 0
M  V30 8875 H 851.254 -1.95124 -6.16876 0
M  V30 8876 N 851.386 1.48609 -0.524698 0
M  V30 8877 C 852.333 2.29539 0.240956 0
M  V30 8878 C 853.303 1.37033 0.938681 0
M  V30 8879 O 854.488 1.65996 0.940737 0
M  V30 8880 C 851.628 3.20278 1.28514 0
M  V30 8881 C 850.741 4.27858 0.596798 0
M  V30 8882 C 849.876 5.05784 1.62346 0
M  V30 8883 C 848.915 6.05173 0.918287 0
M  V30 8884 N 848.052 6.76176 1.89025 0
M  V30 8885 H 852.892 2.945 -0.455368 0
M  V30 8886 H 850.429 1.45188 -0.236403 0
M  V30 8887 H 852.387 3.71281 1.90279 0
M  V30 8888 H 851.017 2.57251 1.94992 0
M  V30 8889 H 850.069 3.80162 -0.134668 0
M  V30 8890 H 851.381 4.98782 0.0428506 0
M  V30 8891 H 850.535 5.60775 2.31553 0
M  V30 8892 H 849.274 4.34687 2.2113 0
M  V30 8893 H 848.279 5.49391 0.21212 0
M  V30 8894 H 849.504 6.78265 0.336633 0
M  V30 8895 H 847.45 6.07834 2.46726 0
M  V30 8896 H 847.367 7.43157 1.3876 0
M  V30 8897 H 848.635 7.35759 2.57446 0
M  V30 8898 N 852.864 0.259585 1.55447 0
M  V30 8899 C 854.11 -0.362143 1.9954 0
M  V30 8900 C 854.443 -1.5666 1.14767 0
M  V30 8901 O 853.718 -1.93319 0.214025 0
M  V30 8902 C 854.001 -0.759588 3.51998 0
M  V30 8903 C 853.854 0.451134 4.47532 0
M  V30 8904 C 855.173 -1.60186 4.09913 0
M  V30 8905 H 852.292 -0.130157 0.725416 0
M  V30 8906 H 854.934 0.363431 1.86492 0
M  V30 8907 H 853.084 -1.3778 3.63248 0
M  V30 8908 H 854.756 1.08965 4.48246 0
M  V30 8909 H 852.999 1.092 4.19831 0
M  V30 8910 H 853.67 0.129518 5.51848 0
M  V30 8911 H 856.146 -1.0799 4.01842 0
M  V30 8912 H 855.022 -1.84879 5.16828 0
M  V30 8913 H 855.283 -2.57787 3.59163 0
M  V30 8914 N 854.342 -1.57594 -0.0133615 0
M  V30 8915 C 855.588 -1.90262 -0.702019 0
M  V30 8916 C 855.921 -0.859219 -1.74158 0
M  V30 8917 O 855.196 0.123778 -1.94106 0
M  V30 8918 C 855.479 -3.3354 -1.35732 0
M  V30 8919 C 855.332 -4.48586 -0.330208 0
M  V30 8920 C 856.651 -3.76004 -2.28712 0
M  V30 8921 H 853.77 -0.691943 -0.253739 0
M  V30 8922 H 856.412 -1.89967 0.0351894 0
M  V30 8923 H 854.562 -3.33921 -1.98567 0
M  V30 8924 H 856.234 -4.6034 0.297433 0
M  V30 8925 H 854.477 -4.32394 0.348926 0
M  V30 8926 H 855.148 -5.45762 -0.827508 0
M  V30 8927 H 857.624 -3.77089 -1.75906 0
M  V30 8928 H 856.5 -4.77032 -2.71535 0
M  V30 8929 H 856.761 -3.09129 -3.16056 0
M  V30 8930 N 855.82 0.285905 -1.54985 0
M  V30 8931 C 857.097 1.0397 -1.65679 0
M  V30 8932 C 857.477 2.04725 -0.514851 0
M  V30 8933 O 856.825 2.23257 0.486663 0
M  V30 8934 C 857.035 1.70807 -3.04345 0
M  V30 8935 C 858.383 2.22447 -3.61666 0
M  V30 8936 O 859.407 1.80815 -3.06895 0
M  V30 8937 O 858.266 2.98773 -4.57599 0
M  V30 8938 H 855.36 0.481473 -0.672394 0
M  V30 8939 H 857.906 0.282789 -1.67327 0
M  V30 8940 H 856.678 0.977271 -3.789 0
M  V30 8941 H 856.301 2.53217 -3.06541 0
M  V30 8942 N 857.298 1.47698 0.54982 0
M  V30 8943 C 858.546 1.54397 1.30407 0
M  V30 8944 C 858.867 0.211026 1.93855 0
M  V30 8945 O 858.137 -0.765701 1.80316 0
M  V30 8946 H 856.717 0.568747 0.484289 0
M  V30 8947 H 859.379 1.84042 0.641444 0
M  V30 8948 H 858.475 2.31449 2.09375 0
M  V30 8949 N 858.776 -0.797141 1.35954 0
M  V30 8950 C 860.022 -1.55698 1.29946 0
M  V30 8951 C 860.355 -1.93808 -0.123259 0
M  V30 8952 O 859.63 -1.62102 -1.07486 0
M  V30 8953 C 859.913 -2.83926 2.2149 0
M  V30 8954 C 859.766 -2.52232 3.72423 0
M  V30 8955 C 861.085 -3.85698 2.11955 0
M  V30 8956 H 858.204 -0.56488 0.47337 0
M  V30 8957 H 860.846 -0.916421 1.66438 0
M  V30 8958 H 858.996 -3.38588 1.905 0
M  V30 8959 H 860.668 -2.0368 4.13899 0
M  V30 8960 H 858.911 -1.85286 3.92239 0
M  V30 8961 H 859.582 -3.43782 4.31877 0
M  V30 8962 H 862.058 -3.40462 2.39218 0
M  V30 8963 H 860.934 -4.73182 2.78191 0
M  V30 8964 H 861.195 -4.28083 1.10442 0
M  V30 8965 N 860.254 -1.20106 -1.0204 0
M  V30 8966 C 861.184 -0.970301 -2.12385 0
M  V30 8967 C 862.165 0.099378 -1.69809 0
M  V30 8968 O 863.35 -0.057365 -1.94115 0
M  V30 8969 C 860.48 -0.517431 -3.43424 0
M  V30 8970 C 859.434 -1.52992 -3.99722 0
M  V30 8971 C 858.76 -0.933817 -5.26483 0
M  V30 8972 C 860.06 -2.91257 -4.33551 0
M  V30 8973 H 861.754 -1.89316 -2.31948 0
M  V30 8974 H 859.3 -0.911655 -1.11467 0
M  V30 8975 H 861.253 -0.343243 -4.2 0
M  V30 8976 H 859.977 0.441049 -3.23608 0
M  V30 8977 H 858.636 -1.6914 -3.2525 0
M  V30 8978 H 858.284 0.0324763 -5.0299 0
M  V30 8979 H 857.984 -1.60999 -5.65113 0
M  V30 8980 H 859.508 -0.770614 -6.05718 0
M  V30 8981 H 860.922 -2.78642 -5.0103 0
M  V30 8982 H 859.319 -3.55745 -4.83286 0
M  V30 8983 H 860.389 -3.43269 -3.42483 0
M  V30 8984 N 861.732 1.21287 -1.00634 0
M  V30 8985 C 862.957 1.94925 -0.708441 0
M  V30 8986 C 863.382 1.73659 0.722783 0
M  V30 8987 O 862.74 1.02429 1.49593 0
M  V30 8988 C 862.788 3.45377 -1.03667 0
M  V30 8989 O 861.892 4.12153 -0.142661 0
M  V30 8990 H 861.233 0.609338 -0.263824 0
M  V30 8991 H 863.763 1.54008 -1.34695 0
M  V30 8992 H 863.773 3.95954 -0.984086 0
M  V30 8993 H 862.448 3.6018 -2.0795 0
M  V30 8994 H 861.025 3.72048 -0.251888 0
M  V30 8995 N 863.21 0.781244 1.36873 0
M  V30 8996 C 864.143 0.120106 2.27884 0
M  V30 8997 C 865.121 -0.698961 1.4681 0
M  V30 8998 O 866.305 -0.671694 1.76126 0
M  V30 8999 C 863.432 -0.835804 3.28226 0
M  V30 9000 C 862.478 -0.0995527 4.26384 0
M  V30 9001 S 863.311 1.21903 5.2144 0
M  V30 9002 C 864.467 0.266904 6.25331 0
M  V30 9003 H 864.7 0.891796 2.83609 0
M  V30 9004 H 862.233 0.575075 1.43291 0
M  V30 9005 H 864.191 -1.3819 3.86541 0
M  V30 9006 H 862.852 -1.58068 2.71428 0
M  V30 9007 H 862.045 -0.82457 4.97209 0
M  V30 9008 H 861.647 0.375818 3.72107 0
M  V30 9009 H 863.939 -0.55725 6.75204 0
M  V30 9010 H 864.882 0.943603 7.01785 0
M  V30 9011 H 865.29 -0.126121 5.64359 0
M  V30 9012 N 864.689 -1.48329 0.532571 0
M  V30 9013 C 865.917 -2.069 0.00354299 0
M  V30 9014 C 866.332 -1.38876 -1.27902 0
M  V30 9015 O 865.689 -0.477119 -1.76153 0
M  V30 9016 C 865.74 -3.60821 -0.221416 0
M  V30 9017 O 865.461 -4.26291 1.01034 0
M  V30 9018 C 866.962 -4.36194 -0.790531 0
M  V30 9019 H 864.182 -0.670103 0.0346836 0
M  V30 9020 H 866.726 -1.90682 0.738955 0
M  V30 9021 H 864.881 -3.76636 -0.906884 0
M  V30 9022 H 865.295 -5.18475 0.792683 0
M  V30 9023 H 866.769 -5.44657 -0.897347 0
M  V30 9024 H 867.246 -4.00798 -1.79605 0
M  V30 9025 H 867.852 -4.25064 -0.141546 0
M  V30 9026 N 866.167 -0.267825 -1.55308 0
M  V30 9027 C 867.413 0.351556 -1.9973 0
M  V30 9028 C 867.746 1.56049 -1.15596 0
M  V30 9029 O 867.021 1.93203 -0.224274 0
M  V30 9030 C 867.304 0.74091 -3.52395 0
M  V30 9031 C 867.157 -0.474861 -4.47286 0
M  V30 9032 C 868.476 1.5801 -4.10756 0
M  V30 9033 H 865.595 0.126308 -0.726096 0
M  V30 9034 H 868.237 -0.373316 -1.86296 0
M  V30 9035 H 866.387 1.35851 -3.63973 0
M  V30 9036 H 868.059 -1.1134 -4.47662 0
M  V30 9037 H 866.302 -1.11425 -4.19246 0
M  V30 9038 H 866.973 -0.158782 -5.51772 0
M  V30 9039 H 869.449 1.05857 -4.0241 0
M  V30 9040 H 868.325 1.82135 -5.17801 0
M  V30 9041 H 868.586 2.55878 -3.60526 0
M  V30 9042 N 867.645 1.57599 0.00500368 0
M  V30 9043 C 868.593 2.09223 1.01628 0
M  V30 9044 C 869.587 1.01113 1.35913 0
M  V30 9045 O 870.793 1.19583 1.34536 0
M  V30 9046 H 867.168 0.667999 0.345372 0
M  V30 9047 H 869.139 2.93188 0.555274 0
M  V30 9048 C 867.888 2.60674 2.30097 0
M  V30 9049 H 867.211 3.43491 2.04582 0
M  V30 9050 H 868.651 3.00479 2.99146 0
M  V30 9051 C 867.11 1.51862 3.00731 0
M  V30 9052 O 867.64 0.898651 3.91519 0
M  V30 9053 N 865.846 1.24729 2.62471 0
M  V30 9054 H 865.393 1.7533 1.88725 0
M  V30 9055 H 865.351 0.521437 3.10046 0
M  V30 9056 N 869.123 -0.277682 1.55134 0
M  V30 9057 C 870.371 -1.00791 1.75173 0
M  V30 9058 C 870.692 -1.86987 0.553266 0
M  V30 9059 O 869.962 -1.91079 -0.43195 0
M  V30 9060 H 868.542 -0.375129 0.645978 0
M  V30 9061 H 871.204 -0.303041 1.9253 0
M  V30 9062 H 870.3 -1.64756 2.6507 0
M  V30 9063 N 870.601 -1.47988 -0.541979 0
M  V30 9064 C 871.533 -1.5769 -1.66332 0
M  V30 9065 C 872.546 -0.461994 -1.56107 0
M  V30 9066 O 873.735 -0.732306 -1.62787 0
M  V30 9067 C 870.835 -1.47939 -3.04905 0
M  V30 9068 C 870.008 -2.74263 -3.40733 0
M  V30 9069 C 869.067 -2.58133 -4.58534 0
M  V30 9070 O 868.093 -3.31991 -4.62354 0
M  V30 9071 N 869.295 -1.6696 -5.55972 0
M  V30 9072 H 872.06 -2.54389 -1.5845 0
M  V30 9073 H 869.621 -1.4456 -0.728979 0
M  V30 9074 H 871.613 -1.34861 -3.81569 0
M  V30 9075 H 870.183 -0.592626 -3.06931 0
M  V30 9076 H 869.403 -3.01992 -2.53366 0
M  V30 9077 H 870.691 -3.58094 -3.6145 0
M  V30 9078 H 870.089 -1.06134 -5.55655 0
M  V30 9079 H 868.646 -1.59826 -6.31901 0
M  V30 9080 N 872.079 0.78992 -1.36375 0
M  V30 9081 C 873.307 1.57873 -1.3373 0
M  V30 9082 C 873.722 1.88624 0.0815544 0
M  V30 9083 O 873.079 1.50085 1.03831 0
M  V30 9084 C 873.13 2.90003 -2.15825 0
M  V30 9085 O 872.851 2.60578 -3.5218 0
M  V30 9086 C 874.352 3.84309 -2.20955 0
M  V30 9087 H 871.572 0.489685 -0.458748 0
M  V30 9088 H 874.116 0.980436 -1.79465 0
M  V30 9089 H 872.271 3.46303 -1.73646 0
M  V30 9090 H 872.685 3.4506 -3.95011 0
M  V30 9091 H 874.159 4.74081 -2.82756 0
M  V30 9092 H 874.636 4.22121 -1.21287 0
M  V30 9093 H 875.242 3.33942 -2.63368 0
M  V30 9094 N 873.557 1.20646 1.01402 0
M  V30 9095 C 874.504 0.957618 2.09996 0
M  V30 9096 C 875.474 -0.113115 1.65714 0
M  V30 9097 O 876.659 0.032142 1.90773 0
M  V30 9098 C 873.799 0.5186 3.41181 0
M  V30 9099 C 872.912 1.65777 3.98926 0
M  V30 9100 C 872.047 1.16881 5.18182 0
M  V30 9101 C 871.086 2.2809 5.68015 0
M  V30 9102 N 870.223 1.80392 6.7853 0
M  V30 9103 H 875.063 1.88732 2.30617 0
M  V30 9104 H 872.6 0.940703 1.13089 0
M  V30 9105 H 874.558 0.245367 4.16478 0
M  V30 9106 H 873.188 -0.3741 3.20625 0
M  V30 9107 H 872.24 2.04586 3.207 0
M  V30 9108 H 873.552 2.49507 4.31912 0
M  V30 9109 H 872.706 0.851694 6.00692 0
M  V30 9110 H 871.445 0.301434 4.86768 0
M  V30 9111 H 870.45 2.60614 4.84108 0
M  V30 9112 H 871.675 3.15308 6.01463 0
M  V30 9113 H 869.621 0.959856 6.4894 0
M  V30 9114 H 869.538 2.57701 7.10722 0
M  V30 9115 H 870.806 1.51688 7.64598 0
M  V30 9116 N 875.035 -1.20752 1.01276 0
M  V30 9117 C 876.263 -1.94006 0.718976 0
M  V30 9118 C 876.678 -1.74544 -0.719711 0
M  V30 9119 O 876.035 -1.05697 -1.48776 0
M  V30 9120 C 876.086 -3.46208 1.04031 0
M  V30 9121 O 875.807 -3.65031 2.42248 0
M  V30 9122 C 877.308 -4.36614 0.767032 0
M  V30 9123 H 874.528 -0.616743 0.264327 0
M  V30 9124 H 877.072 -1.53352 1.3529 0
M  V30 9125 H 875.227 -3.84756 0.451852 0
M  V30 9126 H 875.641 -4.59054 2.53712 0
M  V30 9127 H 877.115 -5.42076 1.04198 0
M  V30 9128 H 877.592 -4.38182 -0.298851 0
M  V30 9129 H 878.198 -4.03723 1.33746 0
M  V30 9130 N 876.513 -0.788492 -1.36457 0
M  V30 9131 C 877.759 -0.360995 -1.99561 0
M  V30 9132 C 878.092 1.06433 -1.62437 0
M  V30 9133 O 877.367 1.7352 -0.878705 0
M  V30 9134 C 877.65 -0.523735 -3.56271 0
M  V30 9135 C 877.503 -1.99268 -4.03252 0
M  V30 9136 C 878.822 0.0617908 -4.40057 0
M  V30 9137 H 875.941 -0.13264 -0.724966 0
M  V30 9138 H 878.583 -0.994659 -1.61884 0
M  V30 9139 H 876.733 0.0156979 -3.88497 0
M  V30 9140 H 878.405 -2.59311 -3.81518 0
M  V30 9141 H 876.648 -2.49561 -3.54826 0
M  V30 9142 H 877.319 -2.05752 -5.12221 0
M  V30 9143 H 879.795 -0.398674 -4.14186 0
M  V30 9144 H 878.671 -0.0821089 -5.48839 0
M  V30 9145 H 878.932 1.15381 -4.26778 0
M  V30 9146 N 877.991 1.48044 -0.54043 0
M  V30 9147 C 879.268 1.95523 0.0547302 0
M  V30 9148 C 879.648 1.48284 1.5025 0
M  V30 9149 O 878.996 0.714037 2.17057 0
M  V30 9150 C 879.206 3.48923 -0.0733393 0
M  V30 9151 C 880.554 4.24523 0.0806026 0
M  V30 9152 O 881.578 3.562 -5.58687e-05 0
M  V30 9153 O 880.437 5.45922 0.251216 0
M  V30 9154 H 877.531 0.823728 0.073493 0
M  V30 9155 H 880.077 1.5852 -0.605768 0
M  V30 9156 H 878.849 3.76059 -1.08144 0
M  V30 9157 H 878.472 3.92648 0.625536 0
M  V30 9158 N 879.47 0.276058 1.55163 0
M  V30 9159 C 880.717 -0.340455 1.99618 0
M  V30 9160 C 881.045 -1.5579 1.16446 0
M  V30 9161 O 880.3 -1.94433 0.222359 0
M  V30 9162 C 880.599 -0.765744 3.491 0
M  V30 9163 C 880.265 0.347174 4.49561 0
M  V30 9164 C 878.927 0.65276 4.76752 0
M  V30 9165 C 881.279 1.09705 5.09523 0
M  V30 9166 C 878.607 1.71179 5.61173 0
M  V30 9167 C 880.959 2.14581 5.95095 0
M  V30 9168 C 879.623 2.45773 6.20606 0
M  V30 9169 H 878.893 -0.124581 0.730452 0
M  V30 9170 H 881.54 0.389966 1.87487 0
M  V30 9171 H 879.845 -1.57585 3.58712 0
M  V30 9172 H 881.542 -1.25352 3.80904 0
M  V30 9173 H 878.132 0.0988779 4.28486 0
M  V30 9174 H 882.316 0.874223 4.8854 0
M  V30 9175 H 877.572 1.95846 5.79184 0
M  V30 9176 H 881.746 2.7316 6.40591 0
M  V30 9177 H 879.373 3.27969 6.85813 0
M  V30 9178 N 880.948 -1.576 0.00335426 0
M  V30 9179 C 882.194 -1.90996 -0.681799 0
M  V30 9180 C 882.527 -0.877643 -1.73237 0
M  V30 9181 O 881.802 0.103183 -1.94226 0
M  V30 9182 C 882.085 -3.34961 -1.32187 0
M  V30 9183 C 881.938 -4.48911 -0.28261 0
M  V30 9184 C 883.257 -3.78408 -2.24711 0
M  V30 9185 H 880.376 -0.694596 -0.246386 0
M  V30 9186 H 883.018 -1.89919 0.055336 0
M  V30 9187 H 881.168 -3.36008 -1.95014 0
M  V30 9188 H 882.84 -4.59999 0.346241 0
M  V30 9189 H 881.083 -4.32 0.394768 0
M  V30 9190 H 881.754 -5.46609 -0.769576 0
M  V30 9191 H 884.23 -3.78934 -1.71897 0
M  V30 9192 H 883.106 -4.79885 -2.66461 0
M  V30 9193 H 883.367 -3.12464 -3.1276 0
M  V30 9194 N 882.426 0.269451 -1.5528 0
M  V30 9195 C 883.389 1.31642 -1.87625 0
M  V30 9196 C 884.389 1.42182 -0.751058 0
M  V30 9197 O 885.579 1.41272 -1.01921 0
M  V30 9198 C 882.711 2.6973 -2.08467 0
M  V30 9199 H 883.904 1.0419 -2.81219 0
M  V30 9200 H 881.457 0.507685 -1.47825 0
M  V30 9201 H 882.192 3.02356 -1.17266 0
M  V30 9202 H 881.977 2.63465 -2.90394 0
M  V30 9203 H 883.467 3.4537 -2.34753 0
M  V30 9204 N 883.904 1.48273 0.534124 0
M  V30 9205 C 884.851 1.62487 1.6391 0
M  V30 9206 C 885.821 0.467062 1.59398 0
M  V30 9207 O 887.006 0.690029 1.77885 0
M  V30 9208 C 884.146 1.66671 3.02183 0
M  V30 9209 C 883.259 2.9353 3.16961 0
M  V30 9210 C 882.394 2.88902 4.45768 0
M  V30 9211 C 881.433 4.10483 4.54059 0
M  V30 9212 N 880.57 4.03956 5.74251 0
M  V30 9213 H 885.41 2.56851 1.51101 0
M  V30 9214 H 882.947 1.27381 0.735704 0
M  V30 9215 H 884.905 1.67079 3.82283 0
M  V30 9216 H 883.535 0.758011 3.13774 0
M  V30 9217 H 882.587 3.02886 2.3014 0
M  V30 9218 H 883.899 3.83501 3.18949 0
M  V30 9219 H 883.053 2.87688 5.34154 0
M  V30 9220 H 881.792 1.96652 4.46295 0
M  V30 9221 H 880.797 4.11977 3.64081 0
M  V30 9222 H 882.022 5.03887 4.55274 0
M  V30 9223 H 879.968 3.14525 5.75682 0
M  V30 9224 H 879.885 4.87628 5.77715 0
M  V30 9225 H 881.153 4.06795 6.64935 0
M  V30 9226 N 885.382 -0.782676 1.36792 0
M  V30 9227 C 886.659 -1.52939 1.21939 0
M  V30 9228 C 887.039 -2.10228 -0.191639 0
M  V30 9229 O 886.387 -1.94574 -1.19805 0
M  V30 9230 C 886.597 -2.61898 2.30674 0
M  V30 9231 C 887.945 -3.29598 2.67676 0
M  V30 9232 O 888.969 -2.72186 2.29768 0
M  V30 9233 O 887.828 -4.3337 3.32946 0
M  V30 9234 H 884.922 -0.676856 0.47518 0
M  V30 9235 H 887.468 -0.82058 1.48542 0
M  V30 9236 H 886.24 -2.17607 3.25212 0
M  V30 9237 H 885.863 -3.40391 2.05475 0
M  V30 9238 N 886.86 -1.21182 -1.00761 0
M  V30 9239 C 887.823 -0.970339 -2.07646 0
M  V30 9240 C 888.823 0.0576345 -1.60697 0
M  V30 9241 O 890.013 -0.179369 -1.73274 0
M  V30 9242 C 887.145 -0.462703 -3.37745 0
M  V30 9243 H 888.338 -1.91856 -2.30502 0
M  V30 9244 H 885.891 -1.02844 -1.17698 0
M  V30 9245 H 886.626 0.490559 -3.20568 0
M  V30 9246 H 886.411 -1.20416 -3.73152 0
M  V30 9247 H 887.901 -0.313531 -4.16421 0
M  V30 9248 N 888.338 1.20213 -1.01915 0
M  V30 9249 C 889.586 1.89272 -0.708552 0
M  V30 9250 C 889.907 1.79394 0.76438 0
M  V30 9251 O 889.177 1.198 1.54999 0
M  V30 9252 H 887.757 0.700628 -0.259094 0
M  V30 9253 H 890.419 1.45985 -1.29129 0
M  V30 9254 H 889.515 2.95841 -0.994215 0
M  V30 9255 N 889.816 0.795718 1.36037 0
M  V30 9256 C 891.062 0.380668 1.99806 0
M  V30 9257 C 891.417 -1.03783 1.62009 0
M  V30 9258 O 890.71 -1.70819 0.867831 0
M  V30 9259 C 890.904 0.489038 3.54038 0
M  V30 9260 C 890.733 1.91652 4.06817 0
M  V30 9261 C 889.503 2.54252 4.36674 0
M  V30 9262 C 891.701 2.87956 4.26129 0
M  V30 9263 N 889.683 3.88523 4.75314 0
M  V30 9264 C 891.054 4.07074 4.67644 0
M  V30 9265 C 893.109 2.8493 4.08313 0
M  V30 9266 C 891.812 5.23583 4.93208 0
M  V30 9267 C 893.838 4.00632 4.35027 0
M  V30 9268 C 893.2 5.18496 4.76804 0
M  V30 9269 H 889.299 0.186842 0.759351 0
M  V30 9270 H 891.883 1.03465 1.64933 0
M  V30 9271 H 890.054 -0.134893 3.88166 0
M  V30 9272 H 891.786 0.0496256 4.0467 0
M  V30 9273 H 888.541 2.05685 4.26604 0
M  V30 9274 H 888.965 4.57623 4.98909 0
M  V30 9275 H 893.607 1.94964 3.75165 0
M  V30 9276 H 891.325 6.14129 5.25234 0
M  V30 9277 H 894.911 3.99659 4.22805 0
M  V30 9278 H 893.791 6.06538 4.97073 0
M  V30 9279 N 891.294 -1.47756 0.548274 0
M  V30 9280 C 892.241 -2.29893 -0.204408 0
M  V30 9281 C 893.211 -1.38509 -0.916761 0
M  V30 9282 O 894.396 -1.67472 -0.91421 0
M  V30 9283 C 891.536 -3.22282 -1.23403 0
M  V30 9284 C 890.649 -4.28753 -0.528654 0
M  V30 9285 C 889.784 -5.08303 -1.54279 0
M  V30 9286 C 888.823 -6.06557 -0.821893 0
M  V30 9287 N 887.96 -6.79098 -1.78243 0
M  V30 9288 H 892.8 -2.93739 0.502163 0
M  V30 9289 H 890.337 -1.44793 0.259471 0
M  V30 9290 H 892.295 -3.74262 -1.84348 0
M  V30 9291 H 890.925 -2.6032 -1.90875 0
M  V30 9292 H 889.977 -3.79899 0.195132 0
M  V30 9293 H 891.289 -4.98787 0.0365066 0
M  V30 9294 H 890.443 -5.64388 -2.22602 0
M  V30 9295 H 889.182 -4.3815 -2.14186 0
M  V30 9296 H 888.187 -5.49659 -0.12469 0
M  V30 9297 H 889.412 -6.78715 -0.228685 0
M  V30 9298 H 887.358 -6.11682 -2.37025 0
M  V30 9299 H 887.275 -7.4527 -1.26919 0
M  V30 9300 H 888.543 -7.39762 -2.45709 0
M  V30 9301 N 892.772 -0.284283 -1.55015 0
M  V30 9302 C 894.049 0.382125 -1.91831 0
M  V30 9303 C 894.429 1.73007 -1.20962 0
M  V30 9304 O 893.777 2.25962 -0.339594 0
M  V30 9305 C 893.987 0.513341 -3.45204 0
M  V30 9306 C 895.335 0.791989 -4.17148 0
M  V30 9307 O 896.359 0.597799 -3.51148 0
M  V30 9308 O 895.218 1.16394 -5.33961 0
M  V30 9309 H 892.312 0.210707 -0.799707 0
M  V30 9310 H 894.858 -0.331111 -1.66438 0
M  V30 9311 H 893.63 -0.434911 -3.88876 0
M  V30 9312 H 893.253 1.27569 -3.76579 0
M  V30 9313 N 894.251 1.57596 -0.0117121 0
M  V30 9314 C 895.181 2.12188 0.9746 0
M  V30 9315 C 896.162 1.03379 1.35081 0
M  V30 9316 O 897.347 1.31123 1.4325 0
M  V30 9317 C 894.477 2.63477 2.26268 0
M  V30 9318 C 893.431 3.76917 2.02774 0
M  V30 9319 C 892.757 4.14566 3.37697 0
M  V30 9320 C 894.057 5.03715 1.38089 0
M  V30 9321 H 895.751 2.9485 0.520007 0
M  V30 9322 H 893.297 1.41836 0.248685 0
M  V30 9323 H 895.25 3.00299 2.95633 0
M  V30 9324 H 893.974 1.77953 2.73862 0
M  V30 9325 H 892.633 3.40507 1.35832 0
M  V30 9326 H 892.281 3.26048 3.83016 0
M  V30 9327 H 891.981 4.91 3.22789 0
M  V30 9328 H 893.505 4.53956 4.08358 0
M  V30 9329 H 894.919 5.38233 1.97428 0
M  V30 9330 H 893.316 5.85032 1.33634 0
M  V30 9331 H 894.386 4.83624 0.351575 0
M  V30 9332 N 895.729 -0.261212 1.5542 0
M  V30 9333 C 896.676 -1.32315 1.89107 0
M  V30 9334 C 897.646 -1.48517 0.743767 0
M  V30 9335 O 898.831 -1.62733 0.996123 0
M  V30 9336 C 895.971 -2.67626 2.17877 0
M  V30 9337 C 895.084 -2.59549 3.45338 0
M  V30 9338 C 894.219 -3.87118 3.63748 0
M  V30 9339 C 893.258 -3.736 4.8486 0
M  V30 9340 N 892.395 -4.93029 4.99867 0
M  V30 9341 H 897.235 -1.02886 2.79675 0
M  V30 9342 H 894.772 -0.496812 1.38456 0
M  V30 9343 H 896.73 -3.4637 2.32559 0
M  V30 9344 H 895.36 -2.95232 1.30529 0
M  V30 9345 H 894.412 -1.72452 3.39064 0
M  V30 9346 H 895.724 -2.45465 4.34222 0
M  V30 9347 H 894.878 -4.74305 3.78312 0
M  V30 9348 H 893.617 -4.04084 2.73071 0
M  V30 9349 H 892.622 -2.84797 4.70288 0
M  V30 9350 H 893.847 -3.58143 5.76984 0
M  V30 9351 H 891.793 -5.10383 4.12123 0
M  V30 9352 H 891.71 -4.81521 5.82815 0
M  V30 9353 H 892.978 -5.81754 5.18828 0
M  V30 9354 N 897.207 -1.48554 -0.526253 0
M  V30 9355 C 898.454 -1.56761 -1.28188 0
M  V30 9356 C 898.782 -0.24315 -1.92974 0
M  V30 9357 O 898.037 0.766883 -1.80048 0
M  V30 9358 C 898.336 -2.65739 -2.38993 0
M  V30 9359 C 898.002 -4.08057 -1.91834 0
M  V30 9360 C 896.664 -4.46792 -1.78691 0
M  V30 9361 C 899.016 -4.9723 -1.56242 0
M  V30 9362 C 896.344 -5.72501 -1.28296 0
M  V30 9363 C 898.696 -6.23432 -1.07309 0
M  V30 9364 C 897.36 -6.6102 -0.927853 0
M  V30 9365 H 896.63 -0.573631 -0.469072 0
M  V30 9366 H 899.277 -1.82287 -0.586842 0
M  V30 9367 H 897.582 -2.34088 -3.14181 0
M  V30 9368 H 899.279 -2.69304 -2.97113 0
M  V30 9369 H 895.869 -3.77469 -2.03016 0
M  V30 9370 H 900.053 -4.67979 -1.65255 0
M  V30 9371 H 895.309 -6.00345 -1.15742 0
M  V30 9372 H 899.483 -6.91923 -0.788412 0
M  V30 9373 H 897.11 -7.58314 -0.535162 0
M  V30 9374 N 898.685 0.775411 -1.37205 0
M  V30 9375 C 899.915 1.56219 -1.352 0
M  V30 9376 C 900.323 1.89087 0.065456 0
M  V30 9377 O 899.666 1.51655 1.03665 0
M  V30 9378 C 899.728 2.9019 -2.12203 0
M  V30 9379 C 899.392 2.79978 -3.61195 0
M  V30 9380 C 900.389 2.51258 -4.55154 0
M  V30 9381 C 898.074 2.98115 -4.04268 0
M  V30 9382 C 900.068 2.40798 -5.90165 0
M  V30 9383 C 897.755 2.87276 -5.39366 0
M  V30 9384 C 898.753 2.58657 -6.32128 0
M  V30 9385 O 898.441 2.47838 -7.64743 0
M  V30 9386 H 898.173 0.490735 -0.464925 0
M  V30 9387 H 900.727 0.969201 -1.81096 0
M  V30 9388 H 898.957 3.51594 -1.60992 0
M  V30 9389 H 900.646 3.51561 -2.02879 0
M  V30 9390 H 901.412 2.36935 -4.23186 0
M  V30 9391 H 897.291 3.19392 -3.3243 0
M  V30 9392 H 900.835 2.18381 -6.62537 0
M  V30 9393 H 896.732 3.01166 -5.70937 0
M  V30 9394 H 897.5 2.63215 -7.75023 0
M  V30 9395 N 900.163 1.21714 1.00117 0
M  V30 9396 C 901.41 1.0367 1.73951 0
M  V30 9397 C 901.738 -0.429289 1.89703 0
M  V30 9398 O 900.993 -1.33475 1.43119 0
M  V30 9399 C 901.292 1.68345 3.15269 0
M  V30 9400 C 900.958 3.18214 3.19454 0
M  V30 9401 C 899.62 3.59109 3.20303 0
M  V30 9402 C 901.972 4.14179 3.16394 0
M  V30 9403 C 899.3 4.94467 3.15783 0
M  V30 9404 C 901.652 5.49502 3.13416 0
M  V30 9405 C 900.316 5.8979 3.12577 0
M  V30 9406 H 899.586 0.379355 0.63653 0
M  V30 9407 H 902.233 1.51361 1.17312 0
M  V30 9408 H 900.538 1.12957 3.75164 0
M  V30 9409 H 902.235 1.51882 3.71124 0
M  V30 9410 H 898.825 2.85646 3.19538 0
M  V30 9411 H 903.009 3.83607 3.14895 0
M  V30 9412 H 898.265 5.24923 3.13473 0
M  V30 9413 H 902.439 6.23595 3.10003 0
M  V30 9414 H 900.066 6.94643 3.08829 0
M  V30 9415 N 901.641 -1.19671 1.02551 0
M  V30 9416 C 902.588 -2.22773 0.603394 0
M  V30 9417 C 903.558 -1.61669 -0.381081 0
M  V30 9418 O 904.743 -1.88756 -0.278505 0
M  V30 9419 C 901.883 -3.45073 -0.0431034 0
M  V30 9420 C 900.996 -4.20574 0.987006 0
M  V30 9421 C 900.131 -5.30291 0.310626 0
M  V30 9422 C 899.17 -5.97545 1.32688 0
M  V30 9423 N 898.307 -6.98833 0.676542 0
M  V30 9424 H 903.147 -2.58238 1.48719 0
M  V30 9425 H 900.684 -1.26881 0.744286 0
M  V30 9426 H 902.642 -4.14925 -0.435141 0
M  V30 9427 H 901.272 -3.10274 -0.890495 0
M  V30 9428 H 900.324 -3.497 1.49713 0
M  V30 9429 H 901.636 -4.66736 1.75952 0
M  V30 9430 H 900.79 -6.06547 -0.136438 0
M  V30 9431 H 899.529 -4.8519 -0.49412 0
M  V30 9432 H 898.534 -5.20043 1.78424 0
M  V30 9433 H 899.759 -6.4473 2.13306 0
M  V30 9434 H 897.705 -6.55911 -0.108172 0
M  V30 9435 H 897.622 -7.43168 1.38699 0
M  V30 9436 H 898.89 -7.79088 0.253367 0
M  V30 9437 N 903.119 -0.802921 -1.35613 0
M  V30 9438 C 904.082 -0.216422 -2.28176 0
M  V30 9439 C 905.082 0.594101 -1.49422 0
M  V30 9440 O 906.272 0.41312 -1.6923 0
M  V30 9441 C 903.404 0.698746 -3.33662 0
M  V30 9442 H 904.597 -1.03276 -2.81557 0
M  V30 9443 H 902.15 -0.573307 -1.45406 0
M  V30 9444 H 902.885 1.53891 -2.85461 0
M  V30 9445 H 902.67 0.119314 -3.91918 0
M  V30 9446 H 904.16 1.10354 -4.02755 0
M  V30 9447 N 904.597 1.47463 -0.556102 0
M  V30 9448 C 905.845 2.02075 -0.0315712 0
M  V30 9449 C 906.166 1.43292 1.32259 0
M  V30 9450 O 905.436 0.60771 1.86236 0
M  V30 9451 H 904.016 0.74695 -0.0086816 0
M  V30 9452 H 906.678 1.80879 -0.725859 0
M  V30 9453 H 905.774 3.12047 0.0573538 0
M  V30 9454 N 906.075 0.2925 1.54862 0
M  V30 9455 C 907.023 -0.603186 2.24643 0
M  V30 9456 C 908.017 -1.1439 1.24946 0
M  V30 9457 O 909.223 -1.09552 1.42823 0
M  V30 9458 H 905.598 -0.213105 0.721173 0
M  V30 9459 H 907.569 0.00799278 2.98399 0
M  V30 9460 C 906.318 -1.76769 2.99413 0
M  V30 9461 H 905.641 -1.36084 3.75927 0
M  V30 9462 H 907.081 -2.37066 3.51533 0
M  V30 9463 C 905.54 -2.66669 2.05886 0
M  V30 9464 O 906.07 -3.67525 1.62136 0
M  V30 9465 N 904.276 -2.34216 1.7202 0
M  V30 9466 H 903.823 -1.52246 2.07795 0
M  V30 9467 H 903.781 -2.94635 1.09717 0
M  V30 9468 N 907.553 -1.57587 0.0200696 0
M  V30 9469 C 908.783 -1.95435 -0.669991 0
M  V30 9470 C 909.191 -0.894647 -1.66711 0
M  V30 9471 O 908.534 0.133009 -1.83218 0
M  V30 9472 C 908.596 -3.29379 -1.44047 0
M  V30 9473 C 908.26 -4.53008 -0.602691 0
M  V30 9474 C 909.257 -5.19766 0.118188 0
M  V30 9475 C 906.942 -4.99359 -0.542754 0
M  V30 9476 C 908.936 -6.31187 0.887774 0
M  V30 9477 C 906.623 -6.10665 0.230543 0
M  V30 9478 C 907.621 -6.76438 0.944522 0
M  V30 9479 O 907.309 -7.85608 1.70516 0
M  V30 9480 H 907.041 -0.648681 -0.190234 0
M  V30 9481 H 909.595 -2.05269 0.0733838 0
M  V30 9482 H 907.825 -3.1601 -2.22878 0
M  V30 9483 H 909.514 -3.52194 -2.01777 0
M  V30 9484 H 910.28 -4.84932 0.0811604 0
M  V30 9485 H 906.159 -4.47976 -1.08804 0
M  V30 9486 H 909.703 -6.82458 1.44558 0
M  V30 9487 H 905.6 -6.44938 0.26932 0
M  V30 9488 H 906.368 -8.02228 1.62398 0
M  V30 9489 N 909.032 0.252966 -1.55557 0
M  V30 9490 C 909.962 1.31691 -1.9282 0
M  V30 9491 C 910.943 1.50516 -0.7924 0
M  V30 9492 O 912.128 1.63225 -1.05219 0
M  V30 9493 C 909.258 2.67281 -2.21762 0
M  V30 9494 C 908.212 2.6316 -3.37536 0
M  V30 9495 C 907.538 4.02488 -3.52005 0
M  V30 9496 C 908.838 2.20675 -4.73392 0
M  V30 9497 H 910.532 1.00751 -2.81939 0
M  V30 9498 H 908.078 0.483219 -1.3565 0
M  V30 9499 H 910.031 3.41842 -2.46419 0
M  V30 9500 H 908.755 2.99845 -1.29463 0
M  V30 9501 H 907.414 1.91057 -3.12878 0
M  V30 9502 H 907.062 4.32307 -2.57137 0
M  V30 9503 H 906.762 4.00621 -4.29857 0
M  V30 9504 H 908.286 4.78758 -3.78977 0
M  V30 9505 H 909.7 2.84965 -4.97461 0
M  V30 9506 H 908.097 2.29931 -5.54303 0
M  V30 9507 H 909.167 1.15831 -4.70862 0
M  V30 9508 N 910.51 1.48831 0.518367 0
M  V30 9509 C 911.442 1.60317 1.63802 0
M  V30 9510 C 912.455 0.486771 1.55352 0
M  V30 9511 O 913.644 0.758111 1.61601 0
M  V30 9512 C 910.744 1.52771 3.02513 0
M  V30 9513 C 909.917 2.79649 3.36326 0
M  V30 9514 C 908.976 2.65396 4.54369 0
M  V30 9515 O 908.002 3.39304 4.57013 0
M  V30 9516 N 909.204 1.75784 5.53245 0
M  V30 9517 H 911.969 2.56878 1.54383 0
M  V30 9518 H 909.53 1.45701 0.705889 0
M  V30 9519 H 911.522 1.40914 3.79375 0
M  V30 9520 H 910.092 0.641381 3.05949 0
M  V30 9521 H 909.312 3.05985 2.48529 0
M  V30 9522 H 910.6 3.63799 3.55707 0
M  V30 9523 H 909.998 1.14961 5.53896 0
M  V30 9524 H 908.555 1.69859 6.29278 0
M  V30 9525 N 911.988 -0.768124 1.37614 0
M  V30 9526 C 913.265 -1.51637 1.23554 0
M  V30 9527 C 913.645 -2.1042 -0.169331 0
M  V30 9528 O 912.993 -1.95834 -1.17735 0
M  V30 9529 C 913.203 -2.59436 2.33439 0
M  V30 9530 C 914.551 -3.2674 2.71157 0
M  V30 9531 O 915.575 -2.69733 2.32642 0
M  V30 9532 O 914.434 -4.29814 3.37524 0
M  V30 9533 H 911.528 -0.671778 0.482332 0
M  V30 9534 H 914.074 -0.804779 1.49403 0
M  V30 9535 H 912.846 -2.14146 3.27502 0
M  V30 9536 H 912.469 -3.38192 2.09073 0
M  V30 9537 N 913.466 -1.22244 -0.994698 0
M  V30 9538 C 914.882 -0.982006 -1.25813 0
M  V30 9539 C 915.082 0.325488 -1.98854 0
M  V30 9540 O 914.138 1.04857 -2.29698 0
M  V30 9541 C 915.451 -2.1795 -2.07167 0
M  V30 9542 C 916.999 -2.22287 -2.20358 0
M  V30 9543 C 917.474 -3.41583 -3.05098 0
M  V30 9544 N 918.965 -3.41734 -3.12686 0
M  V30 9545 C 919.7 -4.30692 -3.78539 0
M  V30 9546 N 919.196 -5.29865 -4.46335 0
M  V30 9547 N 920.989 -4.18473 -3.75283 0
M  V30 9548 H 913.14 -2.0631 -0.504963 0
M  V30 9549 H 915.403 -0.90395 -0.285618 0
M  V30 9550 H 915.109 -3.12758 -1.60858 0
M  V30 9551 H 914.983 -2.17862 -3.07922 0
M  V30 9552 H 917.37 -1.28028 -2.65881 0
M  V30 9553 H 917.451 -2.26414 -1.19039 0
M  V30 9554 H 917.095 -4.36141 -2.60275 0
M  V30 9555 H 917.025 -3.34695 -4.06555 0
M  V30 9556 H 919.516 -2.69969 -2.64433 0
M  V30 9557 H 919.829 -5.94027 -4.9432 0
M  V30 9558 H 918.174 -5.3378 -4.45089 0
M  V30 9559 H 921.365 -3.40249 -3.21478 0
M  V30 9560 H 921.538 -4.88007 -4.26326 0
M  V30 9561 N 914.944 1.19125 -1.03184 0
M  V30 9562 C 915.876 2.21914 -0.573294 0
M  V30 9563 C 916.889 1.5894 0.352397 0
M  V30 9564 O 918.078 1.77883 0.148318 0
M  V30 9565 C 915.178 3.38403 0.18355 0
M  V30 9566 C 914.351 4.3096 -0.747817 0
M  V30 9567 C 913.41 5.26188 -0.0358489 0
M  V30 9568 O 912.436 5.65321 -0.663388 0
M  V30 9569 N 913.638 5.67235 1.23387 0
M  V30 9570 H 916.403 2.61881 -1.45734 0
M  V30 9571 H 913.964 1.33821 -0.911231 0
M  V30 9572 H 915.956 3.99124 0.669468 0
M  V30 9573 H 914.526 2.97201 0.969043 0
M  V30 9574 H 913.746 3.67976 -1.41377 0
M  V30 9575 H 915.034 4.89708 -1.38071 0
M  V30 9576 H 914.432 5.37481 1.76439 0
M  V30 9577 H 912.989 6.30196 1.66423 0
M  V30 9578 N 916.422 0.810101 1.35185 0
M  V30 9579 C 917.385 0.22852 2.28058 0
M  V30 9580 C 918.385 -0.586168 1.49735 0
M  V30 9581 O 919.575 -0.40414 1.69447 0
M  V30 9582 C 916.707 -0.681041 3.34028 0
M  V30 9583 H 917.9 1.04768 2.81005 0
M  V30 9584 H 915.453 0.58101 1.451 0
M  V30 9585 H 916.188 -1.52375 2.86273 0
M  V30 9586 H 915.973 -0.0985276 3.91976 0
M  V30 9587 H 917.463 -1.08217 4.03335 0
M  V30 9588 N 917.9 -1.47166 0.563914 0
M  V30 9589 C 919.177 -1.95586 -0.0236172 0
M  V30 9590 C 919.557 -1.50655 -1.47872 0
M  V30 9591 O 918.905 -0.748479 -2.15894 0
M  V30 9592 C 919.115 -3.48762 0.128841 0
M  V30 9593 C 920.463 -4.24598 -0.0130544 0
M  V30 9594 O 921.487 -3.56155 0.0567242 0
M  V30 9595 O 920.346 -5.46253 -0.164332 0
M  V30 9596 H 917.44 -0.824793 -0.0603789 0
M  V30 9597 H 919.986 -1.57536 0.63091 0
M  V30 9598 H 918.758 -3.74291 1.14113 0
M  V30 9599 H 918.381 -3.93594 -0.56299 0
M  V30 9600 N 919.378 -0.300708 -1.54705 0
M  V30 9601 C 920.626 0.308044 -1.99739 0
M  V30 9602 C 920.947 1.54433 -1.19061 0
M  V30 9603 O 920.217 1.93794 -0.286507 0
M  V30 9604 H 918.797 0.116811 -0.73781 0
M  V30 9605 H 921.459 -0.41197 -1.90496 0
M  V30 9606 H 920.555 0.580287 -3.06658 0
M  V30 9607 N 920.856 1.57574 -0.0284266 0
M  V30 9608 C 922.081 1.96479 0.664137 0
M  V30 9609 C 922.506 0.904826 1.64908 0
M  V30 9610 O 921.864 -0.134339 1.80802 0
M  V30 9611 C 921.912 3.34479 1.34745 0
M  V30 9612 O 921.016 3.30794 2.46271 0
M  V30 9613 H 920.357 0.640654 0.174524 0
M  V30 9614 H 922.887 2.04402 -0.0900729 0
M  V30 9615 H 922.897 3.70694 1.7044 0
M  V30 9616 H 921.572 4.1117 0.625468 0
M  V30 9617 H 920.149 3.06294 2.12693 0
M  V30 9618 N 922.334 -0.244713 1.55689 0
M  V30 9619 C 923.611 -0.995407 1.68378 0
M  V30 9620 C 923.991 -2.03288 0.568949 0
M  V30 9621 O 923.339 -2.24469 -0.427299 0
M  V30 9622 C 923.549 -1.62678 3.08767 0
M  V30 9623 C 924.897 -2.1278 3.67437 0
M  V30 9624 O 925.921 -1.72614 3.11581 0
M  V30 9625 O 924.78 -2.86536 4.65359 0
M  V30 9626 H 921.874 -0.463476 0.684923 0
M  V30 9627 H 924.42 -0.238326 1.68018 0
M  V30 9628 H 923.192 -0.876469 3.81358 0
M  V30 9629 H 922.815 -2.45 3.13146 0
M  V30 9630 N 923.813 -1.49104 -0.510467 0
M  V30 9631 C 925.041 -1.61806 -1.28944 0
M  V30 9632 C 925.456 -0.285774 -1.86625 0
M  V30 9633 O 924.813 0.727551 -1.67371 0
M  V30 9634 C 924.864 -2.67966 -2.42645 0
M  V30 9635 O 924.585 -3.96026 -1.87337 0
M  V30 9636 C 926.086 -2.91286 -3.34166 0
M  V30 9637 H 923.306 -0.544999 -0.391429 0
M  V30 9638 H 925.85 -1.95071 -0.613805 0
M  V30 9639 H 924.005 -2.37505 -3.06056 0
M  V30 9640 H 924.419 -4.54427 -2.61909 0
M  V30 9641 H 925.893 -3.69323 -4.1025 0
M  V30 9642 H 926.37 -2.00842 -3.90588 0
M  V30 9643 H 926.976 -3.23127 -2.76531 0
M  V30 9644 N 925.291 0.760815 -1.38019 0
M  V30 9645 C 926.516 1.55513 -1.37224 0
M  V30 9646 C 926.941 1.88062 0.037611 0
M  V30 9647 O 926.299 1.50042 1.0177 0
M  V30 9648 C 926.347 2.83539 -2.22796 0
M  V30 9649 O 925.451 3.78384 -1.64009 0
M  V30 9650 H 924.792 0.470642 -0.468393 0
M  V30 9651 H 927.322 0.940792 -1.81687 0
M  V30 9652 H 927.332 3.32535 -2.36399 0
M  V30 9653 H 926.007 2.59178 -3.25269 0
M  V30 9654 H 924.584 3.37063 -1.59508 0
M  V30 9655 N 926.769 1.22769 0.988202 0
M  V30 9656 C 927.732 1.00325 2.06076 0
M  V30 9657 C 928.732 -0.0320618 1.60768 0
M  V30 9658 O 929.922 0.206912 1.72967 0
M  V30 9659 C 927.054 0.516376 3.36966 0
M  V30 9660 H 928.247 1.95499 2.27421 0
M  V30 9661 H 925.8 1.04704 1.16047 0
M  V30 9662 H 926.535 -0.439498 3.21308 0
M  V30 9663 H 926.32 1.26337 3.71189 0
M  V30 9664 H 927.81 0.37974 4.1587 0
M  V30 9665 N 928.247 -1.18576 1.03814 0
M  V30 9666 C 929.177 -2.24334 0.647795 0
M  V30 9667 C 930.158 -1.66508 -0.34774 0
M  V30 9668 O 931.343 -1.92852 -0.228401 0
M  V30 9669 C 928.473 -3.47299 0.00734922 0
M  V30 9670 C 927.427 -4.17859 0.926152 0
M  V30 9671 C 926.753 -5.34489 0.150317 0
M  V30 9672 C 928.053 -4.71632 2.24411 0
M  V30 9673 H 929.747 -2.57241 1.53191 0
M  V30 9674 H 927.293 -1.23649 0.738028 0
M  V30 9675 H 929.246 -4.20486 -0.277434 0
M  V30 9676 H 927.97 -3.13619 -0.911626 0
M  V30 9677 H 926.629 -3.46567 1.19528 0
M  V30 9678 H 926.277 -4.97056 -0.770985 0
M  V30 9679 H 925.977 -5.82633 0.762407 0
M  V30 9680 H 927.501 -6.10467 -0.127508 0
M  V30 9681 H 928.915 -5.36526 2.02021 0
M  V30 9682 H 927.312 -5.303 2.80894 0
M  V30 9683 H 928.382 -3.89192 2.89236 0
M  V30 9684 N 929.725 -0.817259 -1.34754 0
M  V30 9685 C 930.971 -0.403244 -1.98751 0
M  V30 9686 C 931.304 1.02963 -1.64658 0
M  V30 9687 O 930.579 1.71617 -0.915314 0
M  V30 9688 C 930.862 -0.599188 -3.5508 0
M  V30 9689 C 930.715 -2.07777 -3.98934 0
M  V30 9690 C 932.034 -0.0315656 -4.40089 0
M  V30 9691 H 929.153 -0.147988 -0.721989 0
M  V30 9692 H 931.795 -1.02877 -1.59738 0
M  V30 9693 H 929.945 -0.0667116 -3.88443 0
M  V30 9694 H 931.617 -2.67345 -3.75931 0
M  V30 9695 H 929.86 -2.57031 -3.49453 0
M  V30 9696 H 930.531 -2.16571 -5.07741 0
M  V30 9697 H 933.007 -0.48644 -4.13247 0
M  V30 9698 H 931.883 -0.198507 -5.48541 0
M  V30 9699 H 932.144 1.06302 -4.2913 0
M  V30 9700 N 931.203 1.46865 -0.571711 0
M  V30 9701 C 932.15 2.30189 0.167808 0
M  V30 9702 C 933.12 1.3995 0.89461 0
M  V30 9703 O 934.305 1.68905 0.887451 0
M  V30 9704 C 931.445 3.24205 1.1826 0
M  V30 9705 C 930.558 4.2954 0.460376 0
M  V30 9706 C 929.693 5.10693 1.46173 0
M  V30 9707 C 928.732 6.07788 0.725291 0
M  V30 9708 N 927.869 6.81847 1.67417 0
M  V30 9709 H 932.709 2.92902 -0.548831 0
M  V30 9710 H 930.246 1.44362 -0.282474 0
M  V30 9711 H 932.204 3.77147 1.7837 0
M  V30 9712 H 930.834 2.63324 1.86709 0
M  V30 9713 H 929.886 3.79541 -0.255546 0
M  V30 9714 H 931.198 4.98665 -0.115855 0
M  V30 9715 H 930.352 5.67857 2.13595 0
M  V30 9716 H 929.091 4.41502 2.07188 0
M  V30 9717 H 928.096 5.49787 0.037228 0
M  V30 9718 H 929.321 6.78993 0.120678 0
M  V30 9719 H 927.267 6.15376 2.27263 0
M  V30 9720 H 927.184 7.47195 1.15046 0
M  V30 9721 H 928.452 7.43577 2.33908 0
M  V30 9722 N 932.681 0.308908 1.54543 0
M  V30 9723 C 933.611 -0.556657 2.26768 0
M  V30 9724 C 934.592 -1.13145 1.27013 0
M  V30 9725 O 935.777 -1.15931 1.558 0
M  V30 9726 C 932.907 -1.72481 3.01443 0
M  V30 9727 C 931.861 -1.28001 4.08411 0
M  V30 9728 C 931.187 -2.53395 4.70845 0
M  V30 9729 C 932.487 -0.405497 5.20724 0
M  V30 9730 H 934.181 0.0457618 2.99365 0
M  V30 9731 H 931.727 0.0234495 1.43981 0
M  V30 9732 H 933.68 -2.3365 3.50693 0
M  V30 9733 H 932.404 -2.35359 2.26437 0
M  V30 9734 H 931.063 -0.69133 3.60022 0
M  V30 9735 H 930.711 -3.14604 3.92471 0
M  V30 9736 H 930.411 -2.2433 5.43093 0
M  V30 9737 H 931.935 -3.15352 5.22863 0
M  V30 9738 H 933.349 -0.923076 5.6582 0
M  V30 9739 H 931.746 -0.208282 5.99738 0
M  V30 9740 H 932.816 0.567412 4.81569 0
M  V30 9741 N 934.159 -1.57557 0.0367827 0
M  V30 9742 C 935.389 -1.96134 -0.649225 0
M  V30 9743 C 935.797 -0.912279 -1.65753 0
M  V30 9744 O 935.14 0.113569 -1.83349 0
M  V30 9745 C 935.202 -3.30889 -1.40545 0
M  V30 9746 C 934.866 -4.53622 -0.554609 0
M  V30 9747 C 935.863 -5.19611 0.17331 0
M  V30 9748 C 933.548 -4.99907 -0.48976 0
M  V30 9749 C 935.542 -6.3021 0.95467 0
M  V30 9750 C 933.229 -6.10386 0.295299 0
M  V30 9751 C 934.227 -6.75398 1.01621 0
M  V30 9752 O 933.915 -7.83755 1.78839 0
M  V30 9753 H 933.647 -0.650662 -0.183344 0
M  V30 9754 H 936.201 -2.05179 0.0951512 0
M  V30 9755 H 934.431 -3.18356 -2.19513 0
M  V30 9756 H 936.12 -3.54315 -1.9803 0
M  V30 9757 H 936.886 -4.84819 0.132589 0
M  V30 9758 H 932.765 -4.49105 -1.04046 0
M  V30 9759 H 936.309 -6.80886 1.51789 0
M  V30 9760 H 932.206 -6.44616 0.33771 0
M  V30 9761 H 932.974 -8.0046 1.70898 0
M  V30 9762 N 935.637 0.236453 -1.55816 0
M  V30 9763 C 936.584 1.29289 -1.91188 0
M  V30 9764 C 937.554 1.47315 -0.767301 0
M  V30 9765 O 938.739 1.61128 -1.02189 0
M  V30 9766 C 935.879 2.64126 -2.22107 0
M  V30 9767 C 934.992 2.54022 -3.49423 0
M  V30 9768 C 934.127 3.81282 -3.69861 0
M  V30 9769 C 933.166 3.65839 -4.90743 0
M  V30 9770 N 932.303 4.85014 -5.07647 0
M  V30 9771 H 937.143 0.98424 -2.81277 0
M  V30 9772 H 934.68 0.474722 -1.39229 0
M  V30 9773 H 936.638 3.42626 -2.3804 0
M  V30 9774 H 935.268 2.93118 -1.35209 0
M  V30 9775 H 934.32 1.67036 -3.41765 0
M  V30 9776 H 935.632 2.38525 -4.38072 0
M  V30 9777 H 934.786 4.68226 -3.8581 0
M  V30 9778 H 933.525 3.99688 -2.79465 0
M  V30 9779 H 932.53 2.77279 -4.74759 0
M  V30 9780 H 933.755 3.48918 -5.82609 0
M  V30 9781 H 931.701 5.03762 -4.20191 0
M  V30 9782 H 931.618 4.72188 -5.90402 0
M  V30 9783 H 932.886 5.73427 -5.28017 0
M  V30 9784 N 937.115 1.49373 0.502552 0
M  V30 9785 C 938.045 1.68839 1.61294 0
M  V30 9786 C 939.026 0.537096 1.61398 0
M  V30 9787 O 940.211 0.772764 1.78163 0
M  V30 9788 C 937.341 1.75347 2.99784 0
M  V30 9789 C 936.295 2.90251 3.14545 0
M  V30 9790 C 935.621 2.8187 4.54371 0
M  V30 9791 C 936.921 4.31207 2.94717 0
M  V30 9792 H 938.615 2.61803 1.45257 0
M  V30 9793 H 936.161 1.25987 0.697371 0
M  V30 9794 H 938.114 1.87552 3.77362 0
M  V30 9795 H 936.838 0.789814 3.16906 0
M  V30 9796 H 935.497 2.77646 2.39392 0
M  V30 9797 H 935.145 1.83416 4.68367 0
M  V30 9798 H 934.845 3.5899 4.65188 0
M  V30 9799 H 936.369 2.96081 5.34012 0
M  V30 9800 H 937.783 4.44501 3.62065 0
M  V30 9801 H 936.18 5.09536 3.17007 0
M  V30 9802 H 937.25 4.45759 1.90857 0
M  V30 9803 N 938.594 -0.753485 1.38421 0
M  V30 9804 C 939.871 -1.50318 1.25155 0
M  V30 9805 C 940.251 -2.10588 -0.147003 0
M  V30 9806 O 939.599 -1.97071 -1.15651 0
M  V30 9807 C 939.809 -2.56946 2.36177 0
M  V30 9808 C 941.157 -3.23846 2.74607 0
M  V30 9809 O 942.181 -2.67251 2.3549 0
M  V30 9810 O 941.04 -4.2621 3.42064 0
M  V30 9811 H 938.134 -0.666624 0.48943 0
M  V30 9812 H 940.68 -0.788887 1.50249 0
M  V30 9813 H 939.452 -2.1066 3.29754 0
M  V30 9814 H 939.075 -3.35956 2.12648 0
M  V30 9815 N 940.072 -1.23292 -0.981677 0
M  V30 9816 C 941.318 -1.06582 -1.72535 0
M  V30 9817 C 941.651 0.396538 -1.90108 0
M  V30 9818 O 940.926 1.29363 -1.45243 0
M  V30 9819 C 941.209 -1.7904 -3.12437 0
M  V30 9820 C 941.062 -3.32941 -3.02441 0
M  V30 9821 C 942.381 -1.55185 -4.11832 0
M  V30 9822 H 939.5 -0.388585 -0.626236 0
M  V30 9823 H 942.142 -1.51779 -1.14293 0
M  V30 9824 H 940.292 -1.40619 -3.62158 0
M  V30 9825 H 941.964 -3.80875 -2.60254 0
M  V30 9826 H 940.207 -3.62039 -2.38977 0
M  V30 9827 H 940.878 -3.78827 -4.0149 0
M  V30 9828 H 943.354 -1.88581 -3.70913 0
M  V30 9829 H 942.23 -2.08362 -5.07815 0
M  V30 9830 H 942.491 -0.486925 -4.3941 0
M  V30 9831 N 941.55 1.18024 -1.04442 0
M  V30 9832 C 942.497 2.21785 -0.638759 0
M  V30 9833 C 943.467 1.62255 0.355312 0
M  V30 9834 O 944.652 1.89176 0.24844 0
M  V30 9835 C 941.792 3.45098 -0.0118002 0
M  V30 9836 C 940.905 4.1895 -1.05379 0
M  V30 9837 C 940.04 5.2973 -0.394951 0
M  V30 9838 C 939.079 5.95359 -1.42178 0
M  V30 9839 N 938.216 6.97668 -0.787635 0
M  V30 9840 H 943.056 2.55839 -1.52808 0
M  V30 9841 H 940.593 1.25681 -0.764378 0
M  V30 9842 H 942.551 4.15564 0.369075 0
M  V30 9843 H 941.181 3.11652 0.84102 0
M  V30 9844 H 940.233 3.47274 -1.55258 0
M  V30 9845 H 941.545 4.63877 -1.83355 0
M  V30 9846 H 940.699 6.06687 0.0399244 0
M  V30 9847 H 939.438 4.85915 0.416867 0
M  V30 9848 H 938.443 5.17139 -1.86675 0
M  V30 9849 H 939.668 6.41255 -2.23536 0
M  V30 9850 H 937.614 6.56 0.00380893 0
M  V30 9851 H 937.531 7.40867 -1.50505 0
M  V30 9852 H 938.799 7.78586 -0.377282 0
M  V30 9853 N 943.028 0.824394 1.34319 0
M  V30 9854 C 943.978 0.219624 2.2694 0
M  V30 9855 C 944.962 -0.616964 1.48601 0
M  V30 9856 O 946.154 -0.471303 1.7061 0
M  V30 9857 C 943.283 -0.616379 3.37721 0
M  V30 9858 C 942.369 0.230917 4.23471 0
M  V30 9859 N 942.76 1.30264 4.88738 0
M  V30 9860 C 941.058 0.0155016 4.45997 0
M  V30 9861 C 941.759 1.82141 5.52449 0
M  V30 9862 N 940.735 1.12508 5.3183 0
M  V30 9863 H 944.537 1.03939 2.74907 0
M  V30 9864 H 942.051 0.667353 1.48055 0
M  V30 9865 H 944.048 -1.06582 4.03046 0
M  V30 9866 H 942.708 -1.43429 2.91304 0
M  V30 9867 H 943.719 1.68545 4.89707 0
M  V30 9868 H 940.396 -0.770128 4.10336 0
M  V30 9869 H 941.786 2.7181 6.14466 0
M  V30 9870 N 944.506 -1.46559 0.579492 0
M  V30 9871 C 945.731 -2.0729 0.0674595 0
M  V30 9872 C 946.156 -1.4259 -1.22677 0
M  V30 9873 O 945.514 -0.50857 -1.74021 0
M  V30 9874 C 945.562 -3.60492 -0.0882227 0
M  V30 9875 O 944.666 -3.96172 -1.14551 0
M  V30 9876 H 944.007 -0.661159 0.0613536 0
M  V30 9877 H 946.537 -1.88247 0.801519 0
M  V30 9878 H 946.547 -4.06929 -0.295411 0
M  V30 9879 H 945.222 -4.06976 0.856943 0
M  V30 9880 H 943.799 -3.61448 -0.917033 0
M  V30 9881 N 945.984 -0.3171 -1.54377 0
M  V30 9882 C 947.209 0.292311 -2.0533 0
M  V30 9883 C 947.634 1.45503 -1.19207 0
M  V30 9884 O 946.992 1.80197 -0.199721 0
M  V30 9885 C 947.04 0.710787 -3.53525 0
M  V30 9886 O 946.144 1.81387 -3.70368 0
M  V30 9887 H 945.485 0.0539976 -0.661801 0
M  V30 9888 H 948.015 -0.463629 -1.99278 0
M  V30 9889 H 948.025 0.995216 -3.95676 0
M  V30 9890 H 946.7 -0.139668 -4.15665 0
M  V30 9891 H 945.277 1.52875 -3.40123 0
M  V30 9892 O 947.501 1.60445 -0.184329 0
M  V30 9893 H 948.192 1.8946 0.403058 0
M  V30 END ATOM
M  V30 BEGIN BOND
M  V30 END BOND
M  V30 END CTAB
M  END
$$$$
