drugbank_target|Q15842 ATP-sensitive inward rectifier potassium channel 8 (DB00914; DB00922; DB01154; DB01251; DB01289)
 OpenBabel12092120213D

  0  0  0     0  0            999 V3000
M  V30 BEGIN CTAB
M  V30 COUNTS 6828 6886 0 0 0
M  V30 BEGIN ATOM
M  V30 1 H -0.908 1.98254 -0.117106 0
M  V30 2 N 0 1.576 0 0
M  V30 3 C 0.933 2.03868 1.02534 0
M  V30 4 C 1.911 0.928543 1.3348 0
M  V30 5 O 3.095 1.19667 1.45644 0
M  V30 6 C 0.222 2.43627 2.35294 0
M  V30 7 C -0.732 3.65373 2.2001 0
M  V30 8 S 0.101 5.13292 1.52614 0
M  V30 9 C 1.257 5.56322 2.86805 0
M  V30 10 H 1.49 2.90518 0.631377 0
M  V30 11 H -0.977 1.52953 0.210867 0
M  V30 12 H 0.981 2.67203 3.11629 0
M  V30 13 H -0.358 1.57376 2.7183 0
M  V30 14 H -1.165 3.90944 3.18086 0
M  V30 15 H -1.563 3.418 1.51819 0
M  V30 16 H 0.729 5.58782 3.83104 0
M  V30 17 H 1.672 6.56266 2.65933 0
M  V30 18 H 2.08 4.83886 2.90714 0
M  V30 19 N 1.4781 -0.272755 1.55222 0
M  V30 20 C 2.4081 -1.34136 1.91127 0
M  V30 21 C 3.3891 -1.51513 0.773168 0
M  V30 22 O 4.5741 -1.64552 1.03132 0
M  V30 23 C 1.7041 -2.70083 2.1834 0
M  V30 24 C 0.6581 -2.67437 3.34158 0
M  V30 25 C -0.0159 -4.06938 3.46851 0
M  V30 26 C 1.2841 -2.26686 4.70543 0
M  V30 27 H 2.9781 -1.04333 2.80633 0
M  V30 28 H 0.5241 -0.500454 1.35024 0
M  V30 29 H 2.4771 -3.44952 2.42046 0
M  V30 30 H 1.2011 -3.01469 1.25634 0
M  V30 31 H -0.1399 -1.95026 3.1042 0
M  V30 32 H -0.4919 -4.35547 2.51611 0
M  V30 33 H -0.7919 -4.06062 4.2472 0
M  V30 34 H 0.7321 -4.83545 3.72849 0
M  V30 35 H 2.1461 -2.91277 4.93792 0
M  V30 36 H 0.5431 -2.36971 5.5133 0
M  V30 37 H 1.6131 -1.21818 4.69349 0
M  V30 38 N 2.9562 -1.48159 -0.537278 0
M  V30 39 C 3.9192 -1.61665 -1.62472 0
M  V30 40 C 4.9192 -0.490395 -1.5314 0
M  V30 41 O 6.1092 -0.755998 -1.5694 0
M  V30 42 C 3.2412 -1.57997 -3.02076 0
M  V30 43 H 4.4342 -2.58621 -1.51839 0
M  V30 44 H 1.9872 -1.36647 -0.758771 0
M  V30 45 H 2.7222 -0.624913 -3.18222 0
M  V30 46 H 2.5072 -2.39755 -3.10258 0
M  V30 47 H 3.9972 -1.70627 -3.81151 0
M  V30 48 N 4.4343 0.785586 -1.36625 0
M  V30 49 C 5.8503 1.08419 -1.17122 0
M  V30 50 C 6.0503 2.015 0.00208491 0
M  V30 51 O 5.1063 2.43551 0.666278 0
M  V30 52 C 6.4193 1.69498 -2.48377 0
M  V30 53 C 7.9673 1.81821 -2.54775 0
M  V30 54 C 8.4423 2.46315 -3.86126 0
M  V30 55 N 9.9333 2.53779 -3.87492 0
M  V30 56 C 10.6683 3.045 -4.85868 0
M  V30 57 N 10.1643 3.55499 -5.94637 0
M  V30 58 N 11.9573 3.03247 -4.73284 0
M  V30 59 H 4.1083 0.167264 -2.1174 0
M  V30 60 H 6.3713 0.13682 -0.938075 0
M  V30 61 H 6.0773 1.08571 -3.34522 0
M  V30 62 H 5.9513 2.6896 -2.64462 0
M  V30 63 H 8.3383 2.41884 -1.69045 0
M  V30 64 H 8.4193 0.811532 -2.42586 0
M  V30 65 H 8.0633 1.86895 -4.72263 0
M  V30 66 H 7.9933 3.47561 -3.95612 0
M  V30 67 H 10.4843 2.17672 -3.08913 0
M  V30 68 H 10.7973 3.92562 -6.65669 0
M  V30 69 H 9.1423 3.5364 -5.98301 0
M  V30 70 H 12.3333 2.62696 -3.87438 0
M  V30 71 H 12.5063 3.42467 -5.50109 0
M  V30 72 N 5.9124 1.20967 1.01018 0
M  V30 73 C 6.8594 0.964281 2.09691 0
M  V30 74 C 7.8294 -0.107853 1.65749 0
M  V30 75 O 9.0144 0.0381987 1.90762 0
M  V30 76 C 6.1544 0.52943 3.41015 0
M  V30 77 C 5.2674 1.67043 3.98398 0
M  V30 78 C 4.4024 1.18525 5.17808 0
M  V30 79 C 3.4414 2.29892 5.67288 0
M  V30 80 N 2.5784 1.82546 6.77954 0
M  V30 81 H 7.4184 1.89463 2.30017 0
M  V30 82 H 4.9554 0.944289 1.1279 0
M  V30 83 H 6.9134 0.258588 4.16398 0
M  V30 84 H 5.5434 -0.363919 3.20742 0
M  V30 85 H 4.5954 2.05603 3.20049 0
M  V30 86 H 5.9074 2.50877 4.31117 0
M  V30 87 H 5.0614 0.870762 6.00419 0
M  V30 88 H 3.8004 0.316887 4.86669 0
M  V30 89 H 2.8054 2.6215 4.83278 0
M  V30 90 H 4.0304 3.17216 6.00459 0
M  V30 91 H 1.9764 0.980454 6.48632 0
M  V30 92 H 1.8934 2.59956 7.09901 0
M  V30 93 H 3.1614 1.54115 7.64113 0
M  V30 94 N 7.3905 -1.2043 1.01659 0
M  V30 95 C 8.6155 -1.94318 0.724942 0
M  V30 96 C 9.0405 -1.74266 -0.708034 0
M  V30 97 O 8.3985 -1.03694 -1.48719 0
M  V30 98 C 8.4465 -3.44486 1.06591 0
M  V30 99 O 7.5505 -4.12017 0.177599 0
M  V30 100 H 6.8915 -0.60708 0.26898 0
M  V30 101 H 9.4215 -1.52861 1.35995 0
M  V30 102 H 9.4315 -3.95106 1.01762 0
M  V30 103 H 8.1065 -3.58404 2.10997 0
M  V30 104 H 6.6835 -3.71821 0.283421 0
M  V30 105 N 8.8686 -0.792821 -1.36206 0
M  V30 106 C 10.1176 -0.363353 -1.984 0
M  V30 107 C 10.4306 1.07172 -1.63626 0
M  V30 108 O 11.6366 1.60362 -2.19081 0
M  V30 109 C 10.0926 -0.59872 -3.54885 0
M  V30 110 C 9.7006 -2.04543 -3.9858 0
M  V30 111 C 11.4446 -0.233926 -4.23855 0
M  V30 112 C 9.3516 -2.22727 -5.47856 0
M  V30 113 H 8.2816 -0.13212 -0.742334 0
M  V30 114 H 10.9326 -0.974935 -1.55458 0
M  V30 115 H 9.3146 0.0826222 -3.95914 0
M  V30 116 H 10.4886 -2.76345 -3.68741 0
M  V30 117 H 8.8036 -2.36879 -3.42458 0
M  V30 118 H 11.4006 -0.348027 -5.33566 0
M  V30 119 H 11.7436 0.818351 -4.08177 0
M  V30 120 H 12.2766 -0.868639 -3.882 0
M  V30 121 H 9.0156 -3.2635 -5.68486 0
M  V30 122 H 8.5356 -1.55434 -5.7931 0
M  V30 123 H 10.2146 -2.03607 -6.14128 0
M  V30 124 N 10.3467 1.47872 -0.545128 0
M  V30 125 C 11.5957 2.01695 -0.0145033 0
M  V30 126 C 11.9087 1.42609 1.33873 0
M  V30 127 O 13.1147 1.88021 1.95858 0
M  V30 128 C 11.5707 3.59892 0.0245068 0
M  V30 129 C 11.1787 4.27966 -1.32475 0
M  V30 130 C 12.9227 4.21507 0.50316 0
M  V30 131 C 10.8297 5.78136 -1.2455 0
M  V30 132 H 9.7597 0.753998 -0.00165172 0
M  V30 133 H 12.4107 1.69985 -0.691175 0
M  V30 134 H 10.7927 3.88509 0.766575 0
M  V30 135 H 11.9667 4.11003 -2.08357 0
M  V30 136 H 10.2817 3.78286 -1.74036 0
M  V30 137 H 12.8787 5.31538 0.580656 0
M  V30 138 H 13.2217 3.87855 1.51243 0
M  V30 139 H 13.7547 3.97376 -0.183681 0
M  V30 140 H 10.4937 6.16388 -2.23039 0
M  V30 141 H 10.0137 5.97469 -0.528282 0
M  V30 142 H 11.6927 6.40099 -0.942488 0
M  V30 143 N 11.8248 0.280983 1.55075 0
M  V30 144 C 13.2358 -0.215629 1.85451 0
M  V30 145 C 13.5868 -1.54991 1.203 0
M  V30 146 O 12.7118 -2.10699 0.493435 0
M  V30 147 C 13.3068 -0.398026 3.36454 0
M  V30 148 C 11.8658 -0.838866 3.66933 0
M  V30 149 C 11.0128 0.064458 2.77225 0
M  V30 150 H 13.9638 0.502601 1.50531 0
M  V30 151 H 13.9848 -1.23569 3.59876 0
M  V30 152 H 13.4968 0.573241 3.83843 0
M  V30 153 H 11.5978 -1.8214 3.25048 0
M  V30 154 H 11.7108 -0.672123 4.74362 0
M  V30 155 H 10.0748 -0.452863 2.50642 0
M  V30 156 H 10.8578 1.03172 3.2743 0
M  V30 157 N 13.3029 -1.57598 0.00835791 0
M  V30 158 C 14.2129 -2.12385 -0.996487 0
M  V30 159 C 15.2289 -1.07108 -1.37127 0
M  V30 160 O 16.4049 -1.39055 -1.4569 0
M  V30 161 C 13.4699 -2.62314 -2.26699 0
M  V30 162 C 12.5309 -3.82225 -1.95456 0
M  V30 163 C 11.7639 -4.29763 -3.16449 0
M  V30 164 O 11.9869 -3.76584 -4.28416 0
M  V30 165 O 10.9209 -5.21832 -2.99958 0
M  V30 166 H 14.7469 -2.98479 -0.560725 0
M  V30 167 H 12.3319 -1.47903 -0.210987 0
M  V30 168 H 14.2139 -2.94589 -3.01322 0
M  V30 169 H 12.8889 -1.79313 -2.69497 0
M  V30 170 H 11.7959 -3.54909 -1.18282 0
M  V30 171 H 13.1289 -4.66324 -1.57489 0
M  V30 172 N 14.781 0.264519 -1.55364 0
M  V30 173 C 15.691 1.34902 -1.91934 0
M  V30 174 C 16.707 1.53595 -0.817593 0
M  V30 175 O 17.883 1.67558 -1.11742 0
M  V30 176 C 14.948 2.68676 -2.19121 0
M  V30 177 C 14.009 2.58657 -3.4263 0
M  V30 178 C 13.242 3.86051 -3.68511 0
M  V30 179 O 13.465 4.87126 -2.96757 0
M  V30 180 O 12.399 3.85744 -4.62045 0
M  V30 181 H 16.225 1.06883 -2.8427 0
M  V30 182 H 13.81 0.463775 -1.42019 0
M  V30 183 H 15.692 3.47759 -2.37995 0
M  V30 184 H 14.367 2.96463 -1.29966 0
M  V30 185 H 13.274 1.7792 -3.29082 0
M  V30 186 H 14.607 2.35818 -4.32031 0
M  V30 187 N 16.2591 1.48442 0.529413 0
M  V30 188 C 17.4891 1.59919 1.30804 0
M  V30 189 C 17.8971 0.258792 1.87422 0
M  V30 190 O 17.2401 -0.762096 1.67146 0
M  V30 191 C 17.3021 2.58693 2.49636 0
M  V30 192 C 16.9661 4.03745 2.14101 0
M  V30 193 C 17.9631 4.9141 1.6974 0
M  V30 194 C 15.6481 4.49285 2.24607 0
M  V30 195 C 17.6421 6.22645 1.36351 0
M  V30 196 C 15.3291 5.8054 1.9083 0
M  V30 197 C 16.3271 6.67043 1.46773 0
M  V30 198 O 16.0151 7.95856 1.1344 0
M  V30 199 H 15.7471 0.541981 0.404021 0
M  V30 200 H 18.3011 1.95 0.645309 0
M  V30 201 H 16.5311 2.18734 3.18892 0
M  V30 202 H 18.2201 2.59999 3.11698 0
M  V30 203 H 18.9861 4.57465 1.61094 0
M  V30 204 H 14.8651 3.82142 2.57854 0
M  V30 205 H 18.4091 6.90119 1.01891 0
M  V30 206 H 14.3061 6.14022 1.99117 0
M  V30 207 H 15.0741 8.08613 1.26832 0
M  V30 208 N 17.7372 -0.778329 1.37039 0
M  V30 209 C 18.9832 -1.53892 1.32079 0
M  V30 210 C 19.3162 -1.9396 -0.0965386 0
M  V30 211 O 18.5912 -1.63568 -1.05242 0
M  V30 212 C 18.8742 -2.80847 2.25382 0
M  V30 213 C 18.7272 -2.47076 3.75864 0
M  V30 214 C 20.0462 -3.82741 2.1725 0
M  V30 215 H 17.1652 -0.558303 0.48111 0
M  V30 216 H 19.8072 -0.893397 1.67685 0
M  V30 217 H 17.9572 -3.35931 1.95148 0
M  V30 218 H 19.6292 -1.97957 4.16666 0
M  V30 219 H 17.8722 -1.79863 3.94755 0
M  V30 220 H 18.5432 -3.37798 4.36574 0
M  V30 221 H 21.0192 -3.37133 2.43887 0
M  V30 222 H 19.8952 -4.69303 2.84686 0
M  V30 223 H 20.1562 -4.2652 1.16331 0
M  V30 224 N 19.2153 -1.21501 -1.00376 0
M  V30 225 C 20.1453 -0.999478 -2.11028 0
M  V30 226 C 21.1263 0.0759671 -1.6993 0
M  V30 227 O 22.3113 -0.0841106 -1.94018 0
M  V30 228 C 19.4413 -0.564709 -3.42678 0
M  V30 229 C 18.3953 -1.58486 -3.97576 0
M  V30 230 C 17.7213 -1.00628 -5.25146 0
M  V30 231 C 19.0213 -2.97204 -4.29496 0
M  V30 232 H 20.7153 -1.92495 -2.29317 0
M  V30 233 H 18.2613 -0.92693 -1.102 0
M  V30 234 H 20.2143 -0.401091 -4.19487 0
M  V30 235 H 18.9383 0.396411 -3.24185 0
M  V30 236 H 17.5973 -1.73606 -3.22888 0
M  V30 237 H 17.2453 -0.0368439 -5.02987 0
M  V30 238 H 16.9453 -1.68771 -5.62841 0
M  V30 239 H 18.4693 -0.854015 -6.04598 0
M  V30 240 H 19.8833 -2.8552 -4.97143 0
M  V30 241 H 18.2803 -3.62372 -4.78338 0
M  V30 242 H 19.3503 -3.47956 -3.3772 0
M  V30 243 N 20.6934 1.19889 -1.02296 0
M  V30 244 C 21.6564 2.21116 -0.603351 0
M  V30 245 C 22.6564 1.5738 0.329884 0
M  V30 246 O 23.8464 1.73802 0.117702 0
M  V30 247 C 20.9784 3.40696 0.117992 0
M  V30 248 H 22.1714 2.59754 -1.49893 0
M  V30 249 H 19.7244 1.33463 -0.813468 0
M  V30 250 H 20.4594 3.07569 1.0282 0
M  V30 251 H 20.2444 3.88188 -0.552511 0
M  V30 252 H 21.7344 4.15692 0.398696 0
M  V30 253 N 22.1715 0.800033 1.35784 0
M  V30 254 C 23.5875 0.482977 1.52117 0
M  V30 255 C 23.7875 -0.996948 1.75109 0
M  V30 256 O 22.8435 -1.78216 1.78872 0
M  V30 257 C 24.1565 1.32264 2.70049 0
M  V30 258 C 25.7045 1.31742 2.83924 0
M  V30 259 C 26.1795 2.14106 4.04874 0
M  V30 260 N 27.6705 2.11607 4.12039 0
M  V30 261 C 28.4055 2.72099 5.04727 0
M  V30 262 N 27.9015 3.41492 6.02789 0
M  V30 263 N 29.6945 2.61776 4.97423 0
M  V30 264 H 21.8455 1.75856 1.19115 0
M  V30 265 H 24.1085 0.748122 0.582252 0
M  V30 266 H 23.8145 2.37261 2.59616 0
M  V30 267 H 23.6885 0.971303 3.6448 0
M  V30 268 H 26.0755 0.275333 2.93813 0
M  V30 269 H 26.1565 1.70859 1.9037 0
M  V30 270 H 25.8005 3.18351 3.95746 0
M  V30 271 H 25.7305 1.72353 4.97596 0
M  V30 272 H 28.2215 1.61112 3.41835 0
M  V30 273 H 28.5345 3.84953 6.70098 0
M  V30 274 H 26.8795 3.45596 6.02983 0
M  V30 275 H 30.0705 2.07157 4.19766 0
M  V30 276 H 30.2435 3.0921 5.69468 0
M  V30 277 N 23.6496 -1.47581 0.552962 0
M  V30 278 C 24.8986 -2.01684 0.0251995 0
M  V30 279 C 25.2116 -1.43317 -1.33115 0
M  V30 280 O 26.4176 -1.89057 -1.94858 0
M  V30 281 C 24.8736 -3.599 -0.00542052 0
M  V30 282 C 24.4816 -4.27257 1.34742 0
M  V30 283 C 26.2256 -4.21768 -0.4808 0
M  V30 284 C 24.1326 -5.77467 1.27614 0
M  V30 285 H 23.0626 -0.753979 0.00565033 0
M  V30 286 H 25.7136 -1.69616 0.70018 0
M  V30 287 H 24.0956 -3.88911 -0.745961 0
M  V30 288 H 25.2696 -4.09893 2.10534 0
M  V30 289 H 23.5846 -3.77358 1.76039 0
M  V30 290 H 26.1816 -5.31838 -0.55246 0
M  V30 291 H 26.5246 -3.88651 -1.49184 0
M  V30 292 H 27.0576 -3.97273 0.204752 0
M  V30 293 H 23.7966 -6.15196 2.26304 0
M  V30 294 H 23.3166 -5.9718 0.55996 0
M  V30 295 H 24.9956 -6.3959 0.976421 0
M  V30 296 N 25.1277 -0.289203 -1.54924 0
M  V30 297 C 26.0907 0.579144 -2.21762 0
M  V30 298 C 27.0907 1.07047 -1.1999 0
M  V30 299 O 28.2807 0.968384 -1.44803 0
M  V30 300 C 25.4127 1.80055 -2.8947 0
M  V30 301 H 26.6057 -0.00464908 -2.999 0
M  V30 302 H 24.1587 -0.0399306 -1.56249 0
M  V30 303 H 24.8937 2.42449 -2.15381 0
M  V30 304 H 24.6787 1.45602 -3.64064 0
M  V30 305 H 26.1687 2.41773 -3.40493 0
M  V30 306 N 26.6058 1.57591 -0.0167156 0
M  V30 307 C 27.5688 2.08393 0.954204 0
M  V30 308 C 28.5688 0.996531 1.26198 0
M  V30 309 O 29.7588 1.25858 1.20438 0
M  V30 310 C 26.8908 2.5394 2.27436 0
M  V30 311 H 28.0838 2.95455 0.514451 0
M  V30 312 H 25.6368 1.54582 0.231089 0
M  V30 313 H 26.3718 1.70171 2.76066 0
M  V30 314 H 26.1568 3.33371 2.06412 0
M  V30 315 H 27.6468 2.93512 2.97053 0
M  V30 316 N 28.0839 -0.256276 1.55502 0
M  V30 317 C 28.9939 -1.33882 1.92647 0
M  V30 318 C 30.0099 -1.53159 0.825727 0
M  V30 319 O 31.1859 -1.66963 1.12629 0
M  V30 320 C 28.2509 -2.6751 2.20543 0
M  V30 321 C 27.3119 -2.56836 3.43997 0
M  V30 322 C 26.5449 -3.84092 3.70553 0
M  V30 323 O 26.7679 -4.85545 2.99336 0
M  V30 324 O 25.7019 -3.83288 4.64084 0
M  V30 325 H 29.5279 -1.05374 2.84833 0
M  V30 326 H 27.1129 -0.456237 1.42263 0
M  V30 327 H 28.9949 -3.46492 2.39835 0
M  V30 328 H 27.6699 -2.9577 1.31536 0
M  V30 329 H 26.5769 -1.76172 3.30021 0
M  V30 330 H 27.9099 -2.33523 4.33275 0
M  V30 331 N 29.562 -1.4872 -0.521534 0
M  V30 332 C 30.51 -1.64328 -1.64618 0
M  V30 333 C 31.504 -0.50953 -1.61555 0
M  V30 334 O 32.71 -0.688525 -1.66311 0
M  V30 335 H 29.085 -0.517805 -0.545328 0
M  V30 336 H 31.056 -2.58767 -1.48601 0
M  V30 337 C 29.805 -1.70805 -3.02855 0
M  V30 338 H 29.128 -2.5741 -3.05909 0
M  V30 339 H 30.568 -1.85766 -3.81139 0
M  V30 340 C 29.027 -0.448479 -3.33902 0
M  V30 341 O 29.557 0.434928 -3.99339 0
M  V30 342 N 27.763 -0.317616 -2.88859 0
M  V30 343 H 27.31 -1.03748 -2.35784 0
M  V30 344 H 27.268 0.524113 -3.10001 0
M  V30 345 N 31.0401 0.771051 -1.3745 0
M  V30 346 C 31.9701 1.89827 -1.3597 0
M  V30 347 C 32.9511 1.68562 -0.228216 0
M  V30 348 O 34.1361 1.8941 -0.428675 0
M  V30 349 C 31.2661 3.2712 -1.16662 0
M  V30 350 C 30.2201 3.6295 -2.2683 0
M  V30 351 C 29.5461 4.98791 -1.92644 0
M  V30 352 C 30.8461 3.69627 -3.69017 0
M  V30 353 H 32.5401 1.91323 -2.30295 0
M  V30 354 H 30.0861 0.919082 -1.10855 0
M  V30 355 H 32.0391 4.05615 -1.14256 0
M  V30 356 H 30.7631 3.26059 -0.187926 0
M  V30 357 H 29.4221 2.86763 -2.28392 0
M  V30 358 H 29.0701 4.94271 -0.933021 0
M  V30 359 H 28.7701 5.23733 -2.66416 0
M  V30 360 H 30.2941 5.79685 -1.91826 0
M  V30 361 H 31.7081 4.38273 -3.69581 0
M  V30 362 H 30.1051 4.06067 -4.41848 0
M  V30 363 H 31.1751 2.70273 -4.02592 0
M  V30 364 N 32.5182 1.22032 0.997298 0
M  V30 365 C 33.9342 0.979326 1.26021 0
M  V30 366 C 34.1342 -0.32972 1.98784 0
M  V30 367 O 33.1902 -1.05345 2.29475 0
M  V30 368 C 34.5032 2.17509 2.07631 0
M  V30 369 C 36.0512 2.21817 2.2083 0
M  V30 370 C 36.5262 3.40933 3.05825 0
M  V30 371 N 38.0172 3.41067 3.13412 0
M  V30 372 C 38.7522 4.29885 3.79455 0
M  V30 373 N 38.2482 5.28914 4.47462 0
M  V30 374 N 40.0412 4.17673 3.76173 0
M  V30 375 H 32.1922 2.06202 0.509352 0
M  V30 376 H 34.4552 0.90334 0.287541 0
M  V30 377 H 34.1612 3.12415 1.61524 0
M  V30 378 H 34.0352 2.17206 3.08385 0
M  V30 379 H 36.4222 1.27462 2.66153 0
M  V30 380 H 36.5032 2.2616 1.1952 0
M  V30 381 H 36.1472 4.35586 2.61203 0
M  V30 382 H 36.0772 3.33829 4.07266 0
M  V30 383 H 38.5682 2.69406 2.65007 0
M  V30 384 H 38.8812 5.92973 4.95583 0
M  V30 385 H 37.2262 5.32831 4.46224 0
M  V30 386 H 40.4172 3.39564 3.22202 0
M  V30 387 H 40.5902 4.87098 4.27363 0
M  V30 388 N 33.9963 -1.19345 1.0293 0
M  V30 389 C 34.9433 -2.2258 0.610464 0
M  V30 390 C 35.9133 -1.6179 -0.375946 0
M  V30 391 O 37.0983 -1.88844 -0.272511 0
M  V30 392 C 34.2383 -3.45085 -0.0321473 0
M  V30 393 C 33.3513 -4.20258 1.00035 0
M  V30 394 C 32.4863 -5.3019 0.32746 0
M  V30 395 C 31.5253 -5.97121 1.34584 0
M  V30 396 N 30.6623 -6.98615 0.698726 0
M  V30 397 H 35.5023 -2.57764 1.49538 0
M  V30 398 H 33.0393 -1.26644 0.748311 0
M  V30 399 H 34.9973 -4.15061 -0.421966 0
M  V30 400 H 33.6273 -3.10555 -0.88064 0
M  V30 401 H 32.6793 -3.49223 1.50823 0
M  V30 402 H 33.9913 -4.66175 1.77433 0
M  V30 403 H 33.1453 -6.06587 -0.11718 0
M  V30 404 H 31.8843 -4.85345 -0.478713 0
M  V30 405 H 30.8893 -5.19474 1.80074 0
M  V30 406 H 32.1143 -6.4405 2.15352 0
M  V30 407 H 30.0603 -6.55942 -0.0873471 0
M  V30 408 H 29.9773 -7.42724 1.41058 0
M  V30 409 H 31.2453 -7.79004 0.278102 0
M  V30 410 N 35.4744 -0.807222 -1.35358 0
M  V30 411 C 36.8854 -0.44876 -1.81226 0
M  V30 412 C 37.2364 1.02929 -1.67033 0
M  V30 413 O 36.3614 1.79991 -1.20133 0
M  V30 414 C 36.9564 -0.807774 -3.2903 0
M  V30 415 C 35.5154 -0.501901 -3.73039 0
M  V30 416 C 34.6624 -1.03304 -2.57339 0
M  V30 417 H 37.6134 -0.998808 -1.23327 0
M  V30 418 H 37.6344 -0.10554 -3.80354 0
M  V30 419 H 37.1464 -1.88357 -3.39328 0
M  V30 420 H 35.2474 0.565128 -3.68289 0
M  V30 421 H 35.3604 -1.03497 -4.67787 0
M  V30 422 H 33.7244 -0.455339 -2.50597 0
M  V30 423 H 34.5074 -2.11496 -2.70415 0
M  V30 424 N 36.9525 1.47285 -0.560781 0
M  V30 425 C 38.3685 1.58065 -0.22081 0
M  V30 426 C 38.5685 1.55892 1.27671 0
M  V30 427 O 37.6245 1.46422 2.0571 0
M  V30 428 C 38.9375 2.88418 -0.850625 0
M  V30 429 C 40.4855 3.02009 -0.822184 0
M  V30 430 C 40.9605 4.35066 -1.43113 0
M  V30 431 N 42.4515 4.41711 -1.39448 0
M  V30 432 C 43.1865 5.43237 -1.83525 0
M  V30 433 N 42.6825 6.51555 -2.35474 0
M  V30 434 N 44.4755 5.34304 -1.74574 0
M  V30 435 H 36.6265 1.46941 -1.53369 0
M  V30 436 H 38.8895 0.699558 -0.639783 0
M  V30 437 H 38.5955 2.95755 -1.9032 0
M  V30 438 H 38.4695 3.75612 -0.345773 0
M  V30 439 H 40.8565 2.94266 0.221714 0
M  V30 440 H 40.9375 2.16347 -1.36483 0
M  V30 441 H 40.5815 4.43565 -2.47412 0
M  V30 442 H 40.5115 5.19465 -0.863899 0
M  V30 443 H 43.0025 3.64027 -1.01452 0
M  V30 444 H 43.3155 7.25203 -2.67021 0
M  V30 445 H 41.6605 6.52435 -2.39487 0
M  V30 446 H 44.8515 4.48581 -1.33763 0
M  V30 447 H 45.0245 6.13288 -2.09242 0
M  V30 448 N 38.4306 0.297415 1.54768 0
M  V30 449 C 39.6796 -0.313669 1.99246 0
M  V30 450 C 39.9926 -1.55281 1.18942 0
M  V30 451 O 41.1986 -2.23825 1.5367 0
M  V30 452 C 39.6546 -0.609407 3.54703 0
M  V30 453 C 39.2626 0.611192 4.43811 0
M  V30 454 C 41.0066 -1.18188 4.07715 0
M  V30 455 C 38.9136 0.288805 5.90694 0
M  V30 456 H 37.8436 -0.120979 0.744231 0
M  V30 457 H 40.4946 0.40556 1.78962 0
M  V30 458 H 38.8766 -1.38813 3.70873 0
M  V30 459 H 40.0506 1.3875 4.39414 0
M  V30 460 H 38.3656 1.10205 4.01552 0
M  V30 461 H 40.9626 -1.43727 5.15021 0
M  V30 462 H 41.3056 -2.12299 3.58099 0
M  V30 463 H 41.8386 -0.464944 3.95074 0
M  V30 464 H 38.5776 1.19838 6.44453 0
M  V30 465 H 38.0976 -0.450305 5.98107 0
M  V30 466 H 39.7766 -0.110933 6.46905 0
M  V30 467 N 39.9087 -1.5758 0.0250728 0
M  V30 468 C 41.3247 -1.56124 -0.331282 0
M  V30 469 C 41.5247 -1.03029 -1.73169 0
M  V30 470 O 40.5807 -0.675215 -2.43305 0
M  V30 471 C 41.8937 -3.00139 -0.183584 0
M  V30 472 C 43.4417 -3.11946 -0.256654 0
M  V30 473 C 43.9167 -4.57793 -0.137792 0
M  V30 474 N 45.4077 -4.6279 -0.194904 0
M  V30 475 C 46.1427 -5.7326 -0.126655 0
M  V30 476 N 45.6387 -6.928 -0.00755288 0
M  V30 477 N 47.4317 -5.61811 -0.180348 0
M  V30 478 H 39.5827 -1.90424 0.94087 0
M  V30 479 H 41.8457 -0.875761 0.362968 0
M  V30 480 H 41.5517 -3.4292 0.780927 0
M  V30 481 H 41.4257 -3.64899 -0.955448 0
M  V30 482 H 43.8127 -2.69079 -1.21162 0
M  V30 483 H 43.8937 -2.49915 0.545517 0
M  V30 484 H 43.5377 -5.01339 0.813739 0
M  V30 485 H 43.4677 -5.17798 -0.958775 0
M  V30 486 H 45.9587 -3.76807 -0.287267 0
M  V30 487 H 46.2717 -7.72791 0.0379428 0
M  V30 488 H 44.6167 -6.94995 0.0271731 0
M  V30 489 H 47.8077 -4.6731 -0.271767 0
M  V30 490 H 47.9807 -6.47882 -0.123697 0
M  V30 491 N 41.3868 0.248026 -1.55636 0
M  V30 492 C 42.6638 0.998988 -1.68165 0
M  V30 493 C 43.0438 2.03409 -0.564621 0
M  V30 494 O 42.3918 2.24378 0.432076 0
M  V30 495 C 42.6018 1.63334 -3.0842 0
M  V30 496 C 43.9498 2.13562 -3.66983 0
M  V30 497 O 44.9738 1.73277 -3.11213 0
M  V30 498 O 43.8328 2.87526 -4.64749 0
M  V30 499 H 40.9268 0.464933 -0.683935 0
M  V30 500 H 43.4728 0.241902 -1.67967 0
M  V30 501 H 42.2448 0.884583 -3.8117 0
M  V30 502 H 41.8678 2.45666 -3.12624 0
M  V30 503 N 42.8649 1.48995 0.513639 0
M  V30 504 C 44.2809 1.35478 0.843682 0
M  V30 505 C 44.4809 0.378213 1.97919 0
M  V30 506 O 43.5369 -0.194689 2.51748 0
M  V30 507 C 44.8499 2.75901 1.1958 0
M  V30 508 C 46.3979 2.84509 1.30474 0
M  V30 509 C 46.8729 4.25671 1.69021 0
M  V30 510 N 48.3639 4.28422 1.76094 0
M  V30 511 C 49.0989 5.34601 2.07338 0
M  V30 512 N 48.5949 6.5104 2.36894 0
M  V30 513 N 50.3879 5.22007 2.08483 0
M  V30 514 H 42.5389 2.11092 -0.235328 0
M  V30 515 H 44.8019 0.947039 -0.0426669 0
M  V30 516 H 44.5079 3.49001 0.434913 0
M  V30 517 H 44.3819 3.10467 2.1422 0
M  V30 518 H 46.7689 2.11655 2.05637 0
M  V30 519 H 46.8499 2.53542 0.339155 0
M  V30 520 H 46.4939 4.99048 0.944135 0
M  V30 521 H 46.4239 4.54094 2.66658 0
M  V30 522 H 48.9149 3.44441 1.55464 0
M  V30 523 H 49.2279 7.2779 2.59887 0
M  V30 524 H 47.5729 6.54287 2.34378 0
M  V30 525 H 50.7639 4.30051 1.84861 0
M  V30 526 H 50.9369 6.04854 2.325 0
M  V30 527 N 44.343 -0.763751 1.37857 0
M  V30 528 C 45.273 -1.89103 1.36975 0
M  V30 529 C 46.254 -1.68439 0.237152 0
M  V30 530 O 47.439 -1.8918 0.438713 0
M  V30 531 C 44.569 -3.26496 1.18395 0
M  V30 532 C 43.523 -3.61741 2.28751 0
M  V30 533 C 42.849 -4.97762 1.95286 0
M  V30 534 C 44.149 -3.67665 3.70972 0
M  V30 535 H 45.843 -1.90099 2.31307 0
M  V30 536 H 43.389 -0.91319 1.11341 0
M  V30 537 H 45.342 -4.05003 1.16406 0
M  V30 538 H 44.066 -3.25955 0.205215 0
M  V30 539 H 42.725 -2.85547 2.29909 0
M  V30 540 H 42.373 -4.93769 0.959221 0
M  V30 541 H 42.073 -5.22313 2.69189 0
M  V30 542 H 43.597 -5.7866 1.94898 0
M  V30 543 H 45.011 -4.36307 3.719 0
M  V30 544 H 43.408 -4.03718 4.43995 0
M  V30 545 H 44.478 -2.68134 4.0402 0
M  V30 546 N 45.8211 -1.22559 -0.990812 0
M  V30 547 C 47.2321 -1.04791 -1.54518 0
M  V30 548 C 47.5831 0.387998 -1.92325 0
M  V30 549 O 46.7081 1.27328 -1.74976 0
M  V30 550 C 47.3031 -1.896 -2.80779 0
M  V30 551 C 45.8621 -1.76124 -3.32652 0
M  V30 552 C 45.0091 -1.8594 -2.05722 0
M  V30 553 H 47.9601 -1.36374 -0.811662 0
M  V30 554 H 47.9811 -1.41464 -3.53225 0
M  V30 555 H 47.4931 -2.94101 -2.53231 0
M  V30 556 H 45.5941 -0.743643 -3.65104 0
M  V30 557 H 45.7071 -2.58913 -4.03114 0
M  V30 558 H 44.0711 -1.29403 -2.19379 0
M  V30 559 H 44.8541 -2.91976 -1.80568 0
M  V30 560 N 47.2992 1.18797 -1.03562 0
M  V30 561 C 48.2462 2.22253 -0.622259 0
M  V30 562 C 49.2162 1.61987 0.36736 0
M  V30 563 O 50.4012 1.88986 0.262492 0
M  V30 564 C 47.5412 3.45097 0.0138462 0
M  V30 565 C 46.6542 4.19722 -1.02263 0
M  V30 566 C 45.7892 5.30009 -0.355573 0
M  V30 567 C 44.8282 5.96399 -1.37749 0
M  V30 568 N 43.9652 6.98234 -0.735766 0
M  V30 569 H 48.8052 2.56968 -1.50903 0
M  V30 570 H 46.3422 1.26245 -0.755017 0
M  V30 571 H 48.3002 4.15279 0.399948 0
M  V30 572 H 46.9302 3.11018 0.864158 0
M  V30 573 H 45.9822 3.48418 -1.52673 0
M  V30 574 H 47.2942 4.65227 -1.79903 0
M  V30 575 H 46.4482 6.0664 0.0850095 0
M  V30 576 H 45.1872 4.85592 0.452967 0
M  V30 577 H 44.1922 5.18512 -1.82826 0
M  V30 578 H 45.4172 6.42899 -2.18764 0
M  V30 579 H 43.3632 6.55979 0.0525597 0
M  V30 580 H 43.2802 7.41965 -1.44995 0
M  V30 581 H 44.5482 7.78845 -0.31941 0
M  V30 582 N 48.7773 0.814389 1.34928 0
M  V30 583 C 49.7403 0.235759 2.27984 0
M  V30 584 C 50.7403 -0.581412 1.49921 0
M  V30 585 O 51.9303 -0.398758 1.69575 0
M  V30 586 C 49.0623 -0.670433 3.34242 0
M  V30 587 H 50.2553 1.05659 2.80671 0
M  V30 588 H 47.8083 0.585614 1.44915 0
M  V30 589 H 48.5433 -1.51466 2.86755 0
M  V30 590 H 48.3283 -0.0860822 3.92005 0
M  V30 591 H 49.8183 -1.06935 4.03676 0
M  V30 592 N 50.2554 -1.46986 0.568584 0
M  V30 593 C 51.6714 -1.57946 0.229189 0
M  V30 594 C 51.8714 -1.56567 -1.26843 0
M  V30 595 O 50.9274 -1.47511 -2.04931 0
M  V30 596 C 52.2404 -2.87963 0.865909 0
M  V30 597 C 53.7884 -3.01568 0.838188 0
M  V30 598 C 54.2634 -4.34301 1.45419 0
M  V30 599 N 55.7544 -4.40965 1.41788 0
M  V30 600 C 56.4894 -5.42256 1.86403 0
M  V30 601 N 55.9854 -6.50297 2.38926 0
M  V30 602 N 57.7784 -5.3337 1.77405 0
M  V30 603 H 49.9294 -1.46126 1.54146 0
M  V30 604 H 52.1924 -0.696156 0.643484 0
M  V30 605 H 51.8984 -2.94742 1.91886 0
M  V30 606 H 51.7724 -3.75423 0.365687 0
M  V30 607 H 54.1594 -2.94379 -0.206106 0
M  V30 608 H 54.2404 -2.1562 1.37629 0
M  V30 609 H 53.8844 -4.42247 2.49761 0
M  V30 610 H 53.8144 -5.19 0.891435 0
M  V30 611 H 56.3054 -3.63484 1.03381 0
M  V30 612 H 56.6184 -7.23777 2.70863 0
M  V30 613 H 54.9634 -6.51155 2.42944 0
M  V30 614 H 58.1544 -4.47865 1.3614 0
M  V30 615 H 58.3274 -6.12169 2.12492 0
M  V30 616 N 51.7335 -0.305618 -1.54608 0
M  V30 617 C 52.9805 0.302298 -2.00231 0
M  V30 618 C 53.3085 1.5354 -1.19398 0
M  V30 619 O 52.5635 1.93973 -0.259423 0
M  V30 620 C 52.8625 0.698983 -3.50498 0
M  V30 621 C 52.5285 -0.432903 -4.48817 0
M  V30 622 C 51.1905 -0.743622 -4.75419 0
M  V30 623 C 53.5425 -1.19409 -5.07337 0
M  V30 624 C 50.8705 -1.81857 -5.57804 0
M  V30 625 C 53.2225 -2.25899 -5.90891 0
M  V30 626 C 51.8865 -2.57572 -6.15803 0
M  V30 627 H 51.1565 0.110619 -0.732697 0
M  V30 628 H 53.8035 -0.425674 -1.86709 0
M  V30 629 H 52.1085 1.50711 -3.61654 0
M  V30 630 H 53.8055 1.1806 -3.83227 0
M  V30 631 H 50.3955 -0.18063 -4.28219 0
M  V30 632 H 54.5795 -0.967295 -4.86782 0
M  V30 633 H 49.8355 -2.06864 -5.75341 0
M  V30 634 H 54.0095 -2.85335 -6.35261 0
M  V30 635 H 51.6365 -3.40998 -6.7943 0
M  V30 636 N 53.2116 1.57565 -0.0334293 0
M  V30 637 C 54.4606 1.91155 0.643639 0
M  V30 638 C 54.7736 0.91192 1.73042 0
M  V30 639 O 55.9796 1.13923 2.46442 0
M  V30 640 C 54.4356 3.39443 1.1961 0
M  V30 641 C 54.0436 4.47774 0.142381 0
M  V30 642 C 55.7876 3.82094 1.84944 0
M  V30 643 C 53.6946 5.87162 0.706727 0
M  V30 644 H 52.6246 0.713368 0.244176 0
M  V30 645 H 55.2756 1.8323 -0.0994323 0
M  V30 646 H 53.6576 3.42313 1.99092 0
M  V30 647 H 54.8316 4.56469 -0.630296 0
M  V30 648 H 53.1466 4.14352 -0.412446 0
M  V30 649 H 55.7436 4.83591 2.2813 0
M  V30 650 H 56.0866 3.17386 2.69392 0
M  V30 651 H 56.6196 3.81665 1.12145 0
M  V30 652 H 53.3586 6.55424 -0.0997178 0
M  V30 653 H 52.8786 5.82064 1.44779 0
M  V30 654 H 54.5576 6.35866 1.19514 0
M  V30 655 N 54.6897 -0.239769 1.55765 0
M  V30 656 C 55.6527 -1.28038 1.90103 0
M  V30 657 C 56.6527 -1.40723 0.778055 0
M  V30 658 O 57.8427 -1.39301 1.04599 0
M  V30 659 C 54.9747 -2.65702 2.13577 0
M  V30 660 H 56.1677 -0.988048 2.83157 0
M  V30 661 H 53.7207 -0.479382 1.48767 0
M  V30 662 H 54.4557 -3.00063 1.23015 0
M  V30 663 H 54.2407 -2.57875 2.95369 0
M  V30 664 H 55.7307 -3.40828 2.41301 0
M  V30 665 N 56.1678 -1.49265 -0.50573 0
M  V30 666 C 57.1148 -1.65585 -1.6078 0
M  V30 667 C 58.0848 -0.497396 -1.58478 0
M  V30 668 O 59.2698 -0.72385 -1.76536 0
M  V30 669 C 56.4098 -1.72408 -2.98948 0
M  V30 670 C 55.5228 -2.99525 -3.11301 0
M  V30 671 C 54.6578 -2.97356 -4.40174 0
M  V30 672 C 53.6968 -4.19074 -4.46143 0
M  V30 673 N 52.8338 -4.14841 -5.66437 0
M  V30 674 H 57.6738 -2.59688 -1.46172 0
M  V30 675 H 55.2108 -1.28761 -0.711261 0
M  V30 676 H 57.1688 -1.74344 -3.79025 0
M  V30 677 H 55.7988 -0.817753 -3.1227 0
M  V30 678 H 54.8508 -3.07222 -2.24318 0
M  V30 679 H 56.1628 -3.89518 -3.11572 0
M  V30 680 H 55.3168 -2.97829 -5.28567 0
M  V30 681 H 54.0558 -2.05133 -4.42461 0
M  V30 682 H 53.0608 -4.1885 -3.56153 0
M  V30 683 H 54.2858 -5.12483 -4.45575 0
M  V30 684 H 52.2318 -3.25453 -5.69575 0
M  V30 685 H 52.1488 -4.98564 -5.68304 0
M  V30 686 H 53.4168 -4.1941 -6.57051 0
M  V30 687 N 57.6459 0.756429 -1.3826 0
M  V30 688 C 58.8709 1.55077 -1.37717 0
M  V30 689 C 59.2959 1.88073 0.03164 0
M  V30 690 O 58.6539 1.50364 1.01293 0
M  V30 691 C 58.7019 2.8283 -2.23695 0
M  V30 692 O 57.8059 3.77862 -1.6521 0
M  V30 693 H 57.1469 0.469152 -0.469885 0
M  V30 694 H 59.6769 0.935019 -1.81985 0
M  V30 695 H 59.6869 3.31783 -2.37453 0
M  V30 696 H 58.3619 2.58144 -3.2609 0
M  V30 697 H 56.9389 3.36555 -1.60578 0
M  V30 698 N 59.124 1.23083 0.984299 0
M  V30 699 C 60.372 1.05848 1.72165 0
M  V30 700 C 60.693 -0.406049 1.90726 0
M  V30 701 O 59.963 -1.29139 1.47309 0
M  V30 702 H 58.543 0.388685 0.637913 0
M  V30 703 H 61.205 1.54736 1.18503 0
M  V30 704 H 60.301 1.54327 2.71274 0
M  V30 705 N 60.6021 -1.18246 1.0419 0
M  V30 706 C 61.5651 -2.20128 0.638452 0
M  V30 707 C 62.5651 -1.57885 -0.304805 0
M  V30 708 O 63.7551 -1.73967 -0.0900369 0
M  V30 709 C 60.8871 -3.4084 -0.0637751 0
M  V30 710 H 62.0801 -2.57336 1.54007 0
M  V30 711 H 59.6331 -1.32152 0.834598 0
M  V30 712 H 60.3681 -3.09166 -0.979136 0
M  V30 713 H 60.1531 -3.8726 0.614198 0
M  V30 714 H 61.6431 -4.16274 -0.332512 0
M  V30 715 N 62.0802 -0.821533 -1.34494 0
M  V30 716 C 63.3202 -0.414785 -2.00147 0
M  V30 717 C 63.6842 1.00299 -1.6372 0
M  V30 718 O 64.8852 1.51255 -2.22206 0
M  V30 719 C 63.1562 -0.609403 -3.52166 0
M  V30 720 S 64.7152 -0.295297 -4.37805 0
M  V30 721 H 61.5332 -0.15679 -0.693497 0
M  V30 722 H 64.1352 -1.06705 -1.63812 0
M  V30 723 H 62.8392 -1.64096 -3.76166 0
M  V30 724 H 62.3702 0.0576414 -3.93358 0
M  V30 725 H 64.3852 0.891531 -4.88125 0
M  V30 726 N 63.5583 1.46682 -0.576371 0
M  V30 727 C 64.5063 2.31953 0.17335 0
M  V30 728 C 65.5003 1.44098 0.89062 0
M  V30 729 O 66.7063 1.60759 0.809728 0
M  V30 730 H 63.0813 0.748273 0.0747727 0
M  V30 731 H 65.0523 2.93007 -0.564738 0
M  V30 732 C 63.8013 3.27142 1.17786 0
M  V30 733 H 63.1243 3.94719 0.635361 0
M  V30 734 H 64.5643 3.896 1.67296 0
M  V30 735 C 63.0233 2.52036 2.23561 0
M  V30 736 O 63.5533 2.27877 3.3081 0
M  V30 737 N 61.7593 2.12709 1.97998 0
M  V30 738 H 61.3063 2.32557 1.10792 0
M  V30 739 H 61.2643 1.62776 2.68982 0
M  V30 740 N 65.0364 0.313813 1.54444 0
M  V30 741 C 65.9664 -0.549454 2.26943 0
M  V30 742 C 66.9474 -1.12741 1.27372 0
M  V30 743 O 68.1324 -1.15436 1.56167 0
M  V30 744 C 65.2624 -1.71523 3.01989 0
M  V30 745 C 64.2164 -1.26703 4.08816 0
M  V30 746 C 63.5424 -2.51898 4.71647 0
M  V30 747 C 64.8424 -0.388962 5.2085 0
M  V30 748 H 66.5364 0.0552661 2.99349 0
M  V30 749 H 64.0824 0.0280207 1.43973 0
M  V30 750 H 66.0354 -2.32535 3.51433 0
M  V30 751 H 64.7594 -2.34639 2.27183 0
M  V30 752 H 63.4184 -0.679896 3.6024 0
M  V30 753 H 63.0664 -3.13356 3.93468 0
M  V30 754 H 62.7664 -2.22605 5.43802 0
M  V30 755 H 64.2904 -3.1369 5.23861 0
M  V30 756 H 65.7044 -0.905107 5.6611 0
M  V30 757 H 64.1014 -0.18924 5.99802 0
M  V30 758 H 65.1714 0.582699 4.81386 0
M  V30 759 N 66.5145 -1.57545 0.0417849 0
M  V30 760 C 67.4775 -2.09885 -0.92093 0
M  V30 761 C 68.4775 -1.01648 -1.24596 0
M  V30 762 O 69.6675 -1.27759 -1.1842 0
M  V30 763 C 66.7995 -2.57527 -2.23367 0
M  V30 764 H 67.9925 -2.96236 -0.467382 0
M  V30 765 H 65.5455 -1.5493 -0.206467 0
M  V30 766 H 66.2805 -1.74542 -2.73323 0
M  V30 767 H 66.0655 -3.36613 -2.01083 0
M  V30 768 H 67.5555 -2.98201 -2.92346 0
M  V30 769 N 67.9926 0.231505 -1.5589 0
M  V30 770 C 68.9426 1.29007 -1.87993 0
M  V30 771 C 69.9266 1.42764 -0.742102 0
M  V30 772 O 71.1186 1.45747 -1.00433 0
M  V30 773 C 68.2476 2.6425 -2.1915 0
M  V30 774 C 67.3336 2.54435 -3.39299 0
M  V30 775 N 67.7246 2.14262 -4.58176 0
M  V30 776 C 66.0226 2.85416 -3.42715 0
M  V30 777 C 66.7236 2.15455 -5.40328 0
M  V30 778 N 65.6996 2.55558 -4.79783 0
M  V30 779 H 69.5016 0.970213 -2.77424 0
M  V30 780 H 67.0156 0.440097 -1.56323 0
M  V30 781 H 69.0126 3.40665 -2.40319 0
M  V30 782 H 67.6726 2.9709 -1.31025 0
M  V30 783 H 68.6836 1.85554 -4.83518 0
M  V30 784 H 65.3606 3.22693 -2.64906 0
M  V30 785 H 66.7506 1.86605 -6.45467 0
M  V30 786 N 69.4707 1.49531 0.497807 0
M  V30 787 C 70.4177 1.66436 1.59899 0
M  V30 788 C 71.3877 0.505793 1.58212 0
M  V30 789 O 72.5727 0.733202 1.7615 0
M  V30 790 C 69.7127 1.7399 2.98029 0
M  V30 791 C 68.8257 3.01172 3.09708 0
M  V30 792 C 67.9607 2.99686 4.38591 0
M  V30 793 C 66.9997 4.21434 4.43914 0
M  V30 794 N 66.1367 4.1784 5.64229 0
M  V30 795 H 70.9767 2.60459 1.44793 0
M  V30 796 H 68.5137 1.29137 0.704423 0
M  V30 797 H 70.4717 1.76352 3.78095 0
M  V30 798 H 69.1017 0.834301 3.11832 0
M  V30 799 H 68.1537 3.08408 2.22685 0
M  V30 800 H 69.4657 3.91165 3.09502 0
M  V30 801 H 68.6197 3.00628 5.2698 0
M  V30 802 H 67.3587 2.07477 4.41367 0
M  V30 803 H 66.3637 4.20733 3.53926 0
M  V30 804 H 67.5887 5.14839 4.42851 0
M  V30 805 H 65.5347 3.28469 5.67841 0
M  V30 806 H 65.4517 5.01571 5.65652 0
M  V30 807 H 66.7197 4.22889 6.54817 0
M  V30 808 N 70.9488 -0.749086 1.3866 0
M  V30 809 C 71.8968 -1.88428 1.36373 0
M  V30 810 C 72.8908 -1.67561 0.248929 0
M  V30 811 O 74.0968 -1.75074 0.41821 0
M  V30 812 H 70.4718 -0.620023 0.42553 0
M  V30 813 H 72.4428 -1.87473 2.32156 0
M  V30 814 C 71.1918 -3.25961 1.21014 0
M  V30 815 H 70.5148 -3.42607 2.06059 0
M  V30 816 H 71.9548 -4.05625 1.23469 0
M  V30 817 C 70.4138 -3.36799 -0.0825941 0
M  V30 818 O 70.9438 -3.87517 -1.05797 0
M  V30 819 N 69.1498 -2.90258 -0.140939 0
M  V30 820 H 68.6968 -2.49174 0.653477 0
M  V30 821 H 68.6548 -2.97889 -1.00545 0
M  V30 822 N 72.4269 -1.23603 -0.977757 0
M  V30 823 C 73.6759 -1.06377 -1.71368 0
M  V30 824 C 73.9889 0.399062 -1.91486 0
M  V30 825 O 75.1949 0.691312 -2.62551 0
M  V30 826 C 73.6509 -1.85512 -3.08404 0
M  V30 827 C 73.2589 -3.36141 -2.96164 0
M  V30 828 C 75.0029 -1.76783 -3.85938 0
M  V30 829 C 72.9099 -4.07659 -4.28449 0
M  V30 830 H 71.8399 -0.394452 -0.642591 0
M  V30 831 H 74.4909 -1.47594 -1.09034 0
M  V30 832 H 72.8729 -1.37103 -3.71509 0
M  V30 833 H 74.0469 -3.92056 -2.42133 0
M  V30 834 H 72.3619 -3.45712 -2.32104 0
M  V30 835 H 74.9589 -2.27526 -4.83876 0
M  V30 836 H 75.3019 -0.731116 -4.0983 0
M  V30 837 H 75.8349 -2.22818 -3.2954 0
M  V30 838 H 72.5739 -5.11648 -4.09752 0
M  V30 839 H 72.0939 -3.5653 -4.82334 0
M  V30 840 H 73.7729 -4.141 -4.97122 0
M  V30 841 N 73.905 1.17692 -1.04816 0
M  V30 842 C 75.321 1.39863 -0.768794 0
M  V30 843 C 75.521 1.91118 0.638451 0
M  V30 844 O 74.577 2.10036 1.40146 0
M  V30 845 C 75.89 2.39274 -1.82122 0
M  V30 846 C 77.438 2.52987 -1.843 0
M  V30 847 C 77.913 3.55669 -2.88555 0
M  V30 848 N 79.404 3.63183 -2.87493 0
M  V30 849 C 80.139 4.42381 -3.64811 0
M  V30 850 N 79.635 5.25125 -4.51903 0
M  V30 851 N 81.428 4.37217 -3.53267 0
M  V30 852 H 73.579 0.82752 -1.95617 0
M  V30 853 H 75.842 0.426123 -0.846831 0
M  V30 854 H 75.548 2.08678 -2.83102 0
M  V30 855 H 75.422 3.38725 -1.65967 0
M  V30 856 H 77.809 2.82896 -0.839869 0
M  V30 857 H 77.89 1.53623 -2.04532 0
M  V30 858 H 77.534 3.26499 -3.89051 0
M  V30 859 H 77.464 4.54728 -2.65575 0
M  V30 860 H 79.955 3.04103 -2.24343 0
M  V30 861 H 80.268 5.82728 -5.07591 0
M  V30 862 H 78.613 5.24519 -4.55966 0
M  V30 863 H 81.804 3.71626 -2.84625 0
M  V30 864 H 81.977 4.98696 -4.13771 0
M  V30 865 N 75.3831 0.828654 1.34056 0
M  V30 866 C 76.2931 0.256725 2.33191 0
M  V30 867 C 77.3091 -0.611898 1.62886 0
M  V30 868 O 78.4851 -0.51844 1.94613 0
M  V30 869 C 75.5501 -0.567238 3.42028 0
M  V30 870 C 74.6111 0.324458 4.28072 0
M  V30 871 C 73.8441 -0.460274 5.31712 0
M  V30 872 O 74.0671 -1.693 5.44696 0
M  V30 873 O 73.0011 0.160391 6.01686 0
M  V30 874 H 76.8271 1.07739 2.83947 0
M  V30 875 H 74.4121 0.59093 1.37217 0
M  V30 876 H 76.2941 -1.03582 4.08471 0
M  V30 877 H 74.9691 -1.36513 2.93506 0
M  V30 878 H 73.8761 0.840659 3.64532 0
M  V30 879 H 75.2091 1.08685 4.8005 0
M  V30 880 N 76.8612 -1.46375 0.584142 0
M  V30 881 C 77.7932 -2.28443 -0.186119 0
M  V30 882 C 78.8062 -1.38596 -0.854115 0
M  V30 883 O 79.9952 -1.63183 -0.723438 0
M  V30 884 C 77.0952 -3.13671 -1.28311 0
M  V30 885 C 76.2682 -4.31652 -0.706758 0
M  V30 886 C 75.3272 -4.98267 -1.69163 0
M  V30 887 O 74.3532 -5.55815 -1.22712 0
M  V30 888 N 75.5552 -4.95408 -3.02575 0
M  V30 889 H 78.3202 -2.9519 0.517986 0
M  V30 890 H 75.8812 -1.56303 0.42201 0
M  V30 891 H 77.8732 -3.55101 -1.94128 0
M  V30 892 H 76.4432 -2.48989 -1.89005 0
M  V30 893 H 75.6632 -3.93989 0.128908 0
M  V30 894 H 76.9512 -5.07906 -0.301506 0
M  V30 895 H 76.3492 -4.49902 -3.42936 0
M  V30 896 H 74.9062 -5.40774 -3.63877 0
M  V30 897 N 78.3393 -0.321999 -1.54275 0
M  V30 898 C 79.5873 0.280489 -2.00144 0
M  V30 899 C 79.9083 1.52777 -1.21178 0
M  V30 900 O 79.1783 1.9338 -0.313187 0
M  V30 901 H 77.7583 0.106632 -0.73935 0
M  V30 902 H 80.4203 -0.438184 -1.8991 0
M  V30 903 H 79.5163 0.537972 -3.07428 0
M  V30 904 N 79.8174 1.5752 -0.0501392 0
M  V30 905 C 81.2334 1.56631 0.306402 0
M  V30 906 C 81.4334 1.0577 1.71508 0
M  V30 907 O 80.4894 0.713837 2.422 0
M  V30 908 C 81.8024 3.00393 0.135811 0
M  V30 909 C 83.3504 3.12315 0.206993 0
M  V30 910 C 83.8254 4.57954 0.064944 0
M  V30 911 N 85.3164 4.63041 0.121254 0
M  V30 912 C 86.0514 5.73389 0.0354381 0
M  V30 913 N 85.5474 6.92724 -0.102666 0
M  V30 914 N 87.3404 5.62026 0.090946 0
M  V30 915 H 79.4914 1.88903 -0.971046 0
M  V30 916 H 81.7544 0.869876 -0.376855 0
M  V30 917 H 81.4604 3.41635 -0.835384 0
M  V30 918 H 81.3344 3.66373 0.897275 0
M  V30 919 H 83.7214 2.70973 1.16866 0
M  V30 920 H 83.8024 2.49016 -0.585208 0
M  V30 921 H 83.4464 4.99981 -0.893394 0
M  V30 922 H 83.3764 5.19258 0.876277 0
M  V30 923 H 85.8674 3.77216 0.227284 0
M  V30 924 H 86.1804 7.72633 -0.160882 0
M  V30 925 H 84.5254 6.94864 -0.137737 0
M  V30 926 H 87.7164 4.67684 0.197388 0
M  V30 927 H 87.8894 6.47997 0.0206089 0
M  V30 928 N 81.2955 -0.223234 1.56011 0
M  V30 929 C 82.5425 -0.947875 1.78946 0
M  V30 930 C 82.8705 -1.844 0.618608 0
M  V30 931 O 82.1255 -1.91629 -0.397093 0
M  V30 932 C 82.4245 -1.81948 3.0762 0
M  V30 933 C 82.0905 -1.07672 4.37856 0
M  V30 934 C 80.7525 -0.871544 4.73242 0
M  V30 935 C 83.1045 -0.552081 5.18268 0
M  V30 936 C 80.4325 -0.129791 5.86556 0
M  V30 937 C 82.7845 0.17632 6.32354 0
M  V30 938 C 81.4485 0.39277 6.66343 0
M  V30 939 H 80.7185 -0.346852 0.654809 0
M  V30 940 H 83.3655 -0.216171 1.90276 0
M  V30 941 H 81.6705 -2.61899 2.91404 0
M  V30 942 H 83.3675 -2.38227 3.22566 0
M  V30 943 H 79.9575 -1.24662 4.1007 0
M  V30 944 H 84.1415 -0.698076 4.91366 0
M  V30 945 H 79.3975 0.048153 6.11381 0
M  V30 946 H 83.5715 0.590367 6.93893 0
M  V30 947 H 81.1985 0.969466 7.53993 0
M  V30 948 N 82.7736 -1.49793 -0.48987 0
M  V30 949 C 83.7036 -1.70201 -1.59856 0
M  V30 950 C 84.6846 -0.55076 -1.60937 0
M  V30 951 O 85.8696 -0.787841 -1.77501 0
M  V30 952 C 82.9996 -1.77882 -2.98287 0
M  V30 953 C 81.9536 -2.92907 -3.12073 0
M  V30 954 C 81.2796 -2.85712 -4.51965 0
M  V30 955 C 82.5796 -4.3369 -2.91051 0
M  V30 956 H 84.2736 -2.63025 -1.43032 0
M  V30 957 H 81.8196 -1.26574 -0.686664 0
M  V30 958 H 83.7726 -1.90744 -3.75759 0
M  V30 959 H 82.4966 -0.816653 -3.16225 0
M  V30 960 H 81.1556 -2.79665 -2.37029 0
M  V30 961 H 80.8036 -1.8738 -4.66795 0
M  V30 962 H 80.5036 -3.62921 -4.62128 0
M  V30 963 H 82.0276 -3.00598 -5.31482 0
M  V30 964 H 83.4416 -4.47555 -3.58284 0
M  V30 965 H 81.8386 -5.12205 -3.12675 0
M  V30 966 H 82.9086 -4.47362 -1.87071 0
M  V30 967 N 84.2517 0.741722 -1.39055 0
M  V30 968 C 85.1837 1.8657 -1.33133 0
M  V30 969 C 86.1967 1.61001 -0.241329 0
M  V30 970 O 87.3857 1.7136 -0.499784 0
M  V30 971 C 84.4857 3.22457 -1.04283 0
M  V30 972 C 83.6587 3.75435 -2.24427 0
M  V30 973 C 82.7177 4.89867 -1.92138 0
M  V30 974 O 81.7437 5.03879 -2.64754 0
M  V30 975 N 82.9457 5.73738 -0.88347 0
M  V30 976 H 85.7107 1.92156 -2.29991 0
M  V30 977 H 83.2717 0.922172 -1.3307 0
M  V30 978 H 85.2637 3.9657 -0.807128 0
M  V30 979 H 83.8337 3.12181 -0.161807 0
M  V30 980 H 83.0537 2.92751 -2.6399 0
M  V30 981 H 84.3417 4.07563 -3.04581 0
M  V30 982 H 83.7397 5.64999 -0.281517 0
M  V30 983 H 82.2967 6.47947 -0.707662 0
M  V30 984 N 85.7298 1.2412 0.971189 0
M  V30 985 C 87.0068 0.986867 1.6888 0
M  V30 986 C 87.3868 -0.491857 2.0529 0
M  V30 987 O 86.7348 -1.46531 1.75331 0
M  V30 988 C 86.9448 1.9063 2.92338 0
M  V30 989 C 88.2928 2.17515 3.64654 0
M  V30 990 O 89.3168 1.88254 3.02388 0
M  V30 991 O 88.1758 2.6719 4.7673 0
M  V30 992 H 85.2698 0.372944 0.738134 0
M  V30 993 H 87.8158 1.35203 1.02559 0
M  V30 994 H 86.5878 2.90552 2.62097 0
M  V30 995 H 86.2108 1.54408 3.66393 0
M  V30 996 N 87.2079 -1.17134 1.05439 0
M  V30 997 C 88.4569 -1.86791 0.761049 0
M  V30 998 C 88.7699 -1.82072 -0.714795 0
M  V30 999 O 89.9759 -2.47223 -1.12218 0
M  V30 1000 C 88.4319 -3.35166 1.31117 0
M  V30 1001 C 88.0399 -3.48381 2.81664 0
M  V30 1002 C 89.7839 -4.10134 1.09499 0
M  V30 1003 C 87.6909 -4.90793 3.29964 0
M  V30 1004 H 86.6209 -0.699681 0.281002 0
M  V30 1005 H 89.2719 -1.3226 1.27199 0
M  V30 1006 H 87.6539 -3.8925 0.72803 0
M  V30 1007 H 88.8279 -3.04502 3.45855 0
M  V30 1008 H 87.1429 -2.86836 3.01851 0
M  V30 1009 H 89.7399 -5.152 1.43084 0
M  V30 1010 H 90.0829 -4.16287 0.0328772 0
M  V30 1011 H 90.6159 -3.62264 1.64346 0
M  V30 1012 H 87.3549 -4.89816 4.35616 0
M  V30 1013 H 86.8749 -5.35333 2.70516 0
M  V30 1014 H 88.5539 -5.59573 3.24787 0
M  V30 1015 N 88.686 -0.835752 -1.33615 0
M  V30 1016 C 89.933 -0.429959 -1.97883 0
M  V30 1017 C 90.261 1.01006 -1.66217 0
M  V30 1018 O 89.516 1.72047 -0.93265 0
M  V30 1019 C 89.815 -0.593925 -3.52431 0
M  V30 1020 C 89.481 -2.00158 -4.04039 0
M  V30 1021 C 88.143 -2.38662 -4.17844 0
M  V30 1022 C 90.495 -2.92117 -4.31644 0
M  V30 1023 C 87.823 -3.68435 -4.56588 0
M  V30 1024 C 90.175 -4.21368 -4.71838 0
M  V30 1025 C 88.839 -4.59833 -4.83849 0
M  V30 1026 H 88.109 -0.157333 -0.724104 0
M  V30 1027 H 90.756 -1.06217 -1.59343 0
M  V30 1028 H 89.061 0.121619 -3.91611 0
M  V30 1029 H 90.758 -0.260282 -4.00154 0
M  V30 1030 H 87.348 -1.69252 -3.93766 0
M  V30 1031 H 91.532 -2.63608 -4.20505 0
M  V30 1032 H 86.788 -3.98046 -4.64079 0
M  V30 1033 H 90.962 -4.92703 -4.92155 0
M  V30 1034 H 88.589 -5.60438 -5.13627 0
M  V30 1035 N 90.1641 1.46063 -0.591896 0
M  V30 1036 C 91.3921 2.06717 -0.0868936 0
M  V30 1037 C 91.8071 1.43916 1.22203 0
M  V30 1038 O 91.1641 0.547698 1.74088 0
M  V30 1039 C 91.2151 3.6142 0.0758725 0
M  V30 1040 O 90.9361 4.21874 -1.18126 0
M  V30 1041 C 92.4371 4.39025 0.61416 0
M  V30 1042 H 89.6571 0.668162 -0.0616518 0
M  V30 1043 H 92.2011 1.8755 -0.815175 0
M  V30 1044 H 90.3561 3.79983 0.754413 0
M  V30 1045 H 90.7701 5.14861 -1.00092 0
M  V30 1046 H 92.2441 5.4783 0.677193 0
M  V30 1047 H 92.7211 4.07708 1.63312 0
M  V30 1048 H 93.3271 4.2529 -0.0298142 0
M  V30 1049 N 91.6422 0.330177 1.54103 0
M  V30 1050 C 92.8702 -0.272179 2.05102 0
M  V30 1051 C 93.2852 -1.45267 1.20595 0
M  V30 1052 O 92.6422 -1.8094 0.238144 0
M  V30 1053 C 92.6932 -0.70023 3.54653 0
M  V30 1054 O 92.4142 0.433301 4.35952 0
M  V30 1055 C 93.9152 -1.3647 4.21771 0
M  V30 1056 H 91.1352 -0.0549159 0.668749 0
M  V30 1057 H 93.6792 0.478285 1.98828 0
M  V30 1058 H 91.8342 -1.40066 3.61193 0
M  V30 1059 H 92.2482 0.0947539 5.24414 0
M  V30 1060 H 93.7222 -1.61509 5.27843 0
M  V30 1061 H 94.1992 -2.31409 3.73292 0
M  V30 1062 H 94.8052 -0.706675 4.19388 0
M  V30 1063 N 93.1203 -1.57491 0.0584922 0
M  V30 1064 C 94.0503 -2.14988 -0.911178 0
M  V30 1065 C 95.0313 -1.07343 -1.31952 0
M  V30 1066 O 96.2163 -1.35318 -1.39294 0
M  V30 1067 C 93.3463 -2.70078 -2.18347 0
M  V30 1068 C 92.3003 -3.82771 -1.91495 0
M  V30 1069 C 91.6263 -4.24408 -3.25241 0
M  V30 1070 C 92.9263 -5.07592 -1.23075 0
M  V30 1071 H 94.6203 -2.96263 -0.432246 0
M  V30 1072 H 92.1663 -1.42512 -0.206469 0
M  V30 1073 H 94.1193 -3.08943 -2.86587 0
M  V30 1074 H 92.8433 -1.86005 -2.68458 0
M  V30 1075 H 91.5023 -3.44389 -1.25664 0
M  V30 1076 H 91.1503 -3.37275 -3.73168 0
M  V30 1077 H 90.8503 -5.00366 -3.08071 0
M  V30 1078 H 92.3743 -4.65879 -3.94701 0
M  V30 1079 H 93.7883 -5.43857 -1.81362 0
M  V30 1080 H 92.1853 -5.88741 -1.16207 0
M  V30 1081 H 93.2553 -4.84454 -0.207847 0
M  V30 1082 N 94.5984 0.214957 -1.56127 0
M  V30 1083 C 95.8444 0.939762 -1.79712 0
M  V30 1084 C 96.1774 1.83723 -0.629247 0
M  V30 1085 O 95.4524 1.90925 0.371197 0
M  V30 1086 C 95.7354 1.77306 -3.13424 0
M  V30 1087 C 95.5884 0.90164 -4.40671 0
M  V30 1088 C 96.9074 2.74956 -3.43638 0
M  V30 1089 H 94.0264 0.340214 -0.653776 0
M  V30 1090 H 96.6684 0.20824 -1.88855 0
M  V30 1091 H 94.8184 2.39673 -3.0576 0
M  V30 1092 H 96.4904 0.294206 -4.60361 0
M  V30 1093 H 94.7334 0.207368 -4.33304 0
M  V30 1094 H 95.4044 1.51923 -5.30682 0
M  V30 1095 H 97.8804 2.22724 -3.51473 0
M  V30 1096 H 96.7564 3.30358 -4.38355 0
M  V30 1097 H 97.0174 3.53023 -2.66134 0
M  V30 1098 N 96.0765 1.50051 0.48192 0
M  V30 1099 C 97.3535 1.51009 1.2432 0
M  V30 1100 C 97.7335 0.248587 2.09631 0
M  V30 1101 O 97.0815 -0.768409 2.15192 0
M  V30 1102 C 97.2915 2.79981 2.08355 0
M  V30 1103 C 98.6395 3.3022 2.66908 0
M  V30 1104 O 99.6635 2.81228 2.18607 0
M  V30 1105 O 98.5225 4.15595 3.54884 0
M  V30 1106 H 95.6165 0.605239 0.563573 0
M  V30 1107 H 98.1625 1.62332 0.494627 0
M  V30 1108 H 96.9345 3.63275 1.45419 0
M  V30 1109 H 96.5575 2.7161 2.90368 0
M  V30 1110 N 97.5546 -0.734337 1.39446 0
M  V30 1111 C 98.4846 -1.86155 1.40955 0
M  V30 1112 C 99.4656 -1.67898 0.272827 0
M  V30 1113 O 100.651 -1.88207 0.478743 0
M  V30 1114 C 97.7806 -3.23912 1.25294 0
M  V30 1115 C 96.7346 -3.56808 2.36373 0
M  V30 1116 C 96.0606 -4.93508 2.058 0
M  V30 1117 C 97.3606 -3.59713 3.78687 0
M  V30 1118 H 99.0546 -1.8515 2.35287 0
M  V30 1119 H 96.6006 -0.889367 1.13253 0
M  V30 1120 H 98.5536 -4.02443 1.2497 0
M  V30 1121 H 97.2776 -3.25446 0.274308 0
M  V30 1122 H 95.9366 -2.80606 2.35914 0
M  V30 1123 H 95.5846 -4.91623 1.06374 0
M  V30 1124 H 95.2846 -5.16486 2.80208 0
M  V30 1125 H 96.8086 -5.74396 2.07128 0
M  V30 1126 H 98.2226 -4.2832 3.81071 0
M  V30 1127 H 96.6196 -3.94209 4.52459 0
M  V30 1128 H 97.6896 -2.59504 4.09617 0
M  V30 1129 N 99.0327 -1.24633 -0.964593 0
M  V30 1130 C 99.9797 -1.04144 -2.05968 0
M  V30 1131 C 100.95 0.046262 -1.66036 0
M  V30 1132 O 102.135 -0.108972 -1.90489 0
M  V30 1133 C 99.2747 -0.65563 -3.38815 0
M  V30 1134 C 98.3877 -1.81714 -3.91923 0
M  V30 1135 C 97.5227 -1.37662 -5.13052 0
M  V30 1136 C 96.5617 -2.50788 -5.58365 0
M  V30 1137 N 95.6987 -2.07582 -6.70712 0
M  V30 1138 H 100.539 -1.9787 -2.22827 0
M  V30 1139 H 98.0757 -0.9855 -1.09208 0
M  V30 1140 H 100.034 -0.412954 -4.15151 0
M  V30 1141 H 98.6637 0.244627 -3.21872 0
M  V30 1142 H 97.7157 -2.1734 -3.12198 0
M  V30 1143 H 99.0277 -2.66705 -4.21509 0
M  V30 1144 H 98.1817 -1.093 -5.96773 0
M  V30 1145 H 96.9207 -0.497293 -4.85158 0
M  V30 1146 H 95.9257 -2.79906 -4.73215 0
M  V30 1147 H 97.1507 -3.39283 -5.88272 0
M  V30 1148 H 95.0967 -1.22051 -6.44546 0
M  V30 1149 H 95.0137 -2.86125 -6.99763 0
M  V30 1150 H 96.2817 -1.82369 -7.57867 0
M  V30 1151 N 100.511 1.16574 -1.06058 0
M  V30 1152 C 101.757 1.87565 -0.78683 0
M  V30 1153 C 102.112 1.80012 0.679214 0
M  V30 1154 O 101.405 1.20327 1.49104 0
M  V30 1155 C 101.599 3.36195 -1.21275 0
M  V30 1156 C 101.428 3.58216 -2.71866 0
M  V30 1157 C 100.198 3.7444 -3.39298 0
M  V30 1158 C 102.396 3.57134 -3.70081 0
M  V30 1159 N 100.378 3.84389 -4.78663 0
M  V30 1160 C 101.749 3.73038 -4.9522 0
M  V30 1161 C 103.804 3.40332 -3.63426 0
M  V30 1162 C 102.507 3.73879 -6.14497 0
M  V30 1163 C 104.533 3.42466 -4.82153 0
M  V30 1164 C 103.895 3.58887 -6.06118 0
M  V30 1165 H 99.9938 0.704081 -0.340284 0
M  V30 1166 H 102.578 1.39885 -1.35426 0
M  V30 1167 H 100.749 3.82522 -0.673179 0
M  V30 1168 H 102.481 3.94839 -0.887917 0
M  V30 1169 H 99.2358 3.74662 -2.89699 0
M  V30 1170 H 99.6598 3.93138 -5.51155 0
M  V30 1171 H 104.302 3.26566 -2.68541 0
M  V30 1172 H 102.02 3.86427 -7.09718 0
M  V30 1173 H 105.606 3.30712 -4.78666 0
M  V30 1174 H 104.486 3.60454 -6.9645 0
M  V30 1175 N 101.989 0.842826 1.3317 0
M  V30 1176 C 103.405 0.531128 1.50503 0
M  V30 1177 C 103.605 -0.940734 1.78192 0
M  V30 1178 O 102.661 -1.72436 1.84451 0
M  V30 1179 C 103.974 1.40789 2.65705 0
M  V30 1180 C 105.522 1.40708 2.79589 0
M  V30 1181 C 105.997 2.26878 3.97857 0
M  V30 1182 N 107.488 2.24609 4.05099 0
M  V30 1183 C 108.223 2.88019 4.95815 0
M  V30 1184 N 107.719 3.60496 5.9162 0
M  V30 1185 N 109.512 2.77469 4.88843 0
M  V30 1186 H 101.663 1.79557 1.1346 0
M  V30 1187 H 103.926 0.766267 0.558156 0
M  V30 1188 H 103.632 2.454 2.51936 0
M  V30 1189 H 103.506 1.08677 3.61205 0
M  V30 1190 H 105.893 0.368668 2.92788 0
M  V30 1191 H 105.974 1.76829 1.84838 0
M  V30 1192 H 105.618 3.3078 3.85418 0
M  V30 1193 H 105.548 1.88096 4.91861 0
M  V30 1194 H 108.039 1.71906 3.36536 0
M  V30 1195 H 108.352 4.06076 6.57512 0
M  V30 1196 H 106.697 3.64604 5.91683 0
M  V30 1197 H 109.888 2.20406 4.12963 0
M  V30 1198 H 110.061 3.2717 5.59342 0
M  V30 1199 N 103.467 -1.45747 0.599634 0
M  V30 1200 C 104.417 -2.27538 -0.145107 0
M  V30 1201 C 105.401 -1.3686 -0.846055 0
M  V30 1202 O 106.593 -1.6091 -0.737357 0
M  V30 1203 C 103.722 -3.23569 -1.14708 0
M  V30 1204 C 102.808 -4.21734 -0.447383 0
M  V30 1205 N 103.199 -5.03257 0.506535 0
M  V30 1206 C 101.497 -4.40536 -0.695966 0
M  V30 1207 C 102.198 -5.74426 0.917068 0
M  V30 1208 N 101.174 -5.42966 0.26253 0
M  V30 1209 H 104.976 -2.87965 0.587672 0
M  V30 1210 H 102.49 -1.56803 0.422697 0
M  V30 1211 H 104.487 -3.8089 -1.69495 0
M  V30 1212 H 103.147 -2.64702 -1.8805 0
M  V30 1213 H 104.158 -5.10319 0.882899 0
M  V30 1214 H 100.835 -3.92802 -1.41467 0
M  V30 1215 H 102.225 -6.4995 1.70338 0
M  V30 1216 N 104.945 -0.338344 -1.53925 0
M  V30 1217 C 106.173 0.261298 -2.05243 0
M  V30 1218 C 106.588 1.44625 -1.21363 0
M  V30 1219 O 105.945 1.80811 -0.247736 0
M  V30 1220 C 105.996 0.681412 -3.5502 0
M  V30 1221 O 105.717 -0.456414 -4.35716 0
M  V30 1222 C 107.218 1.34232 -4.22489 0
M  V30 1223 H 104.438 0.0513685 -0.669031 0
M  V30 1224 H 106.982 -0.488822 -1.98572 0
M  V30 1225 H 105.137 1.38148 -3.61931 0
M  V30 1226 H 105.551 -0.122564 -5.24357 0
M  V30 1227 H 107.025 1.58708 -5.28693 0
M  V30 1228 H 107.502 2.29426 -3.74514 0
M  V30 1229 H 108.108 0.684424 -4.19757 0
M  V30 1230 N 106.423 1.57458 -0.0668435 0
M  V30 1231 C 107.353 2.15468 0.899764 0
M  V30 1232 C 108.334 1.08042 1.31381 0
M  V30 1233 O 109.519 1.36054 1.38574 0
M  V30 1234 C 106.649 2.71232 2.16911 0
M  V30 1235 C 105.603 3.83781 1.89463 0
M  V30 1236 C 104.929 4.26127 3.22986 0
M  V30 1237 C 106.229 5.08238 1.20381 0
M  V30 1238 H 107.923 2.96488 0.416529 0
M  V30 1239 H 105.469 1.4262 0.198908 0
M  V30 1240 H 107.422 3.10458 2.84945 0
M  V30 1241 H 106.146 1.87426 2.67468 0
M  V30 1242 H 104.805 3.45051 1.23836 0
M  V30 1243 H 104.453 3.39249 3.71374 0
M  V30 1244 H 104.153 5.01993 3.05413 0
M  V30 1245 H 105.677 4.67966 3.92225 0
M  V30 1246 H 107.091 5.44811 1.78475 0
M  V30 1247 H 105.488 5.89349 1.13083 0
M  V30 1248 H 106.558 4.84558 0.182153 0
M  V30 1249 N 107.901 -0.206675 1.56239 0
M  V30 1250 C 109.147 -0.930218 1.80208 0
M  V30 1251 C 109.48 -1.83387 0.638981 0
M  V30 1252 O 108.755 -1.91119 -0.361066 0
M  V30 1253 C 109.038 -1.75641 3.1436 0
M  V30 1254 C 108.891 -0.878257 4.41142 0
M  V30 1255 C 110.21 -2.73129 3.45092 0
M  V30 1256 H 107.329 -0.336742 0.655571 0
M  V30 1257 H 109.971 -0.198222 1.88963 0
M  V30 1258 H 108.121 -2.38048 3.07027 0
M  V30 1259 H 109.793 -0.269787 4.6051 0
M  V30 1260 H 108.036 -0.184385 4.33408 0
M  V30 1261 H 108.707 -1.49106 5.3148 0
M  V30 1262 H 111.183 -2.20856 3.52649 0
M  V30 1263 H 110.059 -3.28028 4.40101 0
M  V30 1264 H 110.32 -3.51606 2.68003 0
M  V30 1265 N 109.379 -1.50304 -0.473955 0
M  V30 1266 C 110.628 -1.60392 -1.22301 0
M  V30 1267 C 110.941 -0.308411 -1.93153 0
M  V30 1268 O 112.147 -0.288156 -2.69966 0
M  V30 1269 C 110.603 -2.83109 -2.2221 0
M  V30 1270 C 110.211 -4.19524 -1.57173 0
M  V30 1271 C 111.955 -3.0254 -2.97775 0
M  V30 1272 C 109.862 -5.33431 -2.55353 0
M  V30 1273 H 108.792 -0.597286 -0.460179 0
M  V30 1274 H 111.443 -1.76731 -0.493803 0
M  V30 1275 H 109.825 -2.60322 -2.9841 0
M  V30 1276 H 110.999 -4.52554 -0.867824 0
M  V30 1277 H 109.314 -4.05674 -0.939002 0
M  V30 1278 H 111.911 -3.84811 -3.71248 0
M  V30 1279 H 112.254 -2.14154 -3.56992 0
M  V30 1280 H 112.787 -3.25494 -2.28688 0
M  V30 1281 H 109.526 -6.23962 -2.00878 0
M  V30 1282 H 109.046 -5.04823 -3.23904 0
M  V30 1283 H 110.725 -5.63887 -3.17239 0
M  V30 1284 N 110.857 0.726932 -1.39834 0
M  V30 1285 C 112.104 1.48664 -1.37496 0
M  V30 1286 C 112.432 1.94482 0.0264678 0
M  V30 1287 O 111.687 1.67692 1.00886 0
M  V30 1288 C 111.986 2.73495 -2.30077 0
M  V30 1289 C 111.652 2.46502 -3.77555 0
M  V30 1290 C 110.314 2.3885 -4.17737 0
M  V30 1291 C 112.666 2.23604 -4.70798 0
M  V30 1292 C 109.994 2.06352 -5.49214 0
M  V30 1293 C 112.346 1.92622 -6.02561 0
M  V30 1294 C 111.01 1.83444 -6.41798 0
M  V30 1295 H 110.28 0.544001 -0.503135 0
M  V30 1296 H 112.927 0.833657 -1.72402 0
M  V30 1297 H 111.232 3.43575 -1.88317 0
M  V30 1298 H 112.929 3.31549 -2.25558 0
M  V30 1299 H 109.519 2.5334 -3.45712 0
M  V30 1300 H 113.703 2.28479 -4.40581 0
M  V30 1301 H 108.959 1.97776 -5.78528 0
M  V30 1302 H 113.133 1.73914 -6.74334 0
M  V30 1303 H 110.76 1.58029 -7.43593 0
M  V30 1304 N 112.336 1.25143 0.95797 0
M  V30 1305 C 113.564 1.12424 1.73691 0
M  V30 1306 C 113.979 -0.322304 1.86029 0
M  V30 1307 O 113.336 -1.22186 1.35561 0
M  V30 1308 C 113.387 1.76933 3.15241 0
M  V30 1309 O 113.108 3.15932 3.03511 0
M  V30 1310 C 114.609 1.6995 4.09429 0
M  V30 1311 H 111.829 0.3923 0.544373 0
M  V30 1312 H 114.373 1.6544 1.20207 0
M  V30 1313 H 112.528 1.27895 3.6568 0
M  V30 1314 H 112.942 3.47598 3.9278 0
M  V30 1315 H 114.416 2.19753 5.06372 0
M  V30 1316 H 114.893 0.662619 4.34173 0
M  V30 1317 H 115.499 2.18461 3.64904 0
M  V30 1318 N 113.814 -1.1601 1.06675 0
M  V30 1319 C 114.747 -2.1947 0.625168 0
M  V30 1320 C 115.725 -1.58699 -0.354041 0
M  V30 1321 O 116.909 -1.86669 -0.262098 0
M  V30 1322 C 114.036 -3.38598 -0.0829593 0
M  V30 1323 C 113.082 -4.1787 0.853611 0
M  V30 1324 S 113.915 -4.81135 2.35094 0
M  V30 1325 C 115.071 -6.03639 1.65441 0
M  V30 1326 H 115.304 -2.56587 1.50168 0
M  V30 1327 H 112.837 -1.26862 0.880078 0
M  V30 1328 H 114.795 -4.07621 -0.485288 0
M  V30 1329 H 113.456 -2.99839 -0.935716 0
M  V30 1330 H 112.649 -5.03078 0.304755 0
M  V30 1331 H 112.251 -3.54361 1.196 0
M  V30 1332 H 114.543 -6.70632 0.962201 0
M  V30 1333 H 115.486 -6.63081 2.48454 0
M  V30 1334 H 115.894 -5.52965 1.13534 0
M  V30 1335 N 115.292 -0.849877 -1.32721 0
M  V30 1336 C 116.517 -0.463856 -2.02146 0
M  V30 1337 C 116.942 0.930449 -1.63476 0
M  V30 1338 O 116.3 1.61033 -0.832952 0
M  V30 1339 C 116.348 -0.604955 -3.55489 0
M  V30 1340 O 115.452 0.36425 -4.10788 0
M  V30 1341 H 114.793 -0.187046 -0.637111 0
M  V30 1342 H 117.323 -1.14775 -1.69375 0
M  V30 1343 H 117.333 -0.490696 -4.05038 0
M  V30 1344 H 116.008 -1.62174 -3.82978 0
M  V30 1345 H 114.585 0.206628 -3.72327 0
M  V30 1346 N 116.77 1.45427 -0.607355 0
M  V30 1347 C 118.017 2.02241 -0.102455 0
M  V30 1348 C 118.345 1.4758 1.26691 0
M  V30 1349 O 117.6 0.640468 1.84923 0
M  V30 1350 C 117.899 3.57398 -0.0129263 0
M  V30 1351 C 117.565 4.3121 -1.31792 0
M  V30 1352 C 116.227 4.51092 -1.67539 0
M  V30 1353 C 118.579 4.73401 -2.18039 0
M  V30 1354 C 115.907 5.10422 -2.89285 0
M  V30 1355 C 118.259 5.34078 -3.39034 0
M  V30 1356 C 116.923 5.52184 -3.75033 0
M  V30 1357 H 116.193 0.740051 -0.037491 0
M  V30 1358 H 118.84 1.74494 -0.788926 0
M  V30 1359 H 117.145 3.84421 0.756806 0
M  V30 1360 H 118.842 3.99061 0.393881 0
M  V30 1361 H 115.432 4.16047 -1.02968 0
M  V30 1362 H 119.616 4.57774 -1.91721 0
M  V30 1363 H 114.872 5.22629 -3.17283 0
M  V30 1364 H 119.046 5.65724 -4.06115 0
M  V30 1365 H 116.673 5.97925 -4.69457 0
M  V30 1366 N 118.248 0.346503 1.53744 0
M  V30 1367 C 119.178 -0.501193 2.28058 0
M  V30 1368 C 120.159 -1.10014 1.29734 0
M  V30 1369 O 121.344 -1.12097 1.58581 0
M  V30 1370 C 118.474 -1.65078 3.05559 0
M  V30 1371 C 117.428 -1.18003 4.11411 0
M  V30 1372 C 116.754 -2.41837 4.76884 0
M  V30 1373 C 118.054 -0.278394 5.21558 0
M  V30 1374 H 119.748 0.11875 2.99164 0
M  V30 1375 H 117.294 0.0585531 1.43881 0
M  V30 1376 H 119.247 -2.25028 3.56287 0
M  V30 1377 H 117.971 -2.29767 2.32109 0
M  V30 1378 H 116.63 -0.603331 3.61601 0
M  V30 1379 H 116.278 -3.0494 4.00026 0
M  V30 1380 H 115.978 -2.1102 5.48402 0
M  V30 1381 H 117.502 -3.02508 5.30397 0
M  V30 1382 H 118.916 -0.784823 5.67903 0
M  V30 1383 H 117.313 -0.0619707 6.00068 0
M  V30 1384 H 118.383 0.684677 4.80042 0
M  V30 1385 N 119.726 -1.57421 0.075193 0
M  V30 1386 C 120.966 -1.95495 -0.596757 0
M  V30 1387 C 121.33 -0.954886 -1.66571 0
M  V30 1388 O 122.531 -1.22341 -2.39345 0
M  V30 1389 C 120.802 -3.382 -1.15566 0
M  V30 1390 S 122.361 -3.98254 -1.84226 0
M  V30 1391 H 119.179 -0.683649 -0.195307 0
M  V30 1392 H 121.781 -1.94925 0.149859 0
M  V30 1393 H 120.485 -4.08766 -0.36588 0
M  V30 1394 H 120.016 -3.42321 -1.93856 0
M  V30 1395 H 122.031 -3.85435 -3.12497 0
M  V30 1396 N 121.204 0.198386 -1.56346 0
M  V30 1397 C 122.429 0.939682 -1.84891 0
M  V30 1398 C 122.854 1.76202 -0.658369 0
M  V30 1399 O 122.212 1.76993 0.392851 0
M  V30 1400 C 122.26 1.81428 -3.11635 0
M  V30 1401 O 121.364 2.91265 -2.91956 0
M  V30 1402 H 120.705 0.264807 -0.608912 0
M  V30 1403 H 123.235 0.204695 -2.03573 0
M  V30 1404 H 123.245 2.21958 -3.42343 0
M  V30 1405 H 121.92 1.21004 -3.97908 0
M  V30 1406 H 120.497 2.54514 -2.72538 0
M  V30 1407 N 122.682 1.50554 0.465978 0
M  V30 1408 C 123.928 1.63006 1.21658 0
M  V30 1409 C 124.283 0.328613 1.89573 0
M  V30 1410 O 123.576 -0.673813 1.79361 0
M  V30 1411 C 123.77 2.75152 2.28093 0
M  V30 1412 C 123.599 4.16075 1.7062 0
M  V30 1413 C 122.369 4.82408 1.50368 0
M  V30 1414 C 124.567 5.00145 1.1983 0
M  V30 1415 N 122.549 6.07532 0.881924 0
M  V30 1416 C 123.92 6.16035 0.700083 0
M  V30 1417 C 125.975 4.85882 1.08733 0
M  V30 1418 C 124.678 7.19228 0.101835 0
M  V30 1419 C 126.704 5.89257 0.503016 0
M  V30 1420 C 126.066 7.04398 0.0152005 0
M  V30 1421 H 122.165 0.650596 0.433877 0
M  V30 1422 H 124.749 1.8769 0.517746 0
M  V30 1423 H 122.92 2.52181 2.95397 0
M  V30 1424 H 124.652 2.76935 2.95109 0
M  V30 1425 H 121.407 4.39788 1.75737 0
M  V30 1426 H 121.831 6.7443 0.589312 0
M  V30 1427 H 126.473 3.97144 1.4504 0
M  V30 1428 H 124.191 8.07637 -0.273426 0
M  V30 1429 H 127.777 5.80286 0.419451 0
M  V30 1430 H 126.657 7.83021 -0.429856 0
M  V30 1431 N 124.16 -0.719506 1.40217 0
M  V30 1432 C 125.09 -1.8465 1.42922 0
M  V30 1433 C 126.071 -1.67599 0.29062 0
M  V30 1434 O 127.256 -1.87688 0.498677 0
M  V30 1435 C 124.386 -3.22565 1.28722 0
M  V30 1436 C 123.34 -3.54281 2.40144 0
M  V30 1437 C 122.666 -4.91298 2.11023 0
M  V30 1438 C 123.966 -3.55676 3.82481 0
M  V30 1439 H 125.66 -1.82644 2.37237 0
M  V30 1440 H 123.206 -0.877305 1.1419 0
M  V30 1441 H 125.159 -4.01095 1.29232 0
M  V30 1442 H 123.883 -3.25137 0.308811 0
M  V30 1443 H 122.542 -2.78088 2.38877 0
M  V30 1444 H 122.19 -4.90468 1.11582 0
M  V30 1445 H 121.89 -5.13485 2.8567 0
M  V30 1446 H 123.414 -5.72166 2.13209 0
M  V30 1447 H 124.828 -4.24254 3.85592 0
M  V30 1448 H 123.225 -3.89388 4.56614 0
M  V30 1449 H 124.295 -2.55144 4.12346 0
M  V30 1450 N 125.638 -1.25649 -0.95132 0
M  V30 1451 C 126.568 -1.08808 -2.06599 0
M  V30 1452 C 127.549 0.00382547 -1.701 0
M  V30 1453 O 128.734 -0.166325 -1.93486 0
M  V30 1454 C 125.864 -0.709542 -3.39975 0
M  V30 1455 C 124.818 -1.75206 -3.90496 0
M  V30 1456 C 124.144 -1.22811 -5.20405 0
M  V30 1457 C 125.444 -3.15153 -4.16504 0
M  V30 1458 H 127.138 -2.02048 -2.20946 0
M  V30 1459 H 124.684 -0.972835 -1.06169 0
M  V30 1460 H 126.637 -0.578649 -4.17408 0
M  V30 1461 H 125.361 0.258556 -3.25575 0
M  V30 1462 H 124.02 -1.87145 -3.15234 0
M  V30 1463 H 123.668 -0.250145 -5.02378 0
M  V30 1464 H 123.368 -1.92492 -5.55176 0
M  V30 1465 H 124.892 -1.10968 -6.00432 0
M  V30 1466 H 126.306 -3.06349 -4.84586 0
M  V30 1467 H 124.703 -3.82333 -4.62538 0
M  V30 1468 H 125.773 -3.61966 -3.22658 0
M  V30 1469 N 127.117 1.15442 -1.07289 0
M  V30 1470 C 128.364 1.86213 -0.795668 0
M  V30 1471 C 128.692 1.82291 0.678238 0
M  V30 1472 O 127.947 1.24057 1.51355 0
M  V30 1473 C 128.246 3.3489 -1.24834 0
M  V30 1474 C 127.912 3.59007 -2.72809 0
M  V30 1475 C 126.574 3.65298 -3.13227 0
M  V30 1476 C 128.926 3.68762 -3.68326 0
M  V30 1477 C 126.254 3.78854 -4.4798 0
M  V30 1478 C 128.606 3.83842 -5.0284 0
M  V30 1479 C 127.27 3.88378 -5.4288 0
M  V30 1480 H 126.54 0.681403 -0.291155 0
M  V30 1481 H 129.187 1.36435 -1.34379 0
M  V30 1482 H 127.492 3.8687 -0.619595 0
M  V30 1483 H 129.189 3.88052 -1.01076 0
M  V30 1484 H 125.779 3.5475 -2.40521 0
M  V30 1485 H 129.963 3.63202 -3.38227 0
M  V30 1486 H 125.219 3.80623 -4.78472 0
M  V30 1487 H 129.393 3.90332 -5.76727 0
M  V30 1488 H 127.02 3.98635 -6.47298 0
M  V30 1489 N 128.595 0.856903 1.32268 0
M  V30 1490 C 129.558 0.308171 2.27119 0
M  V30 1491 C 130.558 -0.533421 1.51695 0
M  V30 1492 O 131.748 -0.344607 1.70757 0
M  V30 1493 C 128.88 -0.563757 3.36206 0
M  V30 1494 H 130.073 1.14535 2.77167 0
M  V30 1495 H 127.626 0.631421 1.42978 0
M  V30 1496 H 128.361 -1.42266 2.91429 0
M  V30 1497 H 128.146 0.0386749 3.92081 0
M  V30 1498 H 129.636 -0.940386 4.06874 0
M  V30 1499 N 130.073 -1.45103 0.615059 0
M  V30 1500 C 131.322 -2.01396 0.110718 0
M  V30 1501 C 131.635 -1.48834 -1.26916 0
M  V30 1502 O 132.841 -1.97152 -1.86664 0
M  V30 1503 C 131.297 -3.59599 0.14723 0
M  V30 1504 C 130.905 -4.21158 1.52743 0
M  V30 1505 C 132.649 -4.23428 -0.30148 0
M  V30 1506 C 130.556 -5.71535 1.51992 0
M  V30 1507 H 129.486 -0.753061 0.0376241 0
M  V30 1508 H 132.137 -1.66494 0.77149 0
M  V30 1509 H 130.519 -3.91724 -0.580339 0
M  V30 1510 H 131.693 -4.00594 2.2773 0
M  V30 1511 H 130.008 -3.69552 1.91886 0
M  V30 1512 H 132.605 -5.33703 -0.326392 0
M  V30 1513 H 132.948 -3.94629 -1.32565 0
M  V30 1514 H 133.481 -3.96047 0.373065 0
M  V30 1515 H 130.22 -6.05044 2.52193 0
M  V30 1516 H 129.74 -5.94268 0.81274 0
M  V30 1517 H 131.419 -6.34873 1.24681 0
M  V30 1518 N 131.551 -0.354651 -1.53558 0
M  V30 1519 C 132.484 0.540273 -2.21712 0
M  V30 1520 C 133.462 1.09161 -1.2051 0
M  V30 1521 O 134.646 1.14979 -1.49372 0
M  V30 1522 C 131.773 1.74435 -2.90328 0
M  V30 1523 C 130.819 1.32146 -4.05512 0
M  V30 1524 S 131.652 0.331924 -5.3447 0
M  V30 1525 C 132.808 1.54258 -6.06593 0
M  V30 1526 H 133.041 -0.0385776 -2.97275 0
M  V30 1527 H 130.574 -0.138736 -1.53775 0
M  V30 1528 H 132.532 2.43507 -3.30476 0
M  V30 1529 H 131.193 2.29444 -2.1451 0
M  V30 1530 H 130.386 2.21952 -4.52497 0
M  V30 1531 H 129.988 0.710091 -3.67197 0
M  V30 1532 H 132.28 2.47534 -6.30661 0
M  V30 1533 H 133.223 1.11431 -6.99277 0
M  V30 1534 H 133.631 1.74367 -5.36895 0
M  V30 1535 N 133.029 1.57378 -0.0835403 0
M  V30 1536 C 134.275 1.95025 0.577664 0
M  V30 1537 C 134.63 0.964049 1.66505 0
M  V30 1538 O 133.923 -0.0118235 1.91596 0
M  V30 1539 C 134.117 3.37063 1.1884 0
M  V30 1540 C 133.946 4.49409 0.16171 0
M  V30 1541 C 132.716 5.04642 -0.257756 0
M  V30 1542 C 134.914 5.10722 -0.605634 0
M  V30 1543 N 132.896 6.00537 -1.27393 0
M  V30 1544 C 134.267 6.02225 -1.47395 0
M  V30 1545 C 136.322 4.93501 -0.660418 0
M  V30 1546 C 135.025 6.78355 -2.39221 0
M  V30 1547 C 137.051 5.70283 -1.56623 0
M  V30 1548 C 136.413 6.61444 -2.4222 0
M  V30 1549 H 132.512 0.760512 0.182058 0
M  V30 1550 H 135.096 1.94013 -0.163419 0
M  V30 1551 H 133.267 3.3879 1.89936 0
M  V30 1552 H 134.999 3.61917 1.81103 0
M  V30 1553 H 131.754 4.73428 0.127702 0
M  V30 1554 H 132.178 6.53184 -1.77987 0
M  V30 1555 H 136.82 4.22798 -0.0128221 0
M  V30 1556 H 134.538 7.48327 -3.05011 0
M  V30 1557 H 138.124 5.58976 -1.61361 0
M  V30 1558 H 137.004 7.1982 -3.11174 0
M  V30 1559 N 134.507 -0.190092 1.56449 0
M  V30 1560 C 135.753 -0.906472 1.82084 0
M  V30 1561 C 136.108 -1.80677 0.661335 0
M  V30 1562 O 135.401 -1.88501 -0.343237 0
M  V30 1563 C 135.595 -1.75382 3.1141 0
M  V30 1564 C 135.424 -0.937053 4.39829 0
M  V30 1565 C 134.194 -0.619507 5.01488 0
M  V30 1566 C 136.392 -0.2874 5.13496 0
M  V30 1567 N 134.374 0.215367 6.13522 0
M  V30 1568 C 135.745 0.409454 6.18646 0
M  V30 1569 C 137.8 -0.203639 4.97483 0
M  V30 1570 C 136.503 1.1821 7.0952 0
M  V30 1571 C 138.529 0.555622 5.88784 0
M  V30 1572 C 137.891 1.24091 6.93384 0
M  V30 1573 H 133.99 -0.310931 0.717528 0
M  V30 1574 H 136.574 -0.174821 1.93914 0
M  V30 1575 H 134.745 -2.45703 3.00806 0
M  V30 1576 H 136.477 -2.41006 3.25112 0
M  V30 1577 H 133.232 -0.945126 4.64074 0
M  V30 1578 H 133.656 0.622562 6.74131 0
M  V30 1579 H 138.298 -0.719099 4.1664 0
M  V30 1580 H 136.016 1.70897 7.89823 0
M  V30 1581 H 139.602 0.621854 5.78467 0
M  V30 1582 H 138.482 1.81901 7.62812 0
M  V30 1583 N 135.985 -1.50799 -0.457987 0
M  V30 1584 C 136.915 -1.73553 -1.5621 0
M  V30 1585 C 137.896 -0.584774 -1.59732 0
M  V30 1586 O 139.081 -0.825314 -1.7579 0
M  V30 1587 C 136.211 -1.84169 -2.94447 0
M  V30 1588 C 135.165 -2.99461 -3.0579 0
M  V30 1589 C 134.491 -2.95235 -4.45803 0
M  V30 1590 C 135.791 -4.39766 -2.81786 0
M  V30 1591 H 137.485 -2.66 -1.37421 0
M  V30 1592 H 135.031 -1.28002 -0.659662 0
M  V30 1593 H 136.984 -1.98672 -3.71628 0
M  V30 1594 H 135.708 -0.883545 -3.14422 0
M  V30 1595 H 134.367 -2.8463 -2.31044 0
M  V30 1596 H 134.015 -1.97239 -4.62715 0
M  V30 1597 H 133.715 -3.72642 -4.54326 0
M  V30 1598 H 135.239 -3.11803 -5.24987 0
M  V30 1599 H 136.653 -4.55054 -3.4871 0
M  V30 1600 H 135.05 -5.18722 -3.0174 0
M  V30 1601 H 136.12 -4.51229 -1.7754 0
M  V30 1602 N 137.463 0.71206 -1.40597 0
M  V30 1603 C 138.709 1.47416 -1.39271 0
M  V30 1604 C 139.042 1.942 0.00388791 0
M  V30 1605 O 138.317 1.68403 0.973179 0
M  V30 1606 C 138.6 2.69774 -2.38525 0
M  V30 1607 C 138.453 2.28861 -3.87224 0
M  V30 1608 C 139.772 3.71939 -2.35264 0
M  V30 1609 H 136.891 0.534713 -0.5072 0
M  V30 1610 H 139.533 0.812375 -1.71757 0
M  V30 1611 H 137.683 3.26238 -2.10953 0
M  V30 1612 H 139.355 1.77852 -4.25636 0
M  V30 1613 H 137.598 1.60824 -4.02887 0
M  V30 1614 H 138.269 3.16584 -4.52193 0
M  V30 1615 H 140.745 3.25113 -2.59694 0
M  V30 1616 H 139.621 4.55186 -3.06753 0
M  V30 1617 H 139.882 4.20484 -1.36549 0
M  V30 1618 N 138.941 1.26152 0.944643 0
M  V30 1619 C 139.904 1.07474 2.0244 0
M  V30 1620 C 140.904 0.0242064 1.60782 0
M  V30 1621 O 142.094 0.267302 1.72137 0
M  V30 1622 C 139.226 0.633956 3.34953 0
M  V30 1623 H 140.419 2.03336 2.20442 0
M  V30 1624 H 137.972 1.087 1.12312 0
M  V30 1625 H 138.707 -0.326811 3.22649 0
M  V30 1626 H 138.492 1.39247 3.66542 0
M  V30 1627 H 139.982 0.52501 4.14287 0
M  V30 1628 N 140.419 -1.14872 1.07899 0
M  V30 1629 C 141.666 -1.85789 0.805532 0
M  V30 1630 C 141.994 -1.82649 -0.668561 0
M  V30 1631 O 141.249 -1.24858 -1.50695 0
M  V30 1632 C 141.548 -3.34223 1.26609 0
M  V30 1633 C 141.214 -3.57555 2.74709 0
M  V30 1634 C 139.876 -3.63631 3.1516 0
M  V30 1635 C 142.228 -3.66803 3.70277 0
M  V30 1636 C 139.556 -3.76473 4.49983 0
M  V30 1637 C 141.908 -3.8117 5.04869 0
M  V30 1638 C 140.572 -3.85494 5.44932 0
M  V30 1639 H 139.842 -0.679849 0.294765 0
M  V30 1640 H 142.489 -1.3572 1.35101 0
M  V30 1641 H 140.794 -3.86536 0.640103 0
M  V30 1642 H 142.491 -3.87511 1.03132 0
M  V30 1643 H 139.081 -3.5347 2.42398 0
M  V30 1644 H 143.265 -3.61404 3.40149 0
M  V30 1645 H 138.521 -3.7808 4.80484 0
M  V30 1646 H 142.695 -3.87268 5.78789 0
M  V30 1647 H 140.322 -3.95197 6.49403 0
M  V30 1648 N 141.898 -0.863906 -1.31812 0
M  V30 1649 C 142.861 -0.320212 -2.26952 0
M  V30 1650 C 143.861 0.525369 -1.51975 0
M  V30 1651 O 145.051 0.335547 -1.70938 0
M  V30 1652 C 142.183 0.545919 -3.365 0
M  V30 1653 H 143.376 -1.16004 -2.76556 0
M  V30 1654 H 140.929 -0.638995 -1.42641 0
M  V30 1655 H 141.664 1.40718 -2.92179 0
M  V30 1656 H 141.449 -0.0594674 -3.92055 0
M  V30 1657 H 142.939 0.918796 -4.07367 0
M  V30 1658 N 143.376 1.44774 -0.622745 0
M  V30 1659 C 144.326 2.2774 0.108889 0
M  V30 1660 C 145.31 1.38189 0.824175 0
M  V30 1661 O 146.502 1.62063 0.711664 0
M  V30 1662 C 143.631 3.25353 1.09546 0
M  V30 1663 C 142.717 4.22392 0.380232 0
M  V30 1664 N 143.108 5.02388 -0.586535 0
M  V30 1665 C 141.406 4.41588 0.625792 0
M  V30 1666 C 142.107 5.72894 -1.00834 0
M  V30 1667 N 141.083 5.42479 -0.348878 0
M  V30 1668 H 144.885 2.86993 -0.63341 0
M  V30 1669 H 142.399 1.5611 -0.447589 0
M  V30 1670 H 144.396 3.83538 1.63414 0
M  V30 1671 H 143.056 2.6766 1.83815 0
M  V30 1672 H 144.067 5.0885 -0.963975 0
M  V30 1673 H 140.744 3.95003 1.352 0
M  V30 1674 H 142.134 6.47158 -1.80656 0
M  V30 1675 N 144.854 0.36279 1.53368 0
M  V30 1676 C 146.102 -0.227326 2.00817 0
M  V30 1677 C 146.423 -1.49511 1.25186 0
M  V30 1678 O 145.693 -1.92482 0.364348 0
M  V30 1679 H 144.273 -0.0869923 0.741917 0
M  V30 1680 H 146.935 0.488381 1.88682 0
M  V30 1681 H 146.031 -0.456273 3.08747 0
M  V30 1682 N 146.332 -1.57332 0.0918853 0
M  V30 1683 C 147.609 -1.85691 -0.614668 0
M  V30 1684 C 147.989 -0.988146 -1.86545 0
M  V30 1685 O 147.337 -0.0597055 -2.28422 0
M  V30 1686 C 147.547 -3.36294 -0.933126 0
M  V30 1687 C 148.895 -4.04275 -1.29796 0
M  V30 1688 O 149.919 -3.41157 -1.02424 0
M  V30 1689 O 148.778 -5.1564 -1.81047 0
M  V30 1690 H 145.872 -0.767802 -0.307261 0
M  V30 1691 H 148.418 -1.69244 0.12434 0
M  V30 1692 H 147.19 -3.91273 -0.0456404 0
M  V30 1693 H 146.813 -3.58076 -1.72822 0
M  V30 1694 N 147.81 0.181792 -1.56548 0
M  V30 1695 C 149.059 0.898348 -1.8059 0
M  V30 1696 C 149.372 1.83862 -0.667379 0
M  V30 1697 O 150.578 2.59678 -0.792446 0
M  V30 1698 C 149.034 1.64791 -3.19956 0
M  V30 1699 C 148.642 0.751789 -4.41647 0
M  V30 1700 C 150.386 2.35331 -3.53298 0
M  V30 1701 C 148.293 1.50098 -5.72035 0
M  V30 1702 H 147.223 0.339194 -0.673397 0
M  V30 1703 H 149.874 0.151413 -1.82874 0
M  V30 1704 H 148.256 2.43921 -3.11959 0
M  V30 1705 H 149.43 -0.0018076 -4.608 0
M  V30 1706 H 147.745 0.156562 -4.16106 0
M  V30 1707 H 150.342 2.91958 -4.47956 0
M  V30 1708 H 150.685 3.10164 -2.77676 0
M  V30 1709 H 151.218 1.63154 -3.62803 0
M  V30 1710 H 147.957 0.795175 -6.50659 0
M  V30 1711 H 147.477 2.22817 -5.56878 0
M  V30 1712 H 149.156 2.05125 -6.13622 0
M  V30 1713 N 149.288 1.51039 0.449983 0
M  V30 1714 C 150.518 1.66627 1.22143 0
M  V30 1715 C 150.926 0.357776 1.85786 0
M  V30 1716 O 150.269 -0.672424 1.70951 0
M  V30 1717 C 150.331 2.71562 2.35573 0
M  V30 1718 C 149.995 4.14526 1.92399 0
M  V30 1719 C 150.992 4.99717 1.43453 0
M  V30 1720 C 148.677 4.60559 2.00475 0
M  V30 1721 C 150.671 6.28998 1.03155 0
M  V30 1722 C 148.358 5.8984 1.59788 0
M  V30 1723 C 149.356 6.73886 1.11208 0
M  V30 1724 O 149.044 8.0075 0.710935 0
M  V30 1725 H 148.776 0.562635 0.374724 0
M  V30 1726 H 151.33 1.98146 0.541036 0
M  V30 1727 H 149.56 2.3533 3.06849 0
M  V30 1728 H 151.249 2.76156 2.97478 0
M  V30 1729 H 152.015 4.65361 1.36618 0
M  V30 1730 H 147.894 3.95273 2.37235 0
M  V30 1731 H 151.438 6.9455 0.651663 0
M  V30 1732 H 147.335 6.23713 1.66289 0
M  V30 1733 H 148.103 8.142 0.837913 0
M  V30 1734 N 150.766 -0.704594 1.40972 0
M  V30 1735 C 151.729 -1.80035 1.41845 0
M  V30 1736 C 152.729 -1.57774 0.310474 0
M  V30 1737 O 153.919 -1.64613 0.56992 0
M  V30 1738 C 151.051 -3.18284 1.22098 0
M  V30 1739 H 152.244 -1.80658 2.3938 0
M  V30 1740 H 149.797 -0.911329 1.26982 0
M  V30 1741 H 150.532 -3.23306 0.253672 0
M  V30 1742 H 150.317 -3.35843 2.02366 0
M  V30 1743 H 151.807 -3.98289 1.25522 0
M  V30 1744 N 152.244 -1.26651 -0.937939 0
M  V30 1745 C 153.474 -1.15006 -1.71631 0
M  V30 1746 C 153.882 0.297026 -1.86854 0
M  V30 1747 O 153.225 1.21493 -1.37786 0
M  V30 1748 C 153.287 -1.74984 -3.14039 0
M  V30 1749 C 152.951 -3.24103 -3.2219 0
M  V30 1750 C 153.948 -4.20877 -3.05219 0
M  V30 1751 C 151.633 -3.64625 -3.45476 0
M  V30 1752 C 153.627 -5.56151 -3.11408 0
M  V30 1753 C 151.314 -5.00032 -3.513 0
M  V30 1754 C 152.312 -5.95604 -3.34282 0
M  V30 1755 O 152 -7.28545 -3.3982 0
M  V30 1756 H 151.732 -0.401183 -0.544085 0
M  V30 1757 H 154.286 -1.67832 -1.18413 0
M  V30 1758 H 152.516 -1.16624 -3.68695 0
M  V30 1759 H 154.205 -1.58199 -3.73802 0
M  V30 1760 H 154.971 -3.90908 -2.87081 0
M  V30 1761 H 150.85 -2.90718 -3.57777 0
M  V30 1762 H 154.394 -6.30727 -2.98043 0
M  V30 1763 H 150.291 -5.29659 -3.68959 0
M  V30 1764 H 151.059 -7.3686 -3.56343 0
M  V30 1765 N 153.722 1.14298 -1.08507 0
M  V30 1766 C 154.655 2.18447 -0.660004 0
M  V30 1767 C 155.633 1.59242 0.328749 0
M  V30 1768 O 156.817 1.87062 0.232367 0
M  V30 1769 C 153.944 3.38688 0.0290807 0
M  V30 1770 C 152.99 4.1646 -0.919982 0
M  V30 1771 S 153.823 4.77334 -2.42718 0
M  V30 1772 C 154.979 6.00931 -1.75024 0
M  V30 1773 H 155.212 2.54166 -1.54231 0
M  V30 1774 H 152.745 1.25446 -0.900149 0
M  V30 1775 H 154.703 4.08342 0.420378 0
M  V30 1776 H 153.364 3.01289 0.887895 0
M  V30 1777 H 152.557 5.02529 -0.384751 0
M  V30 1778 H 152.159 3.52414 -1.25223 0
M  V30 1779 H 154.451 6.69017 -1.06877 0
M  V30 1780 H 155.394 6.59044 -2.58971 0
M  V30 1781 H 155.802 5.51089 -1.22317 0
M  V30 1782 N 155.201 0.870884 1.31352 0
M  V30 1783 C 156.111 0.330783 2.32256 0
M  V30 1784 C 157.127 -0.559767 1.6475 0
M  V30 1785 O 158.303 -0.456263 1.96164 0
M  V30 1786 C 155.368 -0.458137 3.4366 0
M  V30 1787 C 154.429 0.460482 4.26823 0
M  V30 1788 C 153.662 -0.290881 5.32907 0
M  V30 1789 O 153.885 -1.51885 5.49806 0
M  V30 1790 O 152.819 0.351732 6.00871 0
M  V30 1791 H 156.645 1.16718 2.80376 0
M  V30 1792 H 154.23 0.634285 1.35267 0
M  V30 1793 H 156.112 -0.905343 4.1156 0
M  V30 1794 H 154.787 -1.27106 2.97701 0
M  V30 1795 H 153.694 0.956207 3.61673 0
M  V30 1796 H 155.027 1.23903 4.7635 0
M  V30 1797 N 156.679 -1.44442 0.630414 0
M  V30 1798 C 157.626 -2.30678 -0.0749355 0
M  V30 1799 C 158.596 -1.4344 -0.837502 0
M  V30 1800 O 159.781 -1.72343 -0.818684 0
M  V30 1801 C 156.921 -3.28706 -1.05103 0
M  V30 1802 C 156.034 -4.31046 -0.286954 0
M  V30 1803 C 155.169 -5.16167 -1.2548 0
M  V30 1804 C 154.208 -6.10216 -0.479843 0
M  V30 1805 N 153.345 -6.88039 -1.39811 0
M  V30 1806 H 158.185 -2.90454 0.666386 0
M  V30 1807 H 155.722 -1.43107 0.340404 0
M  V30 1808 H 157.68 -3.84027 -1.63031 0
M  V30 1809 H 156.31 -2.70632 -1.75949 0
M  V30 1810 H 155.362 -3.78203 0.408243 0
M  V30 1811 H 156.674 -4.97794 0.316657 0
M  V30 1812 H 155.828 -5.76002 -1.90544 0
M  V30 1813 H 154.567 -4.49491 -1.89233 0
M  V30 1814 H 153.572 -5.49491 0.184295 0
M  V30 1815 H 154.797 -6.78928 0.152965 0
M  V30 1816 H 152.743 -6.24032 -2.02287 0
M  V30 1817 H 152.66 -7.51223 -0.848508 0
M  V30 1818 H 153.928 -7.52397 -2.03762 0
M  V30 1819 N 158.157 -0.370918 -1.53173 0
M  V30 1820 C 159.382 0.220293 -2.06227 0
M  V30 1821 C 159.807 1.41243 -1.24225 0
M  V30 1822 O 159.165 1.79387 -0.262645 0
M  V30 1823 C 159.213 0.586663 -3.55796 0
M  V30 1824 O 158.317 1.68317 -3.76488 0
M  V30 1825 H 157.658 0.0308099 -0.663285 0
M  V30 1826 H 160.188 -0.533068 -1.97534 0
M  V30 1827 H 160.198 0.85617 -3.98916 0
M  V30 1828 H 158.873 -0.285013 -4.14922 0
M  V30 1829 H 157.45 1.40881 -3.45264 0
M  V30 1830 N 159.635 1.57281 -0.100228 0
M  V30 1831 C 160.883 1.94153 0.561157 0
M  V30 1832 C 161.204 0.983157 1.68401 0
M  V30 1833 O 160.474 0.0361132 1.95867 0
M  V30 1834 H 159.054 0.716791 0.210283 0
M  V30 1835 H 161.716 1.94202 -0.164765 0
M  V30 1836 H 160.812 2.96709 0.968008 0
M  V30 1837 N 161.113 -0.173488 1.56642 0
M  V30 1838 C 162.046 -1.24353 1.91342 0
M  V30 1839 C 163.024 -1.4289 0.775965 0
M  V30 1840 O 164.208 -1.57932 1.02907 0
M  V30 1841 C 161.335 -2.60683 2.16245 0
M  V30 1842 C 160.381 -2.58894 3.38934 0
M  V30 1843 S 161.214 -2.0819 4.93373 0
M  V30 1844 C 162.37 -3.46302 5.21369 0
M  V30 1845 H 162.603 -0.947345 2.81803 0
M  V30 1846 H 160.136 -0.377958 1.49703 0
M  V30 1847 H 162.094 -3.39149 2.31275 0
M  V30 1848 H 160.755 -2.87502 1.26496 0
M  V30 1849 H 159.948 -3.59188 3.53553 0
M  V30 1850 H 159.55 -1.88522 3.2301 0
M  V30 1851 H 161.842 -4.42287 5.13214 0
M  V30 1852 H 162.785 -3.3656 6.23003 0
M  V30 1853 H 163.193 -3.42214 4.48943 0
M  V30 1854 N 162.591 -1.51276 -0.441967 0
M  V30 1855 C 163.501 -1.75092 -1.56141 0
M  V30 1856 C 164.517 -0.634963 -1.62001 0
M  V30 1857 O 165.693 -0.916686 -1.79329 0
M  V30 1858 C 162.758 -1.86666 -2.92158 0
M  V30 1859 C 161.819 -3.10506 -2.96453 0
M  V30 1860 C 161.052 -3.21519 -4.25982 0
M  V30 1861 O 161.275 -2.38586 -5.18105 0
M  V30 1862 O 160.209 -4.14465 -4.36466 0
M  V30 1863 H 164.035 -2.70044 -1.38961 0
M  V30 1864 H 161.62 -1.35722 -0.624499 0
M  V30 1865 H 163.502 -1.96292 -3.72891 0
M  V30 1866 H 162.177 -0.949014 -3.09476 0
M  V30 1867 H 161.084 -3.06363 -2.14692 0
M  V30 1868 H 162.417 -4.01945 -2.84079 0
M  V30 1869 N 164.069 0.697108 -1.41344 0
M  V30 1870 C 165.016 1.81106 -1.43071 0
M  V30 1871 C 165.986 1.63632 -0.285275 0
M  V30 1872 O 167.171 1.84504 -0.486091 0
M  V30 1873 C 164.311 3.18975 -1.31715 0
M  V30 1874 C 163.424 3.47892 -2.56115 0
M  V30 1875 C 162.559 4.75367 -2.37064 0
M  V30 1876 C 161.598 4.97247 -3.56948 0
M  V30 1877 N 160.735 6.15947 -3.36977 0
M  V30 1878 H 165.575 1.78965 -2.38276 0
M  V30 1879 H 163.112 0.873975 -1.18322 0
M  V30 1880 H 165.07 3.98615 -1.23133 0
M  V30 1881 H 163.7 3.20297 -0.401183 0
M  V30 1882 H 162.752 2.62669 -2.75153 0
M  V30 1883 H 164.064 3.59962 -3.45295 0
M  V30 1884 H 163.218 5.63059 -2.25941 0
M  V30 1885 H 161.957 4.65541 -1.45338 0
M  V30 1886 H 160.962 4.08004 -3.68527 0
M  V30 1887 H 162.187 5.08934 -4.49626 0
M  V30 1888 H 160.133 6.07336 -2.47949 0
M  V30 1889 H 160.05 6.28777 -4.19732 0
M  V30 1890 H 161.318 7.06377 -3.29623 0
M  V30 1891 N 165.547 1.27147 0.931209 0
M  V30 1892 C 166.772 1.16191 1.71797 0
M  V30 1893 C 167.197 -0.278004 1.86034 0
M  V30 1894 O 166.555 -1.20137 1.35782 0
M  V30 1895 C 166.603 1.84673 3.09723 0
M  V30 1896 O 165.707 1.14231 3.96264 0
M  V30 1897 H 165.048 0.404303 0.526721 0
M  V30 1898 H 167.578 1.68152 1.1656 0
M  V30 1899 H 167.588 1.91893 3.60057 0
M  V30 1900 H 166.263 2.89421 2.98677 0
M  V30 1901 H 164.84 1.15056 3.54706 0
M  V30 1902 N 167.025 -1.13721 1.09112 0
M  V30 1903 C 168.273 -1.84559 0.823562 0
M  V30 1904 C 168.594 -1.83754 -0.652658 0
M  V30 1905 O 167.864 -1.29102 -1.47342 0
M  V30 1906 H 166.444 -0.683376 0.301673 0
M  V30 1907 H 169.106 -1.37771 1.37859 0
M  V30 1908 H 168.202 -2.8917 1.17419 0
M  V30 1909 N 168.503 -0.877838 -1.30888 0
M  V30 1910 C 169.433 -0.35534 -2.3078 0
M  V30 1911 C 170.414 0.557994 -1.60687 0
M  V30 1912 O 171.599 0.473355 -1.88343 0
M  V30 1913 C 168.729 0.437221 -3.44537 0
M  V30 1914 C 167.683 -0.383715 -4.26276 0
M  V30 1915 C 167.009 0.535014 -5.32017 0
M  V30 1916 C 168.309 -1.62201 -4.96476 0
M  V30 1917 H 170.003 -1.19007 -2.74732 0
M  V30 1918 H 167.549 -0.573698 -1.32078 0
M  V30 1919 H 169.502 0.813334 -4.13477 0
M  V30 1920 H 168.226 1.30553 -2.99372 0
M  V30 1921 H 166.885 -0.741874 -3.59015 0
M  V30 1922 H 166.533 1.40083 -4.831 0
M  V30 1923 H 166.233 -0.0104211 -5.87599 0
M  V30 1924 H 167.757 0.907799 -6.03814 0
M  V30 1925 H 169.171 -1.31689 -5.5797 0
M  V30 1926 H 167.568 -2.10711 -5.61891 0
M  V30 1927 H 168.638 -2.37044 -4.23011 0
M  V30 1928 N 169.982 1.44106 -0.638065 0
M  V30 1929 C 170.892 2.34513 0.0637334 0
M  V30 1930 C 171.908 1.53018 0.828346 0
M  V30 1931 O 173.084 1.85723 0.779036 0
M  V30 1932 C 170.149 3.31095 1.02844 0
M  V30 1933 C 169.21 4.28497 0.26244 0
M  V30 1934 C 168.443 5.20465 1.1812 0
M  V30 1935 O 168.666 5.16514 2.42011 0
M  V30 1936 O 167.6 5.98251 0.661774 0
M  V30 1937 H 171.426 2.95989 -0.68003 0
M  V30 1938 H 169.011 1.43994 -0.398252 0
M  V30 1939 H 170.893 3.90526 1.58327 0
M  V30 1940 H 169.568 2.72144 1.7527 0
M  V30 1941 H 168.475 3.72592 -0.335602 0
M  V30 1942 H 169.808 4.90388 -0.421936 0
M  V30 1943 N 171.46 0.379036 1.52974 0
M  V30 1944 C 172.685 -0.209353 2.06341 0
M  V30 1945 C 173.11 -1.40583 1.24972 0
M  V30 1946 O 172.468 -1.79246 0.272155 0
M  V30 1947 C 172.516 -0.567786 3.56102 0
M  V30 1948 O 171.62 -1.66318 3.77375 0
M  V30 1949 H 170.961 -0.0272919 0.663439 0
M  V30 1950 H 173.491 0.543536 1.97248 0
M  V30 1951 H 173.501 -0.835003 3.99364 0
M  V30 1952 H 172.176 0.307013 4.14765 0
M  V30 1953 H 170.753 -1.39048 3.46006 0
M  V30 1954 N 172.938 -1.57226 0.108567 0
M  V30 1955 C 174.166 -1.99179 -0.559954 0
M  V30 1956 C 174.581 -0.988022 -1.60884 0
M  V30 1957 O 173.938 0.0205512 -1.82488 0
M  V30 1958 C 173.989 -3.41159 -1.19552 0
M  V30 1959 O 173.71 -4.37694 -0.188577 0
M  V30 1960 C 175.211 -3.98188 -1.94837 0
M  V30 1961 H 172.431 -0.654228 -0.149088 0
M  V30 1962 H 174.975 -2.03598 0.19183 0
M  V30 1963 H 173.13 -3.37711 -1.89815 0
M  V30 1964 H 173.544 -5.20469 -0.649014 0
M  V30 1965 H 175.018 -4.99644 -2.34648 0
M  V30 1966 H 175.495 -3.3675 -2.81951 0
M  V30 1967 H 176.101 -4.0515 -1.2936 0
M  V30 1968 N 174.416 0.165178 -1.56732 0
M  V30 1969 C 175.662 0.882112 -1.82611 0
M  V30 1970 C 175.995 1.81628 -0.687378 0
M  V30 1971 O 175.27 1.92009 0.310267 0
M  V30 1972 C 175.553 1.67245 -3.18906 0
M  V30 1973 C 175.406 0.760987 -4.43316 0
M  V30 1974 C 176.725 2.63884 -3.52212 0
M  V30 1975 H 173.844 0.319242 -0.664269 0
M  V30 1976 H 176.486 0.148052 -1.89422 0
M  V30 1977 H 174.636 2.29824 -3.1323 0
M  V30 1978 H 176.308 0.147596 -4.61064 0
M  V30 1979 H 174.551 0.0694102 -4.33744 0
M  V30 1980 H 175.222 1.34962 -5.35247 0
M  V30 1981 H 177.698 2.11429 -3.58381 0
M  V30 1982 H 176.574 3.16245 -4.48643 0
M  V30 1983 H 176.835 3.44377 -2.77231 0
M  V30 1984 N 175.894 1.51508 0.433938 0
M  V30 1985 C 177.134 1.66006 1.19253 0
M  V30 1986 C 177.498 0.369868 1.88404 0
M  V30 1987 O 178.699 0.39066 2.65946 0
M  V30 1988 C 176.97 2.83229 2.17981 0
M  V30 1989 S 178.529 3.18075 3.02281 0
M  V30 1990 H 175.347 0.584821 0.404358 0
M  V30 1991 H 177.949 1.89425 0.48357 0
M  V30 1992 H 176.653 3.75407 1.65824 0
M  V30 1993 H 176.184 2.6201 2.93453 0
M  V30 1994 H 178.199 2.64772 4.19655 0
M  V30 1995 N 177.372 -0.689602 1.41712 0
M  V30 1996 C 178.618 -1.45181 1.41599 0
M  V30 1997 C 178.951 -1.94181 0.0270081 0
M  V30 1998 O 178.226 -1.6993 -0.946265 0
M  V30 1999 C 178.509 -2.65945 2.42787 0
M  V30 2000 C 178.362 -2.22672 3.90816 0
M  V30 2001 C 179.681 -3.68149 2.41151 0
M  V30 2002 H 176.8 -0.526576 0.515642 0
M  V30 2003 H 179.442 -0.784947 1.73028 0
M  V30 2004 H 177.592 -3.2284 2.16116 0
M  V30 2005 H 179.264 -1.71058 4.28412 0
M  V30 2006 H 177.507 -1.54394 4.05395 0
M  V30 2007 H 178.178 -3.0935 4.57172 0
M  V30 2008 H 180.654 -3.2094 2.64834 0
M  V30 2009 H 179.53 -4.50248 3.13955 0
M  V30 2010 H 179.791 -4.18259 1.43221 0
M  V30 2011 N 178.85 -1.27639 -0.924453 0
M  V30 2012 C 180.078 -1.16989 -1.70649 0
M  V30 2013 C 180.493 0.272869 -1.86818 0
M  V30 2014 O 179.85 1.18549 -1.38753 0
M  V30 2015 C 179.901 -1.85229 -3.10439 0
M  V30 2016 O 179.622 -3.23868 -2.95028 0
M  V30 2017 C 181.123 -1.80746 -4.04779 0
M  V30 2018 H 178.343 -0.406595 -0.53378 0
M  V30 2019 H 180.887 -1.68569 -1.15778 0
M  V30 2020 H 179.042 -1.37545 -3.6216 0
M  V30 2021 H 179.456 -3.57889 -3.83426 0
M  V30 2022 H 180.93 -2.33101 -5.00368 0
M  V30 2023 H 181.407 -0.777499 -4.32263 0
M  V30 2024 H 182.013 -2.28059 -3.58984 0
M  V30 2025 N 180.328 1.1314 -1.09713 0
M  V30 2026 C 181.276 2.20717 -0.733934 0
M  V30 2027 C 182.27 1.6729 0.266506 0
M  V30 2028 O 183.476 1.79547 0.127656 0
M  V30 2029 H 179.851 0.719292 -0.21937 0
M  V30 2030 H 181.822 2.48611 -1.6503 0
M  V30 2031 C 180.571 3.47265 -0.173849 0
M  V30 2032 H 179.894 3.88716 -0.934873 0
M  V30 2033 H 181.334 4.23979 0.0423126 0
M  V30 2034 C 179.793 3.18724 1.09164 0
M  V30 2035 O 180.323 3.37762 2.17439 0
M  V30 2036 N 178.529 2.72583 1.00732 0
M  V30 2037 H 178.076 2.57291 0.126121 0
M  V30 2038 H 178.034 2.53862 1.85476 0
M  V30 2039 N 181.806 0.884767 1.30421 0
M  V30 2040 C 183.052 0.503851 1.96441 0
M  V30 2041 C 183.385 -0.944518 1.69684 0
M  V30 2042 O 182.66 -1.66737 1.00145 0
M  V30 2043 C 182.943 0.779085 3.51571 0
M  V30 2044 C 182.796 2.27807 3.87846 0
M  V30 2045 C 184.115 0.255452 4.39358 0
M  V30 2046 H 181.234 0.184533 0.713524 0
M  V30 2047 H 183.876 1.10872 1.54297 0
M  V30 2048 H 182.026 0.264274 3.876 0
M  V30 2049 H 183.698 2.86127 3.61841 0
M  V30 2050 H 181.941 2.74479 3.35922 0
M  V30 2051 H 182.612 2.42125 4.96064 0
M  V30 2052 H 185.088 0.696079 4.10236 0
M  V30 2053 H 183.964 0.477361 5.4682 0
M  V30 2054 H 184.225 -0.843293 4.33983 0
M  V30 2055 N 183.284 -1.43765 0.645699 0
M  V30 2056 C 184.7 -1.56509 0.312591 0
M  V30 2057 C 184.9 -1.6307 -1.18365 0
M  V30 2058 O 183.956 -1.58167 -1.96824 0
M  V30 2059 C 185.269 -2.82968 1.01733 0
M  V30 2060 C 186.817 -2.96701 0.996865 0
M  V30 2061 C 187.292 -4.25982 1.68236 0
M  V30 2062 N 188.783 -4.32829 1.64964 0
M  V30 2063 C 189.518 -5.31613 2.14885 0
M  V30 2064 N 189.014 -6.36718 2.73061 0
M  V30 2065 N 190.807 -5.23217 2.05428 0
M  V30 2066 H 182.958 -1.3775 1.61675 0
M  V30 2067 H 185.221 -0.661067 0.679481 0
M  V30 2068 H 184.927 -2.84156 2.0724 0
M  V30 2069 H 184.801 -3.72957 0.564177 0
M  V30 2070 H 187.188 -2.95058 -0.0497719 0
M  V30 2071 H 187.269 -2.08022 1.48865 0
M  V30 2072 H 186.913 -4.28386 2.72852 0
M  V30 2073 H 186.843 -5.13545 1.16529 0
M  V30 2074 H 189.334 -3.57493 1.22503 0
M  V30 2075 H 189.647 -7.08401 3.08848 0
M  V30 2076 H 187.992 -6.37362 2.77118 0
M  V30 2077 H 191.183 -4.40019 1.59689 0
M  V30 2078 H 191.356 -6.00045 2.44643 0
M  V30 2079 N 184.763 -0.387143 -1.52771 0
M  V30 2080 C 185.988 0.198407 -2.06449 0
M  V30 2081 C 186.413 1.39918 -1.25716 0
M  V30 2082 O 185.771 1.79099 -0.281657 0
M  V30 2083 C 185.819 0.548893 -3.56398 0
M  V30 2084 O 184.923 1.64315 -3.78252 0
M  V30 2085 H 184.264 0.0237731 -0.663574 0
M  V30 2086 H 186.794 -0.553989 -1.96957 0
M  V30 2087 H 186.804 0.813812 -3.99801 0
M  V30 2088 H 185.479 -0.329005 -4.14597 0
M  V30 2089 H 184.056 1.37211 -3.46738 0
M  V30 2090 N 186.241 1.57166 -0.116904 0
M  V30 2091 C 187.488 1.95123 0.541603 0
M  V30 2092 C 187.816 1.00006 1.6682 0
M  V30 2093 O 187.071 0.0235658 1.95686 0
M  V30 2094 C 187.37 3.39508 1.11664 0
M  V30 2095 C 187.036 4.50762 0.111606 0
M  V30 2096 C 185.698 4.80918 -0.164758 0
M  V30 2097 C 188.05 5.18036 -0.573438 0
M  V30 2098 C 185.378 5.75666 -1.13249 0
M  V30 2099 C 187.73 6.13824 -1.52978 0
M  V30 2100 C 186.394 6.42374 -1.81415 0
M  V30 2101 H 185.664 0.714005 0.198187 0
M  V30 2102 H 188.311 1.9048 -0.197365 0
M  V30 2103 H 186.616 3.40835 1.93232 0
M  V30 2104 H 188.313 3.66189 1.63422 0
M  V30 2105 H 184.903 4.27272 0.337192 0
M  V30 2106 H 189.087 4.94896 -0.373092 0
M  V30 2107 H 184.343 5.96092 -1.35958 0
M  V30 2108 H 188.517 6.65039 -2.06629 0
M  V30 2109 H 186.144 7.15599 -2.56557 0
M  V30 2110 N 187.719 -0.156864 1.56817 0
M  V30 2111 C 188.947 -0.886316 1.86955 0
M  V30 2112 C 189.362 -1.75185 0.703975 0
M  V30 2113 O 188.719 -1.79555 -0.326552 0
M  V30 2114 C 188.77 -1.75117 3.16253 0
M  V30 2115 O 188.491 -0.920537 4.2832 0
M  V30 2116 C 189.992 -2.58905 3.59837 0
M  V30 2117 H 187.212 -0.25678 0.619923 0
M  V30 2118 H 189.756 -0.152615 2.0393 0
M  V30 2119 H 187.911 -2.43805 3.01062 0
M  V30 2120 H 188.325 -1.51337 5.02192 0
M  V30 2121 H 189.799 -3.1518 4.53172 0
M  V30 2122 H 190.276 -3.34472 2.84649 0
M  V30 2123 H 190.882 -1.95526 3.7769 0
M  V30 2124 N 189.197 -1.51736 -0.425897 0
M  V30 2125 C 190.422 -1.69082 -1.20108 0
M  V30 2126 C 190.847 -0.392398 -1.83962 0
M  V30 2127 O 190.205 0.64858 -1.69302 0
M  V30 2128 C 190.253 -2.81604 -2.25237 0
M  V30 2129 O 189.357 -2.46004 -3.30992 0
M  V30 2130 H 188.698 -0.563408 -0.35138 0
M  V30 2131 H 191.228 -1.98358 -0.501512 0
M  V30 2132 H 191.238 -3.06025 -2.69838 0
M  V30 2133 H 189.913 -3.75817 -1.78142 0
M  V30 2134 H 188.49 -2.32195 -2.91787 0
M  V30 2135 N 190.675 0.682077 -1.42076 0
M  V30 2136 C 191.638 1.77756 -1.44691 0
M  V30 2137 C 192.638 1.5726 -0.335535 0
M  V30 2138 O 193.828 1.63686 -0.596037 0
M  V30 2139 C 190.96 3.16301 -1.27146 0
M  V30 2140 H 192.153 1.76826 -2.42224 0
M  V30 2141 H 189.706 0.891012 -1.28416 0
M  V30 2142 H 190.441 3.22862 -0.305075 0
M  V30 2143 H 190.226 3.32581 -2.07683 0
M  V30 2144 H 191.716 3.96241 -1.31843 0
M  V30 2145 N 192.153 1.28127 0.917671 0
M  V30 2146 C 193.4 1.15052 1.66641 0
M  V30 2147 C 193.728 -0.301677 1.92146 0
M  V30 2148 O 192.983 -1.23622 1.51711 0
M  V30 2149 C 193.282 1.89018 3.03327 0
M  V30 2150 C 192.948 3.38832 2.97496 0
M  V30 2151 C 191.61 3.79693 2.95613 0
M  V30 2152 C 193.962 4.34378 2.88036 0
M  V30 2153 C 191.29 5.14447 2.82066 0
M  V30 2154 C 193.642 5.69201 2.7603 0
M  V30 2155 C 192.306 6.09343 2.72502 0
M  V30 2156 H 191.576 0.421006 0.609783 0
M  V30 2157 H 194.223 1.58855 1.06945 0
M  V30 2158 H 192.528 1.37752 3.66785 0
M  V30 2159 H 194.225 1.76321 3.60156 0
M  V30 2160 H 190.815 3.06342 2.99754 0
M  V30 2161 H 194.999 4.03775 2.88581 0
M  V30 2162 H 190.255 5.44681 2.77728 0
M  V30 2163 H 194.429 6.42901 2.67678 0
M  V30 2164 H 192.056 7.13712 2.61762 0
M  V30 2165 N 193.631 -1.12557 1.10312 0
M  V30 2166 C 194.561 -2.20341 0.772798 0
M  V30 2167 C 195.542 -1.68198 -0.25365 0
M  V30 2168 O 196.727 -1.93831 -0.119699 0
M  V30 2169 C 193.857 -3.46709 0.202443 0
M  V30 2170 C 192.811 -4.11996 1.15943 0
M  V30 2171 C 192.137 -5.328 0.450345 0
M  V30 2172 C 193.437 -4.5828 2.50552 0
M  V30 2173 H 195.131 -2.48229 1.674 0
M  V30 2174 H 192.677 -1.19308 0.806326 0
M  V30 2175 H 194.63 -4.2138 -0.0407752 0
M  V30 2176 H 193.354 -3.18245 -0.734001 0
M  V30 2177 H 192.013 -3.39305 1.38808 0
M  V30 2178 H 191.661 -5.00602 -0.490531 0
M  V30 2179 H 191.361 -5.7743 1.08851 0
M  V30 2180 H 192.885 -6.10219 0.215642 0
M  V30 2181 H 194.299 -5.2433 2.31843 0
M  V30 2182 H 192.696 -5.13683 3.10242 0
M  V30 2183 H 193.766 -3.72329 3.10643 0
M  V30 2184 N 195.109 -0.891671 -1.2995 0
M  V30 2185 C 196.356 -0.513501 -1.95881 0
M  V30 2186 C 196.684 0.938655 -1.70351 0
M  V30 2187 O 195.939 1.67936 -1.00478 0
M  V30 2188 C 196.238 -0.742868 -3.49594 0
M  V30 2189 C 195.904 -2.17114 -3.95186 0
M  V30 2190 C 194.566 -2.56169 -4.07346 0
M  V30 2191 C 196.918 -3.10162 -4.18866 0
M  V30 2192 C 194.246 -3.87469 -4.4055 0
M  V30 2193 C 196.598 -4.41001 -4.53542 0
M  V30 2194 C 195.262 -4.79941 -4.63911 0
M  V30 2195 H 194.532 -0.187903 -0.71678 0
M  V30 2196 H 197.179 -1.1288 -1.54694 0
M  V30 2197 H 195.484 -0.044586 -3.91775 0
M  V30 2198 H 197.181 -0.429767 -3.9869 0
M  V30 2199 H 193.771 -1.85801 -3.86233 0
M  V30 2200 H 197.955 -2.81206 -4.08946 0
M  V30 2201 H 193.211 -4.17371 -4.46779 0
M  V30 2202 H 197.385 -5.13133 -4.70815 0
M  V30 2203 H 195.012 -5.81719 -4.89395 0
M  V30 2204 N 196.587 1.43421 -0.653314 0
M  V30 2205 C 197.812 2.06678 -0.172846 0
M  V30 2206 C 198.237 1.48648 1.15262 0
M  V30 2207 O 197.595 0.596457 1.71208 0
M  V30 2208 C 197.643 3.60474 -0.0953184 0
M  V30 2209 O 196.747 4.01487 0.942442 0
M  V30 2210 H 196.088 0.657181 -0.0949155 0
M  V30 2211 H 198.618 1.83925 -0.896265 0
M  V30 2212 H 198.628 4.07905 0.0879728 0
M  V30 2213 H 197.303 4.02088 -1.06291 0
M  V30 2214 H 195.88 3.65646 0.731932 0
M  V30 2215 N 198.065 0.39524 1.52563 0
M  V30 2216 C 199.314 -0.186321 2.00838 0
M  V30 2217 C 199.627 -1.47402 1.28577 0
M  V30 2218 O 200.833 -2.13599 1.67593 0
M  V30 2219 C 199.289 -0.382595 3.57861 0
M  V30 2220 C 198.897 0.892202 4.39026 0
M  V30 2221 C 200.641 -0.9202 4.14406 0
M  V30 2222 C 198.548 0.66388 5.87662 0
M  V30 2223 H 197.478 -0.0734041 0.750418 0
M  V30 2224 H 200.129 0.518552 1.76021 0
M  V30 2225 H 198.511 -1.14946 3.7895 0
M  V30 2226 H 199.685 1.66414 4.29701 0
M  V30 2227 H 198 1.35519 3.9373 0
M  V30 2228 H 200.597 -1.10683 5.23119 0
M  V30 2229 H 200.94 -1.89096 3.70875 0
M  V30 2230 H 201.473 -0.212751 3.97231 0
M  V30 2231 H 198.212 1.6058 6.35527 0
M  V30 2232 H 197.732 -0.0690193 5.9976 0
M  V30 2233 H 199.411 0.300699 6.46301 0
M  V30 2234 N 199.544 -1.57102 0.125237 0
M  V30 2235 C 200.454 -2.19191 -0.8362 0
M  V30 2236 C 201.47 -1.16985 -1.28805 0
M  V30 2237 O 202.646 -1.49479 -1.34974 0
M  V30 2238 C 199.711 -2.78407 -2.06617 0
M  V30 2239 C 198.772 -3.9567 -1.66565 0
M  V30 2240 C 198.005 -4.52052 -2.83698 0
M  V30 2241 O 198.228 -4.07326 -3.99302 0
M  V30 2242 O 197.162 -5.42645 -2.60423 0
M  V30 2243 H 200.988 -3.01816 -0.337776 0
M  V30 2244 H 198.573 -1.4906 -0.100695 0
M  V30 2245 H 200.455 -3.16129 -2.7864 0
M  V30 2246 H 199.13 -1.9881 -2.55453 0
M  V30 2247 H 198.037 -3.62705 -0.916296 0
M  V30 2248 H 199.37 -4.76722 -1.22464 0
M  V30 2249 N 201.022 0.148545 -1.56898 0
M  V30 2250 C 202.268 0.862694 -1.83536 0
M  V30 2251 C 202.601 1.80889 -0.706604 0
M  V30 2252 O 201.876 1.92328 0.289885 0
M  V30 2253 C 202.159 1.63853 -3.20662 0
M  V30 2254 C 202.012 0.713925 -4.44098 0
M  V30 2255 C 203.331 2.60133 -3.54991 0
M  V30 2256 H 200.45 0.312179 -0.667618 0
M  V30 2257 H 203.092 0.127953 -1.89569 0
M  V30 2258 H 201.242 2.26489 -3.1565 0
M  V30 2259 H 202.914 0.098686 -4.61194 0
M  V30 2260 H 201.157 0.0234019 -4.33794 0
M  V30 2261 H 201.828 1.29278 -5.36648 0
M  V30 2262 H 204.304 2.07616 -3.60603 0
M  V30 2263 H 203.18 3.11468 -4.51972 0
M  V30 2264 H 203.441 3.41417 -2.80868 0
M  V30 2265 N 202.5 1.5196 0.417844 0
M  V30 2266 C 203.432 1.70895 1.52733 0
M  V30 2267 C 204.445 0.589405 1.51756 0
M  V30 2268 O 205.634 0.864312 1.56179 0
M  V30 2269 C 202.734 1.72627 2.91639 0
M  V30 2270 C 201.907 3.01479 3.16905 0
M  V30 2271 C 200.966 2.95139 4.35637 0
M  V30 2272 O 199.992 3.69059 4.3334 0
M  V30 2273 N 201.194 2.12328 5.40275 0
M  V30 2274 H 203.959 2.66612 1.36888 0
M  V30 2275 H 201.52 1.50089 0.607037 0
M  V30 2276 H 203.512 1.65928 3.6912 0
M  V30 2277 H 202.082 0.844216 3.00985 0
M  V30 2278 H 201.302 3.21895 2.27546 0
M  V30 2279 H 202.59 3.86736 3.30625 0
M  V30 2280 H 201.988 1.51685 5.44985 0
M  V30 2281 H 200.545 2.11494 6.16534 0
M  V30 2282 N 203.978 -0.674533 1.42435 0
M  V30 2283 C 205.224 -1.43671 1.43131 0
M  V30 2284 C 205.557 -1.94142 0.0476021 0
M  V30 2285 O 204.832 -1.70924 -0.928188 0
M  V30 2286 C 205.115 -2.63355 2.45594 0
M  V30 2287 C 204.968 -2.18514 3.93156 0
M  V30 2288 C 206.287 -3.65571 2.45043 0
M  V30 2289 H 203.406 -0.521077 0.521198 0
M  V30 2290 H 206.048 -0.766551 1.7385 0
M  V30 2291 H 204.198 -3.2053 2.19528 0
M  V30 2292 H 205.87 -1.66504 4.30202 0
M  V30 2293 H 204.113 -1.50086 4.07009 0
M  V30 2294 H 204.784 -3.04484 4.60428 0
M  V30 2295 H 207.26 -3.18113 2.68223 0
M  V30 2296 H 206.136 -4.46893 3.18713 0
M  V30 2297 H 206.397 -4.16716 1.47649 0
M  V30 2298 N 205.456 -1.28612 -0.910864 0
M  V30 2299 C 206.684 -1.18792 -1.69399 0
M  V30 2300 C 207.099 0.253039 -1.87097 0
M  V30 2301 O 206.456 1.17071 -1.40003 0
M  V30 2302 C 206.507 -1.88511 -3.08457 0
M  V30 2303 O 206.228 -3.26979 -2.91576 0
M  V30 2304 C 207.729 -1.85029 -4.02839 0
M  V30 2305 H 204.949 -0.412233 -0.529438 0
M  V30 2306 H 207.493 -1.69788 -1.13984 0
M  V30 2307 H 205.648 -1.41379 -3.60681 0
M  V30 2308 H 206.062 -3.61936 -3.79608 0
M  V30 2309 H 207.536 -2.38395 -4.97867 0
M  V30 2310 H 208.013 -0.823303 -4.31414 0
M  V30 2311 H 208.619 -2.31853 -3.56545 0
M  V30 2312 N 206.934 1.1197 -1.10907 0
M  V30 2313 C 208.183 1.82947 -0.849302 0
M  V30 2314 C 208.496 1.85275 0.627112 0
M  V30 2315 O 209.702 2.52296 1.00295 0
M  V30 2316 C 208.158 3.28529 -1.46959 0
M  V30 2317 C 207.766 3.34546 -2.97965 0
M  V30 2318 C 209.51 4.04443 -1.28942 0
M  V30 2319 C 207.417 4.74491 -3.53004 0
M  V30 2320 H 206.347 0.685477 -0.314065 0
M  V30 2321 H 208.998 1.2604 -1.33365 0
M  V30 2322 H 207.38 3.85333 -0.912917 0
M  V30 2323 H 208.554 2.87654 -3.59989 0
M  V30 2324 H 206.869 2.72108 -3.15192 0
M  V30 2325 H 209.466 5.07787 -1.67502 0
M  V30 2326 H 209.809 4.15656 -0.231456 0
M  V30 2327 H 210.342 3.5401 -1.81443 0
M  V30 2328 H 207.081 4.68474 -4.58489 0
M  V30 2329 H 206.601 5.21816 -2.9575 0
M  V30 2330 H 208.28 5.4344 -3.51115 0
M  V30 2331 N 208.412 0.89855 1.29475 0
M  V30 2332 C 209.66 0.522847 1.9522 0
M  V30 2333 C 209.981 -0.93371 1.71192 0
M  V30 2334 O 209.251 -1.65823 1.04305 0
M  V30 2335 H 207.831 0.190366 0.722336 0
M  V30 2336 H 210.493 1.14459 1.5775 0
M  V30 2337 H 209.589 0.704476 3.04045 0
M  V30 2338 N 209.89 -1.43072 0.660911 0
M  V30 2339 C 211.137 -2.01721 0.177445 0
M  V30 2340 C 211.465 -1.5218 -1.21126 0
M  V30 2341 O 210.72 -0.708659 -1.82419 0
M  V30 2342 C 211.019 -3.57103 0.145563 0
M  V30 2343 C 210.685 -4.26021 1.47705 0
M  V30 2344 C 209.347 -4.44563 1.84165 0
M  V30 2345 C 211.699 -4.64983 2.35458 0
M  V30 2346 C 209.027 -4.99334 3.0803 0
M  V30 2347 C 211.379 -5.21127 3.58622 0
M  V30 2348 C 210.043 -5.37884 3.95268 0
M  V30 2349 H 209.313 -0.73815 0.0649317 0
M  V30 2350 H 211.96 -1.71446 0.853144 0
M  V30 2351 H 210.265 -3.86965 -0.61361 0
M  V30 2352 H 211.962 -4.00248 -0.2455 0
M  V30 2353 H 208.552 -4.11939 1.18339 0
M  V30 2354 H 212.736 -4.50343 2.08579 0
M  V30 2355 H 207.992 -5.10493 3.36462 0
M  V30 2356 H 212.166 -5.50262 4.26831 0
M  V30 2357 H 209.793 -5.80089 4.91325 0
M  V30 2358 N 211.368 -0.403325 -1.52352 0
M  V30 2359 C 212.616 0.174003 -2.0135 0
M  V30 2360 C 212.937 1.46139 -1.29106 0
M  V30 2361 O 212.207 1.91448 -0.415253 0
M  V30 2362 H 210.787 0.0672911 -0.743963 0
M  V30 2363 H 213.449 -0.538235 -1.87321 0
M  V30 2364 H 212.545 0.374254 -3.09848 0
M  V30 2365 N 212.846 1.57033 -0.133567 0
M  V30 2366 C 214.094 1.953 0.519848 0
M  V30 2367 C 214.415 1.01866 1.66278 0
M  V30 2368 O 213.685 0.0776513 1.95746 0
M  V30 2369 H 212.265 0.721091 0.195032 0
M  V30 2370 H 214.927 1.93809 -0.205921 0
M  V30 2371 H 214.023 2.98695 0.904854 0
M  V30 2372 N 214.325 -0.140222 1.56975 0
M  V30 2373 C 215.741 -0.493088 1.51792 0
M  V30 2374 C 215.941 -1.83013 0.843116 0
M  V30 2375 O 214.997 -2.49041 0.416493 0
M  V30 2376 C 216.31 -0.497144 2.96562 0
M  V30 2377 C 217.858 -0.582186 3.07538 0
M  V30 2378 C 218.333 -0.616838 4.53827 0
M  V30 2379 N 219.824 -0.678873 4.58198 0
M  V30 2380 C 220.559 -0.726782 5.68775 0
M  V30 2381 N 220.055 -0.733623 6.88905 0
M  V30 2382 N 221.848 -0.768179 5.56826 0
M  V30 2383 H 213.999 0.736108 1.99237 0
M  V30 2384 H 216.262 0.269182 0.90898 0
M  V30 2385 H 215.968 0.417217 3.49217 0
M  V30 2386 H 215.842 -1.33263 3.52875 0
M  V30 2387 H 218.229 -1.48697 2.54899 0
M  V30 2388 H 218.31 0.280581 2.54257 0
M  V30 2389 H 217.954 0.283812 5.07106 0
M  V30 2390 H 217.884 -1.49619 5.04898 0
M  V30 2391 H 220.375 -0.68061 3.7172 0
M  V30 2392 H 220.688 -0.772215 7.68932 0
M  V30 2393 H 219.033 -0.701389 6.91452 0
M  V30 2394 H 222.224 -0.760051 4.61888 0
M  V30 2395 H 222.397 -0.80205 6.43017 0
M  V30 2396 N 215.803 -1.52179 -0.40978 0
M  V30 2397 C 216.736 -1.70196 -1.52015 0
M  V30 2398 C 217.714 -0.549542 -1.53032 0
M  V30 2399 O 218.898 -0.776815 -1.71749 0
M  V30 2400 C 216.025 -1.74069 -2.90547 0
M  V30 2401 C 215.071 -2.95601 -3.07445 0
M  V30 2402 S 215.904 -4.55956 -2.80827 0
M  V30 2403 C 217.06 -4.62614 -4.21591 0
M  V30 2404 H 217.293 -2.64109 -1.36504 0
M  V30 2405 H 214.826 -1.4221 -0.601312 0
M  V30 2406 H 216.784 -1.76985 -3.70387 0
M  V30 2407 H 215.445 -0.812835 -3.034 0
M  V30 2408 H 214.638 -2.94791 -4.08796 0
M  V30 2409 H 214.24 -2.90569 -2.35469 0
M  V30 2410 H 216.532 -4.39951 -5.15218 0
M  V30 2411 H 217.475 -5.64548 -4.27424 0
M  V30 2412 H 217.883 -3.91654 -4.06531 0
M  V30 2413 N 217.281 0.66697 -1.42791 0
M  V30 2414 C 218.214 1.79177 -1.41318 0
M  V30 2415 C 219.192 1.60234 -0.276401 0
M  V30 2416 O 220.376 1.82602 -0.46785 0
M  V30 2417 C 217.503 3.16289 -1.21157 0
M  V30 2418 C 216.549 3.53964 -2.37932 0
M  V30 2419 S 217.382 3.55501 -4.00474 0
M  V30 2420 C 218.538 4.95292 -3.8267 0
M  V30 2421 H 218.771 1.80153 -2.365 0
M  V30 2422 H 216.304 0.838357 -1.29657 0
M  V30 2423 H 218.262 3.95428 -1.10212 0
M  V30 2424 H 216.923 3.1289 -0.275481 0
M  V30 2425 H 216.116 4.53646 -2.19594 0
M  V30 2426 H 215.718 2.82204 -2.45432 0
M  V30 2427 H 218.01 5.83584 -3.44145 0
M  V30 2428 H 218.953 5.18679 -4.82055 0
M  V30 2429 H 219.361 4.68179 -3.15386 0
M  V30 2430 N 218.759 1.29093 0.90403 0
M  V30 2431 C 219.987 1.19689 1.68766 0
M  V30 2432 C 220.402 -0.243113 1.87228 0
M  V30 2433 O 219.759 -1.16326 1.40621 0
M  V30 2434 C 219.81 1.90144 3.07453 0
M  V30 2435 O 219.531 3.2852 2.89838 0
M  V30 2436 C 221.032 1.87162 4.01852 0
M  V30 2437 H 218.252 0.415035 0.527244 0
M  V30 2438 H 220.796 1.7039 1.13082 0
M  V30 2439 H 218.951 1.43289 3.59926 0
M  V30 2440 H 219.365 3.63944 3.77684 0
M  V30 2441 H 220.839 2.41032 4.96596 0
M  V30 2442 H 221.316 0.84617 4.30972 0
M  V30 2443 H 221.922 2.33741 3.5531 0
M  V30 2444 N 220.237 -1.11381 1.11499 0
M  V30 2445 C 221.147 -2.21019 0.786628 0
M  V30 2446 C 222.163 -1.72597 -0.220507 0
M  V30 2447 O 223.339 -2.01321 -0.0565251 0
M  V30 2448 C 220.404 -3.459 0.235333 0
M  V30 2449 C 219.465 -4.09107 1.30115 0
M  V30 2450 C 218.698 -5.28027 0.776068 0
M  V30 2451 O 218.921 -5.6904 -0.393661 0
M  V30 2452 O 217.855 -5.81835 1.54114 0
M  V30 2453 H 221.681 -2.51521 1.70209 0
M  V30 2454 H 219.266 -1.19928 0.890928 0
M  V30 2455 H 221.148 -4.21346 -0.067715 0
M  V30 2456 H 219.823 -3.17049 -0.652828 0
M  V30 2457 H 218.73 -3.35391 1.65722 0
M  V30 2458 H 220.063 -4.42139 2.16273 0
M  V30 2459 N 221.715 -0.905404 -1.28997 0
M  V30 2460 C 222.625 -0.392246 -2.31298 0
M  V30 2461 C 223.641 0.515889 -1.66176 0
M  V30 2462 O 224.817 0.404093 -1.97304 0
M  V30 2463 C 221.882 0.36686 -3.44754 0
M  V30 2464 C 220.943 -0.573485 -4.25452 0
M  V30 2465 C 220.176 0.149488 -5.33491 0
M  V30 2466 O 220.399 1.37255 -5.5364 0
M  V30 2467 O 219.333 -0.510919 -5.99728 0
M  V30 2468 H 223.159 -1.2411 -2.77183 0
M  V30 2469 H 220.744 -0.669926 -1.33538 0
M  V30 2470 H 222.626 0.795907 -4.13816 0
M  V30 2471 H 221.301 1.19169 -3.00966 0
M  V30 2472 H 220.208 -1.05176 -3.59011 0
M  V30 2473 H 221.541 -1.36489 -4.72897 0
M  V30 2474 N 223.193 1.4272 -0.668489 0
M  V30 2475 C 224.433 2.03497 -0.19194 0
M  V30 2476 C 224.797 1.51684 1.17712 0
M  V30 2477 O 225.998 2.04205 1.74796 0
M  V30 2478 C 224.269 3.56734 -0.218032 0
M  V30 2479 S 225.828 4.38395 0.188438 0
M  V30 2480 H 222.646 0.706542 -0.0794959 0
M  V30 2481 H 225.248 1.74563 -0.880235 0
M  V30 2482 H 223.952 3.91943 -1.2169 0
M  V30 2483 H 223.483 3.90333 0.490303 0
M  V30 2484 H 225.498 4.75345 1.42345 0
M  V30 2485 N 224.671 0.411399 1.52136 0
M  V30 2486 C 226.082 -0.0576826 1.86611 0
M  V30 2487 C 226.433 -1.44238 1.33003 0
M  V30 2488 O 225.558 -2.05759 0.670228 0
M  V30 2489 C 226.153 -0.111448 3.38617 0
M  V30 2490 C 224.712 -0.52487 3.72723 0
M  V30 2491 C 223.859 0.299176 2.75681 0
M  V30 2492 H 226.81 0.628368 1.4573 0
M  V30 2493 H 226.831 -0.926252 3.69054 0
M  V30 2494 H 226.343 0.896488 3.77604 0
M  V30 2495 H 224.444 -1.53936 3.39315 0
M  V30 2496 H 224.557 -0.267681 4.78352 0
M  V30 2497 H 222.921 -0.238814 2.53578 0
M  V30 2498 H 223.704 1.3055 3.17508 0
M  V30 2499 N 226.149 -1.5696 0.141893 0
M  V30 2500 C 227.079 -2.19516 -0.795936 0
M  V30 2501 C 228.06 -1.14187 -1.26077 0
M  V30 2502 O 229.245 -1.42511 -1.31925 0
M  V30 2503 C 226.375 -2.81272 -2.03723 0
M  V30 2504 C 225.329 -3.92384 -1.70936 0
M  V30 2505 C 224.655 -4.41052 -3.02287 0
M  V30 2506 C 225.955 -5.13403 -0.959954 0
M  V30 2507 H 227.649 -2.98138 -0.274596 0
M  V30 2508 H 225.195 -1.43406 -0.130636 0
M  V30 2509 H 227.148 -3.237 -2.69808 0
M  V30 2510 H 225.872 -1.99973 -2.58221 0
M  V30 2511 H 224.531 -3.50566 -1.07232 0
M  V30 2512 H 224.179 -3.56582 -3.54765 0
M  V30 2513 H 223.879 -5.15993 -2.81114 0
M  V30 2514 H 225.403 -4.86146 -3.69451 0
M  V30 2515 H 226.817 -5.52706 -1.52279 0
M  V30 2516 H 225.214 -5.94073 -0.848357 0
M  V30 2517 H 226.284 -4.84875 0.0492434 0
M  V30 2518 N 227.627 0.131896 -1.57047 0
M  V30 2519 C 228.59 1.14638 -1.98471 0
M  V30 2520 C 229.59 1.35029 -0.873148 0
M  V30 2521 O 230.78 1.31764 -1.13946 0
M  V30 2522 C 227.912 2.50358 -2.31373 0
M  V30 2523 H 229.105 0.79064 -2.8929 0
M  V30 2524 H 226.658 0.375761 -1.51716 0
M  V30 2525 H 227.393 2.90876 -1.43393 0
M  V30 2526 H 227.178 2.36915 -3.12432 0
M  V30 2527 H 228.668 3.23395 -2.64207 0
M  V30 2528 N 229.106 1.52395 0.401703 0
M  V30 2529 C 230.355 1.66044 1.14509 0
M  V30 2530 C 230.668 0.400216 1.91462 0
M  V30 2531 O 231.874 0.416632 2.68284 0
M  V30 2532 C 230.33 2.93388 2.0845 0
M  V30 2533 C 229.938 4.26545 1.36978 0
M  V30 2534 C 231.682 3.16402 2.83001 0
M  V30 2535 C 229.589 5.45007 2.29611 0
M  V30 2536 H 228.519 0.618562 0.431158 0
M  V30 2537 H 231.17 1.78886 0.40892 0
M  V30 2538 H 229.552 2.74263 2.8565 0
M  V30 2539 H 230.726 4.56179 0.650916 0
M  V30 2540 H 229.041 4.09692 0.74438 0
M  V30 2541 H 231.638 4.02085 3.52465 0
M  V30 2542 H 231.981 2.30943 3.46368 0
M  V30 2543 H 232.514 3.36034 2.12898 0
M  V30 2544 H 229.253 6.32835 1.70879 0
M  V30 2545 H 228.773 5.19702 2.9945 0
M  V30 2546 H 230.452 5.7838 2.89974 0
M  V30 2547 N 230.584 -0.659388 1.43143 0
M  V30 2548 C 231.812 -1.44723 1.47861 0
M  V30 2549 C 232.227 -1.88563 0.0945886 0
M  V30 2550 O 231.584 -1.59108 -0.893915 0
M  V30 2551 C 231.635 -2.68627 2.41913 0
M  V30 2552 O 231.356 -2.26623 3.74932 0
M  V30 2553 C 232.857 -3.62045 2.55809 0
M  V30 2554 H 230.077 -0.444801 0.502387 0
M  V30 2555 H 232.621 -0.808916 1.87821 0
M  V30 2556 H 230.776 -3.28613 2.05164 0
M  V30 2557 H 231.19 -3.06745 4.2545 0
M  V30 2558 H 232.664 -4.45666 3.25708 0
M  V30 2559 H 233.141 -4.08981 1.60099 0
M  V30 2560 H 233.747 -3.07944 2.93344 0
M  V30 2561 N 232.062 -1.29571 -0.897171 0
M  V30 2562 C 233.308 -1.17863 -1.65034 0
M  V30 2563 C 233.641 0.268729 -1.92332 0
M  V30 2564 O 232.916 1.19378 -1.53555 0
M  V30 2565 C 233.199 -1.995 -2.99786 0
M  V30 2566 C 233.052 -3.5239 -2.79538 0
M  V30 2567 C 234.371 -1.82335 -4.00552 0
M  V30 2568 H 231.49 -0.429528 -0.598895 0
M  V30 2569 H 234.132 -1.59072 -1.03905 0
M  V30 2570 H 232.282 -1.64485 -3.51962 0
M  V30 2571 H 233.954 -3.97401 -2.34244 0
M  V30 2572 H 232.197 -3.77187 -2.14273 0
M  V30 2573 H 232.868 -4.04787 -3.75302 0
M  V30 2574 H 235.344 -2.12924 -3.57495 0
M  V30 2575 H 234.22 -2.41801 -4.92771 0
M  V30 2576 H 234.481 -0.779209 -4.35179 0
M  V30 2577 N 233.54 1.10788 -1.12088 0
M  V30 2578 C 234.47 2.19083 -0.807755 0
M  V30 2579 C 235.451 1.6858 0.226859 0
M  V30 2580 O 236.636 1.93997 0.0888475 0
M  V30 2581 C 233.766 3.46344 -0.257576 0
M  V30 2582 C 232.72 4.101 -1.22483 0
M  V30 2583 C 232.046 5.32016 -0.535052 0
M  V30 2584 C 233.346 4.54236 -2.57811 0
M  V30 2585 H 235.04 2.45534 -1.71328 0
M  V30 2586 H 232.586 1.1801 -0.825205 0
M  V30 2587 H 234.539 4.21392 -0.0262679 0
M  V30 2588 H 233.263 3.19373 0.683278 0
M  V30 2589 H 231.922 3.37054 -1.44189 0
M  V30 2590 H 231.57 5.01319 0.410827 0
M  V30 2591 H 231.27 5.75625 -1.18024 0
M  V30 2592 H 232.794 6.09799 -0.312695 0
M  V30 2593 H 234.208 5.20575 -2.40155 0
M  V30 2594 H 232.605 5.08682 -3.18375 0
M  V30 2595 H 233.675 3.6734 -3.16528 0
M  V30 2596 N 235.018 0.912232 1.28515 0
M  V30 2597 C 236.267 0.540504 1.94323 0
M  V30 2598 C 236.58 -0.920044 1.72611 0
M  V30 2599 O 237.786 -1.39986 2.32629 0
M  V30 2600 C 236.242 0.915803 3.48053 0
M  V30 2601 C 235.85 2.39598 3.78546 0
M  V30 2602 C 237.594 0.614588 4.20027 0
M  V30 2603 C 235.501 2.71148 5.25578 0
M  V30 2604 H 234.431 0.198418 0.727424 0
M  V30 2605 H 237.082 1.11094 1.46049 0
M  V30 2606 H 235.464 0.274168 3.9505 0
M  V30 2607 H 236.638 3.08422 3.42364 0
M  V30 2608 H 234.953 2.66749 3.1974 0
M  V30 2609 H 237.55 0.827002 5.28266 0
M  V30 2610 H 237.893 -0.447531 4.13887 0
M  V30 2611 H 238.426 1.21462 3.78803 0
M  V30 2612 H 235.165 3.76207 5.36794 0
M  V30 2613 H 234.685 2.0696 5.62963 0
M  V30 2614 H 236.364 2.58072 5.93302 0
M  V30 2615 N 236.496 -1.42363 0.676048 0
M  V30 2616 C 237.426 -2.33497 0.0124832 0
M  V30 2617 C 238.407 -1.50748 -0.787981 0
M  V30 2618 O 239.592 -1.79346 -0.744884 0
M  V30 2619 C 236.722 -3.34377 -0.938582 0
M  V30 2620 C 235.676 -4.27289 -0.246622 0
M  V30 2621 C 235.002 -5.18386 -1.31071 0
M  V30 2622 C 236.302 -5.14916 0.875125 0
M  V30 2623 H 237.996 -2.89233 0.773593 0
M  V30 2624 H 235.542 -1.39073 0.37346 0
M  V30 2625 H 237.495 -3.97044 -1.41188 0
M  V30 2626 H 236.219 -2.76947 -1.73113 0
M  V30 2627 H 234.878 -3.66018 0.206456 0
M  V30 2628 H 234.526 -4.57282 -2.09528 0
M  V30 2629 H 234.226 -5.81378 -0.852839 0
M  V30 2630 H 235.75 -5.83929 -1.78492 0
M  V30 2631 H 237.164 -5.71262 0.482983 0
M  V30 2632 H 235.561 -5.86747 1.25887 0
M  V30 2633 H 236.631 -4.53242 1.72335 0
M  V30 2634 N 237.974 -0.419461 -1.51915 0
M  V30 2635 C 238.906 0.43646 -2.25006 0
M  V30 2636 C 239.919 1.00149 -1.28351 0
M  V30 2637 O 241.108 0.898674 -1.54227 0
M  V30 2638 C 238.208 1.6206 -2.9764 0
M  V30 2639 C 237.381 1.17763 -4.21249 0
M  V30 2640 C 236.44 2.22985 -4.76617 0
M  V30 2641 O 235.466 1.83151 -5.38929 0
M  V30 2642 N 236.668 3.55271 -4.59089 0
M  V30 2643 H 239.433 -0.18989 -2.99098 0
M  V30 2644 H 236.994 -0.247386 -1.59999 0
M  V30 2645 H 238.986 2.32038 -3.31573 0
M  V30 2646 H 237.556 2.15266 -2.2667 0
M  V30 2647 H 236.776 0.305582 -3.93014 0
M  V30 2648 H 238.064 0.858781 -5.015 0
M  V30 2649 H 237.462 3.90377 -4.09417 0
M  V30 2650 H 236.019 4.21195 -4.97432 0
M  V30 2651 N 239.452 1.56882 -0.150215 0
M  V30 2652 C 240.4 2.18214 0.805313 0
M  V30 2653 C 241.394 1.14006 1.25296 0
M  V30 2654 O 242.6 1.3225 1.22107 0
M  V30 2655 H 238.975 0.698762 0.277913 0
M  V30 2656 H 240.946 2.97231 0.263862 0
M  V30 2657 C 239.695 2.82065 2.03309 0
M  V30 2658 H 239.018 3.61968 1.69763 0
M  V30 2659 H 240.458 3.28477 2.68103 0
M  V30 2660 C 238.917 1.80739 2.84315 0
M  V30 2661 O 239.447 1.27983 3.80767 0
M  V30 2662 N 237.653 1.4997 2.48913 0
M  V30 2663 H 237.2 1.93062 1.70542 0
M  V30 2664 H 237.158 0.824217 3.03404 0
M  V30 2665 N 240.93 -0.123565 1.57115 0
M  V30 2666 C 242.179 -0.830704 1.83799 0
M  V30 2667 C 242.492 -1.81259 0.735158 0
M  V30 2668 O 243.698 -2.56558 0.888278 0
M  V30 2669 C 242.154 -1.52802 3.25852 0
M  V30 2670 C 241.762 -0.587356 4.44133 0
M  V30 2671 C 243.506 -2.22056 3.61789 0
M  V30 2672 C 241.413 -1.28764 5.77212 0
M  V30 2673 H 240.343 -0.313967 0.685522 0
M  V30 2674 H 242.994 -0.0834359 1.8331 0
M  V30 2675 H 241.376 -2.32175 3.20797 0
M  V30 2676 H 242.55 0.172829 4.60476 0
M  V30 2677 H 240.865 -0.00201892 4.164 0
M  V30 2678 H 243.462 -2.75131 4.58483 0
M  V30 2679 H 243.805 -2.99644 2.88997 0
M  V30 2680 H 244.338 -1.49576 3.68608 0
M  V30 2681 H 241.077 -0.55314 6.53162 0
M  V30 2682 H 240.597 -2.01995 5.64764 0
M  V30 2683 H 242.276 -1.8221 6.20813 0
M  V30 2684 N 242.408 -1.52605 -0.393616 0
M  V30 2685 C 243.654 -1.67672 -1.14079 0
M  V30 2686 C 243.987 -0.413121 -1.89755 0
M  V30 2687 O 243.262 0.588952 -1.85369 0
M  V30 2688 C 243.545 -2.9088 -2.12276 0
M  V30 2689 C 243.398 -4.27329 -1.40394 0
M  V30 2690 C 244.717 -3.09628 -3.12759 0
M  V30 2691 H 241.836 -0.610168 -0.413356 0
M  V30 2692 H 244.478 -1.85193 -0.424696 0
M  V30 2693 H 242.628 -2.76073 -2.73342 0
M  V30 2694 H 244.3 -4.53894 -0.82327 0
M  V30 2695 H 242.543 -4.2802 -0.705801 0
M  V30 2696 H 243.214 -5.09615 -2.12123 0
M  V30 2697 H 245.69 -3.23436 -2.61779 0
M  V30 2698 H 244.566 -3.97322 -3.78717 0
M  V30 2699 H 244.827 -2.23637 -3.81365 0
M  V30 2700 N 243.887 0.651787 -1.4349 0
M  V30 2701 C 245.135 1.40888 -1.44897 0
M  V30 2702 C 245.456 1.94856 -0.0749086 0
M  V30 2703 O 244.726 1.74518 0.889956 0
M  V30 2704 H 243.306 0.522887 -0.533478 0
M  V30 2705 H 245.968 0.768609 -1.79104 0
M  V30 2706 H 245.064 2.25052 -2.16236 0
M  V30 2707 N 245.365 1.30045 0.890287 0
M  V30 2708 C 246.295 1.18541 2.01172 0
M  V30 2709 C 247.276 0.0773356 1.69924 0
M  V30 2710 O 248.461 0.25845 1.92473 0
M  V30 2711 C 245.591 0.870941 3.36202 0
M  V30 2712 C 244.545 1.93637 3.81692 0
M  V30 2713 C 243.871 1.475 5.13953 0
M  V30 2714 C 245.171 3.34666 4.00994 0
M  V30 2715 H 246.865 2.12359 2.11054 0
M  V30 2716 H 244.411 1.02238 1.01407 0
M  V30 2717 H 246.364 0.777141 4.14172 0
M  V30 2718 H 245.088 -0.102926 3.26438 0
M  V30 2719 H 243.747 2.01972 3.05946 0
M  V30 2720 H 243.395 0.489551 5.00612 0
M  V30 2721 H 243.095 2.1876 5.4536 0
M  V30 2722 H 244.619 1.39489 5.94454 0
M  V30 2723 H 246.033 3.2912 4.69417 0
M  V30 2724 H 244.43 4.03966 4.43769 0
M  V30 2725 H 245.5 3.76949 3.05021 0
M  V30 2726 N 246.843 -1.10192 1.12674 0
M  V30 2727 C 248.092 -1.81573 0.8783 0
M  V30 2728 C 248.405 -1.86249 -0.597557 0
M  V30 2729 O 249.611 -2.5386 -0.962681 0
M  V30 2730 C 248.067 -3.26149 1.52167 0
M  V30 2731 C 247.675 -3.29763 3.03249 0
M  V30 2732 C 249.419 -4.0234 1.3536 0
M  V30 2733 C 247.326 -4.68815 3.60508 0
M  V30 2734 H 246.256 -0.680394 0.324931 0
M  V30 2735 H 248.907 -1.23902 1.35353 0
M  V30 2736 H 247.289 -3.83832 0.974104 0
M  V30 2737 H 248.463 -2.8189 3.6452 0
M  V30 2738 H 246.778 -2.67059 3.19481 0
M  V30 2739 H 249.375 -5.05058 1.75559 0
M  V30 2740 H 249.718 -4.15235 0.297554 0
M  V30 2741 H 250.251 -3.51079 1.87052 0
M  V30 2742 H 246.99 -4.61121 4.65884 0
M  V30 2743 H 246.51 -5.17045 3.04014 0
M  V30 2744 H 248.189 -5.37785 3.59717 0
M  V30 2745 N 248.321 -0.919034 -1.28029 0
M  V30 2746 C 249.57 -0.550802 -1.94034 0
M  V30 2747 C 249.883 0.910877 -1.73096 0
M  V30 2748 O 251.089 1.3875 -2.33368 0
M  V30 2749 C 249.545 -0.934249 -3.47563 0
M  V30 2750 C 249.153 -2.41602 -3.7727 0
M  V30 2751 C 250.897 -0.636854 -4.19696 0
M  V30 2752 C 248.804 -2.73932 -5.24133 0
M  V30 2753 H 247.734 -0.202273 -0.726362 0
M  V30 2754 H 250.385 -1.11867 -1.45458 0
M  V30 2755 H 248.767 -0.295115 -3.94899 0
M  V30 2756 H 249.941 -3.10233 -3.40723 0
M  V30 2757 H 248.256 -2.68441 -3.18321 0
M  V30 2758 H 250.853 -0.855005 -5.2782 0
M  V30 2759 H 251.196 0.425575 -4.14119 0
M  V30 2760 H 251.729 -1.23469 -3.78154 0
M  V30 2761 H 248.468 -3.79049 -5.34792 0
M  V30 2762 H 247.988 -2.09942 -5.61858 0
M  V30 2763 H 249.667 -2.61215 -5.91925 0
M  V30 2764 N 249.799 1.42003 -0.683588 0
M  V30 2765 C 250.747 2.326 0.000815408 0
M  V30 2766 C 251.741 1.50308 0.781278 0
M  V30 2767 O 252.947 1.66322 0.688251 0
M  V30 2768 H 249.322 0.751758 0.0190616 0
M  V30 2769 H 251.293 2.88011 -0.780528 0
M  V30 2770 C 250.042 3.34978 0.93195 0
M  V30 2771 H 249.365 3.98345 0.340817 0
M  V30 2772 H 250.805 4.00936 1.37936 0
M  V30 2773 C 249.264 2.67925 2.04249 0
M  V30 2774 O 249.794 2.51788 3.12995 0
M  V30 2775 N 248 2.2681 1.81675 0
M  V30 2776 H 247.547 2.40135 0.932363 0
M  V30 2777 H 247.505 1.8228 2.56167 0
M  V30 2778 N 251.277 0.427512 1.51691 0
M  V30 2779 C 252.24 -0.377132 2.26076 0
M  V30 2780 C 253.24 -0.958089 1.29141 0
M  V30 2781 O 254.43 -0.83408 1.52934 0
M  V30 2782 C 251.562 -1.53262 3.04506 0
M  V30 2783 H 252.755 0.27464 2.9864 0
M  V30 2784 H 250.308 0.180445 1.55255 0
M  V30 2785 H 251.043 -2.22072 2.36335 0
M  V30 2786 H 250.828 -1.12232 3.75694 0
M  V30 2787 H 252.318 -2.10135 3.60878 0
M  V30 2788 N 252.755 -1.56801 0.158532 0
M  V30 2789 C 254.001 -1.96781 -0.490405 0
M  V30 2790 C 254.334 -1.04397 -1.63753 0
M  V30 2791 O 253.609 -0.0885805 -1.94298 0
M  V30 2792 C 253.892 -3.4635 -0.985594 0
M  V30 2793 C 253.745 -4.49512 0.160824 0
M  V30 2794 C 255.064 -3.98697 -1.86355 0
M  V30 2795 H 252.183 -0.715482 -0.176788 0
M  V30 2796 H 254.825 -1.88451 0.242088 0
M  V30 2797 H 252.975 -3.53579 -1.60978 0
M  V30 2798 H 254.647 -4.54353 0.797537 0
M  V30 2799 H 252.89 -4.26013 0.818256 0
M  V30 2800 H 253.561 -5.51531 -0.227569 0
M  V30 2801 H 256.037 -3.94019 -1.33746 0
M  V30 2802 H 254.913 -5.03792 -2.17909 0
M  V30 2803 H 255.174 -3.41744 -2.8047 0
M  V30 2804 N 254.233 0.115231 -1.57178 0
M  V30 2805 C 255.166 1.17166 -1.95825 0
M  V30 2806 C 256.144 1.39912 -0.828463 0
M  V30 2807 O 257.328 1.54004 -1.08697 0
M  V30 2808 C 254.455 2.52478 -2.25771 0
M  V30 2809 C 253.501 2.46136 -3.48309 0
M  V30 2810 S 254.334 1.89736 -5.0076 0
M  V30 2811 C 255.49 3.26713 -5.33863 0
M  V30 2812 H 255.723 0.842103 -2.85124 0
M  V30 2813 H 253.256 0.322136 -1.51002 0
M  V30 2814 H 255.214 3.30332 -2.43702 0
M  V30 2815 H 253.875 2.82609 -1.37079 0
M  V30 2816 H 253.068 3.45819 -3.66641 0
M  V30 2817 H 252.67 1.76404 -3.29784 0
M  V30 2818 H 254.962 4.22935 -5.29275 0
M  V30 2819 H 255.905 3.13205 -6.35065 0
M  V30 2820 H 256.313 3.25316 -4.61335 0
M  V30 2821 N 255.711 1.52812 0.385517 0
M  V30 2822 C 256.641 1.80808 1.47752 0
M  V30 2823 C 257.622 0.660318 1.5676 0
M  V30 2824 O 258.807 0.908246 1.71652 0
M  V30 2825 C 255.937 1.98008 2.85324 0
M  V30 2826 C 254.891 3.13709 2.91154 0
M  V30 2827 C 254.217 3.16169 4.31209 0
M  V30 2828 C 255.517 4.52709 2.60483 0
M  V30 2829 H 257.211 2.72253 1.24573 0
M  V30 2830 H 254.757 1.31003 0.597839 0
M  V30 2831 H 256.71 2.16176 3.61726 0
M  V30 2832 H 255.434 1.03255 3.09848 0
M  V30 2833 H 254.093 2.95329 2.17201 0
M  V30 2834 H 253.741 2.19092 4.52778 0
M  V30 2835 H 253.441 3.93894 4.36029 0
M  V30 2836 H 254.965 3.36496 5.09512 0
M  V30 2837 H 256.379 4.71173 3.26602 0
M  V30 2838 H 254.776 5.32528 2.76648 0
M  V30 2839 H 255.846 4.59186 1.55809 0
M  V30 2840 N 257.189 -0.644168 1.43834 0
M  V30 2841 C 258.437 -1.40117 1.45642 0
M  V30 2842 C 258.758 -1.94814 0.0852413 0
M  V30 2843 O 258.028 -1.74988 -0.880688 0
M  V30 2844 H 256.608 -0.52005 0.536243 0
M  V30 2845 H 259.27 -0.7591 1.7951 0
M  V30 2846 H 258.366 -2.23902 2.17427 0
M  V30 2847 N 258.668 -1.30515 -0.883378 0
M  V30 2848 C 259.908 -1.20716 -1.64946 0
M  V30 2849 C 260.272 0.234072 -1.90568 0
M  V30 2850 O 261.473 0.455335 -2.64915 0
M  V30 2851 C 259.744 -2.01444 -2.9522 0
M  V30 2852 S 261.303 -2.0836 -3.86175 0
M  V30 2853 H 258.121 -0.430165 -0.566109 0
M  V30 2854 H 260.723 -1.65011 -1.04841 0
M  V30 2855 H 259.427 -3.05268 -2.74298 0
M  V30 2856 H 258.958 -1.57817 -3.60357 0
M  V30 2857 H 260.973 -1.21215 -4.81167 0
M  V30 2858 N 260.146 1.09593 -1.13257 0
M  V30 2859 C 261.395 1.81105 -0.887917 0
M  V30 2860 C 261.708 1.86563 0.587672 0
M  V30 2861 O 262.914 2.54367 0.949204 0
M  V30 2862 C 261.37 3.25338 -1.53895 0
M  V30 2863 C 260.978 3.28151 -3.04994 0
M  V30 2864 C 262.722 4.01617 -1.37492 0
M  V30 2865 C 260.629 4.66897 -3.6299 0
M  V30 2866 H 259.559 0.678661 -0.328534 0
M  V30 2867 H 262.21 1.23183 -1.36008 0
M  V30 2868 H 260.592 3.8331 -0.994446 0
M  V30 2869 H 261.766 2.79953 -3.66009 0
M  V30 2870 H 260.081 2.65361 -3.20893 0
M  V30 2871 H 262.678 5.04119 -1.78235 0
M  V30 2872 H 263.021 4.15072 -0.31957 0
M  V30 2873 H 263.554 3.50082 -1.88912 0
M  V30 2874 H 260.293 4.58643 -4.68323 0
M  V30 2875 H 259.813 5.15426 -3.06752 0
M  V30 2876 H 261.492 5.3587 -3.62563 0
M  V30 2877 N 261.624 0.925811 1.2754 0
M  V30 2878 C 262.871 0.565255 1.94451 0
M  V30 2879 C 263.199 -0.89316 1.7278 0
M  V30 2880 O 262.454 -1.65213 1.04895 0
M  V30 2881 C 262.753 0.835296 3.47502 0
M  V30 2882 C 262.419 2.27515 3.89291 0
M  V30 2883 C 261.081 2.66879 4.00411 0
M  V30 2884 C 263.433 3.21158 4.10496 0
M  V30 2885 C 260.761 3.99014 4.30122 0
M  V30 2886 C 263.113 4.52871 4.4169 0
M  V30 2887 C 261.777 4.92072 4.51023 0
M  V30 2888 H 261.047 0.206841 0.711546 0
M  V30 2889 H 263.694 1.16942 1.51647 0
M  V30 2890 H 261.999 0.148442 3.91519 0
M  V30 2891 H 263.696 0.535322 3.97411 0
M  V30 2892 H 260.286 1.95976 3.81171 0
M  V30 2893 H 264.47 2.9195 4.01346 0
M  V30 2894 H 259.726 4.2907 4.35556 0
M  V30 2895 H 263.9 5.25436 4.57045 0
M  V30 2896 H 261.527 5.9449 4.738 0
M  V30 2897 N 263.102 -1.41638 0.69111 0
M  V30 2898 C 264.035 -2.28183 -0.0274913 0
M  V30 2899 C 265.013 -1.41984 -0.792424 0
M  V30 2900 O 266.197 -1.71415 -0.784169 0
M  V30 2901 C 263.324 -3.22135 -1.04628 0
M  V30 2902 C 262.37 -4.24848 -0.375037 0
M  V30 2903 S 263.203 -5.28231 0.879321 0
M  V30 2904 C 264.359 -6.25748 -0.137983 0
M  V30 2905 H 264.592 -2.88782 0.706553 0
M  V30 2906 H 262.125 -1.46709 0.481222 0
M  V30 2907 H 264.083 -3.76797 -1.62894 0
M  V30 2908 H 262.744 -2.6064 -1.75287 0
M  V30 2909 H 261.937 -4.90837 -1.14433 0
M  V30 2910 H 261.539 -3.73758 0.134434 0
M  V30 2911 H 263.831 -6.70188 -0.992659 0
M  V30 2912 H 264.774 -7.06417 0.487867 0
M  V30 2913 H 265.182 -5.62363 -0.490762 0
M  V30 2914 N 264.58 -0.43555 -1.51462 0
M  V30 2915 C 265.527 0.376797 -2.27703 0
M  V30 2916 C 266.497 1.01838 -1.31219 0
M  V30 2917 O 267.682 1.03762 -1.60119 0
M  V30 2918 C 264.822 1.47301 -3.12084 0
M  V30 2919 C 263.935 0.849744 -4.2356 0
M  V30 2920 C 263.07 1.92086 -4.95254 0
M  V30 2921 C 262.109 1.27593 -5.98654 0
M  V30 2922 N 261.246 2.28833 -6.63762 0
M  V30 2923 H 266.086 -0.279734 -2.96684 0
M  V30 2924 H 263.623 -0.149795 -1.46335 0
M  V30 2925 H 265.581 2.11984 -3.59331 0
M  V30 2926 H 264.211 2.0992 -2.45221 0
M  V30 2927 H 263.263 0.0912529 -3.80291 0
M  V30 2928 H 264.575 0.338878 -4.97648 0
M  V30 2929 H 263.729 2.64435 -5.46039 0
M  V30 2930 H 262.468 2.46545 -4.20793 0
M  V30 2931 H 261.473 0.537893 -5.47162 0
M  V30 2932 H 262.698 0.738693 -6.7507 0
M  V30 2933 H 260.644 2.82375 -5.92115 0
M  V30 2934 H 260.561 1.82632 -7.33608 0
M  V30 2935 H 261.829 3.00671 -7.19178 0
M  V30 2936 N 266.058 1.56714 -0.166846 0
M  V30 2937 C 267.286 2.0112 0.485644 0
M  V30 2938 C 267.701 1.04705 1.57106 0
M  V30 2939 O 267.058 0.0471923 1.82439 0
M  V30 2940 C 267.109 3.45361 1.06808 0
M  V30 2941 O 266.83 4.38092 0.0259995 0
M  V30 2942 C 268.331 4.05145 1.79924 0
M  V30 2943 H 265.551 0.65931 0.124704 0
M  V30 2944 H 268.095 2.02746 -0.267262 0
M  V30 2945 H 266.25 3.44524 1.7715 0
M  V30 2946 H 266.664 5.22519 0.455398 0
M  V30 2947 H 268.138 5.08009 2.15942 0
M  V30 2948 H 268.615 3.46982 2.69258 0
M  V30 2949 H 269.221 4.09672 1.14234 0
M  V30 2950 N 267.536 -0.106894 1.57237 0
M  V30 2951 C 268.499 -1.11466 2.0027 0
M  V30 2952 C 269.499 -1.33623 0.894519 0
M  V30 2953 O 270.689 -1.29935 1.16028 0
M  V30 2954 C 267.821 -2.46646 2.35327 0
M  V30 2955 H 269.014 -0.744516 2.90512 0
M  V30 2956 H 266.567 -0.351576 1.52295 0
M  V30 2957 H 267.302 -2.88558 1.48003 0
M  V30 2958 H 267.087 -2.31915 3.16161 0
M  V30 2959 H 268.577 -3.19151 2.69318 0
M  V30 2960 N 269.014 -1.53014 -0.377408 0
M  V30 2961 C 269.946 -1.74884 -1.48149 0
M  V30 2962 C 270.959 -0.629433 -1.5014 0
M  V30 2963 O 272.148 -0.905416 -1.53833 0
M  V30 2964 C 269.248 -1.80299 -2.86959 0
M  V30 2965 C 268.421 -3.09776 -3.08801 0
M  V30 2966 C 267.48 -3.06586 -4.27658 0
M  V30 2967 O 266.506 -3.80419 -4.23403 0
M  V30 2968 N 267.708 -2.26578 -5.34455 0
M  V30 2969 H 270.473 -2.70147 -1.29771 0
M  V30 2970 H 268.034 -1.51646 -0.56703 0
M  V30 2971 H 270.026 -1.75657 -3.64591 0
M  V30 2972 H 268.596 -0.92372 -2.98641 0
M  V30 2973 H 267.816 -3.27815 -2.18931 0
M  V30 2974 H 269.104 -3.95366 -3.20255 0
M  V30 2975 H 268.502 -1.66081 -5.40771 0
M  V30 2976 H 267.059 -2.27766 -6.10709 0
M  V30 2977 N 270.492 0.636531 -1.44174 0
M  V30 2978 C 271.455 1.73063 -1.50273 0
M  V30 2979 C 272.455 1.56113 -0.385397 0
M  V30 2980 O 273.645 1.61707 -0.64781 0
M  V30 2981 C 270.777 3.12096 -1.37145 0
M  V30 2982 H 271.97 1.69031 -2.47727 0
M  V30 2983 H 269.523 0.849706 -1.31186 0
M  V30 2984 H 270.258 3.21728 -0.407636 0
M  V30 2985 H 270.043 3.25805 -2.18159 0
M  V30 2986 H 271.533 3.91846 -1.44382 0
M  V30 2987 N 271.97 1.30982 0.876444 0
M  V30 2988 C 272.92 1.14688 1.97055 0
M  V30 2989 C 273.904 0.0596593 1.60789 0
M  V30 2990 O 275.096 0.283892 1.74708 0
M  V30 2991 C 272.225 0.849627 3.3262 0
M  V30 2992 C 271.311 1.97752 3.75173 0
M  V30 2993 N 271.702 3.22384 3.89746 0
M  V30 2994 C 270 1.8758 4.04635 0
M  V30 2995 C 270.701 3.96121 4.25985 0
M  V30 2996 N 269.677 3.24237 4.36315 0
M  V30 2997 H 273.479 2.09204 2.06424 0
M  V30 2998 H 270.993 1.22445 1.06682 0
M  V30 2999 H 272.99 0.713895 4.10742 0
M  V30 3000 H 271.65 -0.087376 3.24582 0
M  V30 3001 H 272.661 3.57575 3.74647 0
M  V30 3002 H 269.338 1.01303 4.05024 0
M  V30 3003 H 270.728 5.03491 4.44911 0
M  V30 3004 N 273.449 -1.08991 1.13837 0
M  V30 3005 C 274.865 -1.33312 0.877506 0
M  V30 3006 C 275.065 -1.95587 -0.48456 0
M  V30 3007 O 274.121 -2.20509 -1.23013 0
M  V30 3008 C 275.434 -2.24045 2.0056 0
M  V30 3009 C 276.982 -2.37542 2.03821 0
M  V30 3010 C 277.457 -3.31614 3.15905 0
M  V30 3011 N 278.948 -3.39189 3.15445 0
M  V30 3012 C 279.683 -4.11992 3.98811 0
M  V30 3013 N 279.179 -4.87553 4.92203 0
M  V30 3014 N 280.972 -4.07762 3.86894 0
M  V30 3015 H 273.123 -0.669456 2.01574 0
M  V30 3016 H 275.386 -0.357482 0.878015 0
M  V30 3017 H 275.092 -1.85521 2.98789 0
M  V30 3018 H 274.966 -3.24466 1.92359 0
M  V30 3019 H 277.353 -2.75327 1.06202 0
M  V30 3020 H 277.434 -1.36884 2.16093 0
M  V30 3021 H 277.078 -2.94551 4.13766 0
M  V30 3022 H 277.008 -4.32186 3.0087 0
M  V30 3023 H 279.499 -2.85314 2.47799 0
M  V30 3024 H 279.812 -5.40549 5.52292 0
M  V30 3025 H 278.157 -4.86627 4.96205 0
M  V30 3026 H 281.348 -3.47833 3.13257 0
M  V30 3027 H 281.521 -4.64238 4.52092 0
M  V30 3028 N 274.927 -0.932562 -1.27047 0
M  V30 3029 C 276.343 -0.633544 -1.46487 0
M  V30 3030 C 276.543 0.815746 -1.84249 0
M  V30 3031 O 275.599 1.59319 -1.95892 0
M  V30 3032 C 276.912 -1.58758 -2.55375 0
M  V30 3033 C 278.46 -1.59634 -2.69232 0
M  V30 3034 C 278.935 -2.53747 -3.81283 0
M  V30 3035 N 280.426 -2.51982 -3.88664 0
M  V30 3036 C 281.161 -3.21491 -4.74796 0
M  V30 3037 N 280.657 -4.00395 -5.65381 0
M  V30 3038 N 282.45 -3.10485 -4.68568 0
M  V30 3039 H 274.601 -1.86946 -1.00821 0
M  V30 3040 H 276.864 -0.802897 -0.504044 0
M  V30 3041 H 276.57 -2.62172 -2.34432 0
M  V30 3042 H 276.444 -1.33301 -3.52861 0
M  V30 3043 H 278.831 -0.569488 -2.89553 0
M  V30 3044 H 278.912 -1.89142 -1.72218 0
M  V30 3045 H 278.556 -3.56545 -3.61715 0
M  V30 3046 H 278.486 -2.21532 -4.77735 0
M  V30 3047 H 280.977 -1.94681 -3.23895 0
M  V30 3048 H 281.29 -4.50406 -6.27976 0
M  V30 3049 H 279.635 -4.04498 -5.65161 0
M  V30 3050 H 282.826 -2.48331 -3.96799 0
M  V30 3051 H 282.999 -3.64925 -5.35475 0
M  V30 3052 N 276.405 1.4127 -0.698611 0
M  V30 3053 C 277.368 2.29158 -0.044132 0
M  V30 3054 C 278.368 1.44529 0.704841 0
M  V30 3055 O 279.558 1.65643 0.539276 0
M  V30 3056 C 276.69 3.27459 0.947809 0
M  V30 3057 H 277.883 2.88529 -0.817994 0
M  V30 3058 H 275.436 1.49307 -0.46228 0
M  V30 3059 H 276.171 2.73073 1.74933 0
M  V30 3060 H 275.956 3.8991 0.41385 0
M  V30 3061 H 277.446 3.93311 1.40344 0
M  V30 3062 N 277.883 0.443576 1.51229 0
M  V30 3063 C 278.793 -0.370721 2.31652 0
M  V30 3064 C 279.809 -1.02186 1.40833 0
M  V30 3065 O 280.985 -1.01586 1.73903 0
M  V30 3066 C 278.05 -1.45376 3.14749 0
M  V30 3067 C 277.111 -0.822099 4.21355 0
M  V30 3068 C 276.344 -1.85353 5.0048 0
M  V30 3069 O 276.567 -3.07656 4.80316 0
M  V30 3070 O 275.501 -1.4406 5.84406 0
M  V30 3071 H 279.327 0.286002 3.0235 0
M  V30 3072 H 276.912 0.20598 1.47973 0
M  V30 3073 H 278.794 -2.08173 3.66391 0
M  V30 3074 H 277.469 -2.09445 2.46809 0
M  V30 3075 H 276.376 -0.155909 3.73775 0
M  V30 3076 H 277.709 -0.224797 4.91686 0
M  V30 3077 N 279.361 -1.56624 0.175154 0
M  V30 3078 C 280.589 -2.01374 -0.474971 0
M  V30 3079 C 281.004 -1.05537 -1.56548 0
M  V30 3080 O 280.361 -0.0568668 -1.82411 0
M  V30 3081 C 280.412 -3.45923 -1.04975 0
M  V30 3082 O 280.133 -4.381 -0.00276605 0
M  V30 3083 C 281.634 -4.06093 -1.77773 0
M  V30 3084 H 278.854 -0.659962 -0.121206 0
M  V30 3085 H 281.398 -2.02601 0.27801 0
M  V30 3086 H 279.553 -3.45458 -1.75321 0
M  V30 3087 H 279.967 -5.22753 -0.427681 0
M  V30 3088 H 281.441 -5.09147 -2.13245 0
M  V30 3089 H 281.918 -3.48405 -2.67414 0
M  V30 3090 H 282.524 -4.10272 -1.12059 0
M  V30 3091 N 280.839 0.0985539 -1.57292 0
M  V30 3092 C 281.769 1.12064 -2.04851 0
M  V30 3093 C 282.75 1.41981 -0.936767 0
M  V30 3094 O 283.935 1.52071 -1.20781 0
M  V30 3095 C 281.065 2.44144 -2.47004 0
M  V30 3096 C 280.019 2.28643 -3.6181 0
M  V30 3097 C 279.345 3.65869 -3.89929 0
M  V30 3098 C 280.645 1.72986 -4.92822 0
M  V30 3099 H 282.339 0.724979 -2.9049 0
M  V30 3100 H 279.885 0.34729 -1.39749 0
M  V30 3101 H 281.838 3.15914 -2.78884 0
M  V30 3102 H 280.562 2.85639 -1.5836 0
M  V30 3103 H 279.221 1.59318 -3.30172 0
M  V30 3104 H 278.869 4.04885 -2.98458 0
M  V30 3105 H 278.569 3.56344 -4.67218 0
M  V30 3106 H 280.093 4.39112 -4.2428 0
M  V30 3107 H 281.507 2.34593 -5.23105 0
M  V30 3108 H 279.904 1.74229 -5.74251 0
M  V30 3109 H 280.974 0.689007 -4.7998 0
M  V30 3110 N 282.317 1.53212 0.369288 0
M  V30 3111 C 283.566 1.68436 1.10961 0
M  V30 3112 C 283.879 0.440738 1.9057 0
M  V30 3113 O 285.085 0.473446 2.6734 0
M  V30 3114 C 283.541 2.97744 2.0218 0
M  V30 3115 C 283.149 4.29355 1.279 0
M  V30 3116 C 284.893 3.22334 2.76226 0
M  V30 3117 C 282.8 5.49755 2.17999 0
M  V30 3118 H 281.73 0.627568 0.41794 0
M  V30 3119 H 284.381 1.79713 0.370884 0
M  V30 3120 H 282.763 2.8026 2.79768 0
M  V30 3121 H 283.937 4.57458 0.554007 0
M  V30 3122 H 282.252 4.11179 0.657311 0
M  V30 3123 H 284.849 4.09471 3.43857 0
M  V30 3124 H 285.192 2.38238 3.41392 0
M  V30 3125 H 285.725 3.40475 2.05723 0
M  V30 3126 H 282.464 6.36318 1.57417 0
M  V30 3127 H 281.984 5.25937 2.88359 0
M  V30 3128 H 283.663 5.84401 2.77641 0
M  V30 3129 N 283.795 -0.628877 1.44509 0
M  V30 3130 C 285.042 -1.38839 1.47411 0
M  V30 3131 C 285.37 -1.94202 0.10757 0
M  V30 3132 O 284.625 -1.74243 -0.890947 0
M  V30 3133 C 284.924 -2.56995 2.48371 0
M  V30 3134 C 284.59 -2.19908 3.93639 0
M  V30 3135 C 283.252 -2.09506 4.33198 0
M  V30 3136 C 285.604 -1.9064 4.85083 0
M  V30 3137 C 282.932 -1.68028 5.62124 0
M  V30 3138 C 285.284 -1.50655 6.14399 0
M  V30 3139 C 283.948 -1.38796 6.5291 0
M  V30 3140 H 283.218 -0.508048 0.539414 0
M  V30 3141 H 285.865 -0.712913 1.77735 0
M  V30 3142 H 284.17 -3.29786 2.11538 0
M  V30 3143 H 285.867 -3.15223 2.47861 0
M  V30 3144 H 282.457 -2.28922 3.62343 0
M  V30 3145 H 286.641 -1.97585 4.55273 0
M  V30 3146 H 281.897 -1.57452 5.90778 0
M  V30 3147 H 286.071 -1.27048 6.84713 0
M  V30 3148 H 283.698 -1.06429 7.52713 0
M  V30 3149 N 285.273 -1.31445 -0.869486 0
M  V30 3150 C 286.498 -1.24256 -1.66058 0
M  V30 3151 C 286.923 0.188928 -1.87149 0
M  V30 3152 O 286.281 1.13522 -1.4136 0
M  V30 3153 C 286.329 -1.9924 -3.00559 0
M  V30 3154 O 285.433 -1.33007 -3.90362 0
M  V30 3155 H 284.774 -0.428973 -0.506831 0
M  V30 3156 H 287.304 -1.73521 -1.08404 0
M  V30 3157 H 287.314 -2.08854 -3.50491 0
M  V30 3158 H 285.989 -3.03342 -2.84528 0
M  V30 3159 H 284.566 -1.31848 -3.48813 0
M  V30 3160 N 286.751 1.08385 -1.14413 0
M  V30 3161 C 288.167 1.32844 -0.884563 0
M  V30 3162 C 288.367 1.95841 0.474181 0
M  V30 3163 O 287.423 2.21158 1.21842 0
M  V30 3164 C 288.736 2.22978 -2.01745 0
M  V30 3165 C 290.284 2.36458 -2.05077 0
M  V30 3166 C 290.759 3.29934 -3.1766 0
M  V30 3167 N 292.25 3.37511 -3.17239 0
M  V30 3168 C 292.985 4.09871 -4.0099 0
M  V30 3169 N 292.481 4.84936 -4.94781 0
M  V30 3170 N 294.274 4.05704 -3.89051 0
M  V30 3171 H 286.425 0.658756 -2.01926 0
M  V30 3172 H 288.688 0.352821 -0.879899 0
M  V30 3173 H 288.394 1.83934 -2.99769 0
M  V30 3174 H 288.268 3.23441 -1.94077 0
M  V30 3175 H 290.655 2.7476 -1.0766 0
M  V30 3176 H 290.736 1.35736 -2.16816 0
M  V30 3177 H 290.38 2.92352 -4.15322 0
M  V30 3178 H 290.31 4.30584 -3.03158 0
M  V30 3179 H 292.801 2.83996 -2.49308 0
M  V30 3180 H 293.114 5.37612 -5.55151 0
M  V30 3181 H 291.459 4.83988 -4.98779 0
M  V30 3182 H 294.65 3.46167 -3.15097 0
M  V30 3183 H 294.823 4.61834 -4.54547 0
M  V30 3184 N 288.23 0.939286 1.26551 0
M  V30 3185 C 289.18 0.418284 2.2413 0
M  V30 3186 C 290.164 -0.483935 1.5345 0
M  V30 3187 O 291.356 -0.319489 1.74093 0
M  V30 3188 C 288.485 -0.31709 3.41832 0
M  V30 3189 C 287.571 0.602311 4.19801 0
M  V30 3190 N 287.962 1.72726 4.75394 0
M  V30 3191 C 286.26 0.407534 4.44134 0
M  V30 3192 C 286.961 2.30004 5.34297 0
M  V30 3193 N 285.937 1.58828 5.1988 0
M  V30 3194 H 289.739 1.27705 2.64705 0
M  V30 3195 H 287.253 0.794929 1.41614 0
M  V30 3196 H 289.25 -0.707364 4.10855 0
M  V30 3197 H 287.91 -1.17264 3.02786 0
M  V30 3198 H 288.921 2.10944 4.72994 0
M  V30 3199 H 285.598 -0.406406 4.15517 0
M  V30 3200 H 286.988 3.24778 5.88191 0
M  V30 3201 N 289.708 -1.40897 0.706093 0
M  V30 3202 C 290.671 -2.29131 0.0562841 0
M  V30 3203 C 291.671 -1.44901 -0.697166 0
M  V30 3204 O 292.861 -1.65926 -0.530484 0
M  V30 3205 C 289.993 -3.27957 -0.93043 0
M  V30 3206 H 291.186 -2.88091 0.833284 0
M  V30 3207 H 288.739 -1.4906 0.470192 0
M  V30 3208 H 289.474 -2.73997 -1.73482 0
M  V30 3209 H 289.259 -3.90124 -0.393166 0
M  V30 3210 H 290.749 -3.94049 -1.38256 0
M  V30 3211 N 291.186 -0.45159 -1.50991 0
M  V30 3212 C 292.432 0.110237 -2.025 0
M  V30 3213 C 292.765 1.41109 -1.33424 0
M  V30 3214 O 292.04 1.89135 -0.453659 0
M  V30 3215 C 292.323 0.314271 -3.58726 0
M  V30 3216 C 292.176 -1.00623 -4.38401 0
M  V30 3217 C 293.495 1.07767 -4.26702 0
M  V30 3218 H 290.614 0.0385897 -0.735989 0
M  V30 3219 H 293.256 -0.593374 -1.80497 0
M  V30 3220 H 291.406 0.913601 -3.77605 0
M  V30 3221 H 293.078 -1.64064 -4.31139 0
M  V30 3222 H 291.321 -1.6075 -4.02917 0
M  V30 3223 H 291.992 -0.817341 -5.45915 0
M  V30 3224 H 294.468 0.56986 -4.12179 0
M  V30 3225 H 293.344 1.18921 -5.35863 0
M  V30 3226 H 293.605 2.10939 -3.88532 0
M  V30 3227 N 292.664 1.56529 -0.183458 0
M  V30 3228 C 293.913 1.96419 0.458511 0
M  V30 3229 C 294.226 1.0727 1.63562 0
M  V30 3230 O 295.432 1.36893 2.34462 0
M  V30 3231 C 293.888 3.49298 0.867122 0
M  V30 3232 C 293.496 4.47092 -0.285057 0
M  V30 3233 C 295.24 3.97983 1.47683 0
M  V30 3234 C 293.147 5.91225 0.143862 0
M  V30 3235 H 292.077 0.733394 0.175071 0
M  V30 3236 H 294.728 1.81448 -0.273624 0
M  V30 3237 H 293.11 3.59731 1.65559 0
M  V30 3238 H 294.284 4.48383 -1.0625 0
M  V30 3239 H 292.599 4.08535 -0.805503 0
M  V30 3240 H 295.196 5.03134 1.80999 0
M  V30 3241 H 295.539 3.41618 2.37914 0
M  V30 3242 H 296.072 3.90617 0.752562 0
M  V30 3243 H 292.811 6.5149 -0.723974 0
M  V30 3244 H 292.331 5.93214 0.886413 0
M  V30 3245 H 294.01 6.44362 0.583628 0
M  V30 3246 N 294.142 -0.090211 1.57342 0
M  V30 3247 C 295.105 -1.09335 2.01441 0
M  V30 3248 C 296.105 -1.32666 0.908641 0
M  V30 3249 O 297.295 -1.28697 1.174 0
M  V30 3250 C 294.427 -2.44136 2.3793 0
M  V30 3251 H 295.62 -0.713662 2.91285 0
M  V30 3252 H 293.173 -0.335404 1.52659 0
M  V30 3253 H 293.908 -2.86972 1.51055 0
M  V30 3254 H 293.693 -2.28548 3.18603 0
M  V30 3255 H 295.183 -3.16277 2.72688 0
M  V30 3256 N 295.62 -1.53406 -0.361157 0
M  V30 3257 C 296.866 -1.70054 -1.10496 0
M  V30 3258 C 297.199 -0.453278 -1.88836 0
M  V30 3259 O 296.474 0.5495 -1.86576 0
M  V30 3260 C 296.757 -2.95317 -2.06058 0
M  V30 3261 C 296.61 -4.3021 -1.31298 0
M  V30 3262 C 297.929 -3.16193 -3.06121 0
M  V30 3263 H 295.048 -0.618799 -0.400321 0
M  V30 3264 H 297.69 -1.86052 -0.385318 0
M  V30 3265 H 295.84 -2.81809 -2.67425 0
M  V30 3266 H 297.512 -4.55538 -0.726807 0
M  V30 3267 H 295.755 -4.29421 -0.614853 0
M  V30 3268 H 296.426 -5.14 -2.01265 0
M  V30 3269 H 298.902 -3.28916 -2.5486 0
M  V30 3270 H 297.778 -4.05266 -3.70204 0
M  V30 3271 H 298.039 -2.31676 -3.76535 0
M  V30 3272 N 297.098 0.621204 -1.44841 0
M  V30 3273 C 298.514 0.94048 -1.28946 0
M  V30 3274 C 298.714 2.00154 -0.23249 0
M  V30 3275 O 297.77 2.49651 0.378237 0
M  V30 3276 C 299.083 1.39433 -2.66419 0
M  V30 3277 C 300.631 1.50927 -2.74208 0
M  V30 3278 C 301.106 1.99692 -4.12174 0
M  V30 3279 N 302.597 2.06947 -4.144 0
M  V30 3280 C 303.332 2.45871 -5.1801 0
M  V30 3281 N 302.828 2.83862 -6.31977 0
M  V30 3282 N 304.621 2.46092 -5.05366 0
M  V30 3283 H 296.772 -0.0803548 -2.12248 0
M  V30 3284 H 299.035 0.0266913 -0.947624 0
M  V30 3285 H 298.741 0.688925 -3.44887 0
M  V30 3286 H 298.615 2.36347 -2.93973 0
M  V30 3287 H 301.002 2.20561 -1.96053 0
M  V30 3288 H 301.083 0.523627 -2.50383 0
M  V30 3289 H 300.727 1.30649 -4.90809 0
M  V30 3290 H 300.657 2.99146 -4.33381 0
M  V30 3291 H 303.148 1.80232 -3.32152 0
M  V30 3292 H 303.461 3.12405 -7.0684 0
M  V30 3293 H 301.806 2.8159 -6.35399 0
M  V30 3294 H 304.997 2.1581 -4.15384 0
M  V30 3295 H 305.17 2.76102 -5.86235 0
M  V30 3296 N 298.576 1.31904 0.862503 0
M  V30 3297 C 299.524 1.20125 1.9918 0
M  V30 3298 C 300.518 0.107824 1.69056 0
M  V30 3299 O 301.724 0.270223 1.7796 0
M  V30 3300 H 298.099 0.372148 0.65346 0
M  V30 3301 H 300.07 2.15652 2.06244 0
M  V30 3302 C 298.819 0.933099 3.34946 0
M  V30 3303 H 298.142 1.76664 3.5865 0
M  V30 3304 H 299.582 0.890892 4.14535 0
M  V30 3305 C 298.041 -0.364172 3.34926 0
M  V30 3306 O 298.571 -1.37858 3.77304 0
M  V30 3307 N 296.777 -0.383362 2.8806 0
M  V30 3308 H 296.324 0.442651 2.53768 0
M  V30 3309 H 296.282 -1.25123 2.8843 0
M  V30 3310 N 300.054 -1.07777 1.14986 0
M  V30 3311 C 301.302 -1.79934 0.920235 0
M  V30 3312 C 301.623 -1.86955 -0.554336 0
M  V30 3313 O 300.893 -1.36731 -1.40291 0
M  V30 3314 H 299.473 -0.666424 0.337473 0
M  V30 3315 H 302.135 -1.3027 1.44968 0
M  V30 3316 H 301.231 -2.82539 1.32583 0
M  V30 3317 N 301.532 -0.945985 -1.26051 0
M  V30 3318 C 302.479 -0.45809 -2.26208 0
M  V30 3319 C 303.449 0.484816 -1.58867 0
M  V30 3320 O 304.634 0.399969 -1.86561 0
M  V30 3321 C 301.774 0.266131 -3.44072 0
M  V30 3322 C 300.887 -0.713005 -4.26075 0
M  V30 3323 C 300.022 0.0329013 -5.3119 0
M  V30 3324 C 299.061 -0.93774 -6.04874 0
M  V30 3325 N 298.198 -0.223274 -7.01745 0
M  V30 3326 H 303.038 -1.3171 -2.67313 0
M  V30 3327 H 300.575 -0.66069 -1.31428 0
M  V30 3328 H 302.533 0.702514 -4.11243 0
M  V30 3329 H 301.163 1.08925 -3.03867 0
M  V30 3330 H 300.215 -1.26789 -3.58648 0
M  V30 3331 H 301.527 -1.45406 -4.77136 0
M  V30 3332 H 300.681 0.528335 -6.04395 0
M  V30 3333 H 299.42 0.806801 -4.8098 0
M  V30 3334 H 298.425 -1.44425 -5.30492 0
M  V30 3335 H 299.65 -1.71172 -6.57173 0
M  V30 3336 H 297.596 0.532046 -6.53839 0
M  V30 3337 H 297.513 -0.90357 -7.50581 0
M  V30 3338 H 298.781 0.250907 -7.79096 0
M  V30 3339 N 303.011 1.40521 -0.713556 0
M  V30 3340 C 303.941 2.33381 -0.0743864 0
M  V30 3341 C 304.922 1.52784 0.747735 0
M  V30 3342 O 306.107 1.81258 0.697071 0
M  V30 3343 C 303.237 3.36748 0.849598 0
M  V30 3344 C 302.191 4.27793 0.133247 0
M  V30 3345 C 301.517 5.21679 1.17281 0
M  V30 3346 C 302.817 5.12415 -1.01134 0
M  V30 3347 H 304.511 2.87081 -0.850007 0
M  V30 3348 H 302.057 1.38034 -0.410201 0
M  V30 3349 H 304.01 4.00648 1.30612 0
M  V30 3350 H 302.734 2.81439 1.65709 0
M  V30 3351 H 301.393 3.65342 -0.303426 0
M  V30 3352 H 301.041 4.62677 1.9733 0
M  V30 3353 H 300.741 5.83435 0.698397 0
M  V30 3354 H 302.265 5.88456 1.62947 0
M  V30 3355 H 303.679 5.69781 -0.634274 0
M  V30 3356 H 302.076 5.83203 -1.41399 0
M  V30 3357 H 303.146 4.48514 -1.84292 0
M  V30 3358 N 304.489 0.459591 1.5075 0
M  V30 3359 C 305.729 -0.09824 2.04164 0
M  V30 3360 C 306.093 -1.3801 1.33481 0
M  V30 3361 O 307.294 -2.01959 1.77387 0
M  V30 3362 C 305.565 -0.289467 3.56226 0
M  V30 3363 S 307.124 -0.807507 4.31306 0
M  V30 3364 H 303.942 -0.0213845 0.710678 0
M  V30 3365 H 306.544 0.624098 1.85271 0
M  V30 3366 H 305.248 0.649461 4.05229 0
M  V30 3367 H 304.779 -1.03825 3.79452 0
M  V30 3368 H 306.794 -2.0824 4.50389 0
M  V30 3369 N 305.967 -1.56429 0.191757 0
M  V30 3370 C 307.214 -1.97485 -0.447891 0
M  V30 3371 C 307.542 -1.07852 -1.61859 0
M  V30 3372 O 306.797 -0.116903 -1.95351 0
M  V30 3373 C 307.096 -3.44449 -0.953384 0
M  V30 3374 C 306.762 -4.50781 0.103586 0
M  V30 3375 C 305.424 -4.79584 0.394023 0
M  V30 3376 C 307.776 -5.1471 0.819946 0
M  V30 3377 C 305.104 -5.69607 1.40585 0
M  V30 3378 C 307.456 -6.05827 1.8209 0
M  V30 3379 C 306.12 -6.32987 2.11857 0
M  V30 3380 H 305.39 -0.722648 -0.163895 0
M  V30 3381 H 308.037 -1.89322 0.28802 0
M  V30 3382 H 306.342 -3.49666 -1.76751 0
M  V30 3383 H 308.039 -3.73569 -1.45765 0
M  V30 3384 H 304.629 -4.28394 -0.132951 0
M  V30 3385 H 308.813 -4.92552 0.608789 0
M  V30 3386 H 304.069 -5.88926 1.64243 0
M  V30 3387 H 308.243 -6.54424 2.38123 0
M  V30 3388 H 305.87 -7.02544 2.90407 0
M  V30 3389 N 307.445 0.0818655 -1.57387 0
M  V30 3390 C 308.378 1.12986 -1.98266 0
M  V30 3391 C 309.356 1.38123 -0.857954 0
M  V30 3392 O 310.54 1.51663 -1.1194 0
M  V30 3393 C 307.667 2.47632 -2.31076 0
M  V30 3394 C 306.713 2.38693 -3.53452 0
M  V30 3395 S 307.546 1.79071 -5.04672 0
M  V30 3396 C 308.702 3.15316 -5.40673 0
M  V30 3397 H 308.935 0.781435 -2.86846 0
M  V30 3398 H 306.468 0.290034 -1.51651 0
M  V30 3399 H 308.426 3.25089 -2.50654 0
M  V30 3400 H 307.087 2.79638 -1.43043 0
M  V30 3401 H 306.28 3.37964 -3.73893 0
M  V30 3402 H 305.882 1.69369 -3.33452 0
M  V30 3403 H 308.174 4.11613 -5.38127 0
M  V30 3404 H 309.117 2.99664 -6.41566 0
M  V30 3405 H 309.525 3.15457 -4.68132 0
M  V30 3406 N 308.923 1.53595 0.353017 0
M  V30 3407 C 310.17 1.70385 1.09431 0
M  V30 3408 C 310.498 0.462113 1.88931 0
M  V30 3409 O 309.753 -0.556074 1.87633 0
M  V30 3410 C 310.052 2.91313 2.07054 0
M  V30 3411 C 309.718 4.27308 1.43939 0
M  V30 3412 C 308.38 4.64287 1.26454 0
M  V30 3413 C 310.732 5.11829 0.983883 0
M  V30 3414 C 308.06 5.83412 0.620226 0
M  V30 3415 C 310.412 6.31611 0.353516 0
M  V30 3416 C 309.076 6.67293 0.166272 0
M  V30 3417 H 308.346 0.623484 0.400436 0
M  V30 3418 H 310.993 1.87799 0.374655 0
M  V30 3419 H 309.298 2.68463 2.85368 0
M  V30 3420 H 310.995 3.01497 2.64387 0
M  V30 3421 H 307.585 3.98198 1.58543 0
M  V30 3422 H 311.769 4.838 1.10685 0
M  V30 3423 H 307.025 6.09639 0.463681 0
M  V30 3424 H 311.199 6.964 -0.00757555 0
M  V30 3425 H 308.826 7.59461 -0.335047 0
M  V30 3426 N 310.401 -0.613514 1.45168 0
M  V30 3427 C 311.817 -0.933629 1.29443 0
M  V30 3428 C 312.017 -2.00028 0.243101 0
M  V30 3429 O 311.073 -2.49848 -0.364992 0
M  V30 3430 C 312.386 -1.38018 2.67155 0
M  V30 3431 C 313.934 -1.49471 2.75004 0
M  V30 3432 C 314.409 -1.97503 4.13227 0
M  V30 3433 N 315.9 -2.04746 4.15491 0
M  V30 3434 C 316.635 -2.43121 5.19307 0
M  V30 3435 N 316.131 -2.80506 6.33473 0
M  V30 3436 N 317.924 -2.43408 5.06664 0
M  V30 3437 H 310.075 0.0916097 2.12202 0
M  V30 3438 H 312.338 -0.0216655 0.947752 0
M  V30 3439 H 312.044 -0.670625 3.45247 0
M  V30 3440 H 311.918 -2.34784 2.95222 0
M  V30 3441 H 314.305 -2.19519 1.9722 0
M  V30 3442 H 314.386 -0.510342 2.50657 0
M  V30 3443 H 314.03 -1.28045 4.91495 0
M  V30 3444 H 313.96 -2.96843 4.34962 0
M  V30 3445 H 316.451 -1.78468 3.33103 0
M  V30 3446 H 316.764 -3.08652 7.08487 0
M  V30 3447 H 315.109 -2.78216 6.36884 0
M  V30 3448 H 318.3 -2.13604 4.16523 0
M  V30 3449 H 318.473 -2.72989 5.87691 0
M  V30 3450 N 311.879 -1.3236 -0.855495 0
M  V30 3451 C 313.125 -1.23054 -1.612 0
M  V30 3452 C 313.458 0.207404 -1.93089 0
M  V30 3453 O 312.733 1.14432 -1.57275 0
M  V30 3454 C 313.016 -2.08937 -2.93287 0
M  V30 3455 C 312.869 -3.61105 -2.68185 0
M  V30 3456 C 314.188 -1.94986 -3.94549 0
M  V30 3457 H 311.307 -0.448364 -0.584926 0
M  V30 3458 H 313.949 -1.62297 -0.987917 0
M  V30 3459 H 312.099 -1.75599 -3.46551 0
M  V30 3460 H 313.771 -4.04652 -2.21483 0
M  V30 3461 H 312.014 -3.83813 -2.02164 0
M  V30 3462 H 312.685 -4.16522 -3.62234 0
M  V30 3463 H 315.161 -2.24189 -3.5054 0
M  V30 3464 H 314.037 -2.57356 -4.84829 0
M  V30 3465 H 314.298 -0.917263 -4.3248 0
M  V30 3466 N 313.357 1.07166 -1.15556 0
M  V30 3467 C 314.605 1.79443 -0.929764 0
M  V30 3468 C 314.926 1.87246 0.544414 0
M  V30 3469 O 314.196 1.37473 1.39564 0
M  V30 3470 H 312.776 0.664625 -0.341003 0
M  V30 3471 H 315.438 1.29499 -1.45657 0
M  V30 3472 H 314.534 2.81832 -1.34079 0
M  V30 3473 N 314.835 0.952656 1.25548 0
M  V30 3474 C 316.112 0.523818 1.88456 0
M  V30 3475 C 316.492 -0.998871 1.85973 0
M  V30 3476 O 315.84 -1.86381 1.3219 0
M  V30 3477 C 316.05 1.0982 3.31271 0
M  V30 3478 C 317.398 1.17385 4.08051 0
M  V30 3479 O 318.422 1.04961 3.40384 0
M  V30 3480 O 317.281 1.36852 5.29088 0
M  V30 3481 H 314.375 0.172485 0.808813 0
M  V30 3482 H 316.921 1.04596 1.33633 0
M  V30 3483 H 315.693 2.1415 3.27499 0
M  V30 3484 H 315.316 0.559191 3.93648 0
M  V30 3485 N 316.313 -1.40141 0.720998 0
M  V30 3486 C 317.243 -2.33339 0.0867621 0
M  V30 3487 C 318.224 -1.53178 -0.739622 0
M  V30 3488 O 319.409 -1.81625 -0.687449 0
M  V30 3489 C 316.539 -3.37194 -0.831728 0
M  V30 3490 C 315.493 -4.27857 -0.110558 0
M  V30 3491 C 314.819 -5.22294 -1.14513 0
M  V30 3492 C 316.119 -5.11872 1.0385 0
M  V30 3493 H 317.813 -2.86626 0.865219 0
M  V30 3494 H 315.359 -1.37814 0.417516 0
M  V30 3495 H 317.312 -4.01335 -1.28485 0
M  V30 3496 H 316.036 -2.82314 -1.64214 0
M  V30 3497 H 314.695 -3.65176 0.322797 0
M  V30 3498 H 314.343 -4.63717 -1.94874 0
M  V30 3499 H 314.043 -5.83797 -0.667446 0
M  V30 3500 H 315.567 -5.89312 -1.59824 0
M  V30 3501 H 316.981 -5.69436 0.664482 0
M  V30 3502 H 315.378 -5.82445 1.4449 0
M  V30 3503 H 316.448 -4.4753 1.86668 0
M  V30 3504 N 317.792 -0.46758 -1.50504 0
M  V30 3505 C 319.208 -0.121533 -1.59137 0
M  V30 3506 C 319.408 1.3717 -1.47603 0
M  V30 3507 O 318.464 2.14464 -1.33272 0
M  V30 3508 C 319.777 -0.6686 -2.93173 0
M  V30 3509 C 321.325 -0.631716 -3.06559 0
M  V30 3510 C 321.8 -1.15627 -4.43164 0
M  V30 3511 N 323.291 -1.11553 -4.49567 0
M  V30 3512 C 324.026 -1.49195 -5.5365 0
M  V30 3513 N 323.522 -1.94269 -6.65005 0
M  V30 3514 N 325.315 -1.4082 -5.44175 0
M  V30 3515 H 317.466 -1.4388 -1.56245 0
M  V30 3516 H 319.729 -0.594784 -0.738198 0
M  V30 3517 H 319.435 -1.71453 -3.07078 0
M  V30 3518 H 319.309 -0.11021 -3.77039 0
M  V30 3519 H 321.696 0.405297 -2.92304 0
M  V30 3520 H 321.777 -1.22687 -2.24458 0
M  V30 3521 H 321.421 -2.1919 -4.58168 0
M  V30 3522 H 321.351 -0.537365 -5.23851 0
M  V30 3523 H 323.842 -0.784895 -3.69659 0
M  V30 3524 H 324.155 -2.21148 -7.40482 0
M  V30 3525 H 322.5 -1.98219 -6.66134 0
M  V30 3526 H 325.691 -1.0545 -4.56068 0
M  V30 3527 H 325.864 -1.70481 -6.25172 0
M  V30 3528 N 319.27 1.56325 -0.20005 0
M  V30 3529 C 320.217 2.1932 0.718833 0
M  V30 3530 C 321.187 1.14198 1.20615 0
M  V30 3531 O 322.372 1.42469 1.26914 0
M  V30 3532 C 319.512 2.86041 1.93066 0
M  V30 3533 C 318.625 4.05702 1.48425 0
M  V30 3534 C 317.76 4.60266 2.65196 0
M  V30 3535 C 316.799 5.72273 2.17185 0
M  V30 3536 N 315.936 6.21221 3.27152 0
M  V30 3537 H 320.776 2.97486 0.17489 0
M  V30 3538 H 318.313 1.46911 0.0745794 0
M  V30 3539 H 320.271 3.22897 2.64184 0
M  V30 3540 H 318.901 2.1043 2.44783 0
M  V30 3541 H 317.953 3.74475 0.668755 0
M  V30 3542 H 319.265 4.86699 1.09204 0
M  V30 3543 H 318.419 4.99453 3.4443 0
M  V30 3544 H 317.158 3.78386 3.07693 0
M  V30 3545 H 316.163 5.3261 1.36407 0
M  V30 3546 H 317.388 6.55974 1.75713 0
M  V30 3547 H 315.334 5.42263 3.69171 0
M  V30 3548 H 315.251 6.97284 2.92116 0
M  V30 3549 H 316.519 6.65063 4.06585 0
M  V30 3550 N 320.748 -0.0735177 1.57428 0
M  V30 3551 C 321.973 -0.789787 1.91774 0
M  V30 3552 C 322.398 -1.70413 0.796306 0
M  V30 3553 O 321.756 -1.79555 -0.250961 0
M  V30 3554 C 321.804 -1.5609 3.25067 0
M  V30 3555 O 320.908 -2.67144 3.14178 0
M  V30 3556 H 320.249 -0.215582 0.628029 0
M  V30 3557 H 322.779 -0.0422781 2.04556 0
M  V30 3558 H 322.789 -1.94052 3.58898 0
M  V30 3559 H 321.464 -0.890015 4.06265 0
M  V30 3560 H 320.041 -2.32052 2.91901 0
M  V30 3561 N 322.226 -1.5378 -0.344866 0
M  V30 3562 C 323.159 -1.7649 -1.4466 0
M  V30 3563 C 324.137 -0.613954 -1.50563 0
M  V30 3564 O 325.321 -0.84896 -1.683 0
M  V30 3565 C 322.448 -1.86235 -2.82903 0
M  V30 3566 C 321.494 -3.08375 -2.94631 0
M  V30 3567 S 322.327 -4.67457 -2.61236 0
M  V30 3568 C 323.483 -4.80079 -4.0159 0
M  V30 3569 H 323.716 -2.69661 -1.2518 0
M  V30 3570 H 321.249 -1.44632 -0.540455 0
M  V30 3571 H 323.207 -1.92535 -3.62547 0
M  V30 3572 H 321.868 -0.940786 -2.9968 0
M  V30 3573 H 321.061 -3.11865 -3.95925 0
M  V30 3574 H 320.663 -3.00294 -2.22934 0
M  V30 3575 H 322.955 -4.61407 -4.96094 0
M  V30 3576 H 323.898 -5.82168 -4.03095 0
M  V30 3577 H 324.306 -4.08544 -3.89554 0
M  V30 3578 N 323.704 0.605807 -1.45491 0
M  V30 3579 C 324.953 1.36086 -1.48874 0
M  V30 3580 C 325.266 1.95131 -0.135333 0
M  V30 3581 O 326.472 2.7146 -0.0468144 0
M  V30 3582 C 324.928 2.46518 -2.62215 0
M  V30 3583 C 324.536 1.93877 -4.03876 0
M  V30 3584 C 326.28 3.23512 -2.74846 0
M  V30 3585 C 324.187 3.01801 -5.08596 0
M  V30 3586 H 323.117 0.511497 -0.553974 0
M  V30 3587 H 325.768 0.649089 -1.71636 0
M  V30 3588 H 324.15 3.20388 -2.32739 0
M  V30 3589 H 325.324 1.26704 -4.43038 0
M  V30 3590 H 323.639 1.29622 -3.95711 0
M  V30 3591 H 326.236 4.04013 -3.50253 0
M  V30 3592 H 326.579 3.74631 -1.81542 0
M  V30 3593 H 327.112 2.56742 -3.03856 0
M  V30 3594 H 323.851 2.55597 -6.03614 0
M  V30 3595 H 323.371 3.67535 -4.74002 0
M  V30 3596 H 325.05 3.66152 -5.33424 0
M  V30 3597 N 325.182 1.32811 0.848464 0
M  V30 3598 C 326.431 1.23075 1.59798 0
M  V30 3599 C 326.744 -0.204419 1.94529 0
M  V30 3600 O 327.95 -0.423701 2.68173 0
M  V30 3601 C 326.406 2.15594 2.88179 0
M  V30 3602 C 326.014 3.64228 2.60849 0
M  V30 3603 C 327.758 2.14709 3.66197 0
M  V30 3604 C 325.665 4.48689 3.85269 0
M  V30 3605 H 324.595 0.457091 0.599653 0
M  V30 3606 H 327.246 1.57813 0.936342 0
M  V30 3607 H 325.628 1.73778 3.55833 0
M  V30 3608 H 326.802 4.14424 2.01467 0
M  V30 3609 H 325.117 3.67306 1.96151 0
M  V30 3610 H 327.714 2.75046 4.58534 0
M  V30 3611 H 328.057 1.13966 4.00397 0
M  V30 3612 H 328.59 2.54837 3.05455 0
M  V30 3613 H 325.329 5.5027 3.56207 0
M  V30 3614 H 324.849 4.03241 4.44024 0
M  V30 3615 H 326.528 4.62006 4.52946 0
M  V30 3616 N 326.66 -1.06551 1.16123 0
M  V30 3617 C 327.885 -1.83544 0.965735 0
M  V30 3618 C 328.31 -1.81843 -0.481102 0
M  V30 3619 O 327.668 -1.21732 -1.34354 0
M  V30 3620 C 327.716 -3.28169 1.49457 0
M  V30 3621 O 326.82 -4.0643 0.699157 0
M  V30 3622 H 326.161 -0.568026 0.343864 0
M  V30 3623 H 328.691 -1.34362 1.54299 0
M  V30 3624 H 328.701 -3.78992 1.51092 0
M  V30 3625 H 327.376 -3.28722 2.54784 0
M  V30 3626 H 325.953 -3.65216 0.7531 0
M  V30 3627 N 328.138 -0.959301 -1.25041 0
M  V30 3628 C 329.101 -0.487677 -2.23952 0
M  V30 3629 C 330.101 0.41119 -1.55454 0
M  V30 3630 O 331.291 0.207825 -1.72956 0
M  V30 3631 C 328.423 0.294807 -3.39623 0
M  V30 3632 H 329.616 -1.36198 -2.67189 0
M  V30 3633 H 327.169 -0.743042 -1.37508 0
M  V30 3634 H 327.904 1.18658 -3.01813 0
M  V30 3635 H 327.689 -0.35012 -3.90534 0
M  V30 3636 H 329.179 0.614089 -4.1306 0
M  V30 3637 N 329.616 1.39756 -0.72842 0
M  V30 3638 C 330.841 2.05472 -0.282159 0
M  V30 3639 C 331.266 1.54549 1.07221 0
M  V30 3640 O 330.624 0.686372 1.67805 0
M  V30 3641 C 330.672 3.59462 -0.286264 0
M  V30 3642 O 329.776 4.05918 0.728298 0
M  V30 3643 H 329.117 0.651226 -0.129618 0
M  V30 3644 H 331.647 1.78915 -0.992499 0
M  V30 3645 H 331.657 4.07798 -0.128373 0
M  V30 3646 H 330.332 3.95889 -1.27456 0
M  V30 3647 H 328.909 3.69012 0.537081 0
M  V30 3648 N 331.094 0.475555 1.50254 0
M  V30 3649 C 332.34 -0.0780073 2.0265 0
M  V30 3650 C 332.673 -1.38968 1.35652 0
M  V30 3651 O 331.948 -1.8839 0.483691 0
M  V30 3652 C 332.231 -0.257161 3.59181 0
M  V30 3653 C 332.084 1.07585 4.36744 0
M  V30 3654 C 333.403 -1.00965 4.28362 0
M  V30 3655 H 330.522 -0.0268758 0.73651 0
M  V30 3656 H 333.164 0.622015 1.7953 0
M  V30 3657 H 331.314 -0.853412 3.79011 0
M  V30 3658 H 332.986 1.70902 4.28474 0
M  V30 3659 H 331.229 1.6714 4.00308 0
M  V30 3660 H 331.9 0.904088 5.44546 0
M  V30 3661 H 334.376 -0.504214 4.13034 0
M  V30 3662 H 333.252 -1.10381 5.37687 0
M  V30 3663 H 333.513 -2.04731 3.91839 0
M  V30 3664 N 332.573 -1.56217 0.208337 0
M  V30 3665 C 333.989 -1.58919 -0.14729 0
M  V30 3666 C 334.189 -1.22486 -1.59998 0
M  V30 3667 O 333.245 -0.953849 -2.3379 0
M  V30 3668 C 334.558 -3.00236 0.167048 0
M  V30 3669 C 336.106 -3.12813 0.108219 0
M  V30 3670 C 336.581 -4.56284 0.396049 0
M  V30 3671 N 338.072 -4.61912 0.345142 0
M  V30 3672 C 338.807 -5.70837 0.541523 0
M  V30 3673 N 338.303 -6.88178 0.798968 0
M  V30 3674 N 340.096 -5.60091 0.474867 0
M  V30 3675 H 332.247 -1.78177 1.15614 0
M  V30 3676 H 334.51 -0.827555 0.462446 0
M  V30 3677 H 334.216 -3.31499 1.1748 0
M  V30 3678 H 334.09 -3.7354 -0.524184 0
M  V30 3679 H 336.477 -2.81354 -0.890157 0
M  V30 3680 H 336.558 -2.41866 0.832729 0
M  V30 3681 H 336.202 -4.88458 1.3918 0
M  V30 3682 H 336.132 -5.25439 -0.349502 0
M  V30 3683 H 338.623 -3.77589 0.153316 0
M  V30 3684 H 338.936 -7.67095 0.93727 0
M  V30 3685 H 337.281 -6.89953 0.836013 0
M  V30 3686 H 340.472 -4.67297 0.274064 0
M  V30 3687 H 340.645 -6.44917 0.631326 0
M  V30 3688 N 334.051 0.0651679 -1.57465 0
M  V30 3689 C 335.3 0.761916 -1.86756 0
M  V30 3690 C 335.613 1.78406 -0.801925 0
M  V30 3691 O 336.819 2.53084 -0.982885 0
M  V30 3692 C 335.275 1.40603 -3.31299 0
M  V30 3693 C 334.883 0.422115 -4.46007 0
M  V30 3694 C 336.627 2.08476 -3.69781 0
M  V30 3695 C 334.534 1.07252 -5.81593 0
M  V30 3696 H 333.464 0.288308 -0.696702 0
M  V30 3697 H 336.115 0.015344 -1.83494 0
M  V30 3698 H 334.497 2.20109 -3.29193 0
M  V30 3699 H 335.671 -0.343613 -4.59517 0
M  V30 3700 H 333.986 -0.152527 -4.16121 0
M  V30 3701 H 336.583 2.57925 -4.68379 0
M  V30 3702 H 336.926 2.88712 -2.99919 0
M  V30 3703 H 337.459 1.35792 -3.73905 0
M  V30 3704 H 334.198 0.310342 -6.54765 0
M  V30 3705 H 333.718 1.80895 -5.71872 0
M  V30 3706 H 335.397 1.59043 -6.27148 0
M  V30 3707 N 335.529 1.53961 0.336706 0
M  V30 3708 C 336.461 1.78751 1.4346 0
M  V30 3709 C 337.474 0.669019 1.48418 0
M  V30 3710 O 338.663 0.945884 1.51378 0
M  V30 3711 C 335.763 1.87844 2.82078 0
M  V30 3712 C 334.936 3.17854 3.00479 0
M  V30 3713 C 333.995 3.17816 4.19379 0
M  V30 3714 O 333.021 3.91511 4.13168 0
M  V30 3715 N 334.223 2.40669 5.2826 0
M  V30 3716 H 336.988 2.73493 1.22563 0
M  V30 3717 H 334.549 1.53096 0.526625 0
M  V30 3718 H 336.541 1.85261 3.59806 0
M  V30 3719 H 335.111 1.00257 2.96086 0
M  V30 3720 H 334.331 3.33504 2.10163 0
M  V30 3721 H 335.619 4.03718 3.0966 0
M  V30 3722 H 335.017 1.8036 5.36178 0
M  V30 3723 H 333.574 2.43877 6.04456 0
M  V30 3724 N 337.007 -0.598083 1.45811 0
M  V30 3725 C 338.253 -1.35882 1.50545 0
M  V30 3726 C 338.586 -1.93616 0.150445 0
M  V30 3727 O 337.861 -1.75604 -0.83628 0
M  V30 3728 C 338.144 -2.49966 2.59208 0
M  V30 3729 C 337.997 -1.97367 4.04186 0
M  V30 3730 C 339.316 -3.52068 2.64076 0
M  V30 3731 H 336.435 -0.492717 0.548087 0
M  V30 3732 H 339.077 -0.673319 1.77669 0
M  V30 3733 H 337.227 -3.08443 2.3621 0
M  V30 3734 H 338.899 -1.43466 4.38423 0
M  V30 3735 H 337.142 -1.283 4.14393 0
M  V30 3736 H 337.813 -2.79649 4.75921 0
M  V30 3737 H 340.289 -3.03448 2.84708 0
M  V30 3738 H 339.165 -4.2937 3.41954 0
M  V30 3739 H 339.426 -4.08304 1.69531 0
M  V30 3740 N 338.485 -1.33259 -0.841409 0
M  V30 3741 C 339.731 -1.24757 -1.59886 0
M  V30 3742 C 340.064 0.186913 -1.93298 0
M  V30 3743 O 339.339 1.12757 -1.5848 0
M  V30 3744 C 339.622 -2.12036 -2.91055 0
M  V30 3745 C 339.475 -3.63929 -2.6434 0
M  V30 3746 C 340.794 -1.9916 -3.92458 0
M  V30 3747 H 337.913 -0.454542 -0.580138 0
M  V30 3748 H 340.555 -1.63335 -0.970647 0
M  V30 3749 H 338.705 -1.79265 -3.44669 0
M  V30 3750 H 340.377 -4.06978 -2.17178 0
M  V30 3751 H 338.62 -3.85935 -1.98082 0
M  V30 3752 H 339.291 -4.20341 -3.57796 0
M  V30 3753 H 341.767 -2.27895 -3.48143 0
M  V30 3754 H 340.643 -2.62484 -4.82072 0
M  V30 3755 H 340.904 -0.963082 -4.31482 0
M  V30 3756 N 339.963 1.05934 -1.16686 0
M  V30 3757 C 340.91 2.13499 -0.876748 0
M  V30 3758 C 341.88 1.65162 0.176299 0
M  V30 3759 O 343.065 1.90757 0.0407143 0
M  V30 3760 C 340.205 3.42912 -0.387967 0
M  V30 3761 C 339.318 4.04964 -1.50426 0
M  V30 3762 C 338.453 5.22266 -0.970125 0
M  V30 3763 C 337.492 5.76309 -2.06238 0
M  V30 3764 N 336.629 6.84922 -1.54356 0
M  V30 3765 H 341.469 2.37654 -1.7979 0
M  V30 3766 H 339.006 1.16598 -0.896843 0
M  V30 3767 H 340.964 4.17111 -0.086186 0
M  V30 3768 H 339.594 3.18963 0.496235 0
M  V30 3769 H 338.646 3.28277 -1.92193 0
M  V30 3770 H 339.958 4.41122 -2.32836 0
M  V30 3771 H 339.112 6.03506 -0.621743 0
M  V30 3772 H 337.851 4.87564 -0.115377 0
M  V30 3773 H 336.856 4.93704 -2.41942 0
M  V30 3774 H 338.081 6.13062 -2.92115 0
M  V30 3775 H 336.027 6.52131 -0.711406 0
M  V30 3776 H 335.944 7.20043 -2.30379 0
M  V30 3777 H 337.212 7.69832 -1.22387 0
M  V30 3778 N 341.441 0.965919 1.2453 0
M  V30 3779 C 342.388 0.49402 2.25451 0
M  V30 3780 C 343.358 -0.45948 1.59618 0
M  V30 3781 O 344.543 -0.370238 1.87173 0
M  V30 3782 C 341.683 -0.211359 3.44452 0
M  V30 3783 C 340.796 0.7807 4.24887 0
M  V30 3784 C 339.931 0.0516105 5.31175 0
M  V30 3785 C 338.97 1.03385 6.03306 0
M  V30 3786 N 338.107 0.334887 7.01301 0
M  V30 3787 H 342.947 1.35946 2.65184 0
M  V30 3788 H 340.484 0.681515 1.3036 0
M  V30 3789 H 342.442 -0.637 4.12308 0
M  V30 3790 H 341.072 -1.04077 3.05562 0
M  V30 3791 H 340.124 1.32479 3.56586 0
M  V30 3792 H 341.436 1.52978 4.74762 0
M  V30 3793 H 340.59 -0.432114 6.05159 0
M  V30 3794 H 339.329 -0.730179 4.82203 0
M  V30 3795 H 338.334 1.52847 5.28127 0
M  V30 3796 H 339.559 1.81606 6.54367 0
M  V30 3797 H 337.505 -0.427959 6.54603 0
M  V30 3798 H 337.422 1.02287 7.49048 0
M  V30 3799 H 338.69 -0.126928 7.79397 0
M  V30 3800 N 342.919 -1.39368 0.735821 0
M  V30 3801 C 344.147 -2.04795 0.294393 0
M  V30 3802 C 344.562 -1.55478 -1.07107 0
M  V30 3803 O 343.919 -0.720038 -1.67695 0
M  V30 3804 C 343.97 -3.6035 0.288071 0
M  V30 3805 O 343.691 -4.07852 1.59963 0
M  V30 3806 C 345.192 -4.42976 -0.169422 0
M  V30 3807 H 342.412 -0.658571 0.128551 0
M  V30 3808 H 344.956 -1.78399 0.999701 0
M  V30 3809 H 343.111 -3.85645 -0.368355 0
M  V30 3810 H 343.525 -5.02181 1.51375 0
M  V30 3811 H 344.999 -5.51864 -0.122687 0
M  V30 3812 H 345.476 -4.22068 -1.21472 0
M  V30 3813 H 346.082 -4.22832 0.457469 0
M  V30 3814 N 344.397 -0.483516 -1.5 0
M  V30 3815 C 345.625 0.0644831 -2.06799 0
M  V30 3816 C 346.04 1.32399 -1.34596 0
M  V30 3817 O 345.397 1.77626 -0.418946 0
M  V30 3818 C 345.448 0.339927 -3.59898 0
M  V30 3819 O 345.169 -0.869635 -4.29382 0
M  V30 3820 C 346.67 0.933515 -4.33359 0
M  V30 3821 H 343.89 -0.0126333 -0.670881 0
M  V30 3822 H 346.434 -0.675864 -1.93009 0
M  V30 3823 H 344.589 1.03022 -3.7345 0
M  V30 3824 H 345.003 -0.62179 -5.20801 0
M  V30 3825 H 346.477 1.07593 -5.41413 0
M  V30 3826 H 346.954 1.92685 -3.94676 0
M  V30 3827 H 347.56 0.281221 -4.24369 0
M  V30 3828 N 345.875 1.56104 -0.216619 0
M  V30 3829 C 347.103 2.02563 0.421413 0
M  V30 3830 C 347.518 1.0965 1.53695 0
M  V30 3831 O 346.875 0.10521 1.82196 0
M  V30 3832 C 346.926 3.48584 0.957665 0
M  V30 3833 O 346.647 4.37953 -0.113389 0
M  V30 3834 C 348.148 4.10664 1.66943 0
M  V30 3835 H 345.368 0.662944 0.103665 0
M  V30 3836 H 347.912 2.01793 -0.331629 0
M  V30 3837 H 346.067 3.49985 1.661 0
M  V30 3838 H 346.481 5.23704 0.288932 0
M  V30 3839 H 347.955 5.14622 1.99671 0
M  V30 3840 H 348.432 3.55373 2.58083 0
M  V30 3841 H 349.038 4.13098 1.01142 0
M  V30 3842 N 347.353 -0.0568162 1.57498 0
M  V30 3843 C 348.764 -0.606858 1.76562 0
M  V30 3844 C 349.115 -1.77114 0.844094 0
M  V30 3845 O 348.24 -2.16376 0.0318911 0
M  V30 3846 C 348.835 -1.10766 3.20182 0
M  V30 3847 C 347.394 -1.60344 3.40539 0
M  V30 3848 C 346.541 -0.529311 2.72201 0
M  V30 3849 H 349.492 0.169393 1.57793 0
M  V30 3850 H 349.513 -1.97602 3.25167 0
M  V30 3851 H 349.025 -0.26006 3.87228 0
M  V30 3852 H 347.126 -2.47379 2.78629 0
M  V30 3853 H 347.239 -1.67006 4.4905 0
M  V30 3854 H 345.603 -0.977893 2.35179 0
M  V30 3855 H 346.386 0.308352 3.41912 0
M  V30 3856 N 348.832 -1.54138 -0.328536 0
M  V30 3857 C 349.742 -1.86192 -1.42723 0
M  V30 3858 C 350.758 -0.753382 -1.56844 0
M  V30 3859 O 351.934 -1.04718 -1.72035 0
M  V30 3860 C 348.999 -2.07824 -2.77507 0
M  V30 3861 C 348.06 -3.31641 -2.72603 0
M  V30 3862 C 347.293 -3.52232 -4.00959 0
M  V30 3863 O 347.516 -2.7636 -4.9898 0
M  V30 3864 O 346.45 -4.45699 -4.0452 0
M  V30 3865 H 350.276 -2.79608 -1.18547 0
M  V30 3866 H 347.861 -1.3998 -0.522104 0
M  V30 3867 H 349.743 -2.23411 -3.57303 0
M  V30 3868 H 348.418 -1.17596 -3.01584 0
M  V30 3869 H 347.325 -3.21444 -1.91376 0
M  V30 3870 H 348.658 -4.2191 -2.53481 0
M  V30 3871 N 350.31 0.590341 -1.46126 0
M  V30 3872 C 351.558 1.34616 -1.50742 0
M  V30 3873 C 351.879 1.94363 -0.157486 0
M  V30 3874 O 351.149 1.78136 0.815136 0
M  V30 3875 H 349.729 0.499789 -0.555175 0
M  V30 3876 H 352.391 0.691953 -1.82203 0
M  V30 3877 H 351.487 2.15678 -2.25587 0
M  V30 3878 N 351.788 1.33704 0.83433 0
M  V30 3879 C 352.698 1.26382 1.97648 0
M  V30 3880 C 353.714 0.173548 1.73132 0
M  V30 3881 O 354.89 0.397962 1.97429 0
M  V30 3882 C 351.955 1.00769 3.31733 0
M  V30 3883 C 351.016 2.1884 3.69334 0
M  V30 3884 C 350.249 1.9444 4.9702 0
M  V30 3885 O 350.472 0.896961 5.63303 0
M  V30 3886 O 349.406 2.81093 5.32231 0
M  V30 3887 H 353.232 2.22444 2.06767 0
M  V30 3888 H 350.817 1.13795 0.968037 0
M  V30 3889 H 352.699 0.882186 4.12062 0
M  V30 3890 H 351.374 0.0773783 3.23608 0
M  V30 3891 H 350.281 2.36946 2.89495 0
M  V30 3892 H 351.614 3.10221 3.82131 0
M  V30 3893 N 353.266 -1.05314 1.17247 0
M  V30 3894 C 354.512 -1.78557 0.961513 0
M  V30 3895 C 354.845 -1.87419 -0.508697 0
M  V30 3896 O 354.12 -1.37307 -1.37757 0
M  V30 3897 C 354.403 -3.22514 1.60176 0
M  V30 3898 C 354.256 -3.21673 3.14399 0
M  V30 3899 C 355.575 -4.20318 1.30463 0
M  V30 3900 H 352.694 -0.6482 0.350723 0
M  V30 3901 H 355.336 -1.23102 1.44727 0
M  V30 3902 H 353.486 -3.69867 1.18871 0
M  V30 3903 H 355.158 -2.82405 3.64753 0
M  V30 3904 H 353.401 -2.60048 3.47214 0
M  V30 3905 H 354.072 -4.23271 3.54324 0
M  V30 3906 H 356.548 -3.81454 1.66229 0
M  V30 3907 H 355.424 -5.19289 1.77848 0
M  V30 3908 H 355.685 -4.41526 0.22521 0
M  V30 3909 N 354.744 -0.972509 -1.24016 0
M  V30 3910 C 355.99 -0.637978 -1.92504 0
M  V30 3911 C 356.323 0.825383 -1.75787 0
M  V30 3912 O 355.598 1.59442 -1.11393 0
M  V30 3913 C 355.881 -1.01942 -3.45369 0
M  V30 3914 C 355.734 -2.53983 -3.71231 0
M  V30 3915 C 357.053 -0.55751 -4.36555 0
M  V30 3916 H 354.172 -0.233248 -0.699117 0
M  V30 3917 H 356.814 -1.21238 -1.46292 0
M  V30 3918 H 354.964 -0.530656 -3.84859 0
M  V30 3919 H 356.636 -3.10374 -3.41271 0
M  V30 3920 H 354.879 -2.96968 -3.16216 0
M  V30 3921 H 355.55 -2.75723 -4.78206 0
M  V30 3922 H 358.026 -0.977029 -4.04467 0
M  V30 3923 H 356.902 -0.85292 -5.42233 0
M  V30 3924 H 357.163 0.542328 -4.38761 0
M  V30 3925 N 356.222 1.38976 -0.743202 0
M  V30 3926 C 357.633 1.83123 -0.363732 0
M  V30 3927 C 357.984 1.6205 1.10609 0
M  V30 3928 O 357.109 1.11606 1.854 0
M  V30 3929 C 357.704 3.32439 -0.653408 0
M  V30 3930 C 356.263 3.74974 -0.327338 0
M  V30 3931 C 355.41 2.61878 -0.911875 0
M  V30 3932 H 358.361 1.27852 -0.940191 0
M  V30 3933 H 358.382 3.80432 0.0720031 0
M  V30 3934 H 357.894 3.47745 -1.72323 0
M  V30 3935 H 355.995 3.65252 0.736314 0
M  V30 3936 H 356.108 4.72106 -0.815631 0
M  V30 3937 H 354.472 2.52448 -0.337944 0
M  V30 3938 H 355.255 2.79987 -1.98651 0
M  V30 3939 N 357.7 0.491464 1.49741 0
M  V30 3940 C 358.949 -0.0582189 2.01616 0
M  V30 3941 C 359.262 -1.38927 1.3769 0
M  V30 3942 O 360.468 -2.02509 1.80838 0
M  V30 3943 C 358.924 -0.154235 3.59569 0
M  V30 3944 C 358.532 1.1696 4.32463 0
M  V30 3945 C 360.276 -0.65479 4.1942 0
M  V30 3946 C 358.183 1.03627 5.8225 0
M  V30 3947 H 357.113 -0.0255317 0.753568 0
M  V30 3948 H 359.764 0.629445 1.72367 0
M  V30 3949 H 358.146 -0.906138 3.85493 0
M  V30 3950 H 359.32 1.93405 4.18248 0
M  V30 3951 H 357.635 1.60285 3.84315 0
M  V30 3952 H 360.232 -0.771903 5.29099 0
M  V30 3953 H 360.575 -1.65127 3.8215 0
M  V30 3954 H 361.108 0.040304 3.9778 0
M  V30 3955 H 357.847 2.00672 6.24028 0
M  V30 3956 H 357.367 0.312546 5.98985 0
M  V30 3957 H 359.046 0.711114 6.4308 0
M  V30 3958 N 359.178 -1.55987 0.224894 0
M  V30 3959 C 360.128 -2.17076 -0.697296 0
M  V30 3960 C 361.112 -1.12006 -1.15514 0
M  V30 3961 O 362.304 -1.37985 -1.10857 0
M  V30 3962 C 359.433 -2.85679 -1.90374 0
M  V30 3963 C 358.519 -3.97977 -1.46543 0
M  V30 3964 N 358.91 -5.00359 -0.739909 0
M  V30 3965 C 357.208 -4.10128 -1.75245 0
M  V30 3966 C 357.909 -5.79407 -0.515939 0
M  V30 3967 N 356.885 -5.32892 -1.07364 0
M  V30 3968 H 360.687 -2.93592 -0.134594 0
M  V30 3969 H 358.201 -1.62379 0.0262885 0
M  V30 3970 H 360.198 -3.27857 -2.57518 0
M  V30 3971 H 358.858 -2.1066 -2.47088 0
M  V30 3972 H 359.869 -5.16412 -0.392253 0
M  V30 3973 H 356.546 -3.46263 -2.33255 0
M  V30 3974 H 357.936 -6.71872 0.0617349 0
M  V30 3975 N 360.656 0.0484629 -1.57525 0
M  V30 3976 C 361.588 1.08222 -2.02041 0
M  V30 3977 C 362.601 1.33621 -0.930012 0
M  V30 3978 O 363.79 1.3145 -1.20761 0
M  V30 3979 C 360.89 2.42818 -2.36416 0
M  V30 3980 C 360.063 2.37049 -3.67596 0
M  V30 3981 C 359.122 3.53937 -3.89378 0
M  V30 3982 O 358.148 3.34308 -4.60681 0
M  V30 3983 N 359.35 4.75126 -3.3352 0
M  V30 3984 H 362.115 0.702946 -2.9134 0
M  V30 3985 H 359.676 0.236745 -1.6016 0
M  V30 3986 H 361.668 3.197 -2.48141 0
M  V30 3987 H 360.238 2.72661 -1.52888 0
M  V30 3988 H 359.458 1.45395 -3.66407 0
M  V30 3989 H 360.746 2.30318 -4.53686 0
M  V30 3990 H 360.144 4.93976 -2.75688 0
M  V30 3991 H 358.701 5.49439 -3.50656 0
M  V30 3992 N 362.134 1.5431 0.320358 0
M  V30 3993 C 363.064 1.86912 1.3995 0
M  V30 3994 C 364.045 0.726211 1.53819 0
M  V30 3995 O 365.23 0.980233 1.67646 0
M  V30 3996 C 362.36 2.09932 2.7667 0
M  V30 3997 C 361.314 3.25776 2.77586 0
M  V30 3998 C 360.64 3.34173 4.17412 0
M  V30 3999 C 361.94 4.6335 2.41048 0
M  V30 4000 H 363.634 2.77292 1.12914 0
M  V30 4001 H 361.18 1.33421 0.541738 0
M  V30 4002 H 363.133 2.31324 3.52232 0
M  V30 4003 H 361.857 1.16304 3.0519 0
M  V30 4004 H 360.516 3.04276 2.04479 0
M  V30 4005 H 360.164 2.38098 4.43078 0
M  V30 4006 H 359.864 4.12033 4.18931 0
M  V30 4007 H 361.388 3.57803 4.94782 0
M  V30 4008 H 362.802 4.84602 3.06324 0
M  V30 4009 H 361.199 5.43782 2.53813 0
M  V30 4010 H 362.269 4.65381 1.36193 0
M  V30 4011 N 363.613 -0.582584 1.46437 0
M  V30 4012 C 364.89 -1.34276 1.4223 0
M  V30 4013 C 365.27 -2.10835 0.10583 0
M  V30 4014 O 364.618 -2.09485 -0.912596 0
M  V30 4015 C 364.828 -2.26865 2.65204 0
M  V30 4016 C 366.176 -2.88691 3.11356 0
M  V30 4017 O 367.2 -2.37178 2.65753 0
M  V30 4018 O 366.059 -3.82255 3.90568 0
M  V30 4019 H 363.153 -0.603326 0.565621 0
M  V30 4020 H 365.699 -0.603591 1.58603 0
M  V30 4021 H 364.471 -1.69724 3.52576 0
M  V30 4022 H 364.094 -3.08122 2.5129 0
M  V30 4023 N 365.091 -1.34144 -0.827227 0
M  V30 4024 C 366.34 -1.25602 -1.5782 0
M  V30 4025 C 366.653 0.173445 -1.94829 0
M  V30 4026 O 367.859 0.380984 -2.68814 0
M  V30 4027 C 366.315 -2.20151 -2.84713 0
M  V30 4028 C 365.923 -3.68331 -2.55021 0
M  V30 4029 C 367.667 -2.20508 -3.62735 0
M  V30 4030 C 365.574 -4.54762 -3.78082 0
M  V30 4031 H 364.504 -0.466573 -0.592306 0
M  V30 4032 H 367.155 -1.59283 -0.911116 0
M  V30 4033 H 365.537 -1.79417 -3.53023 0
M  V30 4034 H 366.711 -4.17577 -1.94849 0
M  V30 4035 H 365.026 -3.7038 -1.90283 0
M  V30 4036 H 367.623 -2.82306 -4.54101 0
M  V30 4037 H 367.966 -1.20322 -3.98533 0
M  V30 4038 H 368.499 -2.59664 -3.01362 0
M  V30 4039 H 365.238 -5.55867 -3.47407 0
M  V30 4040 H 364.758 -4.10254 -4.37552 0
M  V30 4041 H 366.437 -4.69153 -4.45538 0
M  V30 4042 N 366.569 1.04691 -1.17803 0
M  V30 4043 C 367.98 1.59238 -0.974689 0
M  V30 4044 C 368.331 1.90306 0.477292 0
M  V30 4045 O 367.456 1.68846 1.35352 0
M  V30 4046 C 368.051 2.89318 -1.76296 0
M  V30 4047 C 366.61 3.40506 -1.60414 0
M  V30 4048 C 365.757 2.14172 -1.76141 0
M  V30 4049 H 368.708 0.874395 -1.32439 0
M  V30 4050 H 368.729 3.5944 -1.24833 0
M  V30 4051 H 368.241 2.66675 -2.81968 0
M  V30 4052 H 366.342 3.68175 -0.572519 0
M  V30 4053 H 366.455 4.14753 -2.39827 0
M  V30 4054 H 364.819 2.25176 -1.19028 0
M  V30 4055 H 365.602 1.93992 -2.83235 0
M  V30 4056 N 368.047 0.979072 1.23499 0
M  V30 4057 C 369.293 0.648178 1.92163 0
M  V30 4058 C 369.626 -0.816049 1.76222 0
M  V30 4059 O 368.901 -1.58849 1.12237 0
M  V30 4060 C 369.184 1.03773 3.44824 0
M  V30 4061 C 369.037 2.55948 3.69879 0
M  V30 4062 C 370.356 0.580653 4.36253 0
M  V30 4063 H 367.475 0.236952 0.69787 0
M  V30 4064 H 370.117 1.22012 1.45647 0
M  V30 4065 H 368.267 0.551058 3.84572 0
M  V30 4066 H 369.939 3.12179 3.3962 0
M  V30 4067 H 368.182 2.98641 3.14636 0
M  V30 4068 H 368.853 2.78255 4.76737 0
M  V30 4069 H 371.329 0.998465 4.03943 0
M  V30 4070 H 370.205 0.881663 5.41773 0
M  V30 4071 H 370.466 -0.519052 4.39042 0
M  V30 4072 N 369.525 -1.3858 0.750561 0
M  V30 4073 C 370.802 -1.94231 0.231009 0
M  V30 4074 C 371.182 -1.68611 -1.27018 0
M  V30 4075 O 370.53 -1.02296 -2.04323 0
M  V30 4076 C 370.74 -3.44123 0.581428 0
M  V30 4077 C 372.088 -4.2116 0.539389 0
M  V30 4078 O 373.112 -3.52391 0.519541 0
M  V30 4079 O 371.971 -5.43749 0.54765 0
M  V30 4080 H 369.065 -0.825639 0.0474263 0
M  V30 4081 H 371.611 -1.4799 0.830478 0
M  V30 4082 H 370.383 -3.56267 1.61833 0
M  V30 4083 H 370.006 -3.97573 -0.0462047 0
M  V30 4084 N 371.003 -0.499398 -1.49478 0
M  V30 4085 C 371.951 0.293604 -2.3074 0
M  V30 4086 C 372.945 0.96427 -1.39277 0
M  V30 4087 O 374.151 0.892141 -1.56336 0
M  V30 4088 H 370.526 0.113541 -0.743379 0
M  V30 4089 H 372.497 -0.411772 -2.95545 0
M  V30 4090 C 371.246 1.3462 -3.20582 0
M  V30 4091 H 370.569 0.83954 -3.90886 0
M  V30 4092 H 372.009 1.87308 -3.80384 0
M  V30 4093 C 370.468 2.36351 -2.40083 0
M  V30 4094 O 370.998 3.422 -2.10385 0
M  V30 4095 N 369.204 2.0878 -2.02137 0
M  V30 4096 H 368.751 1.22723 -2.26488 0
M  V30 4097 H 368.709 2.77075 -1.48583 0
M  V30 4098 N 372.481 1.55866 -0.233164 0
M  V30 4099 C 373.892 1.847 0.272554 0
M  V30 4100 C 374.243 1.15477 1.58617 0
M  V30 4101 O 373.368 0.42841 2.12117 0
M  V30 4102 C 373.963 3.35071 0.501299 0
M  V30 4103 C 372.522 3.6418 0.951304 0
M  V30 4104 C 371.669 2.77292 0.0208209 0
M  V30 4105 H 374.62 1.52005 -0.456074 0
M  V30 4106 H 374.641 3.55906 1.34577 0
M  V30 4107 H 374.153 3.85424 -0.454936 0
M  V30 4108 H 372.254 3.19293 1.92049 0
M  V30 4109 H 372.367 4.72071 0.817675 0
M  V30 4110 H 370.731 2.49131 0.529723 0
M  V30 4111 H 371.514 3.30448 -0.93054 0
M  V30 4112 N 373.959 -0.0401083 1.57549 0
M  V30 4113 C 375.208 -0.732108 1.87944 0
M  V30 4114 C 375.521 -1.77107 0.830206 0
M  V30 4115 O 376.727 -2.51488 1.02302 0
M  V30 4116 C 375.183 -1.35315 3.33494 0
M  V30 4117 C 374.791 -0.351105 4.46622 0
M  V30 4118 C 376.535 -2.02566 3.73051 0
M  V30 4119 C 374.442 -0.979859 5.83226 0
M  V30 4120 H 373.372 -0.277188 0.701201 0
M  V30 4121 H 376.023 0.0138501 1.83495 0
M  V30 4122 H 374.405 -2.14844 3.32653 0
M  V30 4123 H 375.579 0.416674 4.58912 0
M  V30 4124 H 373.894 0.218708 4.15825 0
M  V30 4125 H 376.491 -2.50441 4.72423 0
M  V30 4126 H 376.834 -2.83904 3.04474 0
M  V30 4127 H 377.367 -1.29827 3.76018 0
M  V30 4128 H 374.106 -0.206135 6.55176 0
M  V30 4129 H 373.626 -1.71774 5.74677 0
M  V30 4130 H 375.305 -1.49046 6.29599 0
M  V30 4131 N 375.437 -1.54477 -0.31217 0
M  V30 4132 C 376.347 -1.87695 -1.4074 0
M  V30 4133 C 377.363 -0.769975 -1.56036 0
M  V30 4134 O 378.539 -1.06537 -1.70915 0
M  V30 4135 C 375.604 -2.10755 -2.75287 0
M  V30 4136 C 374.665 -3.34514 -2.69071 0
M  V30 4137 C 373.898 -3.56465 -3.97201 0
M  V30 4138 O 374.121 -2.81637 -4.96021 0
M  V30 4139 O 373.055 -4.49964 -3.9977 0
M  V30 4140 H 376.881 -2.80849 -1.15574 0
M  V30 4141 H 374.466 -1.40526 -0.507228 0
M  V30 4142 H 376.348 -2.27188 -3.54913 0
M  V30 4143 H 375.023 -1.20788 -3.0032 0
M  V30 4144 H 373.93 -3.23456 -1.87955 0
M  V30 4145 H 375.263 -4.24575 -2.48992 0
M  V30 4146 N 376.915 0.57481 -1.46744 0
M  V30 4147 C 378.14 1.36341 -1.56288 0
M  V30 4148 C 378.565 1.86954 -0.207347 0
M  V30 4149 O 377.923 1.62006 0.813871 0
M  V30 4150 C 377.971 2.52147 -2.57787 0
M  V30 4151 O 377.075 3.53834 -2.11838 0
M  V30 4152 H 376.416 0.405713 -0.525636 0
M  V30 4153 H 378.946 0.696453 -1.92382 0
M  V30 4154 H 378.956 2.98958 -2.77648 0
M  V30 4155 H 377.631 2.14663 -3.5622 0
M  V30 4156 H 376.208 3.1345 -2.01999 0
M  V30 4157 N 378.394 1.34581 0.820102 0
M  V30 4158 C 379.342 1.26401 1.95258 0
M  V30 4159 C 380.336 0.161553 1.68628 0
M  V30 4160 O 381.542 0.326703 1.7701 0
M  V30 4161 H 377.917 0.392749 0.64129 0
M  V30 4162 H 379.888 2.22105 1.99279 0
M  V30 4163 C 378.637 1.03919 3.31807 0
M  V30 4164 H 377.96 1.87984 3.52848 0
M  V30 4165 H 379.4 1.02232 4.11491 0
M  V30 4166 C 377.859 -0.257433 3.35915 0
M  V30 4167 O 378.389 -1.25784 3.81499 0
M  V30 4168 N 376.595 -0.291524 2.89134 0
M  V30 4169 H 376.142 0.523161 2.52232 0
M  V30 4170 H 376.1 -1.15883 2.92264 0
M  V30 4171 N 379.872 -1.04064 1.18357 0
M  V30 4172 C 380.82 -2.14187 0.907007 0
M  V30 4173 C 381.814 -1.68879 -0.132725 0
M  V30 4174 O 383.02 -1.79993 0.0154248 0
M  V30 4175 H 379.395 -0.699585 0.275835 0
M  V30 4176 H 381.366 -2.34711 1.84264 0
M  V30 4177 C 380.115 -3.44785 0.449254 0
M  V30 4178 H 379.438 -3.80058 1.24081 0
M  V30 4179 H 380.878 -4.22974 0.294737 0
M  V30 4180 C 379.337 -3.26391 -0.834909 0
M  V30 4181 O 379.867 -3.53973 -1.89911 0
M  V30 4182 N 378.073 -2.79726 -0.787523 0
M  V30 4183 H 377.62 -2.5748 0.0787347 0
M  V30 4184 H 377.578 -2.67798 -1.64716 0
M  V30 4185 N 381.35 -0.985608 -1.22978 0
M  V30 4186 C 382.599 -0.652881 -1.90841 0
M  V30 4187 C 382.912 0.817842 -1.77681 0
M  V30 4188 O 384.118 1.26185 -2.40395 0
M  V30 4189 C 382.574 -1.11717 -3.42122 0
M  V30 4190 C 382.182 -2.6126 -3.63933 0
M  V30 4191 C 383.926 -0.85843 -4.1573 0
M  V30 4192 C 381.833 -3.0133 -5.08876 0
M  V30 4193 H 380.763 -0.240491 -0.714619 0
M  V30 4194 H 383.414 -1.1942 -1.39324 0
M  V30 4195 H 381.796 -0.504027 -3.92779 0
M  V30 4196 H 382.97 -3.27858 -3.23799 0
M  V30 4197 H 381.285 -2.84937 -3.03644 0
M  V30 4198 H 383.882 -1.13359 -5.22546 0
M  V30 4199 H 384.225 0.205461 -4.15793 0
M  V30 4200 H 384.758 -1.43341 -3.71077 0
M  V30 4201 H 381.497 -4.06864 -5.13947 0
M  V30 4202 H 381.017 -2.3943 -5.49939 0
M  V30 4203 H 382.696 -2.92224 -5.77247 0
M  V30 4204 N 382.828 1.3818 -0.7579 0
M  V30 4205 C 384.075 2.00019 -0.315985 0
M  V30 4206 C 384.403 1.60163 1.10355 0
M  V30 4207 O 383.658 0.83264 1.77103 0
M  V30 4208 C 383.957 3.55252 -0.391218 0
M  V30 4209 C 383.623 4.14834 -1.76702 0
M  V30 4210 C 382.285 4.30821 -2.14353 0
M  V30 4211 C 384.637 4.47658 -2.66931 0
M  V30 4212 C 381.965 4.76928 -3.41696 0
M  V30 4213 C 384.317 4.95184 -3.93669 0
M  V30 4214 C 382.981 5.09377 -4.31383 0
M  V30 4215 H 382.251 0.731923 -0.115627 0
M  V30 4216 H 384.898 1.65161 -0.969223 0
M  V30 4217 H 383.203 3.90273 0.34558 0
M  V30 4218 H 384.9 4.00988 -0.030805 0
M  V30 4219 H 381.49 4.02808 -1.46435 0
M  V30 4220 H 385.674 4.34904 -2.39106 0
M  V30 4221 H 380.93 4.86103 -3.70829 0
M  V30 4222 H 385.104 5.19551 -4.63724 0
M  V30 4223 H 382.731 5.44865 -5.30119 0
M  V30 4224 N 384.306 0.507319 1.49211 0
M  V30 4225 C 385.236 -0.256939 2.32082 0
M  V30 4226 C 386.217 -0.956609 1.40652 0
M  V30 4227 O 387.402 -0.946788 1.69557 0
M  V30 4228 C 384.532 -1.31802 3.21318 0
M  V30 4229 C 383.486 -0.737855 4.21592 0
M  V30 4230 C 382.812 -1.89992 4.99807 0
M  V30 4231 C 384.112 0.275325 5.21574 0
M  V30 4232 H 385.806 0.434798 2.96226 0
M  V30 4233 H 383.352 0.210546 1.42452 0
M  V30 4234 H 385.305 -1.86045 3.78107 0
M  V30 4235 H 384.029 -2.03903 2.5513 0
M  V30 4236 H 382.688 -0.217126 3.65956 0
M  V30 4237 H 382.336 -2.60877 4.30061 0
M  V30 4238 H 382.036 -1.51777 5.6766 0
M  V30 4239 H 383.56 -2.44657 5.59442 0
M  V30 4240 H 384.974 -0.179193 5.7302 0
M  V30 4241 H 383.371 0.573649 5.97352 0
M  V30 4242 H 384.441 1.18903 4.70096 0
M  V30 4243 N 385.784 -1.5574 0.241426 0
M  V30 4244 C 387.03 -1.99104 -0.385406 0
M  V30 4245 C 387.363 -1.1293 -1.57988 0
M  V30 4246 O 386.638 -0.191449 -1.93555 0
M  V30 4247 C 386.921 -3.51087 -0.800616 0
M  V30 4248 C 386.774 -4.48028 0.398874 0
M  V30 4249 C 388.093 -4.08015 -1.64959 0
M  V30 4250 H 385.212 -0.723848 -0.138614 0
M  V30 4251 H 387.854 -1.86903 0.341642 0
M  V30 4252 H 386.004 -3.61615 -1.4201 0
M  V30 4253 H 387.676 -4.49487 1.03726 0
M  V30 4254 H 385.919 -4.21077 1.04293 0
M  V30 4255 H 386.59 -5.51962 0.0651056 0
M  V30 4256 H 389.066 -4.00555 -1.12672 0
M  V30 4257 H 387.942 -5.14635 -1.90898 0
M  V30 4258 H 388.203 -3.56131 -2.61961 0
M  V30 4259 N 387.262 0.0317525 -1.57568 0
M  V30 4260 C 388.225 1.01783 -2.0536 0
M  V30 4261 C 389.225 1.29203 -0.957253 0
M  V30 4262 O 390.415 1.24251 -1.22095 0
M  V30 4263 C 387.547 2.35137 -2.46827 0
M  V30 4264 H 388.74 0.605062 -2.93733 0
M  V30 4265 H 386.293 0.278514 -1.53799 0
M  V30 4266 H 387.028 2.81168 -1.61602 0
M  V30 4267 H 386.813 2.16566 -3.26866 0
M  V30 4268 H 388.303 3.05938 -2.84239 0
M  V30 4269 N 388.74 1.54641 0.303973 0
M  V30 4270 C 390.151 1.64811 0.877163 0
M  V30 4271 C 390.502 0.554838 1.88191 0
M  V30 4272 O 389.627 -0.309033 2.14182 0
M  V30 4273 C 390.222 2.9876 1.59775 0
M  V30 4274 C 388.781 3.11061 2.11938 0
M  V30 4275 C 387.928 2.60479 0.951097 0
M  V30 4276 H 390.879 1.58493 0.0810486 0
M  V30 4277 H 390.9 2.90017 2.46314 0
M  V30 4278 H 390.412 3.7831 0.866226 0
M  V30 4279 H 388.513 2.36225 2.88146 0
M  V30 4280 H 388.626 4.17171 2.35595 0
M  V30 4281 H 386.99 2.16859 1.33583 0
M  V30 4282 H 387.773 3.42504 0.233581 0
M  V30 4283 N 390.218 -0.567019 1.47046 0
M  V30 4284 C 391.148 -1.68482 1.61667 0
M  V30 4285 C 392.129 -1.6358 0.466418 0
M  V30 4286 O 393.314 -1.81354 0.694574 0
M  V30 4287 C 390.444 -3.07124 1.62148 0
M  V30 4288 C 389.398 -3.26867 2.76301 0
M  V30 4289 C 388.724 -4.66196 2.61849 0
M  V30 4290 C 390.024 -3.13186 4.17986 0
M  V30 4291 H 391.718 -1.56502 2.5524 0
M  V30 4292 H 389.264 -0.751486 1.22836 0
M  V30 4293 H 391.217 -3.8516 1.70968 0
M  V30 4294 H 389.941 -3.2004 0.651287 0
M  V30 4295 H 388.6 -2.51237 2.66975 0
M  V30 4296 H 388.248 -4.75898 1.62879 0
M  V30 4297 H 387.948 -4.80356 3.38425 0
M  V30 4298 H 389.472 -5.46379 2.72584 0
M  V30 4299 H 390.886 -3.81049 4.2834 0
M  V30 4300 H 389.283 -3.3886 4.95272 0
M  V30 4301 H 390.353 -2.10057 4.3704 0
M  V30 4302 N 391.696 -1.35014 -0.812953 0
M  V30 4303 C 392.945 -1.27269 -1.56479 0
M  V30 4304 C 393.258 0.152771 -1.95002 0
M  V30 4305 O 394.464 0.352451 -2.69203 0
M  V30 4306 C 392.92 -2.23159 -2.82362 0
M  V30 4307 C 392.528 -3.71016 -2.511 0
M  V30 4308 C 394.272 -2.24342 -3.60376 0
M  V30 4309 C 392.179 -4.58746 -3.73237 0
M  V30 4310 H 391.109 -0.472829 -0.587324 0
M  V30 4311 H 393.76 -1.6024 -0.894171 0
M  V30 4312 H 392.142 -1.83151 -3.51101 0
M  V30 4313 H 393.316 -4.1962 -1.90409 0
M  V30 4314 H 391.631 -3.72378 -1.86343 0
M  V30 4315 H 394.228 -2.87107 -4.51081 0
M  V30 4316 H 394.571 -1.24542 -3.97234 0
M  V30 4317 H 395.104 -2.62846 -2.98591 0
M  V30 4318 H 391.843 -5.59521 -3.41492 0
M  V30 4319 H 391.363 -4.14871 -4.33176 0
M  V30 4320 H 393.042 -4.73852 -4.40537 0
M  V30 4321 N 393.175 1.03435 -1.18907 0
M  V30 4322 C 394.424 1.76143 -0.982669 0
M  V30 4323 C 394.737 1.89416 0.487953 0
M  V30 4324 O 395.943 2.59041 0.813036 0
M  V30 4325 C 394.399 3.16722 -1.70924 0
M  V30 4326 C 394.007 3.11522 -3.21959 0
M  V30 4327 C 395.751 3.93764 -1.58588 0
M  V30 4328 C 393.658 4.46999 -3.87228 0
M  V30 4329 H 392.588 0.660292 -0.364047 0
M  V30 4330 H 395.239 1.158 -1.42347 0
M  V30 4331 H 393.621 3.775 -1.19623 0
M  V30 4332 H 394.795 2.60158 -3.80335 0
M  V30 4333 H 393.11 2.47978 -3.34508 0
M  V30 4334 H 395.707 4.93963 -2.04707 0
M  V30 4335 H 396.05 4.12794 -0.539142 0
M  V30 4336 H 396.583 3.39576 -2.07203 0
M  V30 4337 H 393.322 4.33174 -4.91976 0
M  V30 4338 H 392.842 4.98441 -3.33642 0
M  V30 4339 H 394.521 5.15898 -3.90459 0
M  V30 4340 N 394.653 0.992116 1.22453 0
M  V30 4341 C 395.893 0.675727 1.92907 0
M  V30 4342 C 396.257 -0.777762 1.75542 0
M  V30 4343 O 397.458 -1.20553 2.40251 0
M  V30 4344 C 395.729 1.0696 3.4102 0
M  V30 4345 S 397.288 0.871456 4.30059 0
M  V30 4346 H 394.106 0.247089 0.666684 0
M  V30 4347 H 396.708 1.27423 1.48269 0
M  V30 4348 H 395.412 2.12383 3.51172 0
M  V30 4349 H 394.943 0.462858 3.90668 0
M  V30 4350 H 396.958 -0.238436 4.95627 0
M  V30 4351 N 396.131 -1.37776 0.765217 0
M  V30 4352 C 397.081 -2.2768 0.12075 0
M  V30 4353 C 398.065 -1.45778 -0.680988 0
M  V30 4354 O 399.257 -1.684 -0.545033 0
M  V30 4355 C 396.386 -3.34722 -0.762626 0
M  V30 4356 C 395.472 -4.24074 0.0465881 0
M  V30 4357 N 395.863 -4.93939 1.08892 0
M  V30 4358 C 394.161 -4.45643 -0.178418 0
M  V30 4359 C 394.862 -5.59845 1.57951 0
M  V30 4360 N 393.838 -5.36218 0.892797 0
M  V30 4361 H 397.64 -2.79166 0.918889 0
M  V30 4362 H 395.154 -1.50816 0.602353 0
M  V30 4363 H 397.151 -3.98031 -1.24005 0
M  V30 4364 H 395.811 -2.84793 -1.55959 0
M  V30 4365 H 396.822 -4.96572 1.47095 0
M  V30 4366 H 393.499 -4.06599 -0.9478 0
M  V30 4367 H 394.889 -6.25703 2.44838 0
M  V30 4368 N 397.609 -0.515225 -1.4894 0
M  V30 4369 C 398.855 0.0242508 -2.02785 0
M  V30 4370 C 399.188 1.35323 -1.39289 0
M  V30 4371 O 398.463 1.87041 -0.533469 0
M  V30 4372 C 398.746 0.16184 -3.59736 0
M  V30 4373 C 398.599 -1.19127 -4.33738 0
M  V30 4374 C 399.918 0.895719 -4.30888 0
M  V30 4375 H 397.037 0.00733914 -0.736963 0
M  V30 4376 H 399.679 -0.669395 -1.77818 0
M  V30 4377 H 397.829 0.752624 -3.8114 0
M  V30 4378 H 399.501 -1.82202 -4.23792 0
M  V30 4379 H 397.744 -1.77695 -3.95736 0
M  V30 4380 H 398.415 -1.04815 -5.41957 0
M  V30 4381 H 400.891 0.394528 -4.14225 0
M  V30 4382 H 399.767 0.960859 -5.40425 0
M  V30 4383 H 400.028 1.9427 -3.97129 0
M  V30 4384 N 399.087 1.5561 -0.249682 0
M  V30 4385 C 400.336 1.98187 0.37479 0
M  V30 4386 C 400.649 1.14111 1.58865 0
M  V30 4387 O 401.855 1.46714 2.28445 0
M  V30 4388 C 400.311 3.52661 0.718192 0
M  V30 4389 C 399.919 4.45481 -0.474428 0
M  V30 4390 C 401.663 4.03888 1.3067 0
M  V30 4391 C 399.57 5.91303 -0.107026 0
M  V30 4392 H 398.5 0.740159 0.143808 0
M  V30 4393 H 401.151 1.80125 -0.350336 0
M  V30 4394 H 399.533 3.66429 1.50152 0
M  V30 4395 H 400.707 4.43473 -1.25172 0
M  V30 4396 H 399.022 4.04751 -0.978052 0
M  V30 4397 H 401.619 5.10358 1.59496 0
M  V30 4398 H 401.962 3.51401 2.23211 0
M  V30 4399 H 402.495 3.93457 0.586211 0
M  V30 4400 H 399.234 6.47833 -0.999642 0
M  V30 4401 H 398.754 5.9644 0.634013 0
M  V30 4402 H 400.433 6.46258 0.309807 0
M  V30 4403 N 400.565 -0.0233959 1.57583 0
M  V30 4404 C 401.842 -0.748794 1.807 0
M  V30 4405 C 402.222 -1.9327 0.849106 0
M  V30 4406 O 401.57 -2.28247 -0.107468 0
M  V30 4407 C 401.78 -1.17651 3.28571 0
M  V30 4408 C 403.128 -1.59008 3.93702 0
M  V30 4409 O 404.152 -1.27094 3.32755 0
M  V30 4410 O 403.011 -2.18264 5.01022 0
M  V30 4411 H 400.105 -0.362578 0.743281 0
M  V30 4412 H 402.651 0.000261958 1.697 0
M  V30 4413 H 401.423 -0.331603 3.89892 0
M  V30 4414 H 401.046 -1.98541 3.44481 0
M  V30 4415 N 402.043 -1.548 -0.295768 0
M  V30 4416 C 402.99 -1.86113 -1.36494 0
M  V30 4417 C 403.96 -0.7105 -1.50137 0
M  V30 4418 O 405.145 -0.959626 -1.64912 0
M  V30 4419 C 402.285 -2.11861 -2.72413 0
M  V30 4420 C 401.398 -3.39471 -2.67177 0
M  V30 4421 C 400.533 -3.55035 -3.95125 0
M  V30 4422 C 399.572 -4.76418 -3.84308 0
M  V30 4423 N 398.709 -4.8876 -5.04042 0
M  V30 4424 H 403.549 -2.77314 -1.09091 0
M  V30 4425 H 401.086 -1.37315 -0.52753 0
M  V30 4426 H 403.044 -2.24786 -3.51464 0
M  V30 4427 H 401.674 -1.2392 -2.98066 0
M  V30 4428 H 400.726 -3.35139 -1.79962 0
M  V30 4429 H 402.038 -4.28646 -2.55076 0
M  V30 4430 H 401.192 -3.67653 -4.82614 0
M  V30 4431 H 399.931 -2.64002 -4.10066 0
M  V30 4432 H 398.936 -4.63827 -2.95202 0
M  V30 4433 H 400.161 -5.68863 -3.70906 0
M  V30 4434 H 398.107 -4.00652 -5.19436 0
M  V30 4435 H 398.024 -5.71945 -4.94384 0
M  V30 4436 H 399.292 -5.0574 -5.93167 0
M  V30 4437 N 403.521 0.559213 -1.47345 0
M  V30 4438 C 404.937 0.884943 -1.32819 0
M  V30 4439 C 405.137 1.98988 -0.317173 0
M  V30 4440 O 404.193 2.51031 0.272011 0
M  V30 4441 C 405.506 1.28007 -2.72093 0
M  V30 4442 C 407.054 1.39161 -2.80363 0
M  V30 4443 C 407.529 1.82031 -4.20272 0
M  V30 4444 N 409.02 1.89185 -4.22804 0
M  V30 4445 C 409.755 2.2368 -5.27973 0
M  V30 4446 N 409.251 2.56802 -6.43447 0
M  V30 4447 N 411.044 2.24436 -5.15349 0
M  V30 4448 H 403.195 -0.170304 -2.11716 0
M  V30 4449 H 405.458 -0.0135247 -0.947904 0
M  V30 4450 H 405.164 0.542027 -3.47498 0
M  V30 4451 H 405.038 2.23665 -3.03733 0
M  V30 4452 H 407.425 2.12048 -2.05231 0
M  V30 4453 H 407.506 0.41696 -2.52379 0
M  V30 4454 H 407.15 1.09715 -4.95908 0
M  V30 4455 H 407.08 2.80495 -4.45679 0
M  V30 4456 H 409.571 1.65982 -3.39497 0
M  V30 4457 H 409.884 2.82144 -7.19454 0
M  V30 4458 H 408.229 2.54387 -6.46771 0
M  V30 4459 H 411.42 1.97998 -4.24163 0
M  V30 4460 H 411.593 2.50989 -5.97418 0
M  V30 4461 N 404.999 1.35443 0.805782 0
M  V30 4462 C 406.224 1.32037 1.59941 0
M  V30 4463 C 406.649 -0.0994215 1.87837 0
M  V30 4464 O 406.007 -1.06648 1.46615 0
M  V30 4465 C 406.055 2.13354 2.90711 0
M  V30 4466 O 405.159 1.5148 3.83572 0
M  V30 4467 H 404.5 0.452666 0.485787 0
M  V30 4468 H 407.03 1.78496 1.00002 0
M  V30 4469 H 407.04 2.25338 3.40128 0
M  V30 4470 H 405.715 3.16572 2.69732 0
M  V30 4471 H 404.292 1.4834 3.42125 0
M  V30 4472 N 406.477 -1.02803 1.19454 0
M  V30 4473 C 407.888 -1.57667 0.999899 0
M  V30 4474 C 408.239 -1.91041 -0.446956 0
M  V30 4475 O 407.364 -1.70978 -1.32648 0
M  V30 4476 C 407.959 -2.86477 1.80877 0
M  V30 4477 C 406.518 -3.37911 1.65811 0
M  V30 4478 C 405.665 -2.11343 1.79526 0
M  V30 4479 H 408.616 -0.853214 1.33813 0
M  V30 4480 H 408.637 -3.57408 1.30536 0
M  V30 4481 H 408.149 -2.62155 2.86175 0
M  V30 4482 H 406.25 -3.67218 0.63102 0
M  V30 4483 H 406.363 -4.10885 2.46395 0
M  V30 4484 H 404.727 -2.23254 1.22596 0
M  V30 4485 H 405.51 -1.89461 2.86285 0
M  V30 4486 N 407.956 -0.998596 -1.21925 0
M  V30 4487 C 408.886 -0.573688 -2.26343 0
M  V30 4488 C 409.867 0.402296 -1.65274 0
M  V30 4489 O 411.052 0.291683 -1.91997 0
M  V30 4490 C 408.182 0.106839 -3.47136 0
M  V30 4491 C 407.136 -0.788269 -4.20678 0
M  V30 4492 C 406.462 0.0254927 -5.34694 0
M  V30 4493 C 407.762 -2.08784 -4.78755 0
M  V30 4494 H 409.456 -1.44651 -2.62138 0
M  V30 4495 H 407.002 -0.696975 -1.26009 0
M  V30 4496 H 408.955 0.415531 -4.19346 0
M  V30 4497 H 407.679 1.01424 -3.10452 0
M  V30 4498 H 406.338 -1.08069 -3.50309 0
M  V30 4499 H 405.986 0.933989 -4.94253 0
M  V30 4500 H 405.686 -0.570437 -5.84825 0
M  V30 4501 H 407.21 0.328147 -6.09718 0
M  V30 4502 H 408.624 -1.84272 -5.42878 0
M  V30 4503 H 407.021 -2.63307 -5.39249 0
M  V30 4504 H 408.091 -2.76284 -3.98491 0
M  V30 4505 N 409.434 1.37368 -0.772513 0
M  V30 4506 C 410.664 2.03647 -0.348082 0
M  V30 4507 C 411.072 1.58392 1.03482 0
M  V30 4508 O 410.415 0.760921 1.672 0
M  V30 4509 C 410.477 3.58131 -0.313404 0
M  V30 4510 C 410.141 4.2652 -1.64102 0
M  V30 4511 C 411.138 4.50587 -2.5936 0
M  V30 4512 C 408.823 4.64335 -1.91567 0
M  V30 4513 C 410.817 5.11526 -3.80289 0
M  V30 4514 C 408.504 5.24996 -3.12766 0
M  V30 4515 C 409.502 5.48529 -4.06946 0
M  V30 4516 O 409.19 6.07921 -5.26011 0
M  V30 4517 H 408.922 0.660538 -0.143753 0
M  V30 4518 H 411.476 1.76669 -1.04772 0
M  V30 4519 H 409.706 3.84159 0.442617 0
M  V30 4520 H 411.395 4.05813 0.0840613 0
M  V30 4521 H 412.161 4.21784 -2.39423 0
M  V30 4522 H 408.04 4.45353 -1.19088 0
M  V30 4523 H 411.584 5.29811 -4.53813 0
M  V30 4524 H 407.481 5.53223 -3.32588 0
M  V30 4525 H 408.249 6.26398 -5.26847 0
M  V30 4526 N 410.912 0.523116 1.48665 0
M  V30 4527 C 412.189 -0.0775449 1.95446 0
M  V30 4528 C 412.569 -1.5197 1.4652 0
M  V30 4529 O 411.917 -2.17876 0.688657 0
M  V30 4530 C 412.127 0.0326135 3.48985 0
M  V30 4531 C 413.475 -0.130141 4.24401 0
M  V30 4532 O 414.499 -0.0415142 3.56176 0
M  V30 4533 O 413.358 -0.31491 5.45592 0
M  V30 4534 H 410.452 -0.0831012 0.822814 0
M  V30 4535 H 412.998 0.587227 1.59216 0
M  V30 4536 H 411.77 1.03748 3.77296 0
M  V30 4537 H 411.393 -0.671317 3.91892 0
M  V30 4538 N 412.39 -1.55475 0.257931 0
M  V30 4539 C 413.639 -1.98383 -0.364275 0
M  V30 4540 C 413.952 -1.14952 -1.58258 0
M  V30 4541 O 415.158 -1.47924 -2.27664 0
M  V30 4542 C 413.614 -3.53037 -0.699479 0
M  V30 4543 C 413.222 -4.45223 0.498046 0
M  V30 4544 C 414.966 -4.04575 -1.28526 0
M  V30 4545 C 412.873 -5.91238 0.138383 0
M  V30 4546 H 411.803 -0.740911 -0.13988 0
M  V30 4547 H 414.454 -1.79936 0.359883 0
M  V30 4548 H 412.836 -3.6722 -1.48207 0
M  V30 4549 H 414.01 -4.42803 1.27522 0
M  V30 4550 H 412.325 -4.04226 0.999503 0
M  V30 4551 H 414.922 -5.11196 -1.56788 0
M  V30 4552 H 415.265 -3.5258 -2.21344 0
M  V30 4553 H 415.798 -3.93762 -0.565337 0
M  V30 4554 H 412.537 -6.47294 1.03398 0
M  V30 4555 H 412.057 -5.96768 -0.602374 0
M  V30 4556 H 413.736 -6.46413 -0.27553 0
M  V30 4557 N 413.868 0.0150385 -1.57593 0
M  V30 4558 C 415.093 0.718067 -1.94573 0
M  V30 4559 C 415.518 1.6734 -0.859005 0
M  V30 4560 O 414.876 1.80362 0.184147 0
M  V30 4561 C 414.924 1.43918 -3.30636 0
M  V30 4562 O 414.028 2.55299 -3.23876 0
M  V30 4563 H 413.369 0.192125 -0.635597 0
M  V30 4564 H 415.899 -0.0336708 -2.04572 0
M  V30 4565 H 415.909 1.80598 -3.65853 0
M  V30 4566 H 414.584 0.738619 -4.09289 0
M  V30 4567 H 413.161 2.21058 -3.00312 0
M  V30 4568 N 415.346 1.54954 0.287554 0
M  V30 4569 C 416.309 1.86076 1.33823 0
M  V30 4570 C 417.309 0.734414 1.43049 0
M  V30 4571 O 418.499 1.00266 1.42452 0
M  V30 4572 C 415.631 2.05305 2.72144 0
M  V30 4573 H 416.824 2.79984 1.07465 0
M  V30 4574 H 414.377 1.47223 0.524902 0
M  V30 4575 H 415.112 1.1373 3.03704 0
M  V30 4576 H 414.897 2.873 2.66836 0
M  V30 4577 H 416.387 2.30706 3.48087 0
M  V30 4578 N 416.824 -0.551391 1.4764 0
M  V30 4579 C 418.052 -1.33357 1.58189 0
M  V30 4580 C 418.467 -1.87342 0.234199 0
M  V30 4581 O 417.824 -1.65301 -0.77343 0
M  V30 4582 C 417.875 -2.49942 2.61173 0
M  V30 4583 O 417.596 -1.98187 3.90709 0
M  V30 4584 C 419.097 -3.42072 2.8196 0
M  V30 4585 H 416.317 -0.40631 0.533998 0
M  V30 4586 H 418.861 -0.667367 1.93304 0
M  V30 4587 H 417.016 -3.12489 2.28975 0
M  V30 4588 H 417.43 -2.74342 4.47031 0
M  V30 4589 H 418.904 -4.20278 3.57869 0
M  V30 4590 H 419.381 -3.95978 1.89995 0
M  V30 4591 H 419.987 -2.85336 3.15378 0
M  V30 4592 N 418.302 -1.35869 -0.798587 0
M  V30 4593 C 419.579 -1.20145 -1.54352 0
M  V30 4594 C 419.959 0.216161 -2.0999 0
M  V30 4595 O 419.307 1.22068 -1.93162 0
M  V30 4596 C 419.517 -2.27602 -2.64572 0
M  V30 4597 C 420.865 -2.63811 -3.32699 0
M  V30 4598 O 421.889 -2.26576 -2.74849 0
M  V30 4599 O 420.748 -3.27866 -4.37226 0
M  V30 4600 H 417.842 -0.467248 -0.682355 0
M  V30 4601 H 420.388 -1.47574 -0.837859 0
M  V30 4602 H 419.16 -3.2265 -2.21388 0
M  V30 4603 H 418.783 -2.01488 -3.42766 0
M  V30 4604 N 419.78 1.02168 -1.19998 0
M  V30 4605 C 420.71 2.12488 -0.96804 0
M  V30 4606 C 421.691 1.69799 0.101185 0
M  V30 4607 O 422.876 1.94121 -0.0552993 0
M  V30 4608 C 420.006 3.43479 -0.513776 0
M  V30 4609 C 418.96 3.99884 -1.52566 0
M  V30 4610 C 418.286 5.26582 -0.928214 0
M  V30 4611 C 419.586 4.33861 -2.90795 0
M  V30 4612 H 421.28 2.32149 -1.89069 0
M  V30 4613 H 418.826 1.11564 -0.910468 0
M  V30 4614 H 420.779 4.20036 -0.338774 0
M  V30 4615 H 419.503 3.23561 0.444493 0
M  V30 4616 H 418.162 3.25429 -1.68794 0
M  V30 4617 H 417.81 5.02986 0.0378289 0
M  V30 4618 H 417.51 5.65284 -1.60397 0
M  V30 4619 H 419.034 6.05799 -0.764167 0
M  V30 4620 H 420.448 5.01327 -2.78109 0
M  V30 4621 H 418.845 4.83664 -3.55231 0
M  V30 4622 H 419.915 3.42848 -3.42904 0
M  V30 4623 N 421.258 1.00505 1.21394 0
M  V30 4624 C 422.221 0.570459 2.21987 0
M  V30 4625 C 423.221 -0.353211 1.56873 0
M  V30 4626 O 424.411 -0.14349 1.73608 0
M  V30 4627 C 421.543 -0.168555 3.40483 0
M  V30 4628 H 422.736 1.46021 2.6195 0
M  V30 4629 H 420.289 0.793565 1.34656 0
M  V30 4630 H 421.024 -1.07374 3.06009 0
M  V30 4631 H 420.809 0.494823 3.88965 0
M  V30 4632 H 422.299 -0.460362 4.15055 0
M  V30 4633 N 422.737 -1.36956 0.779787 0
M  V30 4634 C 423.685 -2.32053 0.15942 0
M  V30 4635 C 424.679 -1.55333 -0.675878 0
M  V30 4636 O 425.885 -1.70668 -0.57204 0
M  V30 4637 H 422.26 -0.751286 0.0327707 0
M  V30 4638 H 424.231 -2.8195 0.977078 0
M  V30 4639 C 422.98 -3.40602 -0.698977 0
M  V30 4640 H 422.303 -3.99746 -0.0655966 0
M  V30 4641 H 423.743 -4.09486 -1.09989 0
M  V30 4642 C 422.202 -2.81359 -1.85307 0
M  V30 4643 O 422.732 -2.72751 -2.94906 0
M  V30 4644 N 420.938 -2.38786 -1.65619 0
M  V30 4645 H 420.485 -2.45987 -0.764725 0
M  V30 4646 H 420.443 -1.99493 -2.43002 0
M  V30 4647 N 424.215 -0.530993 -1.48385 0
M  V30 4648 C 425.147 0.268353 -2.27624 0
M  V30 4649 C 426.16 0.903525 -1.35426 0
M  V30 4650 O 427.349 0.781796 -1.60469 0
M  V30 4651 C 424.449 1.39535 -3.08842 0
M  V30 4652 C 423.622 0.861913 -4.28824 0
M  V30 4653 C 422.681 1.87016 -4.91845 0
M  V30 4654 O 421.707 1.4267 -5.5103 0
M  V30 4655 N 422.909 3.20238 -4.84178 0
M  V30 4656 H 425.674 -0.41123 -2.96865 0
M  V30 4657 H 423.235 -0.365387 -1.57723 0
M  V30 4658 H 425.227 2.06803 -3.47871 0
M  V30 4659 H 423.797 1.97859 -2.42014 0
M  V30 4660 H 423.017 0.0132126 -3.94198 0
M  V30 4661 H 424.305 0.484415 -5.06489 0
M  V30 4662 H 423.703 3.58932 -4.37246 0
M  V30 4663 H 422.26 3.83136 -5.27305 0
M  V30 4664 N 425.693 1.55336 -0.266172 0
M  V30 4665 C 426.97 1.91372 0.404486 0
M  V30 4666 C 427.35 1.18935 1.74407 0
M  V30 4667 O 426.698 0.3132 2.26343 0
M  V30 4668 C 426.908 3.44581 0.553593 0
M  V30 4669 C 428.256 4.16196 0.840618 0
M  V30 4670 O 429.28 3.50426 0.638739 0
M  V30 4671 O 428.139 5.32567 1.22618 0
M  V30 4672 H 425.233 0.797194 0.220025 0
M  V30 4673 H 427.779 1.66813 -0.311664 0
M  V30 4674 H 426.551 3.89357 -0.389498 0
M  V30 4675 H 426.174 3.75065 1.31955 0
M  V30 4676 N 427.171 -0.0066808 1.57599 0
M  V30 4677 C 428.101 -0.999296 2.11036 0
M  V30 4678 C 429.082 -1.36278 1.01795 0
M  V30 4679 O 430.267 -1.4477 1.29442 0
M  V30 4680 C 427.397 -2.29328 2.60818 0
M  V30 4681 C 426.351 -2.07159 3.74525 0
M  V30 4682 C 425.677 -3.42512 4.10596 0
M  V30 4683 C 426.977 -1.43959 5.02069 0
M  V30 4684 H 428.671 -0.554382 2.94223 0
M  V30 4685 H 426.217 -0.265221 1.41536 0
M  V30 4686 H 428.17 -2.99117 2.96828 0
M  V30 4687 H 426.894 -2.7592 1.74745 0
M  V30 4688 H 425.553 -1.39797 3.38899 0
M  V30 4689 H 425.201 -3.86795 3.21556 0
M  V30 4690 H 424.901 -3.28498 4.87199 0
M  V30 4691 H 426.425 -4.13628 4.4916 0
M  V30 4692 H 427.839 -2.03696 5.35893 0
M  V30 4693 H 426.236 -1.40452 5.83432 0
M  V30 4694 H 427.306 -0.407992 4.83181 0
M  V30 4695 N 428.649 -1.55105 -0.279332 0
M  V30 4696 C 429.559 -1.90638 -1.36727 0
M  V30 4697 C 430.575 -0.802899 -1.54368 0
M  V30 4698 O 431.751 -1.10138 -1.68616 0
M  V30 4699 C 428.816 -2.16547 -2.70755 0
M  V30 4700 C 427.877 -3.40146 -2.61915 0
M  V30 4701 C 427.11 -3.6481 -3.8955 0
M  V30 4702 O 427.333 -2.92095 -4.89935 0
M  V30 4703 O 426.267 -4.58343 -3.90135 0
M  V30 4704 H 430.093 -2.83237 -1.09591 0
M  V30 4705 H 427.678 -1.4157 -0.477306 0
M  V30 4706 H 429.56 -2.34665 -3.50014 0
M  V30 4707 H 428.235 -1.27131 -2.9769 0
M  V30 4708 H 427.142 -3.2737 -1.81052 0
M  V30 4709 H 428.475 -4.29761 -2.3993 0
M  V30 4710 N 430.127 0.543554 -1.4793 0
M  V30 4711 C 431.373 1.30201 -1.55485 0
M  V30 4712 C 431.706 1.92925 -0.222201 0
M  V30 4713 O 430.981 1.78586 0.77053 0
M  V30 4714 C 431.264 2.40174 -2.68307 0
M  V30 4715 C 431.117 1.8223 -4.11233 0
M  V30 4716 C 432.436 3.42024 -2.76961 0
M  V30 4717 H 429.555 0.472036 -0.565996 0
M  V30 4718 H 432.197 0.606914 -1.80046 0
M  V30 4719 H 430.347 2.99463 -2.47495 0
M  V30 4720 H 432.019 1.27096 -4.43446 0
M  V30 4721 H 430.262 1.12832 -4.18869 0
M  V30 4722 H 430.933 2.61793 -4.85972 0
M  V30 4723 H 433.409 2.92672 -2.95774 0
M  V30 4724 H 432.285 4.16383 -3.57654 0
M  V30 4725 H 432.546 4.0173 -1.84568 0
M  V30 4726 N 431.605 1.3629 0.791371 0
M  V30 4727 C 432.854 1.29742 1.54434 0
M  V30 4728 C 433.167 -0.121729 1.95221 0
M  V30 4729 O 434.373 -0.309579 2.69729 0
M  V30 4730 C 432.829 2.27623 2.78776 0
M  V30 4731 C 432.437 3.74963 2.45166 0
M  V30 4732 C 434.181 2.30047 3.56761 0
M  V30 4733 C 432.088 4.64626 3.65891 0
M  V30 4734 H 431.018 0.482113 0.579727 0
M  V30 4735 H 433.669 1.61642 0.868565 0
M  V30 4736 H 432.051 1.88714 3.48142 0
M  V30 4737 H 433.225 4.22596 1.83709 0
M  V30 4738 H 431.54 3.75295 1.80396 0
M  V30 4739 H 434.137 2.94247 4.46456 0
M  V30 4740 H 434.48 1.30846 3.95203 0
M  V30 4741 H 435.013 2.67563 2.94372 0
M  V30 4742 H 431.752 5.64883 3.32547 0
M  V30 4743 H 431.272 4.2171 4.26521 0
M  V30 4744 H 432.951 4.80801 4.32943 0
M  V30 4745 N 433.083 -1.0153 1.20538 0
M  V30 4746 C 434.329 -1.75408 1.01783 0
M  V30 4747 C 434.662 -1.88943 -0.448814 0
M  V30 4748 O 433.937 -1.4162 -1.33319 0
M  V30 4749 C 434.22 -3.17255 1.70356 0
M  V30 4750 C 434.073 -3.11508 3.24473 0
M  V30 4751 C 435.392 -4.15955 1.43769 0
M  V30 4752 H 432.511 -0.636713 0.371167 0
M  V30 4753 H 435.153 -1.18436 1.4857 0
M  V30 4754 H 433.303 -3.65898 1.30578 0
M  V30 4755 H 434.975 -2.70658 3.73553 0
M  V30 4756 H 433.218 -2.4887 3.55311 0
M  V30 4757 H 433.889 -4.11784 3.67611 0
M  V30 4758 H 436.365 -3.75973 1.7828 0
M  V30 4759 H 435.241 -5.13368 1.94279 0
M  V30 4760 H 435.502 -4.40586 0.365564 0
M  V30 4761 N 434.561 -1.01147 -1.20859 0
M  V30 4762 C 435.81 -0.693214 -1.89413 0
M  V30 4763 C 436.123 0.779969 -1.79376 0
M  V30 4764 O 437.329 1.21057 -2.43017 0
M  V30 4765 C 435.785 -1.18949 -3.39675 0
M  V30 4766 C 435.393 -2.68921 -3.58309 0
M  V30 4767 C 437.137 -0.94642 -4.13815 0
M  V30 4768 C 435.044 -3.12056 -5.0237 0
M  V30 4769 H 433.974 -0.255595 -0.709357 0
M  V30 4770 H 436.625 -1.22349 -1.36759 0
M  V30 4771 H 435.007 -0.587228 -3.91622 0
M  V30 4772 H 436.181 -3.34652 -3.16772 0
M  V30 4773 H 434.496 -2.91314 -2.97532 0
M  V30 4774 H 437.093 -1.24417 -5.20023 0
M  V30 4775 H 437.436 0.117219 -4.16135 0
M  V30 4776 H 437.969 -1.5118 -3.67953 0
M  V30 4777 H 434.708 -4.17674 -5.05202 0
M  V30 4778 H 434.228 -2.51041 -5.44737 0
M  V30 4779 H 435.907 -3.04403 -5.70918 0
M  V30 4780 N 436.039 1.36541 -0.78704 0
M  V30 4781 C 436.969 2.32659 -0.197992 0
M  V30 4782 C 437.95 1.56533 0.665697 0
M  V30 4783 O 439.135 1.84698 0.60001 0
M  V30 4784 C 436.265 3.40778 0.669901 0
M  V30 4785 C 435.219 4.27897 -0.0937039 0
M  V30 4786 C 434.545 5.27163 0.894629 0
M  V30 4787 C 435.845 5.06334 -1.28154 0
M  V30 4788 H 437.539 2.82171 -1.00099 0
M  V30 4789 H 435.085 1.35665 -0.482793 0
M  V30 4790 H 437.038 4.07008 1.09191 0
M  V30 4791 H 435.762 2.89827 1.50558 0
M  V30 4792 H 434.421 3.6322 -0.49666 0
M  V30 4793 H 434.069 4.72486 1.72527 0
M  V30 4794 H 433.769 5.86317 0.388149 0
M  V30 4795 H 435.293 5.96266 1.31525 0
M  V30 4796 H 436.707 5.65617 -0.93541 0
M  V30 4797 H 435.104 5.74888 -1.72115 0
M  V30 4798 H 436.174 4.38114 -2.07807 0
M  V30 4799 N 437.518 0.538854 1.48102 0
M  V30 4800 C 438.428 -0.222648 2.33541 0
M  V30 4801 C 439.444 -0.930225 1.47047 0
M  V30 4802 O 440.62 -0.903211 1.80011 0
M  V30 4803 C 437.685 -1.25064 3.23357 0
M  V30 4804 C 436.746 -0.552469 4.2573 0
M  V30 4805 C 435.979 -1.53149 5.11254 0
M  V30 4806 O 436.202 -2.76487 4.9891 0
M  V30 4807 O 435.136 -1.06602 5.92385 0
M  V30 4808 H 438.962 0.477707 2.99919 0
M  V30 4809 H 436.547 0.299669 1.46364 0
M  V30 4810 H 438.429 -1.8445 3.78888 0
M  V30 4811 H 437.104 -1.93325 2.59629 0
M  V30 4812 H 436.011 0.082114 3.7401 0
M  V30 4813 H 437.344 0.0883526 4.92121 0
M  V30 4814 N 438.996 -1.55193 0.274407 0
M  V30 4815 C 440.244 -1.99187 -0.341902 0
M  V30 4816 C 440.565 -1.16422 -1.56431 0
M  V30 4817 O 439.835 -0.253573 -1.94252 0
M  V30 4818 H 438.415 -0.735721 -0.129317 0
M  V30 4819 H 441.077 -1.91168 0.379578 0
M  V30 4820 H 440.173 -3.05629 -0.632253 0
M  V30 4821 N 440.474 -0.00167713 -1.576 0
M  V30 4822 C 441.72 0.683832 -1.90923 0
M  V30 4823 C 442.053 1.7333 -0.875799 0
M  V30 4824 O 441.328 1.94215 0.10525 0
M  V30 4825 C 441.611 1.32543 -3.3482 0
M  V30 4826 C 441.464 0.287387 -4.48881 0
M  V30 4827 C 442.783 2.25114 -3.78169 0
M  V30 4828 H 439.902 0.247125 -0.694333 0
M  V30 4829 H 442.544 -0.0533149 -1.89925 0
M  V30 4830 H 440.694 1.95372 -3.35801 0
M  V30 4831 H 442.366 -0.341346 -4.60035 0
M  V30 4832 H 440.609 -0.39017 -4.32042 0
M  V30 4833 H 441.28 0.775393 -5.46527 0
M  V30 4834 H 443.756 1.723 -3.7875 0
M  V30 4835 H 442.632 2.66971 -4.79602 0
M  V30 4836 H 442.893 3.13092 -3.12131 0
M  V30 4837 N 441.952 1.55251 0.271103 0
M  V30 4838 C 443.198 1.76207 1.00394 0
M  V30 4839 C 443.531 0.562604 1.85872 0
M  V30 4840 O 442.806 -0.439785 1.89463 0
M  V30 4841 C 443.089 3.06828 1.8849 0
M  V30 4842 C 442.942 4.37134 1.05992 0
M  V30 4843 C 444.261 3.33503 2.87165 0
M  V30 4844 H 441.38 0.641086 0.363562 0
M  V30 4845 H 444.022 1.87982 0.276189 0
M  V30 4846 H 442.172 2.96921 2.5054 0
M  V30 4847 H 443.844 4.59001 0.459978 0
M  V30 4848 H 442.087 4.32275 0.363443 0
M  V30 4849 H 442.758 5.2486 1.70955 0
M  V30 4850 H 445.234 3.43215 2.3525 0
M  V30 4851 H 444.11 4.2616 3.45946 0
M  V30 4852 H 444.371 2.53235 3.62387 0
M  V30 4853 N 443.43 -0.535701 1.48216 0
M  V30 4854 C 444.34 -1.66785 1.64985 0
M  V30 4855 C 445.356 -1.65654 0.532414 0
M  V30 4856 O 446.532 -1.8471 0.80275 0
M  V30 4857 C 443.597 -3.0326 1.68031 0
M  V30 4858 C 442.658 -3.1529 2.9136 0
M  V30 4859 C 441.891 -4.45255 2.94252 0
M  V30 4860 O 442.114 -5.32011 2.05719 0
M  V30 4861 O 441.048 -4.6153 3.86359 0
M  V30 4862 H 444.874 -1.55576 2.60825 0
M  V30 4863 H 442.459 -0.70815 1.31551 0
M  V30 4864 H 444.341 -3.84436 1.72589 0
M  V30 4865 H 443.016 -3.14805 0.753628 0
M  V30 4866 H 441.923 -2.3343 2.92337 0
M  V30 4867 H 443.256 -3.08658 3.83394 0
M  V30 4868 N 444.908 -1.36708 -0.784132 0
M  V30 4869 C 446.136 -1.34398 -1.57305 0
M  V30 4870 C 446.551 0.0735577 -1.88657 0
M  V30 4871 O 445.908 1.03193 -1.50524 0
M  V30 4872 C 445.959 -2.17053 -2.89085 0
M  V30 4873 O 445.68 -3.53281 -2.59083 0
M  V30 4874 C 447.181 -2.22583 -3.83369 0
M  V30 4875 H 444.401 -0.460819 -0.487736 0
M  V30 4876 H 446.945 -1.79879 -0.972819 0
M  V30 4877 H 445.1 -1.75113 -3.45564 0
M  V30 4878 H 445.514 -3.9647 -3.43383 0
M  V30 4879 H 446.988 -2.84763 -4.72878 0
M  V30 4880 H 447.465 -1.23075 -4.21603 0
M  V30 4881 H 448.071 -2.64781 -3.32823 0
M  V30 4882 N 446.386 1.0089 -1.21074 0
M  V30 4883 C 447.614 1.78191 -1.05145 0
M  V30 4884 C 448.029 1.84537 0.398952 0
M  V30 4885 O 447.386 1.30393 1.27687 0
M  V30 4886 C 447.437 3.22288 -1.63746 0
M  V30 4887 O 447.158 3.16315 -3.03111 0
M  V30 4888 C 448.659 4.16106 -1.52875 0
M  V30 4889 H 445.879 0.560129 -0.369454 0
M  V30 4890 H 448.423 1.26945 -1.60328 0
M  V30 4891 H 446.578 3.70655 -1.12664 0
M  V30 4892 H 446.992 4.06817 -3.31059 0
M  V30 4893 H 448.466 5.15026 -1.98626 0
M  V30 4894 H 448.943 4.36541 -0.482521 0
M  V30 4895 H 449.549 3.73625 -2.03185 0
M  V30 4896 N 447.864 1.01787 1.20321 0
M  V30 4897 C 449.112 0.706538 1.89347 0
M  V30 4898 C 449.433 -0.766289 1.79313 0
M  V30 4899 O 448.703 -1.55126 1.19635 0
M  V30 4900 H 447.283 0.258348 0.700903 0
M  V30 4901 H 449.945 1.28974 1.46122 0
M  V30 4902 H 449.041 0.991066 2.95946 0
M  V30 4903 N 449.342 -1.36122 0.79427 0
M  V30 4904 C 450.591 -1.98361 0.365464 0
M  V30 4905 C 450.904 -1.6374 -1.06997 0
M  V30 4906 O 452.11 -2.19251 -1.60129 0
M  V30 4907 C 450.566 -3.54821 0.602496 0
M  V30 4908 C 450.174 -3.98362 2.04967 0
M  V30 4909 C 451.918 -4.2383 0.238437 0
M  V30 4910 C 449.825 -5.47619 2.2331 0
M  V30 4911 H 448.755 -0.742193 0.13291 0
M  V30 4912 H 451.406 -1.55354 0.976589 0
M  V30 4913 H 449.788 -3.95922 -0.078409 0
M  V30 4914 H 450.962 -3.68447 2.76737 0
M  V30 4915 H 449.277 -3.42206 2.37243 0
M  V30 4916 H 451.874 -5.33529 0.353705 0
M  V30 4917 H 452.217 -4.08264 -0.814006 0
M  V30 4918 H 452.75 -3.88108 0.872769 0
M  V30 4919 H 449.489 -5.68138 3.26955 0
M  V30 4920 H 449.009 -5.79145 1.5605 0
M  V30 4921 H 450.688 -6.13911 2.0426 0
M  V30 4922 N 450.82 -0.546701 -1.47814 0
M  V30 4923 C 452.048 -0.0232857 -2.06887 0
M  V30 4924 C 452.463 1.26571 -1.4009 0
M  V30 4925 O 451.82 1.7569 -0.493906 0
M  V30 4926 C 451.871 0.186975 -3.61016 0
M  V30 4927 O 451.592 -1.05097 -4.25307 0
M  V30 4928 C 453.093 0.748872 -4.36929 0
M  V30 4929 H 450.313 -0.0410763 -0.669742 0
M  V30 4930 H 452.857 -0.757117 -1.89968 0
M  V30 4931 H 451.012 0.870903 -3.77484 0
M  V30 4932 H 451.426 -0.842121 -5.17695 0
M  V30 4933 H 452.9 0.845334 -5.45489 0
M  V30 4934 H 453.377 1.75772 -4.02493 0
M  V30 4935 H 453.983 0.100979 -4.2518 0
M  V30 4936 N 452.299 1.55045 -0.282633 0
M  V30 4937 C 453.527 2.04168 0.33512 0
M  V30 4938 C 453.942 1.16071 1.48906 0
M  V30 4939 O 453.299 0.182391 1.81586 0
M  V30 4940 C 453.35 3.52332 0.808957 0
M  V30 4941 O 453.071 4.37078 -0.299038 0
M  V30 4942 C 454.572 4.17375 1.49375 0
M  V30 4943 H 451.792 0.666744 0.0754543 0
M  V30 4944 H 454.336 2.00205 -0.416918 0
M  V30 4945 H 452.491 3.56715 1.51106 0
M  V30 4946 H 452.905 5.24458 0.0665514 0
M  V30 4947 H 454.379 5.22627 1.77664 0
M  V30 4948 H 454.856 3.65999 2.42778 0
M  V30 4949 H 455.462 4.17016 0.835305 0
M  V30 4950 N 453.777 0.010035 1.57597 0
M  V30 4951 C 454.709 -1.00649 2.05918 0
M  V30 4952 C 455.722 -1.30077 0.978964 0
M  V30 4953 O 456.911 -1.26878 1.25556 0
M  V30 4954 C 454.011 -2.33876 2.45265 0
M  V30 4955 C 453.184 -2.23242 3.7614 0
M  V30 4956 C 452.243 -3.39242 4.02245 0
M  V30 4957 O 451.269 -3.1698 4.72771 0
M  V30 4958 N 452.471 -4.6242 3.50924 0
M  V30 4959 H 455.236 -0.594333 2.93748 0
M  V30 4960 H 452.797 -0.17714 1.60928 0
M  V30 4961 H 454.789 -3.1027 2.59836 0
M  V30 4962 H 453.359 -2.66799 1.62902 0
M  V30 4963 H 452.579 -1.31696 3.71551 0
M  V30 4964 H 453.867 -2.13321 4.61922 0
M  V30 4965 H 453.265 -4.83404 2.93832 0
M  V30 4966 H 451.822 -5.36046 3.70807 0
M  V30 4967 N 455.255 -1.55392 -0.262866 0
M  V30 4968 C 456.218 -1.88181 -1.30846 0
M  V30 4969 C 457.218 -0.757079 -1.41862 0
M  V30 4970 O 458.408 -1.02519 -1.40838 0
M  V30 4971 C 455.54 -2.09609 -2.68844 0
M  V30 4972 H 456.733 -2.81659 -1.02997 0
M  V30 4973 H 454.286 -1.48039 -0.501414 0
M  V30 4974 H 455.021 -1.18547 -3.01856 0
M  V30 4975 H 454.806 -2.91508 -2.62231 0
M  V30 4976 H 456.296 -2.36215 -3.44372 0
M  V30 4977 N 456.733 0.527833 -1.48498 0
M  V30 4978 C 458.149 0.856571 -1.34666 0
M  V30 4979 C 458.349 1.98271 -0.35931 0
M  V30 4980 O 457.405 2.51551 0.218703 0
M  V30 4981 C 458.718 1.22207 -2.74747 0
M  V30 4982 C 460.266 1.33183 -2.83251 0
M  V30 4983 C 460.741 1.73075 -4.24039 0
M  V30 4984 N 462.232 1.80174 -4.26722 0
M  V30 4985 C 462.967 2.1243 -5.32598 0
M  V30 4986 N 462.463 2.43096 -6.4875 0
M  V30 4987 N 464.256 2.13454 -5.19994 0
M  V30 4988 H 456.407 -0.215174 -2.11307 0
M  V30 4989 H 458.67 -0.0336281 -0.947403 0
M  V30 4990 H 458.376 0.468195 -3.4857 0
M  V30 4991 H 458.25 2.17173 -3.08409 0
M  V30 4992 H 460.637 2.07647 -2.09683 0
M  V30 4993 H 460.718 0.363333 -2.53206 0
M  V30 4994 H 460.362 0.991712 -4.98124 0
M  V30 4995 H 460.292 2.70979 -4.51529 0
M  V30 4996 H 462.783 1.58744 -3.42942 0
M  V30 4997 H 463.096 2.6682 -7.25277 0
M  V30 4998 H 461.441 2.40611 -6.52021 0
M  V30 4999 H 464.632 1.88956 -4.28268 0
M  V30 5000 H 464.805 2.38261 -6.02608 0
M  V30 5001 N 458.211 1.37122 0.776871 0
M  V30 5002 C 459.439 1.3523 1.5659 0
M  V30 5003 C 459.854 -0.0635518 1.88693 0
M  V30 5004 O 459.211 -1.02394 1.51069 0
M  V30 5005 C 459.262 2.18583 2.8793 0
M  V30 5006 O 458.983 3.5465 2.57206 0
M  V30 5007 C 460.484 2.24612 3.82183 0
M  V30 5008 H 457.704 0.4634 0.485285 0
M  V30 5009 H 460.248 1.80392 0.963266 0
M  V30 5010 H 458.403 1.76943 3.4463 0
M  V30 5011 H 458.817 3.98286 3.41275 0
M  V30 5012 H 460.291 2.87267 4.71361 0
M  V30 5013 H 460.768 1.25309 4.20944 0
M  V30 5014 H 461.374 2.66543 3.31414 0
M  V30 5015 N 459.689 -1.00246 1.21608 0
M  V30 5016 C 460.914 -1.78167 1.06167 0
M  V30 5017 C 461.339 -1.84138 -0.384035 0
M  V30 5018 O 460.697 -1.28683 -1.27712 0
M  V30 5019 C 460.745 -3.19786 1.66642 0
M  V30 5020 O 459.849 -4.02153 0.913613 0
M  V30 5021 H 459.19 -0.549 0.37349 0
M  V30 5022 H 461.72 -1.25994 1.61204 0
M  V30 5023 H 461.73 -3.70451 1.70969 0
M  V30 5024 H 460.405 -3.14754 2.7185 0
M  V30 5025 H 458.982 -3.60711 0.945635 0
M  V30 5026 N 461.167 -1.02423 -1.1978 0
M  V30 5027 C 462.397 -0.736387 -1.93031 0
M  V30 5028 C 462.805 0.708023 -1.75453 0
M  V30 5029 O 462.148 1.4927 -1.07071 0
M  V30 5030 C 462.21 -1.00194 -3.45255 0
M  V30 5031 C 461.874 -2.43698 -3.86601 0
M  V30 5032 C 462.871 -3.41814 -3.91738 0
M  V30 5033 C 460.556 -2.77975 -4.18372 0
M  V30 5034 C 462.55 -4.72265 -4.28071 0
M  V30 5035 C 460.237 -4.08636 -4.54378 0
M  V30 5036 C 461.235 -5.05592 -4.59201 0
M  V30 5037 O 460.923 -6.33914 -4.94376 0
M  V30 5038 H 460.655 -0.269116 -0.620123 0
M  V30 5039 H 463.209 -1.37043 -1.52998 0
M  V30 5040 H 461.439 -0.310747 -3.85449 0
M  V30 5041 H 463.128 -0.704488 -3.9974 0
M  V30 5042 H 463.894 -3.16671 -3.67348 0
M  V30 5043 H 459.773 -2.0319 -4.13805 0
M  V30 5044 H 463.317 -5.4794 -4.3175 0
M  V30 5045 H 459.214 -4.33556 -4.78226 0
M  V30 5046 H 459.982 -6.38317 -5.12341 0
M  V30 5047 N 462.645 1.35699 -0.801477 0
M  V30 5048 C 463.894 1.98165 -0.375979 0
M  V30 5049 C 464.207 1.64306 1.06127 0
M  V30 5050 O 465.413 2.20097 1.58964 0
M  V30 5051 C 463.869 3.54497 -0.621305 0
M  V30 5052 C 463.477 3.9727 -2.07076 0
M  V30 5053 C 465.221 4.23697 -0.26091 0
M  V30 5054 C 463.128 5.46427 -2.26211 0
M  V30 5055 H 462.058 0.741478 -0.136844 0
M  V30 5056 H 464.709 1.54834 -0.984814 0
M  V30 5057 H 463.091 3.95958 0.0574112 0
M  V30 5058 H 464.265 3.66974 -2.78687 0
M  V30 5059 H 462.58 3.40943 -2.39054 0
M  V30 5060 H 465.177 5.33334 -0.381994 0
M  V30 5061 H 465.52 4.0869 0.792344 0
M  V30 5062 H 466.053 3.87639 -0.893339 0
M  V30 5063 H 462.792 5.66396 -3.29963 0
M  V30 5064 H 462.312 5.78309 -1.59119 0
M  V30 5065 H 463.991 6.12819 -2.07513 0
M  V30 5066 N 464.123 0.554532 1.47522 0
M  V30 5067 C 465.086 -0.184174 2.28459 0
M  V30 5068 C 466.086 -0.845195 1.36796 0
M  V30 5069 O 467.276 -0.701467 1.59452 0
M  V30 5070 C 464.408 -1.26903 3.16399 0
M  V30 5071 H 465.601 0.526751 2.95238 0
M  V30 5072 H 463.154 0.311375 1.53167 0
M  V30 5073 H 463.889 -2.01244 2.54306 0
M  V30 5074 H 463.674 -0.799883 3.83854 0
M  V30 5075 H 465.164 -1.78794 3.77389 0
M  V30 5076 N 465.601 -1.54893 0.290851 0
M  V30 5077 C 466.511 -2.26812 -0.59945 0
M  V30 5078 C 467.527 -1.29963 -1.15696 0
M  V30 5079 O 468.703 -1.62928 -1.18391 0
M  V30 5080 C 465.768 -2.98716 -1.75982 0
M  V30 5081 C 464.829 -4.1108 -1.2374 0
M  V30 5082 C 464.062 -4.79546 -2.34246 0
M  V30 5083 O 464.285 -4.47309 -3.53936 0
M  V30 5084 O 463.219 -5.67165 -2.01512 0
M  V30 5085 H 467.045 -3.03696 -0.0163561 0
M  V30 5086 H 464.63 -1.49289 0.0576755 0
M  V30 5087 H 466.512 -3.43851 -2.43607 0
M  V30 5088 H 465.187 -2.24737 -2.3297 0
M  V30 5089 H 464.094 -3.70367 -0.527163 0
M  V30 5090 H 465.427 -4.87007 -0.71307 0
M  V30 5091 N 467.08 -0.0183926 -1.57589 0
M  V30 5092 C 467.99 0.982943 -2.13015 0
M  V30 5093 C 469.006 1.36443 -1.07979 0
M  V30 5094 O 470.182 1.44802 -1.3998 0
M  V30 5095 C 467.247 2.25024 -2.63752 0
M  V30 5096 C 466.308 1.93018 -3.83461 0
M  V30 5097 C 465.541 3.13706 -4.31769 0
M  V30 5098 O 465.764 4.2601 -3.79305 0
M  V30 5099 O 464.698 2.96629 -5.23732 0
M  V30 5100 H 468.524 0.541709 -2.9883 0
M  V30 5101 H 466.109 0.201565 -1.48034 0
M  V30 5102 H 467.991 2.99441 -2.96502 0
M  V30 5103 H 466.666 2.68349 -1.81026 0
M  V30 5104 H 465.573 1.16019 -3.55655 0
M  V30 5105 H 466.906 1.54516 -4.67317 0
M  V30 5106 N 468.558 1.5553 0.254621 0
M  V30 5107 C 469.807 1.76202 0.981612 0
M  V30 5108 C 470.12 0.580883 1.86776 0
M  V30 5109 O 471.326 0.670448 2.63092 0
M  V30 5110 C 469.782 3.11921 1.79537 0
M  V30 5111 C 469.39 4.37659 0.956991 0
M  V30 5112 C 471.134 3.41936 2.51555 0
M  V30 5113 C 469.041 5.64411 1.76619 0
M  V30 5114 H 467.971 0.656841 0.370237 0
M  V30 5115 H 470.622 1.81969 0.236556 0
M  V30 5116 H 469.004 3.00241 2.58208 0
M  V30 5117 H 470.178 4.60307 0.21315 0
M  V30 5118 H 468.493 4.14922 0.350497 0
M  V30 5119 H 471.09 4.33849 3.12536 0
M  V30 5120 H 471.433 2.62905 3.22779 0
M  V30 5121 H 471.966 3.54797 1.799 0
M  V30 5122 H 468.705 6.46241 1.09783 0
M  V30 5123 H 468.225 5.45877 2.48551 0
M  V30 5124 H 469.904 6.03386 2.33527 0
M  V30 5125 N 470.036 -0.519951 1.48776 0
M  V30 5126 C 470.968 -1.63973 1.60142 0
M  V30 5127 C 471.981 -1.55404 0.485117 0
M  V30 5128 O 473.17 -1.61682 0.756391 0
M  V30 5129 C 470.27 -3.02676 1.52449 0
M  V30 5130 C 469.443 -3.36624 2.79291 0
M  V30 5131 C 468.502 -4.54652 2.64912 0
M  V30 5132 O 467.528 -4.57374 3.38818 0
M  V30 5133 N 468.73 -5.53432 1.75195 0
M  V30 5134 H 471.495 -1.54656 2.56713 0
M  V30 5135 H 469.056 -0.707439 1.45626 0
M  V30 5136 H 471.048 -3.79525 1.4051 0
M  V30 5137 H 469.618 -3.06018 0.638125 0
M  V30 5138 H 468.838 -2.48855 3.0572 0
M  V30 5139 H 470.126 -3.56094 3.6342 0
M  V30 5140 H 469.524 -5.54018 1.14371 0
M  V30 5141 H 468.081 -6.29459 1.69189 0
M  V30 5142 N 471.514 -1.37532 -0.769588 0
M  V30 5143 C 472.76 -1.34063 -1.52966 0
M  V30 5144 C 473.115 0.0737942 -1.92258 0
M  V30 5145 O 472.408 1.03291 -1.61374 0
M  V30 5146 C 472.602 -2.21558 -2.8044 0
M  V30 5147 C 472.431 -3.71367 -2.53608 0
M  V30 5148 C 471.201 -4.40464 -2.47628 0
M  V30 5149 C 473.399 -4.64177 -2.21459 0
M  V30 5150 N 471.381 -5.758 -2.12902 0
M  V30 5151 C 472.752 -5.87907 -1.9689 0
M  V30 5152 C 474.807 -4.52541 -2.07633 0
M  V30 5153 C 473.51 -7.01304 -1.59892 0
M  V30 5154 C 475.536 -5.65825 -1.72034 0
M  V30 5155 C 474.898 -6.88606 -1.48327 0
M  V30 5156 H 470.997 -0.545856 -0.559969 0
M  V30 5157 H 473.581 -1.72773 -0.897634 0
M  V30 5158 H 471.752 -1.85061 -3.41478 0
M  V30 5159 H 473.484 -2.09332 -3.46356 0
M  V30 5160 H 470.239 -3.93491 -2.63556 0
M  V30 5161 H 470.663 -6.47328 -1.9823 0
M  V30 5162 H 475.305 -3.58183 -2.24643 0
M  V30 5163 H 473.023 -7.95594 -1.4162 0
M  V30 5164 H 476.609 -5.58793 -1.61991 0
M  V30 5165 H 475.489 -7.74779 -1.21189 0
M  V30 5166 N 472.992 0.995999 -1.22138 0
M  V30 5167 C 474.24 1.73167 -1.042 0
M  V30 5168 C 474.561 1.90329 0.42423 0
M  V30 5169 O 473.831 1.4607 1.30539 0
M  V30 5170 H 472.411 0.641593 -0.38258 0
M  V30 5171 H 475.073 1.19974 -1.53598 0
M  V30 5172 H 474.169 2.72734 -1.51731 0
M  V30 5173 N 474.47 1.03057 1.19235 0
M  V30 5174 C 475.42 0.583386 2.2041 0
M  V30 5175 C 476.404 -0.368776 1.56617 0
M  V30 5176 O 477.596 -0.189471 1.75983 0
M  V30 5177 C 474.725 -0.0626534 3.43243 0
M  V30 5178 C 473.811 0.91205 4.14177 0
M  V30 5179 N 474.202 2.07514 4.61272 0
M  V30 5180 C 472.5 0.735859 4.39888 0
M  V30 5181 C 473.201 2.69003 5.15764 0
M  V30 5182 N 472.177 1.96954 5.06666 0
M  V30 5183 H 475.979 1.46988 2.54503 0
M  V30 5184 H 473.493 0.897785 1.35328 0
M  V30 5185 H 475.49 -0.400653 4.1497 0
M  V30 5186 H 474.15 -0.944813 3.1065 0
M  V30 5187 H 475.161 2.45448 4.56043 0
M  V30 5188 H 471.838 -0.0970656 4.17387 0
M  V30 5189 H 473.228 3.67514 5.6248 0
M  V30 5190 N 475.948 -1.35272 0.808662 0
M  V30 5191 C 477.364 -1.51806 0.492653 0
M  V30 5192 C 477.564 -1.7574 -0.985778 0
M  V30 5193 O 476.62 -1.80003 -1.77074 0
M  V30 5194 C 477.933 -2.69202 1.33981 0
M  V30 5195 C 479.481 -2.8308 1.33547 0
M  V30 5196 C 479.956 -4.03502 2.16679 0
M  V30 5197 N 481.447 -4.10684 2.14227 0
M  V30 5198 C 482.182 -5.02984 2.75308 0
M  V30 5199 N 481.678 -6.00603 3.45323 0
M  V30 5200 N 483.471 -4.95746 2.64938 0
M  V30 5201 H 475.622 -1.17993 1.76611 0
M  V30 5202 H 477.885 -0.577476 0.751814 0
M  V30 5203 H 477.591 -2.581 2.38909 0
M  V30 5204 H 477.465 -3.63854 0.994491 0
M  V30 5205 H 479.852 -2.93631 0.294036 0
M  V30 5206 H 479.933 -1.89278 1.72068 0
M  V30 5207 H 479.577 -3.93711 3.20864 0
M  V30 5208 H 479.507 -4.96489 1.75517 0
M  V30 5209 H 481.998 -3.40802 1.63285 0
M  V30 5210 H 482.311 -6.67633 3.89212 0
M  V30 5211 H 480.656 -6.0077 3.49428 0
M  V30 5212 H 483.847 -4.18439 2.09825 0
M  V30 5213 H 484.02 -5.67487 3.12829 0
M  V30 5214 N 477.426 -0.562348 -1.47226 0
M  V30 5215 C 478.673 -0.0402165 -2.0246 0
M  V30 5216 C 479.001 1.31169 -1.43614 0
M  V30 5217 O 478.256 1.86805 -0.5833 0
M  V30 5218 C 478.555 0.0969817 -3.57268 0
M  V30 5219 C 478.221 -1.1847 -4.35058 0
M  V30 5220 C 476.883 -1.53588 -4.56031 0
M  V30 5221 C 479.235 -2.03378 -4.79882 0
M  V30 5222 C 476.563 -2.73452 -5.19077 0
M  V30 5223 C 478.915 -3.2245 -5.44251 0
M  V30 5224 C 477.579 -3.57876 -5.63455 0
M  V30 5225 H 476.849 -0.0147163 -0.740854 0
M  V30 5226 H 479.496 -0.734895 -1.76838 0
M  V30 5227 H 477.801 0.87466 -3.81912 0
M  V30 5228 H 479.498 0.516408 -3.97661 0
M  V30 5229 H 476.088 -0.90126 -4.19017 0
M  V30 5230 H 480.272 -1.77553 -4.63453 0
M  V30 5231 H 475.528 -3.01062 -5.32139 0
M  V30 5232 H 479.702 -3.88526 -5.77945 0
M  V30 5233 H 477.329 -4.50849 -6.12078 0
M  V30 5234 N 478.904 1.54736 -0.299062 0
M  V30 5235 C 480.15 2.00397 0.311244 0
M  V30 5236 C 480.483 1.18716 1.53688 0
M  V30 5237 O 479.758 0.263154 1.92712 0
M  V30 5238 C 480.041 3.53817 0.669761 0
M  V30 5239 C 479.894 4.46239 -0.564882 0
M  V30 5240 C 481.213 4.13856 1.49702 0
M  V30 5241 H 478.332 0.728493 0.111653 0
M  V30 5242 H 480.974 1.85506 -0.410774 0
M  V30 5243 H 479.124 3.66637 1.28491 0
M  V30 5244 H 480.796 4.45328 -1.20337 0
M  V30 5245 H 479.039 4.16916 -1.19849 0
M  V30 5246 H 479.71 5.5134 -0.269918 0
M  V30 5247 H 482.186 4.04461 0.977284 0
M  V30 5248 H 481.062 5.21365 1.71666 0
M  V30 5249 H 481.323 3.65608 2.48563 0
M  V30 5250 N 480.382 0.0267497 1.57577 0
M  V30 5251 C 481.607 -0.666227 1.96408 0
M  V30 5252 C 482.032 -1.65004 0.903071 0
M  V30 5253 O 481.39 -1.80787 -0.136263 0
M  V30 5254 C 481.438 -1.35101 3.34335 0
M  V30 5255 O 480.542 -2.46623 3.30531 0
M  V30 5256 H 479.883 -0.175206 0.640468 0
M  V30 5257 H 482.413 0.0878977 2.04411 0
M  V30 5258 H 482.423 -1.70834 3.70513 0
M  V30 5259 H 481.098 -0.629844 4.11103 0
M  V30 5260 H 479.675 -2.13019 3.06068 0
M  V30 5261 N 481.861 -1.55662 -0.24637 0
M  V30 5262 C 483.11 -1.7672 -0.972254 0
M  V30 5263 C 483.423 -0.59078 -1.86465 0
M  V30 5264 O 484.629 -0.684391 -2.62732 0
M  V30 5265 C 483.085 -3.12869 -1.7788 0
M  V30 5266 C 482.693 -4.38161 -0.933768 0
M  V30 5267 C 484.437 -3.43265 -2.49738 0
M  V30 5268 C 482.344 -5.6534 -1.73623 0
M  V30 5269 H 481.274 -0.658795 -0.366749 0
M  V30 5270 H 483.925 -1.82092 -0.226902 0
M  V30 5271 H 482.307 -3.01606 -2.56612 0
M  V30 5272 H 483.481 -4.60413 -0.188736 0
M  V30 5273 H 481.796 -4.15102 -0.328488 0
M  V30 5274 H 484.393 -4.35501 -3.10231 0
M  V30 5275 H 484.736 -2.64614 -3.2138 0
M  V30 5276 H 485.269 -3.55746 -1.78016 0
M  V30 5277 H 482.008 -6.46814 -1.06354 0
M  V30 5278 H 481.528 -5.47188 -2.45653 0
M  V30 5279 H 483.207 -6.04616 -2.30323 0
M  V30 5280 N 483.339 0.512053 -1.4905 0
M  V30 5281 C 484.585 1.26874 -1.58212 0
M  V30 5282 C 484.918 1.9241 -0.263073 0
M  V30 5283 O 484.193 1.80181 0.732476 0
M  V30 5284 C 484.476 2.34428 -2.73341 0
M  V30 5285 C 484.329 1.73466 -4.15006 0
M  V30 5286 C 485.648 3.36073 -2.84154 0
M  V30 5287 H 482.767 0.459924 -0.575881 0
M  V30 5288 H 485.409 0.568587 -1.81293 0
M  V30 5289 H 483.559 2.94146 -2.53792 0
M  V30 5290 H 485.231 1.17661 -4.46042 0
M  V30 5291 H 483.474 1.03921 -4.21168 0
M  V30 5292 H 484.145 2.51426 -4.91415 0
M  V30 5293 H 486.621 2.86332 -3.01916 0
M  V30 5294 H 485.497 4.08703 -3.66406 0
M  V30 5295 H 485.758 3.97725 -1.93048 0
M  V30 5296 N 484.817 1.37938 0.762283 0
M  V30 5297 C 486.045 1.36883 1.55147 0
M  V30 5298 C 486.46 -0.0435348 1.8875 0
M  V30 5299 O 485.817 -1.00786 1.52146 0
M  V30 5300 C 485.868 2.21624 2.85596 0
M  V30 5301 O 485.589 3.57358 2.5343 0
M  V30 5302 C 487.09 2.28653 3.7978 0
M  V30 5303 H 484.31 0.468521 0.480343 0
M  V30 5304 H 486.854 1.81404 0.944079 0
M  V30 5305 H 485.009 1.80588 3.42734 0
M  V30 5306 H 485.423 4.01883 3.37032 0
M  V30 5307 H 486.897 2.9225 4.68288 0
M  V30 5308 H 487.374 1.29767 4.19592 0
M  V30 5309 H 487.98 2.70043 3.28568 0
M  V30 5310 N 486.295 -0.989507 1.22664 0
M  V30 5311 C 487.205 -2.11449 1.01619 0
M  V30 5312 C 488.221 -1.73962 -0.036545 0
M  V30 5313 O 489.397 -2.00788 0.156924 0
M  V30 5314 C 486.462 -3.41465 0.600204 0
M  V30 5315 C 485.523 -3.93033 1.72695 0
M  V30 5316 C 484.756 -5.16844 1.33071 0
M  V30 5317 O 484.979 -5.7001 0.210975 0
M  V30 5318 O 483.913 -5.6225 2.14845 0
M  V30 5319 H 487.739 -2.32088 1.9588 0
M  V30 5320 H 485.324 -1.09823 1.01289 0
M  V30 5321 H 487.206 -4.19695 0.37873 0
M  V30 5322 H 485.881 -3.22178 -0.313511 0
M  V30 5323 H 484.788 -3.15961 2.00298 0
M  V30 5324 H 486.121 -4.16758 2.61865 0
M  V30 5325 N 487.773 -1.03688 -1.18687 0
M  V30 5326 C 488.683 -0.634908 -2.25845 0
M  V30 5327 C 489.699 0.337065 -1.70704 0
M  V30 5328 O 490.875 0.192943 -2.00474 0
M  V30 5329 C 487.94 -0.000180054 -3.467 0
M  V30 5330 C 487.001 -1.02067 -4.1699 0
M  V30 5331 C 486.234 -0.41614 -5.32075 0
M  V30 5332 O 486.457 0.778712 -5.65059 0
M  V30 5333 O 485.391 -1.14296 -5.90948 0
M  V30 5334 H 489.217 -1.52757 -2.62486 0
M  V30 5335 H 486.802 -0.807533 -1.25695 0
M  V30 5336 H 488.684 0.353342 -4.19916 0
M  V30 5337 H 487.359 0.866367 -3.11891 0
M  V30 5338 H 486.266 -1.42592 -3.45859 0
M  V30 5339 H 487.599 -1.85786 -4.5579 0
M  V30 5340 N 489.251 1.34841 -0.815825 0
M  V30 5341 C 490.161 2.33425 -0.234462 0
M  V30 5342 C 491.177 1.62295 0.627413 0
M  V30 5343 O 492.353 1.94109 0.536987 0
M  V30 5344 C 489.418 3.41471 0.599849 0
M  V30 5345 C 488.479 4.28362 -0.283596 0
M  V30 5346 C 487.712 5.31248 0.51099 0
M  V30 5347 O 487.935 5.43056 1.7449 0
M  V30 5348 O 486.869 6.01812 -0.10297 0
M  V30 5349 H 490.695 2.84962 -1.05024 0
M  V30 5350 H 488.28 1.37774 -0.577809 0
M  V30 5351 H 490.162 4.07464 1.07475 0
M  V30 5352 H 488.837 2.9219 1.39308 0
M  V30 5353 H 487.744 3.65318 -0.805836 0
M  V30 5354 H 489.077 4.81066 -1.041 0
M  V30 5355 N 490.729 0.570148 1.46925 0
M  V30 5356 C 491.977 0.0508523 2.02036 0
M  V30 5357 C 492.298 -1.30885 1.44548 0
M  V30 5358 O 491.568 -1.85647 0.625453 0
M  V30 5359 H 490.148 0.0158088 0.746833 0
M  V30 5360 H 492.81 0.743086 1.80178 0
M  V30 5361 H 491.906 -0.027575 3.12088 0
M  V30 5362 N 492.207 -1.54576 0.307264 0
M  V30 5363 C 493.453 -2.0056 -0.300612 0
M  V30 5364 C 493.786 -1.1953 -1.53057 0
M  V30 5365 O 493.061 -0.27337 -1.92569 0
M  V30 5366 C 493.344 -3.54167 -0.650987 0
M  V30 5367 C 493.197 -4.45933 0.588539 0
M  V30 5368 C 494.516 -4.14645 -1.47506 0
M  V30 5369 H 491.635 -0.729075 -0.107788 0
M  V30 5370 H 494.277 -1.85286 0.420606 0
M  V30 5371 H 492.427 -3.67313 -1.26544 0
M  V30 5372 H 494.099 -4.44683 1.22697 0
M  V30 5373 H 492.342 -4.16274 1.22058 0
M  V30 5374 H 493.013 -5.51189 0.299153 0
M  V30 5375 H 495.489 -4.04973 -0.955821 0
M  V30 5376 H 494.365 -5.22269 -1.68899 0
M  V30 5377 H 494.626 -3.66921 -2.4662 0
M  V30 5378 N 493.685 -0.035106 -1.57561 0
M  V30 5379 C 494.915 0.651312 -1.96065 0
M  V30 5380 C 495.323 1.6585 -0.910514 0
M  V30 5381 O 494.666 1.83336 0.11552 0
M  V30 5382 C 494.728 1.40897 -3.30739 0
M  V30 5383 C 494.392 0.559436 -4.53563 0
M  V30 5384 C 495.389 -0.16778 -5.19629 0
M  V30 5385 C 493.074 0.495079 -4.99854 0
M  V30 5386 C 495.068 -0.947963 -6.30311 0
M  V30 5387 C 492.755 -0.288804 -6.10417 0
M  V30 5388 C 493.753 -1.00903 -6.75505 0
M  V30 5389 O 493.441 -1.78005 -7.83945 0
M  V30 5390 H 493.173 0.184036 -0.650467 0
M  V30 5391 H 495.727 -0.0929677 -2.05189 0
M  V30 5392 H 493.957 2.19852 -3.18123 0
M  V30 5393 H 495.646 1.98407 -3.54104 0
M  V30 5394 H 496.412 -0.12743 -4.84833 0
M  V30 5395 H 492.291 1.04524 -4.48994 0
M  V30 5396 H 495.835 -1.51064 -6.81047 0
M  V30 5397 H 491.732 -0.33085 -6.44652 0
M  V30 5398 H 492.5 -1.70046 -8.00641 0
M  V30 5399 N 495.163 1.55791 0.238111 0
M  V30 5400 C 496.388 1.8244 0.986432 0
M  V30 5401 C 496.813 0.613314 1.7782 0
M  V30 5402 O 496.171 -0.437767 1.75935 0
M  V30 5403 C 496.219 3.06917 1.893 0
M  V30 5404 O 495.323 2.84449 2.98601 0
M  V30 5405 H 494.664 0.601975 0.280218 0
M  V30 5406 H 497.194 2.02987 0.256437 0
M  V30 5407 H 497.204 3.36583 2.30598 0
M  V30 5408 H 495.879 3.947 1.31091 0
M  V30 5409 H 494.456 2.65972 2.61368 0
M  V30 5410 N 496.642 -0.504142 1.49319 0
M  V30 5411 C 497.888 -1.26033 1.58882 0
M  V30 5412 C 498.221 -1.92268 0.273274 0
M  V30 5413 O 497.496 -1.80567 -0.72291 0
M  V30 5414 C 497.779 -2.32976 2.7458 0
M  V30 5415 C 497.632 -1.71263 4.1592 0
M  V30 5416 C 498.951 -3.34561 2.85932 0
M  V30 5417 H 496.07 -0.456863 0.578312 0
M  V30 5418 H 498.712 -0.558965 1.81592 0
M  V30 5419 H 496.862 -2.92796 2.55348 0
M  V30 5420 H 498.534 -1.15294 4.4666 0
M  V30 5421 H 496.777 -1.01686 4.21714 0
M  V30 5422 H 497.448 -2.48816 4.92742 0
M  V30 5423 H 499.924 -2.84727 3.0343 0
M  V30 5424 H 498.8 -4.06754 3.68568 0
M  V30 5425 H 499.061 -3.96695 1.95154 0
M  V30 5426 N 498.12 -1.38341 -0.754957 0
M  V30 5427 C 499.397 -1.24995 -1.50451 0
M  V30 5428 C 499.777 0.149244 -2.10572 0
M  V30 5429 O 499.125 1.15861 -1.96948 0
M  V30 5430 C 499.335 -2.35904 -2.57197 0
M  V30 5431 C 500.683 -2.74262 -3.24138 0
M  V30 5432 O 501.707 -2.35205 -2.67501 0
M  V30 5433 O 500.566 -3.4161 -4.26574 0
M  V30 5434 H 497.66 -0.48872 -0.667144 0
M  V30 5435 H 500.206 -1.50165 -0.790486 0
M  V30 5436 H 498.978 -3.2953 -2.11011 0
M  V30 5437 H 498.601 -2.12291 -3.36182 0
M  V30 5438 N 499.598 0.982988 -1.23187 0
M  V30 5439 C 500.828 1.75666 -1.08743 0
M  V30 5440 C 501.236 1.85662 0.364195 0
M  V30 5441 O 500.579 1.33317 1.26382 0
M  V30 5442 C 500.641 3.20144 -1.63549 0
M  V30 5443 C 500.305 3.33665 -3.12277 0
M  V30 5444 C 501.302 3.20194 -4.096 0
M  V30 5445 C 498.987 3.58397 -3.51933 0
M  V30 5446 C 500.981 3.31256 -5.44563 0
M  V30 5447 C 498.668 3.69098 -4.87042 0
M  V30 5448 C 499.666 3.55537 -5.83166 0
M  V30 5449 O 499.354 3.65864 -7.1582 0
M  V30 5450 H 499.086 0.558194 -0.381307 0
M  V30 5451 H 501.64 1.24387 -1.63454 0
M  V30 5452 H 499.87 3.72659 -1.03256 0
M  V30 5453 H 501.559 3.79262 -1.4462 0
M  V30 5454 H 502.325 3.00987 -3.80305 0
M  V30 5455 H 498.204 3.68025 -2.77631 0
M  V30 5456 H 501.748 3.20588 -6.19572 0
M  V30 5457 H 497.645 3.87814 -5.16014 0
M  V30 5458 H 498.413 3.82675 -7.23534 0
M  V30 5459 N 501.076 1.04316 1.18135 0
M  V30 5460 C 502.301 0.768047 1.92655 0
M  V30 5461 C 502.726 -0.66904 1.758 0
M  V30 5462 O 502.084 -1.46372 1.06981 0
M  V30 5463 C 502.132 1.14239 3.42026 0
M  V30 5464 O 501.236 0.269333 4.1152 0
M  V30 5465 H 500.577 0.282436 0.600937 0
M  V30 5466 H 503.107 1.39367 1.49793 0
M  V30 5467 H 503.117 1.10538 3.92741 0
M  V30 5468 H 501.792 2.18928 3.53615 0
M  V30 5469 H 500.369 0.366175 3.71098 0
M  V30 5470 N 502.554 -1.34406 0.822964 0
M  V30 5471 C 503.501 -2.29519 0.24284 0
M  V30 5472 C 504.471 -1.5359 -0.632397 0
M  V30 5473 O 505.656 -1.8196 -0.57403 0
M  V30 5474 C 502.796 -3.40032 -0.58925 0
M  V30 5475 C 501.909 -4.30899 0.308236 0
M  V30 5476 C 501.044 -5.28515 -0.533425 0
M  V30 5477 C 500.083 -6.1102 0.363444 0
M  V30 5478 N 499.22 -7.00725 -0.439147 0
M  V30 5479 H 504.06 -2.78537 1.05929 0
M  V30 5480 H 501.597 -1.3707 0.533872 0
M  V30 5481 H 503.555 -4.0279 -1.087 0
M  V30 5482 H 502.185 -2.92248 -1.37081 0
M  V30 5483 H 501.237 -3.69002 0.924203 0
M  V30 5484 H 502.549 -4.88717 0.997862 0
M  V30 5485 H 501.703 -5.96725 -1.09565 0
M  V30 5486 H 500.442 -4.71235 -1.25656 0
M  V30 5487 H 499.447 -5.41743 0.937812 0
M  V30 5488 H 500.672 -6.70381 1.08469 0
M  V30 5489 H 498.618 -6.45913 -1.14595 0
M  V30 5490 H 498.535 -7.55756 0.19209 0
M  V30 5491 H 499.803 -7.73263 -0.984124 0
M  V30 5492 N 504.032 -0.577932 -1.46621 0
M  V30 5493 C 505.279 -0.0616879 -2.02406 0
M  V30 5494 C 505.607 1.29638 -1.44997 0
M  V30 5495 O 504.862 1.86176 -0.60308 0
M  V30 5496 C 505.161 0.0590832 -3.57351 0
M  V30 5497 C 504.827 -1.23077 -4.33777 0
M  V30 5498 C 503.489 -1.58416 -4.54376 0
M  V30 5499 C 505.841 -2.08457 -4.77698 0
M  V30 5500 C 503.169 -2.78943 -5.16147 0
M  V30 5501 C 505.521 -3.28204 -5.408 0
M  V30 5502 C 504.185 -3.63832 -5.59627 0
M  V30 5503 H 503.455 -0.0225732 -0.740656 0
M  V30 5504 H 506.102 -0.753609 -1.76048 0
M  V30 5505 H 504.407 0.834104 -3.82818 0
M  V30 5506 H 506.104 0.474202 -3.98186 0
M  V30 5507 H 502.694 -0.945652 -4.18038 0
M  V30 5508 H 506.878 -1.82459 -4.61544 0
M  V30 5509 H 502.134 -3.06689 -5.28916 0
M  V30 5510 H 506.308 -3.94634 -5.73792 0
M  V30 5511 H 503.935 -4.57315 -6.07262 0
M  V30 5512 N 505.51 1.54411 -0.315457 0
M  V30 5513 C 506.758 2.00023 0.288971 0
M  V30 5514 C 507.079 1.20529 1.5329 0
M  V30 5515 O 506.349 0.304986 1.93511 0
M  V30 5516 H 504.929 0.738891 0.109766 0
M  V30 5517 H 507.591 1.90094 -0.430129 0
M  V30 5518 H 506.687 3.07198 0.550999 0
M  V30 5519 N 506.988 0.0434614 1.5754 0
M  V30 5520 C 507.936 -0.951465 2.1225 0
M  V30 5521 C 508.93 -1.3274 1.05245 0
M  V30 5522 O 510.136 -1.30795 1.23663 0
M  V30 5523 H 506.511 -0.324667 0.678303 0
M  V30 5524 H 508.482 -0.464855 2.94757 0
M  V30 5525 C 507.231 -2.21972 2.67626 0
M  V30 5526 H 506.554 -1.93923 3.4962 0
M  V30 5527 H 507.994 -2.89765 3.09536 0
M  V30 5528 C 506.453 -2.95919 1.61038 0
M  V30 5529 O 506.983 -3.8857 1.01862 0
M  V30 5530 N 505.189 -2.58511 1.32741 0
M  V30 5531 H 504.736 -1.83244 1.81051 0
M  V30 5532 H 504.694 -3.08296 0.616531 0
M  V30 5533 N 508.466 -1.55915 -0.229846 0
M  V30 5534 C 509.694 -1.82617 -0.972562 0
M  V30 5535 C 510.109 -0.621488 -1.78278 0
M  V30 5536 O 509.466 0.409956 -1.77836 0
M  V30 5537 C 509.517 -3.0774 -1.89679 0
M  V30 5538 O 509.238 -4.23559 -1.11934 0
M  V30 5539 C 510.739 -3.47368 -2.75409 0
M  V30 5540 H 507.959 -0.60727 -0.285419 0
M  V30 5541 H 510.503 -2.02996 -0.247579 0
M  V30 5542 H 508.658 -2.89361 -2.57583 0
M  V30 5543 H 509.072 -4.94586 -1.74599 0
M  V30 5544 H 510.546 -4.37977 -3.35977 0
M  V30 5545 H 511.023 -2.68737 -3.47386 0
M  V30 5546 H 511.629 -3.68158 -2.12931 0
M  V30 5547 N 509.944 0.496216 -1.49584 0
M  V30 5548 C 511.19 1.25189 -1.59548 0
M  V30 5549 C 511.523 1.9212 -0.283466 0
M  V30 5550 O 510.798 1.80947 0.713324 0
M  V30 5551 C 511.081 2.31516 -2.75812 0
M  V30 5552 C 510.934 1.69054 -4.16822 0
M  V30 5553 C 512.253 3.3304 -2.87702 0
M  V30 5554 H 509.372 0.45379 -0.580727 0
M  V30 5555 H 512.014 0.549327 -1.81886 0
M  V30 5556 H 510.164 2.91438 -2.56897 0
M  V30 5557 H 511.836 1.12923 -4.47265 0
M  V30 5558 H 510.079 0.994485 -4.22247 0
M  V30 5559 H 510.75 2.462 -4.94054 0
M  V30 5560 H 513.226 2.83114 -3.04936 0
M  V30 5561 H 512.102 4.04794 -3.7072 0
M  V30 5562 H 512.363 3.95655 -1.97255 0
M  V30 5563 N 511.423 1.38739 0.74761 0
M  V30 5564 C 512.37 1.36449 1.86146 0
M  V30 5565 C 513.34 0.226098 1.64554 0
M  V30 5566 O 514.525 0.41926 1.86137 0
M  V30 5567 C 511.665 1.2013 3.23516 0
M  V30 5568 C 510.778 2.43407 3.56899 0
M  V30 5569 C 509.913 2.19773 4.83605 0
M  V30 5570 C 508.952 3.3879 5.09792 0
M  V30 5571 N 508.089 3.14553 6.27695 0
M  V30 5572 H 512.929 2.3167 1.87438 0
M  V30 5573 H 510.466 1.15094 0.916063 0
M  V30 5574 H 512.424 1.08683 4.02795 0
M  V30 5575 H 511.054 0.285453 3.21535 0
M  V30 5576 H 510.106 2.65504 2.72418 0
M  V30 5577 H 511.418 3.32094 3.72176 0
M  V30 5578 H 510.572 2.05496 5.70838 0
M  V30 5579 H 509.311 1.28461 4.70478 0
M  V30 5580 H 508.316 3.53579 4.21025 0
M  V30 5581 H 509.541 4.30986 5.24812 0
M  V30 5582 H 507.487 2.25893 6.1588 0
M  V30 5583 H 507.404 3.96791 6.435 0
M  V30 5584 H 508.672 3.03943 7.17801 0
M  V30 5585 N 512.901 -0.976442 1.23707 0
M  V30 5586 C 514.147 -1.72081 1.07312 0
M  V30 5587 C 514.48 -1.90275 -0.388476 0
M  V30 5588 O 513.755 -1.4579 -1.28746 0
M  V30 5589 C 514.038 -3.11675 1.80363 0
M  V30 5590 C 513.891 -3.01027 3.3422 0
M  V30 5591 C 515.21 -4.1117 1.5693 0
M  V30 5592 H 512.329 -0.624583 0.391236 0
M  V30 5593 H 514.971 -1.13649 1.52263 0
M  V30 5594 H 513.121 -3.61559 1.42153 0
M  V30 5595 H 514.793 -2.58637 3.81975 0
M  V30 5596 H 513.036 -2.3744 3.63049 0
M  V30 5597 H 513.707 -3.9988 3.80525 0
M  V30 5598 H 516.183 -3.7011 1.90151 0
M  V30 5599 H 515.059 -5.06928 2.10513 0
M  V30 5600 H 515.32 -4.392 0.505548 0
M  V30 5601 N 514.379 -1.04941 -1.1758 0
M  V30 5602 C 515.342 -0.652456 -2.19717 0
M  V30 5603 C 516.342 0.294745 -1.58076 0
M  V30 5604 O 517.532 0.0789579 -1.74021 0
M  V30 5605 C 514.664 0.0420712 -3.40874 0
M  V30 5606 H 515.857 -1.55642 -2.5635 0
M  V30 5607 H 513.41 -0.842995 -1.31618 0
M  V30 5608 H 514.145 0.95943 -3.09783 0
M  V30 5609 H 513.93 -0.638844 -3.86861 0
M  V30 5610 H 515.42 0.306 -4.16477 0
M  V30 5611 N 515.857 1.33968 -0.830081 0
M  V30 5612 C 516.82 2.27694 -0.26235 0
M  V30 5613 C 517.82 1.50589 0.563876 0
M  V30 5614 O 519.01 1.70028 0.378941 0
M  V30 5615 C 516.142 3.35002 0.63138 0
M  V30 5616 H 517.335 2.79419 -1.08928 0
M  V30 5617 H 514.888 1.44221 -0.602486 0
M  V30 5618 H 515.623 2.88504 1.48109 0
M  V30 5619 H 515.408 3.92079 0.0403276 0
M  V30 5620 H 516.898 4.04897 1.02217 0
M  V30 5621 N 517.335 0.585699 1.46312 0
M  V30 5622 C 518.746 0.159938 1.86014 0
M  V30 5623 C 519.097 -1.27775 1.48889 0
M  V30 5624 O 518.222 -1.96559 0.90519 0
M  V30 5625 C 518.817 0.283485 3.37612 0
M  V30 5626 C 517.376 -0.0874256 3.76298 0
M  V30 5627 C 516.523 0.618055 2.70325 0
M  V30 5628 H 519.474 0.793737 1.37425 0
M  V30 5629 H 519.495 -0.490348 3.77327 0
M  V30 5630 H 519.007 1.32995 3.64601 0
M  V30 5631 H 517.108 -1.13391 3.54927 0
M  V30 5632 H 517.221 0.290975 4.78216 0
M  V30 5633 H 515.585 0.057993 2.54634 0
M  V30 5634 H 516.368 1.66623 3.00153 0
M  V30 5635 N 518.813 -1.54241 0.323641 0
M  V30 5636 C 520.229 -1.59574 -0.0290018 0
M  V30 5637 C 520.429 -1.34017 -1.50472 0
M  V30 5638 O 519.485 -1.12464 -2.26071 0
M  V30 5639 C 520.798 -2.98169 0.389295 0
M  V30 5640 C 522.346 -3.11148 0.339958 0
M  V30 5641 C 522.821 -4.5209 0.733418 0
M  V30 5642 N 524.312 -4.5808 0.686827 0
M  V30 5643 C 525.047 -5.65248 0.963464 0
M  V30 5644 N 524.543 -6.80355 1.30724 0
M  V30 5645 N 526.336 -5.55025 0.88902 0
M  V30 5646 H 518.487 -1.6911 1.28512 0
M  V30 5647 H 520.75 -0.790972 0.522558 0
M  V30 5648 H 520.456 -3.21871 1.41746 0
M  V30 5649 H 520.33 -3.76399 -0.245657 0
M  V30 5650 H 522.717 -2.87182 -0.679002 0
M  V30 5651 H 522.798 -2.35023 1.00985 0
M  V30 5652 H 522.442 -4.76788 1.75029 0
M  V30 5653 H 522.372 -5.26584 0.0412189 0
M  V30 5654 H 524.863 -3.75411 0.43298 0
M  V30 5655 H 525.176 -7.58029 1.5037 0
M  V30 5656 H 523.521 -6.81851 1.3455 0
M  V30 5657 H 526.712 -4.63977 0.619939 0
M  V30 5658 H 526.885 -6.38458 1.10797 0
M  V30 5659 N 520.291 -0.0518155 -1.57515 0
M  V30 5660 C 521.531 0.625712 -1.94587 0
M  V30 5661 C 521.895 1.6797 -0.930053 0
M  V30 5662 O 523.096 2.41135 -1.18774 0
M  V30 5663 C 521.367 1.20574 -3.36447 0
M  V30 5664 S 522.926 1.90118 -3.95475 0
M  V30 5665 H 519.744 0.205434 -0.680675 0
M  V30 5666 H 522.346 -0.120906 -1.95126 0
M  V30 5667 H 521.05 0.426521 -4.08178 0
M  V30 5668 H 520.581 1.98916 -3.39405 0
M  V30 5669 H 522.596 3.18184 -3.80753 0
M  V30 5670 N 521.769 1.56035 0.221574 0
M  V30 5671 C 522.994 1.83476 0.967026 0
M  V30 5672 C 523.419 0.632139 1.7716 0
M  V30 5673 O 522.777 -0.419082 1.7639 0
M  V30 5674 C 522.825 3.08907 1.86034 0
M  V30 5675 O 521.929 2.876 2.95567 0
M  V30 5676 H 521.27 0.604913 0.273817 0
M  V30 5677 H 523.8 2.03247 0.234893 0
M  V30 5678 H 523.81 3.3901 2.27016 0
M  V30 5679 H 522.485 3.96068 1.26898 0
M  V30 5680 H 521.062 2.6873 2.58532 0
M  V30 5681 N 523.247 -0.488276 1.49845 0
M  V30 5682 C 524.21 -1.57069 1.66919 0
M  V30 5683 C 525.21 -1.51445 0.540479 0
M  V30 5684 O 526.4 -1.5437 0.807188 0
M  V30 5685 C 523.532 -2.96718 1.67844 0
M  V30 5686 H 524.725 -1.43254 2.63474 0
M  V30 5687 H 522.278 -0.713435 1.39068 0
M  V30 5688 H 523.013 -3.15996 0.7292 0
M  V30 5689 H 522.798 -3.02208 2.49826 0
M  V30 5690 H 524.288 -3.75335 1.83066 0
M  V30 5691 N 524.725 -1.39134 -0.740242 0
M  V30 5692 C 526.141 -1.20623 -1.0451 0
M  V30 5693 C 526.341 -0.0641651 -2.01398 0
M  V30 5694 O 525.397 0.585843 -2.4561 0
M  V30 5695 C 526.71 -2.53815 -1.6124 0
M  V30 5696 C 528.258 -2.60615 -1.73346 0
M  V30 5697 C 528.733 -3.94015 -2.33486 0
M  V30 5698 N 530.224 -3.95627 -2.40902 0
M  V30 5699 C 530.959 -4.95616 -2.88361 0
M  V30 5700 N 530.455 -6.06003 -3.35756 0
M  V30 5701 N 532.248 -4.82998 -2.87523 0
M  V30 5702 H 524.399 -2.12176 -0.0975576 0
M  V30 5703 H 526.662 -0.942066 -0.105904 0
M  V30 5704 H 526.368 -3.37911 -0.975144 0
M  V30 5705 H 526.242 -2.73162 -2.6012 0
M  V30 5706 H 528.629 -1.76906 -2.36195 0
M  V30 5707 H 528.71 -2.45123 -0.731336 0
M  V30 5708 H 528.354 -4.78153 -1.71267 0
M  V30 5709 H 528.284 -4.06825 -3.34366 0
M  V30 5710 H 530.775 -3.15903 -2.07398 0
M  V30 5711 H 531.088 -6.78215 -3.70464 0
M  V30 5712 H 529.433 -6.09604 -3.33778 0
M  V30 5713 H 532.624 -3.95866 -2.49816 0
M  V30 5714 H 532.797 -5.61072 -3.24196 0
M  V30 5715 N 526.204 0.969867 -1.24223 0
M  V30 5716 C 527.114 2.09806 -1.0497 0
M  V30 5717 C 528.13 1.73998 0.00886455 0
M  V30 5718 O 529.306 2.00513 -0.188848 0
M  V30 5719 C 526.371 3.40467 -0.654452 0
M  V30 5720 C 525.432 3.90236 -1.78926 0
M  V30 5721 C 524.665 5.14662 -1.41277 0
M  V30 5722 O 524.888 5.69602 -0.301632 0
M  V30 5723 O 523.822 5.58761 -2.23763 0
M  V30 5724 H 527.648 2.28942 -1.99548 0
M  V30 5725 H 525.233 1.08197 -1.03023 0
M  V30 5726 H 527.115 4.19039 -0.445452 0
M  V30 5727 H 525.79 3.22636 0.262216 0
M  V30 5728 H 524.697 3.12735 -2.05299 0
M  V30 5729 H 526.03 4.1254 -2.68462 0
M  V30 5730 N 527.682 1.05563 1.17022 0
M  V30 5731 C 528.612 0.681026 2.23348 0
M  V30 5732 C 529.593 -0.322983 1.67005 0
M  V30 5733 O 530.778 -0.199746 1.9317 0
M  V30 5734 C 527.908 0.0589053 3.4725 0
M  V30 5735 C 526.862 0.988082 4.16438 0
M  V30 5736 C 526.188 0.229646 5.34207 0
M  V30 5737 C 527.488 2.31388 4.68249 0
M  V30 5738 H 529.182 1.56993 2.54938 0
M  V30 5739 H 526.728 0.756302 1.2254 0
M  V30 5740 H 528.681 -0.214982 4.20851 0
M  V30 5741 H 527.405 -0.864968 3.14938 0
M  V30 5742 H 526.064 1.24659 3.44754 0
M  V30 5743 H 525.712 -0.697111 4.98146 0
M  V30 5744 H 525.412 0.848815 5.81437 0
M  V30 5745 H 526.936 -0.0368694 6.10589 0
M  V30 5746 H 528.35 2.09964 5.33468 0
M  V30 5747 H 526.747 2.88736 5.26072 0
M  V30 5748 H 527.817 2.94982 3.84855 0
M  V30 5749 N 529.16 -1.33526 0.837174 0
M  V30 5750 C 530.437 -1.92369 0.354065 0
M  V30 5751 C 530.817 -1.76348 -1.16038 0
M  V30 5752 O 530.165 -1.15083 -1.97403 0
M  V30 5753 C 530.375 -3.39728 0.799101 0
M  V30 5754 C 531.723 -4.16877 0.806139 0
M  V30 5755 O 532.747 -3.48373 0.742597 0
M  V30 5756 O 531.606 -5.39166 0.892345 0
M  V30 5757 H 528.7 -0.820952 0.0998378 0
M  V30 5758 H 531.246 -1.42409 0.922913 0
M  V30 5759 H 530.018 -3.45254 1.84162 0
M  V30 5760 H 529.641 -3.97062 0.206731 0
M  V30 5761 N 530.638 -0.59345 -1.46 0
M  V30 5762 C 531.548 0.135817 -2.34207 0
M  V30 5763 C 532.564 0.875008 -1.50398 0
M  V30 5764 O 533.74 0.835778 -1.83239 0
M  V30 5765 C 530.805 1.12977 -3.27776 0
M  V30 5766 C 529.866 0.394081 -4.27487 0
M  V30 5767 C 529.099 1.34068 -5.16586 0
M  V30 5768 O 529.322 2.5778 -5.08828 0
M  V30 5769 O 528.256 0.845426 -5.95933 0
M  V30 5770 H 532.082 -0.588691 -2.9794 0
M  V30 5771 H 529.667 -0.353784 -1.45151 0
M  V30 5772 H 531.549 1.70261 -3.85473 0
M  V30 5773 H 530.224 1.83556 -2.66625 0
M  V30 5774 H 529.131 -0.220869 -3.73447 0
M  V30 5775 H 530.464 -0.270939 -4.91454 0
M  V30 5776 N 532.116 1.54067 -0.331816 0
M  V30 5777 C 533.063 2.24623 0.530372 0
M  V30 5778 C 534.033 1.24009 1.10503 0
M  V30 5779 O 535.218 1.52712 1.14384 0
M  V30 5780 C 532.358 3.01374 1.68129 0
M  V30 5781 C 531.471 4.16821 1.13507 0
M  V30 5782 C 530.606 4.81085 2.25234 0
M  V30 5783 C 529.645 5.88621 1.67903 0
M  V30 5784 N 528.782 6.46713 2.73326 0
M  V30 5785 H 533.622 2.97898 -0.0778607 0
M  V30 5786 H 531.159 1.47014 -0.0501965 0
M  V30 5787 H 533.117 3.44125 2.35868 0
M  V30 5788 H 531.747 2.30419 2.26069 0
M  V30 5789 H 530.799 3.78796 0.348979 0
M  V30 5790 H 532.111 4.94203 0.675633 0
M  V30 5791 H 531.265 5.26846 3.00862 0
M  V30 5792 H 530.004 4.03102 2.74518 0
M  V30 5793 H 529.009 5.42254 0.907773 0
M  V30 5794 H 530.234 6.68506 1.19487 0
M  V30 5795 H 528.18 5.71599 3.21886 0
M  V30 5796 H 528.097 7.19532 2.3197 0
M  V30 5797 H 529.365 6.97129 3.48758 0
M  V30 5798 N 533.594 0.0601682 1.57485 0
M  V30 5799 C 535.005 -0.474217 1.80577 0
M  V30 5800 C 535.356 -1.70365 0.973147 0
M  V30 5801 O 534.481 -2.15544 0.192306 0
M  V30 5802 C 535.076 -0.867102 3.27516 0
M  V30 5803 C 533.635 -1.34642 3.51495 0
M  V30 5804 C 532.782 -0.32594 2.75378 0
M  V30 5805 H 535.733 0.285973 1.56102 0
M  V30 5806 H 535.754 -1.72938 3.38929 0
M  V30 5807 H 535.266 0.0278927 3.8809 0
M  V30 5808 H 533.367 -2.2603 2.96212 0
M  V30 5809 H 533.48 -1.33237 4.60201 0
M  V30 5810 H 531.844 -0.800749 2.41785 0
M  V30 5811 H 532.627 0.561125 3.38683 0
M  V30 5812 N 535.072 -1.5615 -0.213296 0
M  V30 5813 C 536.297 -1.83986 -0.957282 0
M  V30 5814 C 536.722 -0.641526 -1.76822 0
M  V30 5815 O 536.08 0.409722 -1.7661 0
M  V30 5816 C 536.128 -3.09889 -1.84393 0
M  V30 5817 O 535.232 -2.89163 -2.94038 0
M  V30 5818 H 534.573 -0.606357 -0.270605 0
M  V30 5819 H 537.103 -2.03369 -0.224111 0
M  V30 5820 H 537.113 -3.40209 -2.25215 0
M  V30 5821 H 535.788 -3.96735 -1.24795 0
M  V30 5822 H 534.365 -2.70097 -2.57103 0
M  V30 5823 N 536.55 0.480323 -1.50102 0
M  V30 5824 C 537.799 1.22979 -1.59872 0
M  V30 5825 C 538.112 1.93282 -0.30022 0
M  V30 5826 O 539.318 2.70086 -0.276709 0
M  V30 5827 C 537.774 2.23408 -2.82164 0
M  V30 5828 C 537.382 1.5895 -4.18854 0
M  V30 5829 C 539.126 2.99055 -3.01275 0
M  V30 5830 C 537.033 2.57611 -5.32344 0
M  V30 5831 H 535.963 0.462707 -0.59533 0
M  V30 5832 H 538.614 0.501291 -1.7652 0
M  V30 5833 H 536.996 2.99511 -2.59055 0
M  V30 5834 H 538.17 0.887 -4.52182 0
M  V30 5835 H 536.485 0.956191 -4.05273 0
M  V30 5836 H 539.082 3.72876 -3.83233 0
M  V30 5837 H 539.425 3.57897 -2.12639 0
M  V30 5838 H 539.958 2.30066 -3.24522 0
M  V30 5839 H 536.697 2.03521 -6.23105 0
M  V30 5840 H 536.217 3.26041 -5.03445 0
M  V30 5841 H 537.896 3.19627 -5.62537 0
M  V30 5842 N 538.028 1.39524 0.732853 0
M  V30 5843 C 538.958 1.41153 1.86005 0
M  V30 5844 C 539.939 0.274614 1.67869 0
M  V30 5845 O 541.124 0.480745 1.88155 0
M  V30 5846 C 538.254 1.25638 3.23778 0
M  V30 5847 C 537.208 2.36752 3.56556 0
M  V30 5848 C 536.534 2.06326 4.93289 0
M  V30 5849 C 537.834 3.79069 3.5931 0
M  V30 5850 H 539.528 2.35484 1.84899 0
M  V30 5851 H 537.074 1.13348 0.888162 0
M  V30 5852 H 539.027 1.25398 4.0231 0
M  V30 5853 H 537.751 0.277772 3.25417 0
M  V30 5854 H 536.41 2.36213 2.80355 0
M  V30 5855 H 536.058 1.06897 4.9151 0
M  V30 5856 H 535.758 2.80757 5.16187 0
M  V30 5857 H 537.282 2.07739 5.74175 0
M  V30 5858 H 538.696 3.81526 4.27914 0
M  V30 5859 H 537.093 4.52878 3.93728 0
M  V30 5860 H 538.163 4.09893 2.59068 0
M  V30 5861 N 539.506 -0.963266 1.24736 0
M  V30 5862 C 540.755 -1.70115 1.08369 0
M  V30 5863 C 541.068 -1.91939 -0.376688 0
M  V30 5864 O 542.274 -2.6334 -0.660624 0
M  V30 5865 C 540.73 -3.06218 1.89099 0
M  V30 5866 C 540.338 -2.92221 3.39574 0
M  V30 5867 C 542.082 -3.83848 1.81275 0
M  V30 5868 C 539.989 -4.23662 4.12631 0
M  V30 5869 H 538.919 -0.637944 0.401924 0
M  V30 5870 H 541.57 -1.07304 1.48856 0
M  V30 5871 H 539.952 -3.69884 1.41429 0
M  V30 5872 H 541.126 -2.37541 3.94856 0
M  V30 5873 H 539.441 -2.28054 3.48397 0
M  V30 5874 H 542.038 -4.81188 2.33158 0
M  V30 5875 H 542.381 -4.08949 0.778895 0
M  V30 5876 H 542.914 -3.26918 2.26649 0
M  V30 5877 H 539.653 -4.03753 5.16395 0
M  V30 5878 H 539.173 -4.78141 3.62135 0
M  V30 5879 H 540.852 -4.92256 4.19873 0
M  V30 5880 N 540.985 -1.06182 -1.16461 0
M  V30 5881 C 541.917 -0.629584 -2.20383 0
M  V30 5882 C 542.93 0.311834 -1.59786 0
M  V30 5883 O 544.119 0.103 -1.78203 0
M  V30 5884 C 541.219 0.0973695 -3.3876 0
M  V30 5885 C 540.392 -0.857252 -4.28917 0
M  V30 5886 C 539.451 -0.169749 -5.25926 0
M  V30 5887 O 538.477 -0.807044 -5.6345 0
M  V30 5888 N 539.679 1.08911 -5.70192 0
M  V30 5889 H 542.444 -1.52352 -2.58087 0
M  V30 5890 H 540.005 -0.944993 -1.31459 0
M  V30 5891 H 541.997 0.567676 -4.00699 0
M  V30 5892 H 540.567 0.893093 -2.99571 0
M  V30 5893 H 539.787 -1.50696 -3.64259 0
M  V30 5894 H 541.075 -1.50489 -4.86035 0
M  V30 5895 H 540.473 1.62703 -5.41797 0
M  V30 5896 H 539.03 1.50331 -6.34227 0
M  V30 5897 N 542.463 1.3308 -0.844243 0
M  V30 5898 C 543.691 2.01808 -0.456203 0
M  V30 5899 C 544.106 1.63498 0.944131 0
M  V30 5900 O 543.463 0.85102 1.61443 0
M  V30 5901 C 543.514 3.56922 -0.573513 0
M  V30 5902 O 543.235 3.93851 -1.91868 0
M  V30 5903 C 544.736 4.42922 -0.183125 0
M  V30 5904 H 541.956 0.646273 -0.180477 0
M  V30 5905 H 544.5 1.69891 -1.1383 0
M  V30 5906 H 542.655 3.87352 0.0607367 0
M  V30 5907 H 543.069 4.88564 -1.90802 0
M  V30 5908 H 544.543 5.51093 -0.316241 0
M  V30 5909 H 545.02 4.30386 0.875477 0
M  V30 5910 H 545.626 4.1786 -0.792027 0
M  V30 5911 N 543.941 0.601185 1.45683 0
M  V30 5912 C 544.871 -0.108824 2.33246 0
M  V30 5913 C 545.852 -0.865223 1.46451 0
M  V30 5914 O 547.037 -0.83704 1.75235 0
M  V30 5915 C 544.167 -1.11101 3.2905 0
M  V30 5916 C 543.121 -0.468244 4.25431 0
M  V30 5917 C 542.447 -1.57822 5.10878 0
M  V30 5918 C 543.747 0.606469 5.18767 0
M  V30 5919 H 545.441 0.622306 2.92861 0
M  V30 5920 H 542.987 0.300714 1.40825 0
M  V30 5921 H 544.94 -1.61622 3.89174 0
M  V30 5922 H 543.664 -1.87265 2.67581 0
M  V30 5923 H 542.323 0.0160484 3.66596 0
M  V30 5924 H 541.971 -2.32998 4.45781 0
M  V30 5925 H 541.671 -1.15369 5.76163 0
M  V30 5926 H 543.195 -2.08583 5.73869 0
M  V30 5927 H 544.609 0.185589 5.73 0
M  V30 5928 H 543.006 0.952381 5.92494 0
M  V30 5929 H 544.076 1.48559 4.61582 0
M  V30 5930 N 545.419 -1.53889 0.339982 0
M  V30 5931 C 546.351 -2.22435 -0.55275 0
M  V30 5932 C 547.364 -1.22975 -1.06681 0
M  V30 5933 O 548.553 -1.49351 -0.977575 0
M  V30 5934 C 545.653 -2.8882 -1.77302 0
M  V30 5935 C 544.826 -4.14563 -1.39486 0
M  V30 5936 C 543.885 -4.64391 -2.47442 0
M  V30 5937 O 542.911 -5.28687 -2.10899 0
M  V30 5938 N 544.113 -4.40015 -3.78639 0
M  V30 5939 H 546.878 -2.9968 0.0342669 0
M  V30 5940 H 544.439 -1.61068 0.16394 0
M  V30 5941 H 546.431 -3.19072 -2.48948 0
M  V30 5942 H 545.001 -2.15182 -2.26749 0
M  V30 5943 H 544.221 -3.90896 -0.509321 0
M  V30 5944 H 545.509 -4.96362 -1.11813 0
M  V30 5945 H 544.907 -3.88586 -4.11118 0
M  V30 5946 H 543.464 -4.74881 -4.46465 0
M  V30 5947 N 546.897 -0.0685191 -1.57451 0
M  V30 5948 C 547.844 0.899861 -2.12535 0
M  V30 5949 C 548.814 1.29749 -1.03703 0
M  V30 5950 O 549.999 1.38392 -1.31348 0
M  V30 5951 C 547.139 2.16328 -2.6888 0
M  V30 5952 C 546.252 1.81857 -3.91857 0
M  V30 5953 C 545.387 3.02786 -4.36457 0
M  V30 5954 C 544.426 2.64317 -5.5209 0
M  V30 5955 N 543.563 3.77994 -5.91663 0
M  V30 5956 H 548.403 0.423243 -2.94979 0
M  V30 5957 H 545.94 0.197268 -1.45771 0
M  V30 5958 H 547.898 2.90281 -2.99655 0
M  V30 5959 H 546.528 2.61536 -1.89206 0
M  V30 5960 H 545.58 0.979808 -3.67565 0
M  V30 5961 H 546.892 1.49553 -4.75852 0
M  V30 5962 H 546.046 3.85021 -4.68875 0
M  V30 5963 H 544.785 3.38281 -3.51308 0
M  V30 5964 H 543.79 1.80503 -5.19325 0
M  V30 5965 H 545.015 2.29995 -6.38967 0
M  V30 5966 H 542.961 4.13258 -5.09464 0
M  V30 5967 H 542.878 3.49447 -6.7039 0
M  V30 5968 H 544.146 4.60818 -6.28703 0
M  V30 5969 N 548.375 1.56261 0.205012 0
M  V30 5970 C 549.6 1.84491 0.947512 0
M  V30 5971 C 550.025 0.650894 1.76479 0
M  V30 5972 O 549.383 -0.40035 1.76824 0
M  V30 5973 C 549.431 3.10863 1.82747 0
M  V30 5974 O 548.535 2.90719 2.925 0
M  V30 5975 H 547.876 0.607783 0.267386 0
M  V30 5976 H 550.406 2.03485 0.213323 0
M  V30 5977 H 550.416 3.41399 2.23407 0
M  V30 5978 H 549.091 3.97392 1.2269 0
M  V30 5979 H 547.668 2.71457 2.55667 0
M  V30 5980 N 549.853 -0.472356 1.50355 0
M  V30 5981 C 550.763 -1.59637 1.7191 0
M  V30 5982 C 551.779 -1.63247 0.602195 0
M  V30 5983 O 552.955 -1.81139 0.880369 0
M  V30 5984 C 550.02 -2.9586 1.80742 0
M  V30 5985 C 549.081 -3.02649 3.04471 0
M  V30 5986 C 548.314 -4.32374 3.12872 0
M  V30 5987 O 548.537 -5.22807 2.28099 0
M  V30 5988 O 547.471 -4.44728 4.05587 0
M  V30 5989 H 551.297 -1.44373 2.67189 0
M  V30 5990 H 548.882 -0.651717 1.34436 0
M  V30 5991 H 550.764 -3.7677 1.88739 0
M  V30 5992 H 549.439 -3.11325 0.88647 0
M  V30 5993 H 548.346 -2.20821 3.01975 0
M  V30 5994 H 549.679 -2.92119 3.9614 0
M  V30 5995 N 551.331 -1.39911 -0.725443 0
M  V30 5996 C 552.261 -1.42138 -1.85254 0
M  V30 5997 C 553.242 -0.283513 -1.67721 0
M  V30 5998 O 554.427 -0.490717 -1.87898 0
M  V30 5999 C 551.557 -1.27354 -3.23107 0
M  V30 6000 C 550.511 -2.3864 -3.55296 0
M  V30 6001 C 549.837 -2.08939 -4.92188 0
M  V30 6002 C 551.137 -3.8097 -3.57295 0
M  V30 6003 H 552.831 -2.36461 -1.83648 0
M  V30 6004 H 550.377 -1.13817 -0.882138 0
M  V30 6005 H 552.33 -1.2753 -4.01639 0
M  V30 6006 H 551.054 -0.295025 -3.25265 0
M  V30 6007 H 549.713 -2.37696 -2.79099 0
M  V30 6008 H 549.361 -1.09502 -4.90936 0
M  V30 6009 H 549.061 -2.83491 -5.14691 0
M  V30 6010 H 550.585 -2.10781 -5.73065 0
M  V30 6011 H 551.999 -3.8379 -4.25885 0
M  V30 6012 H 550.396 -4.5496 -3.9132 0
M  V30 6013 H 551.466 -4.11261 -2.5689 0
M  V30 6014 N 552.809 0.956637 -1.25245 0
M  V30 6015 C 554.034 1.74104 -1.12706 0
M  V30 6016 C 554.459 1.85436 0.315429 0
M  V30 6017 O 553.817 1.33334 1.22848 0
M  V30 6018 C 553.865 3.1338 -1.78396 0
M  V30 6019 O 552.969 3.98485 -1.06224 0
M  V30 6020 H 552.31 0.53476 -0.393609 0
M  V30 6021 H 554.84 1.19924 -1.65769 0
M  V30 6022 H 554.85 3.6385 -1.846 0
M  V30 6023 H 553.525 3.04448 -2.83345 0
M  V30 6024 H 552.102 3.56952 -1.07886 0
M  V30 6025 N 554.287 1.06798 1.15896 0
M  V30 6026 C 555.237 0.653213 2.18443 0
M  V30 6027 C 556.221 -0.318763 1.57711 0
M  V30 6028 O 557.413 -0.133388 1.76497 0
M  V30 6029 C 554.542 0.0465785 3.43268 0
M  V30 6030 C 553.628 1.04336 4.11066 0
M  V30 6031 N 554.019 2.22084 4.54436 0
M  V30 6032 C 552.317 0.875433 4.37324 0
M  V30 6033 C 553.018 2.85276 5.06944 0
M  V30 6034 N 551.994 2.12973 5.00143 0
M  V30 6035 H 555.796 1.55011 2.49698 0
M  V30 6036 H 553.31 0.940384 1.32403 0
M  V30 6037 H 555.307 -0.26843 4.16035 0
M  V30 6038 H 553.967 -0.845504 3.13499 0
M  V30 6039 H 554.978 2.59833 4.48004 0
M  V30 6040 H 551.655 0.0357721 4.17485 0
M  V30 6041 H 553.045 3.85223 5.50503 0
M  V30 6042 N 555.766 -1.3263 0.851289 0
M  V30 6043 C 556.698 -2.27824 0.250757 0
M  V30 6044 C 557.711 -1.52285 -0.575598 0
M  V30 6045 O 558.9 -1.73946 -0.400638 0
M  V30 6046 C 556 -3.3232 -0.664571 0
M  V30 6047 C 555.173 -4.37221 0.125187 0
M  V30 6048 C 554.232 -5.21314 -0.715385 0
M  V30 6049 O 553.258 -5.69002 -0.150111 0
M  V30 6050 N 554.46 -5.43823 -2.03069 0
M  V30 6051 H 557.225 -2.79997 1.06873 0
M  V30 6052 H 554.786 -1.45455 0.710943 0
M  V30 6053 H 556.778 -3.85486 -1.23216 0
M  V30 6054 H 555.348 -2.80331 -1.38323 0
M  V30 6055 H 554.568 -3.84384 0.874199 0
M  V30 6056 H 555.856 -5.04399 0.667774 0
M  V30 6057 H 555.254 -5.06803 -2.51332 0
M  V30 6058 H 553.811 -5.99998 -2.54648 0
M  V30 6059 N 557.244 -0.608902 -1.45362 0
M  V30 6060 C 558.192 0.121639 -2.32282 0
M  V30 6061 C 559.186 0.858301 -1.46046 0
M  V30 6062 O 560.392 0.773718 -1.62523 0
M  V30 6063 H 556.767 0.058086 -0.749753 0
M  V30 6064 H 558.738 -0.629866 -2.91677 0
M  V30 6065 C 557.487 1.1047 -3.29684 0
M  V30 6066 H 556.81 0.547278 -3.96036 0
M  V30 6067 H 558.25 1.58576 -3.9323 0
M  V30 6068 C 556.709 2.17891 -2.56954 0
M  V30 6069 O 557.239 3.25652 -2.35189 0
M  V30 6070 N 555.445 1.93211 -2.17066 0
M  V30 6071 H 554.992 1.05584 -2.34967 0
M  V30 6072 H 554.95 2.6529 -1.68727 0
M  V30 6073 N 558.722 1.53707 -0.348139 0
M  V30 6074 C 559.947 2.05877 0.250883 0
M  V30 6075 C 560.372 1.22115 1.43072 0
M  V30 6076 O 559.73 0.235986 1.79758 0
M  V30 6077 C 559.778 3.54886 0.639416 0
M  V30 6078 O 558.882 3.73948 1.73888 0
M  V30 6079 H 558.223 0.662754 0.040653 0
M  V30 6080 H 560.753 1.98303 -0.503685 0
M  V30 6081 H 560.763 3.97601 0.915295 0
M  V30 6082 H 559.438 4.153 -0.223386 0
M  V30 6083 H 558.015 3.43134 1.45991 0
M  V30 6084 N 560.2 0.0768682 1.57412 0
M  V30 6085 C 561.13 -0.886026 2.16037 0
M  V30 6086 C 562.111 -1.30691 1.08876 0
M  V30 6087 O 563.296 -1.37705 1.36934 0
M  V30 6088 C 560.426 -2.1518 2.72608 0
M  V30 6089 C 559.38 -1.87015 3.8498 0
M  V30 6090 C 558.706 -3.20266 4.28175 0
M  V30 6091 C 560.006 -1.17143 5.08994 0
M  V30 6092 H 561.7 -0.397642 2.96748 0
M  V30 6093 H 559.246 -0.189823 1.42743 0
M  V30 6094 H 561.199 -2.82962 3.12266 0
M  V30 6095 H 559.923 -2.66269 1.89125 0
M  V30 6096 H 558.582 -1.21636 3.45833 0
M  V30 6097 H 558.23 -3.69207 3.41607 0
M  V30 6098 H 557.93 -3.0221 5.03927 0
M  V30 6099 H 559.454 -3.89237 4.70454 0
M  V30 6100 H 560.868 -1.75003 5.45937 0
M  V30 6101 H 559.265 -1.09328 5.90057 0
M  V30 6102 H 560.335 -0.151295 4.84664 0
M  V30 6103 N 561.678 -1.56367 -0.196722 0
M  V30 6104 C 563.094 -1.49916 -0.54749 0
M  V30 6105 C 563.294 -0.77659 -1.85934 0
M  V30 6106 O 562.35 -0.32644 -2.50381 0
M  V30 6107 C 563.663 -2.94577 -0.603734 0
M  V30 6108 C 565.211 -3.05239 -0.692677 0
M  V30 6109 C 565.686 -4.51308 -0.780046 0
M  V30 6110 N 567.177 -4.55453 -0.843616 0
M  V30 6111 C 567.912 -5.65786 -0.931358 0
M  V30 6112 N 567.408 -6.85812 -0.981503 0
M  V30 6113 N 569.201 -5.53695 -0.968421 0
M  V30 6114 H 561.352 -2.01761 0.663803 0
M  V30 6115 H 563.615 -0.918094 0.236238 0
M  V30 6116 H 563.321 -3.50494 0.29105 0
M  V30 6117 H 563.195 -3.47841 -1.45898 0
M  V30 6118 H 565.582 -2.49372 -1.57789 0
M  V30 6119 H 565.663 -2.55103 0.188736 0
M  V30 6120 H 565.307 -5.078 0.100811 0
M  V30 6121 H 565.237 -4.99176 -1.67724 0
M  V30 6122 H 567.728 -3.69025 -0.814176 0
M  V30 6123 H 568.041 -7.65648 -1.04892 0
M  V30 6124 H 566.386 -6.88474 -0.950208 0
M  V30 6125 H 569.577 -4.58848 -0.926072 0
M  V30 6126 H 569.75 -6.39708 -1.03334 0
M  V30 6127 N 563.156 0.464375 -1.50603 0
M  V30 6128 C 564.103 1.56152 -1.69956 0
M  V30 6129 C 565.073 1.57046 -0.54091 0
M  V30 6130 O 566.258 1.74473 -0.772258 0
M  V30 6131 C 563.398 2.94079 -1.80586 0
M  V30 6132 C 562.511 3.02923 -3.07996 0
M  V30 6133 C 561.646 4.31806 -3.09382 0
M  V30 6134 C 560.685 4.34417 -4.31218 0
M  V30 6135 N 559.822 5.54782 -4.30304 0
M  V30 6136 H 564.662 1.38955 -2.6362 0
M  V30 6137 H 562.199 0.675482 -1.30674 0
M  V30 6138 H 564.157 3.74073 -1.8473 0
M  V30 6139 H 562.787 3.09896 -0.903556 0
M  V30 6140 H 561.839 2.1576 -3.13292 0
M  V30 6141 H 563.151 3.00712 -3.97962 0
M  V30 6142 H 562.305 5.20153 -3.12292 0
M  V30 6143 H 561.044 4.36636 -2.17257 0
M  V30 6144 H 560.049 3.44467 -4.28512 0
M  V30 6145 H 561.274 4.31273 -5.24576 0
M  V30 6146 H 559.22 5.60384 -3.41037 0
M  V30 6147 H 559.137 5.54339 -5.14047 0
M  V30 6148 H 560.405 6.45235 -4.3737 0
M  V30 6149 N 564.634 1.40294 0.718013 0
M  V30 6150 C 566.05 1.2227 1.02577 0
M  V30 6151 C 566.25 0.0961976 2.0127 0
M  V30 6152 O 565.306 -0.546695 2.46511 0
M  V30 6153 C 566.619 2.56348 1.57182 0
M  V30 6154 C 568.167 2.6334 1.69178 0
M  V30 6155 C 568.642 3.9768 2.27188 0
M  V30 6156 N 570.133 3.99409 2.34578 0
M  V30 6157 C 570.868 5.00141 2.8044 0
M  V30 6158 N 570.364 6.11268 3.26073 0
M  V30 6159 N 572.157 4.87511 2.79802 0
M  V30 6160 H 564.308 2.12304 0.0637899 0
M  V30 6161 H 566.571 0.943632 0.0909036 0
M  V30 6162 H 566.277 3.3942 0.921262 0
M  V30 6163 H 566.151 2.77266 2.55741 0
M  V30 6164 H 568.538 1.80641 2.33351 0
M  V30 6165 H 568.619 2.46255 0.692247 0
M  V30 6166 H 568.263 4.80817 1.63638 0
M  V30 6167 H 568.193 4.12093 3.27852 0
M  V30 6168 H 570.684 3.19162 2.02346 0
M  V30 6169 H 570.997 6.84023 3.59628 0
M  V30 6170 H 569.342 6.14837 3.24038 0
M  V30 6171 H 572.533 3.9979 2.43487 0
M  V30 6172 H 572.706 5.66158 3.15228 0
M  V30 6173 N 566.112 -0.949982 1.2575 0
M  V30 6174 C 567.06 -2.06869 1.06339 0
M  V30 6175 C 568.054 -1.69399 -0.00708901 0
M  V30 6176 O 569.26 -1.79383 0.148897 0
M  V30 6177 H 565.635 -0.677197 0.326969 0
M  V30 6178 H 567.606 -2.20396 2.01167 0
M  V30 6179 C 566.355 -3.40503 0.703769 0
M  V30 6180 H 565.678 -3.69807 1.51931 0
M  V30 6181 H 567.118 -4.19623 0.607677 0
M  V30 6182 C 565.577 -3.31685 -0.5905 0
M  V30 6183 O 566.107 -3.67085 -1.63131 0
M  V30 6184 N 564.313 -2.84797 -0.577859 0
M  V30 6185 H 563.86 -2.56186 0.26951 0
M  V30 6186 H 563.818 -2.79279 -1.44398 0
M  V30 6187 N 567.59 -1.07411 -1.15328 0
M  V30 6188 C 568.815 -0.818856 -1.90551 0
M  V30 6189 C 569.24 0.622194 -1.77512 0
M  V30 6190 O 568.598 1.43484 -1.10824 0
M  V30 6191 C 568.646 -1.23267 -3.38877 0
M  V30 6192 O 567.75 -0.378345 -4.10661 0
M  V30 6193 H 567.091 -0.29827 -0.593238 0
M  V30 6194 H 569.621 -1.43289 -1.46046 0
M  V30 6195 H 569.631 -1.20912 -3.89672 0
M  V30 6196 H 568.306 -2.28226 -3.47686 0
M  V30 6197 H 566.883 -0.464437 -3.69996 0
M  V30 6198 N 569.068 1.32177 -0.85831 0
M  V30 6199 C 570.001 2.26823 -0.25035 0
M  V30 6200 C 570.979 1.50571 0.61378 0
M  V30 6201 O 572.163 1.79682 0.569777 0
M  V30 6202 C 569.29 3.32472 0.646556 0
M  V30 6203 C 568.336 4.26255 -0.144675 0
M  V30 6204 S 569.169 5.13608 -1.5155 0
M  V30 6205 C 570.325 6.22778 -0.624408 0
M  V30 6206 H 570.558 2.7804 -1.05267 0
M  V30 6207 H 568.091 1.39764 -0.656152 0
M  V30 6208 H 570.049 3.93817 1.15837 0
M  V30 6209 H 568.71 2.80031 1.42272 0
M  V30 6210 H 567.903 5.01114 0.538613 0
M  V30 6211 H 567.505 3.69346 -0.588198 0
M  V30 6212 H 569.797 6.77287 0.169846 0
M  V30 6213 H 570.74 6.95233 -1.34376 0
M  V30 6214 H 571.148 5.64156 -0.197128 0
M  V30 6215 N 570.547 0.616602 1.45037 0
M  V30 6216 C 571.963 0.280994 1.57107 0
M  V30 6217 C 572.163 -1.21627 1.60653 0
M  V30 6218 O 571.219 -1.9997 1.54169 0
M  V30 6219 C 572.532 0.960116 2.8496 0
M  V30 6220 C 574.08 0.936884 2.98649 0
M  V30 6221 C 574.555 1.59619 4.29285 0
M  V30 6222 N 576.046 1.5621 4.36065 0
M  V30 6223 C 576.781 2.04131 5.35834 0
M  V30 6224 N 576.277 2.60177 6.4209 0
M  V30 6225 N 578.07 1.94845 5.27249 0
M  V30 6226 H 570.221 1.58867 1.40979 0
M  V30 6227 H 572.484 0.666024 0.674623 0
M  V30 6228 H 572.19 2.01473 2.88273 0
M  V30 6229 H 572.064 0.488921 3.74018 0
M  V30 6230 H 574.451 -0.109209 2.94898 0
M  V30 6231 H 574.532 1.44643 2.10979 0
M  V30 6232 H 574.176 2.64166 4.33796 0
M  V30 6233 H 574.106 1.06159 5.15789 0
M  V30 6234 H 576.597 1.15276 3.59889 0
M  V30 6235 H 576.91 2.94513 7.1448 0
M  V30 6236 H 575.255 2.64221 6.42816 0
M  V30 6237 H 578.446 1.50792 4.43147 0
M  V30 6238 H 578.619 2.32504 6.04852 0
M  V30 6239 N 572.025 -1.5352 0.356285 0
M  V30 6240 C 573.441 -1.59599 0.00485267 0
M  V30 6241 C 573.641 -1.37179 -1.47595 0
M  V30 6242 O 572.697 -1.17234 -2.23635 0
M  V30 6243 C 574.01 -2.97277 0.452454 0
M  V30 6244 C 575.558 -3.10357 0.405881 0
M  V30 6245 C 576.033 -4.50432 0.829148 0
M  V30 6246 N 577.524 -4.5652 0.783838 0
M  V30 6247 C 578.259 -5.63077 1.08315 0
M  V30 6248 N 577.755 -6.77429 1.45126 0
M  V30 6249 N 579.548 -5.53014 1.00655 0
M  V30 6250 H 571.699 -1.66346 1.32071 0
M  V30 6251 H 573.962 -0.77971 0.539218 0
M  V30 6252 H 573.668 -3.18792 1.48542 0
M  V30 6253 H 573.542 -3.76836 -0.165762 0
M  V30 6254 H 575.929 -2.88558 -0.617934 0
M  V30 6255 H 576.01 -2.32828 1.05947 0
M  V30 6256 H 575.654 -4.72968 1.85103 0
M  V30 6257 H 575.584 -5.26378 0.152906 0
M  V30 6258 H 578.075 -3.74408 0.512513 0
M  V30 6259 H 578.388 -7.54669 1.66415 0
M  V30 6260 H 576.733 -6.78844 1.48983 0
M  V30 6261 H 579.924 -4.62557 0.718215 0
M  V30 6262 H 580.097 -6.35964 1.24315 0
M  V30 6263 N 573.503 -0.0852151 -1.57369 0
M  V30 6264 C 574.451 0.894856 -2.14698 0
M  V30 6265 C 575.445 1.29903 -1.08727 0
M  V30 6266 O 576.651 1.27471 -1.27088 0
M  V30 6267 H 573.026 0.306569 -0.686673 0
M  V30 6268 H 574.997 0.386542 -2.95886 0
M  V30 6269 C 573.746 2.14798 -2.73417 0
M  V30 6270 H 573.069 1.84585 -3.54638 0
M  V30 6271 H 574.509 2.81456 -3.1711 0
M  V30 6272 C 572.968 2.91546 -1.68828 0
M  V30 6273 O 573.498 3.85733 -1.12129 0
M  V30 6274 N 571.704 2.54901 -1.39549 0
M  V30 6275 H 571.251 1.7838 -1.85845 0
M  V30 6276 H 571.209 3.06553 -0.698054 0
M  V30 6277 N 574.981 1.5647 0.188427 0
M  V30 6278 C 575.929 1.95971 1.25293 0
M  V30 6279 C 576.923 0.846047 1.4676 0
M  V30 6280 O 578.129 1.03109 1.47542 0
M  V30 6281 H 574.504 0.623253 0.420784 0
M  V30 6282 H 576.475 2.84731 0.892792 0
M  V30 6283 C 575.224 2.32116 2.58877 0
M  V30 6284 H 574.547 3.17341 2.43176 0
M  V30 6285 H 575.987 2.63613 3.3209 0
M  V30 6286 C 574.446 1.15823 3.16365 0
M  V30 6287 O 574.976 0.436785 3.99318 0
M  V30 6288 N 573.182 0.933278 2.75206 0
M  V30 6289 H 572.729 1.52169 2.07852 0
M  V30 6290 H 572.687 0.156976 3.14008 0
M  V30 6291 N 576.459 -0.456382 1.50847 0
M  V30 6292 C 577.684 -1.2349 1.66628 0
M  V30 6293 C 578.109 -1.84715 0.355254 0
M  V30 6294 O 577.467 -1.67961 -0.682559 0
M  V30 6295 C 577.515 -2.30865 2.77009 0
M  V30 6296 O 576.619 -3.35882 2.39285 0
M  V30 6297 H 575.96 -0.36266 0.556214 0
M  V30 6298 H 578.49 -0.541374 1.97308 0
M  V30 6299 H 578.5 -2.75949 3.00526 0
M  V30 6300 H 577.175 -1.85677 3.72152 0
M  V30 6301 H 575.752 -2.96406 2.26269 0
M  V30 6302 N 577.937 -1.40673 -0.710563 0
M  V30 6303 C 578.87 -1.35742 -1.83438 0
M  V30 6304 C 579.848 -0.226997 -1.61008 0
M  V30 6305 O 581.032 -0.411477 -1.83954 0
M  V30 6306 C 578.159 -1.11374 -3.19865 0
M  V30 6307 C 577.205 -2.26935 -3.61113 0
M  V30 6308 S 578.038 -3.89352 -3.67648 0
M  V30 6309 C 579.194 -3.67258 -5.06826 0
M  V30 6310 H 579.427 -2.30848 -1.87341 0
M  V30 6311 H 576.96 -1.27018 -0.877831 0
M  V30 6312 H 578.918 -0.980004 -3.9863 0
M  V30 6313 H 577.579 -0.179135 -3.13589 0
M  V30 6314 H 576.772 -2.0554 -4.60184 0
M  V30 6315 H 576.374 -2.36638 -2.89618 0
M  V30 6316 H 578.666 -3.26036 -5.93891 0
M  V30 6317 H 579.609 -4.65878 -5.33257 0
M  V30 6318 H 580.017 -3.0084 -4.77656 0
M  V30 6319 N 579.415 0.9433 -1.26252 0
M  V30 6320 C 580.831 1.21644 -1.03319 0
M  V30 6321 C 581.031 2.0003 0.242983 0
M  V30 6322 O 580.087 2.33838 0.952688 0
M  V30 6323 C 581.4 1.97978 -2.2633 0
M  V30 6324 C 582.948 2.10978 -2.31209 0
M  V30 6325 C 583.423 2.90713 -3.53907 0
M  V30 6326 N 584.914 2.98287 -3.54371 0
M  V30 6327 C 585.649 3.60406 -4.45976 0
M  V30 6328 N 585.145 4.24043 -5.47868 0
M  V30 6329 N 586.938 3.57658 -4.33633 0
M  V30 6330 H 579.089 0.419221 -2.08222 0
M  V30 6331 H 581.352 0.247995 -0.914988 0
M  V30 6332 H 581.058 1.47788 -3.19142 0
M  V30 6333 H 580.932 2.9865 -2.30408 0
M  V30 6334 H 583.319 2.6036 -1.38913 0
M  V30 6335 H 583.4 1.09575 -2.31143 0
M  V30 6336 H 583.044 2.42018 -4.46531 0
M  V30 6337 H 582.974 3.92367 -3.5122 0
M  V30 6338 H 585.465 2.53044 -2.80673 0
M  V30 6339 H 585.778 4.69334 -6.13959 0
M  V30 6340 H 584.123 4.22637 -5.51728 0
M  V30 6341 H 587.314 3.07134 -3.53251 0
M  V30 6342 H 587.487 4.05782 -5.05218 0
M  V30 6343 N 580.893 1.08022 1.14757 0
M  V30 6344 C 582.309 0.807072 1.3769 0
M  V30 6345 C 582.509 -0.585504 1.92806 0
M  V30 6346 O 581.565 -1.34301 2.13821 0
M  V30 6347 C 582.878 1.88651 2.34161 0
M  V30 6348 C 584.426 1.91206 2.47809 0
M  V30 6349 C 584.901 2.98253 3.47576 0
M  V30 6350 N 586.392 2.974 3.55117 0
M  V30 6351 C 587.127 3.76872 4.32152 0
M  V30 6352 N 586.623 4.66212 5.12463 0
M  V30 6353 N 588.416 3.6519 4.27309 0
M  V30 6354 H 580.567 1.97824 0.77326 0
M  V30 6355 H 582.83 0.85826 0.402608 0
M  V30 6356 H 582.536 2.88749 2.00791 0
M  V30 6357 H 582.41 1.75244 3.3402 0
M  V30 6358 H 584.797 0.917564 2.80472 0
M  V30 6359 H 584.878 2.08691 1.47925 0
M  V30 6360 H 584.522 3.97907 3.15646 0
M  V30 6361 H 584.452 2.78014 4.47231 0
M  V30 6362 H 586.943 2.32643 2.97801 0
M  V30 6363 H 587.256 5.23468 5.68508 0
M  V30 6364 H 585.601 4.70257 5.11745 0
M  V30 6365 H 588.792 2.94765 3.63636 0
M  V30 6366 H 588.965 4.27366 4.87095 0
M  V30 6367 N 582.371 -1.3172 0.865308 0
M  V30 6368 C 583.319 -2.30569 0.306674 0
M  V30 6369 C 584.313 -1.59317 -0.575724 0
M  V30 6370 O 585.519 -1.73961 -0.462343 0
M  V30 6371 H 581.894 -0.747681 0.0804834 0
M  V30 6372 H 583.865 -2.75165 1.15441 0
M  V30 6373 C 582.614 -3.44358 -0.480952 0
M  V30 6374 H 581.937 -3.99354 0.18876 0
M  V30 6375 H 583.377 -4.15652 -0.837241 0
M  V30 6376 C 581.836 -2.92574 -1.67039 0
M  V30 6377 O 582.366 -2.90954 -2.76964 0
M  V30 6378 N 580.572 -2.48835 -1.50097 0
M  V30 6379 H 580.119 -2.50353 -0.606738 0
M  V30 6380 H 580.077 -2.14543 -2.29823 0
M  V30 6381 N 583.85 -0.624285 -1.44708 0
M  V30 6382 C 584.798 0.0969952 -2.32398 0
M  V30 6383 C 585.792 0.842762 -1.46949 0
M  V30 6384 O 586.998 0.756436 -1.63334 0
M  V30 6385 H 583.373 0.0501306 -0.750327 0
M  V30 6386 H 585.344 -0.660767 -2.90992 0
M  V30 6387 C 584.093 1.06967 -3.30837 0
M  V30 6388 H 583.416 0.505242 -3.96595 0
M  V30 6389 H 584.856 1.54397 -3.94889 0
M  V30 6390 C 583.315 2.15153 -2.5925 0
M  V30 6391 O 583.845 3.23139 -2.3863 0
M  V30 6392 N 582.051 1.90898 -2.19103 0
M  V30 6393 H 581.598 1.03086 -2.36074 0
M  V30 6394 H 581.556 2.63485 -1.71531 0
M  V30 6395 N 585.328 1.53329 -0.364422 0
M  V30 6396 C 586.553 2.06132 0.229033 0
M  V30 6397 C 586.978 1.23625 1.41769 0
M  V30 6398 O 586.336 0.255038 1.79497 0
M  V30 6399 C 586.384 3.55544 0.60174 0
M  V30 6400 O 585.488 3.75771 1.69912 0
M  V30 6401 H 584.829 0.663148 0.0336213 0
M  V30 6402 H 587.359 1.97758 -0.524689 0
M  V30 6403 H 587.369 3.98549 0.873073 0
M  V30 6404 H 586.044 4.15039 -0.267421 0
M  V30 6405 H 584.621 3.44663 1.42343 0
M  V30 6406 N 586.806 0.0935595 1.57322 0
M  V30 6407 C 588.055 -0.570191 1.93473 0
M  V30 6408 C 588.368 -1.69434 0.977318 0
M  V30 6409 O 589.574 -2.41914 1.23248 0
M  V30 6410 C 588.03 -1.06564 3.43762 0
M  V30 6411 C 587.638 0.0286723 4.47991 0
M  V30 6412 C 589.382 -1.70221 3.88877 0
M  V30 6413 C 587.289 -0.482046 5.89432 0
M  V30 6414 H 586.219 -0.216764 0.72217 0
M  V30 6415 H 588.87 0.169313 1.82717 0
M  V30 6416 H 587.252 -1.85878 3.49664 0
M  V30 6417 H 588.426 0.804106 4.5373 0
M  V30 6418 H 586.741 0.570336 4.12476 0
M  V30 6419 H 589.338 -2.09502 4.91948 0
M  V30 6420 H 589.681 -2.57078 3.27439 0
M  V30 6421 H 590.214 -0.974919 3.85668 0
M  V30 6422 H 586.953 0.349871 6.54566 0
M  V30 6423 H 586.473 -1.22452 5.87167 0
M  V30 6424 H 588.152 -0.951508 6.39965 0
M  V30 6425 N 588.284 -1.56567 -0.180126 0
M  V30 6426 C 589.7 -1.50488 -0.531559 0
M  V30 6427 C 589.9 -0.796267 -1.851 0
M  V30 6428 O 588.956 -0.352978 -2.50021 0
M  V30 6429 C 590.269 -2.95201 -0.572456 0
M  V30 6430 C 591.817 -3.05957 -0.660264 0
M  V30 6431 C 592.292 -4.5211 -0.732135 0
M  V30 6432 N 593.783 -4.56322 -0.795262 0
M  V30 6433 C 594.518 -5.66742 -0.871296 0
M  V30 6434 N 594.014 -6.86815 -0.908708 0
M  V30 6435 N 595.807 -5.54691 -0.909639 0
M  V30 6436 H 587.958 -2.01045 0.685165 0
M  V30 6437 H 590.221 -0.915536 0.245962 0
M  V30 6438 H 589.927 -3.50165 0.328208 0
M  V30 6439 H 589.801 -3.49369 -1.422 0
M  V30 6440 H 592.188 -2.51032 -1.55136 0
M  V30 6441 H 592.269 -2.54888 0.215783 0
M  V30 6442 H 591.913 -5.07664 0.154664 0
M  V30 6443 H 591.843 -5.00926 -1.6242 0
M  V30 6444 H 594.334 -3.69868 -0.77499 0
M  V30 6445 H 594.647 -7.66718 -0.967654 0
M  V30 6446 H 592.992 -6.89443 -0.877132 0
M  V30 6447 H 596.183 -4.59804 -0.877353 0
M  V30 6448 H 596.356 -6.40768 -0.965434 0
M  V30 6449 N 589.762 0.448376 -1.51087 0
M  V30 6450 C 591.178 0.783984 -1.39017 0
M  V30 6451 C 591.378 1.96087 -0.463904 0
M  V30 6452 O 590.434 2.52357 0.0850534 0
M  V30 6453 C 591.747 1.07471 -2.80839 0
M  V30 6454 C 593.295 1.17981 -2.89913 0
M  V30 6455 C 593.77 1.50354 -4.32617 0
M  V30 6456 N 595.261 1.57301 -4.35673 0
M  V30 6457 C 595.996 1.839 -5.4311 0
M  V30 6458 N 595.492 2.08365 -6.60724 0
M  V30 6459 N 597.285 1.8559 -5.30578 0
M  V30 6460 H 589.436 -0.326881 -2.0987 0
M  V30 6461 H 591.699 -0.0838006 -0.944289 0
M  V30 6462 H 591.405 0.282768 -3.50561 0
M  V30 6463 H 591.279 2.00519 -3.19487 0
M  V30 6464 H 593.666 1.9624 -2.20395 0
M  V30 6465 H 593.747 0.228603 -2.54776 0
M  V30 6466 H 593.391 0.726273 -5.0268 0
M  V30 6467 H 593.321 2.46663 -4.65258 0
M  V30 6468 H 595.812 1.40342 -3.50874 0
M  V30 6469 H 596.125 2.27999 -7.38401 0
M  V30 6470 H 594.47 2.0571 -6.63859 0
M  V30 6471 H 597.661 1.65989 -4.37682 0
M  V30 6472 H 597.834 2.05983 -6.1439 0
M  V30 6473 N 591.24 1.41047 0.703093 0
M  V30 6474 C 592.188 1.42494 1.83843 0
M  V30 6475 C 593.182 0.303885 1.66652 0
M  V30 6476 O 594.388 0.475544 1.73605 0
M  V30 6477 H 590.763 0.445685 0.605697 0
M  V30 6478 H 592.734 2.38194 1.79739 0
M  V30 6479 C 591.483 1.31666 3.21807 0
M  V30 6480 H 590.806 2.17212 3.35647 0
M  V30 6481 H 592.246 1.36738 4.01346 0
M  V30 6482 C 590.705 0.0281828 3.36888 0
M  V30 6483 O 591.235 -0.929995 3.90786 0
M  V30 6484 N 589.441 -0.0454322 2.90564 0
M  V30 6485 H 588.988 0.735046 2.4689 0
M  V30 6486 H 588.946 -0.906968 3.01034 0
M  V30 6487 N 592.718 -0.936591 1.26751 0
M  V30 6488 C 593.666 -2.0573 1.08527 0
M  V30 6489 C 594.66 -1.69397 0.0108784 0
M  V30 6490 O 595.866 -1.79215 0.167915 0
M  V30 6491 H 592.241 -0.673691 0.334133 0
M  V30 6492 H 594.212 -2.1825 2.03493 0
M  V30 6493 C 592.961 -3.39738 0.739845 0
M  V30 6494 H 592.284 -3.68174 1.55845 0
M  V30 6495 H 593.724 -4.18955 0.652149 0
M  V30 6496 C 592.183 -3.32292 -0.555288 0
M  V30 6497 O 592.713 -3.68794 -1.59229 0
M  V30 6498 N 590.919 -2.85394 -0.54762 0
M  V30 6499 H 590.466 -2.55886 0.296667 0
M  V30 6500 H 590.424 -2.80795 -1.41427 0
M  V30 6501 N 594.196 -1.08629 -1.14182 0
M  V30 6502 C 595.421 -0.83902 -1.89671 0
M  V30 6503 C 595.846 0.603332 -1.78161 0
M  V30 6504 O 595.204 1.42301 -1.12339 0
M  V30 6505 C 595.252 -1.26854 -3.37551 0
M  V30 6506 O 594.356 -0.42188 -4.10236 0
M  V30 6507 H 593.697 -0.304545 -0.590041 0
M  V30 6508 H 596.227 -1.4483 -1.44518 0
M  V30 6509 H 596.237 -1.25038 -3.88368 0
M  V30 6510 H 594.912 -2.31901 -3.45246 0
M  V30 6511 H 593.489 -0.503654 -3.69483 0
M  V30 6512 N 595.674 1.31259 -0.872281 0
M  V30 6513 C 596.899 2.0133 -0.498099 0
M  V30 6514 C 597.324 1.65031 0.902568 0
M  V30 6515 O 596.682 0.860164 1.59596 0
M  V30 6516 C 596.73 3.54411 -0.665205 0
M  V30 6517 O 595.834 4.11347 0.294473 0
M  V30 6518 H 595.175 0.633844 -0.197832 0
M  V30 6519 H 597.705 1.67402 -1.17633 0
M  V30 6520 H 597.715 4.04147 -0.559373 0
M  V30 6521 H 596.39 3.80171 -1.68651 0
M  V30 6522 H 594.967 3.72624 0.143403 0
M  V30 6523 N 597.152 0.631951 1.44375 0
M  V30 6524 C 598.082 -0.0593243 2.33425 0
M  V30 6525 C 599.063 -0.833964 1.48253 0
M  V30 6526 O 600.248 -0.799682 1.76971 0
M  V30 6527 C 597.378 -1.04096 3.31333 0
M  V30 6528 C 596.332 -0.377899 4.26328 0
M  V30 6529 C 595.658 -1.4695 5.14111 0
M  V30 6530 C 596.958 0.716371 5.17364 0
M  V30 6531 H 598.652 0.684287 2.91475 0
M  V30 6532 H 596.198 0.330518 1.40156 0
M  V30 6533 H 598.151 -1.53331 3.92514 0
M  V30 6534 H 596.875 -1.81547 2.71493 0
M  V30 6535 H 595.534 0.0938054 3.6648 0
M  V30 6536 H 595.182 -2.2349 4.50623 0
M  V30 6537 H 594.882 -1.03121 5.78481 0
M  V30 6538 H 596.406 -1.96363 5.78164 0
M  V30 6539 H 597.82 0.307089 5.72477 0
M  V30 6540 H 596.217 1.07784 5.90341 0
M  V30 6541 H 597.287 1.58316 4.58327 0
M  V30 6542 N 598.631 -1.53133 0.372548 0
M  V30 6543 C 599.564 -2.22328 -0.514361 0
M  V30 6544 C 600.542 -1.21776 -1.07747 0
M  V30 6545 O 601.726 -1.50704 -1.13228 0
M  V30 6546 C 598.853 -2.92343 -1.71035 0
M  V30 6547 C 597.899 -4.07026 -1.27405 0
M  V30 6548 S 598.732 -5.34821 -0.269526 0
M  V30 6549 C 599.888 -6.08352 -1.47168 0
M  V30 6550 H 600.121 -2.9721 0.0732683 0
M  V30 6551 H 597.654 -1.53603 0.156673 0
M  V30 6552 H 599.612 -3.33296 -2.39634 0
M  V30 6553 H 598.273 -2.17173 -2.26925 0
M  V30 6554 H 597.466 -4.55056 -2.16656 0
M  V30 6555 H 597.068 -3.68001 -0.66719 0
M  V30 6556 H 599.36 -6.33507 -2.40157 0
M  V30 6557 H 600.303 -7.0053 -1.03263 0
M  V30 6558 H 600.711 -5.38893 -1.6809 0
M  V30 6559 N 600.109 -0.101901 -1.5727 0
M  V30 6560 C 601.355 0.561027 -1.94885 0
M  V30 6561 C 601.688 1.6741 -0.984258 0
M  V30 6562 O 600.963 1.94491 -0.0184767 0
M  V30 6563 C 601.246 1.10982 -3.42571 0
M  V30 6564 C 601.099 0.00133418 -4.498 0
M  V30 6565 C 602.418 2.00608 -3.9172 0
M  V30 6566 H 599.537 0.202467 -0.708644 0
M  V30 6567 H 602.179 -0.173992 -1.89202 0
M  V30 6568 H 600.329 1.73621 -3.47546 0
M  V30 6569 H 602.001 -0.63322 -4.56933 0
M  V30 6570 H 600.244 -0.664143 -4.28686 0
M  V30 6571 H 600.915 0.426253 -5.50352 0
M  V30 6572 H 603.391 1.47864 -3.88941 0
M  V30 6573 H 602.267 2.3593 -4.95609 0
M  V30 6574 H 602.528 2.92608 -3.3141 0
M  V30 6575 N 601.587 1.56661 0.17182 0
M  V30 6576 C 602.998 1.71652 0.734329 0
M  V30 6577 C 603.349 0.712335 1.82812 0
M  V30 6578 O 602.474 -0.126401 2.16031 0
M  V30 6579 C 603.069 3.11226 1.3388 0
M  V30 6580 C 601.628 3.27904 1.84813 0
M  V30 6581 C 600.775 2.67603 0.726917 0
M  V30 6582 H 603.726 1.5861 -0.0535665 0
M  V30 6583 H 603.747 3.09849 2.20849 0
M  V30 6584 H 603.259 3.8429 0.54249 0
M  V30 6585 H 601.36 2.59796 2.6709 0
M  V30 6586 H 601.473 4.35637 1.99392 0
M  V30 6587 H 599.837 2.274 1.14723 0
M  V30 6588 H 600.62 3.43252 -0.0575334 0
M  V30 6589 N 603.065 -0.440357 1.51323 0
M  V30 6590 C 604.012 -1.53429 1.72419 0
M  V30 6591 C 604.982 -1.56165 0.565826 0
M  V30 6592 O 606.167 -1.73222 0.799917 0
M  V30 6593 C 603.307 -2.91169 1.85242 0
M  V30 6594 C 602.42 -2.97985 3.12777 0
M  V30 6595 C 601.555 -4.26829 3.16212 0
M  V30 6596 C 600.594 -4.27501 4.38074 0
M  V30 6597 N 599.731 -5.47866 4.39076 0
M  V30 6598 H 604.571 -1.34743 2.65797 0
M  V30 6599 H 602.108 -0.654608 1.31732 0
M  V30 6600 H 604.066 -3.71087 1.90658 0
M  V30 6601 H 602.696 -3.0842 0.952744 0
M  V30 6602 H 601.748 -2.10749 3.16685 0
M  V30 6603 H 603.06 -2.94342 4.02696 0
M  V30 6604 H 602.214 -5.15118 3.20527 0
M  V30 6605 H 600.953 -4.33124 2.24176 0
M  V30 6606 H 599.958 -3.37606 4.33938 0
M  V30 6607 H 601.183 -4.22873 5.31371 0
M  V30 6608 H 599.129 -5.54887 3.49909 0
M  V30 6609 H 599.046 -5.46091 5.22801 0
M  V30 6610 H 600.314 -6.38195 4.4758 0
M  V30 6611 N 604.543 -1.41418 -0.695603 0
M  V30 6612 C 605.789 -1.40982 -1.4578 0
M  V30 6613 C 606.122 -0.0187763 -1.94191 0
M  V30 6614 O 605.397 0.95346 -1.69527 0
M  V30 6615 C 605.68 -2.41657 -2.66972 0
M  V30 6616 C 605.533 -3.89869 -2.24327 0
M  V30 6617 C 606.852 -2.39589 -3.69168 0
M  V30 6618 H 603.971 -0.513405 -0.528757 0
M  V30 6619 H 606.613 -1.72693 -0.792275 0
M  V30 6620 H 604.763 -2.14746 -3.23754 0
M  V30 6621 H 606.435 -4.27683 -1.72872 0
M  V30 6622 H 604.678 -4.04737 -1.56111 0
M  V30 6623 H 605.349 -4.55857 -3.11285 0
M  V30 6624 H 607.825 -2.63471 -3.2206 0
M  V30 6625 H 606.701 -3.12044 -4.51575 0
M  V30 6626 H 606.962 -1.41447 -4.18862 0
M  V30 6627 N 606.021 0.929856 -1.27246 0
M  V30 6628 C 606.953 2.03434 -1.0558 0
M  V30 6629 C 607.966 1.62795 -0.0125762 0
M  V30 6630 O 609.155 1.76685 -0.2539 0
M  V30 6631 C 606.255 3.33915 -0.57912 0
M  V30 6632 C 605.428 4.03259 -1.69415 0
M  V30 6633 C 604.487 5.12014 -1.21357 0
M  V30 6634 O 603.513 5.36097 -1.91282 0
M  V30 6635 N 604.715 5.8046 -0.0680622 0
M  V30 6636 H 607.48 2.22583 -2.00691 0
M  V30 6637 H 605.041 1.1001 -1.18783 0
M  V30 6638 H 607.033 4.03978 -0.241563 0
M  V30 6639 H 605.603 3.11355 0.278703 0
M  V30 6640 H 604.823 3.26958 -2.20209 0
M  V30 6641 H 606.111 4.46337 -2.44255 0
M  V30 6642 H 605.509 5.63345 0.515626 0
M  V30 6643 H 604.066 6.51461 0.210332 0
M  V30 6644 N 607.499 1.09233 1.13605 0
M  V30 6645 C 608.746 0.827159 1.84836 0
M  V30 6646 C 609.074 -0.647199 1.83416 0
M  V30 6647 O 608.329 -1.49228 1.26608 0
M  V30 6648 C 608.628 1.305 3.32723 0
M  V30 6649 C 608.294 2.78864 3.54325 0
M  V30 6650 C 606.956 3.19382 3.59928 0
M  V30 6651 C 609.308 3.74532 3.62457 0
M  V30 6652 C 606.636 4.54346 3.71196 0
M  V30 6653 C 608.988 5.09283 3.75252 0
M  V30 6654 C 607.652 5.49394 3.79108 0
M  V30 6655 H 606.922 0.302679 0.676363 0
M  V30 6656 H 609.569 1.36676 1.34134 0
M  V30 6657 H 607.874 0.68517 3.85762 0
M  V30 6658 H 609.571 1.07648 3.86281 0
M  V30 6659 H 606.161 2.46507 3.50617 0
M  V30 6660 H 610.345 3.44343 3.57409 0
M  V30 6661 H 605.601 4.84864 3.72447 0
M  V30 6662 H 609.775 5.83269 3.80487 0
M  V30 6663 H 607.402 6.5397 3.87591 0
M  V30 6664 N 608.977 -1.30795 0.87923 0
M  V30 6665 C 609.91 -2.26396 0.286404 0
M  V30 6666 C 610.888 -1.51528 -0.589748 0
M  V30 6667 O 612.072 -1.80566 -0.541119 0
M  V30 6668 C 609.199 -3.33458 -0.593581 0
M  V30 6669 C 608.245 -4.2597 0.21247 0
M  V30 6670 S 609.078 -5.11132 1.59702 0
M  V30 6671 C 610.234 -6.21705 0.723408 0
M  V30 6672 H 610.467 -2.7633 1.09677 0
M  V30 6673 H 608 -1.38703 0.678305 0
M  V30 6674 H 609.958 -3.9561 -1.09557 0
M  V30 6675 H 608.619 -2.82259 -1.37799 0
M  V30 6676 H 607.812 -5.01907 -0.458822 0
M  V30 6677 H 607.414 -3.68363 0.646883 0
M  V30 6678 H 609.706 -6.77472 -0.0620739 0
M  V30 6679 H 610.649 -6.93007 1.4542 0
M  V30 6680 H 611.057 -5.63771 0.286855 0
M  V30 6681 N 610.455 -0.639598 -1.44038 0
M  V30 6682 C 611.683 -0.154811 -2.0632 0
M  V30 6683 C 612.098 1.17406 -1.47856 0
M  V30 6684 O 611.455 1.72193 -0.604638 0
M  V30 6685 C 611.506 -0.0429958 -3.61474 0
M  V30 6686 O 611.227 -1.31932 -4.17763 0
M  V30 6687 C 612.728 0.469486 -4.40807 0
M  V30 6688 H 609.948 -0.0835862 -0.665773 0
M  V30 6689 H 612.492 -0.876397 -1.84769 0
M  V30 6690 H 610.647 0.629075 -3.82258 0
M  V30 6691 H 611.061 -1.16965 -5.11292 0
M  V30 6692 H 612.535 0.496712 -5.49761 0
M  V30 6693 H 613.012 1.49819 -4.12857 0
M  V30 6694 H 613.618 -0.169624 -4.24962 0
M  V30 6695 N 611.933 1.52934 -0.380664 0
M  V30 6696 C 613.344 1.86457 0.0952684 0
M  V30 6697 C 613.695 1.3007 1.46889 0
M  V30 6698 O 612.82 0.628636 2.07068 0
M  V30 6699 C 613.415 3.38323 0.179648 0
M  V30 6700 C 611.974 3.71589 0.599858 0
M  V30 6701 C 611.121 2.76228 -0.243572 0
M  V30 6702 H 614.072 1.46966 -0.59888 0
M  V30 6703 H 614.093 3.67113 1.00042 0
M  V30 6704 H 613.605 3.79333 -0.820228 0
M  V30 6705 H 611.706 3.36144 1.60742 0
M  V30 6706 H 611.819 4.77715 0.364003 0
M  V30 6707 H 610.183 2.53045 0.289855 0
M  V30 6708 H 610.966 3.20074 -1.24127 0
M  V30 6709 N 613.412 0.11024 1.57214 0
M  V30 6710 C 614.322 -0.857077 2.18383 0
M  V30 6711 C 615.338 -1.29915 1.1575 0
M  V30 6712 O 616.514 -1.36394 1.48184 0
M  V30 6713 C 613.579 -2.09264 2.76423 0
M  V30 6714 C 612.64 -1.70333 3.94063 0
M  V30 6715 C 611.873 -2.87999 4.49324 0
M  V30 6716 O 612.096 -4.0317 4.03497 0
M  V30 6717 O 611.03 -2.6559 5.40135 0
M  V30 6718 H 614.856 -0.366561 3.0148 0
M  V30 6719 H 612.441 -0.114914 1.48957 0
M  V30 6720 H 614.323 -2.81644 3.13456 0
M  V30 6721 H 612.998 -2.57339 1.96363 0
M  V30 6722 H 611.905 -0.950864 3.61814 0
M  V30 6723 H 613.238 -1.27007 4.75531 0
M  V30 6724 N 614.89 -1.56749 -0.16351 0
M  V30 6725 C 616.138 -1.82074 -0.87713 0
M  V30 6726 C 616.459 -0.688503 -1.82441 0
M  V30 6727 O 615.729 0.291085 -1.93725 0
M  V30 6728 H 614.309 -0.671677 -0.326893 0
M  V30 6729 H 616.971 -1.9423 -0.161459 0
M  V30 6730 H 616.067 -2.76407 -1.44934 0
M  V30 6731 N 616.368 0.432326 -1.51554 0
M  V30 6732 C 617.316 1.54572 -1.73811 0
M  V30 6733 C 618.31 1.58246 -0.604539 0
M  V30 6734 O 619.516 1.6193 -0.786041 0
M  V30 6735 H 615.891 0.513626 -0.549265 0
M  V30 6736 H 617.862 1.32977 -2.67132 0
M  V30 6737 C 616.611 2.92181 -1.88483 0
M  V30 6738 H 615.934 2.90088 -2.75116 0
M  V30 6739 H 617.374 3.69439 -2.08065 0
M  V30 6740 C 615.833 3.3065 -0.645909 0
M  V30 6741 O 616.363 4.01216 0.197093 0
M  V30 6742 N 614.569 2.86464 -0.488538 0
M  V30 6743 H 614.116 2.29209 -1.17562 0
M  V30 6744 H 614.074 3.12565 0.339156 0
M  V30 6745 N 617.846 1.41785 0.688094 0
M  V30 6746 C 618.778 1.40159 1.81351 0
M  V30 6747 C 619.791 0.30262 1.59963 0
M  V30 6748 O 620.98 0.564841 1.69327 0
M  V30 6749 C 618.08 1.16517 3.1824 0
M  V30 6750 C 617.253 2.38597 3.66593 0
M  V30 6751 C 616.312 2.10699 4.82174 0
M  V30 6752 O 615.338 2.83798 4.93404 0
M  V30 6753 N 616.54 1.10187 5.69947 0
M  V30 6754 H 619.305 2.3716 1.83236 0
M  V30 6755 H 616.866 1.36494 0.870697 0
M  V30 6756 H 618.858 0.957941 3.93199 0
M  V30 6757 H 617.428 0.280873 3.11336 0
M  V30 6758 H 616.648 2.74974 2.82459 0
M  V30 6759 H 617.936 3.19919 3.95638 0
M  V30 6760 H 617.334 0.497016 5.63512 0
M  V30 6761 H 615.891 0.954518 6.44773 0
M  V30 6762 N 619.324 -0.923095 1.27737 0
M  V30 6763 C 620.272 -2.04567 1.10703 0
M  V30 6764 C 621.266 -1.69375 0.0288445 0
M  V30 6765 O 622.472 -1.79027 0.186913 0
M  V30 6766 H 618.847 -0.670109 0.34126 0
M  V30 6767 H 620.818 -2.1608 2.05796 0
M  V30 6768 C 619.567 -3.38934 0.775837 0
M  V30 6769 H 618.89 -3.66501 1.59741 0
M  V30 6770 H 620.33 -4.18239 0.696548 0
M  V30 6771 C 618.789 -3.32863 -0.520012 0
M  V30 6772 O 619.319 -3.70462 -1.55308 0
M  V30 6773 N 617.525 -2.85958 -0.51732 0
M  V30 6774 H 617.072 -2.55557 0.32379 0
M  V30 6775 H 617.03 -2.82279 -1.38441 0
M  V30 6776 N 620.802 -1.09834 -1.13024 0
M  V30 6777 C 622.03 -0.858902 -1.8823 0
M  V30 6778 C 622.445 0.590164 -1.79339 0
M  V30 6779 O 621.802 1.4065 -1.16292 0
M  V30 6780 C 621.853 -1.29066 -3.37675 0
M  V30 6781 O 621.574 -2.6829 -3.46341 0
M  V30 6782 C 623.075 -1.08421 -4.29837 0
M  V30 6783 H 620.295 -0.308713 -0.595766 0
M  V30 6784 H 622.839 -1.4614 -1.4305 0
M  V30 6785 H 620.994 -0.731961 -3.80422 0
M  V30 6786 H 621.408 -2.86598 -4.39274 0
M  V30 6787 H 622.882 -1.43553 -5.33007 0
M  V30 6788 H 623.359 -0.0223315 -4.39194 0
M  V30 6789 H 623.965 -1.62907 -3.92863 0
M  V30 6790 N 622.28 1.30327 -0.886154 0
M  V30 6791 C 623.505 2.0079 -0.519425 0
M  V30 6792 C 623.93 1.65979 0.885013 0
M  V30 6793 O 623.288 0.877043 1.58675 0
M  V30 6794 C 623.336 3.53686 -0.702758 0
M  V30 6795 O 622.44 4.11637 0.250828 0
M  V30 6796 H 621.781 0.63171 -0.204544 0
M  V30 6797 H 624.311 1.66145 -1.19402 0
M  V30 6798 H 624.321 4.03531 -0.602207 0
M  V30 6799 H 622.996 3.78361 -1.72673 0
M  V30 6800 H 621.573 3.72755 0.103873 0
M  V30 6801 N 623.758 0.647228 1.43697 0
M  V30 6802 C 624.668 -0.0487997 2.34549 0
M  V30 6803 C 625.684 -0.818586 1.53542 0
M  V30 6804 O 626.86 -0.767195 1.86215 0
M  V30 6805 C 623.925 -1.00734 3.31743 0
M  V30 6806 C 622.986 -0.23515 4.28655 0
M  V30 6807 C 622.219 -1.14803 5.21206 0
M  V30 6808 O 622.442 -2.38717 5.18045 0
M  V30 6809 O 621.376 -0.623667 5.9866 0
M  V30 6810 H 625.202 0.698863 2.9555 0
M  V30 6811 H 622.787 0.407412 1.43738 0
M  V30 6812 H 624.669 -1.55837 3.91526 0
M  V30 6813 H 623.344 -1.73534 2.73254 0
M  V30 6814 H 622.251 0.359319 3.7237 0
M  V30 6815 H 623.584 0.453152 4.9011 0
M  V30 6816 N 625.236 -1.5273 0.388769 0
M  V30 6817 C 626.461 -2.0647 -0.19621 0
M  V30 6818 C 626.886 -1.25865 -1.39784 0
M  V30 6819 O 626.244 -0.283562 -1.79069 0
M  V30 6820 C 626.292 -3.56456 -0.5451 0
M  V30 6821 O 625.396 -3.78426 -1.63912 0
M  V30 6822 H 624.737 -0.663599 -0.023067 0
M  V30 6823 H 627.267 -1.96898 0.556084 0
M  V30 6824 H 627.277 -3.99888 -0.809557 0
M  V30 6825 H 625.952 -4.14561 0.333417 0
M  V30 6826 H 624.529 -3.46884 -1.36842 0
M  V30 6827 O 626.753 -0.258973 -1.5941 0
M  V30 6828 H 627.444 0.314239 -1.91134 0
M  V30 END ATOM
M  V30 BEGIN BOND
M  V30 END BOND
M  V30 END CTAB
M  END
$$$$
