drugbank_target|Q99640 Membrane-associated tyrosine- and threonine-specific cdc2-inhibitory kinase (DB12010)
 OpenBabel12092121183D

  0  0  0     0  0            999 V3000
M  V30 BEGIN CTAB
M  V30 COUNTS 7645 7765 0 0 0
M  V30 BEGIN ATOM
M  V30 1 H -0.908 1.98254 -0.117106 0
M  V30 2 N 0 1.576 0 0
M  V30 3 C 0.933 2.03868 1.02534 0
M  V30 4 C 1.911 0.928543 1.3348 0
M  V30 5 O 3.095 1.19667 1.45644 0
M  V30 6 C 0.222 2.43627 2.35294 0
M  V30 7 C -0.732 3.65373 2.2001 0
M  V30 8 S 0.101 5.13292 1.52614 0
M  V30 9 C 1.257 5.56322 2.86805 0
M  V30 10 H 1.49 2.90518 0.631377 0
M  V30 11 H -0.977 1.52953 0.210867 0
M  V30 12 H 0.981 2.67203 3.11629 0
M  V30 13 H -0.358 1.57376 2.7183 0
M  V30 14 H -1.165 3.90944 3.18086 0
M  V30 15 H -1.563 3.418 1.51819 0
M  V30 16 H 0.729 5.58782 3.83104 0
M  V30 17 H 1.672 6.56266 2.65933 0
M  V30 18 H 2.08 4.83886 2.90714 0
M  V30 19 N 1.4781 -0.272755 1.55222 0
M  V30 20 C 2.4081 -1.34136 1.91127 0
M  V30 21 C 3.3891 -1.51513 0.773168 0
M  V30 22 O 4.5741 -1.64552 1.03132 0
M  V30 23 C 1.7041 -2.70083 2.1834 0
M  V30 24 C 0.6581 -2.67437 3.34158 0
M  V30 25 C -0.0159 -4.06938 3.46851 0
M  V30 26 C 1.2841 -2.26686 4.70543 0
M  V30 27 H 2.9781 -1.04333 2.80633 0
M  V30 28 H 0.5241 -0.500454 1.35024 0
M  V30 29 H 2.4771 -3.44952 2.42046 0
M  V30 30 H 1.2011 -3.01469 1.25634 0
M  V30 31 H -0.1399 -1.95026 3.1042 0
M  V30 32 H -0.4919 -4.35547 2.51611 0
M  V30 33 H -0.7919 -4.06062 4.2472 0
M  V30 34 H 0.7321 -4.83545 3.72849 0
M  V30 35 H 2.1461 -2.91277 4.93792 0
M  V30 36 H 0.5431 -2.36971 5.5133 0
M  V30 37 H 1.6131 -1.21818 4.69349 0
M  V30 38 N 2.9562 -1.48159 -0.537278 0
M  V30 39 C 3.8662 -1.64807 -1.6696 0
M  V30 40 C 4.8822 -0.530651 -1.65711 0
M  V30 41 O 6.0582 -0.800784 -1.84796 0
M  V30 42 C 3.1232 -1.67708 -3.03438 0
M  V30 43 C 2.1842 -2.91025 -3.156 0
M  V30 44 C 1.4172 -2.93778 -4.45567 0
M  V30 45 O 1.6402 -2.05153 -5.3223 0
M  V30 46 O 0.5742 -3.85868 -4.61941 0
M  V30 47 H 4.4002 -2.6066 -1.55853 0
M  V30 48 H 1.9852 -1.31475 -0.709549 0
M  V30 49 H 3.8672 -1.7218 -3.84619 0
M  V30 50 H 2.5422 -0.750278 -3.14885 0
M  V30 51 H 1.4492 -2.92089 -2.33741 0
M  V30 52 H 2.7822 -3.83065 -3.09066 0
M  V30 53 N 4.4343 0.785586 -1.36625 0
M  V30 54 C 5.8503 1.08419 -1.17122 0
M  V30 55 C 6.0503 2.015 0.00208491 0
M  V30 56 O 5.1063 2.43551 0.666278 0
M  V30 57 C 6.4193 1.69498 -2.48377 0
M  V30 58 C 7.9673 1.81821 -2.54775 0
M  V30 59 C 8.4423 2.46315 -3.86126 0
M  V30 60 N 9.9333 2.53779 -3.87492 0
M  V30 61 C 10.6683 3.045 -4.85868 0
M  V30 62 N 10.1643 3.55499 -5.94637 0
M  V30 63 N 11.9573 3.03247 -4.73284 0
M  V30 64 H 4.1083 0.167264 -2.1174 0
M  V30 65 H 6.3713 0.13682 -0.938075 0
M  V30 66 H 6.0773 1.08571 -3.34522 0
M  V30 67 H 5.9513 2.6896 -2.64462 0
M  V30 68 H 8.3383 2.41884 -1.69045 0
M  V30 69 H 8.4193 0.811532 -2.42586 0
M  V30 70 H 8.0633 1.86895 -4.72263 0
M  V30 71 H 7.9933 3.47561 -3.95612 0
M  V30 72 H 10.4843 2.17672 -3.08913 0
M  V30 73 H 10.7973 3.92562 -6.65669 0
M  V30 74 H 9.1423 3.5364 -5.98301 0
M  V30 75 H 12.3333 2.62696 -3.87438 0
M  V30 76 H 12.5063 3.42467 -5.50109 0
M  V30 77 N 5.9124 1.20967 1.01018 0
M  V30 78 C 7.3234 1.02319 1.56165 0
M  V30 79 C 7.6744 -0.418546 1.91684 0
M  V30 80 O 6.7994 -1.30096 1.72928 0
M  V30 81 C 7.3944 1.85109 2.8376 0
M  V30 82 C 5.9534 1.70809 3.35412 0
M  V30 83 C 5.1004 1.82643 2.08655 0
M  V30 84 H 8.0514 1.35065 0.833255 0
M  V30 85 H 8.0724 1.35827 3.55431 0
M  V30 86 H 7.5844 2.90035 2.57878 0
M  V30 87 H 5.6854 0.685464 3.66241 0
M  V30 88 H 5.7984 2.52467 4.07182 0
M  V30 89 H 4.1624 1.25896 2.21409 0
M  V30 90 H 4.9454 2.89066 1.85191 0
M  V30 91 N 7.3905 -1.2043 1.01659 0
M  V30 92 C 8.8015 -1.71517 0.737482 0
M  V30 93 C 9.1525 -1.81547 -0.743973 0
M  V30 94 O 8.2775 -1.47803 -1.58061 0
M  V30 95 C 8.8725 -3.11515 1.33206 0
M  V30 96 C 7.4315 -3.59912 1.10183 0
M  V30 97 C 6.5785 -2.37116 1.43776 0
M  V30 98 H 9.5295 -1.05444 1.18606 0
M  V30 99 H 9.5505 -3.73575 0.722636 0
M  V30 100 H 9.0625 -3.04182 2.41028 0
M  V30 101 H 7.1635 -3.72577 0.0412756 0
M  V30 102 H 7.2765 -4.44731 1.78188 0
M  V30 103 H 5.6405 -2.39857 0.856778 0
M  V30 104 H 6.4235 -2.32424 2.52654 0
M  V30 105 N 8.8686 -0.792821 -1.36206 0
M  V30 106 C 9.8316 -0.199459 -2.2833 0
M  V30 107 C 10.8316 0.605189 -1.48977 0
M  V30 108 O 12.0216 0.425685 -1.68919 0
M  V30 109 C 9.1536 0.723523 -3.33134 0
M  V30 110 H 10.3466 -1.01181 -2.82316 0
M  V30 111 H 7.8996 -0.562485 -1.45828 0
M  V30 112 H 8.6346 1.56008 -2.84309 0
M  V30 113 H 8.4196 0.148436 -3.91819 0
M  V30 114 H 9.9096 1.13344 -4.01924 0
M  V30 115 N 10.3467 1.47872 -0.545128 0
M  V30 116 C 11.2767 2.32661 0.197793 0
M  V30 117 C 12.2577 1.43041 0.920504 0
M  V30 118 O 13.4427 1.71912 0.90333 0
M  V30 119 C 10.5727 3.24569 1.23582 0
M  V30 120 C 9.5267 4.23333 0.630323 0
M  V30 121 C 8.8527 5.0448 1.77211 0
M  V30 122 C 10.1527 5.20704 -0.407974 0
M  V30 123 H 11.8467 2.95024 -0.510045 0
M  V30 124 H 9.3927 1.4187 -0.246731 0
M  V30 125 H 11.3457 3.8272 1.76362 0
M  V30 126 H 10.0697 2.60236 1.97344 0
M  V30 127 H 8.7287 3.6639 0.123922 0
M  V30 128 H 8.3767 4.36561 2.49847 0
M  V30 129 H 8.0767 5.71339 1.37281 0
M  V30 130 H 9.6007 5.65487 2.3034 0
M  V30 131 H 11.0147 5.7329 0.033305 0
M  V30 132 H 9.4117 5.95699 -0.725486 0
M  V30 133 H 10.4817 4.66917 -1.30828 0
M  V30 134 N 11.8248 0.280983 1.55075 0
M  V30 135 C 12.7878 -0.590896 2.21452 0
M  V30 136 C 13.7878 -1.07682 1.19421 0
M  V30 137 O 14.9778 -0.97605 1.44288 0
M  V30 138 C 12.1098 -1.81587 2.88511 0
M  V30 139 H 13.3028 -0.0112554 2.99898 0
M  V30 140 H 10.8558 0.0316438 1.56268 0
M  V30 141 H 11.5908 -2.43587 2.14093 0
M  V30 142 H 11.3758 -1.4753 3.63287 0
M  V30 143 H 12.8658 -2.43575 3.39206 0
M  V30 144 N 13.3029 -1.57598 0.00835791 0
M  V30 145 C 14.2359 -2.04409 -1.01451 0
M  V30 146 C 15.2139 -0.935609 -1.32985 0
M  V30 147 O 16.3979 -1.20437 -1.45007 0
M  V30 148 C 13.5249 -2.44872 -2.33999 0
M  V30 149 C 12.5709 -3.66535 -2.18069 0
M  V30 150 S 13.4039 -5.14095 -1.4989 0
M  V30 151 C 14.5599 -5.57835 -2.8385 0
M  V30 152 H 14.7929 -2.90849 -0.615961 0
M  V30 153 H 12.3259 -1.53063 -0.202752 0
M  V30 154 H 14.2839 -2.68852 -3.10208 0
M  V30 155 H 12.9449 -1.58815 -2.70992 0
M  V30 156 H 12.1379 -3.92626 -3.16008 0
M  V30 157 H 11.7399 -3.426 -1.50004 0
M  V30 158 H 14.0319 -5.60806 -3.80136 0
M  V30 159 H 14.9749 -6.57667 -2.62449 0
M  V30 160 H 15.3829 -4.85421 -2.88144 0
M  V30 161 N 14.781 0.264519 -1.55364 0
M  V30 162 C 16.192 0.834936 -1.6699 0
M  V30 163 C 16.543 1.86718 -0.602552 0
M  V30 164 O 15.668 2.14899 0.254425 0
M  V30 165 C 16.263 1.5212 -3.02729 0
M  V30 166 C 14.822 2.03954 -3.16354 0
M  V30 167 C 13.969 0.884498 -2.62815 0
M  V30 168 H 16.92 0.0406869 -1.58648 0
M  V30 169 H 16.941 2.38853 -2.96191 0
M  V30 170 H 16.453 0.769668 -3.80392 0
M  V30 171 H 14.554 2.82041 -2.43482 0
M  V30 172 H 14.667 2.24902 -4.23032 0
M  V30 173 H 13.031 1.2802 -2.20188 0
M  V30 174 H 13.814 0.14634 -3.42988 0
M  V30 175 N 16.2591 1.48442 0.529413 0
M  V30 176 C 17.1921 1.57577 1.65059 0
M  V30 177 C 18.1701 0.426198 1.56915 0
M  V30 178 O 19.3541 0.637877 1.77379 0
M  V30 179 C 16.4811 1.5043 3.03461 0
M  V30 180 C 15.5271 2.70235 3.29962 0
M  V30 181 S 16.3601 4.32198 3.16172 0
M  V30 182 C 17.5161 4.2765 4.57019 0
M  V30 183 H 17.7491 2.52427 1.5706 0
M  V30 184 H 15.2821 1.36982 0.712417 0
M  V30 185 H 17.2401 1.46992 3.8328 0
M  V30 186 H 15.9011 0.569167 3.089 0
M  V30 187 H 15.0941 2.61374 4.30929 0
M  V30 188 H 14.6961 2.70938 2.57815 0
M  V30 189 H 16.9881 3.97618 5.48549 0
M  V30 190 H 17.9311 5.28797 4.70934 0
M  V30 191 H 18.3391 3.5811 4.36368 0
M  V30 192 N 17.7372 -0.778329 1.37039 0
M  V30 193 C 19.1482 -1.35421 1.28523 0
M  V30 194 C 19.4992 -1.96075 -0.0700901 0
M  V30 195 O 18.6242 -1.93352 -0.971801 0
M  V30 196 C 19.2192 -2.46211 2.32735 0
M  V30 197 C 17.7782 -2.99585 2.27873 0
M  V30 198 C 16.9252 -1.72748 2.16918 0
M  V30 199 H 19.8762 -0.5791 1.47757 0
M  V30 200 H 19.8972 -3.2552 1.9702 0
M  V30 201 H 19.4092 -2.02036 3.31365 0
M  V30 202 H 17.5102 -3.48152 1.32745 0
M  V30 203 H 17.6232 -3.55646 3.21018 0
M  V30 204 H 15.9872 -1.95416 1.63354 0
M  V30 205 H 16.7702 -1.30686 3.17452 0
M  V30 206 N 19.2153 -1.21501 -1.00376 0
M  V30 207 C 20.4433 -1.059 -1.77744 0
M  V30 208 C 20.8583 0.391125 -1.84704 0
M  V30 209 O 20.2153 1.27133 -1.30933 0
M  V30 210 C 20.2663 -1.65111 -3.21591 0
M  V30 211 O 19.9873 -3.0445 -3.15027 0
M  V30 212 C 21.4883 -1.54637 -4.15454 0
M  V30 213 H 18.7083 -0.371825 -0.558558 0
M  V30 214 H 21.2523 -1.60865 -1.26264 0
M  V30 215 H 19.4073 -1.14235 -3.70175 0
M  V30 216 H 19.8213 -3.3278 -4.0541 0
M  V30 217 H 21.2953 -2.00808 -5.14179 0
M  V30 218 H 21.7723 -0.501022 -4.36333 0
M  V30 219 H 22.3783 -2.04767 -3.72761 0
M  V30 220 N 20.6934 1.19889 -1.02296 0
M  V30 221 C 21.6034 2.26571 -0.608508 0
M  V30 222 C 22.6194 1.70299 0.356964 0
M  V30 223 O 23.7954 2.00235 0.216326 0
M  V30 224 C 20.8604 3.46677 0.0402814 0
M  V30 225 C 19.9214 4.18153 -0.97194 0
M  V30 226 C 19.1544 5.32525 -0.354016 0
M  V30 227 O 19.3774 5.64112 0.844604 0
M  V30 228 O 18.3114 5.92242 -1.07391 0
M  V30 229 H 22.1374 2.64251 -1.49684 0
M  V30 230 H 19.7224 1.26629 -0.792809 0
M  V30 231 H 21.6044 4.19475 0.402324 0
M  V30 232 H 20.2794 3.10858 0.902707 0
M  V30 233 H 19.1864 3.47499 -1.38546 0
M  V30 234 H 20.5194 4.57927 -1.80454 0
M  V30 235 N 22.1715 0.800033 1.35784 0
M  V30 236 C 23.4195 0.376597 1.9856 0
M  V30 237 C 23.7405 -1.05812 1.63795 0
M  V30 238 O 23.0105 -1.73103 0.917171 0
M  V30 239 H 21.5905 0.136261 0.734467 0
M  V30 240 H 24.2525 1.02442 1.65806 0
M  V30 241 H 23.3485 0.477002 3.08433 0
M  V30 242 N 23.6496 -1.47581 0.552962 0
M  V30 243 C 24.8776 -2.06875 0.0320556 0
M  V30 244 C 25.2926 -1.40625 -1.25976 0
M  V30 245 O 24.6496 -0.501349 -1.75479 0
M  V30 246 C 24.7006 -3.61092 -0.17167 0
M  V30 247 O 24.4216 -4.24858 1.06899 0
M  V30 248 C 25.9226 -4.37242 -0.730344 0
M  V30 249 H 23.1426 -0.669561 0.043915 0
M  V30 250 H 25.6866 -1.89646 0.765163 0
M  V30 251 H 23.8416 -3.7785 -0.854894 0
M  V30 252 H 24.2556 -5.17334 0.864059 0
M  V30 253 H 25.7296 -5.45842 -0.822203 0
M  V30 254 H 26.2066 -4.03235 -1.74064 0
M  V30 255 H 26.8126 -4.25219 -0.0829543 0
M  V30 256 N 25.1277 -0.289203 -1.54924 0
M  V30 257 C 26.5387 0.205791 -1.85562 0
M  V30 258 C 26.8897 1.54351 -1.2112 0
M  V30 259 O 26.0147 2.10435 -0.504601 0
M  V30 260 C 26.6097 0.380177 -3.3666 0
M  V30 261 C 25.1687 0.819395 -3.67373 0
M  V30 262 C 24.3157 -0.079159 -2.77187 0
M  V30 263 H 27.2667 -0.510577 -1.50262 0
M  V30 264 H 27.2877 1.21659 -3.60526 0
M  V30 265 H 26.7997 -0.593589 -3.83534 0
M  V30 266 H 24.9007 1.80413 -3.26009 0
M  V30 267 H 25.0137 0.646957 -4.74712 0
M  V30 268 H 23.3777 0.439565 -2.50878 0
M  V30 269 H 24.1607 -1.04906 -3.26878 0
M  V30 270 N 26.6058 1.57591 -0.0167156 0
M  V30 271 C 28.0168 1.79201 0.523834 0
M  V30 272 C 28.3678 0.925796 1.72984 0
M  V30 273 O 27.4928 0.132792 2.15992 0
M  V30 274 C 28.0878 3.25 0.957091 0
M  V30 275 C 26.6468 3.47648 1.44283 0
M  V30 276 C 25.7938 2.74374 0.401757 0
M  V30 277 H 28.7448 1.56831 -0.242816 0
M  V30 278 H 28.7658 3.34031 1.82219 0
M  V30 279 H 28.2778 3.88019 0.0791415 0
M  V30 280 H 26.3788 2.89866 2.34113 0
M  V30 281 H 26.4918 4.56352 1.45877 0
M  V30 282 H 24.8558 2.39485 0.867121 0
M  V30 283 H 25.6388 3.40102 -0.467513 0
M  V30 284 N 28.0839 -0.256276 1.55502 0
M  V30 285 C 29.4949 -0.826068 1.67431 0
M  V30 286 C 29.8459 -1.86396 0.612446 0
M  V30 287 O 28.9709 -2.15031 -0.243025 0
M  V30 288 C 29.5659 -1.50512 3.03532 0
M  V30 289 C 28.1249 -2.02273 3.17431 0
M  V30 290 C 27.2719 -0.870548 2.63281 0
M  V30 291 H 30.2229 -0.0322728 1.58667 0
M  V30 292 H 30.2439 -2.37279 2.97454 0
M  V30 293 H 29.7559 -0.749484 3.80794 0
M  V30 294 H 27.8569 -2.80746 2.44974 0
M  V30 295 H 27.9699 -2.22655 4.24219 0
M  V30 296 H 26.3339 -1.26851 2.20864 0
M  V30 297 H 27.1169 -0.128149 3.43061 0
M  V30 298 N 29.562 -1.4872 -0.521534 0
M  V30 299 C 30.492 -1.66771 -1.63431 0
M  V30 300 C 31.473 -0.516499 -1.62069 0
M  V30 301 O 32.658 -0.750013 -1.79132 0
M  V30 302 C 29.788 -1.71515 -3.01993 0
M  V30 303 C 28.742 -2.86222 -3.18216 0
M  V30 304 C 28.068 -2.76061 -4.57924 0
M  V30 305 C 29.368 -4.27419 -3.00184 0
M  V30 306 H 31.062 -2.59932 -1.48579 0
M  V30 307 H 28.608 -1.25089 -0.713358 0
M  V30 308 H 30.561 -1.82731 -3.7972 0
M  V30 309 H 29.285 -0.749393 -3.17886 0
M  V30 310 H 27.944 -2.74575 -2.42908 0
M  V30 311 H 27.592 -1.77437 -4.70665 0
M  V30 312 H 27.292 -3.53037 -4.69722 0
M  V30 313 H 28.816 -2.89256 -5.37739 0
M  V30 314 H 30.23 -4.39855 -3.67697 0
M  V30 315 H 28.627 -5.05458 -3.2347 0
M  V30 316 H 29.697 -4.43293 -1.96518 0
M  V30 317 N 31.0401 0.771051 -1.3745 0
M  V30 318 C 32.2651 1.56529 -1.36065 0
M  V30 319 C 32.6901 1.88029 0.0515859 0
M  V30 320 O 32.0481 1.49282 1.02882 0
M  V30 321 C 32.0961 2.85187 -2.20683 0
M  V30 322 O 31.2001 3.79593 -1.61193 0
M  V30 323 H 30.5411 0.47411 -0.464883 0
M  V30 324 H 33.0711 0.954269 -1.80983 0
M  V30 325 H 33.0811 3.34283 -2.33921 0
M  V30 326 H 31.7561 2.61588 -3.23334 0
M  V30 327 H 30.3331 3.38239 -1.56999 0
M  V30 328 N 32.5182 1.22032 0.997298 0
M  V30 329 C 33.7662 1.04016 1.73278 0
M  V30 330 C 34.0872 -0.426255 1.90284 0
M  V30 331 O 33.3572 -1.30694 1.45931 0
M  V30 332 H 31.9372 0.381897 0.642 0
M  V30 333 H 34.5992 1.5347 1.20137 0
M  V30 334 H 33.6952 1.51441 2.72896 0
M  V30 335 N 33.9963 -1.19345 1.0293 0
M  V30 336 C 35.2243 -1.92997 0.745644 0
M  V30 337 C 35.6393 -1.75519 -0.695589 0
M  V30 338 O 34.9963 -1.07737 -1.47306 0
M  V30 339 C 35.0473 -3.44741 1.08792 0
M  V30 340 O 34.7683 -3.61658 2.47256 0
M  V30 341 C 36.2693 -4.35515 0.827129 0
M  V30 342 H 33.4893 -0.613042 0.272801 0
M  V30 343 H 36.0333 -1.51473 1.3739 0
M  V30 344 H 34.1883 -3.84097 0.504832 0
M  V30 345 H 34.6023 -4.55514 2.60015 0
M  V30 346 H 36.0763 -5.40589 1.11658 0
M  V30 347 H 36.5533 -4.38552 -0.238436 0
M  V30 348 H 37.1593 -4.01841 1.39297 0
M  V30 349 N 35.4744 -0.807222 -1.35358 0
M  V30 350 C 36.8854 -0.44876 -1.81226 0
M  V30 351 C 37.2364 1.02929 -1.67033 0
M  V30 352 O 36.3614 1.79991 -1.20133 0
M  V30 353 C 36.9564 -0.807774 -3.2903 0
M  V30 354 C 35.5154 -0.501901 -3.73039 0
M  V30 355 C 34.6624 -1.03304 -2.57339 0
M  V30 356 H 37.6134 -0.998808 -1.23327 0
M  V30 357 H 37.6344 -0.10554 -3.80354 0
M  V30 358 H 37.1464 -1.88357 -3.39328 0
M  V30 359 H 35.2474 0.565128 -3.68289 0
M  V30 360 H 35.3604 -1.03497 -4.67787 0
M  V30 361 H 33.7244 -0.455339 -2.50597 0
M  V30 362 H 34.5074 -2.11496 -2.70415 0
M  V30 363 N 36.9525 1.47285 -0.560781 0
M  V30 364 C 38.2015 2.01668 -0.035895 0
M  V30 365 C 38.5145 1.44021 1.32353 0
M  V30 366 O 39.7205 1.90088 1.93853 0
M  V30 367 C 38.1765 3.59897 -0.0136659 0
M  V30 368 C 37.7845 4.26536 -1.37006 0
M  V30 369 C 39.5285 4.22017 0.458425 0
M  V30 370 C 37.4355 5.76782 -1.30675 0
M  V30 371 H 36.3655 0.753938 -0.00964879 0
M  V30 372 H 39.0165 1.69243 -0.709166 0
M  V30 373 H 37.3985 3.89301 0.725325 0
M  V30 374 H 38.5725 4.0877 -2.12705 0
M  V30 375 H 36.8875 3.76419 -1.78038 0
M  V30 376 H 39.4845 5.32124 0.524247 0
M  V30 377 H 39.8275 3.89437 1.4712 0
M  V30 378 H 40.3605 3.97159 -0.225818 0
M  V30 379 H 37.0995 6.13988 -2.29564 0
M  V30 380 H 36.6195 5.96875 -0.591622 0
M  V30 381 H 38.2985 6.39063 -1.01033 0
M  V30 382 N 38.4306 0.297415 1.54768 0
M  V30 383 C 39.8416 -0.195947 1.85669 0
M  V30 384 C 40.1926 -1.53707 1.21937 0
M  V30 385 O 39.3176 -2.10164 0.515754 0
M  V30 386 C 39.9126 -0.362318 3.36857 0
M  V30 387 C 38.4716 -0.799901 3.67802 0
M  V30 388 C 37.6186 0.0938578 2.77141 0
M  V30 389 H 40.5696 0.518538 1.4999 0
M  V30 390 H 40.5906 -1.19745 3.61167 0
M  V30 391 H 40.1026 0.613921 3.83214 0
M  V30 392 H 38.2036 -1.78682 3.26961 0
M  V30 393 H 38.3166 -0.621773 4.75048 0
M  V30 394 H 36.6806 -0.426254 2.51108 0
M  V30 395 H 37.4636 1.06639 3.26318 0
M  V30 396 N 39.9087 -1.5758 0.0250728 0
M  V30 397 C 41.1547 -1.91917 -0.655413 0
M  V30 398 C 41.4877 -0.901433 -1.72011 0
M  V30 399 O 40.7627 0.0764069 -1.9435 0
M  V30 400 C 41.0457 -3.36751 -1.27558 0
M  V30 401 C 40.8987 -4.49258 -0.220719 0
M  V30 402 C 42.2177 -3.81469 -2.19475 0
M  V30 403 H 39.3367 -0.697925 -0.23679 0
M  V30 404 H 41.9787 -1.89825 0.0815036 0
M  V30 405 H 40.1287 -3.38664 -1.90365 0
M  V30 406 H 41.8007 -4.59478 0.409601 0
M  V30 407 H 40.0437 -4.31415 0.454264 0
M  V30 408 H 40.7147 -5.47618 -0.694175 0
M  V30 409 H 43.1907 -3.81266 -1.66659 0
M  V30 410 H 42.0667 -4.83512 -2.59822 0
M  V30 411 H 42.3277 -3.16744 -3.08424 0
M  V30 412 N 41.3868 0.248026 -1.55636 0
M  V30 413 C 42.7978 0.817177 -1.67866 0
M  V30 414 C 43.1488 1.86069 -0.622322 0
M  V30 415 O 42.2738 2.15157 0.231618 0
M  V30 416 C 42.8688 1.489 -3.04326 0
M  V30 417 C 41.4278 2.00587 -3.185 0
M  V30 418 C 40.5748 0.856573 -2.63739 0
M  V30 419 H 43.5258 0.0238579 -1.58682 0
M  V30 420 H 43.5468 2.35698 -2.98708 0
M  V30 421 H 43.0588 0.729279 -3.81186 0
M  V30 422 H 41.1598 2.79443 -2.4646 0
M  V30 423 H 41.2728 2.20402 -4.25393 0
M  V30 424 H 39.6368 1.25678 -2.21534 0
M  V30 425 H 40.4198 0.109953 -3.43124 0
M  V30 426 N 42.8649 1.48995 0.513639 0
M  V30 427 C 43.8279 1.64229 1.59879 0
M  V30 428 C 44.8279 0.514696 1.5234 0
M  V30 429 O 46.0179 0.78087 1.55718 0
M  V30 430 C 43.1499 1.62783 2.99524 0
M  V30 431 H 44.3429 2.61004 1.47705 0
M  V30 432 H 41.8959 1.37837 0.736936 0
M  V30 433 H 42.6309 0.675461 3.17188 0
M  V30 434 H 42.4159 2.4466 3.06404 0
M  V30 435 H 43.9059 1.76669 3.78388 0
M  V30 436 N 44.343 -0.763751 1.37857 0
M  V30 437 C 45.573 -1.55067 1.3652 0
M  V30 438 C 45.981 -1.89135 -0.0494227 0
M  V30 439 O 45.324 -1.52529 -1.02375 0
M  V30 440 C 45.386 -2.8838 2.14656 0
M  V30 441 C 45.05 -2.76905 3.63555 0
M  V30 442 C 46.047 -2.4739 4.57268 0
M  V30 443 C 43.732 -2.94676 4.06781 0
M  V30 444 C 45.726 -2.35786 5.92186 0
M  V30 445 C 43.413 -2.82692 5.41782 0
M  V30 446 C 44.411 -2.53289 6.34298 0
M  V30 447 O 44.099 -2.41345 7.66817 0
M  V30 448 H 43.831 -0.486776 0.469069 0
M  V30 449 H 46.385 -0.953812 1.81911 0
M  V30 450 H 44.615 -3.50217 1.63967 0
M  V30 451 H 46.304 -3.49828 2.05852 0
M  V30 452 H 47.07 -2.33339 4.2518 0
M  V30 453 H 42.949 -3.16563 3.35126 0
M  V30 454 H 46.493 -2.12757 6.64365 0
M  V30 455 H 42.39 -2.96314 5.7347 0
M  V30 456 H 43.158 -2.56634 7.77226 0
M  V30 457 N 45.8211 -1.22559 -0.990812 0
M  V30 458 C 47.0681 -1.05141 -1.73065 0
M  V30 459 C 47.3961 0.413191 -1.9006 0
M  V30 460 O 46.6511 1.32257 -1.44245 0
M  V30 461 C 46.9501 -1.71011 -3.13831 0
M  V30 462 C 46.6161 -3.20911 -3.16745 0
M  V30 463 C 45.2781 -3.61812 -3.17247 0
M  V30 464 C 47.6301 -4.16846 -3.12872 0
M  V30 465 C 44.9581 -4.97127 -3.1158 0
M  V30 466 C 47.3101 -5.5214 -3.08746 0
M  V30 467 C 45.9741 -5.92419 -3.07565 0
M  V30 468 H 45.2441 -0.384738 -0.633291 0
M  V30 469 H 47.8911 -1.5235 -1.16025 0
M  V30 470 H 46.1961 -1.16133 -3.74193 0
M  V30 471 H 47.8931 -1.55023 -3.69823 0
M  V30 472 H 44.4831 -2.88344 -3.17105 0
M  V30 473 H 48.6671 -3.86263 -3.11632 0
M  V30 474 H 43.9231 -5.27562 -3.09012 0
M  V30 475 H 48.0971 -6.26201 -3.04705 0
M  V30 476 H 45.7241 -6.97236 -3.02929 0
M  V30 477 N 47.2992 1.18797 -1.03562 0
M  V30 478 C 48.7152 1.40671 -0.753917 0
M  V30 479 C 48.9152 1.9043 0.658686 0
M  V30 480 O 47.9712 2.08538 1.42366 0
M  V30 481 C 49.2842 2.41192 -1.79574 0
M  V30 482 C 50.8322 2.54928 -1.81606 0
M  V30 483 C 51.3072 3.58709 -2.84766 0
M  V30 484 N 52.7982 3.66212 -2.83625 0
M  V30 485 C 53.5332 4.46225 -3.60098 0
M  V30 486 N 53.0292 5.29888 -4.46308 0
M  V30 487 N 54.8222 4.40939 -3.4861 0
M  V30 488 H 46.9732 0.848221 -1.94728 0
M  V30 489 H 49.2362 0.435081 -0.842264 0
M  V30 490 H 48.9422 2.11669 -2.80872 0
M  V30 491 H 48.8162 3.40467 -1.62365 0
M  V30 492 H 51.2032 2.83771 -0.809817 0
M  V30 493 H 51.2842 1.55784 -2.02891 0
M  V30 494 H 50.9282 3.30607 -3.85566 0
M  V30 495 H 50.8582 4.57519 -2.60737 0
M  V30 496 H 53.3492 3.06466 -2.21105 0
M  V30 497 H 53.6622 5.88078 -5.01382 0
M  V30 498 H 52.0072 5.29326 -4.50377 0
M  V30 499 H 55.1982 3.74624 -2.80668 0
M  V30 500 H 55.3712 5.03056 -4.08459 0
M  V30 501 N 48.7773 0.814389 1.34928 0
M  V30 502 C 49.7273 0.202752 2.27097 0
M  V30 503 C 50.7113 -0.62799 1.48139 0
M  V30 504 O 51.9033 -0.483969 1.70255 0
M  V30 505 C 49.0323 -0.64146 3.37254 0
M  V30 506 C 48.1183 0.19944 4.23631 0
M  V30 507 N 48.5093 1.26628 4.89693 0
M  V30 508 C 46.8073 -0.0176433 4.45997 0
M  V30 509 C 47.5083 1.78031 5.53787 0
M  V30 510 N 46.4843 1.08553 5.32651 0
M  V30 511 H 50.2863 1.01893 2.75672 0
M  V30 512 H 47.8003 0.656332 1.48546 0
M  V30 513 H 49.7973 -1.09575 4.02243 0
M  V30 514 H 48.4573 -1.4559 2.9023 0
M  V30 515 H 49.4683 1.64901 4.90946 0
M  V30 516 H 46.1453 -0.800601 4.09752 0
M  V30 517 H 47.5353 2.67236 6.16469 0
M  V30 518 N 50.2554 -1.46986 0.568584 0
M  V30 519 C 51.2184 -2.28624 -0.162366 0
M  V30 520 C 52.2184 -1.37596 -0.832103 0
M  V30 521 O 53.4084 -1.60115 -0.68622 0
M  V30 522 C 50.5404 -3.17596 -1.23878 0
M  V30 523 H 51.7334 -2.94722 0.554899 0
M  V30 524 H 49.2864 -1.52863 0.325976 0
M  V30 525 H 50.0214 -2.56214 -1.98808 0
M  V30 526 H 49.8064 -3.846 -0.763219 0
M  V30 527 H 51.2964 -3.79078 -1.75185 0
M  V30 528 N 51.7335 -0.305618 -1.54608 0
M  V30 529 C 52.6435 0.57778 -2.27374 0
M  V30 530 C 53.6595 1.14451 -1.31061 0
M  V30 531 O 54.8355 1.16831 -1.6405 0
M  V30 532 C 51.9005 1.73123 -3.00382 0
M  V30 533 C 50.9615 1.19812 -4.12242 0
M  V30 534 C 50.1945 2.2966 -4.81759 0
M  V30 535 O 50.4175 3.49651 -4.50666 0
M  V30 536 O 49.3515 1.96091 -5.69062 0
M  V30 537 H 53.1775 -0.012624 -3.03697 0
M  V30 538 H 50.7625 -0.0719184 -1.49227 0
M  V30 539 H 52.6445 2.40315 -3.4616 0
M  V30 540 H 51.3195 2.30815 -2.26949 0
M  V30 541 H 50.2265 0.491798 -3.70853 0
M  V30 542 H 51.5595 0.666566 -4.87666 0
M  V30 543 N 53.2116 1.57565 -0.0334293 0
M  V30 544 C 54.6226 1.79746 0.504798 0
M  V30 545 C 54.9736 0.944091 1.71992 0
M  V30 546 O 54.0986 0.155694 2.15839 0
M  V30 547 C 54.6936 3.25997 0.922567 0
M  V30 548 C 53.2526 3.49159 1.40588 0
M  V30 549 C 52.3996 2.74785 0.372633 0
M  V30 550 H 55.3506 1.56565 -0.259436 0
M  V30 551 H 55.3716 3.35945 1.78666 0
M  V30 552 H 54.8836 3.88081 0.0379825 0
M  V30 553 H 52.9846 2.92332 2.31025 0
M  V30 554 H 53.0976 4.57873 1.41028 0
M  V30 555 H 51.4616 2.40391 0.841672 0
M  V30 556 H 52.2446 3.39587 -0.503559 0
M  V30 557 N 54.6897 -0.239769 1.55765 0
M  V30 558 C 55.9377 -0.964892 1.77579 0
M  V30 559 C 56.2587 -1.85582 0.598699 0
M  V30 560 O 55.5287 -1.92075 -0.385226 0
M  V30 561 H 54.1087 -0.359265 0.654933 0
M  V30 562 H 56.7707 -0.256001 1.93211 0
M  V30 563 H 55.8667 -1.58243 2.69009 0
M  V30 564 N 56.1678 -1.49265 -0.50573 0
M  V30 565 C 57.4148 -1.58513 -1.26015 0
M  V30 566 C 57.7428 -0.26972 -1.92621 0
M  V30 567 O 56.9978 0.741997 -1.81088 0
M  V30 568 C 57.2968 -2.69008 -2.35308 0
M  V30 569 C 56.9628 -4.10662 -1.86192 0
M  V30 570 C 55.6248 -4.49212 -1.72516 0
M  V30 571 C 57.9768 -4.99336 -1.49375 0
M  V30 572 C 55.3048 -5.74214 -1.20394 0
M  V30 573 C 57.6568 -6.24852 -0.987072 0
M  V30 574 C 56.3208 -6.62236 -0.836669 0
M  V30 575 H 55.5908 -0.580041 -0.461122 0
M  V30 576 H 58.2378 -1.83078 -0.561665 0
M  V30 577 H 56.5428 -2.38396 -3.10926 0
M  V30 578 H 58.2398 -2.73373 -2.93374 0
M  V30 579 H 54.8298 -3.8023 -1.97795 0
M  V30 580 H 59.0138 -4.70212 -1.5879 0
M  V30 581 H 54.2698 -6.01883 -1.07458 0
M  V30 582 H 58.4438 -6.92944 -0.692983 0
M  V30 583 H 56.0708 -7.58979 -0.430607 0
M  V30 584 N 57.6459 0.756429 -1.3826 0
M  V30 585 C 58.8709 1.55077 -1.37717 0
M  V30 586 C 59.2959 1.88073 0.03164 0
M  V30 587 O 58.6539 1.50364 1.01293 0
M  V30 588 C 58.7019 2.8283 -2.23695 0
M  V30 589 O 57.8059 3.77862 -1.6521 0
M  V30 590 H 57.1469 0.469152 -0.469885 0
M  V30 591 H 59.6769 0.935019 -1.81985 0
M  V30 592 H 59.6869 3.31783 -2.37453 0
M  V30 593 H 58.3619 2.58144 -3.2609 0
M  V30 594 H 56.9389 3.36555 -1.60578 0
M  V30 595 N 59.124 1.23083 0.984299 0
M  V30 596 C 60.054 1.03292 2.09411 0
M  V30 597 C 61.035 -0.048923 1.7003 0
M  V30 598 O 62.22 0.114967 1.93859 0
M  V30 599 C 59.35 0.619155 3.41736 0
M  V30 600 C 58.304 1.64791 3.95004 0
M  V30 601 C 57.63 1.0897 5.23478 0
M  V30 602 C 58.93 3.03999 4.24714 0
M  V30 603 H 60.624 1.96119 2.26225 0
M  V30 604 H 58.17 0.944344 1.08711 0
M  V30 605 H 60.123 0.467777 4.18796 0
M  V30 606 H 58.847 -0.344786 3.24775 0
M  V30 607 H 57.506 1.78721 3.20085 0
M  V30 608 H 57.154 0.11686 5.02864 0
M  V30 609 H 56.854 1.77704 5.60085 0
M  V30 610 H 58.378 0.950093 6.03163 0
M  V30 611 H 59.792 2.93393 4.92538 0
M  V30 612 H 58.189 3.69936 4.72512 0
M  V30 613 H 59.259 3.53285 3.32142 0
M  V30 614 N 60.6021 -1.18246 1.0419 0
M  V30 615 C 61.5491 -2.2192 0.634037 0
M  V30 616 C 62.5191 -1.62179 -0.358765 0
M  V30 617 O 63.7041 -1.89122 -0.252466 0
M  V30 618 C 60.8441 -3.451 0.00445535 0
M  V30 619 C 59.9571 -4.19174 1.04487 0
M  V30 620 C 59.0921 -5.29813 0.383676 0
M  V30 621 C 58.1311 -5.9566 1.4091 0
M  V30 622 N 57.2681 -6.97834 0.772784 0
M  V30 623 H 62.1081 -2.56164 1.52263 0
M  V30 624 H 59.6451 -1.25843 0.761701 0
M  V30 625 H 61.6031 -4.15485 -0.377919 0
M  V30 626 H 60.2331 -3.11472 -0.847652 0
M  V30 627 H 59.2851 -3.47604 1.54518 0
M  V30 628 H 60.5971 -4.64267 1.82368 0
M  V30 629 H 59.7511 -6.06677 -0.0528366 0
M  V30 630 H 58.4901 -4.85825 -0.427208 0
M  V30 631 H 57.4951 -5.17535 1.85574 0
M  V30 632 H 58.7201 -6.4173 2.22171 0
M  V30 633 H 56.6661 -6.55998 -0.0177708 0
M  V30 634 H 56.5831 -7.41186 1.48928 0
M  V30 635 H 57.8511 -7.78665 0.36071 0
M  V30 636 N 62.0802 -0.821533 -1.34494 0
M  V30 637 C 63.4962 -0.507117 -1.51329 0
M  V30 638 C 63.6962 0.968964 -1.76673 0
M  V30 639 O 62.7522 1.75348 -1.81685 0
M  V30 640 C 64.0652 -1.36544 -2.67911 0
M  V30 641 C 65.6132 -1.36242 -2.81793 0
M  V30 642 C 66.0882 -2.2052 -4.01416 0
M  V30 643 N 67.5792 -2.18136 -4.08621 0
M  V30 644 C 68.3142 -2.80095 -5.00334 0
M  V30 645 N 67.8102 -3.51039 -5.9728 0
M  V30 646 N 69.6032 -2.69656 -4.93196 0
M  V30 647 H 61.7542 -1.77729 -1.16302 0
M  V30 648 H 64.0172 -0.757291 -0.570276 0
M  V30 649 H 63.7232 -2.41361 -2.55808 0
M  V30 650 H 63.5972 -1.02917 -3.62888 0
M  V30 651 H 65.9842 -0.322041 -2.93338 0
M  V30 652 H 66.0652 -1.73866 -1.87628 0
M  V30 653 H 65.7092 -3.24607 -3.90631 0
M  V30 654 H 65.6392 -1.80247 -4.94791 0
M  V30 655 H 68.1302 -1.6653 -3.39229 0
M  V30 656 H 68.4432 -3.95565 -6.63889 0
M  V30 657 H 66.7882 -3.55145 -5.97409 0
M  V30 658 H 69.9792 -2.13808 -4.16418 0
M  V30 659 H 70.1522 -3.1823 -5.64476 0
M  V30 660 N 63.5583 1.46682 -0.576371 0
M  V30 661 C 64.9693 1.86112 -0.148091 0
M  V30 662 C 65.3203 1.48073 1.2872 0
M  V30 663 O 64.4453 0.892656 1.97131 0
M  V30 664 C 65.0403 3.37786 -0.261982 0
M  V30 665 C 63.5993 3.76235 0.111384 0
M  V30 666 C 62.7463 2.70713 -0.60083 0
M  V30 667 H 65.6973 1.37927 -0.78497 0
M  V30 668 H 65.7183 3.77007 0.514364 0
M  V30 669 H 65.2303 3.6544 -1.30671 0
M  V30 670 H 63.3313 3.54198 1.15649 0
M  V30 671 H 63.4443 4.78391 -0.26052 0
M  V30 672 H 61.8083 2.54666 -0.0417783 0
M  V30 673 H 62.5913 3.01208 -1.64708 0
M  V30 674 N 65.0364 0.313813 1.54444 0
M  V30 675 C 66.4524 -0.0391619 1.59552 0
M  V30 676 C 66.6524 -1.51322 1.33056 0
M  V30 677 O 65.7084 -2.26782 1.11022 0
M  V30 678 C 67.0214 0.370302 2.98411 0
M  V30 679 C 68.5694 0.320139 3.11358 0
M  V30 680 C 69.0444 0.704617 4.52547 0
M  V30 681 N 70.5354 0.657645 4.58508 0
M  V30 682 C 71.2704 0.927453 5.6585 0
M  V30 683 N 70.7664 1.26389 6.81174 0
M  V30 684 N 72.5594 0.853662 5.5558 0
M  V30 685 H 64.7104 1.27433 1.69925 0
M  V30 686 H 66.9734 0.517511 0.794284 0
M  V30 687 H 66.6794 1.39694 3.22767 0
M  V30 688 H 66.5534 -0.269619 3.76235 0
M  V30 689 H 68.9404 -0.697275 2.86744 0
M  V30 690 H 69.0214 0.99486 2.35661 0
M  V30 691 H 68.6654 1.7199 4.77893 0
M  V30 692 H 68.5954 0.00768843 5.26599 0
M  V30 693 H 71.0864 0.409067 3.75679 0
M  V30 694 H 71.3994 1.4554 7.58972 0
M  V30 695 H 69.7444 1.30206 6.82694 0
M  V30 696 H 72.9354 0.590383 4.64362 0
M  V30 697 H 73.1084 1.0673 6.3915 0
M  V30 698 N 66.5145 -1.57545 0.0417849 0
M  V30 699 C 67.7625 -1.91937 -0.632829 0
M  V30 700 C 68.0835 -0.919978 -1.71934 0
M  V30 701 O 67.3535 0.0366064 -1.95866 0
M  V30 702 H 65.9335 -0.708493 -0.236742 0
M  V30 703 H 68.5955 -1.9468 0.0925745 0
M  V30 704 H 67.6915 -2.92912 -1.07746 0
M  V30 705 N 67.9926 0.231505 -1.5589 0
M  V30 706 C 68.9226 1.29022 -1.94617 0
M  V30 707 C 69.9036 1.4941 -0.813067 0
M  V30 708 O 71.0886 1.6176 -1.07459 0
M  V30 709 C 68.2186 2.64199 -2.25424 0
M  V30 710 C 67.1726 2.58484 -3.41131 0
M  V30 711 C 66.4986 3.97599 -3.57518 0
M  V30 712 C 67.7986 2.1413 -4.76388 0
M  V30 713 H 69.4926 0.968563 -2.83301 0
M  V30 714 H 67.0386 0.464479 -1.36303 0
M  V30 715 H 68.9916 3.38413 -2.51107 0
M  V30 716 H 67.7156 2.98032 -1.33583 0
M  V30 717 H 66.3746 1.86727 -3.15481 0
M  V30 718 H 66.0226 4.28723 -2.6307 0
M  V30 719 H 65.7226 3.94659 -4.35337 0
M  V30 720 H 67.2466 4.7349 -3.85538 0
M  V30 721 H 68.6606 2.78083 -5.01341 0
M  V30 722 H 67.0576 2.2227 -5.57419 0
M  V30 723 H 68.1276 1.09331 -4.72414 0
M  V30 724 N 69.4707 1.49531 0.497807 0
M  V30 725 C 70.6957 1.63159 1.28039 0
M  V30 726 C 71.1207 0.30418 1.85624 0
M  V30 727 O 70.4787 -0.728618 1.66015 0
M  V30 728 C 70.5267 2.70537 2.38416 0
M  V30 729 O 69.6307 2.29931 3.42353 0
M  V30 730 H 68.9717 0.546001 0.377861 0
M  V30 731 H 71.5017 1.9574 0.59558 0
M  V30 732 H 71.5117 2.92802 2.84132 0
M  V30 733 H 70.1867 3.6689 1.95869 0
M  V30 734 H 68.7637 2.18009 3.02533 0
M  V30 735 N 70.9488 -0.749086 1.3866 0
M  V30 736 C 72.3648 -1.05276 1.19955 0
M  V30 737 C 72.5648 -2.01435 0.05134 0
M  V30 738 O 71.6208 -2.45232 -0.60147 0
M  V30 739 C 72.9338 -1.62853 2.52783 0
M  V30 740 C 74.4818 -1.75002 2.59506 0
M  V30 741 C 74.9568 -2.35991 3.92521 0
M  V30 742 N 76.4478 -2.43416 3.94085 0
M  V30 743 C 77.1828 -2.91511 4.9377 0
M  V30 744 N 76.6788 -3.39608 6.03853 0
M  V30 745 N 78.4718 -2.90592 4.81157 0
M  V30 746 H 70.6228 -0.111066 2.12109 0
M  V30 747 H 72.8858 -0.111901 0.941373 0
M  V30 748 H 72.5918 -0.99664 3.37283 0
M  V30 749 H 72.4658 -2.61854 2.715 0
M  V30 750 H 74.8528 -2.37317 1.75398 0
M  V30 751 H 74.9338 -0.74693 2.44652 0
M  V30 752 H 74.5778 -1.74308 4.77053 0
M  V30 753 H 74.5078 -3.3695 4.04688 0
M  V30 754 H 76.9988 -2.09405 3.14576 0
M  V30 755 H 77.3118 -3.74775 6.75843 0
M  V30 756 H 75.6568 -3.37653 6.07466 0
M  V30 757 H 78.8478 -2.52332 3.94267 0
M  V30 758 H 79.0208 -3.27762 5.58996 0
M  V30 759 N 72.4269 -1.23603 -0.977757 0
M  V30 760 C 73.6519 -1.09735 -1.75991 0
M  V30 761 C 74.0769 0.346858 -1.84874 0
M  V30 762 O 73.4349 1.25093 -1.3123 0
M  V30 763 C 73.4829 -1.73051 -3.16363 0
M  V30 764 O 72.5869 -0.994452 -4.0023 0
M  V30 765 H 71.9279 -0.384476 -0.541364 0
M  V30 766 H 74.4579 -1.6371 -1.2272 0
M  V30 767 H 74.4679 -1.78398 -3.66931 0
M  V30 768 H 73.1429 -2.78137 -3.09213 0
M  V30 769 H 71.7199 -1.01812 -3.58732 0
M  V30 770 N 73.905 1.17692 -1.04816 0
M  V30 771 C 74.835 2.23777 -0.666791 0
M  V30 772 C 75.816 1.66796 0.33361 0
M  V30 773 O 77.001 1.93039 0.212042 0
M  V30 774 C 74.131 3.47281 -0.0367933 0
M  V30 775 C 73.085 4.17059 -0.961546 0
M  V30 776 C 72.411 5.34342 -0.195626 0
M  V30 777 C 73.711 4.69713 -2.28402 0
M  V30 778 H 75.405 2.55933 -1.55367 0
M  V30 779 H 72.951 1.23019 -0.748484 0
M  V30 780 H 74.904 4.20706 0.241775 0
M  V30 781 H 73.628 3.14381 0.885004 0
M  V30 782 H 72.287 3.45541 -1.22462 0
M  V30 783 H 71.935 4.97692 0.728816 0
M  V30 784 H 71.635 5.81966 -0.811775 0
M  V30 785 H 73.159 6.10553 0.0757473 0
M  V30 786 H 74.573 5.34794 -2.06563 0
M  V30 787 H 72.97 5.279 -2.8538 0
M  V30 788 H 74.04 3.86726 -2.92525 0
M  V30 789 N 75.3831 0.828654 1.34056 0
M  V30 790 C 76.7941 0.477534 1.8049 0
M  V30 791 C 77.1451 -1.00258 1.6865 0
M  V30 792 O 76.2701 -1.78057 1.22982 0
M  V30 793 C 76.8651 0.860018 3.27703 0
M  V30 794 C 75.4241 0.561185 3.72193 0
M  V30 795 C 74.5711 1.07385 2.55663 0
M  V30 796 H 77.5221 1.0183 1.21722 0
M  V30 797 H 77.5431 0.166038 3.80138 0
M  V30 798 H 77.0551 1.93731 3.36288 0
M  V30 799 H 75.1561 -0.506465 3.69142 0
M  V30 800 H 75.2691 1.10926 4.66082 0
M  V30 801 H 73.6331 0.495149 2.49841 0
M  V30 802 H 74.4161 2.15771 2.67016 0
M  V30 803 N 76.8612 -1.46375 0.584142 0
M  V30 804 C 78.2722 -1.86031 0.157959 0
M  V30 805 C 78.6232 -1.48753 -1.27933 0
M  V30 806 O 77.7482 -0.903098 -1.96655 0
M  V30 807 C 78.3432 -3.37642 0.279892 0
M  V30 808 C 76.9022 -3.76289 -0.09143 0
M  V30 809 C 76.0492 -2.7039 0.615178 0
M  V30 810 H 79.0002 -1.37509 0.792274 0
M  V30 811 H 79.0212 -3.77275 -0.494364 0
M  V30 812 H 78.5332 -3.64742 1.32607 0
M  V30 813 H 76.6342 -3.54806 -1.13769 0
M  V30 814 H 76.7472 -4.78246 0.285886 0
M  V30 815 H 75.1112 -2.5464 0.0552833 0
M  V30 816 H 75.8942 -3.0033 1.66303 0
M  V30 817 N 78.3393 -0.321999 -1.54275 0
M  V30 818 C 79.7503 0.166384 -1.85957 0
M  V30 819 C 80.1013 1.51747 -1.24367 0
M  V30 820 O 79.2263 2.09317 -0.549124 0
M  V30 821 C 79.8213 0.308681 -3.37391 0
M  V30 822 C 78.3803 0.741286 -3.69028 0
M  V30 823 C 77.5273 -0.137937 -2.76957 0
M  V30 824 H 80.4783 -0.542335 -1.49146 0
M  V30 825 H 80.4993 1.13984 -3.63026 0
M  V30 826 H 80.0113 -0.674809 -3.82188 0
M  V30 827 H 78.1123 1.73458 -3.29762 0
M  V30 828 H 78.2253 0.546118 -4.75977 0
M  V30 829 H 76.5893 0.386251 -2.51754 0
M  V30 830 H 77.3723 -1.11816 -3.2458 0
M  V30 831 N 79.8174 1.5752 -0.0501392 0
M  V30 832 C 81.2284 1.80271 0.485705 0
M  V30 833 C 81.5794 0.96228 1.70981 0
M  V30 834 O 80.7044 0.178578 2.15662 0
M  V30 835 C 81.2994 3.26957 0.887938 0
M  V30 836 C 79.8584 3.5063 1.36877 0
M  V30 837 C 79.0054 2.75165 0.343468 0
M  V30 838 H 81.9564 1.56281 -0.276028 0
M  V30 839 H 81.9774 3.37821 1.75093 0
M  V30 840 H 81.4894 3.881 -0.0031809 0
M  V30 841 H 79.5904 2.94766 2.27911 0
M  V30 842 H 79.7034 4.59343 1.36164 0
M  V30 843 H 78.0674 2.4127 0.816128 0
M  V30 844 H 78.8504 3.39034 -0.539548 0
M  V30 845 N 81.2955 -0.223234 1.56011 0
M  V30 846 C 82.7065 -0.790368 1.69145 0
M  V30 847 C 83.0575 -1.85055 0.651845 0
M  V30 848 O 82.1825 -2.15498 -0.197359 0
M  V30 849 C 82.7775 -1.4404 3.06656 0
M  V30 850 C 81.3365 -1.95494 3.2165 0
M  V30 851 C 80.4835 -0.814506 2.65068 0
M  V30 852 H 83.4345 0.00139011 1.587 0
M  V30 853 H 83.4555 -2.30916 3.0242 0
M  V30 854 H 82.9675 -0.668543 3.82298 0
M  V30 855 H 81.0685 -2.75487 2.50874 0
M  V30 856 H 81.1815 -2.13607 4.28846 0
M  V30 857 H 79.5455 -1.22137 2.23505 0
M  V30 858 H 80.3285 -0.0553515 3.43255 0
M  V30 859 N 82.7736 -1.49793 -0.48987 0
M  V30 860 C 83.7366 -1.66752 -1.57246 0
M  V30 861 C 84.7366 -0.538867 -1.51502 0
M  V30 862 O 85.9266 -0.805545 -1.54456 0
M  V30 863 C 83.0586 -1.67528 -2.96896 0
M  V30 864 H 84.2516 -2.63321 -1.43534 0
M  V30 865 H 81.8046 -1.38992 -0.714914 0
M  V30 866 H 82.5396 -0.725837 -3.16073 0
M  V30 867 H 82.3246 -2.49504 -3.02473 0
M  V30 868 H 83.8146 -1.82667 -3.7553 0
M  V30 869 N 84.2517 0.741722 -1.39055 0
M  V30 870 C 85.1987 1.85566 -1.37237 0
M  V30 871 C 86.1687 1.64457 -0.233072 0
M  V30 872 O 87.3537 1.85957 -0.427147 0
M  V30 873 C 84.4937 3.23004 -1.215 0
M  V30 874 C 83.6067 3.55864 -2.44918 0
M  V30 875 C 82.7417 4.82669 -2.21821 0
M  V30 876 C 81.7807 5.08351 -3.40948 0
M  V30 877 N 80.9177 6.26356 -3.17211 0
M  V30 878 H 85.7577 1.86455 -2.32462 0
M  V30 879 H 83.2947 0.911176 -1.15482 0
M  V30 880 H 85.2527 4.02331 -1.10389 0
M  V30 881 H 83.8827 3.21411 -0.29908 0
M  V30 882 H 82.9347 2.7129 -2.66657 0
M  V30 883 H 84.2467 3.70765 -3.33668 0
M  V30 884 H 83.4007 5.69962 -2.07914 0
M  V30 885 H 82.1397 4.69929 -1.30454 0
M  V30 886 H 81.1447 4.19522 -3.55361 0
M  V30 887 H 82.3697 5.22981 -4.33207 0
M  V30 888 H 80.3157 6.14917 -2.28502 0
M  V30 889 H 80.2327 6.41813 -3.99515 0
M  V30 890 H 81.5007 7.16506 -3.06984 0
M  V30 891 N 85.7298 1.2412 0.971189 0
M  V30 892 C 86.9778 1.07668 1.71032 0
M  V30 893 C 87.2988 -0.385797 1.91146 0
M  V30 894 O 86.5688 -1.27569 1.4867 0
M  V30 895 H 85.1488 0.395429 0.633755 0
M  V30 896 H 87.8108 1.55984 1.16855 0
M  V30 897 H 86.9068 1.57195 2.69622 0
M  V30 898 N 87.2079 -1.17134 1.05439 0
M  V30 899 C 88.4329 -1.91913 0.786396 0
M  V30 900 C 88.8579 -1.7643 -0.652234 0
M  V30 901 O 88.2159 -1.08372 -1.45345 0
M  V30 902 C 88.2639 -3.40921 1.17497 0
M  V30 903 O 87.3679 -4.11244 0.308589 0
M  V30 904 H 86.7089 -0.598215 0.288158 0
M  V30 905 H 89.2389 -1.48457 1.4079 0
M  V30 906 H 89.2489 -3.91668 1.14281 0
M  V30 907 H 87.9239 -3.5151 2.22292 0
M  V30 908 H 86.5009 -3.70731 0.40157 0
M  V30 909 N 88.686 -0.835752 -1.33615 0
M  V30 910 C 89.935 -0.426289 -1.97144 0
M  V30 911 C 90.248 1.01912 -1.66953 0
M  V30 912 O 91.454 1.53311 -2.24072 0
M  V30 913 C 89.91 -0.711321 -3.52801 0
M  V30 914 C 89.518 -2.1712 -3.91871 0
M  V30 915 C 91.262 -0.368654 -4.22896 0
M  V30 916 C 89.169 -2.40044 -5.40493 0
M  V30 917 H 88.099 -0.15567 -0.737755 0
M  V30 918 H 90.75 -1.0239 -1.52278 0
M  V30 919 H 89.132 -0.0433766 -3.95976 0
M  V30 920 H 90.306 -2.87936 -3.59763 0
M  V30 921 H 88.621 -2.47654 -3.34749 0
M  V30 922 H 91.218 -0.517601 -5.32189 0
M  V30 923 H 91.561 0.688078 -4.10574 0
M  V30 924 H 92.094 -0.991702 -3.8524 0
M  V30 925 H 88.833 -3.44271 -5.57815 0
M  V30 926 H 88.353 -1.73785 -5.74072 0
M  V30 927 H 90.032 -2.23042 -6.0734 0
M  V30 928 N 90.1641 1.46063 -0.591896 0
M  V30 929 C 91.5751 1.85944 -0.167822 0
M  V30 930 C 91.9261 1.49429 1.27143 0
M  V30 931 O 91.0511 0.913515 1.96173 0
M  V30 932 C 91.6461 3.37489 -0.297794 0
M  V30 933 C 90.2051 3.76332 0.0714732 0
M  V30 934 C 89.3521 2.7006 -0.629509 0
M  V30 935 H 92.3031 1.37087 -0.799555 0
M  V30 936 H 92.3241 3.77532 0.474349 0
M  V30 937 H 91.8361 3.64034 -1.3454 0
M  V30 938 H 89.9371 3.55405 1.11886 0
M  V30 939 H 90.0501 4.78088 -0.311245 0
M  V30 940 H 88.4141 2.54607 -0.0687867 0
M  V30 941 H 89.1971 2.99444 -1.67894 0
M  V30 942 N 91.6422 0.330177 1.54103 0
M  V30 943 C 92.8912 -0.271336 1.99867 0
M  V30 944 C 93.2042 -1.52723 1.22209 0
M  V30 945 O 94.4102 -2.20515 1.58383 0
M  V30 946 C 92.8662 -0.534032 3.55916 0
M  V30 947 C 92.4742 0.705193 4.42415 0
M  V30 948 C 94.2182 -1.09514 4.1013 0
M  V30 949 C 92.1252 0.414035 5.89949 0
M  V30 950 H 91.0552 -0.105166 0.74663 0
M  V30 951 H 93.7062 0.443429 1.78062 0
M  V30 952 H 92.0882 -1.30915 3.73734 0
M  V30 953 H 93.2622 1.4804 4.36372 0
M  V30 954 H 91.5772 1.18698 3.99124 0
M  V30 955 H 94.1742 -1.3277 5.17954 0
M  V30 956 H 94.5172 -2.04656 3.62521 0
M  V30 957 H 95.0502 -0.381038 3.95971 0
M  V30 958 H 91.7892 1.33481 6.41766 0
M  V30 959 H 91.3092 -0.323336 5.98928 0
M  V30 960 H 92.9882 0.0263105 6.46995 0
M  V30 961 N 93.1203 -1.57491 0.0584922 0
M  V30 962 C 94.3453 -1.97711 -0.62652 0
M  V30 963 C 94.7703 -0.936132 -1.63151 0
M  V30 964 O 94.1283 0.099811 -1.81025 0
M  V30 965 C 94.1763 -3.36989 -1.28338 0
M  V30 966 O 93.2803 -3.35433 -2.39913 0
M  V30 967 H 92.6213 -0.643868 -0.162266 0
M  V30 968 H 95.1513 -2.04193 0.129064 0
M  V30 969 H 95.1613 -3.73879 -1.63335 0
M  V30 970 H 93.8363 -4.12289 -0.546889 0
M  V30 971 H 92.4133 -3.10298 -2.06809 0
M  V30 972 N 94.5984 0.214957 -1.56127 0
M  V30 973 C 96.0144 0.564948 -1.49267 0
M  V30 974 C 96.2144 1.86827 -0.754838 0
M  V30 975 O 95.2704 2.50745 -0.297198 0
M  V30 976 C 96.5834 0.638071 -2.93852 0
M  V30 977 C 98.1314 0.728253 -3.0441 0
M  V30 978 C 98.6064 0.832663 -4.50367 0
M  V30 979 N 100.097 0.896712 -4.54437 0
M  V30 980 C 100.832 0.997324 -5.6466 0
M  V30 981 N 100.328 1.06147 -6.8462 0
M  V30 982 N 102.121 1.03297 -5.52527 0
M  V30 983 H 94.2724 -0.640211 -2.02522 0
M  V30 984 H 96.5354 -0.225507 -0.920788 0
M  V30 985 H 96.2414 -0.250126 -3.50809 0
M  V30 986 H 96.1154 1.49947 -3.46115 0
M  V30 987 H 98.5024 1.60689 -2.47514 0
M  V30 988 H 98.5834 -0.158952 -2.55306 0
M  V30 989 H 98.2274 -0.0415417 -5.07883 0
M  V30 990 H 98.1574 1.73538 -4.97184 0
M  V30 991 H 100.648 0.857188 -3.6805 0
M  V30 992 H 100.961 1.1382 -7.64372 0
M  V30 993 H 99.3064 1.03049 -6.87318 0
M  V30 994 H 102.497 0.979558 -4.57736 0
M  V30 995 H 102.67 1.10793 -6.38458 0
M  V30 996 N 96.0765 1.50051 0.48192 0
M  V30 997 C 97.0065 1.71046 1.58951 0
M  V30 998 C 97.9875 0.559288 1.60642 0
M  V30 999 O 99.1725 0.797243 1.77081 0
M  V30 1000 C 96.3025 1.79462 2.97339 0
M  V30 1001 C 95.2565 2.94558 3.10515 0
M  V30 1002 C 94.5825 2.88105 4.50444 0
M  V30 1003 C 95.8825 4.35227 2.88747 0
M  V30 1004 H 97.5765 2.6378 1.41635 0
M  V30 1005 H 95.1225 1.26936 0.679942 0
M  V30 1006 H 97.0755 1.92734 3.74742 0
M  V30 1007 H 95.7995 0.833412 3.15788 0
M  V30 1008 H 94.4585 2.80918 2.35543 0
M  V30 1009 H 94.1065 1.89853 4.65795 0
M  V30 1010 H 93.8065 3.65366 4.60197 0
M  V30 1011 H 95.3305 3.03412 5.29881 0
M  V30 1012 H 96.7445 4.49449 3.55905 0
M  V30 1013 H 95.1415 5.13856 3.09955 0
M  V30 1014 H 96.2115 4.48347 1.84696 0
M  V30 1015 N 97.5546 -0.734337 1.39446 0
M  V30 1016 C 98.8016 -1.49391 1.36706 0
M  V30 1017 C 99.1296 -1.94465 -0.0367813 0
M  V30 1018 O 98.3846 -1.67154 -1.01774 0
M  V30 1019 C 98.6836 -2.74711 2.28623 0
M  V30 1020 C 98.3496 -2.48501 3.76242 0
M  V30 1021 C 97.0116 -2.41062 4.16464 0
M  V30 1022 C 99.3636 -2.26098 4.69606 0
M  V30 1023 C 96.6916 -2.09262 5.48112 0
M  V30 1024 C 99.0436 -1.95814 6.01531 0
M  V30 1025 C 97.7076 -1.86845 6.40816 0
M  V30 1026 H 96.9776 -0.546661 0.500243 0
M  V30 1027 H 99.6246 -0.842788 1.71957 0
M  V30 1028 H 97.9296 -3.44569 1.86492 0
M  V30 1029 H 99.6266 -3.32741 2.23796 0
M  V30 1030 H 96.2166 -2.55169 3.44364 0
M  V30 1031 H 100.401 -2.30812 4.39363 0
M  V30 1032 H 95.6566 -2.00841 5.77471 0
M  V30 1033 H 99.8306 -1.77488 6.73403 0
M  V30 1034 H 97.4576 -1.6197 7.42745 0
M  V30 1035 N 99.0327 -1.24633 -0.964593 0
M  V30 1036 C 100.444 -1.08045 -1.5226 0
M  V30 1037 C 100.795 0.347116 -1.93105 0
M  V30 1038 O 99.9197 1.23588 -1.77637 0
M  V30 1039 C 100.515 -1.95514 -2.76695 0
M  V30 1040 C 99.0737 -1.8314 -3.28841 0
M  V30 1041 C 98.2207 -1.90262 -2.01732 0
M  V30 1042 H 101.172 -1.38064 -0.782553 0
M  V30 1043 H 101.193 -1.48925 -3.50145 0
M  V30 1044 H 100.705 -2.99407 -2.46936 0
M  V30 1045 H 98.8057 -0.82092 -3.63444 0
M  V30 1046 H 98.9187 -2.67406 -3.97531 0
M  V30 1047 H 97.2827 -1.34027 -2.16584 0
M  V30 1048 H 98.0657 -2.9574 -1.74334 0
M  V30 1049 N 100.511 1.16574 -1.06058 0
M  V30 1050 C 101.922 1.68662 -0.800632 0
M  V30 1051 C 102.273 1.84184 0.67608 0
M  V30 1052 O 101.398 1.53568 1.52466 0
M  V30 1053 C 101.993 3.06356 -1.44676 0
M  V30 1054 C 100.552 3.55575 -1.23465 0
M  V30 1055 C 99.6988 2.31616 -1.52477 0
M  V30 1056 H 102.65 1.00969 -1.22438 0
M  V30 1057 H 102.671 3.70636 -0.860788 0
M  V30 1058 H 102.183 2.95027 -2.52152 0
M  V30 1059 H 100.284 3.72167 -0.179527 0
M  V30 1060 H 100.397 4.37812 -1.94571 0
M  V30 1061 H 98.7608 2.36512 -0.945209 0
M  V30 1062 H 99.5438 2.22887 -2.61106 0
M  V30 1063 N 101.989 0.842826 1.3317 0
M  V30 1064 C 103.405 0.531128 1.50503 0
M  V30 1065 C 103.605 -0.940734 1.78192 0
M  V30 1066 O 102.661 -1.72436 1.84451 0
M  V30 1067 C 103.974 1.40789 2.65705 0
M  V30 1068 C 105.522 1.40708 2.79589 0
M  V30 1069 C 105.997 2.26878 3.97857 0
M  V30 1070 N 107.488 2.24609 4.05099 0
M  V30 1071 C 108.223 2.88019 4.95815 0
M  V30 1072 N 107.719 3.60496 5.9162 0
M  V30 1073 N 109.512 2.77469 4.88843 0
M  V30 1074 H 101.663 1.79557 1.1346 0
M  V30 1075 H 103.926 0.766267 0.558156 0
M  V30 1076 H 103.632 2.454 2.51936 0
M  V30 1077 H 103.506 1.08677 3.61205 0
M  V30 1078 H 105.893 0.368668 2.92788 0
M  V30 1079 H 105.974 1.76829 1.84838 0
M  V30 1080 H 105.618 3.3078 3.85418 0
M  V30 1081 H 105.548 1.88096 4.91861 0
M  V30 1082 H 108.039 1.71906 3.36536 0
M  V30 1083 H 108.352 4.06076 6.57512 0
M  V30 1084 H 106.697 3.64604 5.91683 0
M  V30 1085 H 109.888 2.20406 4.12963 0
M  V30 1086 H 110.061 3.2717 5.59342 0
M  V30 1087 N 103.467 -1.45747 0.599634 0
M  V30 1088 C 104.695 -2.06668 0.0978551 0
M  V30 1089 C 105.11 -1.44562 -1.21439 0
M  V30 1090 O 104.467 -0.556923 -1.73795 0
M  V30 1091 C 104.518 -3.61456 -0.0567044 0
M  V30 1092 O 104.239 -4.21242 1.20361 0
M  V30 1093 C 105.74 -4.39345 -0.590869 0
M  V30 1094 H 102.96 -0.667825 0.0651943 0
M  V30 1095 H 105.504 -1.87115 0.82511 0
M  V30 1096 H 103.659 -3.80378 -0.734251 0
M  V30 1097 H 104.073 -5.14323 1.02821 0
M  V30 1098 H 105.547 -5.48182 -0.648131 0
M  V30 1099 H 106.024 -4.08568 -1.61147 0
M  V30 1100 H 106.63 -4.25268 0.0523679 0
M  V30 1101 N 104.945 -0.338344 -1.53925 0
M  V30 1102 C 106.356 0.146651 -1.86123 0
M  V30 1103 C 106.707 1.5042 -1.2597 0
M  V30 1104 O 105.832 2.08723 -0.571294 0
M  V30 1105 C 106.427 0.272879 -3.37699 0
M  V30 1106 C 104.986 0.702103 -3.69794 0
M  V30 1107 C 104.133 -0.167304 -2.76795 0
M  V30 1108 H 107.084 -0.558123 -1.48562 0
M  V30 1109 H 107.105 1.10128 -3.64214 0
M  V30 1110 H 106.617 -0.715307 -3.81451 0
M  V30 1111 H 104.718 1.6995 -3.31584 0
M  V30 1112 H 104.831 0.495604 -4.7653 0
M  V30 1113 H 103.195 0.359527 -2.5215 0
M  V30 1114 H 103.978 -1.15253 -3.23375 0
M  V30 1115 N 106.423 1.57458 -0.0668435 0
M  V30 1116 C 107.671 1.92919 0.602214 0
M  V30 1117 C 107.992 0.947215 1.70449 0
M  V30 1118 O 107.262 -0.00544117 1.95899 0
M  V30 1119 H 105.842 0.71217 0.22544 0
M  V30 1120 H 108.504 1.94508 -0.123535 0
M  V30 1121 H 107.6 2.94589 1.03073 0
M  V30 1122 N 107.901 -0.206675 1.56239 0
M  V30 1123 C 109.147 -0.925733 1.81113 0
M  V30 1124 C 109.502 -1.81368 0.642135 0
M  V30 1125 O 108.795 -1.88126 -0.363211 0
M  V30 1126 C 108.989 -1.78675 3.09532 0
M  V30 1127 C 108.818 -0.98365 4.3881 0
M  V30 1128 C 107.588 -0.672661 5.00803 0
M  V30 1129 C 109.786 -0.341847 5.13163 0
M  V30 1130 N 107.768 0.150283 6.13716 0
M  V30 1131 C 109.139 0.343815 6.19046 0
M  V30 1132 C 111.194 -0.256392 4.97239 0
M  V30 1133 C 109.897 1.10678 7.10734 0
M  V30 1134 C 111.923 0.493142 5.8934 0
M  V30 1135 C 111.285 1.16729 6.94661 0
M  V30 1136 H 107.384 -0.318524 0.714189 0
M  V30 1137 H 109.968 -0.195378 1.93717 0
M  V30 1138 H 108.139 -2.4888 2.98183 0
M  V30 1139 H 109.871 -2.44441 3.22538 0
M  V30 1140 H 106.626 -0.994294 4.63045 0
M  V30 1141 H 107.05 0.551026 6.74754 0
M  V30 1142 H 111.692 -0.763249 4.15854 0
M  V30 1143 H 109.41 1.6251 7.91591 0
M  V30 1144 H 112.996 0.560465 5.79094 0
M  V30 1145 H 111.876 1.738 7.64698 0
M  V30 1146 N 109.379 -1.50304 -0.473955 0
M  V30 1147 C 110.329 -1.65347 -1.56985 0
M  V30 1148 C 111.313 -0.508176 -1.52664 0
M  V30 1149 O 112.505 -0.762446 -1.59737 0
M  V30 1150 C 109.634 -1.74832 -2.95447 0
M  V30 1151 C 108.72 -2.95028 -3.04662 0
M  V30 1152 N 109.111 -4.18747 -2.83698 0
M  V30 1153 C 107.409 -2.93527 -3.35795 0
M  V30 1154 C 108.11 -4.99687 -2.97805 0
M  V30 1155 N 107.086 -4.33585 -3.2788 0
M  V30 1156 H 110.888 -2.58698 -1.39472 0
M  V30 1157 H 108.402 -1.47449 -0.680629 0
M  V30 1158 H 110.399 -1.83712 -3.7424 0
M  V30 1159 H 109.059 -0.826376 -3.14008 0
M  V30 1160 H 110.07 -4.48291 -2.59337 0
M  V30 1161 H 106.747 -2.10821 -3.60362 0
M  V30 1162 H 108.137 -6.08057 -2.85861 0
M  V30 1163 N 110.857 0.726932 -1.39834 0
M  V30 1164 C 111.789 1.85147 -1.35104 0
M  V30 1165 C 112.802 1.60736 -0.258392 0
M  V30 1166 O 113.991 1.70821 -0.517931 0
M  V30 1167 C 111.091 3.21332 -1.07697 0
M  V30 1168 C 110.264 3.73033 -2.28396 0
M  V30 1169 C 109.323 4.87802 -1.97322 0
M  V30 1170 O 108.349 5.01043 -2.70083 0
M  V30 1171 N 109.551 5.72768 -0.944273 0
M  V30 1172 H 112.316 1.89706 -2.32017 0
M  V30 1173 H 109.877 0.908006 -1.3404 0
M  V30 1174 H 111.869 3.95691 -0.849144 0
M  V30 1175 H 110.439 3.11992 -0.194909 0
M  V30 1176 H 109.659 2.89934 -2.6708 0
M  V30 1177 H 110.947 4.0431 -3.08887 0
M  V30 1178 H 110.345 5.64669 -0.341427 0
M  V30 1179 H 108.902 6.4716 -0.776346 0
M  V30 1180 N 112.336 1.25143 0.95797 0
M  V30 1181 C 113.266 1.07711 2.07173 0
M  V30 1182 C 114.247 -0.0128462 1.70095 0
M  V30 1183 O 115.432 0.156061 1.93572 0
M  V30 1184 C 112.562 0.691503 3.40346 0
M  V30 1185 C 111.516 1.73132 3.9142 0
M  V30 1186 C 110.842 1.20049 5.21049 0
M  V30 1187 C 112.142 3.1294 4.1817 0
M  V30 1188 H 113.836 2.00873 2.22014 0
M  V30 1189 H 111.382 0.967191 1.06684 0
M  V30 1190 H 113.335 0.556505 4.17709 0
M  V30 1191 H 112.059 -0.275819 3.25433 0
M  V30 1192 H 110.718 1.8547 3.16222 0
M  V30 1193 H 110.366 0.223499 5.02503 0
M  V30 1194 H 110.066 1.89545 5.56189 0
M  V30 1195 H 111.59 1.07782 6.01012 0
M  V30 1196 H 113.004 3.03775 4.86203 0
M  V30 1197 H 111.401 3.79875 4.64559 0
M  V30 1198 H 112.471 3.6025 3.24573 0
M  V30 1199 N 113.814 -1.1601 1.06675 0
M  V30 1200 C 114.746 -2.20115 0.638921 0
M  V30 1201 C 115.759 -1.59916 -0.305057 0
M  V30 1202 O 116.948 -1.78245 -0.0954446 0
M  V30 1203 C 114.048 -3.38798 -0.0830083 0
M  V30 1204 C 113.221 -4.2855 0.875426 0
M  V30 1205 C 112.28 -5.25849 0.192042 0
M  V30 1206 O 111.306 -5.63102 0.830921 0
M  V30 1207 N 112.508 -5.70648 -1.06493 0
M  V30 1208 H 115.273 -2.57439 1.53444 0
M  V30 1209 H 112.834 -1.31057 0.950557 0
M  V30 1210 H 114.826 -4.00936 -0.550685 0
M  V30 1211 H 113.396 -2.99947 -0.880386 0
M  V30 1212 H 112.616 -3.63617 1.52238 0
M  V30 1213 H 113.904 -4.85393 1.52548 0
M  V30 1214 H 113.302 -5.42482 -1.60405 0
M  V30 1215 H 111.859 -6.34859 -1.47641 0
M  V30 1216 N 115.292 -0.849877 -1.32721 0
M  V30 1217 C 116.703 -0.506188 -1.79707 0
M  V30 1218 C 117.054 0.975627 -1.70223 0
M  V30 1219 O 116.179 1.76078 -1.25799 0
M  V30 1220 C 116.774 -0.912044 -3.26293 0
M  V30 1221 C 115.333 -0.620326 -3.71253 0
M  V30 1222 C 114.48 -1.11439 -2.53922 0
M  V30 1223 H 117.431 -1.03754 -1.20087 0
M  V30 1224 H 117.452 -0.226493 -3.79825 0
M  V30 1225 H 116.964 -1.99057 -3.33164 0
M  V30 1226 H 115.065 0.447674 -3.69901 0
M  V30 1227 H 115.178 -1.18327 -4.64258 0
M  V30 1228 H 113.542 -0.534834 -2.49021 0
M  V30 1229 H 114.325 -2.19992 -2.6355 0
M  V30 1230 N 116.77 1.45427 -0.607355 0
M  V30 1231 C 118.186 1.57283 -0.270985 0
M  V30 1232 C 118.386 1.59875 1.22647 0
M  V30 1233 O 117.442 1.52893 2.00948 0
M  V30 1234 C 118.755 2.85566 -0.941952 0
M  V30 1235 C 120.303 2.9924 -0.917849 0
M  V30 1236 C 120.778 4.30293 -1.56882 0
M  V30 1237 N 122.269 4.37051 -1.5343 0
M  V30 1238 C 123.004 5.37123 -2.00715 0
M  V30 1239 N 122.5 6.43734 -2.56084 0
M  V30 1240 N 124.293 5.28479 -1.91484 0
M  V30 1241 H 116.444 1.41988 -1.57966 0
M  V30 1242 H 118.707 0.67885 -0.661715 0
M  V30 1243 H 118.413 2.8955 -1.99633 0
M  V30 1244 H 118.287 3.74322 -0.465096 0
M  V30 1245 H 120.674 2.94822 0.127984 0
M  V30 1246 H 120.755 2.11895 -1.43297 0
M  V30 1247 H 120.399 4.35469 -2.61398 0
M  V30 1248 H 120.329 5.16454 -1.02873 0
M  V30 1249 H 122.82 3.60615 -1.12982 0
M  V30 1250 H 123.133 7.16341 -2.89958 0
M  V30 1251 H 121.478 6.44485 -2.60122 0
M  V30 1252 H 124.669 4.44098 -1.47967 0
M  V30 1253 H 124.842 6.0632 -2.28648 0
M  V30 1254 N 118.248 0.346503 1.53744 0
M  V30 1255 C 119.664 -0.00530975 1.59599 0
M  V30 1256 C 119.864 -1.48465 1.36236 0
M  V30 1257 O 118.92 -2.24376 1.15808 0
M  V30 1258 C 120.233 0.433516 2.97559 0
M  V30 1259 C 121.781 0.386111 3.10609 0
M  V30 1260 C 122.256 0.800451 4.50951 0
M  V30 1261 N 123.747 0.754753 4.5701 0
M  V30 1262 C 124.482 1.04727 5.63755 0
M  V30 1263 N 123.978 1.4081 6.7834 0
M  V30 1264 N 125.771 0.971316 5.53644 0
M  V30 1265 H 117.922 1.31009 1.67184 0
M  V30 1266 H 120.185 0.534242 0.783128 0
M  V30 1267 H 119.891 1.46509 3.19731 0
M  V30 1268 H 119.765 -0.189753 3.76722 0
M  V30 1269 H 122.152 -0.636295 2.88158 0
M  V30 1270 H 122.233 1.04462 2.33498 0
M  V30 1271 H 121.877 1.82088 4.74137 0
M  V30 1272 H 121.807 0.119386 5.26465 0
M  V30 1273 H 124.298 0.488662 3.74727 0
M  V30 1274 H 124.611 1.61607 7.55714 0
M  V30 1275 H 122.956 1.44657 6.79779 0
M  V30 1276 H 126.147 0.688748 4.63005 0
M  V30 1277 H 126.32 1.20263 6.36742 0
M  V30 1278 N 119.726 -1.57421 0.075193 0
M  V30 1279 C 120.972 -1.93905 -0.594025 0
M  V30 1280 C 121.305 -0.955701 -1.69056 0
M  V30 1281 O 120.58 0.0145373 -1.94495 0
M  V30 1282 C 120.863 -3.40638 -1.1678 0
M  V30 1283 C 120.716 -4.49733 -0.0776792 0
M  V30 1284 C 122.035 -3.88259 -2.07228 0
M  V30 1285 H 119.154 -0.705105 -0.214466 0
M  V30 1286 H 121.796 -1.8947 0.141854 0
M  V30 1287 H 119.946 -3.44549 -1.79494 0
M  V30 1288 H 121.618 -4.57942 0.555573 0
M  V30 1289 H 119.861 -4.29751 0.591286 0
M  V30 1290 H 120.532 -5.49549 -0.519603 0
M  V30 1291 H 123.008 -3.86376 -1.54445 0
M  V30 1292 H 121.884 -4.91533 -2.44308 0
M  V30 1293 H 122.145 -3.26396 -2.98191 0
M  V30 1294 N 121.204 0.198386 -1.56346 0
M  V30 1295 C 122.429 0.939682 -1.84891 0
M  V30 1296 C 122.854 1.76202 -0.658369 0
M  V30 1297 O 122.212 1.76993 0.392851 0
M  V30 1298 C 122.26 1.81428 -3.11635 0
M  V30 1299 O 121.364 2.91265 -2.91956 0
M  V30 1300 H 120.705 0.264807 -0.608912 0
M  V30 1301 H 123.235 0.204695 -2.03573 0
M  V30 1302 H 123.245 2.21958 -3.42343 0
M  V30 1303 H 121.92 1.21004 -3.97908 0
M  V30 1304 H 120.497 2.54514 -2.72538 0
M  V30 1305 N 122.682 1.50554 0.465978 0
M  V30 1306 C 123.929 1.61798 1.21768 0
M  V30 1307 C 124.257 0.320696 1.91838 0
M  V30 1308 O 123.512 -0.693724 1.82992 0
M  V30 1309 C 123.811 2.75152 2.28093 0
M  V30 1310 C 123.477 4.15454 1.75239 0
M  V30 1311 C 122.139 4.53628 1.60546 0
M  V30 1312 C 124.491 5.03121 1.36083 0
M  V30 1313 C 121.819 5.77204 1.05128 0
M  V30 1314 C 124.171 6.27249 0.821056 0
M  V30 1315 C 122.835 6.64221 0.660795 0
M  V30 1316 H 122.105 0.592063 0.445582 0
M  V30 1317 H 124.752 1.84503 0.512927 0
M  V30 1318 H 123.057 2.46556 3.04496 0
M  V30 1319 H 124.754 2.81055 2.86023 0
M  V30 1320 H 121.344 3.85341 1.87644 0
M  V30 1321 H 125.528 4.74257 1.46267 0
M  V30 1322 H 120.784 6.0452 0.91462 0
M  V30 1323 H 124.958 6.94537 0.509018 0
M  V30 1324 H 122.585 7.59854 0.229226 0
M  V30 1325 N 124.16 -0.719506 1.40217 0
M  V30 1326 C 125.576 -1.02707 1.22161 0
M  V30 1327 C 125.776 -2.0128 0.0940557 0
M  V30 1328 O 124.832 -2.46452 -0.549318 0
M  V30 1329 C 126.145 -1.57454 2.56181 0
M  V30 1330 C 127.693 -1.69458 2.63159 0
M  V30 1331 C 128.168 -2.27611 3.97438 0
M  V30 1332 N 129.659 -2.35002 3.99159 0
M  V30 1333 C 130.394 -2.80972 4.99842 0
M  V30 1334 N 129.89 -3.26723 6.10921 0
M  V30 1335 N 131.683 -2.80321 4.87213 0
M  V30 1336 H 123.834 -0.0660492 2.12297 0
M  V30 1337 H 126.097 -0.0919077 0.943534 0
M  V30 1338 H 125.803 -0.924873 3.39321 0
M  V30 1339 H 125.677 -2.56036 2.76993 0
M  V30 1340 H 128.064 -2.33543 1.80393 0
M  V30 1341 H 128.145 -0.694867 2.46181 0
M  V30 1342 H 127.789 -1.6415 4.80643 0
M  V30 1343 H 127.719 -3.2829 4.11744 0
M  V30 1344 H 130.21 -2.02685 3.18947 0
M  V30 1345 H 130.523 -3.60355 6.8364 0
M  V30 1346 H 128.868 -3.24692 6.14492 0
M  V30 1347 H 132.059 -2.43912 3.9953 0
M  V30 1348 H 132.232 -3.15831 5.65822 0
M  V30 1349 N 125.638 -1.25649 -0.95132 0
M  V30 1350 C 126.886 -1.10375 -1.69298 0
M  V30 1351 C 127.207 0.355339 -1.91735 0
M  V30 1352 O 126.477 1.25188 -1.50681 0
M  V30 1353 H 125.057 -0.405461 -0.627384 0
M  V30 1354 H 127.719 -1.57823 -1.14358 0
M  V30 1355 H 126.815 -1.61465 -2.67087 0
M  V30 1356 N 127.117 1.15442 -1.07289 0
M  V30 1357 C 128.027 2.23786 -0.704057 0
M  V30 1358 C 129.043 1.7166 0.284413 0
M  V30 1359 O 130.219 2.00972 0.131205 0
M  V30 1360 C 127.284 3.46535 -0.106792 0
M  V30 1361 C 126.345 4.13654 -1.14842 0
M  V30 1362 C 125.578 5.30544 -0.57956 0
M  V30 1363 O 125.801 5.67187 0.604585 0
M  V30 1364 O 124.735 5.87154 -1.32414 0
M  V30 1365 H 128.561 2.57664 -1.60757 0
M  V30 1366 H 126.146 1.23152 -0.845803 0
M  V30 1367 H 128.028 4.20804 0.224048 0
M  V30 1368 H 126.703 3.14407 0.770049 0
M  V30 1369 H 125.61 3.4131 -1.5316 0
M  V30 1370 H 126.943 4.49861 -1.99714 0
M  V30 1371 N 128.595 0.856903 1.32268 0
M  V30 1372 C 129.558 0.308171 2.27119 0
M  V30 1373 C 130.558 -0.533421 1.51695 0
M  V30 1374 O 131.748 -0.344607 1.70757 0
M  V30 1375 C 128.88 -0.563757 3.36206 0
M  V30 1376 H 130.073 1.14535 2.77167 0
M  V30 1377 H 127.626 0.631421 1.42978 0
M  V30 1378 H 128.361 -1.42266 2.91429 0
M  V30 1379 H 128.146 0.0386749 3.92081 0
M  V30 1380 H 129.636 -0.940386 4.06874 0
M  V30 1381 N 130.073 -1.45103 0.615059 0
M  V30 1382 C 131.298 -2.07064 0.117988 0
M  V30 1383 C 131.723 -1.4554 -1.19163 0
M  V30 1384 O 131.081 -0.550855 -1.72729 0
M  V30 1385 C 131.129 -3.606 -0.000288387 0
M  V30 1386 O 130.233 -3.98847 -1.04856 0
M  V30 1387 H 129.574 -0.659467 0.0774581 0
M  V30 1388 H 132.104 -1.86236 0.847186 0
M  V30 1389 H 132.114 -4.07529 -0.196091 0
M  V30 1390 H 130.789 -4.04765 0.955932 0
M  V30 1391 H 129.366 -3.63577 -0.828619 0
M  V30 1392 N 131.551 -0.354651 -1.53558 0
M  V30 1393 C 132.461 0.50515 -2.29097 0
M  V30 1394 C 133.477 1.10223 -1.34636 0
M  V30 1395 O 134.653 1.11553 -1.67684 0
M  V30 1396 C 131.718 1.63479 -3.05738 0
M  V30 1397 C 130.779 1.06636 -4.15845 0
M  V30 1398 C 130.012 2.14217 -4.88822 0
M  V30 1399 O 130.235 3.35137 -4.61562 0
M  V30 1400 O 129.169 1.77887 -5.75013 0
M  V30 1401 H 132.995 -0.109237 -3.03503 0
M  V30 1402 H 130.58 -0.119357 -1.48922 0
M  V30 1403 H 132.462 2.2918 -3.5363 0
M  V30 1404 H 131.137 2.23478 -2.34178 0
M  V30 1405 H 130.044 0.373565 -3.7223 0
M  V30 1406 H 131.377 0.511081 -4.89539 0
M  V30 1407 N 133.029 1.57378 -0.0835403 0
M  V30 1408 C 134.257 1.98263 0.59157 0
M  V30 1409 C 134.672 0.962302 1.62435 0
M  V30 1410 O 134.029 -0.049581 1.82433 0
M  V30 1411 C 134.08 3.39214 1.24965 0
M  V30 1412 O 133.801 4.37339 0.258186 0
M  V30 1413 C 135.302 3.95038 2.01147 0
M  V30 1414 H 132.522 0.651773 0.159477 0
M  V30 1415 H 135.066 2.03878 -0.159415 0
M  V30 1416 H 133.221 3.34649 1.95164 0
M  V30 1417 H 133.635 5.19371 0.731734 0
M  V30 1418 H 135.109 4.95848 2.42567 0
M  V30 1419 H 135.586 3.32222 2.87272 0
M  V30 1420 H 136.192 4.0304 1.35789 0
M  V30 1421 N 134.507 -0.190092 1.56449 0
M  V30 1422 C 135.437 -1.23816 1.97969 0
M  V30 1423 C 136.418 -1.47201 0.852395 0
M  V30 1424 O 137.603 -1.58854 1.1171 0
M  V30 1425 C 134.733 -2.5813 2.3235 0
M  V30 1426 C 133.687 -2.49348 3.47864 0
M  V30 1427 C 133.013 -3.8798 3.67934 0
M  V30 1428 C 134.313 -2.01424 4.81898 0
M  V30 1429 H 136.007 -0.89311 2.85769 0
M  V30 1430 H 133.553 -0.428177 1.37487 0
M  V30 1431 H 135.506 -3.31637 2.59991 0
M  V30 1432 H 134.23 -2.94386 1.41438 0
M  V30 1433 H 132.889 -1.78297 3.20321 0
M  V30 1434 H 132.537 -4.21597 2.74344 0
M  V30 1435 H 132.237 -3.82978 4.45648 0
M  V30 1436 H 133.761 -4.63101 3.97957 0
M  V30 1437 H 135.175 -2.64693 5.08538 0
M  V30 1438 H 133.572 -2.07413 5.63116 0
M  V30 1439 H 134.642 -0.967677 4.75146 0
M  V30 1440 N 135.985 -1.50799 -0.457987 0
M  V30 1441 C 136.917 -1.66786 -1.57211 0
M  V30 1442 C 137.93 -0.548962 -1.53265 0
M  V30 1443 O 139.119 -0.8226 -1.58416 0
M  V30 1444 C 136.219 -1.64834 -2.96113 0
M  V30 1445 C 135.392 -2.92971 -3.24787 0
M  V30 1446 C 134.451 -2.83485 -4.43309 0
M  V30 1447 O 133.477 -3.5744 -4.42973 0
M  V30 1448 N 134.679 -1.97929 -5.45714 0
M  V30 1449 H 137.444 -2.62889 -1.43909 0
M  V30 1450 H 135.005 -1.48427 -0.646617 0
M  V30 1451 H 136.997 -1.56084 -3.7339 0
M  V30 1452 H 135.567 -0.764118 -3.03117 0
M  V30 1453 H 134.787 -3.15749 -2.36 0
M  V30 1454 H 136.075 -3.77834 -3.40762 0
M  V30 1455 H 135.473 -1.37182 -5.48815 0
M  V30 1456 H 134.03 -1.95073 -6.21924 0
M  V30 1457 N 137.463 0.71206 -1.40597 0
M  V30 1458 C 138.688 1.50617 -1.42581 0
M  V30 1459 C 139.113 1.88079 -0.0282102 0
M  V30 1460 O 138.471 1.53511 0.964579 0
M  V30 1461 C 138.519 2.7557 -2.3258 0
M  V30 1462 O 137.623 3.72414 -1.77148 0
M  V30 1463 H 136.964 0.453966 -0.484573 0
M  V30 1464 H 139.494 0.876649 -1.84868 0
M  V30 1465 H 139.504 3.2406 -2.47889 0
M  V30 1466 H 138.179 2.47639 -3.34138 0
M  V30 1467 H 136.756 3.31276 -1.71204 0
M  V30 1468 N 138.941 1.26152 0.944643 0
M  V30 1469 C 140.352 1.10454 1.50522 0
M  V30 1470 C 140.703 -0.31635 1.93633 0
M  V30 1471 O 139.828 -1.20746 1.79581 0
M  V30 1472 C 140.423 1.99891 2.73549 0
M  V30 1473 C 138.982 1.88348 3.25886 0
M  V30 1474 C 138.129 1.93447 1.9868 0
M  V30 1475 H 141.08 1.39292 0.760489 0
M  V30 1476 H 141.101 1.54477 3.47732 0
M  V30 1477 H 140.613 3.03297 2.42141 0
M  V30 1478 H 138.714 0.878636 3.62092 0
M  V30 1479 H 138.827 2.73696 3.93227 0
M  V30 1480 H 137.191 1.37456 2.14425 0
M  V30 1481 H 137.974 2.98476 1.69607 0
M  V30 1482 N 140.419 -1.14872 1.07899 0
M  V30 1483 C 141.667 -1.85422 0.803941 0
M  V30 1484 C 141.988 -1.83051 -0.67211 0
M  V30 1485 O 141.258 -1.27532 -1.48703 0
M  V30 1486 H 139.838 -0.686537 0.294408 0
M  V30 1487 H 142.5 -1.39226 1.3639 0
M  V30 1488 H 141.596 -2.90399 1.14346 0
M  V30 1489 N 141.898 -0.863906 -1.31812 0
M  V30 1490 C 143.128 -0.485406 -2.00817 0
M  V30 1491 C 143.536 0.925007 -1.65046 0
M  V30 1492 O 142.879 1.61653 -0.872574 0
M  V30 1493 C 142.941 -0.555589 -3.55181 0
M  V30 1494 C 142.605 -1.92654 -4.14407 0
M  V30 1495 C 143.602 -2.89324 -4.31958 0
M  V30 1496 C 141.287 -2.2262 -4.50273 0
M  V30 1497 C 143.281 -4.14108 -4.84555 0
M  V30 1498 C 140.968 -3.47654 -5.02573 0
M  V30 1499 C 141.966 -4.43214 -5.19664 0
M  V30 1500 O 141.654 -5.66033 -5.70843 0
M  V30 1501 H 141.386 -0.188224 -0.649267 0
M  V30 1502 H 143.94 -1.16514 -1.69156 0
M  V30 1503 H 142.17 0.181037 -3.86276 0
M  V30 1504 H 143.859 -0.19138 -4.05449 0
M  V30 1505 H 144.625 -2.6748 -4.04573 0
M  V30 1506 H 140.504 -1.4902 -4.3625 0
M  V30 1507 H 144.048 -4.88703 -4.9781 0
M  V30 1508 H 139.945 -3.69345 -5.29391 0
M  V30 1509 H 140.713 -5.6812 -5.89222 0
M  V30 1510 N 143.376 1.44774 -0.622745 0
M  V30 1511 C 144.653 1.95522 -0.0551974 0
M  V30 1512 C 145.033 1.5649 1.41683 0
M  V30 1513 O 144.381 0.834848 2.12703 0
M  V30 1514 C 144.591 3.4796 -0.269242 0
M  V30 1515 C 145.939 4.24306 -0.158014 0
M  V30 1516 O 146.963 3.55637 -0.200162 0
M  V30 1517 O 145.822 5.46471 -0.0558693 0
M  V30 1518 H 142.916 0.826556 0.0271015 0
M  V30 1519 H 145.462 1.54866 -0.693864 0
M  V30 1520 H 144.234 3.6939 -1.29099 0
M  V30 1521 H 143.857 3.95543 0.403966 0
M  V30 1522 N 144.854 0.36279 1.53368 0
M  V30 1523 C 146.265 -0.117022 1.86333 0
M  V30 1524 C 146.616 -1.48397 1.28347 0
M  V30 1525 O 145.741 -2.07787 0.604428 0
M  V30 1526 C 146.336 -0.21912 3.38091 0
M  V30 1527 C 144.895 -0.643184 3.70864 0
M  V30 1528 C 144.042 0.211318 2.76494 0
M  V30 1529 H 146.993 0.581687 1.47655 0
M  V30 1530 H 147.014 -1.04319 3.6592 0
M  V30 1531 H 146.526 0.775902 3.80265 0
M  V30 1532 H 144.627 -1.64654 3.34245 0
M  V30 1533 H 144.74 -0.41973 4.77258 0
M  V30 1534 H 143.104 -0.319367 2.5269 0
M  V30 1535 H 143.887 1.20383 3.21501 0
M  V30 1536 N 146.332 -1.57332 0.0918853 0
M  V30 1537 C 147.557 -1.98995 -0.584442 0
M  V30 1538 C 147.982 -0.970528 -1.61128 0
M  V30 1539 O 147.34 0.0613904 -1.81196 0
M  V30 1540 C 147.388 -3.39636 -1.21161 0
M  V30 1541 O 146.492 -3.40447 -2.32744 0
M  V30 1542 H 145.833 -0.647165 -0.148572 0
M  V30 1543 H 148.363 -2.03873 0.172347 0
M  V30 1544 H 148.373 -3.7726 -1.55367 0
M  V30 1545 H 147.048 -4.13356 -0.459313 0
M  V30 1546 H 145.625 -3.14614 -2.0018 0
M  V30 1547 N 147.81 0.181792 -1.56548 0
M  V30 1548 C 149.226 0.53316 -1.50431 0
M  V30 1549 C 149.426 1.85184 -0.794297 0
M  V30 1550 O 148.482 2.50058 -0.350318 0
M  V30 1551 C 149.795 0.575597 -2.9514 0
M  V30 1552 C 151.343 0.663519 -3.05886 0
M  V30 1553 C 151.818 0.736946 -4.52032 0
M  V30 1554 N 153.309 0.800118 -4.56237 0
M  V30 1555 C 154.044 0.877327 -5.66649 0
M  V30 1556 N 153.54 0.916016 -6.86718 0
M  V30 1557 N 155.333 0.915542 -5.54594 0
M  V30 1558 H 147.484 -0.683025 -2.01118 0
M  V30 1559 H 149.747 -0.244988 -0.915797 0
M  V30 1560 H 149.453 -0.324482 -3.502 0
M  V30 1561 H 149.327 1.42572 -3.49218 0
M  V30 1562 H 151.714 1.55403 -2.50867 0
M  V30 1563 H 151.795 -0.21307 -2.54911 0
M  V30 1564 H 151.439 -0.149262 -5.07681 0
M  V30 1565 H 151.369 1.62953 -5.00753 0
M  V30 1566 H 153.86 0.778926 -3.69785 0
M  V30 1567 H 154.173 0.975813 -7.66614 0
M  V30 1568 H 152.518 0.884469 -6.89349 0
M  V30 1569 H 155.709 0.882245 -4.59711 0
M  V30 1570 H 155.882 0.972253 -6.40665 0
M  V30 1571 N 149.288 1.51039 0.449983 0
M  V30 1572 C 150.699 1.557 1.03026 0
M  V30 1573 C 151.05 0.372939 1.92623 0
M  V30 1574 O 150.175 -0.511771 2.10261 0
M  V30 1575 C 150.77 2.82171 1.87523 0
M  V30 1576 C 149.329 2.89444 2.40622 0
M  V30 1577 C 148.476 2.50228 1.19504 0
M  V30 1578 H 151.427 1.56999 0.231745 0
M  V30 1579 H 151.448 2.65219 2.72835 0
M  V30 1580 H 150.96 3.68331 1.22286 0
M  V30 1581 H 149.061 2.07685 3.0935 0
M  V30 1582 H 149.174 3.92816 2.74285 0
M  V30 1583 H 147.538 2.03139 1.53644 0
M  V30 1584 H 148.321 3.38719 0.558972 0
M  V30 1585 N 150.766 -0.704594 1.40972 0
M  V30 1586 C 151.676 -1.84856 1.44448 0
M  V30 1587 C 152.692 -1.70726 0.335961 0
M  V30 1588 O 153.868 -1.92799 0.582276 0
M  V30 1589 C 150.933 -3.20758 1.31587 0
M  V30 1590 C 149.994 -3.47063 2.52677 0
M  V30 1591 C 149.227 -4.76481 2.4042 0
M  V30 1592 O 149.45 -5.52341 1.42391 0
M  V30 1593 O 148.384 -5.03367 3.30007 0
M  V30 1594 H 152.21 -1.8488 2.40942 0
M  V30 1595 H 149.795 -0.85647 1.22413 0
M  V30 1596 H 151.677 -4.01913 1.26665 0
M  V30 1597 H 150.352 -3.21438 0.382049 0
M  V30 1598 H 149.259 -2.65873 2.63177 0
M  V30 1599 H 150.592 -3.5119 3.44858 0
M  V30 1600 N 152.244 -1.26651 -0.937939 0
M  V30 1601 C 153.469 -1.15279 -1.72411 0
M  V30 1602 C 153.894 0.287866 -1.85884 0
M  V30 1603 O 153.252 1.20855 -1.35143 0
M  V30 1604 C 153.3 -1.83028 -3.10698 0
M  V30 1605 O 152.404 -1.12128 -3.96864 0
M  V30 1606 H 151.745 -0.401504 -0.528858 0
M  V30 1607 H 154.275 -1.67531 -1.1745 0
M  V30 1608 H 154.285 -1.89981 -3.6107 0
M  V30 1609 H 152.96 -2.87833 -3.00208 0
M  V30 1610 H 151.537 -1.13173 -3.55312 0
M  V30 1611 N 153.722 1.14298 -1.08507 0
M  V30 1612 C 154.969 1.85359 -0.815373 0
M  V30 1613 C 155.297 1.83001 0.658865 0
M  V30 1614 O 154.552 1.25655 1.50031 0
M  V30 1615 C 154.851 3.33547 -1.28379 0
M  V30 1616 C 154.517 3.56093 -2.76602 0
M  V30 1617 C 153.179 3.61955 -3.17084 0
M  V30 1618 C 155.531 3.64834 -3.72217 0
M  V30 1619 C 152.859 3.74082 -4.51973 0
M  V30 1620 C 155.211 3.78487 -5.06883 0
M  V30 1621 C 153.875 3.82598 -5.46969 0
M  V30 1622 H 153.145 0.678276 -0.298366 0
M  V30 1623 H 155.792 1.35002 -1.35819 0
M  V30 1624 H 154.097 3.86191 -0.660593 0
M  V30 1625 H 155.794 3.86959 -1.05186 0
M  V30 1626 H 152.384 3.52179 -2.4427 0
M  V30 1627 H 156.568 3.59595 -3.42061 0
M  V30 1628 H 151.824 3.75527 -4.82483 0
M  V30 1629 H 155.998 3.84193 -5.80834 0
M  V30 1630 H 153.625 3.91747 -6.51489 0
M  V30 1631 N 155.201 0.870884 1.31352 0
M  V30 1632 C 156.448 0.482273 1.96673 0
M  V30 1633 C 156.776 -0.965638 1.68836 0
M  V30 1634 O 156.031 -1.69514 0.977937 0
M  V30 1635 C 156.33 0.687157 3.50732 0
M  V30 1636 C 155.996 2.108 3.9859 0
M  V30 1637 C 154.658 2.49656 4.1137 0
M  V30 1638 C 157.01 3.03459 4.23748 0
M  V30 1639 C 154.338 3.80412 4.46659 0
M  V30 1640 C 156.69 4.3373 4.60501 0
M  V30 1641 C 155.354 4.725 4.71487 0
M  V30 1642 H 154.624 0.176476 0.719679 0
M  V30 1643 H 157.271 1.10405 1.56471 0
M  V30 1644 H 155.576 -0.0177476 3.91796 0
M  V30 1645 H 157.273 0.366284 3.99324 0
M  V30 1646 H 153.863 1.79633 3.8914 0
M  V30 1647 H 158.047 2.74665 4.13368 0
M  V30 1648 H 153.303 4.1021 4.53362 0
M  V30 1649 H 157.477 5.05578 4.78919 0
M  V30 1650 H 155.104 5.73859 4.98588 0
M  V30 1651 N 156.679 -1.44442 0.630414 0
M  V30 1652 C 157.611 -2.2892 -0.113347 0
M  V30 1653 C 158.624 -1.41243 -0.80959 0
M  V30 1654 O 159.813 -1.65402 -0.671156 0
M  V30 1655 C 156.913 -3.17594 -1.18266 0
M  V30 1656 C 156.086 -4.33682 -0.569073 0
M  V30 1657 C 155.145 -5.03397 -1.53226 0
M  V30 1658 O 154.171 -5.59438 -1.04967 0
M  V30 1659 N 155.373 -5.04783 -2.86661 0
M  V30 1660 H 158.138 -2.93392 0.611636 0
M  V30 1661 H 155.699 -1.54881 0.471523 0
M  V30 1662 H 157.691 -3.61097 -1.82732 0
M  V30 1663 H 156.261 -2.54876 -1.80988 0
M  V30 1664 H 155.481 -3.9338 0.254187 0
M  V30 1665 H 156.769 -5.08608 -0.139767 0
M  V30 1666 H 156.167 -4.60584 -3.28449 0
M  V30 1667 H 154.724 -5.52077 -3.46489 0
M  V30 1668 N 158.157 -0.370918 -1.53173 0
M  V30 1669 C 159.089 0.507823 -2.23503 0
M  V30 1670 C 160.102 1.04182 -1.251 0
M  V30 1671 O 161.291 0.947286 -1.5129 0
M  V30 1672 C 158.391 1.71447 -2.92334 0
M  V30 1673 C 157.564 1.31105 -4.17289 0
M  V30 1674 C 156.623 2.38035 -4.69282 0
M  V30 1675 O 155.649 2.00204 -5.32829 0
M  V30 1676 N 156.851 3.69697 -4.47554 0
M  V30 1677 H 159.616 -0.0946382 -2.99551 0
M  V30 1678 H 157.177 -0.196358 -1.60705 0
M  V30 1679 H 159.169 2.42469 -3.24023 0
M  V30 1680 H 157.739 2.22368 -2.19707 0
M  V30 1681 H 156.959 0.430462 -3.91843 0
M  V30 1682 H 158.247 1.0179 -4.98514 0
M  V30 1683 H 157.645 4.03205 -3.9679 0
M  V30 1684 H 156.202 4.36807 -4.8378 0
M  V30 1685 N 159.635 1.57281 -0.100228 0
M  V30 1686 C 160.86 1.99302 0.573881 0
M  V30 1687 C 161.285 0.979059 1.60611 0
M  V30 1688 O 160.643 -0.0517803 1.81226 0
M  V30 1689 C 160.691 3.40274 1.19358 0
M  V30 1690 O 159.795 3.41676 2.30935 0
M  V30 1691 H 159.136 0.647944 0.145138 0
M  V30 1692 H 161.666 2.03779 -0.183156 0
M  V30 1693 H 161.676 3.78078 1.53365 0
M  V30 1694 H 160.351 4.13594 0.437385 0
M  V30 1695 H 158.928 3.15672 1.98509 0
M  V30 1696 N 161.113 -0.173488 1.56642 0
M  V30 1697 C 162.36 -0.890465 1.81871 0
M  V30 1698 C 162.688 -1.82339 0.67696 0
M  V30 1699 O 161.943 -1.92795 -0.335926 0
M  V30 1700 C 162.242 -1.72069 3.13252 0
M  V30 1701 C 161.908 -0.936878 4.41059 0
M  V30 1702 C 160.57 -0.720545 4.75775 0
M  V30 1703 C 162.922 -0.386919 5.19762 0
M  V30 1704 C 160.25 0.0568829 5.86672 0
M  V30 1705 C 162.602 0.37741 6.31473 0
M  V30 1706 C 161.266 0.604563 6.64757 0
M  V30 1707 H 160.536 -0.325844 0.665512 0
M  V30 1708 H 163.183 -0.155527 1.90867 0
M  V30 1709 H 161.488 -2.52496 2.99588 0
M  V30 1710 H 163.185 -2.27844 3.29982 0
M  V30 1711 H 159.775 -1.11553 4.13828 0
M  V30 1712 H 163.959 -0.541398 4.93338 0
M  V30 1713 H 159.215 0.242635 6.10918 0
M  V30 1714 H 163.389 0.810825 6.91664 0
M  V30 1715 H 161.016 1.20885 7.50527 0
M  V30 1716 N 162.591 -1.51276 -0.441967 0
M  V30 1717 C 163.523 -1.68444 -1.55433 0
M  V30 1718 C 164.536 -0.565187 -1.52674 0
M  V30 1719 O 165.725 -0.839356 -1.57534 0
M  V30 1720 C 162.825 -1.67966 -2.94348 0
M  V30 1721 C 161.998 -2.964 -3.21661 0
M  V30 1722 C 161.057 -2.88171 -4.40277 0
M  V30 1723 O 160.083 -3.62119 -4.39157 0
M  V30 1724 N 161.285 -2.03706 -5.43584 0
M  V30 1725 H 164.05 -2.644 -1.41112 0
M  V30 1726 H 161.611 -1.49104 -0.630838 0
M  V30 1727 H 163.603 -1.60035 -3.71713 0
M  V30 1728 H 162.173 -0.796225 -3.0229 0
M  V30 1729 H 161.393 -3.18234 -2.32638 0
M  V30 1730 H 162.681 -3.81427 -3.36736 0
M  V30 1731 H 162.079 -1.42995 -5.47329 0
M  V30 1732 H 160.636 -2.01658 -6.1982 0
M  V30 1733 N 164.069 0.697108 -1.41344 0
M  V30 1734 C 165.485 1.00751 -1.2378 0
M  V30 1735 C 165.685 2.01105 -0.126066 0
M  V30 1736 O 164.741 2.47295 0.51004 0
M  V30 1737 C 166.054 1.53359 -2.58653 0
M  V30 1738 C 167.602 1.6525 -2.65822 0
M  V30 1739 C 168.077 2.2126 -4.01009 0
M  V30 1740 N 169.568 2.28622 -4.02847 0
M  V30 1741 C 170.303 2.72984 -5.04249 0
M  V30 1742 N 169.799 3.16962 -6.16041 0
M  V30 1743 N 171.592 2.72534 -4.91611 0
M  V30 1744 H 163.743 0.0322662 -2.12375 0
M  V30 1745 H 166.006 0.0768853 -0.944877 0
M  V30 1746 H 165.712 0.870773 -3.4075 0
M  V30 1747 H 165.586 2.51597 -2.81032 0
M  V30 1748 H 167.973 2.30644 -1.84086 0
M  V30 1749 H 168.054 0.655614 -2.47256 0
M  V30 1750 H 167.698 1.56482 -4.83193 0
M  V30 1751 H 167.628 3.21698 -4.16915 0
M  V30 1752 H 170.119 1.97585 -3.22131 0
M  V30 1753 H 170.432 3.49434 -6.89287 0
M  V30 1754 H 168.777 3.14875 -6.1958 0
M  V30 1755 H 171.968 2.37525 -4.0336 0
M  V30 1756 H 172.141 3.06789 -5.70775 0
M  V30 1757 N 165.547 1.27147 0.931209 0
M  V30 1758 C 166.477 1.12081 2.04842 0
M  V30 1759 C 167.458 0.0232364 1.70084 0
M  V30 1760 O 168.643 0.197085 1.93197 0
M  V30 1761 C 165.773 0.76354 3.38803 0
M  V30 1762 C 164.727 1.81396 3.87659 0
M  V30 1763 C 164.053 1.31075 5.18385 0
M  V30 1764 C 165.353 3.21739 4.11438 0
M  V30 1765 H 167.047 2.05537 2.17703 0
M  V30 1766 H 164.593 0.989603 1.04608 0
M  V30 1767 H 166.546 0.644982 4.16435 0
M  V30 1768 H 165.27 -0.206727 3.25945 0
M  V30 1769 H 163.929 1.92136 3.12217 0
M  V30 1770 H 163.577 0.330037 5.01916 0
M  V30 1771 H 163.277 2.013 5.52044 0
M  V30 1772 H 164.801 1.20506 5.98591 0
M  V30 1773 H 166.215 3.14019 4.79651 0
M  V30 1774 H 164.612 3.89644 4.56397 0
M  V30 1775 H 165.682 3.67054 3.16859 0
M  V30 1776 N 167.025 -1.13721 1.09112 0
M  V30 1777 C 168.25 -1.89314 0.847053 0
M  V30 1778 C 168.675 -1.78416 -0.595774 0
M  V30 1779 O 168.033 -1.12942 -1.41823 0
M  V30 1780 C 168.081 -3.3701 1.28284 0
M  V30 1781 O 167.185 -4.10054 0.439267 0
M  V30 1782 H 166.526 -0.588745 0.307044 0
M  V30 1783 H 169.056 -1.43902 1.45442 0
M  V30 1784 H 169.066 -3.87834 1.26683 0
M  V30 1785 H 167.741 -3.4426 2.33363 0
M  V30 1786 H 166.318 -3.69266 0.519312 0
M  V30 1787 N 168.503 -0.877838 -1.30888 0
M  V30 1788 C 169.919 -0.570844 -1.49042 0
M  V30 1789 C 170.119 0.893159 -1.80624 0
M  V30 1790 O 169.175 1.67485 -1.88958 0
M  V30 1791 C 170.488 -1.47784 -2.61878 0
M  V30 1792 C 172.036 -1.48071 -2.75761 0
M  V30 1793 C 172.511 -2.37347 -3.91702 0
M  V30 1794 N 174.002 -2.35271 -3.99001 0
M  V30 1795 C 174.737 -3.01063 -4.88004 0
M  V30 1796 N 174.233 -3.76055 -5.81854 0
M  V30 1797 N 176.026 -2.90332 -4.81315 0
M  V30 1798 H 168.177 -1.82502 -1.0866 0
M  V30 1799 H 170.44 -0.780797 -0.537644 0
M  V30 1800 H 170.146 -2.51993 -2.45341 0
M  V30 1801 H 170.02 -1.18215 -3.58197 0
M  V30 1802 H 172.407 -0.446166 -2.91708 0
M  V30 1803 H 172.488 -1.81668 -1.80085 0
M  V30 1804 H 172.132 -3.40883 -3.76512 0
M  V30 1805 H 172.062 -2.01071 -4.86701 0
M  V30 1806 H 174.553 -1.80768 -3.3186 0
M  V30 1807 H 174.866 -4.23366 -6.46514 0
M  V30 1808 H 173.211 -3.80163 -5.81808 0
M  V30 1809 H 176.402 -2.31278 -4.06974 0
M  V30 1810 H 176.575 -3.41885 -5.50471 0
M  V30 1811 N 169.982 1.44106 -0.638065 0
M  V30 1812 C 170.912 2.33448 0.0494287 0
M  V30 1813 C 171.893 1.48606 0.827672 0
M  V30 1814 O 173.078 1.77308 0.792173 0
M  V30 1815 C 170.208 3.31771 1.02691 0
M  V30 1816 C 169.162 4.26485 0.359823 0
M  V30 1817 C 168.488 5.14729 1.44769 0
M  V30 1818 C 169.788 5.17056 -0.738296 0
M  V30 1819 H 171.482 2.91183 -0.696636 0
M  V30 1820 H 169.028 1.40014 -0.336456 0
M  V30 1821 H 170.981 3.93161 1.51666 0
M  V30 1822 H 169.705 2.7226 1.80395 0
M  V30 1823 H 168.364 3.66437 -0.10934 0
M  V30 1824 H 168.012 4.51566 2.21578 0
M  V30 1825 H 167.712 5.78913 1.00668 0
M  V30 1826 H 169.236 5.78991 1.93911 0
M  V30 1827 H 170.65 5.72342 -0.331354 0
M  V30 1828 H 169.047 5.89879 -1.10286 0
M  V30 1829 H 170.117 4.57652 -1.60258 0
M  V30 1830 N 171.46 0.379036 1.52974 0
M  V30 1831 C 172.708 -0.206014 2.01047 0
M  V30 1832 C 173.029 -1.48175 1.26765 0
M  V30 1833 O 172.299 -1.92085 0.384743 0
M  V30 1834 H 170.879 -0.0791184 0.742798 0
M  V30 1835 H 173.541 0.508366 1.88153 0
M  V30 1836 H 172.637 -0.423501 3.09213 0
M  V30 1837 N 172.938 -1.57226 0.108567 0
M  V30 1838 C 173.888 -2.11305 -0.856396 0
M  V30 1839 C 174.872 -1.03129 -1.23504 0
M  V30 1840 O 176.064 -1.29381 -1.20787 0
M  V30 1841 C 173.193 -2.70771 -2.11041 0
M  V30 1842 C 172.279 -3.86011 -1.7566 0
M  V30 1843 N 172.67 -4.93492 -1.10902 0
M  V30 1844 C 170.968 -3.95999 -2.05185 0
M  V30 1845 C 171.669 -5.73984 -0.944308 0
M  V30 1846 N 170.645 -5.2346 -1.46596 0
M  V30 1847 H 174.447 -2.91784 -0.352002 0
M  V30 1848 H 171.961 -1.62126 -0.0942324 0
M  V30 1849 H 173.958 -3.07851 -2.81128 0
M  V30 1850 H 172.618 -1.91751 -2.62034 0
M  V30 1851 H 173.629 -5.1208 -0.774235 0
M  V30 1852 H 170.306 -3.28007 -2.58298 0
M  V30 1853 H 171.696 -6.70479 -0.436813 0
M  V30 1854 N 174.416 0.165178 -1.56732 0
M  V30 1855 C 175.664 0.879068 -1.8198 0
M  V30 1856 C 175.985 1.82514 -0.686561 0
M  V30 1857 O 175.255 1.93694 0.293146 0
M  V30 1858 H 173.835 0.327608 -0.671329 0
M  V30 1859 H 176.497 0.163526 -1.94213 0
M  V30 1860 H 175.593 1.45228 -2.76252 0
M  V30 1861 N 175.894 1.51508 0.433938 0
M  V30 1862 C 177.119 1.68443 1.21003 0
M  V30 1863 C 177.544 0.382636 1.84167 0
M  V30 1864 O 176.902 -0.65755 1.68956 0
M  V30 1865 C 176.95 2.80405 2.26727 0
M  V30 1866 O 176.054 2.44245 3.32292 0
M  V30 1867 H 175.395 0.561536 0.354363 0
M  V30 1868 H 177.925 1.9809 0.512024 0
M  V30 1869 H 177.935 3.0459 2.71457 0
M  V30 1870 H 176.61 3.74867 1.80132 0
M  V30 1871 H 175.187 2.30644 2.93015 0
M  V30 1872 N 177.372 -0.689602 1.41712 0
M  V30 1873 C 178.602 -1.47613 1.44548 0
M  V30 1874 C 179.01 -1.89132 0.0509034 0
M  V30 1875 O 178.353 -1.57741 -0.94146 0
M  V30 1876 C 178.415 -2.76596 2.2964 0
M  V30 1877 C 178.079 -2.57245 3.77722 0
M  V30 1878 C 179.076 -2.22804 4.69739 0
M  V30 1879 C 176.761 -2.727 4.2183 0
M  V30 1880 C 178.755 -2.04064 6.03851 0
M  V30 1881 C 176.442 -2.53576 5.56006 0
M  V30 1882 C 177.44 -2.1931 6.46832 0
M  V30 1883 O 177.128 -2.00359 7.78532 0
M  V30 1884 H 176.86 -0.461227 0.494212 0
M  V30 1885 H 179.414 -0.856045 1.86711 0
M  V30 1886 H 177.644 -3.41033 1.82301 0
M  V30 1887 H 179.333 -3.38424 2.24107 0
M  V30 1888 H 180.099 -2.10473 4.36951 0
M  V30 1889 H 175.978 -2.98353 3.51435 0
M  V30 1890 H 179.522 -1.77241 6.74708 0
M  V30 1891 H 175.419 -2.65499 5.88371 0
M  V30 1892 H 176.187 -2.15075 7.89737 0
M  V30 1893 N 178.85 -1.27639 -0.924453 0
M  V30 1894 C 180.098 -1.13941 -1.66918 0
M  V30 1895 C 180.419 0.314589 -1.92446 0
M  V30 1896 O 179.689 1.21964 -1.53303 0
M  V30 1897 H 178.269 -0.418678 -0.618642 0
M  V30 1898 H 180.931 -1.60213 -1.10985 0
M  V30 1899 H 180.027 -1.67094 -2.63602 0
M  V30 1900 N 180.328 1.1314 -1.09713 0
M  V30 1901 C 181.238 2.22242 -0.751367 0
M  V30 1902 C 182.254 1.72224 0.247938 0
M  V30 1903 O 183.43 2.01205 0.0885463 0
M  V30 1904 C 180.495 3.46231 -0.180274 0
M  V30 1905 C 179.556 4.11125 -1.2359 0
M  V30 1906 C 178.789 5.29195 -0.691966 0
M  V30 1907 O 179.012 5.68342 0.48414 0
M  V30 1908 O 177.946 5.84214 -1.44838 0
M  V30 1909 H 181.772 2.54197 -1.66186 0
M  V30 1910 H 179.357 1.21331 -0.871735 0
M  V30 1911 H 181.239 4.21185 0.134739 0
M  V30 1912 H 179.914 3.1597 0.703185 0
M  V30 1913 H 178.821 3.37985 -1.60366 0
M  V30 1914 H 180.154 4.45524 -2.09211 0
M  V30 1915 N 181.806 0.884767 1.30421 0
M  V30 1916 C 183.052 0.503851 1.96441 0
M  V30 1917 C 183.385 -0.944518 1.69684 0
M  V30 1918 O 182.66 -1.66737 1.00145 0
M  V30 1919 C 182.943 0.779085 3.51571 0
M  V30 1920 C 182.796 2.27807 3.87846 0
M  V30 1921 C 184.115 0.255452 4.39358 0
M  V30 1922 H 181.234 0.184533 0.713524 0
M  V30 1923 H 183.876 1.10872 1.54297 0
M  V30 1924 H 182.026 0.264274 3.876 0
M  V30 1925 H 183.698 2.86127 3.61841 0
M  V30 1926 H 181.941 2.74479 3.35922 0
M  V30 1927 H 182.612 2.42125 4.96064 0
M  V30 1928 H 185.088 0.696079 4.10236 0
M  V30 1929 H 183.964 0.477361 5.4682 0
M  V30 1930 H 184.225 -0.843293 4.33983 0
M  V30 1931 N 183.284 -1.43765 0.645699 0
M  V30 1932 C 184.531 -2.01898 0.15604 0
M  V30 1933 C 184.859 -1.50887 -1.22733 0
M  V30 1934 O 184.114 -0.689271 -1.8316 0
M  V30 1935 C 184.413 -3.57238 0.107679 0
M  V30 1936 C 184.079 -4.27564 1.43178 0
M  V30 1937 C 182.741 -4.46492 1.7944 0
M  V30 1938 C 185.093 -4.67454 2.30513 0
M  V30 1939 C 182.421 -5.02573 3.02716 0
M  V30 1940 C 184.773 -5.24901 3.53074 0
M  V30 1941 C 183.437 -5.42046 3.89541 0
M  V30 1942 H 182.707 -0.738797 0.057099 0
M  V30 1943 H 185.354 -1.72341 0.834912 0
M  V30 1944 H 183.659 -3.86293 -0.654618 0
M  V30 1945 H 185.356 -3.99965 -0.287938 0
M  V30 1946 H 181.946 -4.13171 1.13963 0
M  V30 1947 H 186.13 -4.5253 2.0379 0
M  V30 1948 H 181.386 -5.14033 3.31028 0
M  V30 1949 H 185.56 -5.54758 4.20971 0
M  V30 1950 H 183.187 -5.85268 4.85145 0
M  V30 1951 N 184.763 -0.387143 -1.52771 0
M  V30 1952 C 185.71 0.449048 -2.26389 0
M  V30 1953 C 186.68 1.05961 -1.27912 0
M  V30 1954 O 187.865 1.08804 -1.56737 0
M  V30 1955 C 185.005 1.57155 -3.0724 0
M  V30 1956 C 184.118 0.984066 -4.20643 0
M  V30 1957 C 183.253 2.07745 -4.88892 0
M  V30 1958 C 182.292 1.46574 -5.94292 0
M  V30 1959 N 181.429 2.49834 -6.56146 0
M  V30 1960 H 186.269 -0.185205 -2.97424 0
M  V30 1961 H 183.806 -0.103164 -1.46738 0
M  V30 1962 H 185.764 2.23309 -3.52405 0
M  V30 1963 H 184.394 2.17615 -2.38419 0
M  V30 1964 H 183.446 0.212193 -3.79808 0
M  V30 1965 H 184.758 0.497029 -4.96318 0
M  V30 1966 H 183.912 2.81673 -5.3735 0
M  V30 1967 H 182.651 2.59807 -4.12737 0
M  V30 1968 H 181.656 0.711696 -5.45174 0
M  V30 1969 H 182.881 0.953088 -6.72379 0
M  V30 1970 H 180.827 3.0107 -5.82832 0
M  V30 1971 H 180.744 2.05879 -7.27427 0
M  V30 1972 H 182.012 3.23399 -7.09249 0
M  V30 1973 N 186.241 1.57166 -0.116904 0
M  V30 1974 C 187.487 1.95412 0.542405 0
M  V30 1975 C 187.82 1.00019 1.66463 0
M  V30 1976 O 187.095 0.0370346 1.94465 0
M  V30 1977 C 187.378 3.43615 1.07708 0
M  V30 1978 C 187.231 4.49781 -0.0415868 0
M  V30 1979 C 188.55 3.93616 1.96861 0
M  V30 1980 H 185.669 0.710543 0.195696 0
M  V30 1981 H 188.311 1.89027 -0.192038 0
M  V30 1982 H 186.461 3.49187 1.70296 0
M  V30 1983 H 188.133 4.56308 -0.676793 0
M  V30 1984 H 186.376 4.28033 -0.705019 0
M  V30 1985 H 187.047 5.50733 0.373717 0
M  V30 1986 H 189.523 3.90335 1.44146 0
M  V30 1987 H 188.399 4.97838 2.3119 0
M  V30 1988 H 188.66 3.34188 2.89432 0
M  V30 1989 N 187.719 -0.156864 1.56817 0
M  V30 1990 C 189.135 -0.50916 1.5126 0
M  V30 1991 C 189.335 -1.83897 0.823658 0
M  V30 1992 O 188.391 -2.49469 0.390055 0
M  V30 1993 C 189.704 -0.52857 2.96018 0
M  V30 1994 C 191.252 -0.614771 3.06903 0
M  V30 1995 C 191.727 -0.664938 4.53147 0
M  V30 1996 N 193.218 -0.727433 4.57452 0
M  V30 1997 C 193.953 -0.787067 5.67973 0
M  V30 1998 N 193.449 -0.806649 6.88088 0
M  V30 1999 N 195.242 -0.827195 5.5598 0
M  V30 2000 H 187.393 0.714935 2.00006 0
M  V30 2001 H 189.656 0.259526 0.911784 0
M  V30 2002 H 189.362 0.380154 3.49639 0
M  V30 2003 H 189.236 -1.36998 3.51442 0
M  V30 2004 H 191.623 -1.51392 2.53307 0
M  V30 2005 H 191.704 0.253597 2.5454 0
M  V30 2006 H 191.348 0.230011 5.07379 0
M  V30 2007 H 191.278 -1.54966 5.03282 0
M  V30 2008 H 193.769 -0.719998 3.70978 0
M  V30 2009 H 194.082 -0.853727 7.6807 0
M  V30 2010 H 192.427 -0.774687 6.90669 0
M  V30 2011 H 195.618 -0.808998 4.61056 0
M  V30 2012 H 195.791 -0.870206 6.4213 0
M  V30 2013 N 189.197 -1.51736 -0.425897 0
M  V30 2014 C 190.422 -1.69082 -1.20108 0
M  V30 2015 C 190.847 -0.392398 -1.83962 0
M  V30 2016 O 190.205 0.64858 -1.69302 0
M  V30 2017 C 190.253 -2.81604 -2.25237 0
M  V30 2018 O 189.357 -2.46004 -3.30992 0
M  V30 2019 H 188.698 -0.563408 -0.35138 0
M  V30 2020 H 191.228 -1.98358 -0.501512 0
M  V30 2021 H 191.238 -3.06025 -2.69838 0
M  V30 2022 H 189.913 -3.75817 -1.78142 0
M  V30 2023 H 188.49 -2.32195 -2.91787 0
M  V30 2024 N 190.675 0.682077 -1.42076 0
M  V30 2025 C 191.622 1.79578 -1.44984 0
M  V30 2026 C 192.592 1.6332 -0.302614 0
M  V30 2027 O 193.777 1.83978 -0.505633 0
M  V30 2028 C 190.917 3.1756 -1.35091 0
M  V30 2029 C 190.03 3.45156 -2.59791 0
M  V30 2030 C 189.165 4.72826 -2.42093 0
M  V30 2031 C 188.204 4.93433 -3.62202 0
M  V30 2032 N 187.341 6.12338 -3.43491 0
M  V30 2033 H 192.181 1.76427 -2.40161 0
M  V30 2034 H 189.718 0.861376 -1.19242 0
M  V30 2035 H 191.676 3.97287 -1.27354 0
M  V30 2036 H 190.306 3.19854 -0.435133 0
M  V30 2037 H 189.358 2.59736 -2.77923 0
M  V30 2038 H 190.67 3.5628 -3.49094 0
M  V30 2039 H 189.824 5.60631 -2.319 0
M  V30 2040 H 188.563 4.63973 -1.50268 0
M  V30 2041 H 187.568 4.04073 -3.72834 0
M  V30 2042 H 188.793 5.04136 -4.54998 0
M  V30 2043 H 186.739 6.04672 -2.54377 0
M  V30 2044 H 186.656 6.2429 -4.26377 0
M  V30 2045 H 187.924 7.02841 -3.37097 0
M  V30 2046 N 192.153 1.28127 0.917671 0
M  V30 2047 C 193.063 1.13556 2.05286 0
M  V30 2048 C 194.079 0.0630914 1.73886 0
M  V30 2049 O 195.255 0.271598 1.9956 0
M  V30 2050 C 192.32 0.794676 3.3747 0
M  V30 2051 C 191.381 1.94909 3.82504 0
M  V30 2052 C 190.614 1.62437 5.0838 0
M  V30 2053 O 190.837 0.536905 5.67867 0
M  V30 2054 O 189.771 2.46677 5.4903 0
M  V30 2055 H 193.597 2.08844 2.20495 0
M  V30 2056 H 191.182 1.07409 1.03845 0
M  V30 2057 H 193.064 0.618344 4.16839 0
M  V30 2058 H 191.739 -0.128581 3.23445 0
M  V30 2059 H 190.646 2.18055 3.03978 0
M  V30 2060 H 191.979 2.85291 4.01086 0
M  V30 2061 N 193.631 -1.12557 1.10312 0
M  V30 2062 C 194.908 -1.80363 0.756878 0
M  V30 2063 C 195.288 -1.97067 -0.756824 0
M  V30 2064 O 194.636 -1.54601 -1.68259 0
M  V30 2065 C 194.846 -3.14812 1.50647 0
M  V30 2066 C 196.194 -3.90029 1.67817 0
M  V30 2067 O 197.218 -3.24464 1.46974 0
M  V30 2068 O 196.077 -5.07652 2.02365 0
M  V30 2069 H 193.171 -0.780667 0.272926 0
M  V30 2070 H 195.717 -1.19404 1.20586 0
M  V30 2071 H 194.489 -2.97936 2.53672 0
M  V30 2072 H 194.112 -3.83478 1.05026 0
M  V30 2073 N 195.109 -0.891671 -1.2995 0
M  V30 2074 C 196.357 -0.512486 -1.95494 0
M  V30 2075 C 196.678 0.942776 -1.70695 0
M  V30 2076 O 195.948 1.66374 -1.03424 0
M  V30 2077 H 194.528 -0.186533 -0.723336 0
M  V30 2078 H 197.19 -1.13621 -1.58355 0
M  V30 2079 H 196.286 -0.688342 -3.04415 0
M  V30 2080 N 196.587 1.43421 -0.653314 0
M  V30 2081 C 198.003 1.56341 -0.320886 0
M  V30 2082 C 198.203 1.63696 1.17499 0
M  V30 2083 O 197.259 1.59208 1.95982 0
M  V30 2084 C 198.572 2.82424 -1.03233 0
M  V30 2085 C 200.12 2.96168 -1.01259 0
M  V30 2086 C 200.595 4.25084 -1.70492 0
M  V30 2087 N 202.086 4.31948 -1.67257 0
M  V30 2088 C 202.821 5.30466 -2.17701 0
M  V30 2089 N 202.317 6.35261 -2.76434 0
M  V30 2090 N 204.11 5.2212 -2.082 0
M  V30 2091 H 196.261 1.3689 -1.62403 0
M  V30 2092 H 198.524 0.657455 -0.682977 0
M  V30 2093 H 198.23 2.83053 -2.08744 0
M  V30 2094 H 198.104 3.72653 -0.583948 0
M  V30 2095 H 200.491 2.9508 0.0341235 0
M  V30 2096 H 200.572 2.07229 -1.49966 0
M  V30 2097 H 200.216 4.26932 -2.7512 0
M  V30 2098 H 200.146 5.1292 -1.19251 0
M  V30 2099 H 202.637 3.56838 -1.24398 0
M  V30 2100 H 202.95 7.06754 -3.12601 0
M  V30 2101 H 201.295 6.35884 -2.80495 0
M  V30 2102 H 204.486 4.39166 -1.62021 0
M  V30 2103 H 204.659 5.98739 -2.47822 0
M  V30 2104 N 198.065 0.39524 1.52563 0
M  V30 2105 C 198.995 -0.428384 2.29537 0
M  V30 2106 C 199.976 -1.05831 1.33169 0
M  V30 2107 O 201.161 -1.06995 1.62067 0
M  V30 2108 C 198.291 -1.55274 3.10656 0
M  V30 2109 C 197.245 -1.04855 4.14957 0
M  V30 2110 C 196.571 -2.26543 4.84337 0
M  V30 2111 C 197.871 -0.112324 5.22179 0
M  V30 2112 H 199.565 0.213867 2.98635 0
M  V30 2113 H 197.111 0.104298 1.43622 0
M  V30 2114 H 199.064 -2.1358 3.63265 0
M  V30 2115 H 197.788 -2.22266 2.39302 0
M  V30 2116 H 196.447 -0.487985 3.63338 0
M  V30 2117 H 196.095 -2.92059 4.09525 0
M  V30 2118 H 195.795 -1.93466 5.54837 0
M  V30 2119 H 197.319 -2.85481 5.39753 0
M  V30 2120 H 198.733 -0.603752 5.70112 0
M  V30 2121 H 197.13 0.128968 5.99961 0
M  V30 2122 H 198.2 0.837052 4.77621 0
M  V30 2123 N 199.544 -1.57102 0.125237 0
M  V30 2124 C 200.774 -1.99472 -0.538015 0
M  V30 2125 C 201.182 -1.00395 -1.60366 0
M  V30 2126 O 200.525 0.0103875 -1.83697 0
M  V30 2127 C 200.587 -3.38262 -1.21734 0
M  V30 2128 C 200.251 -4.56021 -0.298897 0
M  V30 2129 C 201.248 -5.17817 0.464943 0
M  V30 2130 C 198.933 -5.01869 -0.208149 0
M  V30 2131 C 200.927 -6.23852 1.3072 0
M  V30 2132 C 198.614 -6.07763 0.637736 0
M  V30 2133 C 199.612 -6.68622 1.39403 0
M  V30 2134 O 199.3 -7.7247 2.22586 0
M  V30 2135 H 199.032 -0.659934 -0.146501 0
M  V30 2136 H 201.586 -2.04321 0.210267 0
M  V30 2137 H 199.816 -3.30185 -2.01282 0
M  V30 2138 H 201.505 -3.6488 -1.77813 0
M  V30 2139 H 202.271 -4.83308 0.404741 0
M  V30 2140 H 198.15 -4.54241 -0.786522 0
M  V30 2141 H 201.694 -6.71284 1.898 0
M  V30 2142 H 197.591 -6.41701 0.699309 0
M  V30 2143 H 198.359 -7.89595 2.15596 0
M  V30 2144 N 201.022 0.148545 -1.56898 0
M  V30 2145 C 201.985 1.16736 -1.97244 0
M  V30 2146 C 202.985 1.35947 -0.858777 0
M  V30 2147 O 204.175 1.32966 -1.12542 0
M  V30 2148 C 201.307 2.52798 -2.28705 0
M  V30 2149 H 202.5 0.821279 -2.88435 0
M  V30 2150 H 200.053 0.391831 -1.51309 0
M  V30 2151 H 200.788 2.92381 -1.403 0
M  V30 2152 H 200.573 2.40216 -3.09901 0
M  V30 2153 H 202.063 3.26179 -2.60762 0
M  V30 2154 N 202.5 1.5196 0.417844 0
M  V30 2155 C 203.746 1.65836 1.16732 0
M  V30 2156 C 204.079 0.382881 1.90388 0
M  V30 2157 O 203.354 -0.618368 1.84408 0
M  V30 2158 C 203.637 2.87466 2.16876 0
M  V30 2159 C 203.49 4.25041 1.47174 0
M  V30 2160 C 204.809 3.04613 3.17646 0
M  V30 2161 H 201.928 0.603515 0.423011 0
M  V30 2162 H 204.57 1.84494 0.454105 0
M  V30 2163 H 202.72 2.71689 2.777 0
M  V30 2164 H 204.392 4.52527 0.895376 0
M  V30 2165 H 202.635 4.26843 0.773806 0
M  V30 2166 H 203.306 5.06176 2.20204 0
M  V30 2167 H 205.782 3.1923 2.66892 0
M  V30 2168 H 204.658 3.91247 3.8499 0
M  V30 2169 H 204.919 2.17541 3.84874 0
M  V30 2170 N 203.978 -0.674533 1.42435 0
M  V30 2171 C 204.925 -1.78807 1.45934 0
M  V30 2172 C 205.895 -1.63157 0.311271 0
M  V30 2173 O 207.08 -1.83707 0.515383 0
M  V30 2174 C 204.22 -3.16839 1.36773 0
M  V30 2175 C 203.333 -3.43774 2.61617 0
M  V30 2176 C 202.468 -4.71536 2.44597 0
M  V30 2177 C 201.507 -4.91505 3.64814 0
M  V30 2178 N 200.644 -6.10508 3.46734 0
M  V30 2179 H 205.484 -1.75151 2.41093 0
M  V30 2180 H 203.021 -0.85504 1.19697 0
M  V30 2181 H 204.979 -3.96606 1.29459 0
M  V30 2182 H 203.609 -3.19619 0.452089 0
M  V30 2183 H 202.661 -2.58259 2.79297 0
M  V30 2184 H 203.973 -3.54423 3.50978 0
M  V30 2185 H 203.127 -5.59393 2.3487 0
M  V30 2186 H 201.866 -4.6317 1.52726 0
M  V30 2187 H 200.871 -4.0209 3.74972 0
M  V30 2188 H 202.096 -5.01716 4.57665 0
M  V30 2189 H 200.042 -6.03315 2.5758 0
M  V30 2190 H 199.959 -6.2202 4.29682 0
M  V30 2191 H 201.227 -7.01044 3.40819 0
M  V30 2192 N 205.456 -1.28612 -0.910864 0
M  V30 2193 C 206.872 -1.06381 -1.18976 0
M  V30 2194 C 207.072 0.191998 -2.00583 0
M  V30 2195 O 206.128 0.892869 -2.36187 0
M  V30 2196 C 207.441 -2.31295 -1.92154 0
M  V30 2197 C 208.989 -2.36503 -2.05025 0
M  V30 2198 C 209.464 -3.61191 -2.81612 0
M  V30 2199 N 210.955 -3.61847 -2.89172 0
M  V30 2200 C 211.69 -4.55004 -3.4894 0
M  V30 2201 N 211.186 -5.58482 -4.09963 0
M  V30 2202 N 212.979 -4.42594 -3.46506 0
M  V30 2203 H 205.13 -2.09221 -0.366094 0
M  V30 2204 H 207.393 -0.921003 -0.224629 0
M  V30 2205 H 207.099 -3.228 -1.39618 0
M  V30 2206 H 206.973 -2.37934 -2.9269 0
M  V30 2207 H 209.36 -1.45494 -2.5674 0
M  V30 2208 H 209.441 -2.33857 -1.03657 0
M  V30 2209 H 209.085 -4.52545 -2.30576 0
M  V30 2210 H 209.015 -3.61092 -3.83302 0
M  V30 2211 H 211.506 -2.87022 -2.45819 0
M  V30 2212 H 211.819 -6.25704 -4.53557 0
M  V30 2213 H 210.164 -5.62305 -4.08459 0
M  V30 2214 H 213.355 -3.60953 -2.98045 0
M  V30 2215 H 213.528 -5.15381 -3.92793 0
M  V30 2216 N 206.934 1.1197 -1.10907 0
M  V30 2217 C 208.159 1.87942 -0.877064 0
M  V30 2218 C 208.584 1.79341 0.567314 0
M  V30 2219 O 207.942 1.15184 1.40009 0
M  V30 2220 C 207.99 3.34926 -1.33629 0
M  V30 2221 O 207.094 4.09303 -0.504447 0
M  V30 2222 H 206.435 0.583785 -0.316371 0
M  V30 2223 H 208.965 1.4157 -1.47712 0
M  V30 2224 H 208.975 3.8577 -1.32837 0
M  V30 2225 H 207.65 3.40504 -2.3881 0
M  V30 2226 H 206.227 3.68393 -0.577993 0
M  V30 2227 N 208.412 0.89855 1.29475 0
M  V30 2228 C 209.345 0.319981 2.25945 0
M  V30 2229 C 210.323 -0.567189 1.52387 0
M  V30 2230 O 211.507 -0.514254 1.8135 0
M  V30 2231 C 208.634 -0.544013 3.34303 0
M  V30 2232 C 207.68 0.275682 4.25608 0
M  V30 2233 S 208.513 1.67272 5.08704 0
M  V30 2234 C 209.669 0.815621 6.20563 0
M  V30 2235 H 209.902 1.13767 2.74671 0
M  V30 2236 H 207.435 0.69882 1.3768 0
M  V30 2237 H 209.393 -1.03673 3.97193 0
M  V30 2238 H 208.054 -1.33593 2.84274 0
M  V30 2239 H 207.247 -0.384263 5.02533 0
M  V30 2240 H 206.849 0.701496 3.67362 0
M  V30 2241 H 209.141 0.0385042 6.77489 0
M  V30 2242 H 210.084 1.55691 6.90772 0
M  V30 2243 H 210.492 0.370516 5.63283 0
M  V30 2244 N 209.89 -1.43072 0.660911 0
M  V30 2245 C 211.115 -2.06584 0.183805 0
M  V30 2246 C 211.54 -1.49257 -1.14472 0
M  V30 2247 O 210.898 -0.605528 -1.70889 0
M  V30 2248 C 210.946 -3.60418 0.114434 0
M  V30 2249 O 210.05 -4.01981 -0.921137 0
M  V30 2250 H 209.391 -0.656669 0.0983994 0
M  V30 2251 H 211.921 -1.83447 0.906006 0
M  V30 2252 H 211.931 -4.07946 -0.0663394 0
M  V30 2253 H 210.606 -4.01519 1.08422 0
M  V30 2254 H 209.183 -3.66029 -0.71253 0
M  V30 2255 N 211.368 -0.403325 -1.52352 0
M  V30 2256 C 212.779 0.0675782 -1.86578 0
M  V30 2257 C 213.13 1.44941 -1.32236 0
M  V30 2258 O 212.255 2.06112 -0.659307 0
M  V30 2259 C 212.85 0.129404 -3.38553 0
M  V30 2260 C 211.409 0.544629 -3.72439 0
M  V30 2261 C 210.556 -0.284551 -2.75836 0
M  V30 2262 H 213.507 -0.620631 -1.46061 0
M  V30 2263 H 213.528 0.94581 -3.68558 0
M  V30 2264 H 213.04 -0.87645 -3.78074 0
M  V30 2265 H 211.141 1.55734 -3.38493 0
M  V30 2266 H 211.254 0.293046 -4.78203 0
M  V30 2267 H 209.618 0.252258 -2.53448 0
M  V30 2268 H 210.401 -1.28865 -3.18196 0
M  V30 2269 N 212.846 1.57033 -0.133567 0
M  V30 2270 C 214.093 1.95686 0.520877 0
M  V30 2271 C 214.421 1.0177 1.6575 0
M  V30 2272 O 213.676 0.0443195 1.9565 0
M  V30 2273 C 213.975 3.40674 1.08057 0
M  V30 2274 C 213.641 4.50855 0.0637899 0
M  V30 2275 C 212.303 4.80716 -0.215757 0
M  V30 2276 C 214.655 5.17398 -0.62835 0
M  V30 2277 C 211.983 5.74433 -1.19348 0
M  V30 2278 C 214.335 6.12167 -1.5948 0
M  V30 2279 C 212.999 6.40414 -1.88218 0
M  V30 2280 H 212.269 0.716067 0.190602 0
M  V30 2281 H 214.916 1.9026 -0.217556 0
M  V30 2282 H 213.221 3.42865 1.89606 0
M  V30 2283 H 214.918 3.67902 1.59529 0
M  V30 2284 H 211.508 4.27605 0.291855 0
M  V30 2285 H 215.692 4.94472 -0.425562 0
M  V30 2286 H 210.948 5.94616 -1.42272 0
M  V30 2287 H 215.122 6.6281 -2.13671 0
M  V30 2288 H 212.749 7.12838 -2.64133 0
M  V30 2289 N 214.325 -0.140222 1.56975 0
M  V30 2290 C 215.741 -0.493088 1.51792 0
M  V30 2291 C 215.941 -1.83013 0.843116 0
M  V30 2292 O 214.997 -2.49041 0.416493 0
M  V30 2293 C 216.31 -0.497144 2.96562 0
M  V30 2294 C 217.858 -0.582186 3.07538 0
M  V30 2295 C 218.333 -0.616838 4.53827 0
M  V30 2296 N 219.824 -0.678873 4.58198 0
M  V30 2297 C 220.559 -0.726782 5.68775 0
M  V30 2298 N 220.055 -0.733623 6.88905 0
M  V30 2299 N 221.848 -0.768179 5.56826 0
M  V30 2300 H 213.999 0.736108 1.99237 0
M  V30 2301 H 216.262 0.269182 0.90898 0
M  V30 2302 H 215.968 0.417217 3.49217 0
M  V30 2303 H 215.842 -1.33263 3.52875 0
M  V30 2304 H 218.229 -1.48697 2.54899 0
M  V30 2305 H 218.31 0.280581 2.54257 0
M  V30 2306 H 217.954 0.283812 5.07106 0
M  V30 2307 H 217.884 -1.49619 5.04898 0
M  V30 2308 H 220.375 -0.68061 3.7172 0
M  V30 2309 H 220.688 -0.772215 7.68932 0
M  V30 2310 H 219.033 -0.701389 6.91452 0
M  V30 2311 H 222.224 -0.760051 4.61888 0
M  V30 2312 H 222.397 -0.80205 6.43017 0
M  V30 2313 N 215.803 -1.52179 -0.40978 0
M  V30 2314 C 217.051 -1.65878 -1.15451 0
M  V30 2315 C 217.372 -0.390771 -1.91044 0
M  V30 2316 O 216.642 0.594323 -1.86667 0
M  V30 2317 H 215.222 -0.611405 -0.429177 0
M  V30 2318 H 217.884 -1.89219 -0.467134 0
M  V30 2319 H 216.98 -2.49954 -1.86894 0
M  V30 2320 N 217.281 0.66697 -1.42791 0
M  V30 2321 C 218.692 1.2478 -1.38877 0
M  V30 2322 C 219.043 1.96012 -0.0859426 0
M  V30 2323 O 218.168 2.00463 0.815081 0
M  V30 2324 C 218.763 2.26938 -2.51564 0
M  V30 2325 C 217.322 2.80529 -2.50959 0
M  V30 2326 C 216.469 1.54965 -2.29959 0
M  V30 2327 H 219.42 0.459853 -1.51892 0
M  V30 2328 H 219.441 3.08834 -2.22265 0
M  V30 2329 H 218.953 1.75065 -3.46372 0
M  V30 2330 H 217.054 3.36502 -1.59991 0
M  V30 2331 H 217.167 3.29012 -3.48265 0
M  V30 2332 H 215.531 1.81817 -1.78366 0
M  V30 2333 H 216.314 1.05047 -3.26833 0
M  V30 2334 N 218.759 1.29093 0.90403 0
M  V30 2335 C 219.706 1.13853 2.00764 0
M  V30 2336 C 220.676 0.0330084 1.66067 0
M  V30 2337 O 221.861 0.199733 1.89752 0
M  V30 2338 C 219.001 0.816537 3.35301 0
M  V30 2339 C 218.114 2.00206 3.82807 0
M  V30 2340 C 217.249 1.61983 5.059 0
M  V30 2341 C 216.288 2.77143 5.45764 0
M  V30 2342 N 215.425 2.39346 6.60044 0
M  V30 2343 H 220.265 2.08276 2.13132 0
M  V30 2344 H 217.802 1.03648 1.04381 0
M  V30 2345 H 219.76 0.610557 4.12708 0
M  V30 2346 H 218.39 -0.090779 3.22672 0
M  V30 2347 H 217.442 2.31988 3.01473 0
M  V30 2348 H 218.754 2.86512 4.08304 0
M  V30 2349 H 217.908 1.37649 5.90879 0
M  V30 2350 H 216.647 0.728202 4.82233 0
M  V30 2351 H 215.652 3.02165 4.59322 0
M  V30 2352 H 216.877 3.66964 5.71414 0
M  V30 2353 H 214.823 1.52665 6.37989 0
M  V30 2354 H 214.74 3.19185 6.85315 0
M  V30 2355 H 216.008 2.1832 7.48303 0
M  V30 2356 N 220.237 -1.11381 1.11499 0
M  V30 2357 C 221.514 -1.7955 0.775965 0
M  V30 2358 C 221.894 -1.97859 -0.73588 0
M  V30 2359 O 221.242 -1.56376 -1.66609 0
M  V30 2360 C 221.452 -3.13196 1.53977 0
M  V30 2361 C 222.8 -3.88227 1.71944 0
M  V30 2362 O 223.824 -3.22887 1.50407 0
M  V30 2363 O 222.683 -5.05477 2.07738 0
M  V30 2364 H 219.777 -0.777728 0.28119 0
M  V30 2365 H 222.323 -1.18118 1.21845 0
M  V30 2366 H 221.095 -2.95229 2.56818 0
M  V30 2367 H 220.718 -3.82342 1.09088 0
M  V30 2368 N 221.715 -0.905404 -1.28997 0
M  V30 2369 C 223.131 -0.60233 -1.47798 0
M  V30 2370 C 223.331 0.854645 -1.82478 0
M  V30 2371 O 222.387 1.63439 -1.92468 0
M  V30 2372 C 223.7 -1.53306 -2.58685 0
M  V30 2373 C 225.248 -1.53887 -2.72558 0
M  V30 2374 C 225.723 -2.45602 -3.86579 0
M  V30 2375 N 227.214 -2.43681 -3.93921 0
M  V30 2376 C 227.949 -3.11347 -4.81509 0
M  V30 2377 N 227.445 -3.88313 -5.73746 0
M  V30 2378 N 229.238 -3.00476 -4.75048 0
M  V30 2379 H 221.389 -1.84765 -1.04764 0
M  V30 2380 H 223.652 -0.792025 -0.520961 0
M  V30 2381 H 223.358 -2.57141 -2.39941 0
M  V30 2382 H 223.232 -1.25787 -3.55609 0
M  V30 2383 H 225.619 -0.507941 -2.90696 0
M  V30 2384 H 225.7 -1.85447 -1.76191 0
M  V30 2385 H 225.344 -3.48792 -3.69197 0
M  V30 2386 H 225.274 -2.11349 -4.82327 0
M  V30 2387 H 227.765 -1.87767 -3.27951 0
M  V30 2388 H 228.078 -4.36985 -6.37389 0
M  V30 2389 H 226.423 -3.92419 -5.73614 0
M  V30 2390 H 229.614 -2.39858 -4.01977 0
M  V30 2391 H 229.787 -3.53485 -5.43095 0
M  V30 2392 N 223.193 1.4272 -0.668489 0
M  V30 2393 C 224.156 2.292 0.00448567 0
M  V30 2394 C 225.156 1.43001 0.735339 0
M  V30 2395 O 226.346 1.64461 0.57429 0
M  V30 2396 C 223.478 3.25375 1.01705 0
M  V30 2397 H 224.671 2.90199 -0.756608 0
M  V30 2398 H 222.224 1.50254 -0.430506 0
M  V30 2399 H 222.959 2.69301 1.80686 0
M  V30 2400 H 222.744 3.88944 0.496463 0
M  V30 2401 H 224.234 3.90245 1.48655 0
M  V30 2402 N 224.671 0.411399 1.52136 0
M  V30 2403 C 226.087 0.0623865 1.59478 0
M  V30 2404 C 226.287 -1.42554 1.4241 0
M  V30 2405 O 225.343 -2.19263 1.2522 0
M  V30 2406 C 226.656 0.559331 2.95452 0
M  V30 2407 C 228.204 0.517503 3.08692 0
M  V30 2408 C 228.679 0.990994 4.4715 0
M  V30 2409 N 230.17 0.947908 4.53397 0
M  V30 2410 C 230.905 1.28544 5.58806 0
M  V30 2411 N 230.401 1.69454 6.71757 0
M  V30 2412 N 232.194 1.20526 5.49026 0
M  V30 2413 H 224.345 1.37982 1.61477 0
M  V30 2414 H 226.608 0.566977 0.759764 0
M  V30 2415 H 226.314 1.59938 3.1323 0
M  V30 2416 H 226.188 -0.0298014 3.77188 0
M  V30 2417 H 228.575 -0.513505 2.90598 0
M  V30 2418 H 228.656 1.14272 2.28857 0
M  V30 2419 H 228.3 2.02034 4.65988 0
M  V30 2420 H 228.23 0.34257 5.25485 0
M  V30 2421 H 230.721 0.647157 3.72317 0
M  V30 2422 H 231.034 1.93513 7.48179 0
M  V30 2423 H 229.379 1.73359 6.73032 0
M  V30 2424 H 232.57 0.884505 4.59667 0
M  V30 2425 H 232.743 1.47161 6.31069 0
M  V30 2426 N 226.149 -1.5696 0.141893 0
M  V30 2427 C 227.096 -2.16501 -0.799737 0
M  V30 2428 C 228.066 -1.09643 -1.24771 0
M  V30 2429 O 229.251 -1.3766 -1.32115 0
M  V30 2430 C 226.391 -2.78679 -2.03549 0
M  V30 2431 C 225.504 -3.99914 -1.6338 0
M  V30 2432 C 224.639 -4.50106 -2.82096 0
M  V30 2433 C 223.678 -5.63819 -2.38275 0
M  V30 2434 N 222.815 -6.08651 -3.49983 0
M  V30 2435 H 227.655 -2.96632 -0.285179 0
M  V30 2436 H 225.192 -1.46533 -0.129053 0
M  V30 2437 H 227.15 -3.1287 -2.75986 0
M  V30 2438 H 225.78 -2.012 -2.52425 0
M  V30 2439 H 224.832 -3.71735 -0.807279 0
M  V30 2440 H 226.144 -4.82311 -1.27192 0
M  V30 2441 H 225.298 -4.86325 -3.62729 0
M  V30 2442 H 224.037 -3.66706 -3.21525 0
M  V30 2443 H 223.042 -5.2718 -1.56081 0
M  V30 2444 H 224.267 -6.49 -1.99938 0
M  V30 2445 H 222.213 -5.28188 -3.89042 0
M  V30 2446 H 222.13 -6.85961 -3.17794 0
M  V30 2447 H 223.398 -6.49515 -4.30988 0
M  V30 2448 N 227.627 0.131896 -1.57047 0
M  V30 2449 C 228.557 1.16384 -2.02428 0
M  V30 2450 C 229.538 1.43936 -0.90644 0
M  V30 2451 O 230.723 1.54599 -1.17528 0
M  V30 2452 C 227.853 2.49328 -2.4177 0
M  V30 2453 C 226.807 2.36266 -3.56879 0
M  V30 2454 C 226.133 3.74057 -3.8208 0
M  V30 2455 C 227.433 1.834 -4.89042 0
M  V30 2456 H 229.127 0.786433 -2.88887 0
M  V30 2457 H 226.673 0.376855 -1.38981 0
M  V30 2458 H 228.626 3.21759 -2.7212 0
M  V30 2459 H 227.35 2.88934 -1.52266 0
M  V30 2460 H 226.009 1.66286 -3.26718 0
M  V30 2461 H 225.657 4.11125 -2.89803 0
M  V30 2462 H 225.357 3.66174 -4.59554 0
M  V30 2463 H 226.881 4.48012 -4.1487 0
M  V30 2464 H 228.295 2.45636 -5.18011 0
M  V30 2465 H 226.692 1.8637 -5.70426 0
M  V30 2466 H 227.762 0.790662 -4.7841 0
M  V30 2467 N 229.106 1.52395 0.401703 0
M  V30 2468 C 230.069 1.75636 1.47257 0
M  V30 2469 C 231.069 0.62628 1.48103 0
M  V30 2470 O 232.259 0.894227 1.49497 0
M  V30 2471 C 229.391 1.84553 2.86624 0
M  V30 2472 H 230.584 2.71241 1.27938 0
M  V30 2473 H 228.137 1.42923 0.632662 0
M  V30 2474 H 228.872 0.908882 3.11303 0
M  V30 2475 H 228.657 2.66715 2.87412 0
M  V30 2476 H 230.147 2.04251 3.64241 0
M  V30 2477 N 230.584 -0.659388 1.43143 0
M  V30 2478 C 231.494 -1.80167 1.50256 0
M  V30 2479 C 232.51 -1.69571 0.390106 0
M  V30 2480 O 233.686 -1.90849 0.643319 0
M  V30 2481 C 230.751 -3.16409 1.41725 0
M  V30 2482 C 229.812 -3.38848 2.63591 0
M  V30 2483 C 229.045 -4.68591 2.55458 0
M  V30 2484 O 229.268 -5.47532 1.59891 0
M  V30 2485 O 228.202 -4.92614 3.45854 0
M  V30 2486 H 232.028 -1.77121 2.46702 0
M  V30 2487 H 229.613 -0.817092 1.25076 0
M  V30 2488 H 231.495 -3.9768 1.39387 0
M  V30 2489 H 230.17 -3.20059 0.484118 0
M  V30 2490 H 229.077 -2.57366 2.71502 0
M  V30 2491 H 230.41 -3.4004 3.55856 0
M  V30 2492 N 232.062 -1.29571 -0.897171 0
M  V30 2493 C 233.308 -1.17863 -1.65034 0
M  V30 2494 C 233.641 0.268729 -1.92332 0
M  V30 2495 O 232.916 1.19378 -1.53555 0
M  V30 2496 C 233.199 -1.995 -2.99786 0
M  V30 2497 C 233.052 -3.5239 -2.79538 0
M  V30 2498 C 234.371 -1.82335 -4.00552 0
M  V30 2499 H 231.49 -0.429528 -0.598895 0
M  V30 2500 H 234.132 -1.59072 -1.03905 0
M  V30 2501 H 232.282 -1.64485 -3.51962 0
M  V30 2502 H 233.954 -3.97401 -2.34244 0
M  V30 2503 H 232.197 -3.77187 -2.14273 0
M  V30 2504 H 232.868 -4.04787 -3.75302 0
M  V30 2505 H 235.344 -2.12924 -3.57495 0
M  V30 2506 H 234.22 -2.41801 -4.92771 0
M  V30 2507 H 234.481 -0.779209 -4.35179 0
M  V30 2508 N 233.54 1.10788 -1.12088 0
M  V30 2509 C 234.788 1.8231 -0.872205 0
M  V30 2510 C 235.109 1.85419 0.603709 0
M  V30 2511 O 234.379 1.32963 1.43867 0
M  V30 2512 H 232.959 0.675137 -0.319686 0
M  V30 2513 H 235.621 1.34068 -1.41463 0
M  V30 2514 H 234.717 2.85955 -1.25045 0
M  V30 2515 N 235.018 0.912232 1.28515 0
M  V30 2516 C 236.243 0.559774 1.99703 0
M  V30 2517 C 236.668 -0.851393 1.67729 0
M  V30 2518 O 236.026 -1.56875 0.908834 0
M  V30 2519 C 236.074 0.773874 3.52198 0
M  V30 2520 O 235.178 -0.167842 4.12058 0
M  V30 2521 H 234.519 0.21723 0.627461 0
M  V30 2522 H 237.049 1.22725 1.63706 0
M  V30 2523 H 237.059 0.683386 4.02236 0
M  V30 2524 H 235.734 1.80261 3.74805 0
M  V30 2525 H 234.311 -0.0287509 3.72889 0
M  V30 2526 N 236.496 -1.42363 0.676048 0
M  V30 2527 C 237.446 -2.27987 -0.0242903 0
M  V30 2528 C 238.43 -1.41153 -0.772319 0
M  V30 2529 O 239.622 -1.64592 -0.651025 0
M  V30 2530 C 236.751 -3.29195 -0.973953 0
M  V30 2531 C 235.837 -4.23512 -0.223202 0
M  V30 2532 N 236.228 -4.99865 0.772589 0
M  V30 2533 C 234.526 -4.43606 -0.461469 0
M  V30 2534 C 235.227 -5.68757 1.22027 0
M  V30 2535 N 234.203 -5.40811 0.549975 0
M  V30 2536 H 238.005 -2.84445 0.73949 0
M  V30 2537 H 235.519 -1.54341 0.50522 0
M  V30 2538 H 237.516 -3.89339 -1.49067 0
M  V30 2539 H 236.176 -2.74298 -1.73755 0
M  V30 2540 H 237.187 -5.04921 1.15217 0
M  V30 2541 H 233.864 -3.99749 -1.20446 0
M  V30 2542 H 235.254 -6.40007 2.0455 0
M  V30 2543 N 237.974 -0.419461 -1.51915 0
M  V30 2544 C 238.884 0.407528 -2.31033 0
M  V30 2545 C 239.9 1.04413 -1.3919 0
M  V30 2546 O 241.076 1.0434 -1.72265 0
M  V30 2547 C 238.141 1.50365 -3.12396 0
M  V30 2548 C 237.202 0.889029 -4.19994 0
M  V30 2549 C 236.435 1.93291 -4.97468 0
M  V30 2550 O 236.658 3.15259 -4.75361 0
M  V30 2551 O 235.592 1.53339 -5.8204 0
M  V30 2552 H 239.418 -0.237865 -3.02767 0
M  V30 2553 H 237.003 -0.182413 -1.48282 0
M  V30 2554 H 238.885 2.13975 -3.63032 0
M  V30 2555 H 237.56 2.13345 -2.43445 0
M  V30 2556 H 236.467 0.215353 -3.7348 0
M  V30 2557 H 237.8 0.302991 -4.91267 0
M  V30 2558 N 239.452 1.56882 -0.150215 0
M  V30 2559 C 240.399 2.16922 0.788244 0
M  V30 2560 C 241.369 1.10303 1.24187 0
M  V30 2561 O 242.554 1.38359 1.31383 0
M  V30 2562 C 239.694 2.79754 2.02068 0
M  V30 2563 C 238.807 4.00775 1.61257 0
M  V30 2564 C 237.942 4.51595 2.79705 0
M  V30 2565 C 236.981 5.65074 2.35282 0
M  V30 2566 N 236.118 6.10499 3.4675 0
M  V30 2567 H 240.958 2.96779 0.269444 0
M  V30 2568 H 238.495 1.46599 0.12128 0
M  V30 2569 H 240.453 3.14329 2.74323 0
M  V30 2570 H 239.083 2.02536 2.51354 0
M  V30 2571 H 238.135 3.72158 0.787553 0
M  V30 2572 H 239.447 4.82978 1.24633 0
M  V30 2573 H 238.601 4.88242 3.60145 0
M  V30 2574 H 237.34 3.68406 3.19576 0
M  V30 2575 H 236.345 5.28 1.53283 0
M  V30 2576 H 237.57 6.50052 1.96493 0
M  V30 2577 H 235.516 5.30243 3.86236 0
M  V30 2578 H 235.433 6.87637 3.14152 0
M  V30 2579 H 236.701 6.51791 4.27537 0
M  V30 2580 N 240.93 -0.123565 1.57115 0
M  V30 2581 C 242.176 -0.833386 1.84885 0
M  V30 2582 C 242.509 -1.79742 0.735292 0
M  V30 2583 O 241.784 -1.92764 -0.25925 0
M  V30 2584 C 242.067 -1.5873 3.23228 0
M  V30 2585 C 241.92 -0.643183 4.45178 0
M  V30 2586 C 243.239 -2.54453 3.59085 0
M  V30 2587 H 240.358 -0.301518 0.6725 0
M  V30 2588 H 243 -0.097778 1.89748 0
M  V30 2589 H 241.15 -2.21438 3.19214 0
M  V30 2590 H 242.822 -0.0253015 4.61293 0
M  V30 2591 H 241.065 0.0456139 4.33776 0
M  V30 2592 H 241.736 -1.20724 5.38637 0
M  V30 2593 H 244.212 -2.01853 3.63861 0
M  V30 2594 H 243.088 -3.04238 4.5687 0
M  V30 2595 H 243.349 -3.36906 2.86264 0
M  V30 2596 N 242.408 -1.52605 -0.393616 0
M  V30 2597 C 243.656 -1.67093 -1.13685 0
M  V30 2598 C 243.977 -0.411011 -1.90619 0
M  V30 2599 O 243.247 0.574491 -1.87287 0
M  V30 2600 H 241.827 -0.615923 -0.422668 0
M  V30 2601 H 244.489 -1.89704 -0.447039 0
M  V30 2602 H 243.585 -2.51922 -1.84232 0
M  V30 2603 N 243.887 0.651787 -1.4349 0
M  V30 2604 C 244.819 1.77725 -1.44729 0
M  V30 2605 C 245.832 1.59141 -0.343231 0
M  V30 2606 O 247.021 1.67835 -0.607751 0
M  V30 2607 C 244.121 3.15172 -1.24579 0
M  V30 2608 C 243.294 3.60402 -2.47849 0
M  V30 2609 C 242.353 4.76656 -2.22902 0
M  V30 2610 O 241.379 4.86022 -2.96263 0
M  V30 2611 N 242.581 5.66958 -1.24656 0
M  V30 2612 H 245.346 1.77141 -2.41746 0
M  V30 2613 H 242.907 0.835678 -1.38665 0
M  V30 2614 H 244.899 3.90634 -1.0577 0
M  V30 2615 H 243.469 3.1052 -0.360015 0
M  V30 2616 H 242.689 2.75369 -2.82073 0
M  V30 2617 H 243.977 3.87368 -3.29884 0
M  V30 2618 H 243.375 5.62065 -0.640265 0
M  V30 2619 H 241.932 6.42135 -1.1183 0
M  V30 2620 N 245.365 1.30045 0.890287 0
M  V30 2621 C 246.315 1.12592 1.9826 0
M  V30 2622 C 247.299 0.0426021 1.60844 0
M  V30 2623 O 248.491 0.265346 1.75 0
M  V30 2624 C 245.62 0.814301 3.33503 0
M  V30 2625 C 244.706 1.93761 3.7725 0
M  V30 2626 N 245.097 3.18232 3.93143 0
M  V30 2627 C 243.395 1.83277 4.06602 0
M  V30 2628 C 244.096 3.9158 4.30163 0
M  V30 2629 N 243.072 3.19591 4.3973 0
M  V30 2630 H 246.874 2.07003 2.08631 0
M  V30 2631 H 244.388 1.21307 1.07974 0
M  V30 2632 H 246.385 0.67029 4.11476 0
M  V30 2633 H 245.045 -0.121797 3.24471 0
M  V30 2634 H 246.056 3.53581 3.78419 0
M  V30 2635 H 242.733 0.97001 4.06075 0
M  V30 2636 H 244.123 4.98744 4.50226 0
M  V30 2637 N 246.843 -1.10192 1.12674 0
M  V30 2638 C 248.254 -1.63707 0.897604 0
M  V30 2639 C 248.605 -1.87812 -0.567546 0
M  V30 2640 O 247.73 -1.62196 -1.43253 0
M  V30 2641 C 248.325 -2.974 1.62292 0
M  V30 2642 C 246.884 -3.47772 1.43986 0
M  V30 2643 C 246.031 -2.22332 1.65722 0
M  V30 2644 H 248.982 -0.936587 1.28116 0
M  V30 2645 H 249.003 -3.64986 1.07541 0
M  V30 2646 H 248.515 -2.79824 2.68924 0
M  V30 2647 H 246.616 -3.70487 0.396206 0
M  V30 2648 H 246.729 -4.25723 2.19765 0
M  V30 2649 H 245.093 -2.30599 1.08149 0
M  V30 2650 H 245.876 -2.07285 2.73657 0
M  V30 2651 N 248.321 -0.919034 -1.28029 0
M  V30 2652 C 249.561 -0.562107 -1.96519 0
M  V30 2653 C 249.925 0.878784 -1.70708 0
M  V30 2654 O 251.126 1.34355 -2.32813 0
M  V30 2655 C 249.397 -0.868953 -3.46676 0
M  V30 2656 S 250.956 -0.619237 -4.34409 0
M  V30 2657 H 247.774 -0.2078 -0.679956 0
M  V30 2658 H 250.376 -1.18562 -1.55446 0
M  V30 2659 H 249.08 -1.91547 -3.62957 0
M  V30 2660 H 248.611 -0.234301 -3.92702 0
M  V30 2661 H 250.626 0.526995 -4.93394 0
M  V30 2662 N 249.799 1.42003 -0.683588 0
M  V30 2663 C 251.039 2.03282 -0.213513 0
M  V30 2664 C 251.403 1.52924 1.16097 0
M  V30 2665 O 252.604 2.06048 1.7262 0
M  V30 2666 C 250.875 3.56483 -0.255856 0
M  V30 2667 S 252.434 4.3857 0.14193 0
M  V30 2668 H 249.252 0.705659 -0.0869853 0
M  V30 2669 H 251.854 1.73619 -0.8987 0
M  V30 2670 H 250.558 3.90631 -1.25841 0
M  V30 2671 H 250.089 3.90831 0.448875 0
M  V30 2672 H 252.104 4.76828 1.37295 0
M  V30 2673 N 251.277 0.427512 1.51691 0
M  V30 2674 C 252.523 -0.142439 2.02299 0
M  V30 2675 C 252.856 -1.43214 1.31162 0
M  V30 2676 O 252.131 -1.89833 0.423511 0
M  V30 2677 C 252.414 -0.371301 3.58181 0
M  V30 2678 C 252.267 0.936358 4.39946 0
M  V30 2679 C 253.586 -1.14542 4.24933 0
M  V30 2680 H 250.705 -0.0502937 0.735282 0
M  V30 2681 H 253.347 0.564584 1.81418 0
M  V30 2682 H 251.497 -0.973559 3.76104 0
M  V30 2683 H 253.169 1.57184 4.33694 0
M  V30 2684 H 251.412 1.5432 4.05423 0
M  V30 2685 H 252.083 0.730388 5.47147 0
M  V30 2686 H 254.559 -0.635362 4.11221 0
M  V30 2687 H 253.435 -1.27431 5.33903 0
M  V30 2688 H 253.696 -2.17093 3.85127 0
M  V30 2689 N 252.755 -1.56801 0.158532 0
M  V30 2690 C 254.171 -1.5837 -0.197774 0
M  V30 2691 C 254.371 -1.17334 -1.63814 0
M  V30 2692 O 253.427 -0.878988 -2.36707 0
M  V30 2693 C 254.74 -3.00615 0.0714459 0
M  V30 2694 C 256.288 -3.12999 0.00864533 0
M  V30 2695 C 256.763 -4.57313 0.250685 0
M  V30 2696 N 258.254 -4.62777 0.198014 0
M  V30 2697 C 258.989 -5.72271 0.359642 0
M  V30 2698 N 258.485 -6.90371 0.579625 0
M  V30 2699 N 260.278 -5.61318 0.296438 0
M  V30 2700 H 252.429 -1.81765 1.09887 0
M  V30 2701 H 254.692 -0.841849 0.435884 0
M  V30 2702 H 254.398 -3.35068 1.06874 0
M  V30 2703 H 254.272 -3.71683 -0.642757 0
M  V30 2704 H 256.659 -2.7838 -0.979217 0
M  V30 2705 H 256.74 -2.44393 0.755359 0
M  V30 2706 H 256.384 -4.92639 1.2357 0
M  V30 2707 H 256.314 -5.24061 -0.516489 0
M  V30 2708 H 258.805 -3.77885 0.0331115 0
M  V30 2709 H 259.118 -7.69689 0.69275 0
M  V30 2710 H 257.463 -6.92264 0.616087 0
M  V30 2711 H 260.654 -4.67932 0.125258 0
M  V30 2712 H 260.827 -6.46599 0.425831 0
M  V30 2713 N 254.233 0.115231 -1.57178 0
M  V30 2714 C 255.163 1.1423 -2.03651 0
M  V30 2715 C 256.144 1.42967 -0.921655 0
M  V30 2716 O 257.329 1.53343 -1.19162 0
M  V30 2717 C 254.459 2.4675 -2.44401 0
M  V30 2718 C 253.413 2.32467 -3.59365 0
M  V30 2719 C 252.739 3.69984 -3.86026 0
M  V30 2720 C 254.039 1.78203 -4.90959 0
M  V30 2721 H 255.733 0.755749 -2.89705 0
M  V30 2722 H 253.279 0.362093 -1.39373 0
M  V30 2723 H 255.232 3.18854 -2.75517 0
M  V30 2724 H 253.956 2.87302 -1.55322 0
M  V30 2725 H 252.615 1.62811 -3.28463 0
M  V30 2726 H 252.263 4.08028 -2.94147 0
M  V30 2727 H 251.963 3.61279 -4.63412 0
M  V30 2728 H 253.487 4.43587 -4.19599 0
M  V30 2729 H 254.901 2.40128 -5.20587 0
M  V30 2730 H 253.298 1.8031 -5.72371 0
M  V30 2731 H 254.368 0.739876 -4.79222 0
M  V30 2732 N 255.711 1.52812 0.385517 0
M  V30 2733 C 256.621 1.80766 1.49535 0
M  V30 2734 C 257.637 0.694651 1.59532 0
M  V30 2735 O 258.813 0.982611 1.75803 0
M  V30 2736 C 255.878 1.97381 2.85029 0
M  V30 2737 C 254.939 3.21295 2.84724 0
M  V30 2738 C 254.172 3.37108 4.13756 0
M  V30 2739 O 254.395 2.5765 5.08893 0
M  V30 2740 O 253.329 4.30378 4.20783 0
M  V30 2741 H 257.155 2.75015 1.28842 0
M  V30 2742 H 254.74 1.37946 0.573697 0
M  V30 2743 H 256.622 2.09996 3.65349 0
M  V30 2744 H 255.297 1.06322 3.05741 0
M  V30 2745 H 254.204 3.1412 2.03174 0
M  V30 2746 H 255.537 4.12212 2.68965 0
M  V30 2747 N 257.189 -0.644168 1.43834 0
M  V30 2748 C 258.121 -1.76955 1.45669 0
M  V30 2749 C 259.134 -1.58956 0.351666 0
M  V30 2750 O 260.323 -1.6751 0.616644 0
M  V30 2751 C 257.423 -3.14507 1.26248 0
M  V30 2752 C 256.596 -3.59083 2.49757 0
M  V30 2753 C 255.655 -4.75467 2.25427 0
M  V30 2754 O 254.681 -4.84444 2.98836 0
M  V30 2755 N 255.883 -5.66289 1.27661 0
M  V30 2756 H 258.648 -1.75856 2.42682 0
M  V30 2757 H 256.209 -0.828312 1.39106 0
M  V30 2758 H 258.201 -3.90067 1.0784 0
M  V30 2759 H 256.771 -3.10325 0.376478 0
M  V30 2760 H 255.991 -2.7387 2.8353 0
M  V30 2761 H 257.279 -3.85613 3.31934 0
M  V30 2762 H 256.677 -5.61718 0.670064 0
M  V30 2763 H 255.234 -6.41533 1.15234 0
M  V30 2764 N 258.668 -1.30515 -0.883378 0
M  V30 2765 C 259.631 -1.1701 -1.97082 0
M  V30 2766 C 260.631 -0.10089 -1.60483 0
M  V30 2767 O 261.821 -0.349127 -1.70666 0
M  V30 2768 C 258.953 -0.793045 -3.31547 0
M  V30 2769 H 260.146 -2.13622 -2.10489 0
M  V30 2770 H 257.699 -1.13935 -1.06998 0
M  V30 2771 H 258.434 0.172499 -3.23841 0
M  V30 2772 H 258.219 -1.56576 -3.5948 0
M  V30 2773 H 259.709 -0.722073 -4.1131 0
M  V30 2774 N 260.146 1.09593 -1.13257 0
M  V30 2775 C 261.392 1.82181 -0.904521 0
M  V30 2776 C 261.747 1.83967 0.563358 0
M  V30 2777 O 261.04 1.29566 1.41149 0
M  V30 2778 C 261.234 3.27802 -1.42411 0
M  V30 2779 C 261.063 3.40201 -2.94097 0
M  V30 2780 C 259.833 3.52104 -3.62424 0
M  V30 2781 C 262.031 3.32875 -3.92044 0
M  V30 2782 N 260.013 3.53169 -5.0214 0
M  V30 2783 C 261.384 3.40789 -5.17941 0
M  V30 2784 C 263.439 3.16531 -3.84334 0
M  V30 2785 C 262.142 3.34042 -6.37031 0
M  V30 2786 C 264.168 3.11109 -5.02956 0
M  V30 2787 C 263.53 3.19614 -6.27715 0
M  V30 2788 H 259.629 0.681015 -0.384373 0
M  V30 2789 H 262.213 1.3099 -1.44048 0
M  V30 2790 H 260.384 3.77466 -0.915086 0
M  V30 2791 H 262.116 3.88393 -1.13722 0
M  V30 2792 H 258.871 3.5548 -3.12939 0
M  V30 2793 H 259.295 3.57291 -5.75041 0
M  V30 2794 H 263.937 3.08827 -2.88766 0
M  V30 2795 H 261.655 3.4051 -7.32857 0
M  V30 2796 H 265.241 2.99601 -4.98729 0
M  V30 2797 H 264.121 3.15432 -7.17964 0
M  V30 2798 N 261.624 0.925811 1.2754 0
M  V30 2799 C 262.534 0.428993 2.30644 0
M  V30 2800 C 263.55 -0.489387 1.66976 0
M  V30 2801 O 264.726 -0.372653 1.97922 0
M  V30 2802 C 261.791 -0.311967 3.45294 0
M  V30 2803 C 260.852 0.641098 4.24486 0
M  V30 2804 C 260.085 -0.0645955 5.33661 0
M  V30 2805 O 260.308 -1.28429 5.55754 0
M  V30 2806 O 259.242 0.606265 5.98839 0
M  V30 2807 H 263.068 1.28504 2.75173 0
M  V30 2808 H 260.653 0.691086 1.32455 0
M  V30 2809 H 262.535 -0.729972 4.15029 0
M  V30 2810 H 261.21 -1.14365 3.02824 0
M  V30 2811 H 260.117 1.10874 3.57292 0
M  V30 2812 H 261.45 1.43995 4.70666 0
M  V30 2813 N 263.102 -1.41638 0.69111 0
M  V30 2814 C 264.012 -2.34588 0.0233487 0
M  V30 2815 C 265.028 -1.55987 -0.770984 0
M  V30 2816 O 266.204 -1.88486 -0.709569 0
M  V30 2817 C 263.269 -3.34684 -0.904851 0
M  V30 2818 C 262.33 -4.29176 -0.103225 0
M  V30 2819 C 261.563 -5.2449 -0.987216 0
M  V30 2820 O 261.786 -5.2514 -2.22674 0
M  V30 2821 O 260.72 -6.00295 -0.439281 0
M  V30 2822 H 264.546 -2.93261 0.789416 0
M  V30 2823 H 262.131 -1.42417 0.45142 0
M  V30 2824 H 264.013 -3.96133 -1.43724 0
M  V30 2825 H 262.688 -2.78461 -1.65049 0
M  V30 2826 H 261.595 -3.71089 0.473655 0
M  V30 2827 H 262.928 -4.88484 0.60365 0
M  V30 2828 N 264.58 -0.43555 -1.51462 0
M  V30 2829 C 265.828 0.131254 -2.01673 0
M  V30 2830 C 266.149 1.43368 -1.32177 0
M  V30 2831 O 265.419 1.90524 -0.455769 0
M  V30 2832 H 263.999 0.0514954 -0.745223 0
M  V30 2833 H 266.661 -0.577847 -1.86137 0
M  V30 2834 H 265.757 0.308446 -3.10572 0
M  V30 2835 N 266.058 1.56714 -0.166846 0
M  V30 2836 C 267.306 1.96358 0.478305 0
M  V30 2837 C 267.627 1.0537 1.6408 0
M  V30 2838 O 266.897 0.119154 1.95537 0
M  V30 2839 H 265.477 0.725065 0.179692 0
M  V30 2840 H 268.139 1.93329 -0.246985 0
M  V30 2841 H 267.235 3.00547 0.841292 0
M  V30 2842 N 267.536 -0.106894 1.57237 0
M  V30 2843 C 268.785 -0.811163 1.8467 0
M  V30 2844 C 269.098 -1.80469 0.754342 0
M  V30 2845 O 270.304 -2.55601 0.915439 0
M  V30 2846 C 268.76 -1.49337 3.27454 0
M  V30 2847 C 268.368 -0.540217 4.44731 0
M  V30 2848 C 270.112 -2.18206 3.64124 0
M  V30 2849 C 268.019 -1.22634 5.78545 0
M  V30 2850 H 266.949 -0.306679 0.688813 0
M  V30 2851 H 269.6 -0.0639887 1.83388 0
M  V30 2852 H 267.982 -2.2876 3.23241 0
M  V30 2853 H 269.156 0.221659 4.60267 0
M  V30 2854 H 267.471 0.042146 4.16379 0
M  V30 2855 H 270.068 -2.70253 4.61376 0
M  V30 2856 H 270.411 -2.96562 2.92158 0
M  V30 2857 H 270.944 -1.45658 3.70174 0
M  V30 2858 H 267.683 -0.483832 6.53712 0
M  V30 2859 H 267.203 -1.95993 5.66874 0
M  V30 2860 H 268.882 -1.75615 6.2271 0
M  V30 2861 N 269.014 -1.53014 -0.377408 0
M  V30 2862 C 269.944 -1.81589 -1.46791 0
M  V30 2863 C 270.925 -0.668622 -1.56408 0
M  V30 2864 O 272.11 -0.917337 -1.71168 0
M  V30 2865 C 269.24 -1.99519 -2.8427 0
M  V30 2866 C 268.194 -3.15249 -2.89486 0
M  V30 2867 C 267.52 -3.18451 -4.29527 0
M  V30 2868 C 268.82 -4.54084 -2.58079 0
M  V30 2869 H 270.514 -2.7291 -1.23127 0
M  V30 2870 H 268.06 -1.31319 -0.590883 0
M  V30 2871 H 270.013 -2.18092 -3.60575 0
M  V30 2872 H 268.737 -1.04897 -3.09296 0
M  V30 2873 H 267.396 -2.96477 -2.15631 0
M  V30 2874 H 267.044 -2.2149 -4.5161 0
M  V30 2875 H 266.744 -3.962 -4.33934 0
M  V30 2876 H 268.268 -3.39193 -5.07721 0
M  V30 2877 H 269.682 -4.72899 -3.24098 0
M  V30 2878 H 268.079 -5.33987 -2.7382 0
M  V30 2879 H 269.149 -4.60006 -1.53372 0
M  V30 2880 N 270.492 0.636531 -1.44174 0
M  V30 2881 C 271.722 1.42146 -1.49927 0
M  V30 2882 C 272.13 1.88812 -0.121063 0
M  V30 2883 O 271.473 1.61126 0.882267 0
M  V30 2884 C 271.535 2.67883 -2.39748 0
M  V30 2885 C 271.199 2.43048 -3.8701 0
M  V30 2886 C 272.196 2.05216 -4.77684 0
M  V30 2887 C 269.881 2.56856 -4.3166 0
M  V30 2888 C 271.875 1.81512 -6.11009 0
M  V30 2889 C 269.562 2.32766 -5.65034 0
M  V30 2890 C 270.56 1.95152 -6.54526 0
M  V30 2891 O 270.248 1.71326 -7.85431 0
M  V30 2892 H 269.98 0.442567 -0.51099 0
M  V30 2893 H 272.534 0.786158 -1.8976 0
M  V30 2894 H 270.764 3.34032 -1.94832 0
M  V30 2895 H 272.453 3.29874 -2.36513 0
M  V30 2896 H 273.219 1.94111 -4.44462 0
M  V30 2897 H 269.098 2.85104 -3.62266 0
M  V30 2898 H 272.642 1.52077 -6.80822 0
M  V30 2899 H 268.539 2.43479 -5.97819 0
M  V30 2900 H 269.307 1.85616 -7.97176 0
M  V30 2901 N 271.97 1.30982 0.876444 0
M  V30 2902 C 272.9 1.20668 1.99903 0
M  V30 2903 C 273.881 0.095354 1.69833 0
M  V30 2904 O 275.066 0.27885 1.92188 0
M  V30 2905 C 272.196 0.90655 3.3526 0
M  V30 2906 C 271.15 1.97675 3.79617 0
M  V30 2907 C 270.476 1.52943 5.1236 0
M  V30 2908 C 271.776 3.389 3.97422 0
M  V30 2909 H 273.47 2.14586 2.0879 0
M  V30 2910 H 271.016 1.03308 1.00317 0
M  V30 2911 H 272.969 0.821025 4.13324 0
M  V30 2912 H 271.693 -0.0682969 3.26529 0
M  V30 2913 H 270.352 2.05205 3.03787 0
M  V30 2914 H 270 0.54262 5.00065 0
M  V30 2915 H 269.7 2.24532 5.43009 0
M  V30 2916 H 271.224 1.45786 5.92941 0
M  V30 2917 H 272.638 3.34081 4.659 0
M  V30 2918 H 271.035 4.0865 4.3946 0
M  V30 2919 H 272.105 3.80163 3.01006 0
M  V30 2920 N 273.449 -1.08991 1.13837 0
M  V30 2921 C 274.381 -2.15606 0.777612 0
M  V30 2922 C 275.394 -1.61533 -0.202739 0
M  V30 2923 O 276.583 -1.78491 0.0181055 0
M  V30 2924 C 273.683 -3.3864 0.132623 0
M  V30 2925 C 272.856 -4.22115 1.1462 0
M  V30 2926 C 271.915 -5.23564 0.526074 0
M  V30 2927 O 270.941 -5.56678 1.18735 0
M  V30 2928 N 272.143 -5.76266 -0.699866 0
M  V30 2929 H 274.908 -2.47159 1.69506 0
M  V30 2930 H 272.469 -1.24747 1.03198 0
M  V30 2931 H 274.461 -4.03626 -0.29459 0
M  V30 2932 H 273.031 -3.04938 -0.687849 0
M  V30 2933 H 272.251 -3.53199 1.75055 0
M  V30 2934 H 273.539 -4.74709 1.83109 0
M  V30 2935 H 272.937 -5.51585 -1.25581 0
M  V30 2936 H 271.494 -6.42963 -1.06968 0
M  V30 2937 N 274.927 -0.932562 -1.27047 0
M  V30 2938 C 276.155 -0.592031 -1.98249 0
M  V30 2939 C 276.57 0.831062 -1.69525 0
M  V30 2940 O 275.927 1.55299 -0.958561 0
M  V30 2941 C 275.978 -0.814279 -3.5221 0
M  V30 2942 O 275.699 -2.18139 -3.7993 0
M  V30 2943 C 277.2 -0.483121 -4.4066 0
M  V30 2944 H 274.42 -0.223896 -0.632544 0
M  V30 2945 H 276.964 -1.25091 -1.61779 0
M  V30 2946 H 275.119 -0.20213 -3.86872 0
M  V30 2947 H 275.533 -2.235 -4.74498 0
M  V30 2948 H 277.007 -0.689298 -5.47679 0
M  V30 2949 H 277.484 0.581546 -4.35333 0
M  V30 2950 H 278.09 -1.07362 -4.11526 0
M  V30 2951 N 276.405 1.4127 -0.698611 0
M  V30 2952 C 277.315 2.34573 -0.0357891 0
M  V30 2953 C 278.331 1.56393 0.762701 0
M  V30 2954 O 279.507 1.8886 0.699564 0
M  V30 2955 C 276.572 3.35159 0.887089 0
M  V30 2956 C 275.633 4.29225 0.0804634 0
M  V30 2957 C 274.866 5.25006 0.959387 0
M  V30 2958 O 275.089 5.26314 2.19886 0
M  V30 2959 O 274.023 6.00519 0.407439 0
M  V30 2960 H 277.849 2.92838 -0.804957 0
M  V30 2961 H 275.434 1.42175 -0.458966 0
M  V30 2962 H 277.316 3.9689 1.41621 0
M  V30 2963 H 275.991 2.79333 1.6357 0
M  V30 2964 H 274.898 3.70833 -0.493328 0
M  V30 2965 H 276.231 4.88157 -0.629547 0
M  V30 2966 N 277.883 0.443576 1.51229 0
M  V30 2967 C 278.813 -0.355142 2.30783 0
M  V30 2968 C 279.794 -1.0154 1.36468 0
M  V30 2969 O 280.979 -1.01785 1.65389 0
M  V30 2970 C 278.109 -1.45312 3.15439 0
M  V30 2971 C 277.063 -0.916002 4.18083 0
M  V30 2972 C 276.389 -2.1102 4.91299 0
M  V30 2973 C 277.689 0.0538602 5.22272 0
M  V30 2974 H 279.383 0.308767 2.97804 0
M  V30 2975 H 276.929 0.149937 1.43217 0
M  V30 2976 H 278.882 -2.01914 3.69876 0
M  V30 2977 H 277.606 -2.14541 2.46252 0
M  V30 2978 H 276.265 -0.372145 3.64706 0
M  V30 2979 H 275.913 -2.78882 4.18609 0
M  V30 2980 H 275.613 -1.75717 5.60712 0
M  V30 2981 H 277.137 -2.68164 5.48562 0
M  V30 2982 H 278.551 -0.422069 5.71744 0
M  V30 2983 H 276.948 0.319776 5.99247 0
M  V30 2984 H 278.018 0.98858 4.74716 0
M  V30 2985 N 279.361 -1.56624 0.175154 0
M  V30 2986 C 280.601 -1.98894 -0.471221 0
M  V30 2987 C 280.965 -1.05889 -1.60161 0
M  V30 2988 O 282.166 -1.37315 -2.3108 0
M  V30 2989 C 280.437 -3.44865 -0.938241 0
M  V30 2990 S 281.996 -4.09164 -1.58526 0
M  V30 2991 H 278.814 -0.694686 -0.151434 0
M  V30 2992 H 281.416 -1.93577 0.27352 0
M  V30 2993 H 280.12 -4.10265 -0.10518 0
M  V30 2994 H 279.651 -3.53956 -1.71693 0
M  V30 2995 H 281.666 -4.04528 -2.87352 0
M  V30 2996 N 280.839 0.0985539 -1.57292 0
M  V30 2997 C 282.087 0.801092 -1.85545 0
M  V30 2998 C 282.408 1.79438 -0.763353 0
M  V30 2999 O 281.678 1.94763 0.21073 0
M  V30 3000 H 280.258 0.29884 -0.684619 0
M  V30 3001 H 282.92 0.0810064 -1.94732 0
M  V30 3002 H 282.016 1.3338 -2.82163 0
M  V30 3003 N 282.317 1.53212 0.369288 0
M  V30 3004 C 283.728 1.60943 0.946276 0
M  V30 3005 C 284.079 0.47452 1.90375 0
M  V30 3006 O 283.204 -0.399597 2.12679 0
M  V30 3007 C 283.799 2.91715 1.72302 0
M  V30 3008 C 282.358 3.01792 2.24941 0
M  V30 3009 C 281.505 2.56211 1.06072 0
M  V30 3010 H 284.456 1.58007 0.148198 0
M  V30 3011 H 284.477 2.79309 2.58393 0
M  V30 3012 H 283.989 3.74295 1.0259 0
M  V30 3013 H 282.09 2.23791 2.97906 0
M  V30 3014 H 282.203 4.06803 2.53077 0
M  V30 3015 H 280.567 2.10998 1.4266 0
M  V30 3016 H 281.35 3.41206 0.378639 0
M  V30 3017 N 283.795 -0.628877 1.44509 0
M  V30 3018 C 285.02 -1.42048 1.5112 0
M  V30 3019 C 285.445 -1.87594 0.137818 0
M  V30 3020 O 284.803 -1.58873 -0.873437 0
M  V30 3021 C 284.851 -2.61541 2.48251 0
M  V30 3022 O 283.955 -3.61453 1.98559 0
M  V30 3023 H 283.296 -0.424942 0.510216 0
M  V30 3024 H 285.826 -0.767374 1.89664 0
M  V30 3025 H 285.836 -3.09057 2.66361 0
M  V30 3026 H 284.511 -2.27736 3.48007 0
M  V30 3027 H 283.088 -3.20731 1.90227 0
M  V30 3028 N 285.273 -1.31445 -0.869486 0
M  V30 3029 C 286.203 -1.21727 -1.99261 0
M  V30 3030 C 287.184 -0.104359 -1.6978 0
M  V30 3031 O 288.369 -0.289038 -1.92037 0
M  V30 3032 C 285.499 -0.924317 -3.34774 0
M  V30 3033 C 284.453 -1.99685 -3.78563 0
M  V30 3034 C 283.779 -1.55658 -5.11541 0
M  V30 3035 C 285.079 -3.41003 -3.95619 0
M  V30 3036 H 286.773 -2.1569 -2.07649 0
M  V30 3037 H 284.319 -1.03839 -0.997675 0
M  V30 3038 H 286.272 -0.842934 -4.12883 0
M  V30 3039 H 284.996 0.0509793 -3.2656 0
M  V30 3040 H 283.655 -2.06813 -3.02694 0
M  V30 3041 H 283.303 -0.569132 -4.9977 0
M  V30 3042 H 283.003 -2.27409 -5.41811 0
M  V30 3043 H 284.527 -1.48928 -5.92159 0
M  V30 3044 H 285.941 -3.36547 -4.64122 0
M  V30 3045 H 284.338 -4.10975 -4.37286 0
M  V30 3046 H 285.408 -3.81754 -2.98985 0
M  V30 3047 N 286.751 1.08385 -1.14413 0
M  V30 3048 C 287.683 2.1519 -0.789036 0
M  V30 3049 C 288.696 1.61638 0.19417 0
M  V30 3050 O 289.885 1.78479 -0.0275711 0
M  V30 3051 C 286.985 3.38565 -0.15058 0
M  V30 3052 C 286.158 4.21501 -1.16857 0
M  V30 3053 C 285.217 5.23277 -0.553832 0
M  V30 3054 O 284.243 5.56041 -1.21686 0
M  V30 3055 N 285.445 5.76629 0.669296 0
M  V30 3056 H 288.21 2.46257 -1.70814 0
M  V30 3057 H 285.771 1.24198 -1.03858 0
M  V30 3058 H 287.763 4.03777 0.273181 0
M  V30 3059 H 286.333 3.05299 0.671667 0
M  V30 3060 H 285.553 3.52265 -1.76926 0
M  V30 3061 H 286.841 4.73731 -1.85624 0
M  V30 3062 H 286.239 5.52243 1.22654 0
M  V30 3063 H 284.796 6.43521 1.03556 0
M  V30 3064 N 288.23 0.939286 1.26551 0
M  V30 3065 C 289.162 0.404704 2.25599 0
M  V30 3066 C 290.175 -0.470983 1.55838 0
M  V30 3067 O 291.364 -0.281734 1.76263 0
M  V30 3068 C 288.464 -0.43764 3.36062 0
M  V30 3069 C 287.637 0.421449 4.35365 0
M  V30 3070 C 286.696 -0.36015 5.24966 0
M  V30 3071 O 285.722 0.236167 5.6871 0
M  V30 3072 N 286.924 -1.65715 5.56344 0
M  V30 3073 H 289.689 1.25618 2.72103 0
M  V30 3074 H 287.25 0.807963 1.40298 0
M  V30 3075 H 289.242 -0.967866 3.92956 0
M  V30 3076 H 287.812 -1.18991 2.89067 0
M  V30 3077 H 287.032 1.1329 3.7757 0
M  V30 3078 H 288.32 1.00835 4.98708 0
M  V30 3079 H 287.718 -2.16378 5.22682 0
M  V30 3080 H 286.275 -2.13366 6.15888 0
M  V30 3081 N 289.708 -1.40897 0.706093 0
M  V30 3082 C 290.658 -2.27987 0.0240746 0
M  V30 3083 C 291.642 -1.42759 -0.742204 0
M  V30 3084 O 292.834 -1.65936 -0.615966 0
M  V30 3085 C 289.963 -3.31186 -0.903907 0
M  V30 3086 C 289.049 -4.2389 -0.133318 0
M  V30 3087 N 289.44 -4.98113 0.878444 0
M  V30 3088 C 287.738 -4.44485 -0.367269 0
M  V30 3089 C 288.439 -5.6604 1.34064 0
M  V30 3090 N 287.415 -5.39522 0.664565 0
M  V30 3091 H 291.217 -2.82812 0.799658 0
M  V30 3092 H 288.731 -1.53235 0.537845 0
M  V30 3093 H 290.728 -3.92413 -1.40775 0
M  V30 3094 H 289.388 -2.77922 -1.67897 0
M  V30 3095 H 290.399 -5.02364 1.25901 0
M  V30 3096 H 287.076 -4.02213 -1.1194 0
M  V30 3097 H 288.466 -6.35524 2.1808 0
M  V30 3098 N 291.186 -0.45159 -1.50991 0
M  V30 3099 C 292.426 0.109066 -2.04109 0
M  V30 3100 C 292.79 1.38716 -1.32747 0
M  V30 3101 O 293.991 2.02896 -1.76314 0
M  V30 3102 C 292.262 0.308354 -3.56067 0
M  V30 3103 S 293.821 0.830369 -4.30872 0
M  V30 3104 H 290.639 0.0251531 -0.710555 0
M  V30 3105 H 293.241 -0.614264 -1.85599 0
M  V30 3106 H 291.945 -0.627962 -4.05567 0
M  V30 3107 H 291.476 1.05836 -3.78896 0
M  V30 3108 H 293.491 2.10626 -4.49279 0
M  V30 3109 N 292.664 1.56529 -0.183458 0
M  V30 3110 C 293.574 2.22144 0.754272 0
M  V30 3111 C 294.59 1.21684 1.24374 0
M  V30 3112 O 295.766 1.54385 1.29333 0
M  V30 3113 C 292.831 2.85884 1.96141 0
M  V30 3114 C 291.892 4.01579 1.51765 0
M  V30 3115 C 291.125 4.6227 2.66725 0
M  V30 3116 O 291.348 4.21865 3.83909 0
M  V30 3117 O 290.282 5.51936 2.40104 0
M  V30 3118 H 294.108 3.02861 0.225527 0
M  V30 3119 H 291.693 1.49331 0.0453032 0
M  V30 3120 H 293.575 3.26253 2.66715 0
M  V30 3121 H 292.25 2.08154 2.47899 0
M  V30 3122 H 291.157 3.65856 0.781049 0
M  V30 3123 H 292.49 4.80938 1.04686 0
M  V30 3124 N 294.142 -0.090211 1.57342 0
M  V30 3125 C 295.105 -1.09335 2.01441 0
M  V30 3126 C 296.105 -1.32666 0.908641 0
M  V30 3127 O 297.295 -1.28697 1.174 0
M  V30 3128 C 294.427 -2.44136 2.3793 0
M  V30 3129 H 295.62 -0.713662 2.91285 0
M  V30 3130 H 293.173 -0.335404 1.52659 0
M  V30 3131 H 293.908 -2.86972 1.51055 0
M  V30 3132 H 293.693 -2.28548 3.18603 0
M  V30 3133 H 295.183 -3.16277 2.72688 0
M  V30 3134 N 295.62 -1.53406 -0.361157 0
M  V30 3135 C 296.866 -1.70999 -1.1014 0
M  V30 3136 C 297.221 -0.458425 -1.86859 0
M  V30 3137 O 296.514 0.548654 -1.83577 0
M  V30 3138 C 296.708 -2.90211 -2.08596 0
M  V30 3139 C 296.537 -4.26841 -1.41553 0
M  V30 3140 C 295.307 -4.91621 -1.16778 0
M  V30 3141 C 297.505 -5.07212 -0.850915 0
M  V30 3142 N 295.487 -6.12164 -0.461312 0
M  V30 3143 C 296.858 -6.19394 -0.274046 0
M  V30 3144 C 298.913 -4.92218 -0.750036 0
M  V30 3145 C 297.616 -7.18221 0.393868 0
M  V30 3146 C 299.642 -5.91322 -0.095894 0
M  V30 3147 C 299.004 -7.0283 0.470081 0
M  V30 3148 H 295.103 -0.678939 -0.388028 0
M  V30 3149 H 297.687 -1.90811 -0.38722 0
M  V30 3150 H 295.858 -2.71931 -2.77323 0
M  V30 3151 H 297.59 -2.96606 -2.7533 0
M  V30 3152 H 294.345 -4.50849 -1.45024 0
M  V30 3153 H 294.769 -6.76888 -0.123312 0
M  V30 3154 H 299.411 -4.06192 -1.17337 0
M  V30 3155 H 297.129 -8.03835 0.82914 0
M  V30 3156 H 300.715 -5.81797 -0.0187075 0
M  V30 3157 H 299.595 -7.782 0.968241 0
M  V30 3158 N 297.098 0.621204 -1.44841 0
M  V30 3159 C 298.346 1.37783 -1.47852 0
M  V30 3160 C 298.667 1.94653 -0.116224 0
M  V30 3161 O 297.937 1.76367 0.852737 0
M  V30 3162 H 296.517 0.511453 -0.544449 0
M  V30 3163 H 299.179 0.730446 -1.80694 0
M  V30 3164 H 298.275 2.20414 -2.20961 0
M  V30 3165 N 298.576 1.31904 0.862503 0
M  V30 3166 C 299.539 1.20131 1.95195 0
M  V30 3167 C 300.539 0.126409 1.60302 0
M  V30 3168 O 301.729 0.376234 1.70089 0
M  V30 3169 C 298.861 0.845691 3.30244 0
M  V30 3170 H 300.054 2.16943 2.07064 0
M  V30 3171 H 297.607 1.15622 1.05172 0
M  V30 3172 H 298.342 -0.120957 3.24074 0
M  V30 3173 H 298.127 1.62276 3.56944 0
M  V30 3174 H 299.617 0.787418 4.10109 0
M  V30 3175 N 300.054 -1.07777 1.14986 0
M  V30 3176 C 301.279 -1.84558 0.946213 0
M  V30 3177 C 301.704 -1.81323 -0.500362 0
M  V30 3178 O 301.062 -1.20301 -1.35637 0
M  V30 3179 C 301.11 -3.29736 1.45968 0
M  V30 3180 O 300.214 -4.07149 0.65601 0
M  V30 3181 H 299.555 -0.571641 0.33782 0
M  V30 3182 H 302.085 -1.35991 1.52865 0
M  V30 3183 H 302.095 -3.80574 1.47063 0
M  V30 3184 H 300.77 -3.31406 2.51283 0
M  V30 3185 H 299.347 -3.65994 0.714322 0
M  V30 3186 N 301.532 -0.945985 -1.26051 0
M  V30 3187 C 302.462 -0.477172 -2.28572 0
M  V30 3188 C 303.443 0.472032 -1.63419 0
M  V30 3189 O 304.628 0.372853 -1.90587 0
M  V30 3190 C 301.758 0.253975 -3.4637 0
M  V30 3191 C 300.712 -0.609135 -4.23643 0
M  V30 3192 C 300.038 0.252252 -5.34105 0
M  V30 3193 C 301.338 -1.8829 -4.8718 0
M  V30 3194 H 303.032 -1.33402 -2.68038 0
M  V30 3195 H 300.578 -0.642904 -1.28852 0
M  V30 3196 H 302.531 0.593016 -4.17207 0
M  V30 3197 H 301.255 1.145 -3.05871 0
M  V30 3198 H 299.914 -0.931138 -3.54578 0
M  V30 3199 H 299.562 1.14278 -4.89846 0
M  V30 3200 H 299.262 -0.32188 -5.86718 0
M  V30 3201 H 300.786 0.586454 -6.07777 0
M  V30 3202 H 302.2 -1.61081 -5.50205 0
M  V30 3203 H 300.597 -2.40199 -5.49931 0
M  V30 3204 H 301.667 -2.59134 -4.09851 0
M  V30 3205 N 303.011 1.40521 -0.713556 0
M  V30 3206 C 304.422 1.83853 -0.324807 0
M  V30 3207 C 304.773 1.59667 1.14021 0
M  V30 3208 O 303.898 1.07649 1.87725 0
M  V30 3209 C 304.493 3.33751 -0.582746 0
M  V30 3210 C 303.052 3.75584 -0.247727 0
M  V30 3211 C 302.199 2.63753 -0.856121 0
M  V30 3212 H 305.15 1.29817 -0.91286 0
M  V30 3213 H 305.171 3.80194 0.152682 0
M  V30 3214 H 304.683 3.51322 -1.64908 0
M  V30 3215 H 302.784 3.63608 0.813624 0
M  V30 3216 H 302.897 4.7373 -0.715307 0
M  V30 3217 H 301.261 2.53108 -0.28432 0
M  V30 3218 H 302.044 2.84137 -1.92668 0
M  V30 3219 N 304.489 0.459591 1.5075 0
M  V30 3220 C 305.399 -0.34613 2.32033 0
M  V30 3221 C 306.415 -1.00686 1.41909 0
M  V30 3222 O 307.591 -0.997361 1.7497 0
M  V30 3223 C 304.656 -1.42029 3.16273 0
M  V30 3224 C 303.717 -0.777362 4.22203 0
M  V30 3225 C 302.95 -1.80034 5.02418 0
M  V30 3226 O 303.173 -3.02544 4.83553 0
M  V30 3227 O 302.107 -1.37853 5.85901 0
M  V30 3228 H 305.933 0.318054 3.0203 0
M  V30 3229 H 303.518 0.221663 1.47746 0
M  V30 3230 H 305.4 -2.04275 3.68578 0
M  V30 3231 H 304.075 -2.06815 2.49016 0
M  V30 3232 H 302.982 -0.116256 3.73919 0
M  V30 3233 H 304.315 -0.172634 4.91897 0
M  V30 3234 N 305.967 -1.56429 0.191757 0
M  V30 3235 C 306.93 -2.17707 -0.716688 0
M  V30 3236 C 307.93 -1.13061 -1.14341 0
M  V30 3237 O 309.12 -1.38464 -1.05704 0
M  V30 3238 C 306.252 -2.77644 -1.97804 0
M  V30 3239 H 307.445 -2.99342 -0.1829 0
M  V30 3240 H 304.998 -1.56193 -0.0578566 0
M  V30 3241 H 305.733 -1.99799 -2.55443 0
M  V30 3242 H 305.518 -3.54246 -1.68083 0
M  V30 3243 H 307.008 -3.24708 -2.62592 0
M  V30 3244 N 307.445 0.0818655 -1.57387 0
M  V30 3245 C 308.377 1.12484 -1.997 0
M  V30 3246 C 309.39 1.35564 -0.90146 0
M  V30 3247 O 310.579 1.33982 -1.17945 0
M  V30 3248 C 307.679 2.47778 -2.31213 0
M  V30 3249 C 306.852 2.44793 -3.62485 0
M  V30 3250 C 305.911 3.62117 -3.81782 0
M  V30 3251 O 304.937 3.44005 -4.53486 0
M  V30 3252 N 306.139 4.82094 -3.23367 0
M  V30 3253 H 308.904 0.764585 -2.89783 0
M  V30 3254 H 306.465 0.270664 -1.59621 0
M  V30 3255 H 308.457 3.24891 -2.41304 0
M  V30 3256 H 307.027 2.75843 -1.4707 0
M  V30 3257 H 306.247 1.53134 -3.6324 0
M  V30 3258 H 307.535 2.39889 -4.48699 0
M  V30 3259 H 306.933 4.99713 -2.65148 0
M  V30 3260 H 305.49 5.56753 -3.38923 0
M  V30 3261 N 308.923 1.53595 0.353017 0
M  V30 3262 C 310.169 1.70638 1.09593 0
M  V30 3263 C 310.502 0.463286 1.88593 0
M  V30 3264 O 309.777 -0.539597 1.86865 0
M  V30 3265 C 310.06 2.96406 2.04489 0
M  V30 3266 C 309.913 4.30901 1.29014 0
M  V30 3267 C 311.232 3.17812 3.0444 0
M  V30 3268 H 308.351 0.620913 0.397034 0
M  V30 3269 H 310.993 1.86254 0.375446 0
M  V30 3270 H 309.143 2.83223 2.65927 0
M  V30 3271 H 310.815 4.55917 0.702638 0
M  V30 3272 H 309.058 4.29741 0.592071 0
M  V30 3273 H 309.729 5.1506 1.98537 0
M  V30 3274 H 312.205 3.30263 2.53112 0
M  V30 3275 H 311.081 4.07223 3.6805 0
M  V30 3276 H 311.342 2.33669 3.75301 0
M  V30 3277 N 310.401 -0.613514 1.45168 0
M  V30 3278 C 311.647 -1.37279 1.50087 0
M  V30 3279 C 312.002 -1.91902 0.138294 0
M  V30 3280 O 311.295 -1.71764 -0.84899 0
M  V30 3281 C 311.489 -2.54347 2.51083 0
M  V30 3282 C 311.318 -2.11186 3.97027 0
M  V30 3283 C 310.088 -1.97636 4.65046 0
M  V30 3284 C 312.286 -1.69016 4.85735 0
M  V30 3285 N 310.268 -1.48224 5.95737 0
M  V30 3286 C 311.639 -1.30976 6.06008 0
M  V30 3287 C 313.694 -1.56555 4.72647 0
M  V30 3288 C 312.397 -0.817197 7.14643 0
M  V30 3289 C 314.423 -1.08702 5.81324 0
M  V30 3290 C 313.785 -0.716233 7.00749 0
M  V30 3291 H 309.884 -0.496478 0.60418 0
M  V30 3292 H 312.468 -0.701988 1.81605 0
M  V30 3293 H 310.639 -3.19031 2.21527 0
M  V30 3294 H 312.371 -3.21208 2.46187 0
M  V30 3295 H 309.126 -2.18638 4.20112 0
M  V30 3296 H 309.55 -1.25767 6.65216 0
M  V30 3297 H 314.192 -1.83849 3.80736 0
M  V30 3298 H 311.91 -0.531797 8.06348 0
M  V30 3299 H 315.496 -0.994943 5.7323 0
M  V30 3300 H 314.376 -0.351642 7.83411 0
M  V30 3301 N 311.879 -1.3236 -0.855495 0
M  V30 3302 C 313.127 -1.22629 -1.60644 0
M  V30 3303 C 313.448 0.212136 -1.93843 0
M  V30 3304 O 312.718 1.13666 -1.59552 0
M  V30 3305 H 311.298 -0.450882 -0.595579 0
M  V30 3306 H 313.96 -1.65871 -1.02337 0
M  V30 3307 H 313.056 -1.80832 -2.54374 0
M  V30 3308 N 313.357 1.07166 -1.15556 0
M  V30 3309 C 314.587 1.83248 -0.954133 0
M  V30 3310 C 314.995 1.82449 0.500911 0
M  V30 3311 O 314.338 1.23575 1.35923 0
M  V30 3312 C 314.4 3.31393 -1.39351 0
M  V30 3313 C 314.064 3.5591 -2.86666 0
M  V30 3314 C 315.061 3.49695 -3.8472 0
M  V30 3315 C 312.746 3.83515 -3.24379 0
M  V30 3316 C 314.74 3.70737 -5.18491 0
M  V30 3317 C 312.427 4.04209 -4.58321 0
M  V30 3318 C 313.425 3.97815 -5.55186 0
M  V30 3319 O 313.113 4.17954 -6.86709 0
M  V30 3320 H 312.845 0.584941 -0.338851 0
M  V30 3321 H 315.399 1.36169 -1.53777 0
M  V30 3322 H 313.629 3.79292 -0.75329 0
M  V30 3323 H 315.318 3.88945 -1.16089 0
M  V30 3324 H 316.084 3.28368 -3.56931 0
M  V30 3325 H 311.963 3.87605 -2.49567 0
M  V30 3326 H 315.507 3.65663 -5.94085 0
M  V30 3327 H 311.404 4.25023 -4.85825 0
M  V30 3328 H 312.172 4.35291 -6.93155 0
M  V30 3329 N 314.835 0.952656 1.25548 0
M  V30 3330 C 315.765 0.489287 2.28316 0
M  V30 3331 C 316.746 -0.463359 1.63667 0
M  V30 3332 O 317.931 -0.36274 1.90782 0
M  V30 3333 C 315.061 -0.235603 3.465 0
M  V30 3334 C 314.015 0.631593 4.23314 0
M  V30 3335 C 313.341 -0.223923 5.34231 0
M  V30 3336 C 314.641 1.90871 4.86174 0
M  V30 3337 H 316.335 1.34822 2.67326 0
M  V30 3338 H 313.881 0.649728 1.28509 0
M  V30 3339 H 315.834 -0.570882 4.17515 0
M  V30 3340 H 314.558 -1.12877 3.06474 0
M  V30 3341 H 313.217 0.949929 3.54079 0
M  V30 3342 H 312.865 -1.11678 4.90446 0
M  V30 3343 H 312.565 0.35299 5.86539 0
M  V30 3344 H 314.089 -0.554214 6.0808 0
M  V30 3345 H 315.503 1.63997 5.49343 0
M  V30 3346 H 313.9 2.43112 5.4865 0
M  V30 3347 H 314.97 2.61304 4.08471 0
M  V30 3348 N 316.313 -1.40141 0.720998 0
M  V30 3349 C 317.729 -1.54632 0.395113 0
M  V30 3350 C 317.929 -1.69115 -1.09555 0
M  V30 3351 O 316.985 -1.68377 -1.88163 0
M  V30 3352 C 318.298 -2.77177 1.1659 0
M  V30 3353 C 319.846 -2.91 1.15274 0
M  V30 3354 C 320.321 -4.16465 1.90579 0
M  V30 3355 N 321.812 -4.23476 1.87675 0
M  V30 3356 C 322.547 -5.19475 2.42762 0
M  V30 3357 N 322.043 -6.21348 3.06428 0
M  V30 3358 N 323.836 -5.11592 2.32874 0
M  V30 3359 H 315.987 -1.28986 1.68749 0
M  V30 3360 H 318.25 -0.62412 0.713567 0
M  V30 3361 H 317.956 -2.72771 2.22011 0
M  V30 3362 H 317.83 -3.69442 0.76108 0
M  V30 3363 H 320.217 -2.94907 0.106702 0
M  V30 3364 H 320.298 -1.99838 1.59682 0
M  V30 3365 H 319.942 -4.1332 2.95176 0
M  V30 3366 H 319.872 -5.06646 1.43587 0
M  V30 3367 H 322.363 -3.50497 1.41281 0
M  V30 3368 H 322.676 -6.91034 3.45965 0
M  V30 3369 H 321.021 -6.21777 3.10514 0
M  V30 3370 H 324.212 -4.30936 1.82789 0
M  V30 3371 H 324.385 -5.86233 2.76106 0
M  V30 3372 N 317.792 -0.46758 -1.50504 0
M  V30 3373 C 319.069 0.15003 -1.95024 0
M  V30 3374 C 319.449 1.57304 -1.40779 0
M  V30 3375 O 318.797 2.20281 -0.607319 0
M  V30 3376 C 319.007 0.0969324 -3.48865 0
M  V30 3377 C 320.355 0.287565 -4.23625 0
M  V30 3378 O 321.379 0.173678 -3.55776 0
M  V30 3379 O 320.238 0.517186 -5.44047 0
M  V30 3380 H 317.332 0.113582 -0.819163 0
M  V30 3381 H 319.878 -0.52773 -1.61286 0
M  V30 3382 H 318.65 -0.896732 -3.80886 0
M  V30 3383 H 318.273 0.816303 -3.8913 0
M  V30 3384 N 319.27 1.56325 -0.20005 0
M  V30 3385 C 320.498 2.02105 0.442874 0
M  V30 3386 C 320.913 1.08014 1.5485 0
M  V30 3387 O 320.27 0.0858797 1.82298 0
M  V30 3388 C 320.321 3.47549 0.994583 0
M  V30 3389 O 320.042 4.38049 -0.0669322 0
M  V30 3390 C 321.543 4.0887 1.7129 0
M  V30 3391 H 318.763 0.661807 0.110691 0
M  V30 3392 H 321.307 2.02134 -0.310207 0
M  V30 3393 H 319.462 3.48204 1.69803 0
M  V30 3394 H 319.876 5.23368 0.344462 0
M  V30 3395 H 321.35 5.12475 2.05118 0
M  V30 3396 H 321.827 3.52615 2.61838 0
M  V30 3397 H 322.433 4.12002 1.05518 0
M  V30 3398 N 320.748 -0.0735177 1.57428 0
M  V30 3399 C 321.678 -1.0879 2.06608 0
M  V30 3400 C 322.659 -1.40473 0.959237 0
M  V30 3401 O 323.844 -1.5013 1.23185 0
M  V30 3402 C 320.974 -2.40183 2.50857 0
M  V30 3403 C 319.928 -2.22858 3.65402 0
M  V30 3404 C 319.254 -3.59619 3.957 0
M  V30 3405 C 320.554 -1.65123 4.95511 0
M  V30 3406 H 322.248 -0.678673 2.91607 0
M  V30 3407 H 319.794 -0.325013 1.40284 0
M  V30 3408 H 321.747 -3.11437 2.83874 0
M  V30 3409 H 320.471 -2.83083 1.62885 0
M  V30 3410 H 319.13 -1.54045 3.32664 0
M  V30 3411 H 318.778 -4.00086 3.04861 0
M  V30 3412 H 318.478 -3.48866 4.72828 0
M  V30 3413 H 320.002 -4.32306 4.31212 0
M  V30 3414 H 321.416 -2.26241 5.26771 0
M  V30 3415 H 319.813 -1.65071 5.7695 0
M  V30 3416 H 320.883 -0.612559 4.81015 0
M  V30 3417 N 322.226 -1.5378 -0.344866 0
M  V30 3418 C 323.156 -1.84662 -1.42906 0
M  V30 3419 C 324.137 -0.701648 -1.54955 0
M  V30 3420 O 325.322 -0.953438 -1.69184 0
M  V30 3421 C 322.452 -2.05503 -2.79974 0
M  V30 3422 C 321.406 -3.21318 -2.82734 0
M  V30 3423 C 320.732 -3.2749 -4.22675 0
M  V30 3424 C 322.032 -4.59456 -2.48389 0
M  V30 3425 H 323.726 -2.75461 -1.17311 0
M  V30 3426 H 321.272 -1.32542 -0.562896 0
M  V30 3427 H 323.225 -2.25691 -3.55867 0
M  V30 3428 H 321.949 -1.11434 -3.07002 0
M  V30 3429 H 320.608 -3.00984 -2.09294 0
M  V30 3430 H 320.256 -2.31019 -4.4681 0
M  V30 3431 H 319.956 -4.05316 -4.25433 0
M  V30 3432 H 321.48 -3.49887 -5.00412 0
M  V30 3433 H 322.894 -4.79667 -3.13995 0
M  V30 3434 H 321.291 -5.39675 -2.62432 0
M  V30 3435 H 322.361 -4.63155 -1.4358 0
M  V30 3436 N 323.704 0.605807 -1.45491 0
M  V30 3437 C 324.667 1.69836 -1.5391 0
M  V30 3438 C 325.667 1.55261 -0.418424 0
M  V30 3439 O 326.857 1.60296 -0.681965 0
M  V30 3440 C 323.989 3.09117 -1.43734 0
M  V30 3441 H 325.182 1.63738 -2.51257 0
M  V30 3442 H 322.735 0.821689 -1.32959 0
M  V30 3443 H 323.47 3.20791 -0.475788 0
M  V30 3444 H 323.255 3.21104 -2.25021 0
M  V30 3445 H 324.745 3.88696 -1.52661 0
M  V30 3446 N 325.182 1.32811 0.848464 0
M  V30 3447 C 326.112 1.24882 1.97299 0
M  V30 3448 C 327.093 0.131357 1.69592 0
M  V30 3449 O 328.278 0.319553 1.91553 0
M  V30 3450 C 325.408 0.97746 3.33261 0
M  V30 3451 C 324.362 2.05682 3.75338 0
M  V30 3452 C 323.688 1.63777 5.09 0
M  V30 3453 C 324.988 3.47254 3.90144 0
M  V30 3454 H 326.682 2.18966 2.04191 0
M  V30 3455 H 324.228 1.05413 0.981029 0
M  V30 3456 H 326.181 0.908513 4.1149 0
M  V30 3457 H 324.905 0.000980011 3.266 0
M  V30 3458 H 323.564 2.11603 2.99366 0
M  V30 3459 H 323.212 0.648569 4.98801 0
M  V30 3460 H 322.912 2.36 5.38124 0
M  V30 3461 H 324.436 1.5833 5.89715 0
M  V30 3462 H 325.85 3.43888 4.58709 0
M  V30 3463 H 324.247 4.1788 4.30693 0
M  V30 3464 H 325.317 3.86462 2.92874 0
M  V30 3465 N 326.66 -1.06551 1.16123 0
M  V30 3466 C 327.623 -2.12132 0.867906 0
M  V30 3467 C 328.623 -1.60224 -0.135944 0
M  V30 3468 O 329.813 -1.73943 0.0946422 0
M  V30 3469 C 326.945 -3.396 0.297419 0
M  V30 3470 H 328.138 -2.39586 1.80385 0
M  V30 3471 H 325.691 -1.22574 0.969812 0
M  V30 3472 H 326.426 -3.17794 -0.64633 0
M  V30 3473 H 326.211 -3.78581 1.02073 0
M  V30 3474 H 327.701 -4.17455 0.110052 0
M  V30 3475 N 328.138 -0.959301 -1.25041 0
M  V30 3476 C 329.088 -0.453888 -2.23436 0
M  V30 3477 C 330.072 0.459461 -1.542 0
M  V30 3478 O 331.264 0.291752 -1.74579 0
M  V30 3479 C 328.393 0.262667 -3.42294 0
M  V30 3480 C 327.479 -0.669022 -4.1879 0
M  V30 3481 N 327.87 -1.80267 -4.72586 0
M  V30 3482 C 326.168 -0.47814 -4.4343 0
M  V30 3483 C 326.869 -2.38475 -5.3057 0
M  V30 3484 N 325.845 -1.67078 -5.17287 0
M  V30 3485 H 329.647 -1.319 -2.6264 0
M  V30 3486 H 327.161 -0.817358 -1.40332 0
M  V30 3487 H 329.158 0.641911 -4.11929 0
M  V30 3488 H 327.818 1.12432 -3.04613 0
M  V30 3489 H 328.829 -2.18442 -4.69578 0
M  V30 3490 H 325.506 0.340249 -4.16111 0
M  V30 3491 H 326.896 -3.34094 -5.8295 0
M  V30 3492 N 329.616 1.39756 -0.72842 0
M  V30 3493 C 330.546 2.33289 -0.0991354 0
M  V30 3494 C 331.527 1.53568 0.731489 0
M  V30 3495 O 332.712 1.81987 0.677807 0
M  V30 3496 C 329.842 3.3763 0.813834 0
M  V30 3497 C 328.796 4.2791 0.0878663 0
M  V30 3498 C 328.122 5.22894 1.11741 0
M  V30 3499 C 329.422 5.11314 -1.06563 0
M  V30 3500 H 331.116 2.86163 -0.880408 0
M  V30 3501 H 328.662 1.37591 -0.424819 0
M  V30 3502 H 330.615 4.0201 1.26355 0
M  V30 3503 H 329.339 2.83181 1.62715 0
M  V30 3504 H 327.998 3.65 -0.342159 0
M  V30 3505 H 327.646 4.64744 1.92412 0
M  V30 3506 H 327.346 5.84143 0.636477 0
M  V30 3507 H 328.87 5.90151 1.56697 0
M  V30 3508 H 330.284 5.69076 -0.694671 0
M  V30 3509 H 328.681 5.81671 -1.47577 0
M  V30 3510 H 329.751 4.46534 -1.89038 0
M  V30 3511 N 331.094 0.475555 1.50254 0
M  V30 3512 C 332.044 -0.335025 2.25525 0
M  V30 3513 C 333.028 -0.957625 1.29299 0
M  V30 3514 O 334.22 -0.869436 1.54175 0
M  V30 3515 C 331.349 -1.41385 3.12834 0
M  V30 3516 C 330.435 -0.798762 4.1651 0
M  V30 3517 N 330.826 0.0835815 5.05731 0
M  V30 3518 C 329.124 -1.06221 4.33166 0
M  V30 3519 C 329.825 0.433113 5.80085 0
M  V30 3520 N 328.801 -0.1928 5.43258 0
M  V30 3521 H 332.603 0.344612 2.91873 0
M  V30 3522 H 330.117 0.289986 1.5979 0
M  V30 3523 H 332.114 -2.00777 3.65368 0
M  V30 3524 H 330.774 -2.09543 2.48036 0
M  V30 3525 H 331.785 0.452715 5.15918 0
M  V30 3526 H 328.462 -1.73844 3.79585 0
M  V30 3527 H 329.852 1.15346 6.61925 0
M  V30 3528 N 332.573 -1.56217 0.208337 0
M  V30 3529 C 333.798 -2.02782 -0.435222 0
M  V30 3530 C 334.223 -1.08738 -1.53485 0
M  V30 3531 O 333.581 -0.0731855 -1.81152 0
M  V30 3532 C 333.629 -3.47687 -0.956335 0
M  V30 3533 O 332.733 -3.56773 -2.06849 0
M  V30 3534 H 332.074 -0.656403 -0.100158 0
M  V30 3535 H 334.604 -2.02033 0.3231 0
M  V30 3536 H 334.614 -3.87745 -1.26955 0
M  V30 3537 H 333.289 -4.15624 -0.15143 0
M  V30 3538 H 331.866 -3.28597 -1.76292 0
M  V30 3539 N 334.051 0.0651679 -1.57465 0
M  V30 3540 C 334.983 1.10359 -2.00882 0
M  V30 3541 C 335.996 1.346 -0.915788 0
M  V30 3542 O 337.185 1.32723 -1.1936 0
M  V30 3543 C 334.285 2.45312 -2.33828 0
M  V30 3544 C 333.458 2.40934 -3.65061 0
M  V30 3545 C 332.517 3.58047 -3.85602 0
M  V30 3546 O 331.543 3.39175 -4.57109 0
M  V30 3547 N 332.745 4.78637 -3.28462 0
M  V30 3548 H 335.51 0.733807 -2.90578 0
M  V30 3549 H 333.071 0.253719 -1.599 0
M  V30 3550 H 335.063 3.22314 -2.44737 0
M  V30 3551 H 333.633 2.74267 -1.49988 0
M  V30 3552 H 332.853 1.49273 -3.64844 0
M  V30 3553 H 334.141 2.35117 -4.51218 0
M  V30 3554 H 333.539 4.96872 -2.70433 0
M  V30 3555 H 332.096 5.53127 -3.44809 0
M  V30 3556 N 335.529 1.53961 0.336706 0
M  V30 3557 C 336.777 1.71197 1.07405 0
M  V30 3558 C 337.098 0.481475 1.88962 0
M  V30 3559 O 336.368 -0.504585 1.8929 0
M  V30 3560 H 334.948 0.631185 0.399517 0
M  V30 3561 H 337.61 1.91232 0.376323 0
M  V30 3562 H 336.706 2.58587 1.74755 0
M  V30 3563 N 337.007 -0.598083 1.45811 0
M  V30 3564 C 337.937 -1.71873 1.58057 0
M  V30 3565 C 338.918 -1.64533 0.431615 0
M  V30 3566 O 340.103 -1.82787 0.65595 0
M  V30 3567 C 337.233 -3.10495 1.55597 0
M  V30 3568 C 336.187 -3.32654 2.69305 0
M  V30 3569 C 335.513 -4.71646 2.51902 0
M  V30 3570 C 336.813 -3.21981 4.11248 0
M  V30 3571 H 338.507 -1.61881 2.51863 0
M  V30 3572 H 336.053 -0.777372 1.21214 0
M  V30 3573 H 338.006 -3.88699 1.6276 0
M  V30 3574 H 336.73 -3.2135 0.583255 0
M  V30 3575 H 335.389 -2.56843 2.61586 0
M  V30 3576 H 335.037 -4.79246 1.52748 0
M  V30 3577 H 334.737 -4.87426 3.2816 0
M  V30 3578 H 336.261 -5.52038 2.60933 0
M  V30 3579 H 337.675 -3.90049 4.20161 0
M  V30 3580 H 336.072 -3.49289 4.87972 0
M  V30 3581 H 337.142 -2.1928 4.32486 0
M  V30 3582 N 338.485 -1.33259 -0.841409 0
M  V30 3583 C 339.731 -1.24757 -1.59886 0
M  V30 3584 C 340.064 0.186913 -1.93298 0
M  V30 3585 O 339.339 1.12757 -1.5848 0
M  V30 3586 C 339.622 -2.12036 -2.91055 0
M  V30 3587 C 339.475 -3.63929 -2.6434 0
M  V30 3588 C 340.794 -1.9916 -3.92458 0
M  V30 3589 H 337.913 -0.454542 -0.580138 0
M  V30 3590 H 340.555 -1.63335 -0.970647 0
M  V30 3591 H 338.705 -1.79265 -3.44669 0
M  V30 3592 H 340.377 -4.06978 -2.17178 0
M  V30 3593 H 338.62 -3.85935 -1.98082 0
M  V30 3594 H 339.291 -4.20341 -3.57796 0
M  V30 3595 H 341.767 -2.27895 -3.48143 0
M  V30 3596 H 340.643 -2.62484 -4.82072 0
M  V30 3597 H 340.904 -0.963082 -4.31482 0
M  V30 3598 N 339.963 1.05934 -1.16686 0
M  V30 3599 C 340.913 2.11764 -0.844978 0
M  V30 3600 C 341.897 1.59922 0.177178 0
M  V30 3601 O 343.089 1.76983 -0.0241768 0
M  V30 3602 C 340.218 3.41493 -0.351812 0
M  V30 3603 C 339.304 4.00152 -1.40496 0
M  V30 3604 N 339.695 4.32874 -2.61636 0
M  V30 3605 C 337.993 4.278 -1.26106 0
M  V30 3606 C 338.694 4.79552 -3.29249 0
M  V30 3607 N 337.67 4.79211 -2.56628 0
M  V30 3608 H 341.472 2.34916 -1.76612 0
M  V30 3609 H 338.986 1.23511 -1.05446 0
M  V30 3610 H 340.983 4.16773 -0.102796 0
M  V30 3611 H 339.643 3.19778 0.56322 0
M  V30 3612 H 340.654 4.23109 -2.98663 0
M  V30 3613 H 337.331 4.15511 -0.407081 0
M  V30 3614 H 338.721 5.14045 -4.32675 0
M  V30 3615 N 341.441 0.965919 1.2453 0
M  V30 3616 C 342.371 0.513476 2.27784 0
M  V30 3617 C 343.352 -0.445974 1.6415 0
M  V30 3618 O 344.537 -0.342485 1.91156 0
M  V30 3619 C 341.667 -0.198839 3.4673 0
M  V30 3620 C 340.621 0.676456 4.2262 0
M  V30 3621 C 339.947 -0.167248 5.34438 0
M  V30 3622 C 341.247 1.96017 4.84123 0
M  V30 3623 H 342.941 1.3765 2.65881 0
M  V30 3624 H 340.487 0.663321 1.27813 0
M  V30 3625 H 342.44 -0.526567 4.18097 0
M  V30 3626 H 341.164 -1.0962 3.07654 0
M  V30 3627 H 339.823 0.98743 3.53052 0
M  V30 3628 H 339.471 -1.0647 4.91603 0
M  V30 3629 H 339.171 0.415181 5.86131 0
M  V30 3630 H 340.695 -0.489688 6.08633 0
M  V30 3631 H 342.109 1.69814 5.47573 0
M  V30 3632 H 340.506 2.48918 5.4604 0
M  V30 3633 H 341.576 2.65622 4.05676 0
M  V30 3634 N 342.919 -1.39368 0.735821 0
M  V30 3635 C 344.196 -1.94465 0.210395 0
M  V30 3636 C 344.576 -1.67254 -1.28799 0
M  V30 3637 O 343.924 -1.00123 -2.05396 0
M  V30 3638 C 344.134 -3.4472 0.544897 0
M  V30 3639 C 345.482 -4.21708 0.494689 0
M  V30 3640 O 346.506 -3.52922 0.482136 0
M  V30 3641 O 345.365 -5.44299 0.489947 0
M  V30 3642 H 342.459 -0.826096 0.0386666 0
M  V30 3643 H 345.005 -1.48863 0.814735 0
M  V30 3644 H 343.777 -3.57963 1.58045 0
M  V30 3645 H 343.4 -3.97502 -0.08837 0
M  V30 3646 N 344.397 -0.483516 -1.5 0
M  V30 3647 C 345.643 0.0672592 -2.02688 0
M  V30 3648 C 345.976 1.38247 -1.36387 0
M  V30 3649 O 345.251 1.88131 -0.493675 0
M  V30 3650 C 345.534 0.238109 -3.59312 0
M  V30 3651 C 345.387 -1.099 -4.36168 0
M  V30 3652 C 346.706 0.986916 -4.28892 0
M  V30 3653 H 343.825 0.0229696 -0.736642 0
M  V30 3654 H 346.467 -0.631527 -1.79197 0
M  V30 3655 H 344.617 0.8333 -3.79458 0
M  V30 3656 H 346.289 -1.73172 -4.27562 0
M  V30 3657 H 344.532 -1.69261 -3.99416 0
M  V30 3658 H 345.203 -0.932954 -5.44059 0
M  V30 3659 H 347.679 0.482302 -4.13295 0
M  V30 3660 H 346.555 1.07527 -5.38265 0
M  V30 3661 H 346.816 2.0265 -3.92919 0
M  V30 3662 N 345.875 1.56104 -0.216619 0
M  V30 3663 C 346.822 2.2007 0.695531 0
M  V30 3664 C 347.792 1.15471 1.19397 0
M  V30 3665 O 348.977 1.43807 1.25396 0
M  V30 3666 C 346.117 2.88073 1.90021 0
M  V30 3667 C 345.23 4.07253 1.44113 0
M  V30 3668 C 344.365 4.63052 2.603 0
M  V30 3669 C 343.404 5.74545 2.11103 0
M  V30 3670 N 342.541 6.24656 3.20545 0
M  V30 3671 H 347.381 2.97655 0.143327 0
M  V30 3672 H 344.918 1.46982 0.0589934 0
M  V30 3673 H 346.876 3.25681 2.60745 0
M  V30 3674 H 345.506 2.13015 2.42538 0
M  V30 3675 H 344.558 3.75164 0.628999 0
M  V30 3676 H 345.87 4.8783 1.04036 0
M  V30 3677 H 345.024 5.03078 3.39113 0
M  V30 3678 H 343.763 3.81628 3.03663 0
M  V30 3679 H 342.768 5.34027 1.3075 0
M  V30 3680 H 343.993 6.57801 1.68746 0
M  V30 3681 H 341.939 5.46148 3.63399 0
M  V30 3682 H 341.856 7.00343 2.84704 0
M  V30 3683 H 343.124 6.69338 3.99508 0
M  V30 3684 N 347.353 -0.0568162 1.57498 0
M  V30 3685 C 348.764 -0.606858 1.76562 0
M  V30 3686 C 349.115 -1.77114 0.844094 0
M  V30 3687 O 348.24 -2.16376 0.0318911 0
M  V30 3688 C 348.835 -1.10766 3.20182 0
M  V30 3689 C 347.394 -1.60344 3.40539 0
M  V30 3690 C 346.541 -0.529311 2.72201 0
M  V30 3691 H 349.492 0.169393 1.57793 0
M  V30 3692 H 349.513 -1.97602 3.25167 0
M  V30 3693 H 349.025 -0.26006 3.87228 0
M  V30 3694 H 347.126 -2.47379 2.78629 0
M  V30 3695 H 347.239 -1.67006 4.4905 0
M  V30 3696 H 345.603 -0.977893 2.35179 0
M  V30 3697 H 346.386 0.308352 3.41912 0
M  V30 3698 N 348.832 -1.54138 -0.328536 0
M  V30 3699 C 349.795 -1.82462 -1.38709 0
M  V30 3700 C 350.795 -0.696229 -1.44946 0
M  V30 3701 O 351.985 -0.964535 -1.4506 0
M  V30 3702 C 349.117 -1.98018 -2.77492 0
M  V30 3703 H 350.31 -2.77037 -1.14851 0
M  V30 3704 H 347.863 -1.45779 -0.563751 0
M  V30 3705 H 348.598 -1.05637 -3.06613 0
M  V30 3706 H 348.383 -2.80124 -2.74359 0
M  V30 3707 H 349.873 -2.21396 -3.54081 0
M  V30 3708 N 350.31 0.590341 -1.46126 0
M  V30 3709 C 351.258 1.72105 -1.5647 0
M  V30 3710 C 352.252 1.63756 -0.433612 0
M  V30 3711 O 353.458 1.69342 -0.610194 0
M  V30 3712 H 349.833 0.568889 -0.491802 0
M  V30 3713 H 351.804 1.6051 -2.51553 0
M  V30 3714 C 350.553 3.10493 -1.56491 0
M  V30 3715 H 349.876 3.17583 -2.4286 0
M  V30 3716 H 351.316 3.8939 -1.67785 0
M  V30 3717 C 349.775 3.3563 -0.292231 0
M  V30 3718 O 350.305 3.96875 0.620739 0
M  V30 3719 N 348.511 2.90026 -0.182523 0
M  V30 3720 H 348.058 2.40367 -0.926356 0
M  V30 3721 H 348.016 3.07218 0.668152 0
M  V30 3722 N 351.788 1.33704 0.83433 0
M  V30 3723 C 353.037 1.24763 1.58484 0
M  V30 3724 C 353.35 -0.183775 1.94735 0
M  V30 3725 O 354.556 -0.395234 2.68608 0
M  V30 3726 C 353.012 2.18638 2.85876 0
M  V30 3727 C 352.62 3.66974 2.56971 0
M  V30 3728 C 354.364 2.18581 3.63899 0
M  V30 3729 C 352.271 4.5275 3.80488 0
M  V30 3730 H 351.201 0.463425 0.594772 0
M  V30 3731 H 353.852 1.58797 0.919551 0
M  V30 3732 H 352.234 1.77542 3.5397 0
M  V30 3733 H 353.408 4.16538 1.9706 0
M  V30 3734 H 351.723 3.69366 1.92244 0
M  V30 3735 H 354.32 2.79894 4.55591 0
M  V30 3736 H 354.663 1.18207 3.99165 0
M  V30 3737 H 355.196 2.58062 3.02735 0
M  V30 3738 H 351.935 5.54017 3.5035 0
M  V30 3739 H 351.455 4.07927 4.39722 0
M  V30 3740 H 353.134 4.66784 4.4802 0
M  V30 3741 N 353.266 -1.05314 1.17247 0
M  V30 3742 C 354.513 -1.78293 0.960091 0
M  V30 3743 C 354.841 -1.87658 -0.51136 0
M  V30 3744 O 354.096 -1.3718 -1.39571 0
M  V30 3745 C 354.395 -3.2229 1.54479 0
M  V30 3746 C 354.061 -3.32987 3.04024 0
M  V30 3747 C 352.723 -3.35613 3.44844 0
M  V30 3748 C 355.075 -3.34102 4.00031 0
M  V30 3749 C 352.403 -3.36982 4.8027 0
M  V30 3750 C 354.755 -3.3701 5.35357 0
M  V30 3751 C 353.419 -3.37923 5.75642 0
M  V30 3752 H 352.689 -0.652422 0.351322 0
M  V30 3753 H 355.336 -1.23782 1.46117 0
M  V30 3754 H 353.641 -3.7972 0.965391 0
M  V30 3755 H 355.338 -3.77376 1.35603 0
M  V30 3756 H 351.928 -3.31655 2.71483 0
M  V30 3757 H 356.112 -3.31276 3.69554 0
M  V30 3758 H 351.368 -3.35999 5.10798 0
M  V30 3759 H 355.542 -3.36822 6.09528 0
M  V30 3760 H 353.169 -3.38738 6.80559 0
M  V30 3761 N 354.744 -0.972509 -1.24016 0
M  V30 3762 C 355.674 -0.525548 -2.27509 0
M  V30 3763 C 356.655 0.437262 -1.64384 0
M  V30 3764 O 357.84 0.332343 -1.91335 0
M  V30 3765 C 354.97 0.180448 -3.46831 0
M  V30 3766 C 353.924 -0.698859 -4.22256 0
M  V30 3767 C 353.25 0.138903 -5.3452 0
M  V30 3768 C 354.55 -1.98582 -4.83076 0
M  V30 3769 H 356.244 -1.39058 -2.65148 0
M  V30 3770 H 353.79 -0.67009 -1.27459 0
M  V30 3771 H 355.743 0.504387 -4.18371 0
M  V30 3772 H 354.467 1.07987 -3.08231 0
M  V30 3773 H 353.126 -1.00614 -3.52523 0
M  V30 3774 H 352.774 1.03862 -4.9216 0
M  V30 3775 H 352.474 -0.446259 -5.85903 0
M  V30 3776 H 353.998 0.457404 -6.08884 0
M  V30 3777 H 355.412 -1.72715 -5.46665 0
M  V30 3778 H 353.809 -2.5181 -5.44713 0
M  V30 3779 H 354.879 -2.67769 -4.04262 0
M  V30 3780 N 356.222 1.38976 -0.743202 0
M  V30 3781 C 357.47 1.99948 -0.29417 0
M  V30 3782 C 357.791 1.59279 1.12495 0
M  V30 3783 O 357.061 0.844808 1.76748 0
M  V30 3784 H 355.641 0.739473 -0.105774 0
M  V30 3785 H 358.303 1.699 -0.954986 0
M  V30 3786 H 357.399 3.10142 -0.349056 0
M  V30 3787 N 357.7 0.491464 1.49741 0
M  V30 3788 C 359.111 0.0413169 1.86654 0
M  V30 3789 C 359.462 -1.36985 1.40462 0
M  V30 3790 O 358.587 -2.01917 0.778354 0
M  V30 3791 C 359.182 0.0682023 3.38731 0
M  V30 3792 C 357.741 -0.32656 3.74981 0
M  V30 3793 C 356.888 0.444888 2.73708 0
M  V30 3794 H 359.839 0.704733 1.42194 0
M  V30 3795 H 359.86 -0.729322 3.73445 0
M  V30 3796 H 359.372 1.09539 3.72321 0
M  V30 3797 H 357.473 -1.35734 3.46997 0
M  V30 3798 H 357.586 -0.013741 4.79098 0
M  V30 3799 H 355.95 -0.104062 2.54487 0
M  V30 3800 H 356.733 1.47197 3.10142 0
M  V30 3801 N 359.178 -1.55987 0.224894 0
M  V30 3802 C 360.594 -1.59066 -0.130426 0
M  V30 3803 C 360.794 -1.24176 -1.5869 0
M  V30 3804 O 359.85 -0.978592 -2.32766 0
M  V30 3805 C 361.163 -3.00042 0.198883 0
M  V30 3806 C 362.711 -3.1268 0.141391 0
M  V30 3807 C 363.186 -4.55839 0.444422 0
M  V30 3808 N 364.677 -4.6152 0.394115 0
M  V30 3809 C 365.412 -5.70231 0.602038 0
M  V30 3810 N 364.908 -6.87291 0.871914 0
M  V30 3811 N 366.701 -5.59555 0.534245 0
M  V30 3812 H 358.852 -1.76941 1.17497 0
M  V30 3813 H 361.115 -0.822604 0.471197 0
M  V30 3814 H 360.821 -3.30234 1.2099 0
M  V30 3815 H 360.695 -3.74075 -0.484535 0
M  V30 3816 H 363.082 -2.82283 -0.860265 0
M  V30 3817 H 363.163 -2.40969 0.858335 0
M  V30 3818 H 362.807 -4.86954 1.44353 0
M  V30 3819 H 362.737 -5.2578 -0.293752 0
M  V30 3820 H 365.228 -3.77405 0.193356 0
M  V30 3821 H 365.541 -7.66058 1.01858 0
M  V30 3822 H 363.886 -6.89028 0.909145 0
M  V30 3823 H 367.077 -4.6698 0.323612 0
M  V30 3824 H 367.25 -6.44211 0.699693 0
M  V30 3825 N 360.656 0.0484629 -1.57525 0
M  V30 3826 C 361.904 0.741657 -1.88 0
M  V30 3827 C 362.225 1.76918 -0.820054 0
M  V30 3828 O 361.495 1.95335 0.148661 0
M  V30 3829 H 360.075 0.276908 -0.69378 0
M  V30 3830 H 362.737 0.019013 -1.94891 0
M  V30 3831 H 361.833 1.24336 -2.86264 0
M  V30 3832 N 362.134 1.5431 0.320358 0
M  V30 3833 C 363.55 1.45091 0.664889 0
M  V30 3834 C 363.75 0.626382 1.91517 0
M  V30 3835 O 362.806 0.126443 2.52183 0
M  V30 3836 C 364.119 2.88848 0.83591 0
M  V30 3837 C 365.667 2.9877 0.933046 0
M  V30 3838 C 366.142 4.43683 1.13621 0
M  V30 3839 N 367.633 4.47309 1.20287 0
M  V30 3840 C 368.368 5.56595 1.37801 0
M  V30 3841 N 367.864 6.75844 1.52338 0
M  V30 3842 N 369.657 5.44248 1.40535 0
M  V30 3843 H 361.808 2.06398 -0.501374 0
M  V30 3844 H 364.071 0.933963 -0.162534 0
M  V30 3845 H 363.777 3.51698 -0.0116092 0
M  V30 3846 H 363.651 3.35148 1.73078 0
M  V30 3847 H 366.038 2.36045 1.77107 0
M  V30 3848 H 366.119 2.55796 0.0145782 0
M  V30 3849 H 365.763 5.06995 0.303032 0
M  V30 3850 H 365.693 4.84269 2.0686 0
M  V30 3851 H 368.184 3.61388 1.10485 0
M  V30 3852 H 368.497 7.54892 1.65403 0
M  V30 3853 H 366.842 6.78746 1.4943 0
M  V30 3854 H 370.033 4.50038 1.28777 0
M  V30 3855 H 370.206 6.29473 1.53842 0
M  V30 3856 N 363.613 -0.582584 1.46437 0
M  V30 3857 C 364.853 -1.35184 1.53312 0
M  V30 3858 C 365.217 -1.9115 0.180508 0
M  V30 3859 O 366.418 -2.68514 0.124017 0
M  V30 3860 C 364.689 -2.45089 2.60127 0
M  V30 3861 S 366.248 -3.32439 2.86408 0
M  V30 3862 H 363.066 -0.460559 0.54167 0
M  V30 3863 H 365.668 -0.669709 1.83671 0
M  V30 3864 H 364.372 -2.02366 3.57038 0
M  V30 3865 H 363.903 -3.18074 2.315 0
M  V30 3866 H 365.918 -4.43924 2.21688 0
M  V30 3867 N 365.091 -1.34144 -0.827227 0
M  V30 3868 C 366.038 -1.25364 -1.93785 0
M  V30 3869 C 367.008 -0.129774 -1.65592 0
M  V30 3870 O 368.193 -0.310024 -1.88264 0
M  V30 3871 C 365.333 -1.01064 -3.2997 0
M  V30 3872 C 364.446 -2.22185 -3.70484 0
M  V30 3873 C 363.581 -1.91203 -4.95595 0
M  V30 3874 C 362.62 -3.08491 -5.28677 0
M  V30 3875 N 361.757 -2.77421 -6.44967 0
M  V30 3876 H 366.597 -2.20347 -2.00627 0
M  V30 3877 H 364.134 -1.09558 -0.981608 0
M  V30 3878 H 366.092 -0.850139 -4.08446 0
M  V30 3879 H 364.722 -0.0975026 -3.22653 0
M  V30 3880 H 363.774 -2.4917 -2.87434 0
M  V30 3881 H 365.086 -3.0983 -3.90905 0
M  V30 3882 H 364.24 -1.71864 -5.81848 0
M  V30 3883 H 362.979 -1.00812 -4.77167 0
M  V30 3884 H 361.984 -3.28431 -4.40923 0
M  V30 3885 H 363.209 -3.99655 -5.49047 0
M  V30 3886 H 361.155 -1.89601 -6.28003 0
M  V30 3887 H 361.072 -3.58598 -6.6554 0
M  V30 3888 H 362.34 -2.61577 -7.34301 0
M  V30 3889 N 366.569 1.04691 -1.17803 0
M  V30 3890 C 367.499 2.14494 -0.92275 0
M  V30 3891 C 368.48 1.69546 0.137179 0
M  V30 3892 O 369.665 1.94195 -0.0141108 0
M  V30 3893 C 366.795 3.44491 -0.440803 0
M  V30 3894 C 365.749 4.03031 -1.4405 0
M  V30 3895 C 365.075 5.28432 -0.81631 0
M  V30 3896 C 366.375 4.39932 -2.81527 0
M  V30 3897 H 368.069 2.36107 -1.84103 0
M  V30 3898 H 365.615 1.1347 -0.886599 0
M  V30 3899 H 367.568 4.2066 -0.249602 0
M  V30 3900 H 366.292 3.22546 0.513025 0
M  V30 3901 H 364.951 3.28937 -1.61853 0
M  V30 3902 H 364.599 5.02792 0.144511 0
M  V30 3903 H 364.299 5.68559 -1.48371 0
M  V30 3904 H 365.823 6.07284 -0.635496 0
M  V30 3905 H 367.237 5.07113 -2.67412 0
M  V30 3906 H 365.634 4.9109 -3.44892 0
M  V30 3907 H 366.704 3.50045 -3.35554 0
M  V30 3908 N 368.047 0.979072 1.23499 0
M  V30 3909 C 369.295 0.645941 1.91499 0
M  V30 3910 C 369.616 -0.822948 1.76784 0
M  V30 3911 O 368.886 -1.58854 1.14639 0
M  V30 3912 H 367.466 0.235919 0.708767 0
M  V30 3913 H 370.128 1.2426 1.50152 0
M  V30 3914 H 369.224 0.896411 2.9895 0
M  V30 3915 N 369.525 -1.3858 0.750561 0
M  V30 3916 C 370.802 -1.94231 0.231009 0
M  V30 3917 C 371.182 -1.68611 -1.27018 0
M  V30 3918 O 370.53 -1.02296 -2.04323 0
M  V30 3919 C 370.74 -3.44123 0.581428 0
M  V30 3920 C 372.088 -4.2116 0.539389 0
M  V30 3921 O 373.112 -3.52391 0.519541 0
M  V30 3922 O 371.971 -5.43749 0.54765 0
M  V30 3923 H 369.065 -0.825639 0.0474263 0
M  V30 3924 H 371.611 -1.4799 0.830478 0
M  V30 3925 H 370.383 -3.56267 1.61833 0
M  V30 3926 H 370.006 -3.97573 -0.0462047 0
M  V30 3927 N 371.003 -0.499398 -1.49478 0
M  V30 3928 C 372.25 0.0456899 -2.02448 0
M  V30 3929 C 372.578 1.37142 -1.37921 0
M  V30 3930 O 371.833 1.89111 -0.503544 0
M  V30 3931 C 372.132 0.248424 -3.56536 0
M  V30 3932 C 371.798 -0.999107 -4.39692 0
M  V30 3933 C 370.46 -1.34108 -4.62135 0
M  V30 3934 C 372.812 -1.82842 -4.88076 0
M  V30 3935 C 370.14 -2.51191 -5.30208 0
M  V30 3936 C 372.492 -2.99076 -5.57437 0
M  V30 3937 C 371.156 -3.33655 -5.78127 0
M  V30 3938 H 370.426 0.0167191 -0.740811 0
M  V30 3939 H 373.073 -0.65923 -1.79795 0
M  V30 3940 H 371.378 1.03586 -3.77859 0
M  V30 3941 H 373.075 0.684605 -3.95113 0
M  V30 3942 H 369.665 -0.722729 -4.22463 0
M  V30 3943 H 373.849 -1.57737 -4.70566 0
M  V30 3944 H 369.105 -2.78221 -5.44429 0
M  V30 3945 H 373.279 -3.63664 -5.93904 0
M  V30 3946 H 370.906 -4.24483 -6.30649 0
M  V30 3947 N 372.481 1.55866 -0.233164 0
M  V30 3948 C 373.729 1.9821 0.394593 0
M  V30 3949 C 374.05 1.12234 1.59463 0
M  V30 3950 O 373.32 0.201981 1.94856 0
M  V30 3951 H 371.9 0.732034 0.148778 0
M  V30 3952 H 374.562 1.92107 -0.32876 0
M  V30 3953 H 373.658 3.03845 0.713063 0
M  V30 3954 N 373.959 -0.0401083 1.57549 0
M  V30 3955 C 374.889 -1.04384 2.08869 0
M  V30 3956 C 375.87 -1.38407 0.988817 0
M  V30 3957 O 377.055 -1.47483 1.26342 0
M  V30 3958 C 374.185 -2.34808 2.55895 0
M  V30 3959 C 373.139 -2.15057 3.70047 0
M  V30 3960 C 372.465 -3.51145 4.03239 0
M  V30 3961 C 373.765 -1.54576 4.98902 0
M  V30 3962 H 375.459 -0.616666 2.92981 0
M  V30 3963 H 373.005 -0.295184 1.40942 0
M  V30 3964 H 374.958 -3.05346 2.90417 0
M  V30 3965 H 373.682 -2.79565 1.68853 0
M  V30 3966 H 372.341 -1.46954 3.35857 0
M  V30 3967 H 371.989 -3.93529 3.13279 0
M  V30 3968 H 371.689 -3.38758 4.80122 0
M  V30 3969 H 373.213 -4.23062 4.40285 0
M  V30 3970 H 374.627 -2.15017 5.31451 0
M  V30 3971 H 373.024 -1.52796 5.80322 0
M  V30 3972 H 374.094 -0.51039 4.82206 0
M  V30 3973 N 375.437 -1.54477 -0.31217 0
M  V30 3974 C 376.367 -1.87652 -1.38957 0
M  V30 3975 C 377.348 -0.734358 -1.53431 0
M  V30 3976 O 378.533 -0.98911 -1.67123 0
M  V30 3977 C 375.663 -2.11396 -2.75552 0
M  V30 3978 C 374.617 -3.27243 -2.75855 0
M  V30 3979 C 373.943 -3.36382 -4.15633 0
M  V30 3980 C 375.243 -4.64622 -2.38587 0
M  V30 3981 H 376.937 -2.77887 -1.11442 0
M  V30 3982 H 374.483 -1.33707 -0.534655 0
M  V30 3983 H 376.436 -2.33189 -3.51 0
M  V30 3984 H 375.16 -1.17921 -3.04569 0
M  V30 3985 H 373.819 -3.05356 -2.02863 0
M  V30 3986 H 373.467 -2.40445 -4.41809 0
M  V30 3987 H 373.167 -4.14249 -4.1674 0
M  V30 3988 H 374.691 -3.60422 -4.92877 0
M  V30 3989 H 376.105 -4.86219 -3.03749 0
M  V30 3990 H 374.502 -5.45121 -2.50925 0
M  V30 3991 H 375.572 -4.66097 -1.33723 0
M  V30 3992 N 376.915 0.57481 -1.46744 0
M  V30 3993 C 378.161 1.3347 -1.52688 0
M  V30 3994 C 378.494 1.93353 -0.181229 0
M  V30 3995 O 377.769 1.76912 0.808237 0
M  V30 3996 C 378.052 2.45811 -2.63152 0
M  V30 3997 C 377.905 1.90912 -4.07275 0
M  V30 3998 C 379.224 3.47822 -2.69644 0
M  V30 3999 H 376.343 0.483935 -0.555856 0
M  V30 4000 H 378.985 0.644968 -1.78718 0
M  V30 4001 H 377.135 3.04646 -2.41088 0
M  V30 4002 H 378.807 1.36473 -4.4065 0
M  V30 4003 H 377.05 1.21691 -4.16382 0
M  V30 4004 H 377.721 2.72042 -4.80309 0
M  V30 4005 H 380.197 2.9888 -2.895 0
M  V30 4006 H 379.073 4.23876 -3.48742 0
M  V30 4007 H 379.334 4.05555 -1.76005 0
M  V30 4008 N 378.394 1.34581 0.820102 0
M  V30 4009 C 379.304 1.28471 1.96297 0
M  V30 4010 C 380.32 0.191902 1.72939 0
M  V30 4011 O 381.496 0.418879 1.96996 0
M  V30 4012 C 378.561 1.04281 3.30645 0
M  V30 4013 C 377.622 2.22745 3.66992 0
M  V30 4014 C 376.855 1.997 4.9493 0
M  V30 4015 O 377.078 0.956656 5.6232 0
M  V30 4016 O 376.012 2.86723 5.2922 0
M  V30 4017 H 379.838 2.24624 2.04396 0
M  V30 4018 H 377.423 1.14816 0.955913 0
M  V30 4019 H 379.305 0.925841 4.11104 0
M  V30 4020 H 377.98 0.111697 3.23507 0
M  V30 4021 H 376.887 2.40003 2.86966 0
M  V30 4022 H 378.22 3.14257 3.78819 0
M  V30 4023 N 379.872 -1.04064 1.18357 0
M  V30 4024 C 380.802 -2.14001 0.934113 0
M  V30 4025 C 381.783 -1.69616 -0.128186 0
M  V30 4026 O 382.968 -1.94185 0.0244093 0
M  V30 4027 C 380.098 -3.44253 0.459066 0
M  V30 4028 C 379.052 -4.02261 1.46185 0
M  V30 4029 C 378.378 -5.27992 0.844322 0
M  V30 4030 C 379.678 -4.38432 2.83856 0
M  V30 4031 H 381.372 -2.35127 1.85352 0
M  V30 4032 H 378.918 -1.12998 0.892604 0
M  V30 4033 H 380.871 -4.20522 0.271907 0
M  V30 4034 H 379.595 -3.22813 -0.495912 0
M  V30 4035 H 378.254 -3.28074 1.63595 0
M  V30 4036 H 377.902 -5.02862 -0.117845 0
M  V30 4037 H 377.602 -5.67765 1.51384 0
M  V30 4038 H 379.126 -6.06938 0.667693 0
M  V30 4039 H 380.54 -5.05688 2.70098 0
M  V30 4040 H 378.937 -4.89254 3.47491 0
M  V30 4041 H 380.007 -3.4826 3.37406 0
M  V30 4042 N 381.35 -0.985608 -1.22978 0
M  V30 4043 C 382.598 -0.656087 -1.91154 0
M  V30 4044 C 382.919 0.813561 -1.77218 0
M  V30 4045 O 382.189 1.58244 -1.1548 0
M  V30 4046 H 380.769 -0.239674 -0.707506 0
M  V30 4047 H 383.431 -1.25054 -1.49491 0
M  V30 4048 H 382.527 -0.912253 -2.9847 0
M  V30 4049 N 382.828 1.3818 -0.7579 0
M  V30 4050 C 384.056 2.04301 -0.326937 0
M  V30 4051 C 384.471 1.57163 1.0462 0
M  V30 4052 O 383.828 0.746626 1.66529 0
M  V30 4053 C 383.879 3.59846 -0.345363 0
M  V30 4054 O 383.6 4.05256 -1.66432 0
M  V30 4055 C 385.101 4.4319 0.098927 0
M  V30 4056 H 382.321 0.656443 -0.139012 0
M  V30 4057 H 384.865 1.76786 -1.02796 0
M  V30 4058 H 383.02 3.86182 0.306955 0
M  V30 4059 H 383.434 4.99709 -1.59345 0
M  V30 4060 H 384.908 5.51989 0.0348745 0
M  V30 4061 H 385.385 4.23947 1.14741 0
M  V30 4062 H 385.991 4.22051 -0.52468 0
M  V30 4063 N 384.306 0.507319 1.49211 0
M  V30 4064 C 385.269 -0.256763 2.27757 0
M  V30 4065 C 386.269 -0.888287 1.34038 0
M  V30 4066 O 387.459 -0.751841 1.5714 0
M  V30 4067 C 384.591 -1.36905 3.12202 0
M  V30 4068 H 385.784 0.432557 2.96764 0
M  V30 4069 H 383.337 0.262488 1.5408 0
M  V30 4070 H 384.072 -2.09233 2.47775 0
M  V30 4071 H 383.857 -0.921599 3.81115 0
M  V30 4072 H 385.347 -1.9071 3.7151 0
M  V30 4073 N 385.784 -1.5574 0.241426 0
M  V30 4074 C 387.032 -1.98417 -0.384075 0
M  V30 4075 C 387.353 -1.13078 -1.58866 0
M  V30 4076 O 386.623 -0.212312 -1.94746 0
M  V30 4077 H 385.203 -0.732813 -0.144894 0
M  V30 4078 H 387.865 -1.9193 0.338943 0
M  V30 4079 H 386.961 -3.04219 -0.696939 0
M  V30 4080 N 387.262 0.0317525 -1.57568 0
M  V30 4081 C 388.225 1.01783 -2.0536 0
M  V30 4082 C 389.225 1.29203 -0.957253 0
M  V30 4083 O 390.415 1.24251 -1.22095 0
M  V30 4084 C 387.547 2.35137 -2.46827 0
M  V30 4085 H 388.74 0.605062 -2.93733 0
M  V30 4086 H 386.293 0.278514 -1.53799 0
M  V30 4087 H 387.028 2.81168 -1.61602 0
M  V30 4088 H 386.813 2.16566 -3.26866 0
M  V30 4089 H 388.303 3.05938 -2.84239 0
M  V30 4090 N 388.74 1.54641 0.303973 0
M  V30 4091 C 389.988 1.73437 1.0375 0
M  V30 4092 C 390.309 0.521449 1.87899 0
M  V30 4093 O 389.579 -0.46432 1.90318 0
M  V30 4094 H 388.159 0.639518 0.386039 0
M  V30 4095 H 390.821 1.91988 0.335675 0
M  V30 4096 H 389.917 2.62235 1.69231 0
M  V30 4097 N 390.218 -0.567019 1.47046 0
M  V30 4098 C 391.128 -1.70247 1.6141 0
M  V30 4099 C 392.144 -1.66746 0.497157 0
M  V30 4100 O 393.32 -1.86371 0.763389 0
M  V30 4101 C 390.385 -3.06756 1.61561 0
M  V30 4102 C 389.446 -3.21399 2.84607 0
M  V30 4103 C 388.679 -4.51396 2.84741 0
M  V30 4104 O 388.902 -5.36255 1.94388 0
M  V30 4105 O 387.836 -4.69621 3.76483 0
M  V30 4106 H 391.662 -1.61073 2.57467 0
M  V30 4107 H 389.247 -0.735894 1.30019 0
M  V30 4108 H 391.129 -3.8801 1.64396 0
M  V30 4109 H 389.804 -3.16333 0.686684 0
M  V30 4110 H 388.711 -2.39579 2.8732 0
M  V30 4111 H 390.044 -3.16721 3.76761 0
M  V30 4112 N 391.696 -1.35014 -0.812953 0
M  V30 4113 C 392.942 -1.2812 -1.57204 0
M  V30 4114 C 393.275 0.145869 -1.93651 0
M  V30 4115 O 392.55 1.0937 -1.60836 0
M  V30 4116 C 392.833 -2.18162 -2.86492 0
M  V30 4117 C 392.686 -3.69454 -2.56561 0
M  V30 4118 C 394.005 -2.07439 -3.88145 0
M  V30 4119 H 391.124 -0.466746 -0.570366 0
M  V30 4120 H 393.766 -1.65357 -0.935783 0
M  V30 4121 H 391.916 -1.86535 -3.40789 0
M  V30 4122 H 393.588 -4.11493 -2.08497 0
M  V30 4123 H 391.831 -3.9005 -1.89851 0
M  V30 4124 H 392.502 -4.27835 -3.48799 0
M  V30 4125 H 394.978 -2.35228 -3.4323 0
M  V30 4126 H 393.854 -2.7265 -4.76396 0
M  V30 4127 H 394.115 -1.05439 -4.29343 0
M  V30 4128 N 393.175 1.03435 -1.18907 0
M  V30 4129 C 394.107 2.1165 -0.879595 0
M  V30 4130 C 395.12 1.62316 0.125439 0
M  V30 4131 O 396.309 1.78201 -0.103245 0
M  V30 4132 C 393.409 3.37622 -0.294042 0
M  V30 4133 C 392.582 4.16166 -1.34629 0
M  V30 4134 C 391.641 5.20457 -0.775274 0
M  V30 4135 O 390.667 5.50379 -1.4516 0
M  V30 4136 N 391.869 5.78949 0.424126 0
M  V30 4137 H 394.634 2.38791 -1.81105 0
M  V30 4138 H 392.195 1.19681 -1.09032 0
M  V30 4139 H 394.187 4.04572 0.101679 0
M  V30 4140 H 392.757 3.07873 0.541575 0
M  V30 4141 H 391.977 3.44444 -1.91707 0
M  V30 4142 H 393.265 4.65432 -2.05549 0
M  V30 4143 H 392.663 5.56948 0.991209 0
M  V30 4144 H 391.22 6.47334 0.761691 0
M  V30 4145 N 394.653 0.992116 1.22453 0
M  V30 4146 C 395.563 0.55065 2.28046 0
M  V30 4147 C 396.579 -0.400189 1.69335 0
M  V30 4148 O 397.755 -0.267215 1.99619 0
M  V30 4149 C 394.82 -0.128496 3.46462 0
M  V30 4150 C 393.881 0.865208 4.20491 0
M  V30 4151 C 393.114 0.218377 5.33253 0
M  V30 4152 O 393.337 -0.987894 5.6178 0
M  V30 4153 O 392.271 0.922845 5.94783 0
M  V30 4154 H 396.097 1.4291 2.67975 0
M  V30 4155 H 393.682 0.760326 1.28606 0
M  V30 4156 H 395.564 -0.508947 4.18315 0
M  V30 4157 H 394.239 -0.981526 3.0846 0
M  V30 4158 H 393.146 1.29658 3.50913 0
M  V30 4159 H 394.479 1.68741 4.62371 0
M  V30 4160 N 396.131 -1.37776 0.765217 0
M  V30 4161 C 397.379 -1.99454 0.325943 0
M  V30 4162 C 397.7 -1.61049 -1.09947 0
M  V30 4163 O 396.97 -0.872821 -1.75381 0
M  V30 4164 H 395.55 -0.737697 0.117525 0
M  V30 4165 H 398.212 -1.68359 0.981895 0
M  V30 4166 H 397.308 -3.09547 0.398353 0
M  V30 4167 N 397.609 -0.515225 -1.4894 0
M  V30 4168 C 398.886 0.0879088 -1.95402 0
M  V30 4169 C 399.266 1.52745 -1.45712 0
M  V30 4170 O 398.614 2.18238 -0.677093 0
M  V30 4171 C 398.824 -0.0141055 -3.48997 0
M  V30 4172 C 400.172 0.152646 -4.24326 0
M  V30 4173 O 401.196 0.0604025 -3.56149 0
M  V30 4174 O 400.055 0.34384 -5.45417 0
M  V30 4175 H 397.149 0.0874636 -0.822362 0
M  V30 4176 H 399.695 -0.578775 -1.59525 0
M  V30 4177 H 398.467 -1.01745 -3.77841 0
M  V30 4178 H 398.09 0.692091 -3.9153 0
M  V30 4179 N 399.087 1.5561 -0.249682 0
M  V30 4180 C 400.498 1.84979 0.252949 0
M  V30 4181 C 400.849 1.17153 1.57384 0
M  V30 4182 O 399.974 0.450884 2.11651 0
M  V30 4183 C 400.569 3.35584 0.465732 0
M  V30 4184 C 399.128 3.65169 0.912624 0
M  V30 4185 C 398.275 2.77299 -0.00859085 0
M  V30 4186 H 401.226 1.51513 -0.47217 0
M  V30 4187 H 401.247 3.57313 1.30795 0
M  V30 4188 H 400.759 3.8492 -0.49579 0
M  V30 4189 H 398.86 3.21312 1.88652 0
M  V30 4190 H 398.973 4.72912 0.767559 0
M  V30 4191 H 397.337 2.49678 0.50327 0
M  V30 4192 H 398.12 3.29442 -0.965537 0
M  V30 4193 N 400.565 -0.0233959 1.57583 0
M  V30 4194 C 401.981 -0.379134 1.55031 0
M  V30 4195 C 402.181 -1.76255 0.976548 0
M  V30 4196 O 401.237 -2.45266 0.600078 0
M  V30 4197 C 402.55 -0.275792 2.99433 0
M  V30 4198 C 404.098 -0.352458 3.11009 0
M  V30 4199 C 404.573 -0.278501 4.57152 0
M  V30 4200 N 406.064 -0.337123 4.61972 0
M  V30 4201 C 406.799 -0.302876 5.726 0
M  V30 4202 N 406.295 -0.220589 6.92449 0
M  V30 4203 N 408.088 -0.353023 5.6099 0
M  V30 4204 H 400.239 0.881869 1.93227 0
M  V30 4205 H 402.502 0.335867 0.886509 0
M  V30 4206 H 402.208 0.675108 3.4516 0
M  V30 4207 H 402.082 -1.06721 3.61788 0
M  V30 4208 H 404.469 -1.29379 2.65226 0
M  V30 4209 H 404.55 0.468409 2.51475 0
M  V30 4210 H 404.194 0.659189 5.03604 0
M  V30 4211 H 404.124 -1.11755 5.14605 0
M  V30 4212 H 406.615 -0.403002 3.75745 0
M  V30 4213 H 406.928 -0.199713 7.72542 0
M  V30 4214 H 405.273 -0.186555 6.9475 0
M  V30 4215 H 408.464 -0.415339 4.66254 0
M  V30 4216 H 408.637 -0.322866 6.47195 0
M  V30 4217 N 402.043 -1.548 -0.295768 0
M  V30 4218 C 403.273 -1.78069 -1.04762 0
M  V30 4219 C 403.681 -0.542847 -1.81245 0
M  V30 4220 O 403.024 0.497051 -1.76848 0
M  V30 4221 C 403.086 -2.93881 -2.07061 0
M  V30 4222 C 402.75 -4.31777 -1.49725 0
M  V30 4223 C 403.747 -5.11613 -0.924581 0
M  V30 4224 C 401.432 -4.78389 -1.5313 0
M  V30 4225 C 403.426 -6.36184 -0.393594 0
M  V30 4226 C 401.113 -6.02921 -0.996447 0
M  V30 4227 C 402.111 -6.81654 -0.428569 0
M  V30 4228 O 401.799 -8.0384 0.0981593 0
M  V30 4229 H 401.531 -0.597475 -0.316226 0
M  V30 4230 H 404.085 -2.02584 -0.338973 0
M  V30 4231 H 402.315 -2.65003 -2.81621 0
M  V30 4232 H 404.004 -3.04679 -2.6819 0
M  V30 4233 H 404.77 -4.76743 -0.891136 0
M  V30 4234 H 400.649 -4.17132 -1.9627 0
M  V30 4235 H 404.193 -6.97582 0.0503014 0
M  V30 4236 H 400.09 -6.37277 -1.02706 0
M  V30 4237 H 400.858 -8.18499 -0.0146455 0
M  V30 4238 N 403.521 0.559213 -1.47345 0
M  V30 4239 C 404.454 1.68201 -1.5422 0
M  V30 4240 C 405.432 1.57742 -0.394497 0
M  V30 4241 O 406.616 1.78628 -0.60201 0
M  V30 4242 C 403.743 3.0643 -1.44285 0
M  V30 4243 C 402.789 3.3534 -2.63532 0
M  V30 4244 S 403.622 3.24816 -4.25741 0
M  V30 4245 C 404.778 4.65542 -4.18355 0
M  V30 4246 H 405.011 1.62114 -2.49211 0
M  V30 4247 H 402.544 0.739871 -1.35519 0
M  V30 4248 H 404.502 3.86164 -1.3924 0
M  V30 4249 H 403.163 3.09984 -0.506816 0
M  V30 4250 H 402.356 4.36107 -2.52639 0
M  V30 4251 H 401.958 2.63221 -2.65689 0
M  V30 4252 H 404.25 5.56449 -3.86485 0
M  V30 4253 H 405.193 4.81493 -5.19202 0
M  V30 4254 H 405.601 4.43495 -3.49246 0
M  V30 4255 N 404.999 1.35443 0.805782 0
M  V30 4256 C 405.962 1.28301 1.89925 0
M  V30 4257 C 406.962 0.194285 1.59622 0
M  V30 4258 O 408.152 0.448036 1.6834 0
M  V30 4259 C 405.284 0.984997 3.2636 0
M  V30 4260 H 406.477 2.2553 1.97677 0
M  V30 4261 H 404.03 1.19979 1.00173 0
M  V30 4262 H 404.765 0.016603 3.24296 0
M  V30 4263 H 404.55 1.77269 3.4974 0
M  V30 4264 H 406.04 0.960651 4.064 0
M  V30 4265 N 406.477 -1.02803 1.19454 0
M  V30 4266 C 407.888 -1.57667 0.999899 0
M  V30 4267 C 408.239 -1.91041 -0.446956 0
M  V30 4268 O 407.364 -1.70978 -1.32648 0
M  V30 4269 C 407.959 -2.86477 1.80877 0
M  V30 4270 C 406.518 -3.37911 1.65811 0
M  V30 4271 C 405.665 -2.11343 1.79526 0
M  V30 4272 H 408.616 -0.853214 1.33813 0
M  V30 4273 H 408.637 -3.57408 1.30536 0
M  V30 4274 H 408.149 -2.62155 2.86175 0
M  V30 4275 H 406.25 -3.67218 0.63102 0
M  V30 4276 H 406.363 -4.10885 2.46395 0
M  V30 4277 H 404.727 -2.23254 1.22596 0
M  V30 4278 H 405.51 -1.89461 2.86285 0
M  V30 4279 N 407.956 -0.998596 -1.21925 0
M  V30 4280 C 408.866 -0.562736 -2.27751 0
M  V30 4281 C 409.882 0.391203 -1.69545 0
M  V30 4282 O 411.058 0.256625 -1.99758 0
M  V30 4283 C 408.123 0.11012 -3.46525 0
M  V30 4284 C 407.184 -0.887495 -4.20026 0
M  V30 4285 C 406.417 -0.246654 -5.3313 0
M  V30 4286 O 406.64 0.958088 -5.62296 0
M  V30 4287 O 405.574 -0.954374 -5.94286 0
M  V30 4288 H 409.4 -1.44329 -2.67213 0
M  V30 4289 H 406.985 -0.767135 -1.28201 0
M  V30 4290 H 408.867 0.486756 -4.18579 0
M  V30 4291 H 407.542 0.965154 -3.08976 0
M  V30 4292 H 406.449 -1.31517 -3.5022 0
M  V30 4293 H 407.782 -1.71191 -4.6147 0
M  V30 4294 N 409.434 1.37368 -0.772513 0
M  V30 4295 C 410.364 2.32856 -0.173304 0
M  V30 4296 C 411.345 1.55818 0.682262 0
M  V30 4297 O 412.53 1.84052 0.619566 0
M  V30 4298 C 409.66 3.40048 0.706007 0
M  V30 4299 C 408.614 4.27973 -0.0483144 0
M  V30 4300 C 407.94 5.26184 0.950491 0
M  V30 4301 C 409.24 5.07665 -1.22776 0
M  V30 4302 H 410.934 2.83217 -0.971002 0
M  V30 4303 H 408.48 1.3617 -0.468377 0
M  V30 4304 H 410.433 4.05827 1.13501 0
M  V30 4305 H 409.157 2.88214 1.53623 0
M  V30 4306 H 407.816 3.63726 -0.458107 0
M  V30 4307 H 407.464 4.7063 1.77529 0
M  V30 4308 H 407.164 5.85872 0.450314 0
M  V30 4309 H 408.688 5.94838 1.37842 0
M  V30 4310 H 410.102 5.66578 -0.875366 0
M  V30 4311 H 408.499 5.76681 -1.66007 0
M  V30 4312 H 409.569 4.40294 -2.03149 0
M  V30 4313 N 410.912 0.523116 1.48665 0
M  V30 4314 C 411.842 -0.23231 2.32342 0
M  V30 4315 C 412.823 -0.941637 1.41659 0
M  V30 4316 O 414.008 -0.928751 1.70552 0
M  V30 4317 C 411.138 -1.28387 3.22698 0
M  V30 4318 C 410.092 -0.693098 4.22351 0
M  V30 4319 C 409.418 -1.8468 5.01794 0
M  V30 4320 C 410.718 0.33063 5.21252 0
M  V30 4321 H 412.412 0.466192 2.95748 0
M  V30 4322 H 409.958 0.225643 1.42221 0
M  V30 4323 H 411.911 -1.82024 3.80059 0
M  V30 4324 H 410.635 -2.01186 2.57278 0
M  V30 4325 H 409.294 -0.178299 3.66166 0
M  V30 4326 H 408.942 -2.56301 4.32804 0
M  V30 4327 H 408.642 -1.45747 5.69238 0
M  V30 4328 H 410.166 -2.38709 5.62006 0
M  V30 4329 H 411.58 -0.118407 5.73178 0
M  V30 4330 H 409.977 0.636974 5.9671 0
M  V30 4331 H 411.047 1.23883 4.68808 0
M  V30 4332 N 412.39 -1.55475 0.257931 0
M  V30 4333 C 413.322 -2.19192 -0.669881 0
M  V30 4334 C 414.335 -1.17148 -1.1305 0
M  V30 4335 O 415.524 -1.43959 -1.05537 0
M  V30 4336 C 412.624 -2.79016 -1.92363 0
M  V30 4337 C 411.797 -4.06586 -1.61265 0
M  V30 4338 C 410.856 -4.50622 -2.7171 0
M  V30 4339 O 409.882 -5.16765 -2.38627 0
M  V30 4340 N 411.084 -4.19325 -4.01431 0
M  V30 4341 H 413.849 -2.99441 -0.124635 0
M  V30 4342 H 411.41 -1.6171 0.0783311 0
M  V30 4343 H 413.402 -3.05427 -2.65511 0
M  V30 4344 H 411.972 -2.0286 -2.37837 0
M  V30 4345 H 411.192 -3.87646 -0.715811 0
M  V30 4346 H 412.48 -4.89737 -1.37967 0
M  V30 4347 H 411.878 -3.66247 -4.31138 0
M  V30 4348 H 410.435 -4.50547 -4.7101 0
M  V30 4349 N 413.868 0.0150385 -1.57593 0
M  V30 4350 C 415.116 0.701613 -1.8953 0
M  V30 4351 C 415.437 1.75139 -0.857396 0
M  V30 4352 O 414.707 1.95607 0.107194 0
M  V30 4353 H 413.287 0.26213 -0.699498 0
M  V30 4354 H 415.949 -0.0223304 -1.94887 0
M  V30 4355 H 415.045 1.18236 -2.88837 0
M  V30 4356 N 415.346 1.54954 0.287554 0
M  V30 4357 C 416.571 1.79209 1.04397 0
M  V30 4358 C 416.996 0.556431 1.79682 0
M  V30 4359 O 416.354 -0.493518 1.74454 0
M  V30 4360 C 416.402 3.00739 1.98969 0
M  V30 4361 O 415.506 2.74805 3.075 0
M  V30 4362 H 414.847 0.592755 0.299227 0
M  V30 4363 H 417.377 2.02068 0.320886 0
M  V30 4364 H 417.387 3.29077 2.4119 0
M  V30 4365 H 416.062 3.90329 1.43582 0
M  V30 4366 H 414.639 2.57523 2.69697 0
M  V30 4367 N 416.824 -0.551391 1.4764 0
M  V30 4368 C 418.054 -1.33163 1.57959 0
M  V30 4369 C 418.462 -1.87785 0.23094 0
M  V30 4370 O 417.805 -1.65996 -0.786825 0
M  V30 4371 C 417.867 -2.53449 2.54958 0
M  V30 4372 C 417.531 -2.20071 4.00522 0
M  V30 4373 C 418.528 -1.77017 4.88836 0
M  V30 4374 C 416.213 -2.31252 4.45901 0
M  V30 4375 C 418.207 -1.4558 6.20552 0
M  V30 4376 C 415.894 -1.99427 5.77644 0
M  V30 4377 C 416.892 -1.56659 6.64791 0
M  V30 4378 O 416.58 -1.25242 7.94084 0
M  V30 4379 H 416.312 -0.412022 0.535923 0
M  V30 4380 H 418.866 -0.674186 1.9402 0
M  V30 4381 H 417.096 -3.22104 2.13976 0
M  V30 4382 H 418.785 -3.15523 2.55343 0
M  V30 4383 H 419.551 -1.67867 4.55023 0
M  V30 4384 H 415.43 -2.63498 3.78272 0
M  V30 4385 H 418.974 -1.12125 6.8853 0
M  V30 4386 H 414.871 -2.08211 6.10998 0
M  V30 4387 H 415.639 -1.38822 8.06642 0
M  V30 4388 N 418.302 -1.35869 -0.798587 0
M  V30 4389 C 419.55 -1.29332 -1.55298 0
M  V30 4390 C 419.871 0.129729 -1.94568 0
M  V30 4391 O 419.141 1.06796 -1.6423 0
M  V30 4392 H 417.721 -0.475737 -0.57592 0
M  V30 4393 H 420.383 -1.70062 -0.952093 0
M  V30 4394 H 419.479 -1.91458 -2.46476 0
M  V30 4395 N 419.78 1.02168 -1.19998 0
M  V30 4396 C 421.008 1.79296 -1.03249 0
M  V30 4397 C 421.423 1.84103 0.418502 0
M  V30 4398 O 420.78 1.29031 1.29063 0
M  V30 4399 C 420.831 3.24007 -1.60319 0
M  V30 4400 O 420.552 3.19512 -2.99739 0
M  V30 4401 C 422.053 4.17704 -1.48453 0
M  V30 4402 H 419.273 0.564016 -0.363493 0
M  V30 4403 H 421.817 1.28639 -1.58973 0
M  V30 4404 H 419.972 3.7183 -1.08727 0
M  V30 4405 H 420.386 4.10306 -3.26725 0
M  V30 4406 H 421.86 5.17104 -1.93153 0
M  V30 4407 H 422.337 4.37029 -0.436193 0
M  V30 4408 H 422.943 3.7576 -1.99211 0
M  V30 4409 N 421.258 1.00505 1.21394 0
M  V30 4410 C 422.221 0.570459 2.21987 0
M  V30 4411 C 423.221 -0.353211 1.56873 0
M  V30 4412 O 424.411 -0.14349 1.73608 0
M  V30 4413 C 421.543 -0.168555 3.40483 0
M  V30 4414 H 422.736 1.46021 2.6195 0
M  V30 4415 H 420.289 0.793565 1.34656 0
M  V30 4416 H 421.024 -1.07374 3.06009 0
M  V30 4417 H 420.809 0.494823 3.88965 0
M  V30 4418 H 422.299 -0.460362 4.15055 0
M  V30 4419 N 422.737 -1.36956 0.779787 0
M  V30 4420 C 423.7 -2.2851 0.177662 0
M  V30 4421 C 424.7 -1.48393 -0.619377 0
M  V30 4422 O 425.89 -1.68505 -0.441785 0
M  V30 4423 C 423.022 -3.32428 -0.755279 0
M  V30 4424 H 424.215 -2.83269 0.984823 0
M  V30 4425 H 421.768 -1.46358 0.548544 0
M  V30 4426 H 422.503 -2.82808 -1.58714 0
M  V30 4427 H 422.288 -3.91659 -0.185817 0
M  V30 4428 H 423.778 -4.00824 -1.17174 0
M  V30 4429 N 424.215 -0.530993 -1.48385 0
M  V30 4430 C 425.492 0.0671788 -1.95485 0
M  V30 4431 C 425.872 1.51191 -1.47324 0
M  V30 4432 O 425.22 2.17507 -0.700202 0
M  V30 4433 C 425.43 -0.0511206 -3.48963 0
M  V30 4434 C 426.778 0.107632 -4.24464 0
M  V30 4435 O 427.802 0.0226248 -3.56193 0
M  V30 4436 O 426.661 0.285972 -5.45751 0
M  V30 4437 H 423.755 0.0787365 -0.823243 0
M  V30 4438 H 426.301 -0.595662 -1.58902 0
M  V30 4439 H 425.073 -1.05747 -3.7674 0
M  V30 4440 H 424.696 0.650525 -3.92242 0
M  V30 4441 N 425.693 1.55336 -0.266172 0
M  V30 4442 C 426.939 1.99692 0.353681 0
M  V30 4443 C 427.272 1.1543 1.56172 0
M  V30 4444 O 426.547 0.222218 1.93226 0
M  V30 4445 C 426.83 3.52316 0.74466 0
M  V30 4446 C 426.683 4.47337 -0.470101 0
M  V30 4447 C 428.002 4.10588 1.58447 0
M  V30 4448 H 425.121 0.725961 0.12708 0
M  V30 4449 H 427.763 1.86336 -0.371333 0
M  V30 4450 H 425.913 3.63829 1.36239 0
M  V30 4451 H 427.585 4.4778 -1.10864 0
M  V30 4452 H 425.828 4.19364 -1.10978 0
M  V30 4453 H 426.499 5.51788 -0.15291 0
M  V30 4454 H 428.975 4.02297 1.06286 0
M  V30 4455 H 427.851 5.17607 1.82686 0
M  V30 4456 H 428.112 3.60253 2.56262 0
M  V30 4457 N 427.171 -0.0066808 1.57599 0
M  V30 4458 C 428.418 -0.69292 1.90276 0
M  V30 4459 C 428.746 -1.74148 0.866192 0
M  V30 4460 O 428.001 -1.95268 -0.129933 0
M  V30 4461 C 428.3 -1.37939 3.29708 0
M  V30 4462 C 427.966 -0.464679 4.48499 0
M  V30 4463 C 426.628 -0.212809 4.80729 0
M  V30 4464 C 428.98 0.16551 5.20937 0
M  V30 4465 C 426.308 0.677653 5.82773 0
M  V30 4466 C 428.66 1.04381 6.23929 0
M  V30 4467 C 427.324 1.30492 6.54621 0
M  V30 4468 H 426.594 -0.253558 0.696268 0
M  V30 4469 H 429.241 0.0474123 1.91441 0
M  V30 4470 H 427.546 -2.1936 3.24636 0
M  V30 4471 H 429.243 -1.9163 3.52249 0
M  V30 4472 H 425.833 -0.671153 4.23313 0
M  V30 4473 H 430.017 -0.0160756 4.96297 0
M  V30 4474 H 425.273 0.88803 6.04917 0
M  V30 4475 H 429.447 1.53851 6.79193 0
M  V30 4476 H 427.074 1.99662 7.33512 0
M  V30 4477 N 428.649 -1.55105 -0.279332 0
M  V30 4478 C 429.874 -1.7976 -1.03446 0
M  V30 4479 C 430.299 -0.565952 -1.79384 0
M  V30 4480 O 429.657 0.484259 -1.74713 0
M  V30 4481 C 429.705 -3.0179 -1.97371 0
M  V30 4482 O 428.809 -2.76432 -3.06038 0
M  V30 4483 H 428.15 -0.594334 -0.29608 0
M  V30 4484 H 430.68 -2.02235 -0.310165 0
M  V30 4485 H 430.69 -3.30351 -2.39441 0
M  V30 4486 H 429.365 -3.91085 -1.4151 0
M  V30 4487 H 427.942 -2.58949 -2.68328 0
M  V30 4488 N 430.127 0.543554 -1.4793 0
M  V30 4489 C 431.057 1.65888 -1.64327 0
M  V30 4490 C 432.038 1.62818 -0.492383 0
M  V30 4491 O 433.223 1.80226 -0.723338 0
M  V30 4492 C 430.353 3.04506 -1.67013 0
M  V30 4493 C 429.307 3.2243 -2.81466 0
M  V30 4494 C 428.633 4.61972 -2.69233 0
M  V30 4495 C 429.933 3.06496 -4.22915 0
M  V30 4496 H 431.627 1.52421 -2.57698 0
M  V30 4497 H 429.173 0.731849 -1.24016 0
M  V30 4498 H 431.126 3.82391 -1.77074 0
M  V30 4499 H 429.85 3.18964 -0.70212 0
M  V30 4500 H 428.509 2.46957 -2.70938 0
M  V30 4501 H 428.157 4.73247 -1.7043 0
M  V30 4502 H 427.857 4.74911 -3.46025 0
M  V30 4503 H 429.381 5.41974 -2.81242 0
M  V30 4504 H 430.795 3.74186 -4.34348 0
M  V30 4505 H 429.192 3.30938 -5.006 0
M  V30 4506 H 430.262 2.03077 -4.40327 0
M  V30 4507 N 431.605 1.3629 0.791371 0
M  V30 4508 C 432.853 1.30154 1.5461 0
M  V30 4509 C 433.174 -0.119409 1.94634 0
M  V30 4510 O 432.444 -1.05924 1.64794 0
M  V30 4511 H 431.024 0.478784 0.573389 0
M  V30 4512 H 433.686 1.70565 0.94306 0
M  V30 4513 H 432.782 1.92762 2.45457 0
M  V30 4514 N 433.083 -1.0153 1.20538 0
M  V30 4515 C 434.013 -2.11972 0.979295 0
M  V30 4516 C 434.994 -1.6985 -0.0921787 0
M  V30 4517 O 436.179 -1.94089 0.0655932 0
M  V30 4518 C 433.309 -3.43201 0.531984 0
M  V30 4519 C 432.263 -3.9907 1.54685 0
M  V30 4520 C 431.589 -5.26082 0.956127 0
M  V30 4521 C 432.889 -4.32313 2.93092 0
M  V30 4522 H 434.583 -2.31143 1.90298 0
M  V30 4523 H 432.129 -1.11079 0.916372 0
M  V30 4524 H 434.082 -4.1985 0.361044 0
M  V30 4525 H 432.806 -3.23792 -0.427327 0
M  V30 4526 H 431.465 -3.2453 1.70517 0
M  V30 4527 H 431.113 -5.02999 -0.0111538 0
M  V30 4528 H 430.813 -5.64426 1.63393 0
M  V30 4529 H 432.337 -6.05386 0.796284 0
M  V30 4530 H 433.751 -4.99845 2.80763 0
M  V30 4531 H 432.148 -4.81774 3.57791 0
M  V30 4532 H 433.218 -3.41025 3.44717 0
M  V30 4533 N 434.561 -1.01147 -1.20859 0
M  V30 4534 C 435.789 -0.716911 -1.94082 0
M  V30 4535 C 436.204 0.721568 -1.74467 0
M  V30 4536 O 435.561 1.48889 -1.05539 0
M  V30 4537 C 435.612 -1.03662 -3.46318 0
M  V30 4538 O 435.333 -2.4186 -3.65288 0
M  V30 4539 C 436.834 -0.762386 -4.36695 0
M  V30 4540 H 434.054 -0.26367 -0.617024 0
M  V30 4541 H 436.598 -1.35127 -1.53496 0
M  V30 4542 H 434.753 -0.447757 -3.84804 0
M  V30 4543 H 435.167 -2.53224 -4.59323 0
M  V30 4544 H 436.641 -1.03621 -5.42187 0
M  V30 4545 H 437.118 0.303514 -4.3815 0
M  V30 4546 H 437.724 -1.33316 -4.03865 0
M  V30 4547 N 436.039 1.36541 -0.78704 0
M  V30 4548 C 437.288 1.98552 -0.35494 0
M  V30 4549 C 437.601 1.63171 1.07864 0
M  V30 4550 O 438.807 2.18399 1.61289 0
M  V30 4551 C 437.263 3.55136 -0.583671 0
M  V30 4552 C 436.871 3.99444 -2.02851 0
M  V30 4553 C 438.615 4.2395 -0.215957 0
M  V30 4554 C 436.522 5.48796 -2.20403 0
M  V30 4555 H 435.452 0.742888 -0.128972 0
M  V30 4556 H 438.103 1.5587 -0.968337 0
M  V30 4557 H 436.485 3.95875 0.0994046 0
M  V30 4558 H 437.659 3.6991 -2.74779 0
M  V30 4559 H 435.974 3.43459 -2.35425 0
M  V30 4560 H 438.571 5.33709 -0.325405 0
M  V30 4561 H 438.914 4.07827 0.835646 0
M  V30 4562 H 439.447 3.88565 -0.852175 0
M  V30 4563 H 436.186 5.69864 -3.23937 0
M  V30 4564 H 435.706 5.79964 -1.52977 0
M  V30 4565 H 437.385 6.14986 -2.01002 0
M  V30 4566 N 437.518 0.538854 1.48102 0
M  V30 4567 C 438.448 -0.207654 2.32575 0
M  V30 4568 C 439.429 -0.926559 1.4265 0
M  V30 4569 O 440.614 -0.91061 1.71527 0
M  V30 4570 C 437.744 -1.24957 3.24042 0
M  V30 4571 C 436.698 -0.648263 4.23062 0
M  V30 4572 C 436.024 -1.79348 5.03725 0
M  V30 4573 C 437.324 0.385897 5.20872 0
M  V30 4574 H 439.018 0.497534 2.95237 0
M  V30 4575 H 436.564 0.240715 1.41974 0
M  V30 4576 H 438.517 -1.77983 3.81969 0
M  V30 4577 H 437.241 -1.98446 2.59397 0
M  V30 4578 H 435.9 -0.139452 3.66335 0
M  V30 4579 H 435.548 -2.51696 4.35498 0
M  V30 4580 H 435.248 -1.39702 5.70751 0
M  V30 4581 H 436.772 -2.32735 5.64506 0
M  V30 4582 H 438.186 -0.057607 5.73271 0
M  V30 4583 H 436.583 0.700227 5.96001 0
M  V30 4584 H 437.653 1.28848 4.67468 0
M  V30 4585 N 438.996 -1.55193 0.274407 0
M  V30 4586 C 439.906 -2.26164 -0.623473 0
M  V30 4587 C 440.922 -1.28729 -1.17068 0
M  V30 4588 O 442.098 -1.61663 -1.20112 0
M  V30 4589 C 439.163 -2.96833 -1.7914 0
M  V30 4590 C 438.224 -4.09745 -1.28093 0
M  V30 4591 C 437.457 -4.77034 -2.3932 0
M  V30 4592 O 437.68 -4.4353 -3.5866 0
M  V30 4593 O 436.614 -5.64996 -2.07516 0
M  V30 4594 H 440.44 -3.03661 -0.0485661 0
M  V30 4595 H 438.025 -1.49341 0.0418382 0
M  V30 4596 H 439.907 -3.41248 -2.4724 0
M  V30 4597 H 438.582 -2.22253 -2.35341 0
M  V30 4598 H 437.489 -3.69787 -0.566416 0
M  V30 4599 H 438.822 -4.86224 -0.764683 0
M  V30 4600 N 440.474 -0.00167713 -1.576 0
M  V30 4601 C 441.72 0.683832 -1.90923 0
M  V30 4602 C 442.053 1.7333 -0.875799 0
M  V30 4603 O 441.328 1.94215 0.10525 0
M  V30 4604 C 441.611 1.32543 -3.3482 0
M  V30 4605 C 441.464 0.287387 -4.48881 0
M  V30 4606 C 442.783 2.25114 -3.78169 0
M  V30 4607 H 439.902 0.247125 -0.694333 0
M  V30 4608 H 442.544 -0.0533149 -1.89925 0
M  V30 4609 H 440.694 1.95372 -3.35801 0
M  V30 4610 H 442.366 -0.341346 -4.60035 0
M  V30 4611 H 440.609 -0.39017 -4.32042 0
M  V30 4612 H 441.28 0.775393 -5.46527 0
M  V30 4613 H 443.756 1.723 -3.7875 0
M  V30 4614 H 442.632 2.66971 -4.79602 0
M  V30 4615 H 442.893 3.13092 -3.12131 0
M  V30 4616 N 441.952 1.55251 0.271103 0
M  V30 4617 C 442.915 1.87484 1.31842 0
M  V30 4618 C 443.915 0.749545 1.42262 0
M  V30 4619 O 445.105 1.01771 1.4138 0
M  V30 4620 C 442.237 2.0818 2.69951 0
M  V30 4621 H 443.43 2.81108 1.0449 0
M  V30 4622 H 440.983 1.47771 0.509258 0
M  V30 4623 H 441.718 1.16944 3.02481 0
M  V30 4624 H 441.503 2.90114 2.63774 0
M  V30 4625 H 442.993 2.34385 3.4562 0
M  V30 4626 N 443.43 -0.535701 1.48216 0
M  V30 4627 C 444.67 -1.30238 1.57536 0
M  V30 4628 C 445.034 -1.90479 0.241229 0
M  V30 4629 O 446.235 -2.67983 0.20938 0
M  V30 4630 C 444.506 -2.3669 2.67792 0
M  V30 4631 S 446.065 -3.23159 2.9684 0
M  V30 4632 H 442.883 -0.443093 0.556048 0
M  V30 4633 H 445.485 -0.610937 1.85709 0
M  V30 4634 H 444.189 -1.90905 3.63296 0
M  V30 4635 H 443.72 -3.10548 2.41502 0
M  V30 4636 H 445.735 -4.36647 2.35699 0
M  V30 4637 N 444.908 -1.36708 -0.784132 0
M  V30 4638 C 445.856 -1.31533 -1.91838 0
M  V30 4639 C 446.85 -0.206205 -1.6814 0
M  V30 4640 O 448.056 -0.373519 -1.76082 0
M  V30 4641 H 444.431 -0.409613 -0.630651 0
M  V30 4642 H 446.402 -2.2731 -1.9332 0
M  V30 4643 C 445.151 -1.12679 -3.28936 0
M  V30 4644 H 444.474 -1.97274 -3.4774 0
M  V30 4645 H 445.914 -1.13106 -4.08636 0
M  V30 4646 C 444.373 0.168281 -3.36479 0
M  V30 4647 O 444.903 1.15625 -3.84699 0
M  V30 4648 N 443.109 0.214762 -2.89805 0
M  V30 4649 H 442.656 -0.589852 -2.50756 0
M  V30 4650 H 442.614 1.08094 -2.95234 0
M  V30 4651 N 446.386 1.0089 -1.21074 0
M  V30 4652 C 447.319 2.09279 -0.909806 0
M  V30 4653 C 448.297 1.61986 0.141145 0
M  V30 4654 O 449.481 1.88495 0.0130332 0
M  V30 4655 C 446.608 3.36723 -0.365374 0
M  V30 4656 C 445.654 4.02919 -1.39852 0
M  V30 4657 S 446.487 4.45835 -2.96633 0
M  V30 4658 C 447.643 5.76471 -2.43786 0
M  V30 4659 H 447.876 2.34484 -1.82769 0
M  V30 4660 H 445.409 1.14115 -1.04006 0
M  V30 4661 H 447.367 4.10459 -0.0578203 0
M  V30 4662 H 446.028 3.09577 0.531136 0
M  V30 4663 H 445.221 4.94634 -0.967117 0
M  V30 4664 H 444.823 3.35441 -1.65395 0
M  V30 4665 H 447.115 6.52027 -1.84029 0
M  V30 4666 H 448.058 6.24418 -3.33928 0
M  V30 4667 H 448.466 5.33104 -1.85636 0
M  V30 4668 N 447.864 1.01787 1.20321 0
M  V30 4669 C 448.774 0.598898 2.26827 0
M  V30 4670 C 449.79 -0.36418 1.70146 0
M  V30 4671 O 450.966 -0.224812 2.00141 0
M  V30 4672 C 448.031 -0.0549769 3.46656 0
M  V30 4673 C 447.092 0.954205 4.18561 0
M  V30 4674 C 446.325 0.331439 5.3267 0
M  V30 4675 O 446.548 -0.86851 5.63749 0
M  V30 4676 O 445.482 1.0488 5.92692 0
M  V30 4677 H 449.308 1.48562 2.64883 0
M  V30 4678 H 446.893 0.787434 1.26964 0
M  V30 4679 H 448.775 -0.420102 4.19301 0
M  V30 4680 H 447.45 -0.915876 3.10473 0
M  V30 4681 H 446.357 1.37072 3.48083 0
M  V30 4682 H 447.69 1.78511 4.58688 0
M  V30 4683 N 449.342 -1.36122 0.79427 0
M  V30 4684 C 450.272 -2.32551 0.210328 0
M  V30 4685 C 451.253 -1.56884 -0.657386 0
M  V30 4686 O 452.438 -1.85014 -0.590207 0
M  V30 4687 C 449.568 -3.41128 -0.651819 0
M  V30 4688 C 448.522 -4.27842 0.116395 0
M  V30 4689 C 447.848 -5.2763 -0.86666 0
M  V30 4690 C 449.148 -5.05647 1.30837 0
M  V30 4691 H 450.842 -2.81636 1.01594 0
M  V30 4692 H 448.388 -1.35407 0.489981 0
M  V30 4693 H 450.341 -4.07581 -1.07031 0
M  V30 4694 H 449.065 -2.90622 -1.49019 0
M  V30 4695 H 447.724 -3.62952 0.515915 0
M  V30 4696 H 447.372 -4.73395 -1.70019 0
M  V30 4697 H 447.072 -5.86514 -0.35705 0
M  V30 4698 H 448.596 -5.96955 -1.28361 0
M  V30 4699 H 450.01 -5.65113 0.965393 0
M  V30 4700 H 448.407 -5.73967 1.75161 0
M  V30 4701 H 449.477 -4.37006 2.10128 0
M  V30 4702 N 450.82 -0.546701 -1.47814 0
M  V30 4703 C 452.231 -0.110564 -1.86372 0
M  V30 4704 C 452.582 1.31678 -1.45449 0
M  V30 4705 O 451.707 1.98889 -0.852758 0
M  V30 4706 C 452.302 -0.193873 -3.38245 0
M  V30 4707 C 450.861 0.187164 -3.75934 0
M  V30 4708 C 450.008 -0.546166 -2.71868 0
M  V30 4709 H 452.959 -0.757022 -1.39481 0
M  V30 4710 H 452.98 0.590218 -3.75895 0
M  V30 4711 H 452.492 -1.23282 -3.67999 0
M  V30 4712 H 450.593 1.22762 -3.51796 0
M  V30 4713 H 450.706 -0.164083 -4.78819 0
M  V30 4714 H 449.07 0.00953904 -2.54698 0
M  V30 4715 H 449.853 -1.58606 -3.04465 0
M  V30 4716 N 452.299 1.55045 -0.282633 0
M  V30 4717 C 453.249 2.19514 0.616249 0
M  V30 4718 C 454.233 1.16216 1.11277 0
M  V30 4719 O 455.425 1.42004 1.05659 0
M  V30 4720 C 452.554 2.92548 1.7964 0
M  V30 4721 C 451.64 4.03142 1.31671 0
M  V30 4722 N 452.031 5.0276 0.553695 0
M  V30 4723 C 450.329 4.1635 1.59903 0
M  V30 4724 C 451.03 5.80923 0.30054 0
M  V30 4725 N 450.006 5.3651 0.875116 0
M  V30 4726 H 453.808 2.93889 0.0255363 0
M  V30 4727 H 451.322 1.62169 -0.0865362 0
M  V30 4728 H 453.319 3.37188 2.45173 0
M  V30 4729 H 451.979 2.19685 2.39099 0
M  V30 4730 H 452.99 5.17512 0.20032 0
M  V30 4731 H 449.667 3.54682 2.20243 0
M  V30 4732 H 451.057 6.7118 -0.311053 0
M  V30 4733 N 453.777 0.010035 1.57597 0
M  V30 4734 C 455.025 -0.671371 1.90623 0
M  V30 4735 C 455.346 -1.73753 0.885151 0
M  V30 4736 O 454.616 -1.95752 -0.0760611 0
M  V30 4737 H 453.196 -0.250968 0.703579 0
M  V30 4738 H 455.858 0.0533325 1.94827 0
M  V30 4739 H 454.954 -1.13626 2.90681 0
M  V30 4740 N 455.255 -1.55392 -0.262866 0
M  V30 4741 C 456.503 -1.76127 -0.991147 0
M  V30 4742 C 456.824 -0.571083 -1.8645 0
M  V30 4743 O 456.094 0.413698 -1.91482 0
M  V30 4744 H 454.674 -0.649528 -0.368948 0
M  V30 4745 H 457.336 -1.9281 -0.284655 0
M  V30 4746 H 456.432 -2.6663 -1.62219 0
M  V30 4747 N 456.733 0.527833 -1.48498 0
M  V30 4748 C 457.643 1.65907 -1.65867 0
M  V30 4749 C 458.659 1.6537 -0.541192 0
M  V30 4750 O 459.835 1.84282 -0.812534 0
M  V30 4751 C 456.9 3.02364 -1.69637 0
M  V30 4752 C 455.961 3.1374 -2.93028 0
M  V30 4753 C 455.194 4.43688 -2.96609 0
M  V30 4754 O 455.417 5.30913 -2.08538 0
M  V30 4755 O 454.351 4.59475 -3.88802 0
M  V30 4756 H 458.177 1.5419 -2.61647 0
M  V30 4757 H 455.762 0.701163 -1.31924 0
M  V30 4758 H 457.644 3.83515 -1.74625 0
M  V30 4759 H 456.319 3.14401 -0.770312 0
M  V30 4760 H 455.226 2.31877 -2.93571 0
M  V30 4761 H 456.559 3.06621 -3.85026 0
M  V30 4762 N 458.211 1.37122 0.776871 0
M  V30 4763 C 459.459 1.31787 1.53221 0
M  V30 4764 C 459.78 -0.0987589 1.9475 0
M  V30 4765 O 459.05 -1.0417 1.65908 0
M  V30 4766 H 457.63 0.484839 0.568278 0
M  V30 4767 H 460.292 1.71556 0.924917 0
M  V30 4768 H 459.388 1.95355 2.43398 0
M  V30 4769 N 459.689 -1.00246 1.21608 0
M  V30 4770 C 460.935 -1.74417 1.04643 0
M  V30 4771 C 461.29 -1.87862 -0.415387 0
M  V30 4772 O 460.583 -1.40373 -1.30407 0
M  V30 4773 C 460.777 -3.15448 1.68009 0
M  V30 4774 C 460.606 -3.15755 3.20201 0
M  V30 4775 C 459.376 -3.2219 3.89258 0
M  V30 4776 C 461.574 -3.00668 4.17257 0
M  V30 4777 N 459.556 -3.1215 5.28617 0
M  V30 4778 C 460.927 -2.98553 5.43384 0
M  V30 4779 C 462.982 -2.84989 4.08272 0
M  V30 4780 C 461.685 -2.82364 6.61561 0
M  V30 4781 C 463.711 -2.70158 5.26088 0
M  V30 4782 C 463.073 -2.68721 6.51128 0
M  V30 4783 H 459.172 -0.648317 0.437274 0
M  V30 4784 H 461.756 -1.19129 1.54001 0
M  V30 4785 H 459.927 -3.69001 1.21215 0
M  V30 4786 H 461.659 -3.78128 1.44226 0
M  V30 4787 H 458.414 -3.29488 3.40198 0
M  V30 4788 H 458.838 -3.10465 6.01615 0
M  V30 4789 H 463.48 -2.84904 3.12393 0
M  V30 4790 H 461.198 -2.81196 7.57598 0
M  V30 4791 H 464.784 -2.59022 5.20959 0
M  V30 4792 H 463.664 -2.57382 7.40759 0
M  V30 4793 N 461.167 -1.02423 -1.1978 0
M  V30 4794 C 462.099 -0.559152 -2.22275 0
M  V30 4795 C 463.112 0.36251 -1.58713 0
M  V30 4796 O 464.301 0.159641 -1.77785 0
M  V30 4797 C 461.401 0.205094 -3.38279 0
M  V30 4798 C 460.574 -0.720361 -4.31427 0
M  V30 4799 C 459.633 -0.00234368 -5.262 0
M  V30 4800 O 458.659 -0.627378 -5.65732 0
M  V30 4801 N 459.861 1.26996 -5.66438 0
M  V30 4802 H 462.626 -1.44064 -2.62804 0
M  V30 4803 H 460.187 -0.902692 -1.34399 0
M  V30 4804 H 462.179 0.694868 -3.9869 0
M  V30 4805 H 460.749 0.987947 -2.96578 0
M  V30 4806 H 459.969 -1.39031 -3.68869 0
M  V30 4807 H 461.257 -1.3495 -4.90577 0
M  V30 4808 H 460.655 1.79858 -5.36347 0
M  V30 4809 H 459.212 1.70432 -6.29123 0
M  V30 4810 N 462.645 1.35699 -0.801477 0
M  V30 4811 C 463.577 2.28598 -0.166028 0
M  V30 4812 C 464.59 1.50044 0.631721 0
M  V30 4813 O 465.779 1.72339 0.464921 0
M  V30 4814 C 462.879 3.29625 0.787451 0
M  V30 4815 C 462.052 4.37384 0.037171 0
M  V30 4816 C 461.111 5.183 0.908375 0
M  V30 4817 O 460.137 5.68053 0.361189 0
M  V30 4818 N 461.339 5.35912 2.23112 0
M  V30 4819 H 464.104 2.83771 -0.964071 0
M  V30 4820 H 461.665 1.47994 -0.656469 0
M  V30 4821 H 463.657 3.80648 1.37439 0
M  V30 4822 H 462.227 2.75004 1.48632 0
M  V30 4823 H 461.447 3.87364 -0.730935 0
M  V30 4824 H 462.735 5.0653 -0.480109 0
M  V30 4825 H 462.133 4.97125 2.69968 0
M  V30 4826 H 460.69 5.90133 2.76741 0
M  V30 4827 N 464.123 0.554532 1.47522 0
M  V30 4828 C 465.053 -0.182974 2.32782 0
M  V30 4829 C 466.034 -0.911377 1.43624 0
M  V30 4830 O 467.219 -0.892366 1.72483 0
M  V30 4831 C 464.349 -1.21513 3.25349 0
M  V30 4832 C 463.303 -0.603355 4.23726 0
M  V30 4833 C 462.629 -1.73995 5.05598 0
M  V30 4834 C 463.929 0.441121 5.20434 0
M  V30 4835 H 465.623 0.52882 2.94693 0
M  V30 4836 H 463.169 0.255759 1.41711 0
M  V30 4837 H 465.122 -1.73922 3.83835 0
M  V30 4838 H 463.846 -1.95683 2.61487 0
M  V30 4839 H 462.505 -0.10059 3.66462 0
M  V30 4840 H 462.153 -2.47063 4.38143 0
M  V30 4841 H 461.853 -1.3364 5.72201 0
M  V30 4842 H 463.377 -2.26735 5.66942 0
M  V30 4843 H 464.791 0.00319931 5.733 0
M  V30 4844 H 463.188 0.763402 5.95224 0
M  V30 4845 H 464.258 1.33799 4.66075 0
M  V30 4846 N 465.601 -1.54893 0.290851 0
M  V30 4847 C 467.017 -1.59476 -0.0628432 0
M  V30 4848 C 467.217 -1.30795 -1.5328 0
M  V30 4849 O 466.273 -1.07644 -2.28406 0
M  V30 4850 C 467.586 -2.98928 0.325962 0
M  V30 4851 C 469.134 -3.11799 0.273882 0
M  V30 4852 C 469.609 -4.53544 0.637359 0
M  V30 4853 N 471.1 -4.59433 0.589507 0
M  V30 4854 C 471.835 -5.67164 0.84335 0
M  V30 4855 N 471.331 -6.82975 1.16263 0
M  V30 4856 N 473.124 -5.56786 0.771091 0
M  V30 4857 H 465.275 -1.71798 1.24896 0
M  V30 4858 H 467.538 -0.801879 0.505663 0
M  V30 4859 H 467.244 -3.24805 1.34887 0
M  V30 4860 H 467.118 -3.75793 -0.325441 0
M  V30 4861 H 469.505 -2.85677 -0.739765 0
M  V30 4862 H 469.586 -2.37112 0.959766 0
M  V30 4863 H 469.23 -4.80394 1.64877 0
M  V30 4864 H 469.16 -5.26553 -0.0704866 0
M  V30 4865 H 471.651 -3.76245 0.353252 0
M  V30 4866 H 471.964 -7.61048 1.34257 0
M  V30 4867 H 470.309 -6.84552 1.20057 0
M  V30 4868 H 473.5 -4.65187 0.521383 0
M  V30 4869 H 473.673 -6.40664 0.972295 0
M  V30 4870 N 467.08 -0.0183926 -1.57589 0
M  V30 4871 C 468.012 0.995557 -2.06449 0
M  V30 4872 C 469.025 1.29556 -0.985849 0
M  V30 4873 O 470.214 1.2621 -1.26227 0
M  V30 4874 C 467.314 2.32572 -2.46502 0
M  V30 4875 C 466.487 2.21245 -3.77319 0
M  V30 4876 C 465.546 3.37104 -4.04039 0
M  V30 4877 O 464.572 3.14468 -4.74445 0
M  V30 4878 N 465.774 4.60553 -3.53372 0
M  V30 4879 H 468.539 0.578746 -2.94059 0
M  V30 4880 H 466.1 0.168603 -1.6102 0
M  V30 4881 H 468.092 3.08887 -2.61478 0
M  V30 4882 H 466.662 2.65931 -1.64315 0
M  V30 4883 H 465.882 1.29723 -3.72244 0
M  V30 4884 H 467.17 2.10868 -4.63047 0
M  V30 4885 H 466.568 4.81839 -2.96391 0
M  V30 4886 H 465.125 5.34072 -3.73644 0
M  V30 4887 N 468.558 1.5553 0.254621 0
M  V30 4888 C 469.806 1.7665 0.981793 0
M  V30 4889 C 470.127 0.580963 1.86145 0
M  V30 4890 O 469.397 -0.403537 1.91699 0
M  V30 4891 H 467.977 0.651475 0.365498 0
M  V30 4892 H 470.639 1.92958 0.274426 0
M  V30 4893 H 469.735 2.67486 1.60802 0
M  V30 4894 N 470.036 -0.519951 1.48776 0
M  V30 4895 C 471.266 -1.29783 1.60748 0
M  V30 4896 C 471.674 -1.87253 0.27072 0
M  V30 4897 O 471.017 -1.67628 -0.751438 0
M  V30 4898 C 471.079 -2.47984 2.60277 0
M  V30 4899 C 470.743 -2.11526 4.051 0
M  V30 4900 C 471.74 -1.66608 4.92481 0
M  V30 4901 C 469.425 -2.21742 4.50706 0
M  V30 4902 C 471.419 -1.32384 6.23501 0
M  V30 4903 C 469.106 -1.87129 5.81744 0
M  V30 4904 C 470.104 -1.42523 6.67964 0
M  V30 4905 O 469.792 -1.0837 7.96562 0
M  V30 4906 H 469.524 -0.400562 0.544542 0
M  V30 4907 H 472.078 -0.632879 1.95407 0
M  V30 4908 H 470.308 -3.17493 2.2076 0
M  V30 4909 H 471.997 -3.10036 2.61978 0
M  V30 4910 H 472.763 -1.58178 4.58481 0
M  V30 4911 H 468.642 -2.55415 3.83776 0
M  V30 4912 H 472.186 -0.974949 6.90754 0
M  V30 4913 H 468.083 -1.95204 6.15277 0
M  V30 4914 H 468.851 -1.21681 8.09405 0
M  V30 4915 N 471.514 -1.37532 -0.769588 0
M  V30 4916 C 472.444 -1.36172 -1.89682 0
M  V30 4917 C 473.425 -0.23001 -1.68538 0
M  V30 4918 O 474.61 -0.43069 -1.89364 0
M  V30 4919 C 471.74 -1.1701 -3.26995 0
M  V30 4920 C 470.694 -2.27216 -3.62708 0
M  V30 4921 C 470.02 -1.93174 -4.98586 0
M  V30 4922 C 471.32 -3.6941 -3.69234 0
M  V30 4923 H 473.014 -2.30499 -1.91078 0
M  V30 4924 H 470.56 -1.10953 -0.917902 0
M  V30 4925 H 472.513 -1.14688 -4.05493 0
M  V30 4926 H 471.237 -0.191395 -3.26039 0
M  V30 4927 H 469.896 -2.28697 -2.86519 0
M  V30 4928 H 469.544 -0.938281 -4.94171 0
M  V30 4929 H 469.244 -2.66973 -5.23449 0
M  V30 4930 H 470.768 -1.92443 -5.79481 0
M  V30 4931 H 472.182 -3.70047 -4.37879 0
M  V30 4932 H 470.579 -4.4228 -4.05597 0
M  V30 4933 H 471.649 -4.0288 -2.69844 0
M  V30 4934 N 472.992 0.995999 -1.22138 0
M  V30 4935 C 474.403 1.54961 -1.04135 0
M  V30 4936 C 474.754 1.92159 0.396147 0
M  V30 4937 O 473.879 1.74435 1.28069 0
M  V30 4938 C 474.474 2.81581 -1.88408 0
M  V30 4939 C 473.033 3.33396 -1.74712 0
M  V30 4940 C 472.18 2.06509 -1.85066 0
M  V30 4941 H 475.131 0.817436 -1.36028 0
M  V30 4942 H 475.152 3.53822 -1.39966 0
M  V30 4943 H 474.664 2.54476 -2.93025 0
M  V30 4944 H 472.765 3.65416 -0.728159 0
M  V30 4945 H 472.878 4.04208 -2.57202 0
M  V30 4946 H 471.242 2.19925 -1.28472 0
M  V30 4947 H 472.025 1.81804 -2.91208 0
M  V30 4948 N 474.47 1.03057 1.19235 0
M  V30 4949 C 475.881 0.757449 1.70645 0
M  V30 4950 C 476.232 -0.722735 1.82403 0
M  V30 4951 O 475.357 -1.56325 1.49638 0
M  V30 4952 C 475.952 1.36833 3.09939 0
M  V30 4953 C 474.511 1.14375 3.58602 0
M  V30 4954 C 473.658 1.46533 2.35422 0
M  V30 4955 H 476.609 1.19828 1.04052 0
M  V30 4956 H 476.63 0.766184 3.72706 0
M  V30 4957 H 476.142 2.44562 3.01349 0
M  V30 4958 H 474.243 0.0847542 3.72504 0
M  V30 4959 H 474.356 1.83366 4.42622 0
M  V30 4960 H 472.72 0.884712 2.38841 0
M  V30 4961 H 473.503 2.55349 2.2946 0
M  V30 4962 N 475.948 -1.35272 0.808662 0
M  V30 4963 C 476.858 -2.33546 0.222079 0
M  V30 4964 C 477.874 -1.6196 -0.636011 0
M  V30 4965 O 479.05 -1.93822 -0.547274 0
M  V30 4966 C 476.115 -3.41148 -0.61795 0
M  V30 4967 C 475.176 -4.28507 0.260875 0
M  V30 4968 C 474.409 -5.3097 -0.539156 0
M  V30 4969 O 474.632 -5.42123 -1.77367 0
M  V30 4970 O 473.566 -6.01858 0.0710526 0
M  V30 4971 H 477.392 -2.85515 1.03512 0
M  V30 4972 H 474.977 -1.38079 0.570495 0
M  V30 4973 H 476.859 -4.06889 -1.09634 0
M  V30 4974 H 475.534 -2.91447 -1.40855 0
M  V30 4975 H 474.441 -3.6574 0.786451 0
M  V30 4976 H 475.774 -4.81611 1.01547 0
M  V30 4977 N 477.426 -0.562348 -1.47226 0
M  V30 4978 C 478.673 -0.0402165 -2.0246 0
M  V30 4979 C 479.001 1.31169 -1.43614 0
M  V30 4980 O 478.256 1.86805 -0.5833 0
M  V30 4981 C 478.555 0.0969817 -3.57268 0
M  V30 4982 C 478.221 -1.1847 -4.35058 0
M  V30 4983 C 476.883 -1.53588 -4.56031 0
M  V30 4984 C 479.235 -2.03378 -4.79882 0
M  V30 4985 C 476.563 -2.73452 -5.19077 0
M  V30 4986 C 478.915 -3.2245 -5.44251 0
M  V30 4987 C 477.579 -3.57876 -5.63455 0
M  V30 4988 H 476.849 -0.0147163 -0.740854 0
M  V30 4989 H 479.496 -0.734895 -1.76838 0
M  V30 4990 H 477.801 0.87466 -3.81912 0
M  V30 4991 H 479.498 0.516408 -3.97661 0
M  V30 4992 H 476.088 -0.90126 -4.19017 0
M  V30 4993 H 480.272 -1.77553 -4.63453 0
M  V30 4994 H 475.528 -3.01062 -5.32139 0
M  V30 4995 H 479.702 -3.88526 -5.77945 0
M  V30 4996 H 477.329 -4.50849 -6.12078 0
M  V30 4997 N 478.904 1.54736 -0.299062 0
M  V30 4998 C 480.132 2.04512 0.313447 0
M  V30 4999 C 480.547 1.17643 1.47667 0
M  V30 5000 O 479.904 0.20164 1.81383 0
M  V30 5001 C 479.955 3.53171 0.771542 0
M  V30 5002 O 479.676 4.36736 -0.345379 0
M  V30 5003 C 481.177 4.18936 1.4494 0
M  V30 5004 H 478.397 0.667507 0.0683784 0
M  V30 5005 H 480.941 1.99752 -0.438129 0
M  V30 5006 H 479.096 3.58298 1.47314 0
M  V30 5007 H 479.51 5.24499 0.0109219 0
M  V30 5008 H 480.984 5.24482 1.72111 0
M  V30 5009 H 481.461 3.68554 2.38883 0
M  V30 5010 H 482.067 4.17879 0.791028 0
M  V30 5011 N 480.382 0.0267497 1.57577 0
M  V30 5012 C 481.345 -0.940916 2.08996 0
M  V30 5013 C 482.345 -1.25561 1.00455 0
M  V30 5014 O 483.535 -1.19634 1.26623 0
M  V30 5015 C 480.667 -2.25814 2.55384 0
M  V30 5016 H 481.86 -0.495628 2.95776 0
M  V30 5017 H 479.413 -0.221241 1.54726 0
M  V30 5018 H 480.148 -2.74976 1.71926 0
M  V30 5019 H 479.933 -2.04285 3.34679 0
M  V30 5020 H 481.423 -2.95178 2.95398 0
M  V30 5021 N 481.861 -1.55662 -0.24637 0
M  V30 5022 C 483.109 -1.77168 -0.972411 0
M  V30 5023 C 483.43 -0.590827 -1.85834 0
M  V30 5024 O 482.7 0.393365 -1.9191 0
M  V30 5025 H 481.28 -0.653405 -0.362038 0
M  V30 5026 H 483.942 -1.93101 -0.264189 0
M  V30 5027 H 483.038 -2.68335 -1.59382 0
M  V30 5028 N 483.339 0.512053 -1.4905 0
M  V30 5029 C 484.269 1.62365 -1.67809 0
M  V30 5030 C 485.25 1.61737 -0.526809 0
M  V30 5031 O 486.435 1.78651 -0.761404 0
M  V30 5032 C 483.565 3.00895 -1.73435 0
M  V30 5033 C 482.519 3.16387 -2.88242 0
M  V30 5034 C 481.845 4.56157 -2.78971 0
M  V30 5035 C 483.145 2.97457 -4.29321 0
M  V30 5036 H 484.839 1.46921 -2.60873 0
M  V30 5037 H 482.385 0.705379 -1.2554 0
M  V30 5038 H 484.338 3.78549 -1.85145 0
M  V30 5039 H 483.062 3.17403 -0.769619 0
M  V30 5040 H 481.721 2.41155 -2.76116 0
M  V30 5041 H 481.369 4.69525 -1.8043 0
M  V30 5042 H 481.069 4.67465 -3.5602 0
M  V30 5043 H 482.593 5.35886 -2.92675 0
M  V30 5044 H 484.007 3.64888 -4.42187 0
M  V30 5045 H 482.404 3.20245 -5.07507 0
M  V30 5046 H 483.474 1.93692 -4.44535 0
M  V30 5047 N 484.817 1.37938 0.762283 0
M  V30 5048 C 486.042 1.37059 1.55659 0
M  V30 5049 C 486.467 -0.0396123 1.88058 0
M  V30 5050 O 485.825 -1.01929 1.49934 0
M  V30 5051 C 485.873 2.22494 2.83776 0
M  V30 5052 O 484.977 1.63607 3.78559 0
M  V30 5053 H 484.318 0.467892 0.47114 0
M  V30 5054 H 486.848 1.81587 0.942725 0
M  V30 5055 H 486.858 2.36045 3.32786 0
M  V30 5056 H 485.533 3.24993 2.59524 0
M  V30 5057 H 484.11 1.5915 3.37233 0
M  V30 5058 N 486.295 -0.989507 1.22664 0
M  V30 5059 C 487.52 -1.77031 1.08051 0
M  V30 5060 C 487.945 -1.84535 -0.364483 0
M  V30 5061 O 487.303 -1.3003 -1.2634 0
M  V30 5062 C 487.351 -3.18 1.70024 0
M  V30 5063 O 486.455 -4.01161 0.956216 0
M  V30 5064 H 485.796 -0.545008 0.379292 0
M  V30 5065 H 488.326 -1.24277 1.62531 0
M  V30 5066 H 488.336 -3.68616 1.74888 0
M  V30 5067 H 487.011 -3.11853 2.75174 0
M  V30 5068 H 485.588 -3.59687 0.98384 0
M  V30 5069 N 487.773 -1.03688 -1.18687 0
M  V30 5070 C 488.683 -0.634908 -2.25845 0
M  V30 5071 C 489.699 0.337065 -1.70704 0
M  V30 5072 O 490.875 0.192943 -2.00474 0
M  V30 5073 C 487.94 -0.000180054 -3.467 0
M  V30 5074 C 487.001 -1.02067 -4.1699 0
M  V30 5075 C 486.234 -0.41614 -5.32075 0
M  V30 5076 O 486.457 0.778712 -5.65059 0
M  V30 5077 O 485.391 -1.14296 -5.90948 0
M  V30 5078 H 489.217 -1.52757 -2.62486 0
M  V30 5079 H 486.802 -0.807533 -1.25695 0
M  V30 5080 H 488.684 0.353342 -4.19916 0
M  V30 5081 H 487.359 0.866367 -3.11891 0
M  V30 5082 H 486.266 -1.42592 -3.45859 0
M  V30 5083 H 487.599 -1.85786 -4.5579 0
M  V30 5084 N 489.251 1.34841 -0.815825 0
M  V30 5085 C 490.181 2.32187 -0.247298 0
M  V30 5086 C 491.162 1.5791 0.632344 0
M  V30 5087 O 492.347 1.8593 0.560698 0
M  V30 5088 C 489.477 3.42122 0.597466 0
M  V30 5089 C 488.431 4.27602 -0.184446 0
M  V30 5090 C 487.757 5.28942 0.782609 0
M  V30 5091 C 489.057 5.03502 -1.38865 0
M  V30 5092 H 490.751 2.79985 -1.06061 0
M  V30 5093 H 488.297 1.34611 -0.511461 0
M  V30 5094 H 490.25 4.09232 1.00533 0
M  V30 5095 H 488.974 2.92956 1.44376 0
M  V30 5096 H 487.633 3.62085 -0.573592 0
M  V30 5097 H 487.281 4.7604 1.62466 0
M  V30 5098 H 486.981 5.87008 0.263695 0
M  V30 5099 H 488.505 5.98922 1.18848 0
M  V30 5100 H 489.919 5.63506 -1.05518 0
M  V30 5101 H 488.316 5.71108 -1.8427 0
M  V30 5102 H 489.386 4.33608 -2.17054 0
M  V30 5103 N 490.729 0.570148 1.46925 0
M  V30 5104 C 492.145 0.23087 1.57921 0
M  V30 5105 C 492.345 -1.26676 1.56702 0
M  V30 5106 O 491.401 -2.04774 1.47729 0
M  V30 5107 C 492.714 0.868973 2.8787 0
M  V30 5108 C 494.262 0.841397 3.01479 0
M  V30 5109 C 494.737 1.45881 4.34146 0
M  V30 5110 N 496.228 1.42258 4.40814 0
M  V30 5111 C 496.963 1.8698 5.42057 0
M  V30 5112 N 496.459 2.39618 6.50042 0
M  V30 5113 N 498.252 1.77972 5.33181 0
M  V30 5114 H 490.403 1.54301 1.45962 0
M  V30 5115 H 492.666 0.644224 0.69547 0
M  V30 5116 H 492.372 1.922 2.94537 0
M  V30 5117 H 492.246 0.369682 3.75384 0
M  V30 5118 H 494.633 -0.202973 2.94401 0
M  V30 5119 H 494.714 1.37858 2.15474 0
M  V30 5120 H 494.358 2.50231 4.4198 0
M  V30 5121 H 494.288 0.896958 5.18905 0
M  V30 5122 H 496.779 1.03768 3.63374 0
M  V30 5123 H 497.092 2.71633 7.23488 0
M  V30 5124 H 495.437 2.43636 6.50897 0
M  V30 5125 H 498.628 1.36617 4.4772 0
M  V30 5126 H 498.801 2.13143 6.11943 0
M  V30 5127 N 492.207 -1.54576 0.307264 0
M  V30 5128 C 493.432 -2.05139 -0.305379 0
M  V30 5129 C 493.857 -1.18278 -1.46259 0
M  V30 5130 O 493.215 -0.188243 -1.8032 0
M  V30 5131 C 493.263 -3.53066 -0.733283 0
M  V30 5132 O 492.367 -3.69206 -1.83741 0
M  V30 5133 H 491.708 -0.661444 -0.0582105 0
M  V30 5134 H 494.238 -1.99569 0.450931 0
M  V30 5135 H 494.248 -3.95034 -1.02039 0
M  V30 5136 H 492.923 -4.15746 0.113198 0
M  V30 5137 H 491.5 -3.39143 -1.55037 0
M  V30 5138 N 493.685 -0.035106 -1.57561 0
M  V30 5139 C 494.931 0.64318 -1.92331 0
M  V30 5140 C 495.264 1.71434 -0.912368 0
M  V30 5141 O 494.539 1.94395 0.0640303 0
M  V30 5142 C 494.822 1.25411 -3.37556 0
M  V30 5143 C 494.675 0.192109 -4.4939 0
M  V30 5144 C 495.994 2.17041 -3.82859 0
M  V30 5145 H 493.113 0.232341 -0.699419 0
M  V30 5146 H 495.755 -0.0935889 -1.89769 0
M  V30 5147 H 493.905 1.88205 -3.39869 0
M  V30 5148 H 495.577 -0.438849 -4.59208 0
M  V30 5149 H 493.82 -0.481725 -4.31117 0
M  V30 5150 H 494.491 0.659292 -5.48049 0
M  V30 5151 H 496.967 1.64228 -3.8232 0
M  V30 5152 H 495.843 2.56738 -4.85157 0
M  V30 5153 H 496.104 3.06401 -3.18702 0
M  V30 5154 N 495.163 1.55791 0.238111 0
M  V30 5155 C 496.093 1.94068 1.29846 0
M  V30 5156 C 497.074 0.806726 1.49753 0
M  V30 5157 O 498.259 1.06772 1.62214 0
M  V30 5158 C 495.389 2.24302 2.65153 0
M  V30 5159 C 494.343 3.40032 2.59927 0
M  V30 5160 C 493.669 3.55829 3.99111 0
M  V30 5161 C 494.969 4.75476 2.16148 0
M  V30 5162 H 496.663 2.82887 0.980563 0
M  V30 5163 H 494.209 1.36105 0.470253 0
M  V30 5164 H 496.162 2.4967 3.39475 0
M  V30 5165 H 494.886 1.32318 2.98596 0
M  V30 5166 H 493.545 3.14687 1.88063 0
M  V30 5167 H 493.193 2.6125 4.29834 0
M  V30 5168 H 492.893 4.3366 3.96501 0
M  V30 5169 H 494.417 3.83528 4.7512 0
M  V30 5170 H 495.831 5.00158 2.80205 0
M  V30 5171 H 494.228 5.56472 2.24631 0
M  V30 5172 H 495.298 4.71946 1.11333 0
M  V30 5173 N 496.642 -0.504142 1.49319 0
M  V30 5174 C 497.888 -1.26033 1.58882 0
M  V30 5175 C 498.221 -1.92268 0.273274 0
M  V30 5176 O 497.496 -1.80567 -0.72291 0
M  V30 5177 C 497.779 -2.32976 2.7458 0
M  V30 5178 C 497.632 -1.71263 4.1592 0
M  V30 5179 C 498.951 -3.34561 2.85932 0
M  V30 5180 H 496.07 -0.456863 0.578312 0
M  V30 5181 H 498.712 -0.558965 1.81592 0
M  V30 5182 H 496.862 -2.92796 2.55348 0
M  V30 5183 H 498.534 -1.15294 4.4666 0
M  V30 5184 H 496.777 -1.01686 4.21714 0
M  V30 5185 H 497.448 -2.48816 4.92742 0
M  V30 5186 H 499.924 -2.84727 3.0343 0
M  V30 5187 H 498.8 -4.06754 3.68568 0
M  V30 5188 H 499.061 -3.96695 1.95154 0
M  V30 5189 N 498.12 -1.38341 -0.754957 0
M  V30 5190 C 499.053 -1.29837 -1.87663 0
M  V30 5191 C 500.031 -0.175659 -1.61648 0
M  V30 5192 O 501.215 -0.352745 -1.8517 0
M  V30 5193 C 498.342 -1.01141 -3.23246 0
M  V30 5194 C 497.388 -2.15331 -3.6815 0
M  V30 5195 S 498.221 -3.77459 -3.79849 0
M  V30 5196 C 499.377 -3.50948 -5.18253 0
M  V30 5197 H 499.61 -2.24771 -1.9459 0
M  V30 5198 H 497.143 -1.24161 -0.917796 0
M  V30 5199 H 499.101 -0.852687 -4.01546 0
M  V30 5200 H 497.762 -0.0792784 -3.14 0
M  V30 5201 H 496.955 -1.90795 -4.6649 0
M  V30 5202 H 496.557 -2.27304 -2.97 0
M  V30 5203 H 498.849 -3.06977 -6.03963 0
M  V30 5204 H 499.792 -4.48677 -5.47809 0
M  V30 5205 H 500.2 -2.85492 -4.86985 0
M  V30 5206 N 499.598 0.982988 -1.23187 0
M  V30 5207 C 500.531 2.07302 -0.953993 0
M  V30 5208 C 501.509 1.62249 0.106753 0
M  V30 5209 O 502.693 1.88481 -0.0269525 0
M  V30 5210 C 499.82 3.35873 -0.436716 0
M  V30 5211 C 498.866 3.99862 -1.48367 0
M  V30 5212 S 499.699 4.39443 -3.06023 0
M  V30 5213 C 500.855 5.7117 -2.55959 0
M  V30 5214 H 501.088 2.30554 -1.87702 0
M  V30 5215 H 498.621 1.11883 -1.06403 0
M  V30 5216 H 500.579 4.10244 -0.144872 0
M  V30 5217 H 499.24 3.10634 0.465351 0
M  V30 5218 H 498.433 4.92471 -1.07182 0
M  V30 5219 H 498.035 3.31857 -1.72473 0
M  V30 5220 H 500.327 6.47977 -1.97818 0
M  V30 5221 H 501.27 6.17194 -3.47098 0
M  V30 5222 H 501.678 5.29046 -1.96902 0
M  V30 5223 N 501.076 1.04316 1.18135 0
M  V30 5224 C 502.006 0.657299 2.24058 0
M  V30 5225 C 502.987 -0.340678 1.66654 0
M  V30 5226 O 504.172 -0.220223 1.92947 0
M  V30 5227 C 501.302 0.0220715 3.47293 0
M  V30 5228 C 500.256 0.943857 4.17463 0
M  V30 5229 C 499.582 0.172973 5.3442 0
M  V30 5230 C 500.882 2.26409 4.70677 0
M  V30 5231 H 502.576 1.5428 2.56589 0
M  V30 5232 H 500.122 0.743263 1.23335 0
M  V30 5233 H 502.075 -0.259607 4.206 0
M  V30 5234 H 500.799 -0.898323 3.14003 0
M  V30 5235 H 499.458 1.20996 3.46057 0
M  V30 5236 H 499.106 -0.749907 4.97379 0
M  V30 5237 H 498.806 0.787098 5.82304 0
M  V30 5238 H 500.33 -0.101628 6.10515 0
M  V30 5239 H 501.744 2.04294 5.35665 0
M  V30 5240 H 500.141 2.8314 5.29105 0
M  V30 5241 H 501.211 2.90883 3.87962 0
M  V30 5242 N 502.554 -1.34406 0.822964 0
M  V30 5243 C 503.464 -2.33298 0.246838 0
M  V30 5244 C 504.48 -1.62625 -0.618797 0
M  V30 5245 O 505.656 -1.94391 -0.526685 0
M  V30 5246 C 502.721 -3.41785 -0.581731 0
M  V30 5247 C 501.782 -4.28206 0.306309 0
M  V30 5248 C 501.015 -5.31512 -0.48281 0
M  V30 5249 O 501.238 -5.43973 -1.71607 0
M  V30 5250 O 500.172 -6.01749 0.134884 0
M  V30 5251 H 503.998 -2.84401 1.06534 0
M  V30 5252 H 501.583 -1.37466 0.585108 0
M  V30 5253 H 503.465 -4.08028 -1.05313 0
M  V30 5254 H 502.14 -2.92925 -1.37756 0
M  V30 5255 H 501.047 -3.64885 0.825199 0
M  V30 5256 H 502.38 -4.80507 1.06649 0
M  V30 5257 N 504.032 -0.577932 -1.46621 0
M  V30 5258 C 505.443 -0.150071 -1.86096 0
M  V30 5259 C 505.794 1.28563 -1.48209 0
M  V30 5260 O 504.919 1.97036 -0.894754 0
M  V30 5261 C 505.514 -0.265576 -3.37758 0
M  V30 5262 C 504.073 0.10738 -3.76247 0
M  V30 5263 C 503.22 -0.603711 -2.70649 0
M  V30 5264 H 506.171 -0.786438 -1.37844 0
M  V30 5265 H 506.192 0.510352 -3.77062 0
M  V30 5266 H 505.704 -1.3106 -3.65301 0
M  V30 5267 H 503.805 1.15272 -3.54321 0
M  V30 5268 H 503.918 -0.26561 -4.78363 0
M  V30 5269 H 502.282 -0.0444884 -2.54661 0
M  V30 5270 H 503.065 -1.65029 -3.01032 0
M  V30 5271 N 505.51 1.54411 -0.315457 0
M  V30 5272 C 506.787 1.92562 0.343398 0
M  V30 5273 C 507.167 1.24423 1.70535 0
M  V30 5274 O 506.515 0.385051 2.25232 0
M  V30 5275 C 506.725 3.46168 0.443687 0
M  V30 5276 C 508.073 4.18659 0.707783 0
M  V30 5277 O 509.097 3.52281 0.52693 0
M  V30 5278 O 507.956 5.36198 1.05612 0
M  V30 5279 H 505.05 0.80379 0.194552 0
M  V30 5280 H 507.596 1.65738 -0.364577 0
M  V30 5281 H 506.368 3.8792 -0.513172 0
M  V30 5282 H 505.991 3.79073 1.19956 0
M  V30 5283 N 506.988 0.0434614 1.5754 0
M  V30 5284 C 508.399 -0.493343 1.80064 0
M  V30 5285 C 508.75 -1.71388 0.955023 0
M  V30 5286 O 507.875 -2.15736 0.169434 0
M  V30 5287 C 508.47 -0.90179 3.26578 0
M  V30 5288 C 507.029 -1.38362 3.50047 0
M  V30 5289 C 506.176 -0.355129 2.75017 0
M  V30 5290 H 509.127 0.2694 1.56397 0
M  V30 5291 H 509.148 -1.76523 3.37075 0
M  V30 5292 H 508.66 -0.013271 3.88098 0
M  V30 5293 H 506.761 -2.29159 2.93798 0
M  V30 5294 H 506.874 -1.3811 4.58762 0
M  V30 5295 H 505.238 -0.826348 2.40922 0
M  V30 5296 H 506.021 0.525172 3.39259 0
M  V30 5297 N 508.466 -1.55915 -0.229846 0
M  V30 5298 C 509.413 -1.91734 -1.28478 0
M  V30 5299 C 510.383 -0.773539 -1.46988 0
M  V30 5300 O 511.568 -1.02871 -1.60693 0
M  V30 5301 C 508.708 -2.23224 -2.63182 0
M  V30 5302 C 507.821 -3.50497 -2.52539 0
M  V30 5303 C 506.956 -3.71474 -3.79711 0
M  V30 5304 C 505.995 -4.92289 -3.63755 0
M  V30 5305 N 505.132 -5.09698 -4.82858 0
M  V30 5306 H 509.972 -2.81692 -0.972308 0
M  V30 5307 H 507.509 -1.39429 -0.468815 0
M  V30 5308 H 509.467 -2.3949 -3.41614 0
M  V30 5309 H 508.097 -1.36451 -2.92542 0
M  V30 5310 H 507.149 -3.4247 -1.65585 0
M  V30 5311 H 508.461 -4.39079 -2.36666 0
M  V30 5312 H 507.615 -3.87791 -4.66586 0
M  V30 5313 H 506.354 -2.81157 -3.985 0
M  V30 5314 H 505.359 -4.7593 -2.75264 0
M  V30 5315 H 506.584 -5.84083 -3.46445 0
M  V30 5316 H 504.53 -4.22322 -5.01976 0
M  V30 5317 H 504.447 -5.92399 -4.69681 0
M  V30 5318 H 505.715 -5.30443 -5.71183 0
M  V30 5319 N 509.944 0.496216 -1.49584 0
M  V30 5320 C 510.874 1.60576 -1.69521 0
M  V30 5321 C 511.855 1.61169 -0.543933 0
M  V30 5322 O 513.04 1.77834 -0.78031 0
M  V30 5323 C 510.17 2.99038 -1.76616 0
M  V30 5324 C 509.124 3.13312 -2.91581 0
M  V30 5325 C 508.45 4.53172 -2.83794 0
M  V30 5326 C 509.75 2.92886 -4.32452 0
M  V30 5327 H 511.444 1.44146 -2.62416 0
M  V30 5328 H 508.99 0.692024 -1.26282 0
M  V30 5329 H 510.943 3.76564 -1.8915 0
M  V30 5330 H 509.667 3.16568 -0.80324 0
M  V30 5331 H 508.326 2.38213 -2.78658 0
M  V30 5332 H 507.974 4.67585 -1.854 0
M  V30 5333 H 507.674 4.63662 -3.60958 0
M  V30 5334 H 509.198 5.32752 -2.98342 0
M  V30 5335 H 510.612 3.60178 -4.46032 0
M  V30 5336 H 509.009 3.14844 -5.10875 0
M  V30 5337 H 510.079 1.88966 -4.46565 0
M  V30 5338 N 511.423 1.38739 0.74761 0
M  V30 5339 C 512.839 1.20067 1.05148 0
M  V30 5340 C 513.039 0.0534835 2.01429 0
M  V30 5341 O 512.095 -0.59886 2.45296 0
M  V30 5342 C 513.408 2.52957 1.62584 0
M  V30 5343 C 514.956 2.59692 1.74726 0
M  V30 5344 C 515.431 3.92772 2.35573 0
M  V30 5345 N 516.922 3.94343 2.42997 0
M  V30 5346 C 517.657 4.9408 2.90985 0
M  V30 5347 N 517.153 6.04214 3.38965 0
M  V30 5348 N 518.946 4.81466 2.9008 0
M  V30 5349 H 511.097 2.12121 0.108808 0
M  V30 5350 H 513.36 0.941491 0.110899 0
M  V30 5351 H 513.066 3.37389 0.993051 0
M  V30 5352 H 512.94 2.71779 2.61565 0
M  V30 5353 H 515.327 1.75651 2.3713 0
M  V30 5354 H 515.408 2.44731 0.744326 0
M  V30 5355 H 515.052 4.77238 1.738 0
M  V30 5356 H 514.982 4.05046 3.36519 0
M  V30 5357 H 517.473 3.14799 2.0907 0
M  V30 5358 H 517.786 6.76241 3.74056 0
M  V30 5359 H 516.131 6.07825 3.37007 0
M  V30 5360 H 519.322 3.94535 2.51912 0
M  V30 5361 H 519.495 5.59344 3.27166 0
M  V30 5362 N 512.901 -0.976442 1.23707 0
M  V30 5363 C 513.864 -2.0511 1.02287 0
M  V30 5364 C 514.864 -1.60791 -0.0167195 0
M  V30 5365 O 516.054 -1.72761 0.223408 0
M  V30 5366 C 513.186 -3.36458 0.548507 0
M  V30 5367 H 514.379 -2.25545 1.9766 0
M  V30 5368 H 511.932 -1.15042 1.05806 0
M  V30 5369 H 512.667 -3.21713 -0.408818 0
M  V30 5370 H 512.452 -3.69967 1.29874 0
M  V30 5371 H 513.942 -4.15489 0.419406 0
M  V30 5372 N 514.379 -1.04941 -1.1758 0
M  V30 5373 C 515.607 -0.778294 -1.91703 0
M  V30 5374 C 516.022 0.665697 -1.76675 0
M  V30 5375 O 515.379 1.45456 -1.10222 0
M  V30 5376 C 515.43 -1.14628 -3.42845 0
M  V30 5377 O 515.151 -2.53359 -3.57409 0
M  V30 5378 C 516.652 -0.900931 -4.34049 0
M  V30 5379 H 513.872 -0.283167 -0.608323 0
M  V30 5380 H 516.416 -1.39942 -1.49119 0
M  V30 5381 H 514.571 -0.569953 -3.83184 0
M  V30 5382 H 514.985 -2.67709 -4.51035 0
M  V30 5383 H 516.459 -1.20817 -5.38616 0
M  V30 5384 H 516.936 0.163966 -4.38894 0
M  V30 5385 H 517.542 -1.46097 -3.99419 0
M  V30 5386 N 515.857 1.33968 -0.830081 0
M  V30 5387 C 516.82 2.27694 -0.26235 0
M  V30 5388 C 517.82 1.50589 0.563876 0
M  V30 5389 O 519.01 1.70028 0.378941 0
M  V30 5390 C 516.142 3.35002 0.63138 0
M  V30 5391 H 517.335 2.79419 -1.08928 0
M  V30 5392 H 514.888 1.44221 -0.602486 0
M  V30 5393 H 515.623 2.88504 1.48109 0
M  V30 5394 H 515.408 3.92079 0.0403276 0
M  V30 5395 H 516.898 4.04897 1.02217 0
M  V30 5396 N 517.335 0.585699 1.46312 0
M  V30 5397 C 518.245 -0.148236 2.34131 0
M  V30 5398 C 519.261 -0.882972 1.49932 0
M  V30 5399 O 520.437 -0.845484 1.82794 0
M  V30 5400 C 517.502 -1.14714 3.27172 0
M  V30 5401 C 516.563 -0.416746 4.27272 0
M  V30 5402 C 515.796 -1.36806 5.15868 0
M  V30 5403 O 516.019 -2.60475 5.07454 0
M  V30 5404 O 514.953 -0.877018 5.95476 0
M  V30 5405 H 518.779 0.572882 2.98248 0
M  V30 5406 H 516.364 0.346082 1.45336 0
M  V30 5407 H 518.246 -1.72303 3.84564 0
M  V30 5408 H 516.921 -1.84967 2.65648 0
M  V30 5409 H 515.828 0.201061 3.73559 0
M  V30 5410 H 517.161 0.244872 4.9159 0
M  V30 5411 N 518.813 -1.54241 0.323641 0
M  V30 5412 C 519.776 -2.22997 -0.529602 0
M  V30 5413 C 520.776 -1.22345 -1.04347 0
M  V30 5414 O 521.966 -1.46924 -0.935889 0
M  V30 5415 C 519.098 -2.93409 -1.73562 0
M  V30 5416 H 520.291 -2.99815 0.0714518 0
M  V30 5417 H 517.844 -1.56121 0.0747258 0
M  V30 5418 H 518.579 -2.20729 -2.37591 0
M  V30 5419 H 518.364 -3.67217 -1.37456 0
M  V30 5420 H 519.854 -3.45794 -2.34128 0
M  V30 5421 N 520.291 -0.0518155 -1.57515 0
M  V30 5422 C 521.221 0.920283 -2.146 0
M  V30 5423 C 522.202 1.32406 -1.06783 0
M  V30 5424 O 523.387 1.39866 -1.34726 0
M  V30 5425 C 520.517 2.1949 -2.6915 0
M  V30 5426 C 519.471 1.93116 -3.81956 0
M  V30 5427 C 518.797 3.27037 -4.23026 0
M  V30 5428 C 520.097 1.25225 -5.07066 0
M  V30 5429 H 521.791 0.444801 -2.96077 0
M  V30 5430 H 519.337 0.212508 -1.42423 0
M  V30 5431 H 521.29 2.87894 -3.07725 0
M  V30 5432 H 520.014 2.69244 -1.84865 0
M  V30 5433 H 518.673 1.27123 -3.43854 0
M  V30 5434 H 518.321 3.74595 -3.3569 0
M  V30 5435 H 518.021 3.10189 -4.99056 0
M  V30 5436 H 519.545 3.96673 -4.64202 0
M  V30 5437 H 520.959 1.83666 -5.43083 0
M  V30 5438 H 519.356 1.18702 -5.88243 0
M  V30 5439 H 520.426 0.228382 -4.84362 0
M  V30 5440 N 521.769 1.56035 0.221574 0
M  V30 5441 C 522.699 1.95434 1.2778 0
M  V30 5442 C 523.68 0.822564 1.48889 0
M  V30 5443 O 524.865 1.08486 1.61072 0
M  V30 5444 C 521.995 2.27102 2.62759 0
M  V30 5445 C 520.949 3.4277 2.56306 0
M  V30 5446 C 520.275 3.60043 3.95314 0
M  V30 5447 C 521.575 4.77742 2.11093 0
M  V30 5448 H 523.269 2.83912 0.950504 0
M  V30 5449 H 520.815 1.36596 0.455791 0
M  V30 5450 H 522.768 2.53256 3.36807 0
M  V30 5451 H 521.492 1.35478 2.97176 0
M  V30 5452 H 520.151 3.16664 1.84715 0
M  V30 5453 H 519.799 2.65794 4.27039 0
M  V30 5454 H 519.499 4.37841 3.91879 0
M  V30 5455 H 521.023 3.88545 4.71025 0
M  V30 5456 H 522.437 5.03102 2.74885 0
M  V30 5457 H 520.834 5.58823 2.18716 0
M  V30 5458 H 521.904 4.731 1.06321 0
M  V30 5459 N 523.247 -0.488276 1.49845 0
M  V30 5460 C 524.21 -1.57069 1.66919 0
M  V30 5461 C 525.21 -1.51445 0.540479 0
M  V30 5462 O 526.4 -1.5437 0.807188 0
M  V30 5463 C 523.532 -2.96718 1.67844 0
M  V30 5464 H 524.725 -1.43254 2.63474 0
M  V30 5465 H 522.278 -0.713435 1.39068 0
M  V30 5466 H 523.013 -3.15996 0.7292 0
M  V30 5467 H 522.798 -3.02208 2.49826 0
M  V30 5468 H 524.288 -3.75335 1.83066 0
M  V30 5469 N 524.725 -1.39134 -0.740242 0
M  V30 5470 C 525.655 -1.40165 -1.86751 0
M  V30 5471 C 526.636 -0.265708 -1.68012 0
M  V30 5472 O 527.821 -0.47076 -1.88408 0
M  V30 5473 C 524.951 -1.2392 -3.2444 0
M  V30 5474 C 523.905 -2.34858 -3.57807 0
M  V30 5475 C 523.231 -2.03707 -4.94376 0
M  V30 5476 C 524.531 -3.77159 -3.61315 0
M  V30 5477 H 526.225 -2.345 -1.86145 0
M  V30 5478 H 523.771 -1.12875 -0.89416 0
M  V30 5479 H 525.724 -1.23263 -4.02969 0
M  V30 5480 H 524.448 -0.26051 -3.25559 0
M  V30 5481 H 523.107 -2.34723 -2.81604 0
M  V30 5482 H 522.755 -1.04289 -4.9207 0
M  V30 5483 H 522.455 -2.78016 -5.17669 0
M  V30 5484 H 523.979 -2.04691 -5.75268 0
M  V30 5485 H 525.393 -3.79252 -4.29931 0
M  V30 5486 H 523.79 -4.50784 -3.96124 0
M  V30 5487 H 524.86 -4.08513 -2.61238 0
M  V30 5488 N 526.204 0.969867 -1.24223 0
M  V30 5489 C 527.615 1.52717 -1.07399 0
M  V30 5490 C 527.966 1.92956 0.355298 0
M  V30 5491 O 527.091 1.77112 1.2434 0
M  V30 5492 C 527.686 2.77521 -1.94339 0
M  V30 5493 C 526.245 3.29615 -1.81744 0
M  V30 5494 C 525.392 2.02537 -1.89405 0
M  V30 5495 H 528.343 0.788399 -1.37732 0
M  V30 5496 H 528.364 3.50773 -1.47439 0
M  V30 5497 H 527.876 2.48203 -2.98357 0
M  V30 5498 H 525.977 3.63789 -0.805505 0
M  V30 5499 H 526.09 3.98661 -2.65718 0
M  V30 5500 H 524.454 2.17151 -1.33108 0
M  V30 5501 H 525.237 1.75587 -2.94999 0
M  V30 5502 N 527.682 1.05563 1.17022 0
M  V30 5503 C 528.928 0.769074 1.87652 0
M  V30 5504 C 529.261 -0.702326 1.81055 0
M  V30 5505 O 528.536 -1.5139 1.22112 0
M  V30 5506 C 528.819 1.25492 3.37526 0
M  V30 5507 C 528.672 2.78953 3.52853 0
M  V30 5508 C 529.991 0.856919 4.31677 0
M  V30 5509 H 527.11 0.280854 0.681388 0
M  V30 5510 H 529.752 1.31027 1.37593 0
M  V30 5511 H 527.902 0.794516 3.80289 0
M  V30 5512 H 529.574 3.33146 3.19079 0
M  V30 5513 H 527.817 3.18046 2.95007 0
M  V30 5514 H 528.488 3.08011 4.58076 0
M  V30 5515 H 530.964 1.25334 3.96775 0
M  V30 5516 H 529.84 1.22443 5.35069 0
M  V30 5517 H 530.101 -0.238787 4.41455 0
M  V30 5518 N 529.16 -1.33526 0.837174 0
M  V30 5519 C 530.09 -2.31764 0.284206 0
M  V30 5520 C 531.071 -1.58896 -0.607142 0
M  V30 5521 O 532.256 -1.86798 -0.531047 0
M  V30 5522 C 529.386 -3.43029 -0.542962 0
M  V30 5523 C 528.34 -4.27255 0.252451 0
M  V30 5524 C 527.666 -5.3012 -0.69836 0
M  V30 5525 C 528.966 -5.01229 1.46858 0
M  V30 5526 H 530.66 -2.78262 1.10502 0
M  V30 5527 H 528.206 -1.3378 0.532812 0
M  V30 5528 H 530.159 -4.1078 -0.940096 0
M  V30 5529 H 528.883 -2.95216 -1.39697 0
M  V30 5530 H 527.542 -3.61127 0.631124 0
M  V30 5531 H 527.19 -4.78564 -1.54872 0
M  V30 5532 H 526.89 -5.87353 -0.170274 0
M  V30 5533 H 528.414 -6.00737 -1.09305 0
M  V30 5534 H 529.828 -5.61756 1.14469 0
M  V30 5535 H 528.225 -5.68104 1.93333 0
M  V30 5536 H 529.295 -4.301 2.23924 0
M  V30 5537 N 530.638 -0.59345 -1.46 0
M  V30 5538 C 532.054 -0.255965 -1.57534 0
M  V30 5539 C 532.254 1.24167 -1.58697 0
M  V30 5540 O 531.31 2.02398 -1.50968 0
M  V30 5541 C 532.623 -0.91466 -2.86451 0
M  V30 5542 C 534.171 -0.889253 -3.00102 0
M  V30 5543 C 534.646 -1.52769 -4.3177 0
M  V30 5544 N 536.137 -1.49253 -4.38495 0
M  V30 5545 C 536.872 -1.9558 -5.39014 0
M  V30 5546 N 536.368 -2.49929 -6.46148 0
M  V30 5547 N 538.161 -1.86432 -5.30282 0
M  V30 5548 H 530.312 -1.56604 -1.43489 0
M  V30 5549 H 532.575 -0.655207 -0.685133 0
M  V30 5550 H 532.281 -1.96861 -2.91442 0
M  V30 5551 H 532.155 -0.429356 -3.74748 0
M  V30 5552 H 534.542 0.156111 -2.94687 0
M  V30 5553 H 534.623 -1.41268 -2.13253 0
M  V30 5554 H 534.267 -2.57231 -4.37944 0
M  V30 5555 H 534.197 -0.979398 -5.17412 0
M  V30 5556 H 536.688 -1.09536 -3.61677 0
M  V30 5557 H 537.001 -2.83109 -7.19075 0
M  V30 5558 H 535.346 -2.53961 -6.46938 0
M  V30 5559 H 538.537 -1.43722 -4.4549 0
M  V30 5560 H 538.71 -2.22852 -6.08474 0
M  V30 5561 N 532.116 1.54067 -0.331816 0
M  V30 5562 C 533.048 2.22139 0.564538 0
M  V30 5563 C 534.061 1.22408 1.07332 0
M  V30 5564 O 535.25 1.4883 0.985481 0
M  V30 5565 C 532.35 2.87876 1.78831 0
M  V30 5566 C 531.523 4.13817 1.41682 0
M  V30 5567 C 530.582 4.63072 2.49901 0
M  V30 5568 O 529.608 5.27562 2.13699 0
M  V30 5569 N 530.81 4.38001 3.80967 0
M  V30 5570 H 533.575 2.99694 -0.0183736 0
M  V30 5571 H 531.136 1.61153 -0.155396 0
M  V30 5572 H 533.128 3.17747 2.50637 0
M  V30 5573 H 531.698 2.13977 2.27887 0
M  V30 5574 H 530.918 3.9062 0.530044 0
M  V30 5575 H 532.206 4.95762 1.14443 0
M  V30 5576 H 531.604 3.864 4.13173 0
M  V30 5577 H 530.161 4.72507 4.48977 0
M  V30 5578 N 533.594 0.0601682 1.57485 0
M  V30 5579 C 535.005 -0.474217 1.80577 0
M  V30 5580 C 535.356 -1.70365 0.973147 0
M  V30 5581 O 534.481 -2.15544 0.192306 0
M  V30 5582 C 535.076 -0.867102 3.27516 0
M  V30 5583 C 533.635 -1.34642 3.51495 0
M  V30 5584 C 532.782 -0.32594 2.75378 0
M  V30 5585 H 535.733 0.285973 1.56102 0
M  V30 5586 H 535.754 -1.72938 3.38929 0
M  V30 5587 H 535.266 0.0278927 3.8809 0
M  V30 5588 H 533.367 -2.2603 2.96212 0
M  V30 5589 H 533.48 -1.33237 4.60201 0
M  V30 5590 H 531.844 -0.800749 2.41785 0
M  V30 5591 H 532.627 0.561125 3.38683 0
M  V30 5592 N 535.072 -1.5615 -0.213296 0
M  V30 5593 C 536.488 -1.49327 -0.56336 0
M  V30 5594 C 536.688 -0.756826 -1.86747 0
M  V30 5595 O 535.744 -0.299866 -2.50713 0
M  V30 5596 C 537.057 -2.9392 -0.634944 0
M  V30 5597 C 538.605 -3.04487 -0.725013 0
M  V30 5598 C 539.08 -4.50456 -0.82787 0
M  V30 5599 N 540.571 -4.54533 -0.891876 0
M  V30 5600 C 541.306 -5.64766 -0.991315 0
M  V30 5601 N 540.802 -6.84733 -1.05419 0
M  V30 5602 N 542.595 -5.52637 -1.02709 0
M  V30 5603 H 534.746 -2.02453 0.642366 0
M  V30 5604 H 537.009 -0.920548 0.226487 0
M  V30 5605 H 536.715 -3.50783 0.253859 0
M  V30 5606 H 536.589 -3.46274 -1.49579 0
M  V30 5607 H 538.976 -2.47685 -1.60425 0
M  V30 5608 H 539.057 -2.55289 0.161669 0
M  V30 5609 H 538.701 -5.07878 0.0469464 0
M  V30 5610 H 538.631 -4.97369 -1.73009 0
M  V30 5611 H 541.122 -3.68141 -0.85327 0
M  V30 5612 H 541.435 -7.64493 -1.13007 0
M  V30 5613 H 539.78 -6.87427 -1.02318 0
M  V30 5614 H 542.971 -4.5784 -0.974687 0
M  V30 5615 H 543.144 -6.38576 -1.10113 0
M  V30 5616 N 536.55 0.480323 -1.50102 0
M  V30 5617 C 537.513 1.56181 -1.6775 0
M  V30 5618 C 538.513 1.51156 -0.548503 0
M  V30 5619 O 539.703 1.5394 -0.815363 0
M  V30 5620 C 536.835 2.95823 -1.69415 0
M  V30 5621 H 538.028 1.41855 -2.6423 0
M  V30 5622 H 535.581 0.70605 -1.39444 0
M  V30 5623 H 536.316 3.15604 -0.745948 0
M  V30 5624 H 536.101 3.00878 -2.51425 0
M  V30 5625 H 537.591 3.74359 -1.85054 0
M  V30 5626 N 538.028 1.39524 0.732853 0
M  V30 5627 C 539.274 1.38072 1.49358 0
M  V30 5628 C 539.629 -0.0227943 1.92386 0
M  V30 5629 O 538.922 -0.98976 1.64056 0
M  V30 5630 C 539.116 2.28916 2.74468 0
M  V30 5631 C 538.945 3.7796 2.43673 0
M  V30 5632 C 537.715 4.46874 2.35863 0
M  V30 5633 C 539.913 4.69886 2.09074 0
M  V30 5634 N 537.895 5.81242 1.97561 0
M  V30 5635 C 539.266 5.9292 1.81234 0
M  V30 5636 C 541.321 4.57887 1.95561 0
M  V30 5637 C 540.024 7.05297 1.41242 0
M  V30 5638 C 542.05 5.70187 1.56972 0
M  V30 5639 C 541.412 6.92297 1.30018 0
M  V30 5640 H 537.511 0.56051 0.5453 0
M  V30 5641 H 540.095 1.75093 0.85151 0
M  V30 5642 H 538.266 1.9405 3.36451 0
M  V30 5643 H 539.998 2.18441 3.40684 0
M  V30 5644 H 536.753 4.00341 2.5303 0
M  V30 5645 H 537.177 6.52356 1.80997 0
M  V30 5646 H 541.819 3.64014 2.15067 0
M  V30 5647 H 539.537 7.99069 1.20476 0
M  V30 5648 H 543.123 5.62892 1.47119 0
M  V30 5649 H 542.003 7.7772 1.00605 0
M  V30 5650 N 539.506 -0.963266 1.24736 0
M  V30 5651 C 540.754 -1.70343 1.08755 0
M  V30 5652 C 541.075 -1.91387 -0.373619 0
M  V30 5653 O 540.345 -1.4948 -1.2662 0
M  V30 5654 H 538.925 -0.631224 0.399456 0
M  V30 5655 H 541.587 -1.15859 1.56725 0
M  V30 5656 H 540.683 -2.68616 1.58909 0
M  V30 5657 N 540.985 -1.06182 -1.16461 0
M  V30 5658 C 542.231 -0.779015 -1.87241 0
M  V30 5659 C 542.564 0.692715 -1.81425 0
M  V30 5660 O 541.839 1.5074 -1.22913 0
M  V30 5661 C 542.122 -1.2728 -3.36856 0
M  V30 5662 C 541.975 -2.80821 -3.51368 0
M  V30 5663 C 543.294 -0.879799 -4.31216 0
M  V30 5664 H 540.413 -0.284464 -0.679889 0
M  V30 5665 H 543.055 -1.31755 -1.36896 0
M  V30 5666 H 541.205 -0.814673 -3.79862 0
M  V30 5667 H 542.877 -3.34833 -3.17308 0
M  V30 5668 H 541.12 -3.19606 -2.93316 0
M  V30 5669 H 541.791 -3.10435 -4.56436 0
M  V30 5670 H 544.267 -1.27436 -3.96105 0
M  V30 5671 H 543.143 -1.25278 -5.34412 0
M  V30 5672 H 543.404 0.215372 -4.41575 0
M  V30 5673 N 542.463 1.3308 -0.844243 0
M  V30 5674 C 543.393 2.3161 -0.296493 0
M  V30 5675 C 544.374 1.59215 0.598707 0
M  V30 5676 O 545.559 1.87077 0.521134 0
M  V30 5677 C 542.689 3.43313 0.524762 0
M  V30 5678 C 541.643 4.27115 -0.275106 0
M  V30 5679 C 540.969 5.30483 0.670236 0
M  V30 5680 C 542.269 5.00443 -1.49514 0
M  V30 5681 H 543.963 2.77672 -1.11976 0
M  V30 5682 H 541.509 1.33496 -0.539899 0
M  V30 5683 H 543.462 4.11273 0.918298 0
M  V30 5684 H 542.186 2.95952 1.3813 0
M  V30 5685 H 540.845 3.60787 -0.650267 0
M  V30 5686 H 540.493 4.79379 1.52332 0
M  V30 5687 H 540.193 5.87435 0.139123 0
M  V30 5688 H 541.717 6.01308 1.06117 0
M  V30 5689 H 543.131 5.61141 -1.17447 0
M  V30 5690 H 541.528 5.67071 -1.96343 0
M  V30 5691 H 542.598 4.28906 -2.26202 0
M  V30 5692 N 543.941 0.601185 1.45683 0
M  V30 5693 C 545.187 0.102425 2.03142 0
M  V30 5694 C 545.542 -1.25066 1.46207 0
M  V30 5695 O 544.835 -1.81126 0.624806 0
M  V30 5696 C 545.029 -0.00222425 3.574 0
M  V30 5697 C 544.858 1.33917 4.29298 0
M  V30 5698 C 543.628 1.91818 4.67476 0
M  V30 5699 C 545.826 2.26652 4.61664 0
M  V30 5700 N 543.808 3.19504 5.24204 0
M  V30 5701 C 545.179 3.38933 5.19157 0
M  V30 5702 C 547.234 2.26103 4.43601 0
M  V30 5703 C 545.937 4.50823 5.60492 0
M  V30 5704 C 547.963 3.37036 4.85964 0
M  V30 5705 C 547.325 4.48039 5.43545 0
M  V30 5706 H 543.424 0.0806974 0.777825 0
M  V30 5707 H 546.008 0.798134 1.77589 0
M  V30 5708 H 544.179 -0.66714 3.82627 0
M  V30 5709 H 545.911 -0.507058 4.01511 0
M  V30 5710 H 542.666 1.45097 4.50826 0
M  V30 5711 H 543.09 3.84705 5.57073 0
M  V30 5712 H 547.732 1.41547 3.98402 0
M  V30 5713 H 545.45 5.36108 6.0466 0
M  V30 5714 H 549.036 3.37752 4.73725 0
M  V30 5715 H 547.916 5.32459 5.75723 0
M  V30 5716 N 545.419 -1.53889 0.339982 0
M  V30 5717 C 546.659 -2.02765 -0.258011 0
M  V30 5718 C 547.023 -1.22249 -1.48051 0
M  V30 5719 O 548.224 -1.61007 -2.15245 0
M  V30 5720 C 546.495 -3.5286 -0.567872 0
M  V30 5721 S 548.054 -4.23647 -1.14318 0
M  V30 5722 H 544.872 -0.706814 -0.0770389 0
M  V30 5723 H 547.474 -1.89594 0.476917 0
M  V30 5724 H 546.178 -4.09073 0.329745 0
M  V30 5725 H 545.709 -3.70144 -1.33256 0
M  V30 5726 H 547.724 -4.32676 -2.42911 0
M  V30 5727 N 546.897 -0.0685191 -1.57451 0
M  V30 5728 C 547.83 0.935736 -2.08133 0
M  V30 5729 C 548.808 1.29317 -0.985698 0
M  V30 5730 O 549.992 1.40304 -1.25886 0
M  V30 5731 C 547.119 2.2448 -2.53627 0
M  V30 5732 C 546.165 2.03917 -3.74593 0
M  V30 5733 S 546.998 1.30154 -5.19442 0
M  V30 5734 C 548.154 2.62346 -5.68265 0
M  V30 5735 H 548.387 0.504473 -2.92989 0
M  V30 5736 H 545.92 0.144169 -1.53725 0
M  V30 5737 H 547.878 2.99718 -2.80499 0
M  V30 5738 H 546.539 2.64731 -1.69045 0
M  V30 5739 H 545.732 3.00788 -4.04404 0
M  V30 5740 H 545.334 1.36815 -3.48077 0
M  V30 5741 H 547.626 3.58448 -5.7491 0
M  V30 5742 H 548.569 2.3715 -6.67207 0
M  V30 5743 H 548.977 2.69401 -4.96068 0
M  V30 5744 N 548.375 1.56261 0.205012 0
M  V30 5745 C 549.338 1.92908 1.23771 0
M  V30 5746 C 550.338 0.809208 1.38955 0
M  V30 5747 O 551.528 1.07676 1.36936 0
M  V30 5748 C 548.66 2.19442 2.60879 0
M  V30 5749 H 549.853 2.85287 0.924728 0
M  V30 5750 H 547.406 1.49798 0.446125 0
M  V30 5751 H 548.141 1.29668 2.97248 0
M  V30 5752 H 547.926 3.0104 2.51232 0
M  V30 5753 H 549.416 2.48833 3.35368 0
M  V30 5754 N 549.853 -0.472356 1.50355 0
M  V30 5755 C 550.816 -1.5529 1.68576 0
M  V30 5756 C 551.816 -1.50863 0.556511 0
M  V30 5757 O 553.006 -1.53505 0.823516 0
M  V30 5758 C 550.138 -2.94921 1.70981 0
M  V30 5759 H 551.331 -1.40451 2.64978 0
M  V30 5760 H 548.884 -0.698645 1.39816 0
M  V30 5761 H 549.619 -3.15204 0.762675 0
M  V30 5762 H 549.404 -2.99541 2.53017 0
M  V30 5763 H 550.894 -3.73372 1.87037 0
M  V30 5764 N 551.331 -1.39911 -0.725443 0
M  V30 5765 C 552.241 -1.41688 -1.8698 0
M  V30 5766 C 553.257 -0.310579 -1.71206 0
M  V30 5767 O 554.433 -0.55359 -1.93642 0
M  V30 5768 C 551.498 -1.26811 -3.22676 0
M  V30 5769 C 550.559 -2.47497 -3.50776 0
M  V30 5770 C 549.792 -2.3332 -4.79997 0
M  V30 5771 O 550.015 -1.34175 -5.54394 0
M  V30 5772 O 548.949 -3.22498 -5.08211 0
M  V30 5773 H 552.775 -2.38171 -1.88436 0
M  V30 5774 H 550.36 -1.21128 -0.874548 0
M  V30 5775 H 552.242 -1.20684 -4.03749 0
M  V30 5776 H 550.917 -0.334289 -3.21969 0
M  V30 5777 H 549.824 -2.59201 -2.69751 0
M  V30 5778 H 551.157 -3.39606 -3.5627 0
M  V30 5779 N 552.809 0.956637 -1.25245 0
M  V30 5780 C 553.772 2.03457 -1.05537 0
M  V30 5781 C 554.772 1.60798 -0.00886317 0
M  V30 5782 O 555.962 1.72384 -0.250865 0
M  V30 5783 C 553.094 3.35543 -0.601965 0
M  V30 5784 H 554.287 2.22372 -2.01223 0
M  V30 5785 H 551.84 1.13344 -1.07623 0
M  V30 5786 H 552.575 3.22323 0.357584 0
M  V30 5787 H 552.36 3.67854 -1.35743 0
M  V30 5788 H 553.85 4.14769 -0.485454 0
M  V30 5789 N 554.287 1.06798 1.15896 0
M  V30 5790 C 555.217 0.704677 2.22613 0
M  V30 5791 C 556.198 -0.305252 1.67339 0
M  V30 5792 O 557.383 -0.179247 1.93371 0
M  V30 5793 C 554.513 0.0957325 3.47168 0
M  V30 5794 C 553.467 1.0322 4.15367 0
M  V30 5795 C 552.793 0.286293 5.33933 0
M  V30 5796 C 554.093 2.36341 4.65768 0
M  V30 5797 H 555.787 1.59688 2.53259 0
M  V30 5798 H 553.333 0.769257 1.21731 0
M  V30 5799 H 555.286 -0.170333 4.21056 0
M  V30 5800 H 554.01 -0.831516 3.15838 0
M  V30 5801 H 552.669 1.28309 3.43413 0
M  V30 5802 H 552.317 -0.644237 4.98857 0
M  V30 5803 H 552.017 0.910436 5.80504 0
M  V30 5804 H 553.541 0.0278938 6.10594 0
M  V30 5805 H 554.955 2.1561 5.31211 0
M  V30 5806 H 553.352 2.94299 5.2298 0
M  V30 5807 H 554.422 2.99047 3.81705 0
M  V30 5808 N 555.766 -1.3263 0.851289 0
M  V30 5809 C 556.991 -2.02097 0.466006 0
M  V30 5810 C 557.416 -1.63574 -0.928709 0
M  V30 5811 O 556.774 -0.834665 -1.60944 0
M  V30 5812 C 556.822 -3.55425 0.608737 0
M  V30 5813 O 555.926 -4.10827 -0.359878 0
M  V30 5814 H 555.267 -0.636911 0.187724 0
M  V30 5815 H 557.797 -1.69253 1.14955 0
M  V30 5816 H 557.807 -4.04986 0.495006 0
M  V30 5817 H 556.482 -3.82806 1.62581 0
M  V30 5818 H 555.059 -3.72349 -0.202666 0
M  V30 5819 N 557.244 -0.608902 -1.45362 0
M  V30 5820 C 558.66 -0.272659 -1.57254 0
M  V30 5821 C 558.86 1.22477 -1.60005 0
M  V30 5822 O 557.916 2.00785 -1.53106 0
M  V30 5823 C 559.229 -0.944991 -2.85465 0
M  V30 5824 C 560.777 -0.921033 -2.99142 0
M  V30 5825 C 561.252 -1.5734 -4.30126 0
M  V30 5826 N 562.743 -1.53895 -4.36887 0
M  V30 5827 C 563.478 -2.01286 -5.36909 0
M  V30 5828 N 562.974 -2.56768 -6.43461 0
M  V30 5829 N 564.767 -1.92046 -5.28275 0
M  V30 5830 H 556.918 -1.58117 -1.4182 0
M  V30 5831 H 559.181 -0.662437 -0.678146 0
M  V30 5832 H 558.887 -1.99941 -2.89338 0
M  V30 5833 H 558.761 -0.469079 -3.74272 0
M  V30 5834 H 561.148 0.124846 -2.94836 0
M  V30 5835 H 561.229 -1.43522 -2.11743 0
M  V30 5836 H 560.873 -2.61862 -4.35191 0
M  V30 5837 H 560.803 -1.03422 -5.16344 0
M  V30 5838 H 563.294 -1.13366 -3.60495 0
M  V30 5839 H 563.607 -2.9072 -7.16032 0
M  V30 5840 H 561.952 -2.60808 -6.44208 0
M  V30 5841 H 565.143 -1.48439 -4.43941 0
M  V30 5842 H 565.316 -2.29293 -6.06077 0
M  V30 5843 N 558.722 1.53707 -0.348139 0
M  V30 5844 C 559.97 2.00591 0.246478 0
M  V30 5845 C 560.291 1.23753 1.50699 0
M  V30 5846 O 559.561 0.345964 1.92821 0
M  V30 5847 H 558.141 0.741053 0.0940679 0
M  V30 5848 H 560.803 1.89139 -0.470354 0
M  V30 5849 H 559.899 3.08297 0.485714 0
M  V30 5850 N 560.2 0.0768682 1.57412 0
M  V30 5851 C 561.446 -0.585926 1.94778 0
M  V30 5852 C 561.801 -1.66912 0.956982 0
M  V30 5853 O 561.094 -1.9159 -0.0199454 0
M  V30 5854 C 561.288 -1.20268 3.36557 0
M  V30 5855 C 561.117 -0.18076 4.49337 0
M  V30 5856 C 559.887 0.236362 5.04747 0
M  V30 5857 C 562.085 0.583978 5.10974 0
M  V30 5858 N 560.067 1.24846 6.01071 0
M  V30 5859 C 561.438 1.44841 6.02844 0
M  V30 5860 C 563.493 0.639492 4.93776 0
M  V30 5861 C 562.196 2.36343 6.79363 0
M  V30 5862 C 564.222 1.54204 5.70942 0
M  V30 5863 C 563.584 2.39414 6.62465 0
M  V30 5864 H 559.683 -0.185281 0.759734 0
M  V30 5865 H 562.267 0.155193 1.9408 0
M  V30 5866 H 560.438 -1.9137 3.37982 0
M  V30 5867 H 562.17 -1.82636 3.61146 0
M  V30 5868 H 558.925 -0.14777 4.73369 0
M  V30 5869 H 559.349 1.75217 6.53933 0
M  V30 5870 H 563.991 -0.00510074 4.228 0
M  V30 5871 H 561.709 3.01836 7.49614 0
M  V30 5872 H 565.295 1.5899 5.59655 0
M  V30 5873 H 564.175 3.0812 7.21132 0
M  V30 5874 N 561.678 -1.56367 -0.196722 0
M  V30 5875 C 562.641 -1.93561 -1.22746 0
M  V30 5876 C 563.641 -0.816566 -1.38524 0
M  V30 5877 O 564.831 -1.084 -1.36363 0
M  V30 5878 C 561.963 -2.20823 -2.59712 0
M  V30 5879 H 563.156 -2.85774 -0.909586 0
M  V30 5880 H 560.709 -1.50032 -0.438174 0
M  V30 5881 H 561.444 -1.31243 -2.96557 0
M  V30 5882 H 561.229 -3.02368 -2.49632 0
M  V30 5883 H 562.719 -2.50608 -3.34044 0
M  V30 5884 N 563.156 0.464375 -1.50603 0
M  V30 5885 C 564.086 1.56944 -1.72889 0
M  V30 5886 C 565.067 1.59979 -0.577997 0
M  V30 5887 O 566.252 1.76138 -0.817855 0
M  V30 5888 C 563.382 2.95225 -1.8292 0
M  V30 5889 C 562.336 3.07056 -2.98162 0
M  V30 5890 C 561.662 4.47051 -2.93343 0
M  V30 5891 C 562.962 2.83648 -4.38567 0
M  V30 5892 H 564.656 1.38547 -2.65415 0
M  V30 5893 H 562.202 0.665082 -1.27721 0
M  V30 5894 H 564.155 3.72467 -1.97095 0
M  V30 5895 H 562.879 3.14793 -0.870209 0
M  V30 5896 H 561.538 2.32248 -2.83648 0
M  V30 5897 H 561.186 4.63547 -1.95276 0
M  V30 5898 H 560.886 4.55902 -3.70712 0
M  V30 5899 H 562.41 5.26304 -3.09575 0
M  V30 5900 H 563.824 3.50636 -4.53572 0
M  V30 5901 H 562.221 3.03937 -5.17438 0
M  V30 5902 H 563.291 1.79451 -4.50472 0
M  V30 5903 N 564.634 1.40294 0.718013 0
M  V30 5904 C 565.88 1.39648 1.47885 0
M  V30 5905 C 566.235 -0.0023879 1.924 0
M  V30 5906 O 565.528 -0.972304 1.65096 0
M  V30 5907 C 565.722 2.31814 2.72024 0
M  V30 5908 C 565.551 3.80523 2.3965 0
M  V30 5909 C 564.321 4.49351 2.3111 0
M  V30 5910 C 566.519 4.72077 2.04079 0
M  V30 5911 N 564.501 5.83305 1.91385 0
M  V30 5912 C 565.872 5.94809 1.74935 0
M  V30 5913 C 567.927 4.59935 1.90694 0
M  V30 5914 C 566.63 7.06755 1.33753 0
M  V30 5915 C 568.656 5.7182 1.50915 0
M  V30 5916 C 568.018 6.93637 1.22668 0
M  V30 5917 H 564.117 0.566263 0.539324 0
M  V30 5918 H 566.701 1.75986 0.832891 0
M  V30 5919 H 564.872 1.97607 3.34374 0
M  V30 5920 H 566.604 2.22042 3.38348 0
M  V30 5921 H 563.359 4.03002 2.4877 0
M  V30 5922 H 563.783 6.54239 1.74068 0
M  V30 5923 H 568.425 3.66274 2.11194 0
M  V30 5924 H 566.143 8.00302 1.11995 0
M  V30 5925 H 569.729 5.64421 1.4114 0
M  V30 5926 H 568.609 7.78743 0.923502 0
M  V30 5927 N 566.112 -0.949982 1.2575 0
M  V30 5928 C 567.044 -2.05088 1.02331 0
M  V30 5929 C 568.057 -1.62795 -0.0133247 0
M  V30 5930 O 569.246 -1.77067 0.225759 0
M  V30 5931 C 566.346 -3.34794 0.525924 0
M  V30 5932 C 565.519 -4.05903 1.62978 0
M  V30 5933 C 564.578 -5.1388 1.13196 0
M  V30 5934 O 563.604 -5.39072 1.82729 0
M  V30 5935 N 564.806 -5.80495 -0.0242926 0
M  V30 5936 H 567.571 -2.25747 1.97125 0
M  V30 5937 H 565.132 -1.11886 1.17018 0
M  V30 5938 H 567.124 -4.04312 0.177263 0
M  V30 5939 H 565.694 -3.10872 -0.328202 0
M  V30 5940 H 564.914 -3.3042 2.1498 0
M  V30 5941 H 566.202 -4.50166 2.37124 0
M  V30 5942 H 565.6 -5.62454 -0.605184 0
M  V30 5943 H 564.157 -6.51043 -0.313947 0
M  V30 5944 N 567.59 -1.07411 -1.15328 0
M  V30 5945 C 568.553 -0.698914 -2.18284 0
M  V30 5946 C 569.553 0.261149 -1.58665 0
M  V30 5947 O 570.743 0.0420277 -1.74149 0
M  V30 5948 C 567.875 -0.0302427 -3.40887 0
M  V30 5949 H 569.068 -1.61045 -2.52991 0
M  V30 5950 H 566.621 -0.870724 -1.298 0
M  V30 5951 H 567.356 0.893505 -3.11748 0
M  V30 5952 H 567.141 -0.720759 -3.85419 0
M  V30 5953 H 568.631 0.21759 -4.17033 0
M  V30 5954 N 569.068 1.32177 -0.85831 0
M  V30 5955 C 569.998 2.31282 -0.321041 0
M  V30 5956 C 570.979 1.59841 0.581786 0
M  V30 5957 O 572.164 1.87619 0.501262 0
M  V30 5958 C 569.294 3.4385 0.48832 0
M  V30 5959 C 568.248 4.26799 -0.320391 0
M  V30 5960 C 567.574 5.31164 0.613934 0
M  V30 5961 C 568.874 4.98829 -1.54813 0
M  V30 5962 H 570.568 2.76469 -1.14915 0
M  V30 5963 H 568.114 1.32916 -0.554028 0
M  V30 5964 H 570.067 4.12224 0.874626 0
M  V30 5965 H 568.791 2.97401 1.34983 0
M  V30 5966 H 567.45 3.60077 -0.688497 0
M  V30 5967 H 567.098 4.80967 1.47239 0
M  V30 5968 H 566.798 5.8755 0.0768097 0
M  V30 5969 H 568.322 6.024 0.997336 0
M  V30 5970 H 569.736 5.59864 -1.23392 0
M  V30 5971 H 568.133 5.64957 -2.02346 0
M  V30 5972 H 569.203 4.26483 -2.30739 0
M  V30 5973 N 570.547 0.616602 1.45037 0
M  V30 5974 C 571.477 -0.0840787 2.33349 0
M  V30 5975 C 572.458 -0.849641 1.4736 0
M  V30 5976 O 573.643 -0.818407 1.76113 0
M  V30 5977 C 570.773 -1.07604 3.3021 0
M  V30 5978 C 569.727 -0.423096 4.25904 0
M  V30 5979 C 569.053 -1.52394 5.12523 0
M  V30 5980 C 570.353 0.661457 5.18095 0
M  V30 5981 H 572.047 0.653333 2.92185 0
M  V30 5982 H 569.593 0.315634 1.40498 0
M  V30 5983 H 571.546 -1.57485 3.90866 0
M  V30 5984 H 570.27 -1.84416 2.69552 0
M  V30 5985 H 568.929 0.05493 3.66559 0
M  V30 5986 H 568.577 -2.28257 4.48227 0
M  V30 5987 H 568.277 -1.09251 5.77354 0
M  V30 5988 H 569.801 -2.02485 5.76049 0
M  V30 5989 H 571.215 0.246353 5.7277 0
M  V30 5990 H 569.612 1.01517 5.91451 0
M  V30 5991 H 570.682 1.53446 4.59981 0
M  V30 5992 N 572.025 -1.5352 0.356285 0
M  V30 5993 C 572.988 -2.24071 -0.482182 0
M  V30 5994 C 573.988 -1.24531 -1.01729 0
M  V30 5995 O 575.178 -1.48876 -0.904513 0
M  V30 5996 C 572.31 -2.97025 -1.67299 0
M  V30 5997 H 573.503 -2.99596 0.135031 0
M  V30 5998 H 571.056 -1.55928 0.107825 0
M  V30 5999 H 571.791 -2.25719 -2.32855 0
M  V30 6000 H 571.576 -3.7005 -1.29636 0
M  V30 6001 H 573.066 -3.50683 -2.26741 0
M  V30 6002 N 573.503 -0.0852151 -1.57369 0
M  V30 6003 C 574.433 0.874556 -2.16503 0
M  V30 6004 C 575.414 1.30111 -1.09568 0
M  V30 6005 O 576.599 1.36977 -1.37662 0
M  V30 6006 C 573.729 2.13731 -2.73745 0
M  V30 6007 C 572.683 1.84971 -3.85966 0
M  V30 6008 C 572.009 3.17991 -4.29867 0
M  V30 6009 C 573.309 1.14442 -5.09608 0
M  V30 6010 H 575.003 0.381899 -2.96954 0
M  V30 6011 H 572.549 0.18225 -1.42842 0
M  V30 6012 H 574.502 2.81302 -3.13763 0
M  V30 6013 H 573.226 2.65263 -1.90534 0
M  V30 6014 H 571.885 1.19801 -3.46473 0
M  V30 6015 H 571.533 3.6739 -3.4356 0
M  V30 6016 H 571.233 2.99534 -5.05523 0
M  V30 6017 H 572.757 3.86737 -4.72511 0
M  V30 6018 H 574.171 1.72105 -5.46857 0
M  V30 6019 H 572.568 1.06197 -5.90629 0
M  V30 6020 H 573.638 0.12559 -4.84737 0
M  V30 6021 N 574.981 1.5647 0.188427 0
M  V30 6022 C 575.911 1.98101 1.23606 0
M  V30 6023 C 576.892 0.853961 1.47111 0
M  V30 6024 O 578.077 1.11879 1.58735 0
M  V30 6025 C 575.207 2.32624 2.57882 0
M  V30 6026 C 574.161 3.48129 2.48978 0
M  V30 6027 C 573.487 3.68347 3.87588 0
M  V30 6028 C 574.787 4.82112 2.00911 0
M  V30 6029 H 576.481 2.85864 0.890068 0
M  V30 6030 H 574.027 1.37532 0.426714 0
M  V30 6031 H 575.98 2.60343 3.3136 0
M  V30 6032 H 574.704 1.41751 2.94235 0
M  V30 6033 H 573.363 3.20511 1.77956 0
M  V30 6034 H 573.011 2.74793 4.21305 0
M  V30 6035 H 572.711 4.46055 3.82503 0
M  V30 6036 H 574.235 3.98449 4.62678 0
M  V30 6037 H 575.649 5.08819 2.64151 0
M  V30 6038 H 574.046 5.63337 2.06814 0
M  V30 6039 H 575.116 4.75249 0.96262 0
M  V30 6040 N 576.459 -0.456382 1.50847 0
M  V30 6041 C 577.699 -1.21704 1.64218 0
M  V30 6042 C 578.063 -1.88932 0.341859 0
M  V30 6043 O 579.264 -2.66497 0.351137 0
M  V30 6044 C 577.535 -2.22162 2.79962 0
M  V30 6045 S 579.094 -3.0697 3.13552 0
M  V30 6046 H 575.912 -0.412995 0.578754 0
M  V30 6047 H 578.514 -0.511637 1.88686 0
M  V30 6048 H 577.218 -1.71379 3.72904 0
M  V30 6049 H 576.749 -2.9731 2.57624 0
M  V30 6050 H 578.764 -4.23539 2.58513 0
M  V30 6051 N 577.937 -1.40673 -0.710563 0
M  V30 6052 C 579.183 -1.4043 -1.47142 0
M  V30 6053 C 579.538 -0.00781557 -1.92398 0
M  V30 6054 O 578.831 0.963535 -1.6561 0
M  V30 6055 C 579.025 -2.33253 -2.70791 0
M  V30 6056 C 578.854 -3.81789 -2.37629 0
M  V30 6057 C 577.624 -4.5057 -2.28724 0
M  V30 6058 C 579.822 -4.73152 -2.01572 0
M  V30 6059 N 577.804 -5.84312 -1.88289 0
M  V30 6060 C 579.175 -5.95728 -1.71778 0
M  V30 6061 C 581.23 -4.6094 -1.88252 0
M  V30 6062 C 579.933 -7.07454 -1.30003 0
M  V30 6063 C 581.959 -5.72613 -1.47881 0
M  V30 6064 C 581.321 -6.94278 -1.18987 0
M  V30 6065 H 577.42 -0.569115 -0.536314 0
M  V30 6066 H 580.004 -1.76425 -0.823547 0
M  V30 6067 H 578.175 -1.99378 -3.33321 0
M  V30 6068 H 579.907 -2.23833 -3.37166 0
M  V30 6069 H 576.662 -4.04315 -2.46629 0
M  V30 6070 H 577.086 -6.55153 -1.70596 0
M  V30 6071 H 581.728 -3.67389 -2.09249 0
M  V30 6072 H 579.446 -8.00884 -1.07749 0
M  V30 6073 H 583.032 -5.65161 -1.38145 0
M  V30 6074 H 581.912 -7.79222 -0.88219 0
M  V30 6075 N 579.415 0.9433 -1.26252 0
M  V30 6076 C 580.345 2.05902 -1.10122 0
M  V30 6077 C 581.326 1.70099 -0.00700552 0
M  V30 6078 O 582.511 1.93377 -0.178641 0
M  V30 6079 C 579.641 3.39516 -0.731175 0
M  V30 6080 C 578.595 3.89372 -1.77688 0
M  V30 6081 C 577.921 5.19613 -1.26122 0
M  V30 6082 C 579.221 4.14489 -3.17799 0
M  V30 6083 H 580.915 2.19655 -2.03451 0
M  V30 6084 H 578.461 1.05548 -0.979576 0
M  V30 6085 H 580.414 4.17031 -0.605215 0
M  V30 6086 H 579.138 3.25733 0.23782 0
M  V30 6087 H 577.797 3.14036 -1.89148 0
M  V30 6088 H 577.445 5.02208 -0.282128 0
M  V30 6089 H 577.145 5.53939 -1.96023 0
M  V30 6090 H 578.669 5.99713 -1.14789 0
M  V30 6091 H 580.083 4.82625 -3.09428 0
M  V30 6092 H 578.48 4.60094 -3.85271 0
M  V30 6093 H 579.55 3.20347 -3.64014 0
M  V30 6094 N 580.893 1.08022 1.14757 0
M  V30 6095 C 582.139 0.818552 1.86202 0
M  V30 6096 C 582.494 -0.648563 1.81139 0
M  V30 6097 O 581.787 -1.4704 1.22841 0
M  V30 6098 C 581.981 1.26964 3.34088 0
M  V30 6099 C 581.81 2.77907 3.5355 0
M  V30 6100 C 580.58 3.45604 3.68627 0
M  V30 6101 C 582.778 3.7609 3.50801 0
M  V30 6102 N 580.76 4.85119 3.76209 0
M  V30 6103 C 582.131 5.0148 3.64579 0
M  V30 6104 C 584.186 3.6915 3.34115 0
M  V30 6105 C 582.889 6.20755 3.63395 0
M  V30 6106 C 584.915 4.87896 3.34233 0
M  V30 6107 C 584.277 6.12123 3.48547 0
M  V30 6108 H 580.376 0.352186 0.698204 0
M  V30 6109 H 582.96 1.37781 1.37567 0
M  V30 6110 H 581.131 0.738008 3.81324 0
M  V30 6111 H 582.863 0.954806 3.93275 0
M  V30 6112 H 579.618 2.96016 3.69691 0
M  V30 6113 H 580.042 5.57748 3.83726 0
M  V30 6114 H 584.684 2.74045 3.21961 0
M  V30 6115 H 582.402 7.16175 3.74326 0
M  V30 6116 H 585.988 4.8421 3.2254 0
M  V30 6117 H 584.868 7.02468 3.48581 0
M  V30 6118 N 582.371 -1.3172 0.865308 0
M  V30 6119 C 583.321 -2.26157 0.289305 0
M  V30 6120 C 584.305 -1.50428 -0.570977 0
M  V30 6121 O 585.497 -1.71978 -0.418617 0
M  V30 6122 C 582.626 -3.39457 -0.512237 0
M  V30 6123 C 581.712 -4.22561 0.361028 0
M  V30 6124 N 582.103 -4.84501 1.45231 0
M  V30 6125 C 580.401 -4.45739 0.152641 0
M  V30 6126 C 581.102 -5.46586 1.99043 0
M  V30 6127 N 580.078 -5.28119 1.28809 0
M  V30 6128 H 583.88 -2.71581 1.12344 0
M  V30 6129 H 581.394 -1.45932 0.712565 0
M  V30 6130 H 583.391 -4.06133 -0.941379 0
M  V30 6131 H 582.051 -2.95577 -1.34404 0
M  V30 6132 H 583.062 -4.84293 1.83524 0
M  V30 6133 H 579.739 -4.1251 -0.643583 0
M  V30 6134 H 581.129 -6.05817 2.90577 0
M  V30 6135 N 583.85 -0.624285 -1.44708 0
M  V30 6136 C 585.098 -0.125802 -2.01708 0
M  V30 6137 C 585.418 1.2543 -1.49306 0
M  V30 6138 O 584.689 1.83198 -0.693924 0
M  V30 6139 H 583.269 -0.0435161 -0.745731 0
M  V30 6140 H 585.931 -0.809446 -1.77296 0
M  V30 6141 H 585.027 -0.0882734 -3.11975 0
M  V30 6142 N 585.328 1.53329 -0.364422 0
M  V30 6143 C 586.258 2.28627 0.474543 0
M  V30 6144 C 587.239 1.31009 1.08492 0
M  V30 6145 O 588.424 1.59878 1.10239 0
M  V30 6146 C 585.554 3.07465 1.61501 0
M  V30 6147 C 584.508 4.1276 1.13194 0
M  V30 6148 C 583.834 4.79674 2.36255 0
M  V30 6149 C 585.134 5.21847 0.217507 0
M  V30 6150 H 586.828 2.99005 -0.153656 0
M  V30 6151 H 584.374 1.43803 -0.0753406 0
M  V30 6152 H 586.327 3.58889 2.20855 0
M  V30 6153 H 585.051 2.34775 2.27042 0
M  V30 6154 H 583.71 3.62281 0.56109 0
M  V30 6155 H 583.358 4.03557 3.00251 0
M  V30 6156 H 583.058 5.50827 2.04606 0
M  V30 6157 H 584.582 5.33892 2.96297 0
M  V30 6158 H 585.996 5.6878 0.718493 0
M  V30 6159 H 584.393 6.00099 -0.00806408 0
M  V30 6160 H 585.463 4.7921 -0.740653 0
M  V30 6161 N 586.806 0.0935595 1.57322 0
M  V30 6162 C 587.769 -0.851426 2.12799 0
M  V30 6163 C 588.769 -1.21187 1.0569 0
M  V30 6164 O 589.959 -1.14156 1.31583 0
M  V30 6165 C 587.091 -2.14779 2.64731 0
M  V30 6166 H 588.284 -0.369733 2.97612 0
M  V30 6167 H 585.837 -0.155417 1.55525 0
M  V30 6168 H 586.572 -2.67437 1.83434 0
M  V30 6169 H 586.357 -1.89907 3.43042 0
M  V30 6170 H 587.847 -2.82383 3.07651 0
M  V30 6171 N 588.284 -1.56567 -0.180126 0
M  V30 6172 C 589.234 -1.92132 -1.22756 0
M  V30 6173 C 590.218 -0.788639 -1.40247 0
M  V30 6174 O 591.41 -1.05171 -1.42366 0
M  V30 6175 C 588.539 -2.27719 -2.56902 0
M  V30 6176 C 587.625 -3.47481 -2.43142 0
M  V30 6177 N 588.016 -4.64973 -1.99082 0
M  V30 6178 C 586.314 -3.51914 -2.73994 0
M  V30 6179 C 587.015 -5.47119 -1.97574 0
M  V30 6180 N 585.991 -4.87925 -2.39645 0
M  V30 6181 H 589.793 -2.80464 -0.878478 0
M  V30 6182 H 587.307 -1.57686 -0.388463 0
M  V30 6183 H 589.304 -2.51389 -3.32579 0
M  V30 6184 H 587.964 -1.40722 -2.92621 0
M  V30 6185 H 588.975 -4.89358 -1.69557 0
M  V30 6186 H 585.652 -2.75372 -3.13809 0
M  V30 6187 H 587.042 -6.51254 -1.65282 0
M  V30 6188 N 589.762 0.448376 -1.51087 0
M  V30 6189 C 591.173 1.0286 -1.5581 0
M  V30 6190 C 591.524 1.92583 -0.374989 0
M  V30 6191 O 590.649 2.10316 0.509533 0
M  V30 6192 C 591.244 1.87223 -2.8237 0
M  V30 6193 C 589.803 2.40314 -2.897 0
M  V30 6194 C 588.95 1.19238 -2.50355 0
M  V30 6195 H 591.901 0.230075 -1.57023 0
M  V30 6196 H 591.922 2.72553 -2.6551 0
M  V30 6197 H 591.434 1.21894 -3.68461 0
M  V30 6198 H 589.535 3.09129 -2.08014 0
M  V30 6199 H 589.648 2.73866 -3.93108 0
M  V30 6200 H 588.012 1.53428 -2.03303 0
M  V30 6201 H 588.795 0.555367 -3.38778 0
M  V30 6202 N 591.24 1.41047 0.703093 0
M  V30 6203 C 592.203 1.42036 1.79884 0
M  V30 6204 C 593.203 0.312153 1.57741 0
M  V30 6205 O 594.393 0.571672 1.64553 0
M  V30 6206 C 591.525 1.22437 3.18154 0
M  V30 6207 H 592.718 2.39572 1.80403 0
M  V30 6208 H 590.271 1.27079 0.909977 0
M  V30 6209 H 591.006 0.257112 3.23279 0
M  V30 6210 H 590.791 2.02723 3.35627 0
M  V30 6211 H 592.281 1.25946 3.98155 0
M  V30 6212 N 592.718 -0.936591 1.26751 0
M  V30 6213 C 593.943 -1.72288 1.15462 0
M  V30 6214 C 594.368 -1.85915 -0.285887 0
M  V30 6215 O 593.726 -1.35272 -1.20711 0
M  V30 6216 C 593.774 -3.10503 1.83359 0
M  V30 6217 O 592.878 -3.96745 1.1255 0
M  V30 6218 H 592.219 -0.52843 0.402067 0
M  V30 6219 H 594.749 -1.17271 1.67656 0
M  V30 6220 H 594.759 -3.60867 1.90365 0
M  V30 6221 H 593.434 -2.99901 2.88153 0
M  V30 6222 H 592.011 -3.55191 1.13551 0
M  V30 6223 N 594.196 -1.08629 -1.14182 0
M  V30 6224 C 595.442 -0.828415 -1.85766 0
M  V30 6225 C 595.797 0.638947 -1.81481 0
M  V30 6226 O 595.09 1.46386 -1.23619 0
M  V30 6227 C 595.284 -1.28734 -3.3341 0
M  V30 6228 C 595.113 -2.79778 -3.52071 0
M  V30 6229 C 593.883 -3.47554 -3.66789 0
M  V30 6230 C 596.081 -3.77945 -3.48801 0
M  V30 6231 N 594.063 -4.87107 -3.73631 0
M  V30 6232 C 595.434 -5.03406 -3.61914 0
M  V30 6233 C 597.489 -3.70917 -3.32152 0
M  V30 6234 C 596.192 -6.22673 -3.60098 0
M  V30 6235 C 598.218 -4.89662 -3.31641 0
M  V30 6236 C 597.58 -6.13962 -3.45296 0
M  V30 6237 H 593.679 -0.355884 -0.696327 0
M  V30 6238 H 596.263 -1.38508 -1.36834 0
M  V30 6239 H 594.434 -0.75822 -3.80927 0
M  V30 6240 H 596.166 -0.975649 -3.92764 0
M  V30 6241 H 592.921 -2.97972 -3.68116 0
M  V30 6242 H 593.345 -5.59775 -3.80763 0
M  V30 6243 H 597.987 -2.75749 -3.20504 0
M  V30 6244 H 595.705 -7.1815 -3.70522 0
M  V30 6245 H 599.291 -4.85914 -3.19968 0
M  V30 6246 H 598.171 -7.04307 -3.44851 0
M  V30 6247 N 595.674 1.31259 -0.872281 0
M  V30 6248 C 596.604 2.30929 -0.345554 0
M  V30 6249 C 597.585 1.60449 0.5648 0
M  V30 6250 O 598.77 1.8814 0.481335 0
M  V30 6251 C 595.9 3.44348 0.451823 0
M  V30 6252 C 594.854 4.26435 -0.365641 0
M  V30 6253 C 594.18 5.31785 0.557562 0
M  V30 6254 C 595.48 4.97159 -1.60095 0
M  V30 6255 H 597.174 2.75234 -1.17841 0
M  V30 6256 H 594.72 1.3232 -0.568094 0
M  V30 6257 H 596.673 4.13128 0.830854 0
M  V30 6258 H 595.397 2.98816 1.31821 0
M  V30 6259 H 594.056 3.59326 -0.726649 0
M  V30 6260 H 593.704 4.82502 1.4213 0
M  V30 6261 H 593.404 5.87598 0.0144878 0
M  V30 6262 H 594.928 6.03424 0.933387 0
M  V30 6263 H 596.342 5.58523 -1.29323 0
M  V30 6264 H 594.739 5.62779 -2.08327 0
M  V30 6265 H 595.809 4.24012 -2.35249 0
M  V30 6266 N 597.152 0.631951 1.44375 0
M  V30 6267 C 598.084 -0.110911 2.28931 0
M  V30 6268 C 599.097 -0.808086 1.41329 0
M  V30 6269 O 600.286 -0.669396 1.65473 0
M  V30 6270 C 597.386 -1.17928 3.1772 0
M  V30 6271 C 596.559 -0.564458 4.33743 0
M  V30 6272 C 595.618 -1.5269 5.0356 0
M  V30 6273 O 594.644 -1.04372 5.59549 0
M  V30 6274 N 595.846 -2.86123 5.05088 0
M  V30 6275 H 598.611 0.614758 2.93327 0
M  V30 6276 H 596.172 0.473171 1.54831 0
M  V30 6277 H 598.164 -1.82348 3.61291 0
M  V30 6278 H 596.734 -1.80717 2.55069 0
M  V30 6279 H 595.954 0.258373 3.93352 0
M  V30 6280 H 597.242 -0.134355 5.08623 0
M  V30 6281 H 596.64 -3.27959 4.60933 0
M  V30 6282 H 595.197 -3.45901 5.52445 0
M  V30 6283 N 598.631 -1.53133 0.372548 0
M  V30 6284 C 600.042 -1.86404 -0.105155 0
M  V30 6285 C 600.393 -1.29289 -1.47576 0
M  V30 6286 O 599.518 -0.617646 -2.07398 0
M  V30 6287 C 600.113 -3.38223 -0.197588 0
M  V30 6288 C 598.672 -3.71266 -0.619556 0
M  V30 6289 C 597.819 -2.76353 0.228919 0
M  V30 6290 H 600.77 -1.47282 0.591077 0
M  V30 6291 H 600.791 -3.66577 -1.01987 0
M  V30 6292 H 600.303 -3.79763 0.800099 0
M  V30 6293 H 598.404 -3.35287 -1.62522 0
M  V30 6294 H 598.517 -4.77515 -0.389332 0
M  V30 6295 H 596.881 -2.52888 -0.303271 0
M  V30 6296 H 597.664 -3.20728 1.22428 0
M  V30 6297 N 600.109 -0.101901 -1.5727 0
M  V30 6298 C 601.039 0.851544 -2.17419 0
M  V30 6299 C 602.02 1.28942 -1.10941 0
M  V30 6300 O 603.205 1.35509 -1.39107 0
M  V30 6301 C 600.335 2.10816 -2.75996 0
M  V30 6302 C 599.289 1.80867 -3.87906 0
M  V30 6303 C 598.615 3.13413 -4.33216 0
M  V30 6304 C 599.915 1.0903 -5.10793 0
M  V30 6305 H 601.609 0.350381 -2.97343 0
M  V30 6306 H 599.155 0.16709 -1.43027 0
M  V30 6307 H 601.108 2.77959 -3.16729 0
M  V30 6308 H 599.832 2.63227 -1.93337 0
M  V30 6309 H 598.491 1.16119 -3.47724 0
M  V30 6310 H 598.139 3.63725 -3.47438 0
M  V30 6311 H 597.839 2.94155 -5.08671 0
M  V30 6312 H 599.363 3.81704 -4.76586 0
M  V30 6313 H 600.777 1.66295 -5.48652 0
M  V30 6314 H 599.174 0.99927 -5.91722 0
M  V30 6315 H 600.244 0.0741704 -4.84843 0
M  V30 6316 N 601.587 1.56661 0.17182 0
M  V30 6317 C 602.835 1.81606 0.886774 0
M  V30 6318 C 603.156 0.678818 1.82803 0
M  V30 6319 O 602.426 -0.301354 1.93568 0
M  V30 6320 H 601.006 0.669934 0.330451 0
M  V30 6321 H 603.668 1.94142 0.171757 0
M  V30 6322 H 602.764 2.75634 1.46398 0
M  V30 6323 N 603.065 -0.440357 1.51323 0
M  V30 6324 C 604.476 -1.02032 1.56353 0
M  V30 6325 C 604.827 -1.92382 0.385197 0
M  V30 6326 O 603.952 -2.10583 -0.498373 0
M  V30 6327 C 604.547 -1.85723 2.83359 0
M  V30 6328 C 603.106 -2.38774 2.90971 0
M  V30 6329 C 602.253 -1.17908 2.50984 0
M  V30 6330 H 605.204 -0.221744 1.57143 0
M  V30 6331 H 605.225 -2.71141 2.66951 0
M  V30 6332 H 604.737 -1.19939 3.69102 0
M  V30 6333 H 602.838 -3.08021 2.09651 0
M  V30 6334 H 602.951 -2.71778 3.94555 0
M  V30 6335 H 601.315 -1.52347 2.04114 0
M  V30 6336 H 602.098 -0.537393 3.39068 0
M  V30 6337 N 604.543 -1.41418 -0.695603 0
M  V30 6338 C 605.954 -1.36335 -1.27552 0
M  V30 6339 C 606.305 -0.0464336 -1.96145 0
M  V30 6340 O 605.43 0.855304 -1.9878 0
M  V30 6341 C 606.025 -2.46941 -2.3196 0
M  V30 6342 C 604.584 -2.45256 -2.85529 0
M  V30 6343 C 603.731 -2.2679 -1.59566 0
M  V30 6344 H 606.682 -1.50934 -0.490362 0
M  V30 6345 H 606.703 -2.15997 -3.1325 0
M  V30 6346 H 606.215 -3.42775 -1.82008 0
M  V30 6347 H 604.316 -1.53179 -3.39657 0
M  V30 6348 H 604.429 -3.41565 -3.35961 0
M  V30 6349 H 602.793 -1.74667 -1.85374 0
M  V30 6350 H 603.576 -3.24651 -1.1161 0
M  V30 6351 N 606.021 0.929856 -1.27246 0
M  V30 6352 C 606.984 2.01172 -1.09829 0
M  V30 6353 C 607.984 1.60743 -0.0429687 0
M  V30 6354 O 609.174 1.71813 -0.287373 0
M  V30 6355 C 606.306 3.34191 -0.673003 0
M  V30 6356 H 607.499 2.18054 -2.05895 0
M  V30 6357 H 605.052 1.11036 -1.10003 0
M  V30 6358 H 605.787 3.23009 0.289134 0
M  V30 6359 H 605.572 3.64892 -1.43515 0
M  V30 6360 H 607.062 4.13646 -0.573323 0
M  V30 6361 N 607.499 1.09233 1.13605 0
M  V30 6362 C 608.727 0.848908 1.88683 0
M  V30 6363 C 609.142 -0.599667 1.79024 0
M  V30 6364 O 608.499 -1.41265 1.15544 0
M  V30 6365 C 608.55 1.27273 3.38355 0
M  V30 6366 O 608.271 2.66449 3.47759 0
M  V30 6367 C 609.772 1.0614 4.30406 0
M  V30 6368 H 606.992 0.305549 0.597395 0
M  V30 6369 H 609.536 1.4538 1.43823 0
M  V30 6370 H 607.691 0.711776 3.80805 0
M  V30 6371 H 608.105 2.84264 4.40788 0
M  V30 6372 H 609.579 1.40725 5.33761 0
M  V30 6373 H 610.056 -0.000960332 4.392 0
M  V30 6374 H 610.662 1.60821 3.93722 0
M  V30 6375 N 608.977 -1.30795 0.87923 0
M  V30 6376 C 610.388 -1.78535 0.546093 0
M  V30 6377 C 610.739 -1.72354 -0.937467 0
M  V30 6378 O 609.864 -1.2969 -1.73233 0
M  V30 6379 C 610.459 -3.24181 0.9845 0
M  V30 6380 C 609.018 -3.69779 0.702871 0
M  V30 6381 C 608.165 -2.51377 1.17068 0
M  V30 6382 H 611.116 -1.17746 1.06403 0
M  V30 6383 H 611.137 -3.79227 0.311045 0
M  V30 6384 H 610.649 -3.28647 2.06429 0
M  V30 6385 H 608.75 -3.70806 -0.365166 0
M  V30 6386 H 608.863 -4.61507 1.28639 0
M  V30 6387 H 607.227 -2.47768 0.590172 0
M  V30 6388 H 608.01 -2.58584 2.25808 0
M  V30 6389 N 610.455 -0.639598 -1.44038 0
M  V30 6390 C 611.866 -0.228866 -1.85292 0
M  V30 6391 C 612.217 1.22161 -1.53529 0
M  V30 6392 O 611.342 1.93064 -0.977518 0
M  V30 6393 C 611.937 -0.408592 -3.36327 0
M  V30 6394 C 610.496 -0.0522953 -3.76364 0
M  V30 6395 C 609.643 -0.717959 -2.67844 0
M  V30 6396 H 612.594 -0.844194 -1.34384 0
M  V30 6397 H 612.615 0.349968 -3.78887 0
M  V30 6398 H 612.127 -1.46435 -3.59414 0
M  V30 6399 H 610.228 1.0014 -3.58891 0
M  V30 6400 H 610.341 -0.468261 -4.76806 0
M  V30 6401 H 608.705 -0.152459 -2.54243 0
M  V30 6402 H 609.488 -1.77648 -2.93762 0
M  V30 6403 N 611.933 1.52934 -0.380664 0
M  V30 6404 C 613.181 2.01069 0.203874 0
M  V30 6405 C 613.502 1.26922 1.4804 0
M  V30 6406 O 612.772 0.386787 1.92044 0
M  V30 6407 H 611.352 0.742882 0.0783279 0
M  V30 6408 H 614.014 1.88099 -0.510368 0
M  V30 6409 H 613.11 3.09258 0.42021 0
M  V30 6410 N 613.412 0.11024 1.57214 0
M  V30 6411 C 614.637 -0.561179 1.99664 0
M  V30 6412 C 615.062 -1.59985 0.989266 0
M  V30 6413 O 614.42 -1.81255 -0.0402399 0
M  V30 6414 C 614.468 -1.17189 3.41027 0
M  V30 6415 O 613.572 -2.28755 3.4314 0
M  V30 6416 H 612.913 -0.14101 0.648855 0
M  V30 6417 H 615.443 0.196128 2.03658 0
M  V30 6418 H 615.453 -1.50954 3.79047 0
M  V30 6419 H 614.128 -0.411041 4.13864 0
M  V30 6420 H 612.705 -1.96495 3.16929 0
M  V30 6421 N 614.89 -1.56749 -0.16351 0
M  V30 6422 C 616.301 -1.72039 -0.725216 0
M  V30 6423 C 616.652 -0.72202 -1.82432 0
M  V30 6424 O 615.777 0.114942 -2.16095 0
M  V30 6425 C 616.372 -3.11932 -1.32227 0
M  V30 6426 C 614.931 -3.28879 -1.83072 0
M  V30 6427 C 614.078 -2.67984 -0.712716 0
M  V30 6428 H 617.029 -1.58579 0.0619772 0
M  V30 6429 H 617.05 -3.11015 -2.19202 0
M  V30 6430 H 616.562 -3.84572 -0.522103 0
M  V30 6431 H 614.663 -2.61209 -2.65708 0
M  V30 6432 H 614.776 -4.36688 -1.97079 0
M  V30 6433 H 613.14 -2.28005 -1.13515 0
M  V30 6434 H 613.923 -3.43216 0.0757361 0
M  V30 6435 N 616.368 0.432326 -1.51554 0
M  V30 6436 C 617.779 1.01202 -1.56892 0
M  V30 6437 C 618.13 1.92175 -0.395394 0
M  V30 6438 O 617.255 2.10844 0.487198 0
M  V30 6439 C 617.85 1.84217 -2.8434 0
M  V30 6440 C 616.409 2.37228 -2.92233 0
M  V30 6441 C 615.556 1.16576 -2.51606 0
M  V30 6442 H 618.507 0.213407 -1.57259 0
M  V30 6443 H 618.528 2.69721 -2.68385 0
M  V30 6444 H 618.04 1.17979 -3.69733 0
M  V30 6445 H 616.141 3.06905 -2.11282 0
M  V30 6446 H 616.254 2.69682 -3.95991 0
M  V30 6447 H 614.618 1.51263 -2.04919 0
M  V30 6448 H 615.401 0.519404 -3.39348 0
M  V30 6449 N 617.846 1.41785 0.688094 0
M  V30 6450 C 619.086 1.43018 1.46032 0
M  V30 6451 C 619.45 0.0402632 1.91958 0
M  V30 6452 O 620.651 -0.0726425 2.68702 0
M  V30 6453 C 618.922 2.4151 2.63453 0
M  V30 6454 S 620.481 2.61335 3.5249 0
M  V30 6455 H 617.299 0.506546 0.498931 0
M  V30 6456 H 619.901 1.78283 0.80221 0
M  V30 6457 H 618.605 3.41286 2.27929 0
M  V30 6458 H 618.136 2.07624 3.34149 0
M  V30 6459 H 620.151 1.88637 4.58945 0
M  V30 6460 N 619.324 -0.923095 1.27737 0
M  V30 6461 C 620.549 -1.71054 1.17283 0
M  V30 6462 C 620.974 -1.86208 -0.266153 0
M  V30 6463 O 620.332 -1.36545 -1.1927 0
M  V30 6464 C 620.38 -3.0854 1.86642 0
M  V30 6465 O 619.484 -3.95528 1.16752 0
M  V30 6466 H 618.825 -0.524136 0.407649 0
M  V30 6467 H 621.355 -1.15487 1.6889 0
M  V30 6468 H 621.365 -3.58828 1.94182 0
M  V30 6469 H 620.04 -2.96828 2.91317 0
M  V30 6470 H 618.617 -3.53967 1.17312 0
M  V30 6471 N 620.802 -1.09834 -1.13024 0
M  V30 6472 C 621.732 -0.763451 -2.20666 0
M  V30 6473 C 622.713 0.260778 -1.68089 0
M  V30 6474 O 623.898 0.127915 -1.93778 0
M  V30 6475 C 621.028 -0.187744 -3.46792 0
M  V30 6476 C 619.982 -1.14196 -4.12484 0
M  V30 6477 C 619.308 -0.427755 -5.32986 0
M  V30 6478 C 620.608 -2.48607 -4.59338 0
M  V30 6479 H 622.302 -1.66347 -2.48936 0
M  V30 6480 H 619.848 -0.801261 -1.19649 0
M  V30 6481 H 621.801 0.0586375 -4.21359 0
M  V30 6482 H 620.525 0.747485 -3.17931 0
M  V30 6483 H 619.184 -1.37369 -3.3989 0
M  V30 6484 H 618.832 0.511747 -5.0039 0
M  V30 6485 H 618.532 -1.06403 -5.77886 0
M  V30 6486 H 620.056 -0.189772 -6.10305 0
M  V30 6487 H 621.47 -2.29618 -5.25308 0
M  V30 6488 H 619.867 -3.08062 -5.14993 0
M  V30 6489 H 620.937 -3.09062 -3.73642 0
M  V30 6490 N 622.28 1.30327 -0.886154 0
M  V30 6491 C 623.21 2.30549 -0.370028 0
M  V30 6492 C 624.191 1.61039 0.547751 0
M  V30 6493 O 625.376 1.8864 0.461353 0
M  V30 6494 C 622.506 3.44808 0.415275 0
M  V30 6495 C 621.46 4.26024 -0.41085 0
M  V30 6496 C 620.786 5.32347 0.501128 0
M  V30 6497 C 622.086 4.95433 -1.65359 0
M  V30 6498 H 623.78 2.73969 -1.20754 0
M  V30 6499 H 621.326 1.3171 -0.582097 0
M  V30 6500 H 623.279 4.13986 0.78699 0
M  V30 6501 H 622.003 3.00197 1.28644 0
M  V30 6502 H 620.662 3.58535 -0.764719 0
M  V30 6503 H 620.31 4.83982 1.37004 0
M  V30 6504 H 620.01 5.87581 -0.0478356 0
M  V30 6505 H 621.534 6.0438 0.869333 0
M  V30 6506 H 622.948 5.5712 -1.35239 0
M  V30 6507 H 621.345 5.60537 -2.14284 0
M  V30 6508 H 622.415 4.21493 -2.39733 0
M  V30 6509 N 623.758 0.647228 1.43697 0
M  V30 6510 C 624.688 -0.0345631 2.33474 0
M  V30 6511 C 625.669 -0.818193 1.4913 0
M  V30 6512 O 626.854 -0.780867 1.77809 0
M  V30 6513 C 623.984 -1.00576 3.32418 0
M  V30 6514 C 622.938 -0.33266 4.26705 0
M  V30 6515 C 622.264 -1.41489 5.1564 0
M  V30 6516 C 623.564 0.771204 5.16575 0
M  V30 6517 H 625.258 0.715163 2.90733 0
M  V30 6518 H 622.804 0.345364 1.39797 0
M  V30 6519 H 624.757 -1.49159 3.94119 0
M  V30 6520 H 623.481 -1.78657 2.73403 0
M  V30 6521 H 622.14 0.13267 3.6636 0
M  V30 6522 H 621.788 -2.18698 4.52968 0
M  V30 6523 H 621.488 -0.969799 5.79542 0
M  V30 6524 H 623.012 -1.9022 5.80214 0
M  V30 6525 H 624.426 0.36779 5.72119 0
M  V30 6526 H 622.823 1.1404 5.89165 0
M  V30 6527 H 623.893 1.63169 4.56622 0
M  V30 6528 N 625.236 -1.5273 0.388769 0
M  V30 6529 C 626.513 -1.93981 -0.251133 0
M  V30 6530 C 626.893 -1.32418 -1.64404 0
M  V30 6531 O 626.241 -0.492074 -2.23139 0
M  V30 6532 C 626.451 -3.47891 -0.27802 0
M  V30 6533 C 627.799 -4.21559 -0.507229 0
M  V30 6534 O 628.823 -3.54394 -0.358252 0
M  V30 6535 O 627.682 -5.40626 -0.799094 0
M  V30 6536 H 624.776 -0.812157 -0.15598 0
M  V30 6537 H 627.322 -1.63809 0.443237 0
M  V30 6538 H 626.094 -3.8503 0.697669 0
M  V30 6539 H 625.717 -3.84364 -1.01733 0
M  V30 6540 N 626.714 -0.118576 -1.57153 0
M  V30 6541 C 627.939 0.550582 -1.99958 0
M  V30 6542 C 628.364 1.59458 -0.997736 0
M  V30 6543 O 627.722 1.81274 0.0306269 0
M  V30 6544 C 627.77 1.15379 -3.41643 0
M  V30 6545 O 626.874 2.26932 -3.44348 0
M  V30 6546 H 626.215 0.137567 -0.649593 0
M  V30 6547 H 628.745 -0.206926 -2.03551 0
M  V30 6548 H 628.755 1.48942 -3.79843 0
M  V30 6549 H 627.43 0.389087 -4.14076 0
M  V30 6550 H 626.007 1.94812 -3.17967 0
M  V30 6551 N 628.193 1.56834 0.155195 0
M  V30 6552 C 629.418 1.87412 0.888337 0
M  V30 6553 C 629.843 0.70671 1.74319 0
M  V30 6554 O 629.201 -0.343892 1.78009 0
M  V30 6555 C 629.249 3.1652 1.72765 0
M  V30 6556 O 628.353 2.99877 2.83103 0
M  V30 6557 H 627.694 0.615983 0.247914 0
M  V30 6558 H 630.224 2.04061 0.148478 0
M  V30 6559 H 630.234 3.48334 2.12433 0
M  V30 6560 H 628.909 4.01094 1.09985 0
M  V30 6561 H 627.486 2.79453 2.46902 0
M  V30 6562 N 629.671 -0.424282 1.51781 0
M  V30 6563 C 630.601 -1.52305 1.7699 0
M  V30 6564 C 631.582 -1.5839 0.620209 0
M  V30 6565 O 632.767 -1.73908 0.864268 0
M  V30 6566 C 629.897 -2.90271 1.90683 0
M  V30 6567 C 628.851 -2.99043 3.06198 0
M  V30 6568 C 628.177 -4.39116 3.05092 0
M  V30 6569 C 629.477 -2.7192 4.45934 0
M  V30 6570 H 631.171 -1.31461 2.68995 0
M  V30 6571 H 628.717 -0.630985 1.29439 0
M  V30 6572 H 630.67 -3.6711 2.06901 0
M  V30 6573 H 629.394 -3.12376 0.953365 0
M  V30 6574 H 628.053 -2.24646 2.89706 0
M  V30 6575 H 627.701 -4.58207 2.07498 0
M  V30 6576 H 627.401 -4.45912 3.82669 0
M  V30 6577 H 628.925 -5.17911 3.2342 0
M  V30 6578 H 630.339 -3.38487 4.62709 0
M  V30 6579 H 628.736 -2.90111 5.25315 0
M  V30 6580 H 629.806 -1.67445 4.55072 0
M  V30 6581 N 631.149 -1.42148 -0.680565 0
M  V30 6582 C 632.374 -1.45901 -1.47403 0
M  V30 6583 C 632.799 -0.0700985 -1.87969 0
M  V30 6584 O 632.157 0.930145 -1.55621 0
M  V30 6585 C 632.205 -2.38661 -2.70321 0
M  V30 6586 O 631.309 -1.85399 -3.68376 0
M  V30 6587 H 630.65 -0.494565 -0.443059 0
M  V30 6588 H 633.18 -1.86774 -0.835251 0
M  V30 6589 H 633.19 -2.55046 -3.18458 0
M  V30 6590 H 631.865 -3.39571 -2.40134 0
M  V30 6591 H 630.442 -1.78541 -3.2738 0
M  V30 6592 N 632.627 0.916307 -1.28225 0
M  V30 6593 C 633.852 1.7043 -1.18188 0
M  V30 6594 C 634.277 1.86346 0.256274 0
M  V30 6595 O 633.635 1.37175 1.18544 0
M  V30 6596 C 633.683 3.07546 -1.88275 0
M  V30 6597 O 632.787 3.94904 -1.18848 0
M  V30 6598 H 632.128 0.521967 -0.410423 0
M  V30 6599 H 634.658 1.14589 -1.69501 0
M  V30 6600 H 634.668 3.57793 -1.96082 0
M  V30 6601 H 633.343 2.95279 -2.92887 0
M  V30 6602 H 631.92 3.53339 -1.19187 0
M  V30 6603 N 634.105 1.10431 1.1244 0
M  V30 6604 C 635.053 0.747974 2.20246 0
M  V30 6605 C 636.047 -0.255848 1.67457 0
M  V30 6606 O 637.253 -0.116221 1.79624 0
M  V30 6607 H 633.628 0.223946 0.71788 0
M  V30 6608 H 635.599 1.6661 2.47556 0
M  V30 6609 C 634.348 0.195957 3.47147 0
M  V30 6610 H 633.671 0.959606 3.88113 0
M  V30 6611 H 635.111 -0.0153154 4.23997 0
M  V30 6612 C 633.57 -1.07132 3.19413 0
M  V30 6613 O 634.1 -2.15284 3.3914 0
M  V30 6614 N 632.306 -0.98994 2.73219 0
M  V30 6615 H 631.853 -0.109736 2.57366 0
M  V30 6616 H 631.811 -1.83856 2.55038 0
M  V30 6617 N 635.583 -1.29855 0.893053 0
M  V30 6618 C 636.829 -1.96488 0.52574 0
M  V30 6619 C 637.184 -1.69164 -0.916594 0
M  V30 6620 O 636.477 -0.990405 -1.64017 0
M  V30 6621 C 636.671 -3.49515 0.746588 0
M  V30 6622 C 636.5 -3.91715 2.20884 0
M  V30 6623 C 635.27 -4.16915 2.85499 0
M  V30 6624 C 637.468 -4.03934 3.18342 0
M  V30 6625 N 635.45 -4.45634 4.22236 0
M  V30 6626 C 636.821 -4.36629 4.40176 0
M  V30 6627 C 638.876 -3.86387 3.14021 0
M  V30 6628 C 637.579 -4.53605 5.58243 0
M  V30 6629 C 639.605 -4.04569 4.31367 0
M  V30 6630 C 638.967 -4.37617 5.5197 0
M  V30 6631 H 635.066 -0.743657 0.241863 0
M  V30 6632 H 637.65 -1.56927 1.15248 0
M  V30 6633 H 635.821 -3.88113 0.149281 0
M  V30 6634 H 637.553 -4.03224 0.345372 0
M  V30 6635 H 634.308 -4.10423 2.36326 0
M  V30 6636 H 634.732 -4.64114 4.92876 0
M  V30 6637 H 639.374 -3.59906 2.21873 0
M  V30 6638 H 637.092 -4.78925 6.50889 0
M  V30 6639 H 640.678 -3.92452 4.29503 0
M  V30 6640 H 639.558 -4.51395 6.41258 0
M  V30 6641 N 637.061 -0.65484 -1.43351 0
M  V30 6642 C 638.338 -0.0987371 -1.95351 0
M  V30 6643 C 638.718 1.38161 -1.59608 0
M  V30 6644 O 638.066 2.10791 -0.882021 0
M  V30 6645 C 638.276 -0.346684 -3.47274 0
M  V30 6646 C 639.624 -0.25249 -4.23849 0
M  V30 6647 O 640.648 -0.279332 -3.55103 0
M  V30 6648 O 639.507 -0.177584 -5.46211 0
M  V30 6649 H 636.601 0.0086829 -0.826954 0
M  V30 6650 H 639.147 -0.728189 -1.53282 0
M  V30 6651 H 637.919 -1.37296 -3.66423 0
M  V30 6652 H 637.542 0.315757 -3.96344 0
M  V30 6653 N 638.539 1.52521 -0.396863 0
M  V30 6654 C 639.816 1.94112 0.240842 0
M  V30 6655 C 640.196 1.33288 1.637 0
M  V30 6656 O 639.544 0.503901 2.22875 0
M  V30 6657 C 639.754 3.48033 0.259567 0
M  V30 6658 C 641.102 4.21822 0.484866 0
M  V30 6659 O 642.126 3.54579 0.339453 0
M  V30 6660 O 640.985 5.41042 0.770412 0
M  V30 6661 H 638.079 0.812973 0.151671 0
M  V30 6662 H 640.625 1.63572 -0.451918 0
M  V30 6663 H 639.397 3.84655 -0.718078 0
M  V30 6664 H 639.02 3.84899 0.996937 0
M  V30 6665 N 640.017 0.126909 1.57088 0
M  V30 6666 C 641.294 -0.573152 1.87014 0
M  V30 6667 C 641.674 -1.84297 1.02945 0
M  V30 6668 O 641.022 -2.28232 0.110573 0
M  V30 6669 C 641.232 -0.857984 3.38289 0
M  V30 6670 C 642.58 -1.20759 4.07066 0
M  V30 6671 O 643.604 -0.947992 3.43353 0
M  V30 6672 O 642.463 -1.69516 5.19545 0
M  V30 6673 H 639.557 -0.290082 0.774456 0
M  V30 6674 H 642.103 0.162008 1.68925 0
M  V30 6675 H 640.875 0.0415286 3.91278 0
M  V30 6676 H 640.498 -1.64803 3.61837 0
M  V30 6677 N 641.495 -1.56914 -0.146875 0
M  V30 6678 C 642.72 -1.87881 -0.878386 0
M  V30 6679 C 643.145 -0.715945 -1.73942 0
M  V30 6680 O 642.503 0.334447 -1.78189 0
M  V30 6681 C 642.551 -3.17431 -1.71084 0
M  V30 6682 O 641.655 -3.01374 -2.81509 0
M  V30 6683 H 640.996 -0.617289 -0.244644 0
M  V30 6684 H 643.526 -2.04136 -0.137654 0
M  V30 6685 H 643.536 -3.49455 -2.10582 0
M  V30 6686 H 642.211 -4.01671 -1.07856 0
M  V30 6687 H 640.788 -2.80758 -2.45416 0
M  V30 6688 N 642.974 0.416227 -1.52004 0
M  V30 6689 C 643.904 1.51365 -1.77795 0
M  V30 6690 C 644.885 1.58059 -0.628601 0
M  V30 6691 O 646.07 1.73447 -0.873478 0
M  V30 6692 C 643.2 2.89256 -1.92219 0
M  V30 6693 C 642.154 2.97415 -3.0778 0
M  V30 6694 C 641.48 4.37492 -3.07417 0
M  V30 6695 C 642.78 2.69551 -4.47369 0
M  V30 6696 H 644.474 1.30033 -2.69688 0
M  V30 6697 H 642.02 0.624112 -1.29772 0
M  V30 6698 H 643.973 3.66008 -2.08845 0
M  V30 6699 H 642.697 3.11866 -0.969917 0
M  V30 6700 H 641.356 2.23107 -2.90893 0
M  V30 6701 H 641.004 4.571 -2.09925 0
M  V30 6702 H 640.704 4.43877 -3.85029 0
M  V30 6703 H 642.228 5.16188 -3.26162 0
M  V30 6704 H 643.642 3.36028 -4.64497 0
M  V30 6705 H 642.039 2.87321 -5.26846 0
M  V30 6706 H 643.109 1.65029 -4.55953 0
M  V30 6707 N 644.452 1.42507 0.673017 0
M  V30 6708 C 645.7 1.42789 1.43023 0
M  V30 6709 C 646.021 0.0459738 1.94946 0
M  V30 6710 O 645.291 -0.915765 1.73178 0
M  V30 6711 H 643.871 0.525657 0.530748 0
M  V30 6712 H 646.533 1.77944 0.795113 0
M  V30 6713 H 645.629 2.12872 2.28237 0
M  V30 6714 N 645.93 -0.909495 1.28709 0
M  V30 6715 C 647.341 -1.47419 1.14563 0
M  V30 6716 C 647.692 -1.94432 -0.262832 0
M  V30 6717 O 646.817 -1.82842 -1.15748 0
M  V30 6718 C 647.412 -2.67933 2.07358 0
M  V30 6719 C 645.971 -3.20568 1.97264 0
M  V30 6720 C 645.118 -1.93269 1.98852 0
M  V30 6721 H 648.069 -0.721787 1.41336 0
M  V30 6722 H 648.09 -3.43339 1.64007 0
M  V30 6723 H 647.602 -2.33685 3.09859 0
M  V30 6724 H 645.703 -3.59531 0.978157 0
M  V30 6725 H 645.816 -3.85529 2.84436 0
M  V30 6726 H 644.18 -2.10553 1.43317 0
M  V30 6727 H 644.963 -1.61312 3.0304 0
M  V30 6728 N 647.408 -1.11026 -1.11852 0
M  V30 6729 C 648.633 -0.879064 -1.87849 0
M  V30 6730 C 649.058 0.565406 -1.79401 0
M  V30 6731 O 648.416 1.39886 -1.15333 0
M  V30 6732 C 648.464 -1.33985 -3.34784 0
M  V30 6733 O 647.568 -0.508803 -4.09249 0
M  V30 6734 H 646.909 -0.316992 -0.583448 0
M  V30 6735 H 649.439 -1.47863 -1.41413 0
M  V30 6736 H 649.449 -1.33248 -3.85628 0
M  V30 6737 H 648.124 -2.39172 -3.40249 0
M  V30 6738 H 646.701 -0.581913 -3.68332 0
M  V30 6739 N 648.886 1.2938 -0.899927 0
M  V30 6740 C 649.816 2.30144 -0.39446 0
M  V30 6741 C 650.797 1.61611 0.530639 0
M  V30 6742 O 651.982 1.89119 0.441319 0
M  V30 6743 C 649.112 3.45229 0.37868 0
M  V30 6744 C 648.066 4.25564 -0.456012 0
M  V30 6745 C 647.392 5.32848 0.444637 0
M  V30 6746 C 648.692 4.93651 -1.70605 0
M  V30 6747 H 650.386 2.72673 -1.23653 0
M  V30 6748 H 647.932 1.31086 -0.596034 0
M  V30 6749 H 649.885 4.14797 0.743037 0
M  V30 6750 H 648.609 3.01545 1.25453 0
M  V30 6751 H 647.268 3.57704 -0.802704 0
M  V30 6752 H 646.916 4.85408 1.31863 0
M  V30 6753 H 646.616 5.87497 -0.110154 0
M  V30 6754 H 648.14 6.05268 0.805182 0
M  V30 6755 H 649.554 5.55655 -1.41141 0
M  V30 6756 H 647.951 5.58233 -2.20217 0
M  V30 6757 H 649.021 4.18926 -2.4419 0
M  V30 6758 N 650.364 0.662433 1.43002 0
M  V30 6759 C 651.589 0.186003 2.06564 0
M  V30 6760 C 652.014 -1.14314 1.49379 0
M  V30 6761 O 651.372 -1.70824 0.607346 0
M  V30 6762 C 651.42 0.118269 3.60406 0
M  V30 6763 O 650.524 -0.916859 4.02079 0
M  V30 6764 H 649.865 0.0990981 0.656563 0
M  V30 6765 H 652.395 0.907958 1.8335 0
M  V30 6766 H 652.405 -0.0619981 4.07953 0
M  V30 6767 H 651.08 1.08849 4.01403 0
M  V30 6768 H 649.657 -0.708635 3.66105 0
M  V30 6769 N 651.842 -1.52309 0.404946 0
M  V30 6770 C 653.253 -1.86585 -0.0655926 0
M  V30 6771 C 653.604 -1.3239 -1.44801 0
M  V30 6772 O 652.729 -0.6615 -2.06042 0
M  V30 6773 C 653.324 -3.38566 -0.125801 0
M  V30 6774 C 651.883 -3.72497 -0.540666 0
M  V30 6775 C 651.03 -2.75806 0.287487 0
M  V30 6776 H 653.981 -1.45995 0.622185 0
M  V30 6777 H 654.002 -3.68658 -0.941888 0
M  V30 6778 H 653.514 -3.77981 0.880473 0
M  V30 6779 H 651.615 -3.38659 -1.55373 0
M  V30 6780 H 651.728 -4.78234 -0.287956 0
M  V30 6781 H 650.092 -2.53474 -0.249561 0
M  V30 6782 H 650.875 -3.18059 1.29203 0
M  V30 6783 N 653.32 -0.135238 -1.57019 0
M  V30 6784 C 654.23 0.822226 -2.19719 0
M  V30 6785 C 655.246 1.28057 -1.17802 0
M  V30 6786 O 656.422 1.3402 -1.50335 0
M  V30 6787 C 653.487 2.0484 -2.79717 0
M  V30 6788 C 652.548 1.64042 -3.96723 0
M  V30 6789 C 651.781 2.80814 -4.53849 0
M  V30 6790 O 652.004 3.967 -4.0986 0
M  V30 6791 O 650.938 2.56963 -5.44292 0
M  V30 6792 H 654.764 0.318552 -3.02025 0
M  V30 6793 H 652.349 0.0912021 -1.49121 0
M  V30 6794 H 654.231 2.76622 -3.17897 0
M  V30 6795 H 652.906 2.54182 -2.00432 0
M  V30 6796 H 651.813 0.893182 -3.63281 0
M  V30 6797 H 653.146 1.19426 -4.77492 0
M  V30 6798 N 654.798 1.5699 0.138552 0
M  V30 6799 C 655.761 1.97984 1.15478 0
M  V30 6800 C 656.761 0.867416 1.35398 0
M  V30 6801 O 657.951 1.13387 1.32246 0
M  V30 6802 C 655.083 2.3031 2.51337 0
M  V30 6803 H 656.276 2.88953 0.802896 0
M  V30 6804 H 653.829 1.51555 0.382189 0
M  V30 6805 H 654.564 1.42159 2.91481 0
M  V30 6806 H 654.349 3.11425 2.38237 0
M  V30 6807 H 655.839 2.62834 3.24512 0
M  V30 6808 N 656.276 -0.40816 1.52223 0
M  V30 6809 C 657.522 -1.15673 1.66576 0
M  V30 6810 C 657.855 -1.90141 0.394996 0
M  V30 6811 O 657.13 -1.84798 -0.606613 0
M  V30 6812 C 657.413 -2.15042 2.88841 0
M  V30 6813 C 657.266 -1.44465 4.25969 0
M  V30 6814 C 658.585 -3.15699 3.0663 0
M  V30 6815 H 655.704 -0.41916 0.606196 0
M  V30 6816 H 658.346 -0.442348 1.84779 0
M  V30 6817 H 656.496 -2.75964 2.73452 0
M  V30 6818 H 658.168 -0.866544 4.53088 0
M  V30 6819 H 656.411 -0.746612 4.27327 0
M  V30 6820 H 657.082 -2.16976 5.07568 0
M  V30 6821 H 659.558 -2.64854 3.20923 0
M  V30 6822 H 658.434 -3.82491 3.9369 0
M  V30 6823 H 658.695 -3.83481 2.19987 0
M  V30 6824 N 657.755 -1.42862 -0.66545 0
M  V30 6825 C 658.685 -1.49867 -1.79059 0
M  V30 6826 C 659.666 -0.354394 -1.66367 0
M  V30 6827 O 660.851 -0.569969 -1.85647 0
M  V30 6828 C 657.981 -1.40943 -3.17415 0
M  V30 6829 C 656.935 -2.53495 -3.44854 0
M  V30 6830 C 656.261 -2.29626 -4.82883 0
M  V30 6831 C 657.561 -3.95781 -3.40815 0
M  V30 6832 H 659.255 -2.44037 -1.73453 0
M  V30 6833 H 656.801 -1.17456 -0.833071 0
M  V30 6834 H 658.754 -1.4445 -3.95869 0
M  V30 6835 H 657.478 -0.432716 -3.23721 0
M  V30 6836 H 656.137 -2.4932 -2.68766 0
M  V30 6837 H 655.785 -1.30226 -4.8585 0
M  V30 6838 H 655.485 -3.05065 -5.02204 0
M  V30 6839 H 657.009 -2.34897 -5.63609 0
M  V30 6840 H 658.423 -4.01508 -4.09224 0
M  V30 6841 H 656.82 -4.71148 -3.71672 0
M  V30 6842 H 657.89 -4.21786 -2.39216 0
M  V30 6843 N 659.233 0.902656 -1.29189 0
M  V30 6844 C 660.196 1.98797 -1.14071 0
M  V30 6845 C 661.196 1.60615 -0.0770549 0
M  V30 6846 O 662.386 1.71165 -0.323753 0
M  V30 6847 C 659.518 3.32688 -0.743739 0
M  V30 6848 H 660.711 2.13637 -2.10473 0
M  V30 6849 H 658.264 1.08678 -1.12334 0
M  V30 6850 H 658.999 3.23549 0.220554 0
M  V30 6851 H 658.784 3.61765 -1.51223 0
M  V30 6852 H 660.274 4.12337 -0.660935 0
M  V30 6853 N 660.711 1.11618 1.11262 0
M  V30 6854 C 662.127 0.850468 1.35053 0
M  V30 6855 C 662.327 -0.523868 1.94571 0
M  V30 6856 O 661.383 -1.2743 2.17986 0
M  V30 6857 C 662.696 1.96005 2.28041 0
M  V30 6858 C 664.244 1.98993 2.416 0
M  V30 6859 C 664.719 3.0916 3.37911 0
M  V30 6860 N 666.21 3.08547 3.45475 0
M  V30 6861 C 666.945 3.9043 4.19943 0
M  V30 6862 N 666.441 4.8228 4.97371 0
M  V30 6863 N 668.234 3.786 4.15474 0
M  V30 6864 H 660.385 2.00184 0.709932 0
M  V30 6865 H 662.648 0.870635 0.375099 0
M  V30 6866 H 662.354 2.9499 1.91503 0
M  V30 6867 H 662.228 1.85782 3.28275 0
M  V30 6868 H 664.615 1.00633 2.77411 0
M  V30 6869 H 664.696 2.13292 1.4121 0
M  V30 6870 H 664.34 4.07748 3.02827 0
M  V30 6871 H 664.27 2.92102 4.3816 0
M  V30 6872 H 666.761 2.42 2.90249 0
M  V30 6873 H 667.074 5.41289 5.51567 0
M  V30 6874 H 665.419 4.863 4.96525 0
M  V30 6875 H 668.61 3.06185 3.54074 0
M  V30 6876 H 668.783 4.42647 4.73253 0
M  V30 6877 N 662.189 -1.289 0.906776 0
M  V30 6878 C 663.417 -1.99401 0.551969 0
M  V30 6879 C 663.832 -1.67816 -0.865048 0
M  V30 6880 O 663.189 -0.927078 -1.57199 0
M  V30 6881 C 663.24 -3.53779 0.743152 0
M  V30 6882 O 662.961 -3.84248 2.1044 0
M  V30 6883 C 664.462 -4.41543 0.39424 0
M  V30 6884 H 661.682 -0.636926 0.211106 0
M  V30 6885 H 664.226 -1.64266 1.21807 0
M  V30 6886 H 662.381 -3.87201 0.124143 0
M  V30 6887 H 662.795 -4.78904 2.13895 0
M  V30 6888 H 664.269 -5.48957 0.578814 0
M  V30 6889 H 664.746 -4.34073 -0.669137 0
M  V30 6890 H 665.352 -4.13605 0.990491 0
M  V30 6891 N 663.667 -0.670007 -1.42649 0
M  V30 6892 C 664.913 -0.190568 -2.01903 0
M  V30 6893 C 665.246 1.19817 -1.52832 0
M  V30 6894 O 664.521 1.80342 -0.728485 0
M  V30 6895 C 664.804 -0.21991 -3.59428 0
M  V30 6896 C 664.657 -1.64376 -4.18689 0
M  V30 6897 C 665.976 0.434519 -4.3795 0
M  V30 6898 H 663.095 -0.0707219 -0.733599 0
M  V30 6899 H 665.737 -0.853883 -1.69732 0
M  V30 6900 H 663.887 0.344894 -3.86966 0
M  V30 6901 H 665.559 -2.26044 -4.02122 0
M  V30 6902 H 663.802 -2.18591 -3.747 0
M  V30 6903 H 664.473 -1.61601 -5.27815 0
M  V30 6904 H 666.949 -0.0462156 -4.16074 0
M  V30 6905 H 665.825 0.38333 -5.4756 0
M  V30 6906 H 666.086 1.51135 -4.15464 0
M  V30 6907 N 665.145 1.52092 -0.413018 0
M  V30 6908 C 666.393 2.01456 0.161178 0
M  V30 6909 C 666.714 1.30034 1.45314 0
M  V30 6910 O 665.984 0.427435 1.9118 0
M  V30 6911 H 664.564 0.744376 0.0625526 0
M  V30 6912 H 667.226 1.86974 -0.550151 0
M  V30 6913 H 666.322 3.1008 0.354517 0
M  V30 6914 N 666.623 0.143563 1.56945 0
M  V30 6915 C 667.848 -0.518701 2.00809 0
M  V30 6916 C 668.273 -1.5785 1.02298 0
M  V30 6917 O 667.631 -1.813 -0.0017839 0
M  V30 6918 C 667.679 -1.09929 3.43436 0
M  V30 6919 O 666.783 -2.21425 3.47915 0
M  V30 6920 H 666.124 -0.127215 0.6517 0
M  V30 6921 H 668.654 0.239283 2.03196 0
M  V30 6922 H 668.664 -1.4288 3.82164 0
M  V30 6923 H 667.339 -0.323162 4.14643 0
M  V30 6924 H 665.916 -1.89728 3.21026 0
M  V30 6925 N 668.101 -1.57061 -0.130224 0
M  V30 6926 C 669.329 -1.88432 -0.854456 0
M  V30 6927 C 669.744 -0.733608 -1.73964 0
M  V30 6928 O 669.101 0.296029 -1.80083 0
M  V30 6929 C 669.152 -3.1918 -1.69724 0
M  V30 6930 O 668.873 -4.2982 -0.847705 0
M  V30 6931 C 670.374 -3.6418 -2.5276 0
M  V30 6932 H 667.594 -0.624193 -0.246221 0
M  V30 6933 H 670.138 -2.04159 -0.11798 0
M  V30 6934 H 668.293 -3.05156 -2.3866 0
M  V30 6935 H 668.707 -5.04689 -1.42792 0
M  V30 6936 H 670.181 -4.58457 -3.07443 0
M  V30 6937 H 670.658 -2.90285 -3.29592 0
M  V30 6938 H 671.264 -3.80954 -1.89087 0
M  V30 6939 N 669.579 0.400081 -1.52437 0
M  V30 6940 C 670.804 1.17221 -1.71096 0
M  V30 6941 C 671.229 1.83269 -0.423565 0
M  V30 6942 O 670.587 1.70378 0.619751 0
M  V30 6943 C 670.635 2.20425 -2.85386 0
M  V30 6944 O 669.739 3.26769 -2.51586 0
M  V30 6945 H 669.08 0.341766 -0.569291 0
M  V30 6946 H 671.61 0.467772 -1.99181 0
M  V30 6947 H 671.62 2.64605 -3.10561 0
M  V30 6948 H 670.295 1.71737 -3.78786 0
M  V30 6949 H 668.872 2.87804 -2.37114 0
M  V30 6950 N 671.057 1.43213 0.657864 0
M  V30 6951 C 672.285 1.48015 1.44566 0
M  V30 6952 C 672.7 0.0965951 1.88553 0
M  V30 6953 O 672.057 -0.892221 1.59203 0
M  V30 6954 C 672.108 2.42199 2.68369 0
M  V30 6955 O 671.829 3.75173 2.26223 0
M  V30 6956 C 673.33 2.56195 3.61772 0
M  V30 6957 H 670.55 0.502861 0.444266 0
M  V30 6958 H 673.094 1.87907 0.806917 0
M  V30 6959 H 671.249 2.05514 3.28394 0
M  V30 6960 H 671.663 4.25776 3.06293 0
M  V30 6961 H 673.137 3.26182 4.4532 0
M  V30 6962 H 673.614 1.60534 4.0881 0
M  V30 6963 H 674.22 2.93671 3.07632 0
M  V30 6964 N 672.536 -0.895792 1.29666 0
M  V30 6965 C 673.947 -1.46195 1.1612 0
M  V30 6966 C 674.298 -1.94699 -0.242195 0
M  V30 6967 O 673.423 -1.8406 -1.13802 0
M  V30 6968 C 674.018 -2.65718 2.10189 0
M  V30 6969 C 672.577 -3.18458 2.00653 0
M  V30 6970 C 671.724 -1.91149 2.00891 0
M  V30 6971 H 674.675 -0.706756 1.42094 0
M  V30 6972 H 674.696 -3.4158 1.6764 0
M  V30 6973 H 674.208 -2.30386 3.12321 0
M  V30 6974 H 672.309 -3.58474 1.01623 0
M  V30 6975 H 672.422 -3.82491 2.88509 0
M  V30 6976 H 670.786 -2.09021 1.45542 0
M  V30 6977 H 671.569 -1.58089 3.04734 0
M  V30 6978 N 674.014 -1.12206 -1.10668 0
M  V30 6979 C 675.43 -0.857619 -1.346 0
M  V30 6980 C 675.63 0.513542 -1.94846 0
M  V30 6981 O 674.686 1.26273 -2.18658 0
M  V30 6982 C 675.999 -1.97212 -2.26998 0
M  V30 6983 C 677.547 -2.00272 -2.40542 0
M  V30 6984 C 678.022 -3.10948 -3.36267 0
M  V30 6985 N 679.513 -3.10375 -3.43834 0
M  V30 6986 C 680.248 -3.92651 -4.17867 0
M  V30 6987 N 679.744 -4.84911 -4.94807 0
M  V30 6988 N 681.537 -3.80798 -4.1346 0
M  V30 6989 H 673.688 -2.00558 -0.699306 0
M  V30 6990 H 675.951 -0.872612 -0.370477 0
M  V30 6991 H 675.657 -2.96002 -1.89936 0
M  V30 6992 H 675.531 -1.87521 -3.27286 0
M  V30 6993 H 677.918 -1.02103 -2.76874 0
M  V30 6994 H 677.999 -2.14037 -1.40077 0
M  V30 6995 H 677.643 -4.09348 -3.00661 0
M  V30 6996 H 677.573 -2.94421 -4.36605 0
M  V30 6997 H 680.064 -2.43536 -2.88961 0
M  V30 6998 H 680.377 -5.44207 -5.48688 0
M  V30 6999 H 678.722 -4.88926 -4.93939 0
M  V30 7000 H 681.913 -3.08058 -3.52445 0
M  V30 7001 H 682.086 -4.4515 -4.70898 0
M  V30 7002 N 675.492 1.28418 -0.913599 0
M  V30 7003 C 676.717 1.99643 -0.561899 0
M  V30 7004 C 677.142 1.67819 0.849608 0
M  V30 7005 O 676.5 0.910503 1.56779 0
M  V30 7006 C 676.548 3.52116 -0.777622 0
M  V30 7007 O 675.652 4.12076 0.163457 0
M  V30 7008 H 674.993 0.627229 -0.217898 0
M  V30 7009 H 677.523 1.63575 -1.229 0
M  V30 7010 H 677.533 4.02163 -0.687666 0
M  V30 7011 H 676.208 3.74613 -1.8066 0
M  V30 7012 H 674.785 3.72892 0.0247827 0
M  V30 7013 N 676.97 0.677563 1.42291 0
M  V30 7014 C 678.386 0.347376 1.55774 0
M  V30 7015 C 678.586 -1.14703 1.65667 0
M  V30 7016 O 677.642 -1.93252 1.62512 0
M  V30 7017 C 678.955 1.08011 2.80631 0
M  V30 7018 C 680.503 1.06271 2.94407 0
M  V30 7019 C 680.978 1.77683 4.22129 0
M  V30 7020 N 682.469 1.74564 4.29047 0
M  V30 7021 C 683.204 2.26673 5.26694 0
M  V30 7022 N 682.7 2.87176 6.30477 0
M  V30 7023 N 684.493 2.17032 5.18511 0
M  V30 7024 H 676.644 1.64703 1.34114 0
M  V30 7025 H 678.907 0.694038 0.645768 0
M  V30 7026 H 678.613 2.13518 2.79469 0
M  V30 7027 H 678.487 0.647115 3.71608 0
M  V30 7028 H 680.874 0.0159658 2.95096 0
M  V30 7029 H 680.955 1.53461 2.04654 0
M  V30 7030 H 680.599 2.82327 4.22201 0
M  V30 7031 H 680.529 1.2794 5.10822 0
M  V30 7032 H 683.02 1.30436 3.54676 0
M  V30 7033 H 683.333 3.24551 7.01346 0
M  V30 7034 H 681.678 2.91247 6.31031 0
M  V30 7035 H 684.869 1.69451 4.36353 0
M  V30 7036 H 685.042 2.57948 5.94446 0
M  V30 7037 N 678.448 -1.51871 0.421078 0
M  V30 7038 C 679.688 -2.03848 -0.150167 0
M  V30 7039 C 680.052 -1.29925 -1.41363 0
M  V30 7040 O 681.253 -1.7219 -2.06408 0
M  V30 7041 C 679.524 -3.55374 -0.38003 0
M  V30 7042 S 681.083 -4.29111 -0.917011 0
M  V30 7043 H 677.901 -0.709904 -0.0394639 0
M  V30 7044 H 680.503 -1.86799 0.576746 0
M  V30 7045 H 679.207 -4.0675 0.546122 0
M  V30 7046 H 678.738 -3.76687 -1.13448 0
M  V30 7047 H 680.753 -4.44944 -2.19635 0
M  V30 7048 N 679.926 -0.151884 -1.56866 0
M  V30 7049 C 681.154 0.504813 -2.00647 0
M  V30 7050 C 681.569 1.58098 -1.03201 0
M  V30 7051 O 680.926 1.82476 -0.0297814 0
M  V30 7052 C 680.977 1.10099 -3.44326 0
M  V30 7053 O 680.698 0.0678021 -4.38048 0
M  V30 7054 C 682.199 1.83782 -4.03409 0
M  V30 7055 H 679.419 0.130989 -0.65809 0
M  V30 7056 H 681.963 -0.247903 -2.02992 0
M  V30 7057 H 680.118 1.8043 -3.42817 0
M  V30 7058 H 680.532 0.505237 -5.22061 0
M  V30 7059 H 682.006 2.2078 -5.05925 0
M  V30 7060 H 682.483 2.72557 -3.44397 0
M  V30 7061 H 683.089 1.18138 -4.08563 0
M  V30 7062 N 681.404 1.57128 0.121893 0
M  V30 7063 C 682.815 1.73902 0.679348 0
M  V30 7064 C 683.166 0.770135 1.80453 0
M  V30 7065 O 682.291 -0.0576083 2.16323 0
M  V30 7066 C 682.886 3.15328 1.2391 0
M  V30 7067 C 681.445 3.33618 1.74288 0
M  V30 7068 C 680.592 2.6978 0.641414 0
M  V30 7069 H 683.543 1.58359 -0.104 0
M  V30 7070 H 683.564 3.16718 2.10879 0
M  V30 7071 H 683.076 3.85821 0.419957 0
M  V30 7072 H 681.177 2.68162 2.58689 0
M  V30 7073 H 681.29 4.4176 1.85432 0
M  V30 7074 H 679.654 2.30935 1.0743 0
M  V30 7075 H 680.437 3.42895 -0.166707 0
M  V30 7076 N 682.882 -0.391992 1.52647 0
M  V30 7077 C 684.298 -0.731848 1.41831 0
M  V30 7078 C 684.498 -1.9423 0.536361 0
M  V30 7079 O 683.554 -2.52499 0.00866571 0
M  V30 7080 C 684.867 -0.969743 2.84634 0
M  V30 7081 C 686.415 -1.0714 2.94092 0
M  V30 7082 C 686.89 -1.34195 4.37899 0
M  V30 7083 N 688.381 -1.41023 4.41211 0
M  V30 7084 C 689.116 -1.63616 5.49561 0
M  V30 7085 N 688.612 -1.83699 6.68002 0
M  V30 7086 N 690.405 -1.65771 5.371 0
M  V30 7087 H 682.556 0.404547 2.08512 0
M  V30 7088 H 684.819 0.11879 0.940528 0
M  V30 7089 H 684.525 -0.152465 3.51369 0
M  V30 7090 H 684.399 -1.88523 3.26709 0
M  V30 7091 H 686.786 -1.87925 2.27526 0
M  V30 7092 H 686.867 -0.133887 2.55449 0
M  V30 7093 H 686.511 -0.539207 5.0503 0
M  V30 7094 H 686.441 -2.29226 4.74092 0
M  V30 7095 H 688.932 -1.27223 3.55841 0
M  V30 7096 H 689.245 -2.00437 7.46354 0
M  V30 7097 H 687.59 -1.8093 6.71036 0
M  V30 7098 H 690.781 -1.4963 4.43541 0
M  V30 7099 H 690.954 -1.83038 6.21612 0
M  V30 7100 N 684.36 -1.4356 -0.65026 0
M  V30 7101 C 685.637 -1.35811 -1.40765 0
M  V30 7102 C 686.017 -0.00736379 -2.11099 0
M  V30 7103 O 685.365 1.00932 -2.05 0
M  V30 7104 C 685.575 -2.54332 -2.3899 0
M  V30 7105 C 686.923 -2.97551 -3.02901 0
M  V30 7106 O 687.947 -2.544 -2.49317 0
M  V30 7107 O 686.806 -3.72311 -4.00059 0
M  V30 7108 H 683.9 -0.536861 -0.629054 0
M  V30 7109 H 686.446 -1.55615 -0.676919 0
M  V30 7110 H 685.218 -3.44274 -1.85986 0
M  V30 7111 H 684.841 -2.36643 -3.19509 0
M  V30 7112 N 685.838 0.888903 -1.30139 0
M  V30 7113 C 686.801 1.97576 -1.16174 0
M  V30 7114 C 687.801 1.60525 -0.094086 0
M  V30 7115 O 688.991 1.70812 -0.341889 0
M  V30 7116 C 686.123 3.3188 -0.778983 0
M  V30 7117 H 687.316 2.11393 -2.12728 0
M  V30 7118 H 684.869 1.0748 -1.1348 0
M  V30 7119 H 685.604 3.23765 0.186225 0
M  V30 7120 H 685.389 3.60141 -1.55051 0
M  V30 7121 H 686.879 4.11612 -0.704631 0
M  V30 7122 N 687.317 1.12792 1.10072 0
M  V30 7123 C 688.247 0.821688 2.18565 0
M  V30 7124 C 689.228 -0.21612 1.68721 0
M  V30 7125 O 690.413 -0.0764932 1.94049 0
M  V30 7126 C 687.543 0.279624 3.46172 0
M  V30 7127 C 686.497 1.25092 4.09312 0
M  V30 7128 C 685.823 0.568916 5.31665 0
M  V30 7129 C 687.123 2.60699 4.52585 0
M  V30 7130 H 688.817 1.72888 2.44438 0
M  V30 7131 H 686.363 0.832702 1.17482 0
M  V30 7132 H 688.316 0.053099 4.21367 0
M  V30 7133 H 687.04 -0.662929 3.19801 0
M  V30 7134 H 685.699 1.46332 3.36129 0
M  V30 7135 H 685.347 -0.378898 5.01571 0
M  V30 7136 H 685.047 1.21687 5.74862 0
M  V30 7137 H 686.571 0.351517 6.09587 0
M  V30 7138 H 687.985 2.43465 5.19035 0
M  V30 7139 H 686.382 3.21608 5.06644 0
M  V30 7140 H 687.452 3.1886 3.65317 0
M  V30 7141 N 688.795 -1.27931 0.920396 0
M  V30 7142 C 690.072 -1.89728 0.475687 0
M  V30 7143 C 690.452 -1.8337 -1.04588 0
M  V30 7144 O 689.8 -1.27404 -1.89685 0
M  V30 7145 C 690.01 -3.33959 1.01354 0
M  V30 7146 C 691.358 -4.10907 1.06963 0
M  V30 7147 O 692.382 -3.42945 0.962646 0
M  V30 7148 O 691.241 -5.32399 1.23343 0
M  V30 7149 H 688.335 -0.81294 0.151845 0
M  V30 7150 H 690.881 -1.36252 1.01161 0
M  V30 7151 H 689.653 -3.32843 2.05746 0
M  V30 7152 H 689.276 -3.94944 0.458829 0
M  V30 7153 N 690.273 -0.685099 -1.4193 0
M  V30 7154 C 691.203 -0.0273506 -2.33484 0
M  V30 7155 C 692.184 0.778366 -1.51246 0
M  V30 7156 O 693.369 0.733449 -1.79817 0
M  V30 7157 C 690.499 0.917272 -3.34968 0
M  V30 7158 C 689.453 0.21941 -4.27437 0
M  V30 7159 C 688.779 1.27768 -5.1921 0
M  V30 7160 C 690.079 -0.907894 -5.14349 0
M  V30 7161 H 691.773 -0.791994 -2.88735 0
M  V30 7162 H 689.319 -0.382308 -1.38832 0
M  V30 7163 H 691.272 1.38657 -3.97935 0
M  V30 7164 H 689.996 1.71346 -2.78043 0
M  V30 7165 H 688.655 -0.229757 -3.65879 0
M  V30 7166 H 688.303 2.06612 -4.58607 0
M  V30 7167 H 688.003 0.815803 -5.81909 0
M  V30 7168 H 689.527 1.7477 -5.85054 0
M  V30 7169 H 690.941 -0.519348 -5.70943 0
M  V30 7170 H 689.338 -1.2962 -5.85934 0
M  V30 7171 H 690.408 -1.75218 -4.52136 0
M  V30 7172 N 691.751 1.51645 -0.429126 0
M  V30 7173 C 692.976 2.06917 0.141399 0
M  V30 7174 C 693.401 1.29527 1.36398 0
M  V30 7175 O 692.759 0.33094 1.78254 0
M  V30 7176 C 692.807 3.57776 0.4504 0
M  V30 7177 O 691.911 3.82639 1.53821 0
M  V30 7178 H 691.252 0.663978 0.0054647 0
M  V30 7179 H 693.782 1.95355 -0.608093 0
M  V30 7180 H 693.792 4.01894 0.703249 0
M  V30 7181 H 692.467 4.13532 -0.443213 0
M  V30 7182 H 691.044 3.5039 1.27597 0
M  V30 7183 N 693.229 0.160201 1.56784 0
M  V30 7184 C 694.506 -0.533355 1.88188 0
M  V30 7185 C 694.886 -1.82072 1.06831 0
M  V30 7186 O 694.234 -2.27946 0.158959 0
M  V30 7187 C 694.444 -0.786034 3.40033 0
M  V30 7188 C 695.792 -1.12097 4.09536 0
M  V30 7189 O 696.816 -0.874949 3.45287 0
M  V30 7190 O 695.675 -1.58457 5.23023 0
M  V30 7191 H 692.769 -0.273589 0.780434 0
M  V30 7192 H 695.315 0.197803 1.68543 0
M  V30 7193 H 694.087 0.124515 3.91102 0
M  V30 7194 H 693.71 -1.57091 3.65251 0
M  V30 7195 N 694.707 -1.5719 -0.113559 0
M  V30 7196 C 695.956 -1.84325 -0.818984 0
M  V30 7197 C 696.269 -0.746685 -1.80787 0
M  V30 7198 O 697.475 -0.904596 -2.55987 0
M  V30 7199 C 695.931 -3.26818 -1.50724 0
M  V30 7200 C 695.539 -4.44498 -0.559065 0
M  V30 7201 C 697.283 -3.63196 -2.19748 0
M  V30 7202 C 695.19 -5.7802 -1.25086 0
M  V30 7203 H 694.12 -0.687507 -0.309596 0
M  V30 7204 H 696.771 -1.8336 -0.0717621 0
M  V30 7205 H 695.153 -3.22269 -2.30128 0
M  V30 7206 H 696.327 -4.60356 0.202146 0
M  V30 7207 H 694.642 -4.16393 0.024495 0
M  V30 7208 H 697.239 -4.60226 -2.72206 0
M  V30 7209 H 697.582 -2.90899 -2.97798 0
M  V30 7210 H 698.115 -3.69553 -1.47226 0
M  V30 7211 H 694.854 -6.53501 -0.511539 0
M  V30 7212 H 694.374 -5.66038 -1.98395 0
M  V30 7213 H 696.053 -6.2196 -1.78253 0
M  V30 7214 N 696.185 0.383891 -1.52853 0
M  V30 7215 C 697.133 1.48965 -1.7864 0
M  V30 7216 C 698.127 1.56242 -0.654577 0
M  V30 7217 O 699.333 1.59347 -0.83716 0
M  V30 7218 H 695.708 0.495892 -0.565328 0
M  V30 7219 H 697.679 1.24411 -2.71228 0
M  V30 7220 C 696.428 2.86036 -1.97683 0
M  V30 7221 H 695.751 2.81188 -2.84206 0
M  V30 7222 H 697.191 3.62632 -2.19713 0
M  V30 7223 C 695.65 3.28428 -0.750776 0
M  V30 7224 O 696.18 4.0164 0.0693491 0
M  V30 7225 N 694.386 2.84765 -0.579427 0
M  V30 7226 H 693.933 2.25353 -1.24795 0
M  V30 7227 H 693.891 3.13486 0.239544 0
M  V30 7228 N 697.663 1.43903 0.642637 0
M  V30 7229 C 698.888 1.49758 1.43483 0
M  V30 7230 C 699.313 0.119911 1.87717 0
M  V30 7231 O 698.671 -0.888558 1.58033 0
M  V30 7232 C 698.719 2.45744 2.63898 0
M  V30 7233 O 697.823 1.95101 3.63331 0
M  V30 7234 H 697.164 0.506138 0.429791 0
M  V30 7235 H 699.694 1.88923 0.785438 0
M  V30 7236 H 699.704 2.63399 3.11584 0
M  V30 7237 H 698.379 3.45818 2.31046 0
M  V30 7238 H 696.956 1.87158 3.22531 0
M  V30 7239 N 699.141 -0.881989 1.30609 0
M  V30 7240 C 700.051 -2.02076 1.19174 0
M  V30 7241 C 701.067 -1.73645 0.11102 0
M  V30 7242 O 702.243 -1.98735 0.326528 0
M  V30 7243 C 699.308 -3.3515 0.887438 0
M  V30 7244 C 698.369 -3.76983 2.05383 0
M  V30 7245 C 697.602 -5.03707 1.76395 0
M  V30 7246 O 697.825 -5.66171 0.693302 0
M  V30 7247 O 696.759 -5.42019 2.61723 0
M  V30 7248 H 700.585 -2.14652 2.14845 0
M  V30 7249 H 698.17 -1.00843 1.10232 0
M  V30 7250 H 700.052 -4.14975 0.73306 0
M  V30 7251 H 698.727 -3.23676 -0.0393354 0
M  V30 7252 H 697.634 -2.97849 2.26355 0
M  V30 7253 H 698.967 -3.93066 2.96243 0
M  V30 7254 N 700.619 -1.13374 -1.09472 0
M  V30 7255 C 702.03 -0.90801 -1.63132 0
M  V30 7256 C 702.381 0.555576 -1.8817 0
M  V30 7257 O 701.506 1.42218 -1.63104 0
M  V30 7258 C 702.101 -1.64182 -2.96361 0
M  V30 7259 C 700.66 -1.46197 -3.46848 0
M  V30 7260 C 699.807 -1.67134 -2.21273 0
M  V30 7261 H 702.758 -1.2871 -0.928411 0
M  V30 7262 H 702.779 -1.09863 -3.64294 0
M  V30 7263 H 702.291 -2.707 -2.78106 0
M  V30 7264 H 700.392 -0.419788 -3.70228 0
M  V30 7265 H 700.505 -2.22472 -4.24315 0
M  V30 7266 H 698.869 -1.09616 -2.29905 0
M  V30 7267 H 699.652 -2.74971 -2.05538 0
M  V30 7268 N 702.098 1.27442 -0.927168 0
M  V30 7269 C 703.509 1.76385 -0.611979 0
M  V30 7270 C 703.86 1.75715 0.872853 0
M  V30 7271 O 702.985 1.3603 1.683 0
M  V30 7272 C 703.58 3.20303 -1.10414 0
M  V30 7273 C 702.139 3.66916 -0.839628 0
M  V30 7274 C 701.286 2.46859 -1.26317 0
M  V30 7275 H 704.237 1.13716 -1.107 0
M  V30 7276 H 704.258 3.77811 -0.451578 0
M  V30 7277 H 703.77 3.20759 -2.18484 0
M  V30 7278 H 701.871 3.71906 0.227292 0
M  V30 7279 H 701.984 4.56415 -1.45679 0
M  V30 7280 H 700.348 2.45407 -0.681723 0
M  V30 7281 H 701.131 2.50025 -2.3525 0
M  V30 7282 N 703.576 0.692616 1.41565 0
M  V30 7283 C 704.992 0.363878 1.55397 0
M  V30 7284 C 705.192 -1.1294 1.66874 0
M  V30 7285 O 704.248 -1.91517 1.64552 0
M  V30 7286 C 705.561 1.10982 2.7947 0
M  V30 7287 C 707.109 1.09387 2.93263 0
M  V30 7288 C 707.584 1.8215 4.20221 0
M  V30 7289 N 709.075 1.79105 4.27172 0
M  V30 7290 C 709.81 2.32247 5.2426 0
M  V30 7291 N 709.306 2.93847 6.27396 0
M  V30 7292 N 711.099 2.22519 5.1618 0
M  V30 7293 H 703.25 1.66116 1.3236 0
M  V30 7294 H 705.513 0.700848 0.63837 0
M  V30 7295 H 705.219 2.1647 2.77188 0
M  V30 7296 H 705.093 0.686492 3.709 0
M  V30 7297 H 707.48 0.0472638 2.95062 0
M  V30 7298 H 707.561 1.55623 2.03015 0
M  V30 7299 H 707.205 2.86789 4.19183 0
M  V30 7300 H 707.135 1.33351 5.09436 0
M  V30 7301 H 709.626 1.34191 3.53272 0
M  V30 7302 H 709.939 3.31972 6.97864 0
M  V30 7303 H 708.284 2.97924 6.27906 0
M  V30 7304 H 711.475 1.7407 4.34531 0
M  V30 7305 H 711.648 2.64239 5.91677 0
M  V30 7306 N 705.054 -1.51416 0.437162 0
M  V30 7307 C 706.302 -2.01687 -0.129108 0
M  V30 7308 C 706.623 -1.32329 -1.43227 0
M  V30 7309 O 705.893 -0.457796 -1.90476 0
M  V30 7310 H 704.473 -0.745277 -0.0507023 0
M  V30 7311 H 707.135 -1.86075 0.579828 0
M  V30 7312 H 706.231 -3.10605 -0.305141 0
M  V30 7313 N 706.532 -0.168513 -1.56696 0
M  V30 7314 C 707.757 0.486688 -2.01609 0
M  V30 7315 C 708.182 1.56203 -1.04796 0
M  V30 7316 O 707.54 1.8128 -0.0270596 0
M  V30 7317 C 707.588 1.04451 -3.45141 0
M  V30 7318 O 706.692 2.15862 -3.51393 0
M  V30 7319 H 706.033 0.116831 -0.653641 0
M  V30 7320 H 708.563 -0.271579 -2.0279 0
M  V30 7321 H 708.573 1.36782 -3.84389 0
M  V30 7322 H 707.248 0.257155 -4.15104 0
M  V30 7323 H 705.825 1.84597 -3.24004 0
M  V30 7324 N 708.01 1.57248 0.105221 0
M  V30 7325 C 709.257 1.8557 0.810552 0
M  V30 7326 C 709.585 0.755595 1.79223 0
M  V30 7327 O 708.84 -0.251788 1.94073 0
M  V30 7328 C 709.139 3.20437 1.58287 0
M  V30 7329 C 708.805 4.44716 0.744235 0
M  V30 7330 C 707.467 4.78458 0.513013 0
M  V30 7331 C 709.819 5.20953 0.160578 0
M  V30 7332 C 707.147 5.8587 -0.311894 0
M  V30 7333 C 709.499 6.29235 -0.651596 0
M  V30 7334 C 708.163 6.615 -0.893005 0
M  V30 7335 H 707.433 0.67905 0.296602 0
M  V30 7336 H 710.08 1.91363 0.0723968 0
M  V30 7337 H 708.385 3.10283 2.39232 0
M  V30 7338 H 710.082 3.39576 2.13282 0
M  V30 7339 H 706.672 4.18287 0.934555 0
M  V30 7340 H 710.856 4.95226 0.3264 0
M  V30 7341 H 706.112 6.09286 -0.508012 0
M  V30 7342 H 710.286 6.87484 -1.11077 0
M  V30 7343 H 707.913 7.44562 -1.53401 0
M  V30 7344 N 709.488 -0.375779 1.53054 0
M  V30 7345 C 710.899 -0.95309 1.6054 0
M  V30 7346 C 711.25 -1.90575 0.466446 0
M  V30 7347 O 710.375 -2.12507 -0.408609 0
M  V30 7348 C 710.97 -1.73537 2.90982 0
M  V30 7349 C 709.529 -2.26218 3.00836 0
M  V30 7350 C 708.676 -1.07157 2.55759 0
M  V30 7351 H 711.627 -0.154895 1.57942 0
M  V30 7352 H 711.648 -2.59574 2.78211 0
M  V30 7353 H 711.16 -1.04176 3.73857 0
M  V30 7354 H 709.261 -2.98852 2.22527 0
M  V30 7355 H 709.374 -2.54799 4.05727 0
M  V30 7356 H 707.738 -1.43553 2.10391 0
M  V30 7357 H 708.521 -0.393099 3.41042 0
M  V30 7358 N 710.966 -1.44241 -0.634997 0
M  V30 7359 C 712.191 -1.50516 -1.42687 0
M  V30 7360 C 712.616 -0.129864 -1.87651 0
M  V30 7361 O 711.974 0.880164 -1.58502 0
M  V30 7362 C 712.022 -2.4714 -2.62591 0
M  V30 7363 O 711.126 -1.97025 -3.62291 0
M  V30 7364 H 710.467 -0.50841 -0.427101 0
M  V30 7365 H 712.997 -1.89337 -0.775408 0
M  V30 7366 H 713.007 -2.65048 -3.10183 0
M  V30 7367 H 711.682 -3.47039 -2.29209 0
M  V30 7368 H 710.259 -1.88866 -3.21534 0
M  V30 7369 N 712.444 0.87505 -1.31075 0
M  V30 7370 C 713.691 1.62768 -1.20469 0
M  V30 7371 C 714.019 1.93034 0.23834 0
M  V30 7372 O 713.274 1.55693 1.18567 0
M  V30 7373 C 713.573 2.96948 -1.98888 0
M  V30 7374 C 713.239 2.86195 -3.4843 0
M  V30 7375 C 711.901 2.82969 -3.89207 0
M  V30 7376 C 714.253 2.73599 -4.43614 0
M  V30 7377 C 711.581 2.64999 -5.23443 0
M  V30 7378 C 713.933 2.57166 -5.77969 0
M  V30 7379 C 712.597 2.52321 -6.17973 0
M  V30 7380 H 711.867 0.595611 -0.440827 0
M  V30 7381 H 714.514 1.01665 -1.62285 0
M  V30 7382 H 712.819 3.62058 -1.49737 0
M  V30 7383 H 714.516 3.54164 -1.88067 0
M  V30 7384 H 711.106 2.8952 -3.16032 0
M  V30 7385 H 715.29 2.7515 -4.13045 0
M  V30 7386 H 710.546 2.5967 -5.53517 0
M  V30 7387 H 714.72 2.46396 -6.51354 0
M  V30 7388 H 712.347 2.38156 -7.21932 0
M  V30 7389 N 713.922 1.13953 1.08869 0
M  V30 7390 C 714.832 0.835666 2.19212 0
M  V30 7391 C 715.848 -0.182005 1.73045 0
M  V30 7392 O 717.024 -0.0116661 2.01397 0
M  V30 7393 C 714.089 0.312325 3.4529 0
M  V30 7394 C 713.15 1.39196 4.06107 0
M  V30 7395 C 712.383 0.893496 5.26168 0
M  V30 7396 O 712.606 -0.266807 5.69776 0
M  V30 7397 O 711.54 1.67037 5.78258 0
M  V30 7398 H 715.366 1.75769 2.47667 0
M  V30 7399 H 712.951 0.917421 1.17914 0
M  V30 7400 H 714.833 0.0261582 4.21392 0
M  V30 7401 H 713.508 -0.582042 3.18424 0
M  V30 7402 H 712.415 1.73152 3.31616 0
M  V30 7403 H 713.748 2.26068 4.37212 0
M  V30 7404 N 715.4 -1.26948 0.933913 0
M  V30 7405 C 716.811 -1.76058 0.621324 0
M  V30 7406 C 717.162 -1.76175 -0.863522 0
M  V30 7407 O 716.287 -1.36921 -1.67576 0
M  V30 7408 C 716.882 -3.19713 1.12111 0
M  V30 7409 C 715.441 -3.66465 0.859074 0
M  V30 7410 C 714.588 -2.46186 1.27624 0
M  V30 7411 H 717.539 -1.13127 1.11301 0
M  V30 7412 H 717.56 -3.77566 0.471608 0
M  V30 7413 H 717.072 -3.19596 2.20182 0
M  V30 7414 H 715.173 -3.72021 -0.207566 0
M  V30 7415 H 715.286 -4.55636 1.48098 0
M  V30 7416 H 713.65 -2.45042 0.694727 0
M  V30 7417 H 714.433 -2.48774 2.36572 0
M  V30 7418 N 716.879 -0.700114 -1.41195 0
M  V30 7419 C 718.295 -0.372114 -1.55201 0
M  V30 7420 C 718.495 1.12053 -1.6747 0
M  V30 7421 O 717.551 1.90642 -1.65566 0
M  V30 7422 C 718.864 -1.12462 -2.78878 0
M  V30 7423 C 720.412 -1.10941 -2.92679 0
M  V30 7424 C 720.887 -1.84376 -4.19249 0
M  V30 7425 N 722.378 -1.81368 -4.26216 0
M  V30 7426 C 723.113 -2.35024 -5.23021 0
M  V30 7427 N 722.609 -2.9717 -6.25829 0
M  V30 7428 N 724.402 -2.25254 -5.14992 0
M  V30 7429 H 716.553 -1.66816 -1.31477 0
M  V30 7430 H 718.816 -0.704223 -0.634644 0
M  V30 7431 H 718.522 -2.17937 -2.76037 0
M  V30 7432 H 718.396 -0.706152 -3.70531 0
M  V30 7433 H 720.783 -0.062911 -2.95033 0
M  V30 7434 H 720.864 -1.56698 -2.02187 0
M  V30 7435 H 720.508 -2.89008 -4.17656 0
M  V30 7436 H 720.438 -1.3605 -5.08722 0
M  V30 7437 H 722.929 -1.36062 -3.52556 0
M  V30 7438 H 723.242 -3.35668 -6.96094 0
M  V30 7439 H 721.587 -3.01249 -6.26318 0
M  V30 7440 H 724.778 -1.76372 -4.33602 0
M  V30 7441 H 724.951 -2.67373 -5.90268 0
M  V30 7442 N 718.357 1.51182 -0.445186 0
M  V30 7443 C 719.305 2.29531 0.376597 0
M  V30 7444 C 720.299 1.35711 1.01385 0
M  V30 7445 O 721.505 1.53018 0.947922 0
M  V30 7446 H 717.88 0.738803 0.140267 0
M  V30 7447 H 719.851 2.96838 -0.304958 0
M  V30 7448 C 718.6 3.1552 1.4609 0
M  V30 7449 H 717.923 3.87605 0.979912 0
M  V30 7450 H 719.363 3.73384 2.009 0
M  V30 7451 C 717.822 2.31406 2.44852 0
M  V30 7452 O 718.352 1.97912 3.49562 0
M  V30 7453 N 716.558 1.94478 2.15932 0
M  V30 7454 H 716.105 2.21917 1.30808 0
M  V30 7455 H 716.063 1.38498 2.82251 0
M  V30 7456 N 719.835 0.176821 1.56605 0
M  V30 7457 C 720.765 -0.746841 2.21234 0
M  V30 7458 C 721.746 -1.23502 1.16967 0
M  V30 7459 O 722.931 -1.28718 1.45414 0
M  V30 7460 C 720.061 -1.97407 2.8574 0
M  V30 7461 C 719.015 -1.62153 3.96094 0
M  V30 7462 C 718.341 -2.92387 4.47676 0
M  V30 7463 C 719.641 -0.845353 5.15413 0
M  V30 7464 H 721.335 -0.208116 2.98676 0
M  V30 7465 H 718.881 -0.0986594 1.43662 0
M  V30 7466 H 720.834 -2.62531 3.2963 0
M  V30 7467 H 719.558 -2.53703 2.05676 0
M  V30 7468 H 718.217 -0.993964 3.52868 0
M  V30 7469 H 717.865 -3.46734 3.64396 0
M  V30 7470 H 717.565 -2.69551 5.22127 0
M  V30 7471 H 719.089 -3.5853 4.94255 0
M  V30 7472 H 720.503 -1.39929 5.55961 0
M  V30 7473 H 718.9 -0.715814 5.95815 0
M  V30 7474 H 719.97 0.157239 4.84645 0
M  V30 7475 N 721.313 -1.57302 -0.09688 0
M  V30 7476 C 722.243 -2.0497 -1.11846 0
M  V30 7477 C 723.224 -0.938278 -1.41882 0
M  V30 7478 O 724.409 -1.20943 -1.51942 0
M  V30 7479 C 721.539 -2.47264 -2.43881 0
M  V30 7480 C 720.493 -3.62053 -2.28257 0
M  V30 7481 C 719.819 -3.90318 -3.65453 0
M  V30 7482 C 721.119 -4.93005 -1.72461 0
M  V30 7483 H 722.813 -2.90567 -0.721888 0
M  V30 7484 H 720.359 -1.39786 -0.345803 0
M  V30 7485 H 722.312 -2.7922 -3.15617 0
M  V30 7486 H 721.036 -1.58664 -2.8547 0
M  V30 7487 H 719.695 -3.30341 -1.58967 0
M  V30 7488 H 719.343 -2.98889 -4.04567 0
M  V30 7489 H 719.043 -4.67597 -3.55846 0
M  V30 7490 H 720.567 -4.24747 -4.3866 0
M  V30 7491 H 721.981 -5.23354 -2.34036 0
M  V30 7492 H 720.378 -5.74436 -1.73618 0
M  V30 7493 H 721.448 -4.80053 -0.683898 0
M  V30 7494 N 722.791 0.367657 -1.53252 0
M  V30 7495 C 724.016 1.13566 -1.73544 0
M  V30 7496 C 724.441 1.82329 -0.462344 0
M  V30 7497 O 723.799 1.71655 0.583472 0
M  V30 7498 C 723.847 2.14322 -2.89997 0
M  V30 7499 O 722.951 3.21359 -2.58461 0
M  V30 7500 H 722.292 0.329614 -0.576412 0
M  V30 7501 H 724.822 0.425417 -2.00128 0
M  V30 7502 H 724.832 2.57958 -3.16104 0
M  V30 7503 H 723.507 1.63664 -3.82344 0
M  V30 7504 H 722.084 2.8271 -2.43165 0
M  V30 7505 N 724.269 1.44576 0.627338 0
M  V30 7506 C 725.199 1.54562 1.75022 0
M  V30 7507 C 726.18 0.398378 1.65369 0
M  V30 7508 O 727.365 0.61899 1.84071 0
M  V30 7509 C 724.495 1.49309 3.13567 0
M  V30 7510 C 723.449 2.62549 3.38012 0
M  V30 7511 C 722.775 2.42348 4.76625 0
M  V30 7512 C 724.075 4.04678 3.30202 0
M  V30 7513 H 725.769 2.4855 1.66922 0
M  V30 7514 H 723.315 1.19624 0.801636 0
M  V30 7515 H 725.268 1.54895 3.919 0
M  V30 7516 H 723.992 0.518392 3.2246 0
M  V30 7517 H 722.651 2.56358 2.62061 0
M  V30 7518 H 722.299 1.43062 4.82226 0
M  V30 7519 H 721.999 3.18273 4.93939 0
M  V30 7520 H 723.523 2.49758 5.57183 0
M  V30 7521 H 724.937 4.12217 3.98435 0
M  V30 7522 H 723.334 4.80836 3.5905 0
M  V30 7523 H 724.404 4.2798 2.27949 0
M  V30 7524 N 725.747 -0.868086 1.31537 0
M  V30 7525 C 726.994 -1.62127 1.2133 0
M  V30 7526 C 727.322 -1.93158 -0.2281 0
M  V30 7527 O 726.577 -1.5632 -1.1774 0
M  V30 7528 C 726.876 -2.95889 2.0046 0
M  V30 7529 C 726.542 -2.84343 3.49943 0
M  V30 7530 C 725.204 -2.80901 3.90702 0
M  V30 7531 C 727.556 -2.71243 4.45058 0
M  V30 7532 C 724.884 -2.6222 5.24841 0
M  V30 7533 C 727.236 -2.54098 5.79325 0
M  V30 7534 C 725.9 -2.4904 6.19302 0
M  V30 7535 H 725.17 -0.593265 0.443979 0
M  V30 7536 H 727.817 -1.00803 1.62822 0
M  V30 7537 H 726.122 -3.61259 1.51655 0
M  V30 7538 H 727.819 -3.53161 1.89942 0
M  V30 7539 H 724.409 -2.8784 3.17563 0
M  V30 7540 H 728.593 -2.72956 4.14498 0
M  V30 7541 H 723.849 -2.56731 5.54887 0
M  V30 7542 H 728.023 -2.42938 6.52652 0
M  V30 7543 H 725.65 -2.34324 7.23185 0
M  V30 7544 N 727.225 -1.14528 -1.08264 0
M  V30 7545 C 728.135 -0.84728 -2.18765 0
M  V30 7546 C 729.151 0.172826 -1.7314 0
M  V30 7547 O 730.327 0.000985336 -2.014 0
M  V30 7548 C 727.392 -0.330633 -3.4512 0
M  V30 7549 C 726.453 -1.41348 -4.05363 0
M  V30 7550 C 725.686 -0.921387 -5.25686 0
M  V30 7551 O 725.909 0.236587 -5.69909 0
M  V30 7552 O 724.843 -1.70101 -5.77364 0
M  V30 7553 H 728.669 -1.7708 -2.46731 0
M  V30 7554 H 726.254 -0.923661 -1.17426 0
M  V30 7555 H 728.136 -0.0485053 -4.21372 0
M  V30 7556 H 726.811 0.565147 -3.18728 0
M  V30 7557 H 725.718 -1.74908 -3.30693 0
M  V30 7558 H 727.051 -2.28383 -4.36007 0
M  V30 7559 N 728.703 1.26451 -0.940633 0
M  V30 7560 C 729.98 1.88947 -0.505811 0
M  V30 7561 C 730.36 1.85011 1.01657 0
M  V30 7562 O 729.708 1.30406 1.87634 0
M  V30 7563 C 729.918 3.32304 -1.06654 0
M  V30 7564 C 731.266 4.09153 -1.13486 0
M  V30 7565 O 732.29 3.41371 -1.01708 0
M  V30 7566 O 731.149 5.30369 -1.31797 0
M  V30 7567 H 728.243 0.810422 -0.164759 0
M  V30 7568 H 730.789 1.34625 -1.03316 0
M  V30 7569 H 729.561 3.29527 -2.11015 0
M  V30 7570 H 729.184 3.94164 -0.521603 0
M  V30 7571 N 730.181 0.707592 1.40822 0
M  V30 7572 C 731.409 0.253073 2.05346 0
M  V30 7573 C 731.824 -1.10218 1.53289 0
M  V30 7574 O 731.181 -1.69112 0.686105 0
M  V30 7575 C 731.232 0.215411 3.60858 0
M  V30 7576 O 730.953 1.51714 4.10992 0
M  V30 7577 C 732.454 -0.258636 4.42545 0
M  V30 7578 H 729.674 0.115256 0.661027 0
M  V30 7579 H 732.218 0.963555 1.80377 0
M  V30 7580 H 730.373 -0.445978 3.84824 0
M  V30 7581 H 730.787 1.41226 5.05129 0
M  V30 7582 H 732.261 -0.233849 5.51504 0
M  V30 7583 H 732.738 -1.2995 4.19535 0
M  V30 7584 H 733.344 0.372186 4.23668 0
M  V30 7585 N 731.66 -1.50943 0.453197 0
M  V30 7586 C 732.59 -2.31005 -0.34044 0
M  V30 7587 C 733.571 -1.37112 -1.00669 0
M  V30 7588 O 734.756 -1.66033 -1.0073 0
M  V30 7589 C 731.886 -3.16358 -1.433 0
M  V30 7590 C 730.84 -4.18658 -0.889363 0
M  V30 7591 C 730.166 -4.92633 -2.07887 0
M  V30 7592 C 731.466 -5.22227 0.0871142 0
M  V30 7593 H 733.16 -2.97601 0.327723 0
M  V30 7594 H 730.706 -1.43119 0.159054 0
M  V30 7595 H 732.659 -3.71155 -1.99555 0
M  V30 7596 H 731.383 -2.47613 -2.12968 0
M  V30 7597 H 730.042 -3.64936 -0.348915 0
M  V30 7598 H 729.69 -4.20376 -2.76211 0
M  V30 7599 H 729.39 -5.61819 -1.72143 0
M  V30 7600 H 730.914 -5.50258 -2.64666 0
M  V30 7601 H 732.328 -5.72001 -0.385656 0
M  V30 7602 H 730.725 -5.99032 0.357926 0
M  V30 7603 H 731.795 -4.74077 1.01879 0
M  V30 7604 N 733.138 -0.185124 -1.56509 0
M  V30 7605 C 734.415 0.503348 -1.89013 0
M  V30 7606 C 734.795 1.80349 -1.09715 0
M  V30 7607 O 734.143 2.27665 -0.195203 0
M  V30 7608 C 734.353 0.731839 -3.41241 0
M  V30 7609 C 735.701 1.05568 -4.11267 0
M  V30 7610 O 736.725 0.819906 -3.46635 0
M  V30 7611 O 735.584 1.50116 -5.25478 0
M  V30 7612 H 732.678 0.261139 -0.784688 0
M  V30 7613 H 735.224 -0.224592 -1.68207 0
M  V30 7614 H 733.996 -0.18672 -3.90854 0
M  V30 7615 H 733.619 1.5126 -3.67704 0
M  V30 7616 N 734.616 1.57351 0.0885366 0
M  V30 7617 C 736.027 1.75303 0.642308 0
M  V30 7618 C 736.378 0.808238 1.78779 0
M  V30 7619 O 735.503 -0.01171 2.16397 0
M  V30 7620 C 736.098 3.17885 1.17194 0
M  V30 7621 C 734.657 3.37239 1.67172 0
M  V30 7622 C 733.804 2.7108 0.584045 0
M  V30 7623 H 736.755 1.58103 -0.137567 0
M  V30 7624 H 736.776 3.2112 2.04114 0
M  V30 7625 H 736.288 3.86625 0.338024 0
M  V30 7626 H 734.389 2.73588 2.52943 0
M  V30 7627 H 734.502 4.45594 1.76019 0
M  V30 7628 H 732.866 2.33161 1.02508 0
M  V30 7629 H 733.649 3.42464 -0.239403 0
M  V30 7630 N 736.094 -0.359525 1.53444 0
M  V30 7631 C 737.322 -1.12198 1.73837 0
M  V30 7632 C 737.737 -1.82854 0.470107 0
M  V30 7633 O 737.094 -1.73781 -0.557349 0
M  V30 7634 C 737.145 -2.14769 2.90786 0
M  V30 7635 O 736.866 -1.46989 4.12706 0
M  V30 7636 C 738.367 -3.03514 3.231 0
M  V30 7637 H 735.587 -0.33524 0.581253 0
M  V30 7638 H 738.131 -0.416598 2.00212 0
M  V30 7639 H 736.286 -2.80896 2.66788 0
M  V30 7640 H 736.7 -2.15378 4.78239 0
M  V30 7641 H 738.174 -3.71453 4.08322 0
M  V30 7642 H 738.651 -3.68658 2.38721 0
M  V30 7643 H 739.257 -2.42996 3.49046 0
M  V30 7644 O 737.611 -1.53385 -0.505502 0
M  V30 7645 H 738.302 -1.55093 -1.16042 0
M  V30 END ATOM
M  V30 BEGIN BOND
M  V30 END BOND
M  V30 END CTAB
M  END
$$$$
