drugbank_target|Q9Y2Q3 Glutathione S-transferase kappa 1 (DB00143; DB04700)
 OpenBabel12092119403D

  0  0  0     0  0            999 V3000
M  V30 BEGIN CTAB
M  V30 COUNTS 3622 3666 0 0 0
M  V30 BEGIN ATOM
M  V30 1 H -0.908 1.98254 -0.117106 0
M  V30 2 N 0 1.576 0 0
M  V30 3 C 0.933 2.03868 1.02534 0
M  V30 4 C 1.911 0.928543 1.3348 0
M  V30 5 O 3.095 1.19667 1.45644 0
M  V30 6 C 0.222 2.43627 2.35294 0
M  V30 7 C -0.732 3.65373 2.2001 0
M  V30 8 S 0.101 5.13292 1.52614 0
M  V30 9 C 1.257 5.56322 2.86805 0
M  V30 10 H 1.49 2.90518 0.631377 0
M  V30 11 H -0.977 1.52953 0.210867 0
M  V30 12 H 0.981 2.67203 3.11629 0
M  V30 13 H -0.358 1.57376 2.7183 0
M  V30 14 H -1.165 3.90944 3.18086 0
M  V30 15 H -1.563 3.418 1.51819 0
M  V30 16 H 0.729 5.58782 3.83104 0
M  V30 17 H 1.672 6.56266 2.65933 0
M  V30 18 H 2.08 4.83886 2.90714 0
M  V30 19 N 1.4781 -0.272755 1.55222 0
M  V30 20 C 2.7261 -1.00234 1.75492 0
M  V30 21 C 3.0471 -1.8681 0.5592 0
M  V30 22 O 2.3171 -1.91215 -0.425882 0
M  V30 23 H 0.8971 -0.373076 0.647166 0
M  V30 24 H 3.5591 -0.296926 1.92625 0
M  V30 25 H 2.6551 -1.63913 2.65592 0
M  V30 26 N 2.9562 -1.48159 -0.537278 0
M  V30 27 C 4.3672 -1.49429 -1.11928 0
M  V30 28 C 4.7182 -0.26 -1.9447 0
M  V30 29 O 3.8432 0.633489 -2.0692 0
M  V30 30 C 4.4382 -2.70758 -2.03656 0
M  V30 31 C 2.9972 -2.74923 -2.57088 0
M  V30 32 C 2.1442 -2.42835 -1.3389 0
M  V30 33 H 5.0952 -1.55381 -0.322886 0
M  V30 34 H 5.1162 -2.48861 -2.87834 0
M  V30 35 H 4.6282 -3.60575 -1.43553 0
M  V30 36 H 2.7292 -1.89296 -3.20933 0
M  V30 37 H 2.8422 -3.76157 -2.9672 0
M  V30 38 H 1.2062 -1.93836 -1.65226 0
M  V30 39 H 1.9892 -3.34884 -0.755504 0
M  V30 40 N 4.4343 0.785586 -1.36625 0
M  V30 41 C 5.3643 1.91259 -1.33949 0
M  V30 42 C 6.3453 1.68795 -0.210325 0
M  V30 43 O 7.5303 1.89854 -0.408561 0
M  V30 44 C 4.6603 3.28339 -1.13186 0
M  V30 45 C 3.6143 3.65335 -2.22967 0
M  V30 46 C 2.9403 5.00806 -1.87342 0
M  V30 47 C 4.2403 3.7352 -3.65075 0
M  V30 48 H 5.9343 1.93755 -2.28253 0
M  V30 49 H 3.4803 0.930788 -1.09874 0
M  V30 50 H 5.4333 4.06804 -1.09948 0
M  V30 51 H 4.1573 3.2624 -0.153332 0
M  V30 52 H 2.8163 2.89169 -2.25337 0
M  V30 53 H 2.4643 4.95233 -0.880545 0
M  V30 54 H 2.1643 5.26529 -2.60846 0
M  V30 55 H 3.6883 5.81687 -1.85667 0
M  V30 56 H 5.1023 4.42168 -3.64911 0
M  V30 57 H 3.4993 4.10731 -4.37516 0
M  V30 58 H 4.5693 2.74527 -3.99703 0
M  V30 59 N 5.9124 1.20967 1.01018 0
M  V30 60 C 7.3234 1.02319 1.56165 0
M  V30 61 C 7.6744 -0.418546 1.91684 0
M  V30 62 O 6.7994 -1.30096 1.72928 0
M  V30 63 C 7.3944 1.85109 2.8376 0
M  V30 64 C 5.9534 1.70809 3.35412 0
M  V30 65 C 5.1004 1.82643 2.08655 0
M  V30 66 H 8.0514 1.35065 0.833255 0
M  V30 67 H 8.0724 1.35827 3.55431 0
M  V30 68 H 7.5844 2.90035 2.57878 0
M  V30 69 H 5.6854 0.685464 3.66241 0
M  V30 70 H 5.7984 2.52467 4.07182 0
M  V30 71 H 4.1624 1.25896 2.21409 0
M  V30 72 H 4.9454 2.89066 1.85191 0
M  V30 73 N 7.3905 -1.2043 1.01659 0
M  V30 74 C 8.8065 -1.41852 0.731442 0
M  V30 75 C 9.0065 -1.89358 -0.688898 0
M  V30 76 O 8.0625 -2.06247 -1.45666 0
M  V30 77 C 9.3755 -2.44019 1.75714 0
M  V30 78 C 10.9235 -2.57785 1.77527 0
M  V30 79 C 11.3985 -3.63194 2.79023 0
M  V30 80 N 12.8895 -3.70678 2.77763 0
M  V30 81 C 13.6245 -4.51897 3.52954 0
M  V30 82 N 13.1205 -5.36921 4.37821 0
M  V30 83 N 14.9135 -4.4643 3.41551 0
M  V30 84 H 7.0645 -0.879093 1.93354 0
M  V30 85 H 9.3275 -0.448425 0.835236 0
M  V30 86 H 9.0335 -2.1611 2.77469 0
M  V30 87 H 8.9075 -3.43007 1.56927 0
M  V30 88 H 11.2945 -2.85023 0.764569 0
M  V30 89 H 11.3755 -1.58992 2.00387 0
M  V30 90 H 11.0195 -3.36699 3.80258 0
M  V30 91 H 10.9495 -4.61609 2.53425 0
M  V30 92 H 13.4405 -3.09944 2.16201 0
M  V30 93 H 13.7535 -5.95981 4.91962 0
M  V30 94 H 12.0985 -5.36424 4.41899 0
M  V30 95 H 15.2895 -3.79042 2.74672 0
M  V30 96 H 15.4625 -5.09491 4.00404 0
M  V30 97 N 8.8686 -0.792821 -1.36206 0
M  V30 98 C 10.0966 -0.378825 -2.03402 0
M  V30 99 C 10.5116 1.00586 -1.59774 0
M  V30 100 O 9.8686 1.64574 -0.788764 0
M  V30 101 C 9.9196 -0.43683 -3.58851 0
M  V30 102 O 9.6406 -1.76691 -4.00889 0
M  V30 103 C 11.1416 -0.0138943 -4.43298 0
M  V30 104 H 8.3616 -0.155673 -0.652692 0
M  V30 105 H 10.9056 -1.07261 -1.74113 0
M  V30 106 H 9.0606 0.208575 -3.86838 0
M  V30 107 H 9.4746 -1.72011 -4.95492 0
M  V30 108 H 10.9486 -0.105615 -5.51899 0
M  V30 109 H 11.4256 1.03915 -4.2673 0
M  V30 110 H 12.0316 -0.63192 -4.20579 0
M  V30 111 N 10.3467 1.47872 -0.545128 0
M  V30 112 C 11.5927 2.02793 -0.0166104 0
M  V30 113 C 11.9257 1.41987 1.32489 0
M  V30 114 O 11.2007 0.571045 1.85928 0
M  V30 115 C 11.4837 3.59989 0.0893294 0
M  V30 116 C 11.3367 4.3125 -1.27841 0
M  V30 117 C 12.6557 4.32606 0.808724 0
M  V30 118 H 9.7747 0.736962 -0.00751035 0
M  V30 119 H 12.4167 1.76433 -0.705085 0
M  V30 120 H 10.5667 3.82579 0.675681 0
M  V30 121 H 12.2387 4.20035 -1.90704 0
M  V30 122 H 10.4817 3.92076 -1.85632 0
M  V30 123 H 11.1527 5.39736 -1.15713 0
M  V30 124 H 13.6287 4.14936 0.310992 0
M  V30 125 H 12.5047 5.42251 0.851782 0
M  V30 126 H 12.7657 4.00963 1.86229 0
M  V30 127 N 11.8248 0.280983 1.55075 0
M  V30 128 C 12.7348 -0.61388 2.26426 0
M  V30 129 C 13.7508 -1.16521 1.29224 0
M  V30 130 O 14.9268 -1.19426 1.62171 0
M  V30 131 C 11.9918 -1.7788 2.9759 0
M  V30 132 C 11.0528 -1.26355 4.10284 0
M  V30 133 C 10.2858 -2.37295 4.78045 0
M  V30 134 O 10.5088 -3.56777 4.45047 0
M  V30 135 O 9.4428 -2.05119 5.65871 0
M  V30 136 H 13.2688 -0.0356932 3.03679 0
M  V30 137 H 10.8538 0.0481686 1.49322 0
M  V30 138 H 12.7358 -2.45791 3.42293 0
M  V30 139 H 11.4108 -2.34397 2.23249 0
M  V30 140 H 10.3178 -0.550735 3.70024 0
M  V30 141 H 11.6508 -0.744065 4.86543 0
M  V30 142 N 13.3029 -1.57598 0.00835791 0
M  V30 143 C 14.2329 -2.1198 -0.979113 0
M  V30 144 C 15.2139 -1.03091 -1.35301 0
M  V30 145 O 16.3989 -1.30818 -1.43528 0
M  V30 146 C 13.5289 -2.62995 -2.26828 0
M  V30 147 C 12.4829 -3.76485 -2.03576 0
M  V30 148 C 11.8089 -4.13846 -3.38579 0
M  V30 149 C 13.1089 -5.0342 -1.39161 0
M  V30 150 H 14.8029 -2.94738 -0.526281 0
M  V30 151 H 12.3489 -1.41783 -0.251704 0
M  V30 152 H 14.3019 -2.99669 -2.96271 0
M  V30 153 H 13.0259 -1.7737 -2.7424 0
M  V30 154 H 11.6849 -3.40217 -1.36557 0
M  V30 155 H 11.3329 -3.25232 -3.83709 0
M  V30 156 H 11.0329 -4.90312 -3.23834 0
M  V30 157 H 12.5569 -4.53086 -4.09323 0
M  V30 158 H 13.9709 -5.37812 -1.98573 0
M  V30 159 H 12.3679 -5.84746 -1.34878 0
M  V30 160 H 13.4379 -4.83548 -0.361868 0
M  V30 161 N 14.781 0.264519 -1.55364 0
M  V30 162 C 16.028 0.994986 -1.7637 0
M  V30 163 C 16.356 1.85976 -0.5695 0
M  V30 164 O 15.611 1.90509 0.44776 0
M  V30 165 C 15.91 1.9004 -3.02687 0
M  V30 166 C 15.576 1.19243 -4.34847 0
M  V30 167 C 14.238 0.996709 -4.70764 0
M  V30 168 C 16.59 0.689296 -5.16622 0
M  V30 169 C 13.918 0.285261 -5.86006 0
M  V30 170 C 16.27 -0.00860079 -6.32599 0
M  V30 171 C 14.934 -0.215963 -6.67151 0
M  V30 172 H 14.204 0.364091 -0.645383 0
M  V30 173 H 16.851 0.266543 -1.89636 0
M  V30 174 H 15.156 2.69533 -2.84357 0
M  V30 175 H 16.853 2.46695 -3.16137 0
M  V30 176 H 13.443 1.3549 -4.06621 0
M  V30 177 H 17.627 0.828108 -4.89342 0
M  V30 178 H 12.883 0.113961 -6.11294 0
M  V30 179 H 17.057 -0.406186 -6.95214 0
M  V30 180 H 14.684 -0.769217 -7.56298 0
M  V30 181 N 16.2591 1.48442 0.529413 0
M  V30 182 C 17.4891 1.59919 1.30804 0
M  V30 183 C 17.8971 0.258792 1.87422 0
M  V30 184 O 17.2401 -0.762096 1.67146 0
M  V30 185 C 17.3021 2.58693 2.49636 0
M  V30 186 C 16.9661 4.03745 2.14101 0
M  V30 187 C 17.9631 4.9141 1.6974 0
M  V30 188 C 15.6481 4.49285 2.24607 0
M  V30 189 C 17.6421 6.22645 1.36351 0
M  V30 190 C 15.3291 5.8054 1.9083 0
M  V30 191 C 16.3271 6.67043 1.46773 0
M  V30 192 O 16.0151 7.95856 1.1344 0
M  V30 193 H 15.7471 0.541981 0.404021 0
M  V30 194 H 18.3011 1.95 0.645309 0
M  V30 195 H 16.5311 2.18734 3.18892 0
M  V30 196 H 18.2201 2.59999 3.11698 0
M  V30 197 H 18.9861 4.57465 1.61094 0
M  V30 198 H 14.8651 3.82142 2.57854 0
M  V30 199 H 18.4091 6.90119 1.01891 0
M  V30 200 H 14.3061 6.14022 1.99117 0
M  V30 201 H 15.0741 8.08613 1.26832 0
M  V30 202 N 17.7372 -0.778329 1.37039 0
M  V30 203 C 19.0142 -1.52551 1.22424 0
M  V30 204 C 19.3942 -2.10288 -0.184964 0
M  V30 205 O 18.7422 -1.94953 -1.19187 0
M  V30 206 C 18.9522 -2.61164 2.31504 0
M  V30 207 C 20.3002 -3.28746 2.68721 0
M  V30 208 O 21.3242 -2.71455 2.30631 0
M  V30 209 O 20.1832 -4.3231 3.3432 0
M  V30 210 H 17.2772 -0.675343 0.477326 0
M  V30 211 H 19.8232 -0.815859 1.48801 0
M  V30 212 H 18.5952 -2.16574 3.25901 0
M  V30 213 H 18.2182 -3.39737 2.06554 0
M  V30 214 N 19.2153 -1.21501 -1.00376 0
M  V30 215 C 20.4613 -1.03452 -1.74429 0
M  V30 216 C 20.7943 0.430764 -1.89362 0
M  V30 217 O 20.0693 1.31962 -1.42886 0
M  V30 218 C 20.3523 -1.73375 -3.15615 0
M  V30 219 C 20.2053 -3.27431 -3.08397 0
M  V30 220 C 21.5243 -1.47732 -4.14564 0
M  V30 221 H 18.6433 -0.377226 -0.633143 0
M  V30 222 H 21.2853 -1.49693 -1.17013 0
M  V30 223 H 19.4353 -1.34064 -3.64636 0
M  V30 224 H 21.1073 -3.76119 -2.67081 0
M  V30 225 H 19.3503 -3.5767 -2.45468 0
M  V30 226 H 20.0213 -3.71524 -4.08258 0
M  V30 227 H 22.4973 -1.8186 -3.74254 0
M  V30 228 H 21.3733 -1.99169 -5.11491 0
M  V30 229 H 21.6343 -0.407589 -4.40217 0
M  V30 230 N 20.6934 1.19889 -1.02296 0
M  V30 231 C 21.6234 2.25141 -0.619174 0
M  V30 232 C 22.6044 1.66051 0.368915 0
M  V30 233 O 23.7894 1.92546 0.252941 0
M  V30 234 C 20.9194 3.4728 0.0368783 0
M  V30 235 C 19.8734 4.19005 -0.872865 0
M  V30 236 C 19.1994 5.34637 -0.0822402 0
M  V30 237 C 20.4994 4.74452 -2.18387 0
M  V30 238 H 22.1934 2.59171 -1.49903 0
M  V30 239 H 19.7394 1.24579 -0.722222 0
M  V30 240 H 21.6924 4.20098 0.330958 0
M  V30 241 H 20.4164 3.12433 0.95149 0
M  V30 242 H 19.0754 3.48061 -1.15105 0
M  V30 243 H 18.7234 4.96034 0.83422 0
M  V30 244 H 18.4234 5.83557 -0.688149 0
M  V30 245 H 19.9474 6.10255 0.205238 0
M  V30 246 H 21.3614 5.39055 -1.95172 0
M  V30 247 H 19.7584 5.33834 -2.74119 0
M  V30 248 H 20.8284 3.92844 -2.84257 0
M  V30 249 N 22.1715 0.800033 1.35784 0
M  V30 250 C 23.3965 0.388511 2.03729 0
M  V30 251 C 23.8215 -0.990481 1.5991 0
M  V30 252 O 23.1795 -1.64013 0.772612 0
M  V30 253 C 23.2275 0.4726 3.5749 0
M  V30 254 O 22.3315 -0.51646 4.09153 0
M  V30 255 H 21.6725 0.163271 0.643614 0
M  V30 256 H 24.2025 1.0841 1.73518 0
M  V30 257 H 24.2125 0.34003 4.06581 0
M  V30 258 H 22.8875 1.47848 3.88734 0
M  V30 259 H 21.4645 -0.344673 3.71304 0
M  V30 260 N 23.6496 -1.47581 0.552962 0
M  V30 261 C 25.0606 -1.86324 0.118463 0
M  V30 262 C 25.4116 -1.46006 -1.3106 0
M  V30 263 O 24.5366 -0.861182 -1.98526 0
M  V30 264 C 25.1316 -3.3816 0.20821 0
M  V30 265 C 23.6906 -3.7601 -0.171226 0
M  V30 266 C 22.8376 -2.71634 0.557686 0
M  V30 267 H 25.7886 -1.39159 0.762928 0
M  V30 268 H 25.8096 -3.76141 -0.574278 0
M  V30 269 H 25.3216 -3.67473 1.24841 0
M  V30 270 H 23.4226 -3.52313 -1.21269 0
M  V30 271 H 23.5356 -4.78745 0.184379 0
M  V30 272 H 21.8996 -2.547 0.00125792 0
M  V30 273 H 22.6826 -3.0379 1.59896 0
M  V30 274 N 25.1277 -0.289203 -1.54924 0
M  V30 275 C 26.3577 0.325989 -2.04012 0
M  V30 276 C 26.7657 1.48961 -1.1665 0
M  V30 277 O 26.1087 1.82794 -0.1822 0
M  V30 278 C 26.1707 0.856112 -3.49158 0
M  V30 279 C 25.8347 -0.180697 -4.56643 0
M  V30 280 C 26.8317 -1.0051 -5.10092 0
M  V30 281 C 24.5167 -0.318998 -5.01286 0
M  V30 282 C 26.5107 -1.95385 -6.06715 0
M  V30 283 C 24.1977 -1.27121 -5.97732 0
M  V30 284 C 25.1957 -2.08713 -6.50329 0
M  V30 285 O 24.8837 -3.02322 -7.44887 0
M  V30 286 H 24.6157 0.0765276 -0.671654 0
M  V30 287 H 27.1697 -0.423254 -2.00992 0
M  V30 288 H 25.3997 1.65567 -3.49463 0
M  V30 289 H 27.0887 1.38591 -3.81507 0
M  V30 290 H 27.8547 -0.90906 -4.76404 0
M  V30 291 H 23.7337 0.306108 -4.59983 0
M  V30 292 H 27.2777 -2.59111 -6.47694 0
M  V30 293 H 23.1747 -1.36801 -6.30837 0
M  V30 294 H 23.9427 -2.97165 -7.6265 0
M  V30 295 N 26.6058 1.57591 -0.0167156 0
M  V30 296 C 27.8308 1.9598 0.67872 0
M  V30 297 C 28.2558 0.892546 1.65575 0
M  V30 298 O 27.6138 -0.147772 1.80697 0
M  V30 299 C 27.6618 3.33468 1.37227 0
M  V30 300 O 26.7658 3.28954 2.48722 0
M  V30 301 H 26.1068 0.639339 0.17928 0
M  V30 302 H 28.6368 2.04463 -0.0748802 0
M  V30 303 H 28.6468 3.69417 1.7319 0
M  V30 304 H 27.3218 4.10694 0.656007 0
M  V30 305 H 25.8988 3.04705 2.14963 0
M  V30 306 N 28.0839 -0.256276 1.55502 0
M  V30 307 C 29.3299 -0.982884 1.78076 0
M  V30 308 C 29.6849 -1.83319 0.584109 0
M  V30 309 O 28.9779 -1.86875 -0.422877 0
M  V30 310 C 29.1719 -1.88432 3.03691 0
M  V30 311 C 29.0009 -1.12276 4.35459 0
M  V30 312 C 27.7709 -0.831647 4.98409 0
M  V30 313 C 29.9689 -0.504933 5.11815 0
M  V30 314 N 27.9509 -0.0450423 6.13883 0
M  V30 315 C 29.3219 0.146696 6.19826 0
M  V30 316 C 31.3769 -0.414455 4.96172 0
M  V30 317 C 30.0799 0.880103 7.13895 0
M  V30 318 C 32.1059 0.305398 5.90611 0
M  V30 319 C 31.4679 0.945701 6.98023 0
M  V30 320 H 27.5669 -0.341084 0.703694 0
M  V30 321 H 30.1509 -0.256909 1.92998 0
M  V30 322 H 28.3219 -2.58241 2.90114 0
M  V30 323 H 30.0539 -2.54579 3.14598 0
M  V30 324 H 26.8089 -1.14111 4.59647 0
M  V30 325 H 27.2329 0.336079 6.76165 0
M  V30 326 H 31.8749 -0.895163 4.13215 0
M  V30 327 H 29.5929 1.37244 7.9636 0
M  V30 328 H 33.1789 0.375946 5.80584 0
M  V30 329 H 32.0589 1.49383 7.6984 0
M  V30 330 N 29.562 -1.4872 -0.521534 0
M  V30 331 C 30.492 -1.66771 -1.63431 0
M  V30 332 C 31.473 -0.516499 -1.62069 0
M  V30 333 O 32.658 -0.750013 -1.79132 0
M  V30 334 C 29.788 -1.71515 -3.01993 0
M  V30 335 C 28.742 -2.86222 -3.18216 0
M  V30 336 C 28.068 -2.76061 -4.57924 0
M  V30 337 C 29.368 -4.27419 -3.00184 0
M  V30 338 H 31.062 -2.59932 -1.48579 0
M  V30 339 H 28.608 -1.25089 -0.713358 0
M  V30 340 H 30.561 -1.82731 -3.7972 0
M  V30 341 H 29.285 -0.749393 -3.17886 0
M  V30 342 H 27.944 -2.74575 -2.42908 0
M  V30 343 H 27.592 -1.77437 -4.70665 0
M  V30 344 H 27.292 -3.53037 -4.69722 0
M  V30 345 H 28.816 -2.89256 -5.37739 0
M  V30 346 H 30.23 -4.39855 -3.67697 0
M  V30 347 H 28.627 -5.05458 -3.2347 0
M  V30 348 H 29.697 -4.43293 -1.96518 0
M  V30 349 N 31.0401 0.771051 -1.3745 0
M  V30 350 C 32.2881 1.52661 -1.32435 0
M  V30 351 C 32.6091 1.9479 0.0905024 0
M  V30 352 O 31.8791 1.66348 1.03466 0
M  V30 353 H 30.4591 0.566218 -0.487244 0
M  V30 354 H 33.1211 0.917636 -1.71946 0
M  V30 355 H 32.2171 2.42568 -1.96385 0
M  V30 356 N 32.5182 1.22032 0.997298 0
M  V30 357 C 33.7652 1.04222 1.73621 0
M  V30 358 C 34.0932 -0.423264 1.89839 0
M  V30 359 O 33.3482 -1.3302 1.43542 0
M  V30 360 C 33.6472 1.69345 3.14733 0
M  V30 361 C 33.3132 3.19226 3.18442 0
M  V30 362 C 31.9752 3.60124 3.19161 0
M  V30 363 C 34.3272 4.15181 3.15078 0
M  V30 364 C 31.6552 4.95467 3.14212 0
M  V30 365 C 34.0072 5.50495 3.1167 0
M  V30 366 C 32.6712 5.90779 3.10703 0
M  V30 367 H 31.9412 0.381374 0.635323 0
M  V30 368 H 34.5882 1.51732 1.16831 0
M  V30 369 H 32.8932 1.14147 3.74803 0
M  V30 370 H 34.5902 1.53059 3.7064 0
M  V30 371 H 31.1802 2.86659 3.18629 0
M  V30 372 H 35.3642 3.84605 3.13676 0
M  V30 373 H 30.6202 5.25916 3.11805 0
M  V30 374 H 34.7942 6.24576 3.08022 0
M  V30 375 H 32.4212 6.9562 3.06622 0
M  V30 376 N 33.9963 -1.19345 1.0293 0
M  V30 377 C 34.9063 -2.26245 0.620515 0
M  V30 378 C 35.9223 -1.70486 -0.347928 0
M  V30 379 O 37.0983 -2.00347 -0.205704 0
M  V30 380 C 34.1633 -3.46693 -0.0218957 0
M  V30 381 C 33.2243 -4.17632 0.994102 0
M  V30 382 C 32.4573 -5.32329 0.382253 0
M  V30 383 O 32.6803 -5.64552 -0.814676 0
M  V30 384 O 31.6143 -5.91664 1.10531 0
M  V30 385 H 35.4403 -2.63453 1.51083 0
M  V30 386 H 33.0253 -1.26207 0.799513 0
M  V30 387 H 34.9073 -4.19683 -0.380072 0
M  V30 388 H 33.5823 -3.11333 -0.886209 0
M  V30 389 H 32.4893 -3.4676 1.40387 0
M  V30 390 H 33.8223 -4.56964 1.8288 0
M  V30 391 N 35.4744 -0.807222 -1.35358 0
M  V30 392 C 36.7234 -0.384376 -1.98004 0
M  V30 393 C 37.0364 1.0543 -1.64754 0
M  V30 394 O 38.2424 1.58029 -2.20769 0
M  V30 395 C 36.6984 -0.636326 -3.5423 0
M  V30 396 C 36.3064 -2.08759 -3.96388 0
M  V30 397 C 38.0504 -0.278869 -4.23583 0
M  V30 398 C 35.9574 -2.28525 -5.45463 0
M  V30 399 H 34.8874 -0.139986 -0.740891 0
M  V30 400 H 37.5384 -0.991369 -1.54415 0
M  V30 401 H 35.9204 0.0406256 -3.95979 0
M  V30 402 H 37.0944 -2.8024 -3.6579 0
M  V30 403 H 35.4094 -2.40497 -3.39926 0
M  V30 404 H 38.0064 -0.404599 -5.33167 0
M  V30 405 H 38.3494 0.775012 -4.09022 0
M  V30 406 H 38.8824 -0.909764 -3.87257 0
M  V30 407 H 35.6214 -3.32361 -5.64992 0
M  V30 408 H 35.1414 -1.61569 -5.77629 0
M  V30 409 H 36.8204 -2.10109 -6.11934 0
M  V30 410 N 36.9525 1.47285 -0.560781 0
M  V30 411 C 37.8825 2.32857 0.173105 0
M  V30 412 C 38.8635 1.44009 0.905281 0
M  V30 413 O 40.0485 1.7286 0.885046 0
M  V30 414 C 37.1785 3.25861 1.20133 0
M  V30 415 C 36.1325 4.23978 0.585388 0
M  V30 416 C 35.4585 5.06332 1.7185 0
M  V30 417 C 36.7585 5.20242 -0.463178 0
M  V30 418 H 38.4525 2.94466 -0.541307 0
M  V30 419 H 35.9985 1.41601 -0.261764 0
M  V30 420 H 37.9515 3.84569 1.72293 0
M  V30 421 H 36.6755 2.62315 1.94573 0
M  V30 422 H 35.3345 3.66501 0.085054 0
M  V30 423 H 34.9825 4.39186 2.45203 0
M  V30 424 H 34.6825 5.72762 1.31213 0
M  V30 425 H 36.2065 5.67899 2.24329 0
M  V30 426 H 37.6205 5.73293 -0.027502 0
M  V30 427 H 36.0175 5.94896 -0.788627 0
M  V30 428 H 37.0875 4.65504 -1.35773 0
M  V30 429 N 38.4306 0.297415 1.54768 0
M  V30 430 C 39.6706 -0.313829 2.01976 0
M  V30 431 C 40.0346 -1.51366 1.1812 0
M  V30 432 O 41.2356 -2.19603 1.5501 0
M  V30 433 C 39.5066 -0.664964 3.51159 0
M  V30 434 S 41.0656 -1.25958 4.20333 0
M  V30 435 H 37.8836 -0.0965014 0.704421 0
M  V30 436 H 40.4856 0.424451 1.90837 0
M  V30 437 H 39.1896 0.21681 4.09827 0
M  V30 438 H 38.7206 -1.43413 3.66328 0
M  V30 439 H 40.7356 -2.54751 4.25813 0
M  V30 440 N 39.9087 -1.5758 0.0250728 0
M  V30 441 C 41.3247 -1.56124 -0.331282 0
M  V30 442 C 41.5247 -1.03029 -1.73169 0
M  V30 443 O 40.5807 -0.675215 -2.43305 0
M  V30 444 C 41.8937 -3.00139 -0.183584 0
M  V30 445 C 43.4417 -3.11946 -0.256654 0
M  V30 446 C 43.9167 -4.57793 -0.137792 0
M  V30 447 N 45.4077 -4.6279 -0.194904 0
M  V30 448 C 46.1427 -5.7326 -0.126655 0
M  V30 449 N 45.6387 -6.928 -0.00755288 0
M  V30 450 N 47.4317 -5.61811 -0.180348 0
M  V30 451 H 39.5827 -1.90424 0.94087 0
M  V30 452 H 41.8457 -0.875761 0.362968 0
M  V30 453 H 41.5517 -3.4292 0.780927 0
M  V30 454 H 41.4257 -3.64899 -0.955448 0
M  V30 455 H 43.8127 -2.69079 -1.21162 0
M  V30 456 H 43.8937 -2.49915 0.545517 0
M  V30 457 H 43.5377 -5.01339 0.813739 0
M  V30 458 H 43.4677 -5.17798 -0.958775 0
M  V30 459 H 45.9587 -3.76807 -0.287267 0
M  V30 460 H 46.2717 -7.72791 0.0379428 0
M  V30 461 H 44.6167 -6.94995 0.0271731 0
M  V30 462 H 47.8077 -4.6731 -0.271767 0
M  V30 463 H 47.9807 -6.47882 -0.123697 0
M  V30 464 N 41.3868 0.248026 -1.55636 0
M  V30 465 C 42.6168 0.992367 -1.81206 0
M  V30 466 C 43.0248 1.7949 -0.598324 0
M  V30 467 O 42.3678 1.78292 0.442434 0
M  V30 468 C 42.4298 1.97926 -3.00109 0
M  V30 469 C 42.0938 1.36377 -4.36177 0
M  V30 470 C 43.0908 0.76682 -5.14214 0
M  V30 471 C 40.7758 1.38347 -4.82872 0
M  V30 472 C 42.7698 0.197778 -6.37093 0
M  V30 473 C 40.4568 0.810574 -6.057 0
M  V30 474 C 41.4548 0.218754 -6.8265 0
M  V30 475 O 41.1428 -0.345298 -8.03158 0
M  V30 476 H 40.8748 0.297704 -0.606917 0
M  V30 477 H 43.4288 0.276517 -2.0353 0
M  V30 478 H 41.6588 2.73339 -2.73538 0
M  V30 479 H 43.3478 2.58694 -3.12781 0
M  V30 480 H 44.1138 0.744114 -4.79258 0
M  V30 481 H 39.9928 1.8335 -4.2297 0
M  V30 482 H 43.5368 -0.264788 -6.97097 0
M  V30 483 H 39.4338 0.830604 -6.40134 0
M  V30 484 H 40.2018 -0.237055 -8.18157 0
M  V30 485 N 42.8649 1.48995 0.513639 0
M  V30 486 C 43.7969 1.60836 1.63293 0
M  V30 487 C 44.8099 0.491701 1.55197 0
M  V30 488 O 45.9989 0.763238 1.6136 0
M  V30 489 C 43.0989 1.53731 3.02027 0
M  V30 490 C 42.2719 2.80715 3.35437 0
M  V30 491 C 41.3309 2.66837 4.53525 0
M  V30 492 O 40.3569 3.40753 4.55934 0
M  V30 493 N 41.5589 1.77539 5.52684 0
M  V30 494 H 44.3239 2.57366 1.53566 0
M  V30 495 H 41.8849 1.45925 0.701259 0
M  V30 496 H 43.8769 1.42118 3.78926 0
M  V30 497 H 42.4469 0.651092 3.05744 0
M  V30 498 H 41.6669 3.06772 2.47557 0
M  V30 499 H 42.9549 3.64927 3.54551 0
M  V30 500 H 42.3529 1.16719 5.53528 0
M  V30 501 H 40.9099 1.71856 6.28736 0
M  V30 502 N 44.343 -0.763751 1.37857 0
M  V30 503 C 45.291 -1.89864 1.34367 0
M  V30 504 C 46.285 -1.67816 0.231143 0
M  V30 505 O 47.491 -1.75508 0.399617 0
M  V30 506 H 43.866 -0.624501 0.41893 0
M  V30 507 H 45.837 -1.89925 2.30155 0
M  V30 508 C 44.586 -3.27227 1.1755 0
M  V30 509 H 43.909 -3.44773 2.02414 0
M  V30 510 H 45.349 -4.06911 1.1916 0
M  V30 511 C 43.808 -3.36692 -0.118311 0
M  V30 512 O 44.338 -3.86374 -1.09902 0
M  V30 513 N 42.544 -2.90092 -0.171717 0
M  V30 514 H 42.091 -2.49853 0.627012 0
M  V30 515 H 42.049 -2.96806 -1.03699 0
M  V30 516 N 45.8211 -1.22559 -0.990812 0
M  V30 517 C 47.0701 -1.04553 -1.72486 0
M  V30 518 C 47.3831 0.419349 -1.91052 0
M  V30 519 O 48.5891 0.719121 -2.61803 0
M  V30 520 C 47.0451 -1.82231 -3.10355 0
M  V30 521 C 46.6531 -3.32981 -2.99713 0
M  V30 522 C 48.3971 -1.7268 -3.87791 0
M  V30 523 C 46.3041 -4.03091 -4.32748 0
M  V30 524 H 45.2341 -0.387614 -0.646739 0
M  V30 525 H 47.8851 -1.46429 -1.10593 0
M  V30 526 H 46.2671 -1.33155 -3.72942 0
M  V30 527 H 47.4411 -3.89466 -2.46278 0
M  V30 528 H 45.7561 -3.43231 -2.35758 0
M  V30 529 H 48.3531 -2.22381 -4.86262 0
M  V30 530 H 48.6961 -0.687607 -4.10582 0
M  V30 531 H 49.2291 -2.1931 -3.31885 0
M  V30 532 H 45.9681 -5.07273 -4.15156 0
M  V30 533 H 45.4881 -3.51394 -4.86089 0
M  V30 534 H 47.1671 -4.08804 -5.01486 0
M  V30 535 N 47.2992 1.18797 -1.03562 0
M  V30 536 C 48.5452 1.89192 -0.746867 0
M  V30 537 C 48.9002 1.78531 0.717245 0
M  V30 538 O 48.1932 1.17137 1.51622 0
M  V30 539 C 48.3872 3.38692 -1.14117 0
M  V30 540 C 48.2162 3.63902 -2.64207 0
M  V30 541 C 46.9862 3.81553 -3.31279 0
M  V30 542 C 49.1842 3.64903 -3.62423 0
M  V30 543 N 47.1662 3.94455 -4.70402 0
M  V30 544 C 48.5372 3.83458 -4.87196 0
M  V30 545 C 50.5922 3.47965 -3.56125 0
M  V30 546 C 49.2952 3.86829 -6.06429 0
M  V30 547 C 51.3212 3.52616 -4.7478 0
M  V30 548 C 50.6832 3.71663 -5.9837 0
M  V30 549 H 46.7822 0.711141 -0.325273 0
M  V30 550 H 49.3662 1.42727 -1.32428 0
M  V30 551 H 47.5372 3.83864 -0.591889 0
M  V30 552 H 49.2692 3.96634 -0.803966 0
M  V30 553 H 46.0242 3.80723 -2.81686 0
M  V30 554 H 46.4482 4.0474 -5.42692 0
M  V30 555 H 51.0902 3.32189 -2.61553 0
M  V30 556 H 48.8082 4.01395 -7.01362 0
M  V30 557 H 52.3942 3.40791 -4.71543 0
M  V30 558 H 51.2742 3.75145 -6.88648 0
M  V30 559 N 48.7773 0.814389 1.34928 0
M  V30 560 C 49.7253 0.218424 2.31572 0
M  V30 561 C 50.7193 -0.636128 1.57002 0
M  V30 562 O 51.9253 -0.52842 1.72069 0
M  V30 563 H 48.3003 0.0518799 0.750208 0
M  V30 564 H 50.2713 1.04852 2.79372 0
M  V30 565 C 49.0203 -0.61207 3.4227 0
M  V30 566 H 48.3433 0.0361578 3.99784 0
M  V30 567 H 49.7833 -0.995317 4.12152 0
M  V30 568 C 48.2423 -1.78087 2.85984 0
M  V30 569 O 48.7723 -2.8787 2.80168 0
M  V30 570 N 46.9783 -1.59488 2.42924 0
M  V30 571 H 46.5253 -0.701874 2.47854 0
M  V30 572 H 46.4833 -2.37846 2.05613 0
M  V30 573 N 50.2554 -1.46986 0.568584 0
M  V30 574 C 51.5044 -2.01646 0.0465894 0
M  V30 575 C 51.8174 -1.44721 -1.31587 0
M  V30 576 O 53.0234 -1.91113 -1.92842 0
M  V30 577 C 51.4794 -3.59885 0.032752 0
M  V30 578 C 51.0874 -4.25804 1.39266 0
M  V30 579 C 52.8314 -4.22255 -0.436038 0
M  V30 580 C 50.7384 -5.76081 1.33732 0
M  V30 581 H 49.6684 -0.753876 0.013647 0
M  V30 582 H 52.3194 -1.68864 0.718131 0
M  V30 583 H 50.7014 -3.8968 -0.704669 0
M  V30 584 H 51.8754 -4.07637 2.1487 0
M  V30 585 H 50.1904 -3.7547 1.80032 0
M  V30 586 H 52.7874 -5.32394 -0.49602 0
M  V30 587 H 53.1304 -3.90212 -1.45053 0
M  V30 588 H 53.6634 -3.97033 0.246877 0
M  V30 589 H 50.4024 -6.12761 2.32817 0
M  V30 590 H 49.9224 -5.96553 0.623267 0
M  V30 591 H 51.6014 -6.38518 1.0442 0
M  V30 592 N 51.7335 -0.305618 -1.54608 0
M  V30 593 C 52.6815 0.584119 -2.25146 0
M  V30 594 C 53.6755 1.13326 -1.25911 0
M  V30 595 O 54.8815 1.08337 -1.43747 0
M  V30 596 H 51.2565 0.206983 -0.722954 0
M  V30 597 H 53.2275 -0.033291 -2.98381 0
M  V30 598 C 51.9765 1.74225 -3.009 0
M  V30 599 H 51.2995 1.32892 -3.77067 0
M  V30 600 H 52.7395 2.34077 -3.53531 0
M  V30 601 C 51.1985 2.64914 -2.0814 0
M  V30 602 O 51.7285 3.66137 -1.65246 0
M  V30 603 N 49.9345 2.3275 -1.74 0
M  V30 604 H 49.4815 1.50479 -2.09078 0
M  V30 605 H 49.4395 2.93694 -1.12211 0
M  V30 606 N 53.2116 1.57565 -0.0334293 0
M  V30 607 C 54.1416 2.13511 0.945265 0
M  V30 608 C 55.1226 1.05231 1.33643 0
M  V30 609 O 56.3076 1.33084 1.41429 0
M  V30 610 C 53.4376 2.6657 2.22616 0
M  V30 611 C 52.3916 3.79676 1.97561 0
M  V30 612 C 51.7176 4.1918 3.31952 0
M  V30 613 C 53.0176 5.0557 1.31135 0
M  V30 614 H 54.7116 2.95538 0.479325 0
M  V30 615 H 52.2576 1.42166 0.229115 0
M  V30 616 H 54.2106 3.04344 2.91466 0
M  V30 617 H 52.9346 1.8171 2.71384 0
M  V30 618 H 51.5936 3.42347 1.31127 0
M  V30 619 H 51.2416 3.31296 3.78487 0
M  V30 620 H 50.9416 4.95402 3.15992 0
M  V30 621 H 52.4656 4.59541 4.02063 0
M  V30 622 H 53.8796 5.40903 1.89992 0
M  V30 623 H 52.2766 5.86818 1.25559 0
M  V30 624 H 53.3466 4.84062 0.284894 0
M  V30 625 N 54.6897 -0.239769 1.55765 0
M  V30 626 C 55.6217 -1.32001 1.87372 0
M  V30 627 C 56.6347 -1.43944 0.760522 0
M  V30 628 O 57.8237 -1.45167 1.0387 0
M  V30 629 C 54.9237 -2.69779 2.05115 0
M  V30 630 C 54.0967 -2.80014 3.36022 0
M  V30 631 C 53.1557 -3.98684 3.4342 0
M  V30 632 O 52.1817 -3.87877 4.16582 0
M  V30 633 N 53.3837 -5.12176 2.73232 0
M  V30 634 H 56.1487 -1.0522 2.80622 0
M  V30 635 H 53.7097 -0.429857 1.56089 0
M  V30 636 H 55.7017 -3.47517 2.07399 0
M  V30 637 H 54.2717 -2.89237 1.18577 0
M  V30 638 H 53.4917 -1.88896 3.45994 0
M  V30 639 H 54.7797 -2.83808 4.22292 0
M  V30 640 H 54.1777 -5.2385 2.13536 0
M  V30 641 H 52.7347 -5.88022 2.81199 0
M  V30 642 N 56.1678 -1.49265 -0.50573 0
M  V30 643 C 57.0978 -1.68495 -1.61653 0
M  V30 644 C 58.0788 -0.53366 -1.61512 0
M  V30 645 O 59.2638 -0.76897 -1.78327 0
M  V30 646 C 56.3938 -1.74709 -3.00157 0
M  V30 647 C 55.3478 -2.89581 -3.15162 0
M  V30 648 C 54.6738 -2.80903 -4.5497 0
M  V30 649 C 55.9738 -4.30578 -2.95634 0
M  V30 650 H 57.6678 -2.61493 -1.45814 0
M  V30 651 H 55.2138 -1.25838 -0.70005 0
M  V30 652 H 57.1668 -1.86748 -3.77761 0
M  V30 653 H 55.8908 -0.783067 -3.17074 0
M  V30 654 H 54.5498 -2.77136 -2.39982 0
M  V30 655 H 54.1978 -1.82419 -4.68756 0
M  V30 656 H 53.8978 -3.57999 -4.65951 0
M  V30 657 H 55.4218 -2.94944 -5.34641 0
M  V30 658 H 56.8358 -4.4373 -3.63011 0
M  V30 659 H 55.2328 -5.0886 -3.18091 0
M  V30 660 H 56.3028 -4.45352 -1.91806 0
M  V30 661 N 57.6459 0.756429 -1.3826 0
M  V30 662 C 59.0619 1.0591 -1.19395 0
M  V30 663 C 59.2619 2.01459 -0.0406567 0
M  V30 664 O 58.3179 2.44909 0.614467 0
M  V30 665 C 59.6309 1.64191 -2.51916 0
M  V30 666 C 61.1789 1.76376 -2.58574 0
M  V30 667 C 61.6539 2.38069 -3.91264 0
M  V30 668 N 63.1449 2.45503 -3.92788 0
M  V30 669 C 63.8799 2.94126 -4.92217 0
M  V30 670 N 63.3759 3.42805 -6.02043 0
M  V30 671 N 65.1689 2.9314 -4.7961 0
M  V30 672 H 57.3199 0.122313 -2.12048 0
M  V30 673 H 59.5829 0.116892 -0.940766 0
M  V30 674 H 59.2889 1.01451 -3.3675 0
M  V30 675 H 59.1629 2.6329 -2.70108 0
M  V30 676 H 61.5499 2.38244 -1.74137 0
M  V30 677 H 61.6309 0.759894 -2.44252 0
M  V30 678 H 61.2749 1.76835 -4.76121 0
M  V30 679 H 61.2049 3.39091 -4.02895 0
M  V30 680 H 63.6959 2.1107 -3.13461 0
M  V30 681 H 64.0089 3.78354 -6.73846 0
M  V30 682 H 62.3539 3.4087 -6.05667 0
M  V30 683 H 65.5449 2.54419 -3.92923 0
M  V30 684 H 65.7179 3.30721 -5.5725 0
M  V30 685 N 59.124 1.23083 0.984299 0
M  V30 686 C 60.535 1.05609 1.5396 0
M  V30 687 C 60.886 -0.377793 1.92528 0
M  V30 688 O 60.011 -1.26398 1.75649 0
M  V30 689 C 60.606 1.91087 2.7977 0
M  V30 690 C 59.165 1.77885 3.31713 0
M  V30 691 C 58.312 1.87028 2.04733 0
M  V30 692 H 61.263 1.36802 0.804419 0
M  V30 693 H 61.284 1.43336 3.5247 0
M  V30 694 H 60.796 2.9544 2.51668 0
M  V30 695 H 58.897 0.762995 3.64704 0
M  V30 696 H 59.01 2.61047 4.01735 0
M  V30 697 H 57.374 1.30565 2.18689 0
M  V30 698 H 58.157 2.92929 1.79017 0
M  V30 699 N 60.6021 -1.18246 1.0419 0
M  V30 700 C 61.8271 -1.92736 0.765996 0
M  V30 701 C 62.2521 -1.75728 -0.67091 0
M  V30 702 O 61.6101 -1.06825 -1.46486 0
M  V30 703 C 61.6581 -3.42148 1.13875 0
M  V30 704 O 60.7621 -4.11548 0.264954 0
M  V30 705 H 60.1031 -0.601238 0.281797 0
M  V30 706 H 62.6331 -1.49942 1.39207 0
M  V30 707 H 62.6431 -3.92858 1.1012 0
M  V30 708 H 61.3181 -3.53848 2.18551 0
M  V30 709 H 59.8951 -3.71137 0.362226 0
M  V30 710 N 62.0802 -0.821533 -1.34494 0
M  V30 711 C 63.0102 -0.257138 -2.3208 0
M  V30 712 C 63.9912 0.625645 -1.58176 0
M  V30 713 O 65.1762 0.552811 -1.86166 0
M  V30 714 C 62.3062 0.582958 -3.42372 0
M  V30 715 C 61.2602 -0.202571 -4.2752 0
M  V30 716 C 60.5862 0.760179 -5.29269 0
M  V30 717 C 61.8862 -1.40998 -5.02908 0
M  V30 718 H 63.5802 -1.07247 -2.79532 0
M  V30 719 H 61.1262 -0.517163 -1.34393 0
M  V30 720 H 63.0792 0.987972 -4.09655 0
M  V30 721 H 61.8032 1.43133 -2.93565 0
M  V30 722 H 60.4622 -0.588936 -3.61838 0
M  V30 723 H 60.1102 1.60447 -4.76724 0
M  V30 724 H 59.8102 0.238809 -5.87115 0
M  V30 725 H 61.3342 1.16308 -5.9942 0
M  V30 726 H 62.7482 -1.07905 -5.63054 0
M  V30 727 H 61.1452 -1.86689 -5.70322 0
M  V30 728 H 62.2152 -2.1889 -4.32684 0
M  V30 729 N 63.5583 1.46682 -0.576371 0
M  V30 730 C 64.8073 2.01619 -0.0572825 0
M  V30 731 C 65.1203 1.45417 1.30818 0
M  V30 732 O 66.3263 1.92133 1.91825 0
M  V30 733 C 64.7823 3.59863 -0.0518371 0
M  V30 734 C 64.3903 4.25059 -1.41523 0
M  V30 735 C 66.1343 4.2248 0.413639 0
M  V30 736 C 64.0413 5.75364 -1.36785 0
M  V30 737 H 62.9713 0.753794 -0.0176448 0
M  V30 738 H 65.6223 1.68481 -0.727076 0
M  V30 739 H 64.0043 3.90048 0.683994 0
M  V30 740 H 65.1783 4.06491 -2.17029 0
M  V30 741 H 63.4933 3.7451 -1.8202 0
M  V30 742 H 66.0903 5.3265 0.467779 0
M  V30 743 H 66.4333 3.90976 1.42982 0
M  V30 744 H 66.9663 3.96897 -0.267929 0
M  V30 745 H 63.7053 6.11518 -2.36063 0
M  V30 746 H 63.2253 5.96214 -0.654895 0
M  V30 747 H 64.9043 6.37955 -1.07805 0
M  V30 748 N 65.0364 0.313813 1.54444 0
M  V30 749 C 66.2644 -0.293918 2.04802 0
M  V30 750 C 66.6794 -1.46537 1.19047 0
M  V30 751 O 66.0364 -1.81182 0.218939 0
M  V30 752 C 66.0874 -0.737806 3.53891 0
M  V30 753 O 65.8084 0.387038 4.36387 0
M  V30 754 C 67.3094 -1.40936 4.203 0
M  V30 755 H 64.5294 -0.0620057 0.668129 0
M  V30 756 H 67.0734 0.457169 1.99324 0
M  V30 757 H 65.2284 -1.43889 3.59687 0
M  V30 758 H 65.6424 0.0391274 5.24485 0
M  V30 759 H 67.1164 -1.67099 5.26101 0
M  V30 760 H 67.5934 -2.35355 3.70816 0
M  V30 761 H 68.1994 -0.751117 4.18615 0
M  V30 762 N 66.5145 -1.57545 0.0417849 0
M  V30 763 C 67.7625 -1.91937 -0.632829 0
M  V30 764 C 68.0835 -0.919978 -1.71934 0
M  V30 765 O 67.3535 0.0366064 -1.95866 0
M  V30 766 H 65.9335 -0.708493 -0.236742 0
M  V30 767 H 68.5955 -1.9468 0.0925745 0
M  V30 768 H 67.6915 -2.92912 -1.07746 0
M  V30 769 N 67.9926 0.231505 -1.5589 0
M  V30 770 C 69.2416 0.955346 -1.7764 0
M  V30 771 C 69.5546 1.85893 -0.608546 0
M  V30 772 O 70.7606 2.62067 -0.70943 0
M  V30 773 C 69.2166 1.74886 -3.14552 0
M  V30 774 C 68.8246 0.891915 -4.39032 0
M  V30 775 C 70.5686 2.46452 -3.45633 0
M  V30 776 C 68.4756 1.68221 -5.66971 0
M  V30 777 H 67.4056 0.360446 -0.662265 0
M  V30 778 H 70.0566 0.209516 -1.823 0
M  V30 779 H 68.4386 2.53723 -3.04041 0
M  V30 780 H 69.6126 0.144793 -4.60572 0
M  V30 781 H 67.9276 0.288863 -4.15397 0
M  V30 782 H 70.5246 3.06061 -4.38441 0
M  V30 783 H 70.8676 3.18841 -2.67668 0
M  V30 784 H 71.4006 1.74613 -3.57428 0
M  V30 785 H 68.1396 1.00178 -6.478 0
M  V30 786 H 67.6596 2.4042 -5.49507 0
M  V30 787 H 69.3386 2.24544 -6.06786 0
M  V30 788 N 69.4707 1.49531 0.497807 0
M  V30 789 C 70.4037 1.61043 1.6168 0
M  V30 790 C 71.3817 0.459386 1.55976 0
M  V30 791 O 72.5657 0.675358 1.75986 0
M  V30 792 C 69.6927 1.56833 3.00202 0
M  V30 793 C 68.7387 2.77173 3.24156 0
M  V30 794 S 69.5717 4.38808 3.06933 0
M  V30 795 C 70.7277 4.37248 4.47845 0
M  V30 796 H 70.9607 2.55702 1.51671 0
M  V30 797 H 68.4937 1.38462 0.683201 0
M  V30 798 H 70.4517 1.55089 3.80076 0
M  V30 799 H 69.1127 0.634561 3.07623 0
M  V30 800 H 68.3057 2.70456 4.25288 0
M  V30 801 H 67.9077 2.76346 2.5201 0
M  V30 802 H 70.1997 4.09164 5.39992 0
M  V30 803 H 71.1427 5.38668 4.59612 0
M  V30 804 H 71.5507 3.67286 4.28674 0
M  V30 805 N 70.9488 -0.749086 1.3866 0
M  V30 806 C 71.8958 -1.86291 1.36251 0
M  V30 807 C 72.8658 -1.64578 0.224347 0
M  V30 808 O 74.0508 -1.86181 0.417279 0
M  V30 809 C 71.1908 -3.23644 1.19786 0
M  V30 810 C 70.3038 -3.57158 2.43027 0
M  V30 811 C 69.4388 -4.83838 2.19258 0
M  V30 812 C 68.4778 -5.10152 3.38247 0
M  V30 813 N 67.6148 -6.28029 3.13884 0
M  V30 814 H 72.4548 -1.87685 2.3147 0
M  V30 815 H 69.9918 -0.917287 1.14997 0
M  V30 816 H 71.9498 -4.0291 1.08254 0
M  V30 817 H 70.5798 -3.21566 0.282031 0
M  V30 818 H 69.6318 -2.72701 2.65214 0
M  V30 819 H 70.9438 -3.7253 3.31697 0
M  V30 820 H 70.0978 -5.71057 2.04888 0
M  V30 821 H 68.8368 -4.70614 1.2796 0
M  V30 822 H 67.8418 -4.21401 3.53131 0
M  V30 823 H 69.0668 -5.25271 4.30427 0
M  V30 824 H 67.0128 -6.1612 2.25238 0
M  V30 825 H 66.9298 -6.43922 3.96106 0
M  V30 826 H 68.1978 -7.18124 3.03179 0
M  V30 827 N 72.4269 -1.23603 -0.977757 0
M  V30 828 C 73.7039 -0.977897 -1.69401 0
M  V30 829 C 74.0839 0.502738 -2.05026 0
M  V30 830 O 73.4319 1.47459 -1.74551 0
M  V30 831 C 73.6419 -1.89077 -2.93345 0
M  V30 832 C 74.9899 -2.15579 -3.65802 0
M  V30 833 O 76.0139 -1.86648 -3.03383 0
M  V30 834 O 74.8729 -2.64658 -4.78141 0
M  V30 835 H 71.9669 -0.369025 -0.740101 0
M  V30 836 H 74.5129 -1.34657 -1.03274 0
M  V30 837 H 73.2849 -2.89158 -2.63634 0
M  V30 838 H 72.9079 -1.52463 -3.67207 0
M  V30 839 N 73.905 1.17692 -1.04816 0
M  V30 840 C 75.13 1.92327 -0.776207 0
M  V30 841 C 75.555 1.76082 0.661581 0
M  V30 842 O 74.913 1.076 1.45917 0
M  V30 843 C 74.961 3.41539 -1.15687 0
M  V30 844 O 74.065 4.11402 -0.286775 0
M  V30 845 H 73.406 0.599735 -0.284981 0
M  V30 846 H 75.936 1.49201 -1.4 0
M  V30 847 H 75.946 3.92269 -1.12202 0
M  V30 848 H 74.621 3.52684 -2.20425 0
M  V30 849 H 73.198 3.70939 -0.381903 0
M  V30 850 N 75.3831 0.828654 1.34056 0
M  V30 851 C 76.6311 0.41863 1.97717 0
M  V30 852 C 76.9521 -1.02314 1.66002 0
M  V30 853 O 76.2221 -1.71119 0.953683 0
M  V30 854 H 74.8021 0.151809 0.731412 0
M  V30 855 H 77.4641 1.05936 1.63596 0
M  V30 856 H 76.5601 0.542318 3.07352 0
M  V30 857 N 76.8612 -1.46375 0.584142 0
M  V30 858 C 77.8092 -2.32042 -0.161047 0
M  V30 859 C 78.8032 -1.44569 -0.882966 0
M  V30 860 O 80.0092 -1.61186 -0.801191 0
M  V30 861 H 76.3842 -0.748659 -0.0708033 0
M  V30 862 H 78.3552 -2.92704 0.580269 0
M  V30 863 C 77.1042 -3.27762 -1.1605 0
M  V30 864 H 76.4272 -3.95051 -0.614419 0
M  V30 865 H 77.8672 -3.90481 -1.65228 0
M  V30 866 C 76.3262 -2.53218 -2.22221 0
M  V30 867 O 76.8562 -2.29628 -3.29597 0
M  V30 868 N 75.0622 -2.13756 -1.96868 0
M  V30 869 H 74.6092 -2.33142 -1.09557 0
M  V30 870 H 74.5672 -1.642 -2.68115 0
M  V30 871 N 78.3393 -0.321999 -1.54275 0
M  V30 872 C 79.2863 0.544664 -2.24281 0
M  V30 873 C 80.2563 1.1129 -1.23303 0
M  V30 874 O 81.4413 1.15354 -1.51981 0
M  V30 875 C 78.5813 1.70045 -3.00298 0
M  V30 876 C 77.6943 1.16159 -4.1609 0
M  V30 877 C 76.8293 2.28293 -4.79641 0
M  V30 878 C 75.8683 1.71648 -5.8754 0
M  V30 879 N 75.0053 2.77438 -6.44959 0
M  V30 880 H 79.8453 -0.0588907 -2.97942 0
M  V30 881 H 77.3823 -0.0408345 -1.47043 0
M  V30 882 H 79.3403 2.38054 -3.42616 0
M  V30 883 H 77.9703 2.27531 -2.28975 0
M  V30 884 H 77.0223 0.373092 -3.78566 0
M  V30 885 H 78.3343 0.707087 -4.93763 0
M  V30 886 H 77.4883 3.0421 -5.2492 0
M  V30 887 H 76.2273 2.77079 -4.01346 0
M  V30 888 H 75.2323 0.942282 -5.41665 0
M  V30 889 H 76.4573 1.23741 -6.67731 0
M  V30 890 H 74.4033 3.25519 -5.69538 0
M  V30 891 H 74.3203 2.36547 -7.1804 0
M  V30 892 H 75.5883 3.53189 -6.94894 0
M  V30 893 N 79.8174 1.5752 -0.0501392 0
M  V30 894 C 81.2284 1.80271 0.485705 0
M  V30 895 C 81.5794 0.96228 1.70981 0
M  V30 896 O 80.7044 0.178578 2.15662 0
M  V30 897 C 81.2994 3.26957 0.887938 0
M  V30 898 C 79.8584 3.5063 1.36877 0
M  V30 899 C 79.0054 2.75165 0.343468 0
M  V30 900 H 81.9564 1.56281 -0.276028 0
M  V30 901 H 81.9774 3.37821 1.75093 0
M  V30 902 H 81.4894 3.881 -0.0031809 0
M  V30 903 H 79.5904 2.94766 2.27911 0
M  V30 904 H 79.7034 4.59343 1.36164 0
M  V30 905 H 78.0674 2.4127 0.816128 0
M  V30 906 H 78.8504 3.39034 -0.539548 0
M  V30 907 N 81.2955 -0.223234 1.56011 0
M  V30 908 C 82.7065 -0.790368 1.69145 0
M  V30 909 C 83.0575 -1.85055 0.651845 0
M  V30 910 O 82.1825 -2.15498 -0.197359 0
M  V30 911 C 82.7775 -1.4404 3.06656 0
M  V30 912 C 81.3365 -1.95494 3.2165 0
M  V30 913 C 80.4835 -0.814506 2.65068 0
M  V30 914 H 83.4345 0.00139011 1.587 0
M  V30 915 H 83.4555 -2.30916 3.0242 0
M  V30 916 H 82.9675 -0.668543 3.82298 0
M  V30 917 H 81.0685 -2.75487 2.50874 0
M  V30 918 H 81.1815 -2.13607 4.28846 0
M  V30 919 H 79.5455 -1.22137 2.23505 0
M  V30 920 H 80.3285 -0.0553515 3.43255 0
M  V30 921 N 82.7736 -1.49793 -0.48987 0
M  V30 922 C 84.0216 -1.59525 -1.24081 0
M  V30 923 C 84.3426 -0.288953 -1.92847 0
M  V30 924 O 83.6126 0.692436 -1.83254 0
M  V30 925 H 82.1926 -0.587796 -0.460983 0
M  V30 926 H 84.8546 -1.86477 -0.566778 0
M  V30 927 H 83.9506 -2.39696 -1.99881 0
M  V30 928 N 84.2517 0.741722 -1.39055 0
M  V30 929 C 85.1817 1.869 -1.39966 0
M  V30 930 C 86.1627 1.6804 -0.26392 0
M  V30 931 O 87.3477 1.88458 -0.468755 0
M  V30 932 C 84.4777 3.24572 -1.23574 0
M  V30 933 C 83.4317 3.58056 -2.34477 0
M  V30 934 C 82.7577 4.94593 -2.0318 0
M  V30 935 C 84.0577 3.61716 -3.76774 0
M  V30 936 H 85.7517 1.86395 -2.34302 0
M  V30 937 H 83.2977 0.895361 -1.1278 0
M  V30 938 H 85.2507 4.031 -1.22834 0
M  V30 939 H 83.9747 3.25587 -0.257045 0
M  V30 940 H 82.6337 2.81854 -2.34423 0
M  V30 941 H 82.2817 4.92181 -1.03765 0
M  V30 942 H 81.9817 5.17964 -2.77465 0
M  V30 943 H 83.5057 5.75486 -2.04079 0
M  V30 944 H 84.9197 4.30335 -3.78794 0
M  V30 945 H 83.3167 3.96603 -4.50362 0
M  V30 946 H 84.3867 2.61672 -4.08235 0
M  V30 947 N 85.7298 1.2412 0.971189 0
M  V30 948 C 86.6598 1.05508 2.08304 0
M  V30 949 C 87.6408 -0.0308864 1.70072 0
M  V30 950 O 88.8258 0.135521 1.93727 0
M  V30 951 C 85.9558 0.655365 3.4106 0
M  V30 952 C 84.9098 1.68971 3.93234 0
M  V30 953 C 84.2358 1.14516 5.22293 0
M  V30 954 C 85.5358 3.08487 4.21465 0
M  V30 955 H 87.2298 1.98507 2.24132 0
M  V30 956 H 84.7758 0.955821 1.07704 0
M  V30 957 H 86.7288 0.51217 4.18276 0
M  V30 958 H 85.4528 -0.31032 3.25122 0
M  V30 959 H 84.1118 1.82106 3.18171 0
M  V30 960 H 83.7598 0.170189 5.02712 0
M  V30 961 H 83.4598 1.83635 5.58168 0
M  V30 962 H 84.9838 1.01401 6.02121 0
M  V30 963 H 86.3978 2.98601 4.89398 0
M  V30 964 H 84.7948 3.74926 4.68562 0
M  V30 965 H 85.8648 3.56787 3.28376 0
M  V30 966 N 87.2079 -1.17134 1.05439 0
M  V30 967 C 88.6189 -1.69084 0.791676 0
M  V30 968 C 88.9699 -1.83822 -0.685839 0
M  V30 969 O 88.0949 -1.52757 -1.53278 0
M  V30 970 C 88.6899 -3.07119 1.4305 0
M  V30 971 C 87.2489 -3.56225 1.21577 0
M  V30 972 C 86.3959 -2.32421 1.51247 0
M  V30 973 H 89.3469 -1.01617 1.219 0
M  V30 974 H 89.3679 -3.71087 0.84112 0
M  V30 975 H 88.8799 -2.9636 2.50584 0
M  V30 976 H 86.9809 -3.72257 0.159787 0
M  V30 977 H 87.0939 -4.38837 1.92246 0
M  V30 978 H 85.4579 -2.3701 0.932653 0
M  V30 979 H 86.2409 -2.24268 2.5992 0
M  V30 980 N 88.686 -0.835752 -1.33615 0
M  V30 981 C 90.102 -0.523139 -1.50783 0
M  V30 982 C 90.302 0.950171 -1.77691 0
M  V30 983 O 89.358 1.73411 -1.83534 0
M  V30 984 C 90.671 -1.39378 -2.66448 0
M  V30 985 C 92.219 -1.39223 -2.80332 0
M  V30 986 C 92.694 -2.24765 -3.99055 0
M  V30 987 N 94.185 -2.22458 -4.06284 0
M  V30 988 C 94.92 -2.85386 -4.97336 0
M  V30 989 N 94.416 -3.57354 -5.93523 0
M  V30 990 N 96.209 -2.74872 -4.90308 0
M  V30 991 H 88.36 -1.78952 -1.14411 0
M  V30 992 H 90.623 -0.763297 -0.562212 0
M  V30 993 H 90.329 -2.44061 -2.53234 0
M  V30 994 H 90.203 -1.0676 -3.61776 0
M  V30 995 H 92.59 -0.353136 -2.92979 0
M  V30 996 H 92.671 -1.75846 -1.85773 0
M  V30 997 H 92.315 -3.28732 -3.87167 0
M  V30 998 H 92.245 -1.85485 -4.92852 0
M  V30 999 H 94.736 -1.70119 -3.37443 0
M  V30 1000 H 95.049 -4.02584 -6.59656 0
M  V30 1001 H 93.394 -3.61461 -5.93608 0
M  V30 1002 H 96.585 -2.18213 -4.14126 0
M  V30 1003 H 96.758 -3.24199 -5.61069 0
M  V30 1004 N 90.1641 1.46063 -0.591896 0
M  V30 1005 C 91.1111 2.30399 0.136069 0
M  V30 1006 C 92.0811 1.41169 0.875238 0
M  V30 1007 O 93.2661 1.70112 0.86409 0
M  V30 1008 C 90.4061 3.25804 1.13781 0
M  V30 1009 C 89.5191 4.30134 0.401137 0
M  V30 1010 C 88.6541 5.12659 1.39121 0
M  V30 1011 C 87.6931 6.0873 0.641462 0
M  V30 1012 N 86.8301 6.8409 1.58004 0
M  V30 1013 H 91.6701 2.92118 -0.589144 0
M  V30 1014 H 89.2071 1.43959 -0.302342 0
M  V30 1015 H 91.1651 3.79569 1.73156 0
M  V30 1016 H 89.7951 2.65872 1.83062 0
M  V30 1017 H 88.8471 3.79152 -0.307826 0
M  V30 1018 H 90.1591 4.98458 -0.184565 0
M  V30 1019 H 89.3131 5.70747 2.05749 0
M  V30 1020 H 88.0521 4.44316 2.01084 0
M  V30 1021 H 87.0571 5.49786 -0.0385419 0
M  V30 1022 H 88.2821 6.79095 0.0270945 0
M  V30 1023 H 86.2281 6.18449 2.18761 0
M  V30 1024 H 86.1451 7.48709 1.04738 0
M  V30 1025 H 87.4131 7.4673 2.23639 0
M  V30 1026 N 91.6422 0.330177 1.54103 0
M  V30 1027 C 92.8902 -0.269871 2.0029 0
M  V30 1028 C 93.2112 -1.52133 1.21986 0
M  V30 1029 O 92.4812 -1.93212 0.323438 0
M  V30 1030 H 91.0612 -0.10271 0.739905 0
M  V30 1031 H 93.7232 0.448249 1.89675 0
M  V30 1032 H 92.8192 -0.52166 3.07709 0
M  V30 1033 N 93.1203 -1.57491 0.0584922 0
M  V30 1034 C 94.0503 -2.14988 -0.911178 0
M  V30 1035 C 95.0313 -1.07343 -1.31952 0
M  V30 1036 O 96.2163 -1.35318 -1.39294 0
M  V30 1037 C 93.3463 -2.70078 -2.18347 0
M  V30 1038 C 92.3003 -3.82771 -1.91495 0
M  V30 1039 C 91.6263 -4.24408 -3.25241 0
M  V30 1040 C 92.9263 -5.07592 -1.23075 0
M  V30 1041 H 94.6203 -2.96263 -0.432246 0
M  V30 1042 H 92.1663 -1.42512 -0.206469 0
M  V30 1043 H 94.1193 -3.08943 -2.86587 0
M  V30 1044 H 92.8433 -1.86005 -2.68458 0
M  V30 1045 H 91.5023 -3.44389 -1.25664 0
M  V30 1046 H 91.1503 -3.37275 -3.73168 0
M  V30 1047 H 90.8503 -5.00366 -3.08071 0
M  V30 1048 H 92.3743 -4.65879 -3.94701 0
M  V30 1049 H 93.7883 -5.43857 -1.81362 0
M  V30 1050 H 92.1853 -5.88741 -1.16207 0
M  V30 1051 H 93.2553 -4.84454 -0.207847 0
M  V30 1052 N 94.5984 0.214957 -1.56127 0
M  V30 1053 C 95.8284 0.953707 -1.8327 0
M  V30 1054 C 96.2364 1.78181 -0.636262 0
M  V30 1055 O 95.5794 1.79191 0.404516 0
M  V30 1056 C 95.6414 1.91516 -3.0424 0
M  V30 1057 C 95.3054 1.27094 -4.38972 0
M  V30 1058 C 96.3024 0.657575 -5.15725 0
M  V30 1059 C 93.9874 1.28073 -4.85698 0
M  V30 1060 C 95.9814 0.0625968 -6.37369 0
M  V30 1061 C 93.6684 0.681914 -6.07283 0
M  V30 1062 C 94.6664 0.0739046 -6.8296 0
M  V30 1063 O 94.3544 -0.515582 -8.02245 0
M  V30 1064 H 94.0864 0.284764 -0.613095 0
M  V30 1065 H 96.6404 0.233283 -2.04071 0
M  V30 1066 H 94.8704 2.67475 -2.79274 0
M  V30 1067 H 96.5594 2.52001 -3.18198 0
M  V30 1068 H 97.3254 0.642288 -4.80728 0
M  V30 1069 H 93.2044 1.74337 -4.26764 0
M  V30 1070 H 96.7484 -0.412593 -6.96379 0
M  V30 1071 H 92.6454 0.694636 -6.41752 0
M  V30 1072 H 93.4134 -0.410544 -8.1747 0
M  V30 1073 N 96.0765 1.50051 0.48192 0
M  V30 1074 C 97.0095 1.62749 1.59963 0
M  V30 1075 C 97.9875 0.475903 1.5548 0
M  V30 1076 O 99.1715 0.693986 1.7526 0
M  V30 1077 C 96.2985 1.60008 2.98522 0
M  V30 1078 C 95.3445 2.80596 3.21198 0
M  V30 1079 S 96.1775 4.42038 3.02262 0
M  V30 1080 C 97.3335 4.41973 4.43182 0
M  V30 1081 H 97.5665 2.57296 1.4895 0
M  V30 1082 H 95.0995 1.39179 0.668477 0
M  V30 1083 H 97.0575 1.59112 3.78409 0
M  V30 1084 H 95.7185 0.667153 3.06933 0
M  V30 1085 H 94.9115 2.74952 4.22395 0
M  V30 1086 H 94.5135 2.79003 2.49065 0
M  V30 1087 H 96.8055 4.14868 5.35622 0
M  V30 1088 H 97.7485 5.43512 4.53873 0
M  V30 1089 H 98.1565 3.71812 4.24755 0
M  V30 1090 N 97.5546 -0.734337 1.39446 0
M  V30 1091 C 98.5176 -1.83004 1.37994 0
M  V30 1092 C 99.5176 -1.58397 0.276938 0
M  V30 1093 O 100.708 -1.65785 0.534875 0
M  V30 1094 C 97.8396 -3.20802 1.1532 0
M  V30 1095 H 99.0326 -1.85694 2.35494 0
M  V30 1096 H 96.5856 -0.938059 1.25021 0
M  V30 1097 H 97.3206 -3.23772 0.185036 0
M  V30 1098 H 97.1056 -3.4006 1.95197 0
M  V30 1099 H 98.5956 -4.00862 1.17046 0
M  V30 1100 N 99.0327 -1.24633 -0.964593 0
M  V30 1101 C 99.9807 -1.03917 -2.08096 0
M  V30 1102 C 100.975 0.0268581 -1.69379 0
M  V30 1103 O 102.181 -0.127952 -1.79545 0
M  V30 1104 H 98.5557 -0.319044 -0.680966 0
M  V30 1105 H 100.527 -1.98581 -2.22729 0
M  V30 1106 C 99.2757 -0.663983 -3.41301 0
M  V30 1107 H 98.5987 -1.47605 -3.71555 0
M  V30 1108 H 100.039 -0.558663 -4.20303 0
M  V30 1109 C 98.4977 0.629169 -3.30973 0
M  V30 1110 O 99.0277 1.67404 -3.65156 0
M  V30 1111 N 97.2337 0.611057 -2.84103 0
M  V30 1112 H 96.7807 -0.239593 -2.56483 0
M  V30 1113 H 96.7387 1.47647 -2.77575 0
M  V30 1114 N 100.511 1.16574 -1.06058 0
M  V30 1115 C 101.788 1.83048 -0.689416 0
M  V30 1116 C 102.168 1.94122 0.829443 0
M  V30 1117 O 101.516 1.48249 1.7388 0
M  V30 1118 C 101.726 3.20186 -1.38859 0
M  V30 1119 C 103.074 3.95989 -1.53226 0
M  V30 1120 O 104.098 3.29696 -1.3483 0
M  V30 1121 O 102.957 5.14813 -1.83384 0
M  V30 1122 H 100.051 0.790258 -0.243764 0
M  V30 1123 H 102.597 1.23797 -1.16071 0
M  V30 1124 H 101.369 3.07146 -2.4244 0
M  V30 1125 H 100.992 3.87112 -0.907216 0
M  V30 1126 N 101.989 0.842826 1.3317 0
M  V30 1127 C 102.919 0.294028 2.31641 0
M  V30 1128 C 103.9 -0.600401 1.59151 0
M  V30 1129 O 105.085 -0.523124 1.87022 0
M  V30 1130 C 102.215 -0.528416 3.43257 0
M  V30 1131 C 101.169 0.27056 4.27144 0
M  V30 1132 C 100.495 -0.675881 5.30411 0
M  V30 1133 C 101.795 1.48981 5.00602 0
M  V30 1134 H 103.489 1.11681 2.77791 0
M  V30 1135 H 101.035 0.538478 1.33553 0
M  V30 1136 H 102.988 -0.922674 4.11175 0
M  V30 1137 H 101.712 -1.38445 2.95805 0
M  V30 1138 H 100.371 0.646427 3.60856 0
M  V30 1139 H 100.019 -1.52842 4.79216 0
M  V30 1140 H 99.7189 -0.145374 5.8742 0
M  V30 1141 H 101.243 -1.06757 6.01195 0
M  V30 1142 H 102.657 1.16849 5.61266 0
M  V30 1143 H 101.054 1.95739 5.6728 0
M  V30 1144 H 102.124 2.25746 4.29147 0
M  V30 1145 N 103.467 -1.45747 0.599634 0
M  V30 1146 C 104.414 -2.30467 -0.123849 0
M  V30 1147 C 105.384 -1.41632 -0.86774 0
M  V30 1148 O 106.569 -1.70568 -0.855056 0
M  V30 1149 C 103.709 -3.26402 -1.12051 0
M  V30 1150 C 102.822 -4.3034 -0.37832 0
M  V30 1151 C 101.957 -5.13389 -1.364 0
M  V30 1152 C 100.996 -6.09061 -0.609171 0
M  V30 1153 N 100.133 -6.84918 -1.54374 0
M  V30 1154 H 104.973 -2.91802 0.604627 0
M  V30 1155 H 102.51 -1.43797 0.309972 0
M  V30 1156 H 104.468 -3.80482 -1.7114 0
M  V30 1157 H 103.098 -2.66839 -1.8165 0
M  V30 1158 H 102.15 -3.78984 0.327929 0
M  V30 1159 H 103.462 -4.98354 0.210997 0
M  V30 1160 H 102.616 -5.7183 -2.02719 0
M  V30 1161 H 101.355 -4.45376 -1.98725 0
M  V30 1162 H 100.36 -5.49758 0.0676979 0
M  V30 1163 H 101.585 -6.79099 0.00891991 0
M  V30 1164 H 99.531 -6.19601 -2.15478 0
M  V30 1165 H 99.448 -7.49254 -1.00766 0
M  V30 1166 H 100.716 -7.47906 -2.19676 0
M  V30 1167 N 104.945 -0.338344 -1.53925 0
M  V30 1168 C 105.875 0.51328 -2.27789 0
M  V30 1169 C 106.856 1.107 -1.29149 0
M  V30 1170 O 108.041 1.12937 -1.57984 0
M  V30 1171 C 105.171 1.66697 -3.04679 0
M  V30 1172 C 104.125 1.20183 -4.1078 0
M  V30 1173 C 103.451 2.44363 -4.75595 0
M  V30 1174 C 104.751 0.30605 -5.21403 0
M  V30 1175 H 106.445 -0.102883 -2.99223 0
M  V30 1176 H 103.991 -0.0509219 -1.4391 0
M  V30 1177 H 105.944 2.26915 -3.55088 0
M  V30 1178 H 104.668 2.30995 -2.30887 0
M  V30 1179 H 103.327 0.622499 -3.61276 0
M  V30 1180 H 102.975 3.07057 -3.98403 0
M  V30 1181 H 102.675 2.13925 -5.47275 0
M  V30 1182 H 104.199 3.05317 -5.28786 0
M  V30 1183 H 105.613 0.814929 -5.67478 0
M  V30 1184 H 104.01 0.0937929 -6.00027 0
M  V30 1185 H 105.08 -0.65921 -4.80398 0
M  V30 1186 N 106.423 1.57458 -0.0668435 0
M  V30 1187 C 107.353 2.15468 0.899764 0
M  V30 1188 C 108.334 1.08042 1.31381 0
M  V30 1189 O 109.519 1.36054 1.38574 0
M  V30 1190 C 106.649 2.71232 2.16911 0
M  V30 1191 C 105.603 3.83781 1.89463 0
M  V30 1192 C 104.929 4.26127 3.22986 0
M  V30 1193 C 106.229 5.08238 1.20381 0
M  V30 1194 H 107.923 2.96488 0.416529 0
M  V30 1195 H 105.469 1.4262 0.198908 0
M  V30 1196 H 107.422 3.10458 2.84945 0
M  V30 1197 H 106.146 1.87426 2.67468 0
M  V30 1198 H 104.805 3.45051 1.23836 0
M  V30 1199 H 104.453 3.39249 3.71374 0
M  V30 1200 H 104.153 5.01993 3.05413 0
M  V30 1201 H 105.677 4.67966 3.92225 0
M  V30 1202 H 107.091 5.44811 1.78475 0
M  V30 1203 H 105.488 5.89349 1.13083 0
M  V30 1204 H 106.558 4.84558 0.182153 0
M  V30 1205 N 107.901 -0.206675 1.56239 0
M  V30 1206 C 109.317 -0.557025 1.49564 0
M  V30 1207 C 109.517 -1.86424 0.764735 0
M  V30 1208 O 108.573 -2.50584 0.310491 0
M  V30 1209 C 109.886 -0.622478 2.94186 0
M  V30 1210 C 111.434 -0.712099 3.04792 0
M  V30 1211 C 111.909 -0.808767 4.50803 0
M  V30 1212 N 113.4 -0.8726 4.54907 0
M  V30 1213 C 114.135 -0.967365 5.65181 0
M  V30 1214 N 113.631 -1.02515 6.85173 0
M  V30 1215 N 115.424 -1.00366 5.53067 0
M  V30 1216 H 107.575 0.650943 2.02179 0
M  V30 1217 H 109.838 0.230387 0.919579 0
M  V30 1218 H 109.544 0.268727 3.50672 0
M  V30 1219 H 109.418 -1.4811 3.46905 0
M  V30 1220 H 111.805 -1.59374 2.48363 0
M  V30 1221 H 111.886 0.172489 2.55218 0
M  V30 1222 H 111.53 0.0684754 5.07854 0
M  V30 1223 H 111.46 -1.70899 4.98098 0
M  V30 1224 H 113.951 -0.837657 3.68499 0
M  V30 1225 H 114.264 -1.09765 7.64965 0
M  V30 1226 H 112.609 -0.994026 6.87855 0
M  V30 1227 H 115.8 -0.95527 4.58249 0
M  V30 1228 H 115.973 -1.07405 6.39037 0
M  V30 1229 N 109.379 -1.50304 -0.473955 0
M  V30 1230 C 110.329 -1.65347 -1.56985 0
M  V30 1231 C 111.313 -0.508176 -1.52664 0
M  V30 1232 O 112.505 -0.762446 -1.59737 0
M  V30 1233 C 109.634 -1.74832 -2.95447 0
M  V30 1234 C 108.72 -2.95028 -3.04662 0
M  V30 1235 N 109.111 -4.18747 -2.83698 0
M  V30 1236 C 107.409 -2.93527 -3.35795 0
M  V30 1237 C 108.11 -4.99687 -2.97805 0
M  V30 1238 N 107.086 -4.33585 -3.2788 0
M  V30 1239 H 110.888 -2.58698 -1.39472 0
M  V30 1240 H 108.402 -1.47449 -0.680629 0
M  V30 1241 H 110.399 -1.83712 -3.7424 0
M  V30 1242 H 109.059 -0.826376 -3.14008 0
M  V30 1243 H 110.07 -4.48291 -2.59337 0
M  V30 1244 H 106.747 -2.10821 -3.60362 0
M  V30 1245 H 108.137 -6.08057 -2.85861 0
M  V30 1246 N 110.857 0.726932 -1.39834 0
M  V30 1247 C 111.807 1.83232 -1.35683 0
M  V30 1248 C 112.791 1.59155 -0.236295 0
M  V30 1249 O 113.983 1.70522 -0.474488 0
M  V30 1250 C 111.112 3.21246 -1.21062 0
M  V30 1251 C 110.198 3.51125 -2.37849 0
M  V30 1252 N 110.589 3.51889 -3.63329 0
M  V30 1253 C 108.887 3.81527 -2.30982 0
M  V30 1254 C 109.588 3.79791 -4.40606 0
M  V30 1255 N 108.564 3.97971 -3.70297 0
M  V30 1256 H 112.366 1.8214 -2.30656 0
M  V30 1257 H 109.88 0.925545 -1.33444 0
M  V30 1258 H 111.877 4.00387 -1.16171 0
M  V30 1259 H 110.537 3.23572 -0.270458 0
M  V30 1260 H 111.548 3.33008 -3.96643 0
M  V30 1261 H 108.225 3.91411 -1.45272 0
M  V30 1262 H 109.615 3.86783 -5.49408 0
M  V30 1263 N 112.336 1.25143 0.95797 0
M  V30 1264 C 113.266 1.07711 2.07173 0
M  V30 1265 C 114.247 -0.0128462 1.70095 0
M  V30 1266 O 115.432 0.156061 1.93572 0
M  V30 1267 C 112.562 0.691503 3.40346 0
M  V30 1268 C 111.516 1.73132 3.9142 0
M  V30 1269 C 110.842 1.20049 5.21049 0
M  V30 1270 C 112.142 3.1294 4.1817 0
M  V30 1271 H 113.836 2.00873 2.22014 0
M  V30 1272 H 111.382 0.967191 1.06684 0
M  V30 1273 H 113.335 0.556505 4.17709 0
M  V30 1274 H 112.059 -0.275819 3.25433 0
M  V30 1275 H 110.718 1.8547 3.16222 0
M  V30 1276 H 110.366 0.223499 5.02503 0
M  V30 1277 H 110.066 1.89545 5.56189 0
M  V30 1278 H 111.59 1.07782 6.01012 0
M  V30 1279 H 113.004 3.03775 4.86203 0
M  V30 1280 H 111.401 3.79875 4.64559 0
M  V30 1281 H 112.471 3.6025 3.24573 0
M  V30 1282 N 113.814 -1.1601 1.06675 0
M  V30 1283 C 114.746 -2.20115 0.638921 0
M  V30 1284 C 115.759 -1.59916 -0.305057 0
M  V30 1285 O 116.948 -1.78245 -0.0954446 0
M  V30 1286 C 114.048 -3.38798 -0.0830083 0
M  V30 1287 C 113.221 -4.2855 0.875426 0
M  V30 1288 C 112.28 -5.25849 0.192042 0
M  V30 1289 O 111.306 -5.63102 0.830921 0
M  V30 1290 N 112.508 -5.70648 -1.06493 0
M  V30 1291 H 115.273 -2.57439 1.53444 0
M  V30 1292 H 112.834 -1.31057 0.950557 0
M  V30 1293 H 114.826 -4.00936 -0.550685 0
M  V30 1294 H 113.396 -2.99947 -0.880386 0
M  V30 1295 H 112.616 -3.63617 1.52238 0
M  V30 1296 H 113.904 -4.85393 1.52548 0
M  V30 1297 H 113.302 -5.42482 -1.60405 0
M  V30 1298 H 111.859 -6.34859 -1.47641 0
M  V30 1299 N 115.292 -0.849877 -1.32721 0
M  V30 1300 C 116.541 -0.447175 -1.96681 0
M  V30 1301 C 116.854 1.00135 -1.68025 0
M  V30 1302 O 118.06 1.50926 -2.25685 0
M  V30 1303 C 116.516 -0.7487 -3.52026 0
M  V30 1304 C 116.124 -2.21264 -3.89546 0
M  V30 1305 C 117.868 -0.413487 -4.22481 0
M  V30 1306 C 115.775 -2.45763 -5.37917 0
M  V30 1307 H 114.705 -0.163486 -0.736063 0
M  V30 1308 H 117.356 -1.03999 -1.51183 0
M  V30 1309 H 115.738 -0.0853727 -3.95908 0
M  V30 1310 H 116.912 -2.91736 -3.56689 0
M  V30 1311 H 115.227 -2.5119 -3.32103 0
M  V30 1312 H 117.824 -0.574017 -5.3161 0
M  V30 1313 H 118.167 0.644492 -4.11281 0
M  V30 1314 H 118.7 -1.03251 -3.84167 0
M  V30 1315 H 115.439 -3.50168 -5.54132 0
M  V30 1316 H 114.959 -1.79864 -5.72197 0
M  V30 1317 H 116.638 -2.29471 -6.0494 0
M  V30 1318 N 116.77 1.45427 -0.607355 0
M  V30 1319 C 118.181 1.85756 -0.187535 0
M  V30 1320 C 118.532 1.5077 1.25551 0
M  V30 1321 O 117.657 0.93427 1.95193 0
M  V30 1322 C 118.252 3.37154 -0.333572 0
M  V30 1323 C 116.811 3.76387 0.0315542 0
M  V30 1324 C 115.958 2.69377 -0.658117 0
M  V30 1325 H 118.909 1.36231 -0.81405 0
M  V30 1326 H 118.93 3.78014 0.43428 0
M  V30 1327 H 118.442 3.62586 -1.38393 0
M  V30 1328 H 116.543 3.56571 1.0811 0
M  V30 1329 H 116.656 4.77731 -0.361935 0
M  V30 1330 H 115.02 2.5452 -0.0957873 0
M  V30 1331 H 115.803 2.97646 -1.7106 0
M  V30 1332 N 118.248 0.346503 1.53744 0
M  V30 1333 C 119.497 -0.250122 2.00143 0
M  V30 1334 C 119.81 -1.51418 1.23822 0
M  V30 1335 O 121.016 -2.18823 1.60713 0
M  V30 1336 C 119.472 -0.496252 3.56462 0
M  V30 1337 C 119.08 0.752077 4.41642 0
M  V30 1338 C 120.824 -1.05157 4.11269 0
M  V30 1339 C 118.731 0.476583 5.89477 0
M  V30 1340 H 117.661 -0.0972409 0.747703 0
M  V30 1341 H 120.312 0.46229 1.77581 0
M  V30 1342 H 118.694 -1.26944 3.75102 0
M  V30 1343 H 119.868 1.5266 4.34778 0
M  V30 1344 H 118.183 1.22925 3.97842 0
M  V30 1345 H 120.78 -1.27269 5.19333 0
M  V30 1346 H 121.123 -2.00799 3.64672 0
M  V30 1347 H 121.656 -0.339019 3.96353 0
M  V30 1348 H 118.395 1.4028 6.40314 0
M  V30 1349 H 117.915 -0.259794 5.99237 0
M  V30 1350 H 119.594 0.0949315 6.4693 0
M  V30 1351 N 119.726 -1.57421 0.075193 0
M  V30 1352 C 120.676 -2.09441 -0.901025 0
M  V30 1353 C 121.66 -1.00486 -1.25663 0
M  V30 1354 O 122.852 -1.2679 -1.23504 0
M  V30 1355 C 119.981 -2.66233 -2.16737 0
M  V30 1356 C 119.067 -3.82198 -1.83808 0
M  V30 1357 N 119.458 -4.91028 -1.21345 0
M  V30 1358 C 117.756 -3.91558 -2.13538 0
M  V30 1359 C 118.457 -5.71852 -1.06585 0
M  V30 1360 N 117.433 -5.20233 -1.57667 0
M  V30 1361 H 121.235 -2.90972 -0.413815 0
M  V30 1362 H 118.749 -1.6189 -0.128601 0
M  V30 1363 H 120.746 -3.01819 -2.87595 0
M  V30 1364 H 119.406 -1.8615 -2.66042 0
M  V30 1365 H 120.417 -5.10323 -0.88268 0
M  V30 1366 H 117.094 -3.22454 -2.65197 0
M  V30 1367 H 118.484 -6.69401 -0.578933 0
M  V30 1368 N 121.204 0.198386 -1.56346 0
M  V30 1369 C 122.451 0.919286 -1.80431 0
M  V30 1370 C 122.779 1.83393 -0.647866 0
M  V30 1371 O 122.034 1.92236 0.366556 0
M  V30 1372 C 122.333 1.77031 -3.10475 0
M  V30 1373 C 121.999 1.00693 -4.39513 0
M  V30 1374 C 120.661 0.796145 -4.74568 0
M  V30 1375 C 123.013 0.469559 -5.19081 0
M  V30 1376 C 120.341 0.0364588 -5.86689 0
M  V30 1377 C 122.693 -0.2769 -6.31994 0
M  V30 1378 C 121.357 -0.49873 -6.65634 0
M  V30 1379 H 120.627 0.336391 -0.660244 0
M  V30 1380 H 123.274 0.185872 -1.90596 0
M  V30 1381 H 121.579 2.5723 -2.95533 0
M  V30 1382 H 123.276 2.33065 -3.26315 0
M  V30 1383 H 119.866 1.18122 -4.12001 0
M  V30 1384 H 124.05 0.619816 -4.92414 0
M  V30 1385 H 119.306 -0.145412 -6.11227 0
M  V30 1386 H 123.48 -0.700684 -6.92866 0
M  V30 1387 H 121.107 -1.0893 -7.52355 0
M  V30 1388 N 122.682 1.50554 0.465978 0
M  V30 1389 C 124.093 1.54599 1.04671 0
M  V30 1390 C 124.444 0.352488 1.93008 0
M  V30 1391 O 123.569 -0.534044 2.09707 0
M  V30 1392 C 124.164 2.80166 1.90505 0
M  V30 1393 C 122.723 2.86876 2.43678 0
M  V30 1394 C 121.87 2.48947 1.22151 0
M  V30 1395 H 124.821 1.56744 0.248384 0
M  V30 1396 H 124.842 2.62311 2.75633 0
M  V30 1397 H 124.354 3.67013 1.26186 0
M  V30 1398 H 122.455 2.04393 3.11536 0
M  V30 1399 H 122.568 3.89885 2.78436 0
M  V30 1400 H 120.932 2.01498 1.5579 0
M  V30 1401 H 121.715 3.38107 0.594866 0
M  V30 1402 N 124.16 -0.719506 1.40217 0
M  V30 1403 C 125.107 -1.83359 1.40172 0
M  V30 1404 C 126.077 -1.64065 0.259206 0
M  V30 1405 O 127.262 -1.85254 0.456677 0
M  V30 1406 C 124.402 -3.2103 1.26624 0
M  V30 1407 C 123.515 -3.51923 2.50548 0
M  V30 1408 C 122.65 -4.79079 2.29471 0
M  V30 1409 C 121.689 -5.02863 3.48992 0
M  V30 1410 N 120.826 -6.2123 3.27135 0
M  V30 1411 H 125.666 -1.82733 2.35399 0
M  V30 1412 H 123.203 -0.892688 1.16917 0
M  V30 1413 H 125.161 -4.00524 1.16776 0
M  V30 1414 H 123.791 -3.20895 0.350176 0
M  V30 1415 H 122.843 -2.67014 2.70939 0
M  V30 1416 H 124.155 -3.6541 3.39525 0
M  V30 1417 H 123.309 -5.66582 2.16955 0
M  V30 1418 H 122.048 -4.67794 1.37913 0
M  V30 1419 H 121.053 -4.13816 3.6199 0
M  V30 1420 H 122.278 -5.16023 4.41472 0
M  V30 1421 H 120.224 -6.11204 2.38256 0
M  V30 1422 H 120.141 -6.35375 4.09675 0
M  V30 1423 H 121.409 -7.11532 3.18344 0
M  V30 1424 N 125.638 -1.25649 -0.95132 0
M  V30 1425 C 126.915 -1.01361 -1.67288 0
M  V30 1426 C 127.295 0.459135 -2.06046 0
M  V30 1427 O 126.643 1.43723 -1.7764 0
M  V30 1428 C 126.853 -1.95256 -2.89268 0
M  V30 1429 C 128.201 -2.23289 -3.61147 0
M  V30 1430 O 129.225 -1.93041 -2.99355 0
M  V30 1431 O 128.084 -2.74741 -4.72419 0
M  V30 1432 H 125.178 -0.38464 -0.732107 0
M  V30 1433 H 127.724 -1.36817 -1.00395 0
M  V30 1434 H 126.496 -2.94685 -2.57442 0
M  V30 1435 H 126.119 -1.60218 -3.6389 0
M  V30 1436 N 127.117 1.15442 -1.07289 0
M  V30 1437 C 128.364 1.86213 -0.795668 0
M  V30 1438 C 128.692 1.82291 0.678238 0
M  V30 1439 O 127.947 1.24057 1.51355 0
M  V30 1440 C 128.246 3.3489 -1.24834 0
M  V30 1441 C 127.912 3.59007 -2.72809 0
M  V30 1442 C 126.574 3.65298 -3.13227 0
M  V30 1443 C 128.926 3.68762 -3.68326 0
M  V30 1444 C 126.254 3.78854 -4.4798 0
M  V30 1445 C 128.606 3.83842 -5.0284 0
M  V30 1446 C 127.27 3.88378 -5.4288 0
M  V30 1447 H 126.54 0.681403 -0.291155 0
M  V30 1448 H 129.187 1.36435 -1.34379 0
M  V30 1449 H 127.492 3.8687 -0.619595 0
M  V30 1450 H 129.189 3.88052 -1.01076 0
M  V30 1451 H 125.779 3.5475 -2.40521 0
M  V30 1452 H 129.963 3.63202 -3.38227 0
M  V30 1453 H 125.219 3.80623 -4.78472 0
M  V30 1454 H 129.393 3.90332 -5.76727 0
M  V30 1455 H 127.02 3.98635 -6.47298 0
M  V30 1456 N 128.595 0.856903 1.32268 0
M  V30 1457 C 129.525 0.31858 2.31316 0
M  V30 1458 C 130.506 -0.583487 1.59779 0
M  V30 1459 O 131.691 -0.503259 1.87566 0
M  V30 1460 C 128.821 -0.491979 3.43798 0
M  V30 1461 C 127.775 0.315849 4.26833 0
M  V30 1462 C 127.101 -0.619586 5.31098 0
M  V30 1463 C 128.401 1.54282 4.98993 0
M  V30 1464 H 130.095 1.14621 2.76591 0
M  V30 1465 H 127.641 0.552613 1.32974 0
M  V30 1466 H 129.594 -0.879012 4.1213 0
M  V30 1467 H 128.318 -1.35299 2.97257 0
M  V30 1468 H 126.977 0.684664 3.6015 0
M  V30 1469 H 126.625 -1.47751 4.8081 0
M  V30 1470 H 126.325 -0.0830621 5.87541 0
M  V30 1471 H 127.849 -1.00375 6.02293 0
M  V30 1472 H 129.263 1.22796 5.59995 0
M  V30 1473 H 127.66 2.01745 5.65172 0
M  V30 1474 H 128.73 2.30285 4.26728 0
M  V30 1475 N 130.073 -1.45103 0.615059 0
M  V30 1476 C 131.298 -2.07064 0.117988 0
M  V30 1477 C 131.723 -1.4554 -1.19163 0
M  V30 1478 O 131.081 -0.550855 -1.72729 0
M  V30 1479 C 131.129 -3.606 -0.000288387 0
M  V30 1480 O 130.233 -3.98847 -1.04856 0
M  V30 1481 H 129.574 -0.659467 0.0774581 0
M  V30 1482 H 132.104 -1.86236 0.847186 0
M  V30 1483 H 132.114 -4.07529 -0.196091 0
M  V30 1484 H 130.789 -4.04765 0.955932 0
M  V30 1485 H 129.366 -3.63577 -0.828619 0
M  V30 1486 N 131.551 -0.354651 -1.53558 0
M  V30 1487 C 132.797 0.238797 -2.01389 0
M  V30 1488 C 133.13 1.49309 -1.2418 0
M  V30 1489 O 132.405 1.91638 -0.332457 0
M  V30 1490 C 132.688 0.541771 -3.56001 0
M  V30 1491 C 132.541 -0.725388 -4.43912 0
M  V30 1492 C 133.86 1.34685 -4.18984 0
M  V30 1493 H 130.979 0.0853177 -0.732045 0
M  V30 1494 H 133.621 -0.477384 -1.83905 0
M  V30 1495 H 131.771 1.15189 -3.71031 0
M  V30 1496 H 133.443 -1.36313 -4.407 0
M  V30 1497 H 131.686 -1.34801 -4.12324 0
M  V30 1498 H 132.357 -0.468505 -5.50008 0
M  V30 1499 H 134.833 0.830837 -4.07721 0
M  V30 1500 H 133.709 1.52759 -5.27215 0
M  V30 1501 H 133.97 2.35221 -3.74331 0
M  V30 1502 N 133.029 1.57378 -0.0835403 0
M  V30 1503 C 133.962 2.09016 0.915833 0
M  V30 1504 C 134.94 0.997993 1.2837 0
M  V30 1505 O 136.124 1.27219 1.39096 0
M  V30 1506 C 133.251 2.55757 2.22049 0
M  V30 1507 C 132.297 3.76522 2.00333 0
M  V30 1508 S 133.13 5.20661 1.25191 0
M  V30 1509 C 134.286 5.70743 2.56912 0
M  V30 1510 H 134.519 2.93457 0.476492 0
M  V30 1511 H 132.052 1.53856 0.129493 0
M  V30 1512 H 134.01 2.83346 2.97027 0
M  V30 1513 H 132.671 1.71564 2.63106 0
M  V30 1514 H 131.864 4.07256 2.96916 0
M  V30 1515 H 131.466 3.49367 1.33488 0
M  V30 1516 H 133.758 5.78304 3.52946 0
M  V30 1517 H 134.701 6.6944 2.30772 0
M  V30 1518 H 135.109 4.98616 2.64655 0
M  V30 1519 N 134.507 -0.190092 1.56449 0
M  V30 1520 C 135.437 -1.23816 1.97969 0
M  V30 1521 C 136.418 -1.47201 0.852395 0
M  V30 1522 O 137.603 -1.58854 1.1171 0
M  V30 1523 C 134.733 -2.5813 2.3235 0
M  V30 1524 C 133.687 -2.49348 3.47864 0
M  V30 1525 C 133.013 -3.8798 3.67934 0
M  V30 1526 C 134.313 -2.01424 4.81898 0
M  V30 1527 H 136.007 -0.89311 2.85769 0
M  V30 1528 H 133.553 -0.428177 1.37487 0
M  V30 1529 H 135.506 -3.31637 2.59991 0
M  V30 1530 H 134.23 -2.94386 1.41438 0
M  V30 1531 H 132.889 -1.78297 3.20321 0
M  V30 1532 H 132.537 -4.21597 2.74344 0
M  V30 1533 H 132.237 -3.82978 4.45648 0
M  V30 1534 H 133.761 -4.63101 3.97957 0
M  V30 1535 H 135.175 -2.64693 5.08538 0
M  V30 1536 H 133.572 -2.07413 5.63116 0
M  V30 1537 H 134.642 -0.967677 4.75146 0
M  V30 1538 N 135.985 -1.50799 -0.457987 0
M  V30 1539 C 136.895 -1.73426 -1.57989 0
M  V30 1540 C 137.911 -0.617745 -1.62665 0
M  V30 1541 O 139.087 -0.897614 -1.80291 0
M  V30 1542 C 136.152 -1.83557 -2.94122 0
M  V30 1543 C 135.213 -3.07345 -2.99729 0
M  V30 1544 C 134.446 -3.16983 -4.29368 0
M  V30 1545 O 134.669 -2.33077 -5.20607 0
M  V30 1546 O 133.603 -4.09812 -4.40837 0
M  V30 1547 H 137.429 -2.68555 -1.41817 0
M  V30 1548 H 135.014 -1.35052 -0.638859 0
M  V30 1549 H 136.896 -1.92326 -3.74952 0
M  V30 1550 H 135.571 -0.916137 -3.10465 0
M  V30 1551 H 134.478 -3.04068 -2.1793 0
M  V30 1552 H 135.811 -3.9891 -2.88326 0
M  V30 1553 N 137.463 0.71206 -1.40597 0
M  V30 1554 C 138.41 1.82613 -1.41142 0
M  V30 1555 C 139.38 1.63925 -0.267903 0
M  V30 1556 O 140.565 1.85009 -0.466495 0
M  V30 1557 C 137.705 3.20354 -1.28324 0
M  V30 1558 C 136.818 3.50589 -2.52411 0
M  V30 1559 C 135.953 4.77855 -2.32009 0
M  V30 1560 C 134.992 5.01005 -3.51654 0
M  V30 1561 N 134.129 6.19487 -3.30425 0
M  V30 1562 H 138.969 1.81482 -2.36365 0
M  V30 1563 H 136.506 0.886475 -1.17388 0
M  V30 1564 H 138.464 3.99899 -1.18899 0
M  V30 1565 H 137.094 3.20705 -0.367189 0
M  V30 1566 H 136.146 2.65573 -2.72351 0
M  V30 1567 H 137.458 3.63604 -3.41458 0
M  V30 1568 H 136.612 5.65424 -2.19956 0
M  V30 1569 H 135.351 4.67056 -1.40392 0
M  V30 1570 H 134.356 4.1189 -3.64179 0
M  V30 1571 H 135.581 5.13674 -4.44202 0
M  V30 1572 H 133.527 6.09932 -2.41494 0
M  V30 1573 H 133.444 6.33194 -4.13039 0
M  V30 1574 H 134.712 7.09834 -3.22113 0
M  V30 1575 N 138.941 1.26152 0.944643 0
M  V30 1576 C 140.189 1.11271 1.6871 0
M  V30 1577 C 140.51 -0.345166 1.91921 0
M  V30 1578 O 139.78 -1.24387 1.51343 0
M  V30 1579 H 138.36 0.408783 0.625224 0
M  V30 1580 H 141.022 1.58427 1.1352 0
M  V30 1581 H 140.118 1.62879 2.66227 0
M  V30 1582 N 140.419 -1.14872 1.07899 0
M  V30 1583 C 141.644 -1.90202 0.826926 0
M  V30 1584 C 142.069 -1.77774 -0.614664 0
M  V30 1585 O 141.427 -1.11431 -1.43013 0
M  V30 1586 C 141.475 -3.38352 1.24702 0
M  V30 1587 O 140.579 -4.10497 0.39575 0
M  V30 1588 H 139.92 -0.591968 0.300782 0
M  V30 1589 H 142.45 -1.45437 1.43907 0
M  V30 1590 H 142.46 -3.89156 1.22563 0
M  V30 1591 H 141.135 -3.46715 2.29698 0
M  V30 1592 H 139.712 -3.69796 0.480117 0
M  V30 1593 N 141.898 -0.863906 -1.31812 0
M  V30 1594 C 142.828 -0.330843 -2.31144 0
M  V30 1595 C 143.809 0.575005 -1.60087 0
M  V30 1596 O 144.994 0.493304 -1.8783 0
M  V30 1597 C 142.124 0.47374 -3.44054 0
M  V30 1598 C 141.078 -0.338481 -4.26659 0
M  V30 1599 C 140.404 0.591412 -5.31419 0
M  V30 1600 C 141.704 -1.56926 -4.98168 0
M  V30 1601 H 143.398 -1.16086 -2.75979 0
M  V30 1602 H 140.944 -0.559657 -1.32679 0
M  V30 1603 H 142.897 0.857143 -4.12591 0
M  V30 1604 H 141.621 1.33721 -2.9797 0
M  V30 1605 H 140.28 -0.703754 -3.59782 0
M  V30 1606 H 139.928 1.45199 -4.81587 0
M  V30 1607 H 139.628 0.0519022 -5.87577 0
M  V30 1608 H 141.152 0.97179 -6.02817 0
M  V30 1609 H 142.566 -1.25764 -5.59336 0
M  V30 1610 H 140.963 -2.04739 -5.64094 0
M  V30 1611 H 142.033 -2.32544 -4.25501 0
M  V30 1612 N 143.376 1.44774 -0.622745 0
M  V30 1613 C 144.601 2.06999 -0.128968 0
M  V30 1614 C 145.026 1.4617 1.1839 0
M  V30 1615 O 144.384 0.560007 1.72434 0
M  V30 1616 C 144.432 3.60595 -0.0188351 0
M  V30 1617 O 143.536 3.99398 1.02739 0
M  V30 1618 H 142.877 0.659047 -0.0809544 0
M  V30 1619 H 145.407 1.85784 -0.85705 0
M  V30 1620 H 145.417 4.07627 0.174476 0
M  V30 1621 H 144.092 4.04252 -0.977384 0
M  V30 1622 H 142.669 3.64011 0.809326 0
M  V30 1623 N 144.854 0.36279 1.53368 0
M  V30 1624 C 145.817 -0.472679 2.24273 0
M  V30 1625 C 146.817 -1.012 1.24961 0
M  V30 1626 O 148.007 -0.898194 1.49259 0
M  V30 1627 C 145.139 -1.66039 2.97731 0
M  V30 1628 H 146.332 0.14773 2.99536 0
M  V30 1629 H 143.885 0.114434 1.55881 0
M  V30 1630 H 144.62 -2.31896 2.26704 0
M  V30 1631 H 144.405 -1.28066 3.70596 0
M  V30 1632 H 145.895 -2.25252 3.51641 0
M  V30 1633 N 146.332 -1.57332 0.0918853 0
M  V30 1634 C 147.265 -2.09499 -0.904735 0
M  V30 1635 C 148.243 -1.00479 -1.27839 0
M  V30 1636 O 149.427 -1.27954 -1.38419 0
M  V30 1637 C 146.554 -2.56931 -2.2069 0
M  V30 1638 C 145.6 -3.77579 -1.98334 0
M  V30 1639 S 146.433 -5.21317 -1.22428 0
M  V30 1640 C 147.589 -5.72097 -2.53882 0
M  V30 1641 H 147.822 -2.93705 -0.460922 0
M  V30 1642 H 145.355 -1.53923 -0.121332 0
M  V30 1643 H 147.313 -2.84917 -2.95521 0
M  V30 1644 H 145.974 -1.72956 -2.62192 0
M  V30 1645 H 145.167 -4.08824 -2.94752 0
M  V30 1646 H 144.769 -3.5007 -1.31633 0
M  V30 1647 H 147.061 -5.80168 -3.49874 0
M  V30 1648 H 148.004 -6.70654 -2.27219 0
M  V30 1649 H 148.412 -5.00012 -2.62007 0
M  V30 1650 N 147.81 0.181792 -1.56548 0
M  V30 1651 C 149.226 0.53316 -1.50431 0
M  V30 1652 C 149.426 1.85184 -0.794297 0
M  V30 1653 O 148.482 2.50058 -0.350318 0
M  V30 1654 C 149.795 0.575597 -2.9514 0
M  V30 1655 C 151.343 0.663519 -3.05886 0
M  V30 1656 C 151.818 0.736946 -4.52032 0
M  V30 1657 N 153.309 0.800118 -4.56237 0
M  V30 1658 C 154.044 0.877327 -5.66649 0
M  V30 1659 N 153.54 0.916016 -6.86718 0
M  V30 1660 N 155.333 0.915542 -5.54594 0
M  V30 1661 H 147.484 -0.683025 -2.01118 0
M  V30 1662 H 149.747 -0.244988 -0.915797 0
M  V30 1663 H 149.453 -0.324482 -3.502 0
M  V30 1664 H 149.327 1.42572 -3.49218 0
M  V30 1665 H 151.714 1.55403 -2.50867 0
M  V30 1666 H 151.795 -0.21307 -2.54911 0
M  V30 1667 H 151.439 -0.149262 -5.07681 0
M  V30 1668 H 151.369 1.62953 -5.00753 0
M  V30 1669 H 153.86 0.778926 -3.69785 0
M  V30 1670 H 154.173 0.975813 -7.66614 0
M  V30 1671 H 152.518 0.884469 -6.89349 0
M  V30 1672 H 155.709 0.882245 -4.59711 0
M  V30 1673 H 155.882 0.972253 -6.40665 0
M  V30 1674 N 149.288 1.51039 0.449983 0
M  V30 1675 C 150.535 1.63081 1.20045 0
M  V30 1676 C 150.863 0.341024 1.91487 0
M  V30 1677 O 150.118 -0.674276 1.83717 0
M  V30 1678 C 150.417 2.77556 2.25161 0
M  V30 1679 C 150.083 4.17289 1.70823 0
M  V30 1680 C 148.745 4.55305 1.55725 0
M  V30 1681 C 151.097 5.04536 1.3074 0
M  V30 1682 C 148.425 5.78287 0.989999 0
M  V30 1683 C 150.777 6.28085 0.754482 0
M  V30 1684 C 149.441 6.64885 0.590308 0
M  V30 1685 H 148.711 0.596755 0.439277 0
M  V30 1686 H 151.358 1.85037 0.49333 0
M  V30 1687 H 149.663 2.49771 3.01863 0
M  V30 1688 H 151.36 2.84073 2.83026 0
M  V30 1689 H 147.95 3.8731 1.83546 0
M  V30 1690 H 152.134 4.75782 1.41229 0
M  V30 1691 H 147.39 6.05456 0.850451 0
M  V30 1692 H 151.564 6.95038 0.435324 0
M  V30 1693 H 149.191 7.60055 0.14862 0
M  V30 1694 N 150.766 -0.704594 1.40972 0
M  V30 1695 C 151.696 -1.83124 1.44872 0
M  V30 1696 C 152.677 -1.67281 0.30838 0
M  V30 1697 O 153.862 -1.87149 0.518556 0
M  V30 1698 C 150.992 -3.21181 1.32136 0
M  V30 1699 C 149.946 -3.51714 2.43888 0
M  V30 1700 C 149.272 -4.89032 2.16222 0
M  V30 1701 C 150.572 -3.516 3.86232 0
M  V30 1702 H 152.266 -1.80117 2.39161 0
M  V30 1703 H 149.812 -0.865145 1.15114 0
M  V30 1704 H 151.765 -3.99702 1.33479 0
M  V30 1705 H 150.489 -3.24791 0.343279 0
M  V30 1706 H 149.148 -2.75539 2.41813 0
M  V30 1707 H 148.796 -4.89256 1.16778 0
M  V30 1708 H 148.496 -5.10426 2.911 0
M  V30 1709 H 150.02 -5.69873 2.19265 0
M  V30 1710 H 151.434 -4.2014 3.9007 0
M  V30 1711 H 149.831 -3.84523 4.60719 0
M  V30 1712 H 150.901 -2.50757 4.15029 0
M  V30 1713 N 152.244 -1.26651 -0.937939 0
M  V30 1714 C 153.472 -1.15173 -1.7188 0
M  V30 1715 C 153.887 0.292668 -1.86518 0
M  V30 1716 O 153.244 1.20014 -1.37488 0
M  V30 1717 C 153.295 -1.81925 -3.12387 0
M  V30 1718 O 153.016 -3.2072 -2.98446 0
M  V30 1719 C 154.517 -1.76442 -4.06673 0
M  V30 1720 H 151.737 -0.400911 -0.538063 0
M  V30 1721 H 154.281 -1.67332 -1.1756 0
M  V30 1722 H 152.436 -1.33696 -3.63599 0
M  V30 1723 H 152.85 -3.53802 -3.872 0
M  V30 1724 H 154.324 -2.27781 -5.02812 0
M  V30 1725 H 154.801 -0.731608 -4.33064 0
M  V30 1726 H 155.407 -2.24238 -3.61382 0
M  V30 1727 N 153.722 1.14298 -1.08507 0
M  V30 1728 C 154.685 2.17607 -0.719711 0
M  V30 1729 C 155.685 1.58907 0.245997 0
M  V30 1730 O 156.875 1.74181 0.0254081 0
M  V30 1731 C 154.007 3.40842 -0.0627695 0
M  V30 1732 H 155.2 2.51443 -1.63452 0
M  V30 1733 H 152.753 1.28963 -0.88307 0
M  V30 1734 H 153.488 3.12587 0.863716 0
M  V30 1735 H 153.273 3.84713 -0.757504 0
M  V30 1736 H 154.763 4.17221 0.177786 0
M  V30 1737 N 155.201 0.870884 1.31352 0
M  V30 1738 C 156.447 0.482987 1.96965 0
M  V30 1739 C 156.78 -0.962462 1.68672 0
M  V30 1740 O 156.055 -1.6779 0.98371 0
M  V30 1741 C 156.338 0.741752 3.52378 0
M  V30 1742 C 156.191 2.2368 3.9024 0
M  V30 1743 C 157.51 0.208838 4.39604 0
M  V30 1744 H 154.629 0.176955 0.715441 0
M  V30 1745 H 157.271 1.09229 1.55464 0
M  V30 1746 H 155.421 0.223149 3.87859 0
M  V30 1747 H 157.093 2.82273 3.64856 0
M  V30 1748 H 155.336 2.70901 3.38814 0
M  V30 1749 H 156.007 2.3685 4.98604 0
M  V30 1750 H 158.483 0.652529 4.10952 0
M  V30 1751 H 157.359 0.419336 5.47296 0
M  V30 1752 H 157.62 -0.889275 4.33064 0
M  V30 1753 N 156.679 -1.44442 0.630414 0
M  V30 1754 C 157.627 -2.32437 -0.0871428 0
M  V30 1755 C 158.621 -1.47304 -0.836525 0
M  V30 1756 O 159.827 -1.63653 -0.749506 0
M  V30 1757 H 156.202 -0.750533 -0.0469495 0
M  V30 1758 H 158.173 -2.90709 0.673096 0
M  V30 1759 C 156.922 -3.31288 -1.05563 0
M  V30 1760 H 156.245 -3.96805 -0.488426 0
M  V30 1761 H 157.685 -3.9554 -1.52721 0
M  V30 1762 C 156.144 -2.6016 -2.14052 0
M  V30 1763 O 156.674 -2.39997 -3.22124 0
M  V30 1764 N 154.88 -2.19911 -1.89967 0
M  V30 1765 H 154.427 -2.36509 -1.02085 0
M  V30 1766 H 154.385 -1.72646 -2.62756 0
M  V30 1767 N 158.157 -0.370918 -1.53173 0
M  V30 1768 C 159.087 0.464847 -2.28826 0
M  V30 1769 C 160.068 1.07936 -1.31468 0
M  V30 1770 O 161.253 1.0956 -1.60344 0
M  V30 1771 C 158.383 1.60196 -3.08147 0
M  V30 1772 C 157.337 1.11443 -4.13237 0
M  V30 1773 C 156.663 2.3422 -4.80672 0
M  V30 1774 C 157.963 0.195384 -5.21934 0
M  V30 1775 H 159.657 -0.166329 -2.98938 0
M  V30 1776 H 157.203 -0.0814359 -1.4377 0
M  V30 1777 H 159.156 2.19332 -3.59822 0
M  V30 1778 H 157.88 2.26045 -2.35735 0
M  V30 1779 H 156.539 0.545727 -3.62515 0
M  V30 1780 H 156.187 2.98537 -4.04827 0
M  V30 1781 H 155.887 2.02269 -5.51689 0
M  V30 1782 H 157.411 2.94032 -5.35143 0
M  V30 1783 H 158.825 0.694375 -5.69079 0
M  V30 1784 H 157.222 -0.0335027 -6.00091 0
M  V30 1785 H 158.292 -0.760961 -4.78892 0
M  V30 1786 N 159.635 1.57281 -0.100228 0
M  V30 1787 C 160.545 2.17833 0.870965 0
M  V30 1788 C 161.561 1.14921 1.30649 0
M  V30 1789 O 162.737 1.47313 1.37335 0
M  V30 1790 C 159.802 2.75085 2.1102 0
M  V30 1791 C 158.863 3.9297 1.72838 0
M  V30 1792 C 158.096 4.47482 2.90854 0
M  V30 1793 O 158.319 4.00922 4.05731 0
M  V30 1794 O 157.253 5.38433 2.69023 0
M  V30 1795 H 161.079 3.0124 0.38575 0
M  V30 1796 H 158.664 1.48881 0.124397 0
M  V30 1797 H 160.546 3.11656 2.83634 0
M  V30 1798 H 159.221 1.94721 2.58584 0
M  V30 1799 H 158.128 3.61201 0.973883 0
M  V30 1800 H 159.461 4.74713 1.30033 0
M  V30 1801 N 161.113 -0.173488 1.56642 0
M  V30 1802 C 162.063 -1.21941 1.92651 0
M  V30 1803 C 163.047 -1.39912 0.794577 0
M  V30 1804 O 164.239 -1.41919 1.05773 0
M  V30 1805 C 161.368 -2.55935 2.28806 0
M  V30 1806 C 160.454 -2.41667 3.48508 0
M  V30 1807 N 160.845 -1.9711 4.65813 0
M  V30 1808 C 159.143 -2.72499 3.53072 0
M  V30 1809 C 159.844 -1.95253 5.47952 0
M  V30 1810 N 158.82 -2.37575 4.88937 0
M  V30 1811 H 162.622 -0.866581 2.80834 0
M  V30 1812 H 160.136 -0.381776 1.57849 0
M  V30 1813 H 162.133 -3.31511 2.52797 0
M  V30 1814 H 160.793 -2.92022 1.41961 0
M  V30 1815 H 161.804 -1.67481 4.90072 0
M  V30 1816 H 158.481 -3.12639 2.767 0
M  V30 1817 H 159.871 -1.6252 6.51948 0
M  V30 1818 N 162.591 -1.51276 -0.441967 0
M  V30 1819 C 164.002 -1.56244 -1.02199 0
M  V30 1820 C 164.353 -0.383149 -1.92422 0
M  V30 1821 O 163.478 0.500613 -2.1053 0
M  V30 1822 C 164.073 -2.83162 -1.86024 0
M  V30 1823 C 162.632 -2.90716 -2.39084 0
M  V30 1824 C 161.779 -2.50858 -1.18175 0
M  V30 1825 H 164.73 -1.5712 -0.223416 0
M  V30 1826 H 164.751 -2.66663 -2.71425 0
M  V30 1827 H 164.263 -3.68974 -1.20331 0
M  V30 1828 H 162.364 -2.09323 -3.08244 0
M  V30 1829 H 162.477 -3.94266 -2.72198 0
M  V30 1830 H 160.841 -2.03951 -1.52565 0
M  V30 1831 H 161.624 -3.3901 -0.541001 0
M  V30 1832 N 164.069 0.697108 -1.41344 0
M  V30 1833 C 164.979 1.84088 -1.45427 0
M  V30 1834 C 165.995 1.70545 -0.34501 0
M  V30 1835 O 167.171 1.92488 -0.592492 0
M  V30 1836 C 164.236 3.20056 -1.33286 0
M  V30 1837 C 163.297 3.45718 -2.54514 0
M  V30 1838 C 162.53 4.75199 -2.42944 0
M  V30 1839 O 162.753 5.51579 -1.45318 0
M  V30 1840 O 161.687 5.0161 -3.32672 0
M  V30 1841 H 165.513 1.836 -2.41919 0
M  V30 1842 H 163.098 0.849966 -1.22866 0
M  V30 1843 H 164.98 4.01236 -1.28794 0
M  V30 1844 H 163.655 3.2123 -0.39909 0
M  V30 1845 H 162.562 2.64474 -2.64583 0
M  V30 1846 H 163.895 3.49356 -3.46715 0
M  V30 1847 N 165.547 1.27147 0.931209 0
M  V30 1848 C 166.48 1.0389 2.0318 0
M  V30 1849 C 167.458 -0.0395716 1.62552 0
M  V30 1850 O 168.642 0.104867 1.88208 0
M  V30 1851 C 165.769 0.575227 3.3378 0
M  V30 1852 C 164.815 1.64774 3.93385 0
M  V30 1853 S 165.648 3.23933 4.26413 0
M  V30 1854 C 166.804 2.79358 5.60098 0
M  V30 1855 H 167.037 1.97075 2.22596 0
M  V30 1856 H 164.57 1.10938 1.07387 0
M  V30 1857 H 166.528 0.314385 4.09294 0
M  V30 1858 H 165.189 -0.336505 3.12292 0
M  V30 1859 H 164.382 1.27454 4.87618 0
M  V30 1860 H 163.984 1.86048 3.24441 0
M  V30 1861 H 166.276 2.24443 6.39243 0
M  V30 1862 H 167.219 3.72322 6.02314 0
M  V30 1863 H 167.627 2.1861 5.20452 0
M  V30 1864 N 167.025 -1.13721 1.09112 0
M  V30 1865 C 167.955 -2.21148 0.749385 0
M  V30 1866 C 168.936 -1.6792 -0.271475 0
M  V30 1867 O 170.121 -1.93693 -0.140251 0
M  V30 1868 C 167.251 -3.46905 0.165659 0
M  V30 1869 C 166.205 -4.13203 1.11567 0
M  V30 1870 C 165.531 -5.33248 0.393809 0
M  V30 1871 C 166.831 -4.60912 2.45678 0
M  V30 1872 H 168.525 -2.4999 1.64758 0
M  V30 1873 H 166.071 -1.20156 0.793626 0
M  V30 1874 H 168.024 -4.21313 -0.085466 0
M  V30 1875 H 166.748 -3.17449 -0.767714 0
M  V30 1876 H 165.407 -3.40758 1.35202 0
M  V30 1877 H 165.055 -5.00054 -0.543599 0
M  V30 1878 H 164.755 -5.78552 1.02721 0
M  V30 1879 H 166.279 -6.10413 0.150908 0
M  V30 1880 H 167.693 -5.26759 2.26269 0
M  V30 1881 H 166.09 -5.16944 3.04776 0
M  V30 1882 H 167.16 -3.75603 3.06677 0
M  V30 1883 N 168.503 -0.877838 -1.30888 0
M  V30 1884 C 169.413 -0.343096 -2.32078 0
M  V30 1885 C 170.429 0.551022 -1.65045 0
M  V30 1886 O 171.605 0.445854 -1.96403 0
M  V30 1887 C 168.67 0.439905 -3.43898 0
M  V30 1888 C 167.731 -0.483111 -4.26573 0
M  V30 1889 C 166.964 0.262616 -5.33053 0
M  V30 1890 O 167.187 1.48967 -5.50604 0
M  V30 1891 O 166.121 -0.383593 -6.00676 0
M  V30 1892 H 169.947 -1.18203 -2.79753 0
M  V30 1893 H 167.532 -0.64145 -1.34929 0
M  V30 1894 H 169.414 0.883504 -4.12034 0
M  V30 1895 H 168.089 1.25526 -2.98371 0
M  V30 1896 H 166.996 -0.975374 -3.61161 0
M  V30 1897 H 168.329 -1.26427 -4.75686 0
M  V30 1898 N 169.982 1.44106 -0.638065 0
M  V30 1899 C 170.929 2.30715 0.062701 0
M  V30 1900 C 171.899 1.43882 0.829883 0
M  V30 1901 O 173.084 1.72775 0.809532 0
M  V30 1902 C 170.224 3.29258 1.03358 0
M  V30 1903 C 169.337 4.31192 0.26409 0
M  V30 1904 C 168.472 5.16825 1.22741 0
M  V30 1905 C 167.511 6.10462 0.447475 0
M  V30 1906 N 166.648 6.8877 1.36161 0
M  V30 1907 H 171.488 2.90096 -0.681781 0
M  V30 1908 H 169.025 1.42925 -0.347988 0
M  V30 1909 H 170.983 3.84886 1.60992 0
M  V30 1910 H 169.613 2.71562 1.74511 0
M  V30 1911 H 168.665 3.77981 -0.428295 0
M  V30 1912 H 169.977 4.97619 -0.343052 0
M  V30 1913 H 169.131 5.77004 1.87487 0
M  V30 1914 H 167.87 4.50488 1.86847 0
M  V30 1915 H 166.875 5.49386 -0.213433 0
M  V30 1916 H 168.1 6.78837 -0.188968 0
M  V30 1917 H 166.046 6.25096 1.98975 0
M  V30 1918 H 165.963 7.51663 0.808656 0
M  V30 1919 H 167.231 7.53467 1.99769 0
M  V30 1920 N 171.46 0.379036 1.52974 0
M  V30 1921 C 172.423 -0.448865 2.24762 0
M  V30 1922 C 173.423 -0.998689 1.26027 0
M  V30 1923 O 174.613 -0.882313 1.50203 0
M  V30 1924 C 171.745 -1.62872 2.99476 0
M  V30 1925 H 172.938 0.179491 2.99362 0
M  V30 1926 H 170.491 0.13096 1.5575 0
M  V30 1927 H 171.226 -2.29479 2.29151 0
M  V30 1928 H 171.011 -1.24128 3.71934 0
M  V30 1929 H 172.501 -2.2151 3.5401 0
M  V30 1930 N 172.938 -1.57226 0.108567 0
M  V30 1931 C 174.163 -1.99604 -0.563303 0
M  V30 1932 C 174.588 -0.987563 -1.6009 0
M  V30 1933 O 173.946 0.0421687 -1.81251 0
M  V30 1934 C 173.994 -3.40902 -1.17552 0
M  V30 1935 O 173.098 -3.42896 -2.2912 0
M  V30 1936 H 172.439 -0.648704 -0.1417 0
M  V30 1937 H 174.969 -2.03679 0.193961 0
M  V30 1938 H 174.979 -3.78886 -1.51357 0
M  V30 1939 H 173.654 -4.1382 -0.415445 0
M  V30 1940 H 172.231 -3.1672 -1.96832 0
M  V30 1941 N 174.416 0.165178 -1.56732 0
M  V30 1942 C 175.832 0.517174 -1.50988 0
M  V30 1943 C 176.032 1.84331 -0.813894 0
M  V30 1944 O 175.088 2.49672 -0.37682 0
M  V30 1945 C 176.401 0.544261 -2.95733 0
M  V30 1946 C 177.949 0.631039 -3.06573 0
M  V30 1947 C 178.424 0.68896 -4.52788 0
M  V30 1948 N 179.915 0.751683 -4.5706 0
M  V30 1949 C 180.65 0.817177 -5.67547 0
M  V30 1950 N 180.146 0.843129 -6.8765 0
M  V30 1951 N 181.939 0.856668 -5.55534 0
M  V30 1952 H 174.09 -0.704318 -2.00382 0
M  V30 1953 H 176.353 -0.254687 -0.913148 0
M  V30 1954 H 176.059 -0.361607 -3.49836 0
M  V30 1955 H 175.933 1.3886 -3.5071 0
M  V30 1956 H 178.32 1.52733 -2.52501 0
M  V30 1957 H 178.401 -0.240095 -2.54671 0
M  V30 1958 H 178.045 -0.2031 -5.07494 0
M  V30 1959 H 177.975 1.57633 -5.02454 0
M  V30 1960 H 180.466 0.739661 -3.70591 0
M  V30 1961 H 180.779 0.894448 -7.67606 0
M  V30 1962 H 179.124 0.811304 -6.90248 0
M  V30 1963 H 182.315 0.833437 -4.60621 0
M  V30 1964 H 182.488 0.904247 -6.4166 0
M  V30 1965 N 175.894 1.51508 0.433938 0
M  V30 1966 C 176.804 1.75917 1.5521 0
M  V30 1967 C 177.82 0.643545 1.61662 0
M  V30 1968 O 178.996 0.926183 1.7884 0
M  V30 1969 C 176.061 1.88213 2.91164 0
M  V30 1970 C 175.122 3.12074 2.94802 0
M  V30 1971 C 174.355 3.23774 4.24271 0
M  V30 1972 O 174.578 2.4133 5.16833 0
M  V30 1973 O 173.512 4.16774 4.34262 0
M  V30 1974 H 177.338 2.70777 1.37527 0
M  V30 1975 H 174.923 1.36051 0.617293 0
M  V30 1976 H 176.805 1.98267 3.71845 0
M  V30 1977 H 175.48 0.965413 3.08968 0
M  V30 1978 H 174.387 3.07497 2.13065 0
M  V30 1979 H 175.72 4.03446 2.81943 0
M  V30 1980 N 177.372 -0.689602 1.41712 0
M  V30 1981 C 178.302 -1.81577 1.46806 0
M  V30 1982 C 179.283 -1.66945 0.326105 0
M  V30 1983 O 180.468 -1.86588 0.538377 0
M  V30 1984 C 177.598 -3.19762 1.35535 0
M  V30 1985 C 176.552 -3.49107 2.47605 0
M  V30 1986 C 175.878 -4.86711 2.21397 0
M  V30 1987 C 177.178 -3.47483 3.89939 0
M  V30 1988 H 178.872 -1.7757 2.41058 0
M  V30 1989 H 176.418 -0.852887 1.16025 0
M  V30 1990 H 178.371 -3.98263 1.3771 0
M  V30 1991 H 177.095 -3.24409 0.377708 0
M  V30 1992 H 175.754 -2.72959 2.44722 0
M  V30 1993 H 175.402 -4.8799 1.21961 0
M  V30 1994 H 175.102 -5.0731 2.96497 0
M  V30 1995 H 176.626 -5.67515 2.25297 0
M  V30 1996 H 178.04 -4.1598 3.94505 0
M  V30 1997 H 176.437 -3.79615 4.64771 0
M  V30 1998 H 177.507 -2.46341 4.17665 0
M  V30 1999 N 178.85 -1.27639 -0.924453 0
M  V30 2000 C 180.096 -1.15345 -1.67532 0
M  V30 2001 C 180.451 0.297096 -1.90092 0
M  V30 2002 O 179.744 1.21374 -1.48253 0
M  V30 2003 C 179.938 -1.87407 -3.04325 0
M  V30 2004 C 179.767 -3.3932 -2.95114 0
M  V30 2005 C 178.537 -4.08644 -2.97218 0
M  V30 2006 C 180.735 -4.35242 -2.73987 0
M  V30 2007 N 178.717 -5.47102 -2.78482 0
M  V30 2008 C 180.088 -5.6099 -2.63988 0
M  V30 2009 C 182.143 -4.25294 -2.589 0
M  V30 2010 C 180.846 -6.77924 -2.40442 0
M  V30 2011 C 182.872 -5.41952 -2.36731 0
M  V30 2012 C 182.234 -6.66658 -2.27478 0
M  V30 2013 H 178.333 -0.47696 -0.619704 0
M  V30 2014 H 180.917 -1.6115 -1.09265 0
M  V30 2015 H 179.088 -1.44053 -3.60699 0
M  V30 2016 H 180.82 -1.6759 -3.68369 0
M  V30 2017 H 177.575 -3.60136 -3.07569 0
M  V30 2018 H 177.999 -6.19852 -2.72236 0
M  V30 2019 H 182.641 -3.29598 -2.64811 0
M  V30 2020 H 180.359 -7.73699 -2.3327 0
M  V30 2021 H 183.945 -5.36137 -2.25938 0
M  V30 2022 H 182.825 -7.55405 -2.10555 0
M  V30 2023 N 180.328 1.1314 -1.09713 0
M  V30 2024 C 181.261 2.17735 -0.683137 0
M  V30 2025 C 182.239 1.59582 0.311841 0
M  V30 2026 O 183.423 1.87298 0.212514 0
M  V30 2027 C 180.55 3.38699 -0.00684324 0
M  V30 2028 C 179.596 4.1546 -0.964102 0
M  V30 2029 S 180.429 4.74733 -2.47767 0
M  V30 2030 C 181.585 5.9904 -1.81387 0
M  V30 2031 H 181.818 2.52515 -1.56918 0
M  V30 2032 H 179.351 1.24484 -0.913404 0
M  V30 2033 H 181.309 4.08765 0.377044 0
M  V30 2034 H 179.97 3.02214 0.85589 0
M  V30 2035 H 179.163 5.02093 -0.43803 0
M  V30 2036 H 178.765 3.51066 -1.28953 0
M  V30 2037 H 181.057 6.67846 -1.13967 0
M  V30 2038 H 182 6.56261 -2.65947 0
M  V30 2039 H 182.408 5.4976 -1.28155 0
M  V30 2040 N 181.806 0.884767 1.30421 0
M  V30 2041 C 183.222 0.57874 1.48737 0
M  V30 2042 C 183.422 -0.883567 1.81095 0
M  V30 2043 O 182.478 -1.6648 1.89844 0
M  V30 2044 C 183.791 1.49171 2.61091 0
M  V30 2045 C 185.339 1.49532 2.74971 0
M  V30 2046 C 185.814 2.39421 3.90438 0
M  V30 2047 N 187.305 2.37383 3.97748 0
M  V30 2048 C 188.04 3.03647 4.86401 0
M  V30 2049 N 187.536 3.79136 5.79852 0
M  V30 2050 N 189.329 2.9288 4.79768 0
M  V30 2051 H 181.48 1.83075 1.0769 0
M  V30 2052 H 183.743 0.783637 0.533495 0
M  V30 2053 H 183.449 2.53291 2.44001 0
M  V30 2054 H 183.323 1.20113 3.57565 0
M  V30 2055 H 185.71 0.46163 2.91467 0
M  V30 2056 H 185.791 1.8262 1.79119 0
M  V30 2057 H 185.435 3.42874 3.74699 0
M  V30 2058 H 185.365 2.03649 4.85628 0
M  V30 2059 H 187.856 1.82525 3.30897 0
M  V30 2060 H 188.169 4.26789 6.4426 0
M  V30 2061 H 186.514 3.83243 5.79784 0
M  V30 2062 H 189.705 2.33433 4.05742 0
M  V30 2063 H 189.878 3.448 5.4865 0
M  V30 2064 N 183.284 -1.43765 0.645699 0
M  V30 2065 C 184.53 -2.02197 0.156271 0
M  V30 2066 C 184.863 -1.50776 -1.22393 0
M  V30 2067 O 184.138 -0.697771 -1.81553 0
M  V30 2068 C 184.421 -3.59749 0.158872 0
M  V30 2069 C 184.274 -4.21419 1.57245 0
M  V30 2070 C 185.593 -4.37149 -0.50879 0
M  V30 2071 H 182.712 -0.734694 0.0582602 0
M  V30 2072 H 185.354 -1.71157 0.824951 0
M  V30 2073 H 183.504 -3.86325 -0.410525 0
M  V30 2074 H 185.176 -4.059 2.19186 0
M  V30 2075 H 183.419 -3.78356 2.122 0
M  V30 2076 H 184.09 -5.30482 1.52619 0
M  V30 2077 H 186.566 -4.16093 -0.024412 0
M  V30 2078 H 185.442 -5.4683 -0.476213 0
M  V30 2079 H 185.703 -4.12839 -1.58165 0
M  V30 2080 N 184.763 -0.387143 -1.52771 0
M  V30 2081 C 186.009 0.188506 -2.02525 0
M  V30 2082 C 186.364 1.44649 -1.26864 0
M  V30 2083 O 185.657 1.88189 -0.359945 0
M  V30 2084 C 185.851 0.512209 -3.53711 0
M  V30 2085 C 185.68 -0.712855 -4.44014 0
M  V30 2086 C 184.45 -1.23147 -4.90064 0
M  V30 2087 C 186.648 -1.58453 -4.89282 0
M  V30 2088 N 184.63 -2.41431 -5.64433 0
M  V30 2089 C 186.001 -2.61381 -5.6221 0
M  V30 2090 C 188.056 -1.60488 -4.71326 0
M  V30 2091 C 186.759 -3.66227 -6.19088 0
M  V30 2092 C 188.785 -2.6424 -5.29085 0
M  V30 2093 C 188.147 -3.6589 -6.01917 0
M  V30 2094 H 184.246 0.0311236 -0.78138 0
M  V30 2095 H 186.83 -0.536548 -1.87161 0
M  V30 2096 H 185.001 1.20632 -3.69192 0
M  V30 2097 H 186.733 1.07482 -3.90166 0
M  V30 2098 H 183.488 -0.792795 -4.66917 0
M  V30 2099 H 183.912 -3.01274 -6.0627 0
M  V30 2100 H 188.554 -0.83247 -4.14524 0
M  V30 2101 H 186.272 -4.44337 -6.74974 0
M  V30 2102 H 189.858 -2.66695 -5.17074 0
M  V30 2103 H 188.738 -4.44855 -6.45813 0
M  V30 2104 N 186.241 1.57166 -0.116904 0
M  V30 2105 C 187.466 1.999 0.55271 0
M  V30 2106 C 187.891 0.996039 1.59564 0
M  V30 2107 O 187.249 -0.032556 1.81271 0
M  V30 2108 C 187.297 3.4152 1.15742 0
M  V30 2109 O 186.401 3.44106 2.27299 0
M  V30 2110 H 185.742 0.649447 0.138258 0
M  V30 2111 H 188.272 2.03573 -0.204759 0
M  V30 2112 H 188.282 3.79684 1.49346 0
M  V30 2113 H 186.957 4.14034 0.393493 0
M  V30 2114 H 185.534 3.17759 1.9515 0
M  V30 2115 N 187.719 -0.156864 1.56817 0
M  V30 2116 C 189.135 -0.50916 1.5126 0
M  V30 2117 C 189.335 -1.83897 0.823658 0
M  V30 2118 O 188.391 -2.49469 0.390055 0
M  V30 2119 C 189.704 -0.52857 2.96018 0
M  V30 2120 C 191.252 -0.614771 3.06903 0
M  V30 2121 C 191.727 -0.664938 4.53147 0
M  V30 2122 N 193.218 -0.727433 4.57452 0
M  V30 2123 C 193.953 -0.787067 5.67973 0
M  V30 2124 N 193.449 -0.806649 6.88088 0
M  V30 2125 N 195.242 -0.827195 5.5598 0
M  V30 2126 H 187.393 0.714935 2.00006 0
M  V30 2127 H 189.656 0.259526 0.911784 0
M  V30 2128 H 189.362 0.380154 3.49639 0
M  V30 2129 H 189.236 -1.36998 3.51442 0
M  V30 2130 H 191.623 -1.51392 2.53307 0
M  V30 2131 H 191.704 0.253597 2.5454 0
M  V30 2132 H 191.348 0.230011 5.07379 0
M  V30 2133 H 191.278 -1.54966 5.03282 0
M  V30 2134 H 193.769 -0.719998 3.70978 0
M  V30 2135 H 194.082 -0.853727 7.6807 0
M  V30 2136 H 192.427 -0.774687 6.90669 0
M  V30 2137 H 195.618 -0.808998 4.61056 0
M  V30 2138 H 195.791 -0.870206 6.4213 0
M  V30 2139 N 189.197 -1.51736 -0.425897 0
M  V30 2140 C 190.145 -1.74464 -1.53834 0
M  V30 2141 C 191.139 -0.611241 -1.57988 0
M  V30 2142 O 192.345 -0.792899 -1.61596 0
M  V30 2143 H 188.72 -0.551437 -0.511293 0
M  V30 2144 H 190.691 -2.67694 -1.31843 0
M  V30 2145 C 189.44 -1.8972 -2.91379 0
M  V30 2146 H 188.763 -2.76344 -2.88919 0
M  V30 2147 H 190.203 -2.09629 -3.68553 0
M  V30 2148 C 188.662 -0.65992 -3.30374 0
M  V30 2149 O 189.192 0.180083 -4.01296 0
M  V30 2150 N 187.398 -0.500677 -2.86254 0
M  V30 2151 H 186.945 -1.18532 -2.28709 0
M  V30 2152 H 186.903 0.325903 -3.12706 0
M  V30 2153 N 190.675 0.682077 -1.42076 0
M  V30 2154 C 191.585 1.82535 -1.47371 0
M  V30 2155 C 192.601 1.7017 -0.363079 0
M  V30 2156 O 193.777 1.91848 -0.612875 0
M  V30 2157 C 190.842 3.18624 -1.36674 0
M  V30 2158 C 189.903 3.42999 -2.58167 0
M  V30 2159 C 189.136 4.72595 -2.4797 0
M  V30 2160 O 189.359 5.50006 -1.5116 0
M  V30 2161 O 188.293 4.98054 -3.37974 0
M  V30 2162 H 192.119 1.81023 -2.43853 0
M  V30 2163 H 189.704 0.836887 -1.2376 0
M  V30 2164 H 191.586 3.99847 -1.33043 0
M  V30 2165 H 190.261 3.20789 -0.433138 0
M  V30 2166 H 189.168 2.61653 -2.67373 0
M  V30 2167 H 190.501 3.45659 -3.50401 0
M  V30 2168 N 192.153 1.28127 0.917671 0
M  V30 2169 C 193.43 1.05761 1.64542 0
M  V30 2170 C 193.81 -0.404344 2.07191 0
M  V30 2171 O 193.158 -1.38963 1.81388 0
M  V30 2172 C 193.368 2.02857 2.83989 0
M  V30 2173 C 194.716 2.32786 3.551 0
M  V30 2174 O 195.74 2.0091 2.94132 0
M  V30 2175 O 194.599 2.87169 4.64969 0
M  V30 2176 H 191.693 0.403916 0.721652 0
M  V30 2177 H 194.239 1.39431 0.967322 0
M  V30 2178 H 193.011 3.01407 2.49538 0
M  V30 2179 H 192.634 1.69809 3.59514 0
M  V30 2180 N 193.631 -1.12557 1.10312 0
M  V30 2181 C 194.88 -1.83395 0.839588 0
M  V30 2182 C 195.193 -1.84939 -0.636929 0
M  V30 2183 O 196.399 -2.51761 -1.01631 0
M  V30 2184 C 194.855 -3.29303 1.45215 0
M  V30 2185 C 194.463 -3.36122 2.96186 0
M  V30 2186 C 196.207 -4.05121 1.26796 0
M  V30 2187 C 194.114 -4.76357 3.50483 0
M  V30 2188 H 193.044 -0.687133 0.310425 0
M  V30 2189 H 195.695 -1.26746 1.32694 0
M  V30 2190 H 194.077 -3.85812 0.892469 0
M  V30 2191 H 195.251 -2.89559 3.58458 0
M  V30 2192 H 193.566 -2.73776 3.13745 0
M  V30 2193 H 196.163 -5.08668 1.64806 0
M  V30 2194 H 196.506 -4.15773 0.209409 0
M  V30 2195 H 197.039 -3.54967 1.79563 0
M  V30 2196 H 193.778 -4.70899 4.55998 0
M  V30 2197 H 193.298 -5.23377 2.92978 0
M  V30 2198 H 194.977 -5.45294 3.48228 0
M  V30 2199 N 195.109 -0.891671 -1.2995 0
M  V30 2200 C 196.337 -0.52866 -2.00032 0
M  V30 2201 C 196.752 0.884574 -1.66795 0
M  V30 2202 O 196.109 1.5827 -0.908669 0
M  V30 2203 C 196.16 -0.701814 -3.54622 0
M  V30 2204 O 195.881 -2.05942 -3.86678 0
M  V30 2205 C 197.382 -0.342683 -4.41973 0
M  V30 2206 H 194.602 -0.203659 -0.639347 0
M  V30 2207 H 197.146 -1.19881 -1.65677 0
M  V30 2208 H 195.301 -0.0789468 -3.8732 0
M  V30 2209 H 195.715 -2.08291 -4.81368 0
M  V30 2210 H 197.189 -0.514709 -5.49595 0
M  V30 2211 H 197.666 0.71975 -4.33262 0
M  V30 2212 H 198.272 -0.942154 -4.14733 0
M  V30 2213 N 196.587 1.43421 -0.653314 0
M  V30 2214 C 197.497 2.34568 0.0388565 0
M  V30 2215 C 198.513 1.53888 0.81207 0
M  V30 2216 O 199.689 1.86539 0.759294 0
M  V30 2217 C 196.754 3.32167 0.993269 0
M  V30 2218 C 195.815 4.28751 0.216977 0
M  V30 2219 C 195.048 5.21688 1.12593 0
M  V30 2220 O 195.271 5.19052 2.36519 0
M  V30 2221 O 194.205 5.98919 0.598284 0
M  V30 2222 H 198.031 2.95251 -0.711386 0
M  V30 2223 H 195.616 1.43564 -0.413502 0
M  V30 2224 H 197.498 3.92183 1.54176 0
M  V30 2225 H 196.173 2.73987 1.72374 0
M  V30 2226 H 195.08 3.72215 -0.375101 0
M  V30 2227 H 196.413 4.89913 -0.473924 0
M  V30 2228 N 198.065 0.39524 1.52563 0
M  V30 2229 C 199.476 -0.0774719 1.86539 0
M  V30 2230 C 199.827 -1.45641 1.31466 0
M  V30 2231 O 198.952 -2.06459 0.648367 0
M  V30 2232 C 199.547 -0.147356 3.38479 0
M  V30 2233 C 198.106 -0.564373 3.72145 0
M  V30 2234 C 197.253 0.269919 2.75983 0
M  V30 2235 H 200.204 0.612876 1.46388 0
M  V30 2236 H 200.225 -0.965343 3.68051 0
M  V30 2237 H 199.737 0.856387 3.78534 0
M  V30 2238 H 197.838 -1.57527 3.37663 0
M  V30 2239 H 197.951 -0.318402 4.78041 0
M  V30 2240 H 196.315 -0.265696 2.5331 0
M  V30 2241 H 197.098 1.27175 3.18875 0
M  V30 2242 N 199.544 -1.57102 0.125237 0
M  V30 2243 C 200.476 -2.12726 -0.853237 0
M  V30 2244 C 201.489 -1.07145 -1.22571 0
M  V30 2245 O 202.678 -1.34497 -1.17358 0
M  V30 2246 C 199.778 -2.61709 -2.15317 0
M  V30 2247 C 198.951 -3.91456 -1.95143 0
M  V30 2248 C 198.01 -4.25973 -3.08923 0
M  V30 2249 O 197.036 -4.94682 -2.81564 0
M  V30 2250 N 198.238 -3.83795 -4.35524 0
M  V30 2251 H 201.003 -2.97307 -0.377964 0
M  V30 2252 H 198.564 -1.61792 -0.0590011 0
M  V30 2253 H 200.556 -2.81826 -2.90441 0
M  V30 2254 H 199.126 -1.81974 -2.54174 0
M  V30 2255 H 198.346 -3.80185 -1.04177 0
M  V30 2256 H 199.634 -4.76283 -1.78976 0
M  V30 2257 H 199.032 -3.2839 -4.60626 0
M  V30 2258 H 197.589 -4.09008 -5.07499 0
M  V30 2259 N 201.022 0.148545 -1.56898 0
M  V30 2260 C 202.247 0.880385 -1.87787 0
M  V30 2261 C 202.672 1.74018 -0.714093 0
M  V30 2262 O 202.03 1.78153 0.336343 0
M  V30 2263 C 202.078 1.71422 -3.17249 0
M  V30 2264 O 201.182 2.8183 -3.01074 0
M  V30 2265 H 200.523 0.245301 -0.617028 0
M  V30 2266 H 203.053 0.139826 -2.04122 0
M  V30 2267 H 203.063 2.10954 -3.49231 0
M  V30 2268 H 201.738 1.08284 -4.01556 0
M  V30 2269 H 200.315 2.45715 -2.80497 0
M  V30 2270 N 202.5 1.5196 0.417844 0
M  V30 2271 C 203.749 1.6482 1.16264 0
M  V30 2272 C 204.062 0.379886 1.91876 0
M  V30 2273 O 205.268 0.388154 2.68711 0
M  V30 2274 C 203.724 2.91161 2.1155 0
M  V30 2275 C 203.332 4.25068 1.41495 0
M  V30 2276 C 205.076 3.13383 2.86341 0
M  V30 2277 C 202.983 5.42541 2.35379 0
M  V30 2278 H 201.913 0.613954 0.437694 0
M  V30 2279 H 204.564 1.78442 0.427871 0
M  V30 2280 H 202.946 2.71218 2.88543 0
M  V30 2281 H 204.12 4.55463 0.699263 0
M  V30 2282 H 202.435 4.0888 0.787792 0
M  V30 2283 H 205.032 3.98324 3.5671 0
M  V30 2284 H 205.375 2.27256 3.48798 0
M  V30 2285 H 205.908 3.33757 2.1645 0
M  V30 2286 H 202.647 6.30987 1.77582 0
M  V30 2287 H 202.167 5.16497 3.04945 0
M  V30 2288 H 203.846 5.75272 2.96093 0
M  V30 2289 N 203.978 -0.674533 1.42435 0
M  V30 2290 C 204.908 -1.80009 1.48724 0
M  V30 2291 C 205.889 -1.6659 0.343793 0
M  V30 2292 O 207.074 -1.86007 0.558137 0
M  V30 2293 C 204.204 -3.18306 1.38919 0
M  V30 2294 C 203.158 -3.46461 2.51294 0
M  V30 2295 C 202.484 -4.84335 2.26547 0
M  V30 2296 C 203.784 -3.43328 3.93603 0
M  V30 2297 H 205.478 -1.75004 2.42928 0
M  V30 2298 H 203.024 -0.840533 1.16923 0
M  V30 2299 H 204.977 -3.9678 1.41927 0
M  V30 2300 H 203.701 -3.2399 0.412094 0
M  V30 2301 H 202.36 -2.70348 2.47604 0
M  V30 2302 H 202.008 -4.86669 1.2713 0
M  V30 2303 H 201.708 -5.04136 3.01861 0
M  V30 2304 H 203.232 -5.65094 2.31304 0
M  V30 2305 H 204.646 -4.11772 3.98894 0
M  V30 2306 H 203.043 -3.74664 4.68771 0
M  V30 2307 H 204.113 -2.41897 4.20255 0
M  V30 2308 N 205.456 -1.28612 -0.910864 0
M  V30 2309 C 206.419 -1.12803 -1.9952 0
M  V30 2310 C 207.419 -0.0668264 -1.60661 0
M  V30 2311 O 208.609 -0.312847 -1.71368 0
M  V30 2312 C 205.741 -0.72254 -3.33155 0
M  V30 2313 H 206.934 -2.09109 -2.14973 0
M  V30 2314 H 204.487 -1.11639 -1.09391 0
M  V30 2315 H 205.222 0.241152 -3.23402 0
M  V30 2316 H 205.007 -1.48916 -3.62721 0
M  V30 2317 H 206.497 -0.634666 -4.12749 0
M  V30 2318 N 206.934 1.1197 -1.10907 0
M  V30 2319 C 207.897 2.16031 -0.765707 0
M  V30 2320 C 208.897 1.59393 0.212235 0
M  V30 2321 O 210.087 1.74196 -0.0115441 0
M  V30 2322 C 207.219 3.40632 -0.135053 0
M  V30 2323 H 208.412 2.47919 -1.68748 0
M  V30 2324 H 205.965 1.27061 -0.910226 0
M  V30 2325 H 206.7 3.14348 0.797218 0
M  V30 2326 H 206.485 3.8302 -0.838937 0
M  V30 2327 H 207.975 4.17505 0.0892469 0
M  V30 2328 N 208.412 0.89855 1.29475 0
M  V30 2329 C 209.375 0.380272 2.26023 0
M  V30 2330 C 210.375 -0.484891 1.53315 0
M  V30 2331 O 211.565 -0.290108 1.71767 0
M  V30 2332 C 208.697 -0.45651 3.3783 0
M  V30 2333 H 209.89 1.23295 2.73383 0
M  V30 2334 H 207.443 0.676589 1.40897 0
M  V30 2335 H 208.178 -1.32922 2.95808 0
M  V30 2336 H 207.963 0.163393 3.91759 0
M  V30 2337 H 209.453 -0.810466 4.0966 0
M  V30 2338 N 209.89 -1.43072 0.660911 0
M  V30 2339 C 210.8 -2.34585 -0.0264163 0
M  V30 2340 C 211.816 -1.54316 -0.803898 0
M  V30 2341 O 212.992 -1.86939 -0.749391 0
M  V30 2342 C 210.057 -3.32689 -0.975639 0
M  V30 2343 C 209.118 -4.2886 -0.194236 0
M  V30 2344 C 208.351 -5.22278 -1.09825 0
M  V30 2345 O 208.574 -5.20299 -2.33763 0
M  V30 2346 O 207.508 -5.99228 -0.566513 0
M  V30 2347 H 211.334 -2.94869 0.727034 0
M  V30 2348 H 208.919 -1.43342 0.42111 0
M  V30 2349 H 210.801 -3.92995 -1.52094 0
M  V30 2350 H 209.476 -2.74898 -1.70918 0
M  V30 2351 H 208.383 -3.72011 0.394835 0
M  V30 2352 H 209.716 -4.89655 0.499899 0
M  V30 2353 N 211.368 -0.403325 -1.52352 0
M  V30 2354 C 212.315 0.425011 -2.26853 0
M  V30 2355 C 213.285 1.04598 -1.29029 0
M  V30 2356 O 214.47 1.07135 -1.57882 0
M  V30 2357 C 211.61 1.53888 -3.08889 0
M  V30 2358 C 210.723 0.939396 -4.21663 0
M  V30 2359 C 209.858 2.02547 -4.91068 0
M  V30 2360 C 208.897 1.40263 -5.95813 0
M  V30 2361 N 208.034 2.4286 -6.58759 0
M  V30 2362 H 212.874 -0.21674 -2.97211 0
M  V30 2363 H 210.411 -0.118722 -1.4662 0
M  V30 2364 H 212.369 2.19558 -3.54753 0
M  V30 2365 H 210.999 2.15074 -2.40714 0
M  V30 2366 H 210.051 0.171898 -3.80011 0
M  V30 2367 H 211.363 0.44436 -4.96817 0
M  V30 2368 H 210.517 2.75958 -5.40308 0
M  V30 2369 H 209.256 2.55415 -4.15469 0
M  V30 2370 H 208.261 0.653833 -5.45898 0
M  V30 2371 H 209.486 0.881719 -6.73352 0
M  V30 2372 H 207.432 2.94871 -5.85992 0
M  V30 2373 H 207.349 1.98152 -7.2957 0
M  V30 2374 H 208.617 3.15858 -7.12639 0
M  V30 2375 N 212.846 1.57033 -0.133567 0
M  V30 2376 C 213.809 2.14897 0.796995 0
M  V30 2377 C 214.809 1.0874 1.18458 0
M  V30 2378 O 215.999 1.34446 1.1077 0
M  V30 2379 C 213.131 2.70112 2.07973 0
M  V30 2380 H 214.324 2.98457 0.293873 0
M  V30 2381 H 211.877 1.55871 0.115787 0
M  V30 2382 H 212.612 1.9018 2.62682 0
M  V30 2383 H 212.397 3.47764 1.81115 0
M  V30 2384 H 213.887 3.14738 2.74462 0
M  V30 2385 N 214.325 -0.140222 1.56975 0
M  V30 2386 C 215.573 -0.850005 1.83356 0
M  V30 2387 C 215.894 -1.81399 0.71551 0
M  V30 2388 O 215.164 -1.94136 -0.262294 0
M  V30 2389 H 213.744 -0.316886 0.676456 0
M  V30 2390 H 216.406 -0.132608 1.94448 0
M  V30 2391 H 215.502 -1.40814 2.78528 0
M  V30 2392 N 215.803 -1.52179 -0.40978 0
M  V30 2393 C 216.736 -1.70196 -1.52015 0
M  V30 2394 C 217.714 -0.549542 -1.53032 0
M  V30 2395 O 218.898 -0.776815 -1.71749 0
M  V30 2396 C 216.025 -1.74069 -2.90547 0
M  V30 2397 C 215.071 -2.95601 -3.07445 0
M  V30 2398 S 215.904 -4.55956 -2.80827 0
M  V30 2399 C 217.06 -4.62614 -4.21591 0
M  V30 2400 H 217.293 -2.64109 -1.36504 0
M  V30 2401 H 214.826 -1.4221 -0.601312 0
M  V30 2402 H 216.784 -1.76985 -3.70387 0
M  V30 2403 H 215.445 -0.812835 -3.034 0
M  V30 2404 H 214.638 -2.94791 -4.08796 0
M  V30 2405 H 214.24 -2.90569 -2.35469 0
M  V30 2406 H 216.532 -4.39951 -5.15218 0
M  V30 2407 H 217.475 -5.64548 -4.27424 0
M  V30 2408 H 217.883 -3.91654 -4.06531 0
M  V30 2409 N 217.281 0.66697 -1.42791 0
M  V30 2410 C 218.506 1.46004 -1.47301 0
M  V30 2411 C 218.931 1.87894 -0.0880317 0
M  V30 2412 O 218.289 1.56502 0.915253 0
M  V30 2413 C 218.337 2.68031 -2.41229 0
M  V30 2414 O 217.441 3.6659 -1.88906 0
M  V30 2415 H 216.782 0.43832 -0.49877 0
M  V30 2416 H 219.312 0.817391 -1.87563 0
M  V30 2417 H 219.322 3.1601 -2.58073 0
M  V30 2418 H 217.997 2.36883 -3.41847 0
M  V30 2419 H 216.574 3.25661 -1.81656 0
M  V30 2420 N 218.759 1.29093 0.90403 0
M  V30 2421 C 219.722 1.1386 1.98919 0
M  V30 2422 C 220.722 0.0753457 1.60623 0
M  V30 2423 O 221.912 0.321931 1.71199 0
M  V30 2424 C 219.044 0.740198 3.32767 0
M  V30 2425 H 220.237 2.10246 2.13861 0
M  V30 2426 H 217.79 1.12218 1.08797 0
M  V30 2427 H 218.525 -0.223997 3.23525 0
M  V30 2428 H 218.31 1.50838 3.61926 0
M  V30 2429 H 219.8 0.656546 4.12407 0
M  V30 2430 N 220.237 -1.11381 1.11499 0
M  V30 2431 C 221.147 -2.21019 0.786628 0
M  V30 2432 C 222.163 -1.72597 -0.220507 0
M  V30 2433 O 223.339 -2.01321 -0.0565251 0
M  V30 2434 C 220.404 -3.459 0.235333 0
M  V30 2435 C 219.465 -4.09107 1.30115 0
M  V30 2436 C 218.698 -5.28027 0.776068 0
M  V30 2437 O 218.921 -5.6904 -0.393661 0
M  V30 2438 O 217.855 -5.81835 1.54114 0
M  V30 2439 H 221.681 -2.51521 1.70209 0
M  V30 2440 H 219.266 -1.19928 0.890928 0
M  V30 2441 H 221.148 -4.21346 -0.067715 0
M  V30 2442 H 219.823 -3.17049 -0.652828 0
M  V30 2443 H 218.73 -3.35391 1.65722 0
M  V30 2444 H 220.063 -4.42139 2.16273 0
M  V30 2445 N 221.715 -0.905404 -1.28997 0
M  V30 2446 C 222.647 -0.344748 -2.26592 0
M  V30 2447 C 223.66 0.512135 -1.54535 0
M  V30 2448 O 224.849 0.328368 -1.75454 0
M  V30 2449 C 221.949 0.526587 -3.34784 0
M  V30 2450 C 221.122 -0.305871 -4.36329 0
M  V30 2451 C 220.181 0.499209 -5.23827 0
M  V30 2452 O 219.207 -0.0853004 -5.69136 0
M  V30 2453 N 220.409 1.80408 -5.51755 0
M  V30 2454 H 223.174 -1.18359 -2.75338 0
M  V30 2455 H 220.735 -0.770481 -1.42391 0
M  V30 2456 H 222.727 1.07171 -3.90252 0
M  V30 2457 H 221.297 1.26613 -2.85811 0
M  V30 2458 H 220.517 -1.0324 -3.80441 0
M  V30 2459 H 221.805 -0.875773 -5.01206 0
M  V30 2460 H 221.203 2.3016 -5.16762 0
M  V30 2461 H 219.76 2.29621 -6.10014 0
M  V30 2462 N 223.193 1.4272 -0.668489 0
M  V30 2463 C 224.156 2.292 0.00448567 0
M  V30 2464 C 225.156 1.43001 0.735339 0
M  V30 2465 O 226.346 1.64461 0.57429 0
M  V30 2466 C 223.478 3.25375 1.01705 0
M  V30 2467 H 224.671 2.90199 -0.756608 0
M  V30 2468 H 222.224 1.50254 -0.430506 0
M  V30 2469 H 222.959 2.69301 1.80686 0
M  V30 2470 H 222.744 3.88944 0.496463 0
M  V30 2471 H 224.234 3.90245 1.48655 0
M  V30 2472 N 224.671 0.411399 1.52136 0
M  V30 2473 C 225.603 -0.448386 2.24771 0
M  V30 2474 C 226.616 -1.00828 1.27818 0
M  V30 2475 O 227.805 -0.906841 1.53749 0
M  V30 2476 C 224.905 -1.63636 2.96777 0
M  V30 2477 C 224.078 -1.19995 4.20618 0
M  V30 2478 C 223.137 -2.25509 4.75428 0
M  V30 2479 O 222.163 -1.86007 5.3795 0
M  V30 2480 N 223.365 -3.577 4.57199 0
M  V30 2481 H 226.13 0.174025 2.99194 0
M  V30 2482 H 223.691 0.238897 1.60128 0
M  V30 2483 H 225.683 -2.33793 3.30338 0
M  V30 2484 H 224.253 -2.16465 2.25526 0
M  V30 2485 H 223.473 -0.326421 3.92846 0
M  V30 2486 H 224.761 -0.885365 5.01038 0
M  V30 2487 H 224.159 -3.92543 4.07341 0
M  V30 2488 H 222.716 -4.23827 4.95191 0
M  V30 2489 N 226.149 -1.5696 0.141893 0
M  V30 2490 C 227.397 -1.95573 -0.509484 0
M  V30 2491 C 227.718 -1.02746 -1.65736 0
M  V30 2492 O 226.988 -0.0880311 -1.95702 0
M  V30 2493 H 225.568 -0.722115 -0.191205 0
M  V30 2494 H 228.23 -1.93697 0.216196 0
M  V30 2495 H 227.326 -2.99171 -0.889 0
M  V30 2496 N 227.627 0.131896 -1.57047 0
M  V30 2497 C 228.557 1.16384 -2.02428 0
M  V30 2498 C 229.538 1.43936 -0.90644 0
M  V30 2499 O 230.723 1.54599 -1.17528 0
M  V30 2500 C 227.853 2.49328 -2.4177 0
M  V30 2501 C 226.807 2.36266 -3.56879 0
M  V30 2502 C 226.133 3.74057 -3.8208 0
M  V30 2503 C 227.433 1.834 -4.89042 0
M  V30 2504 H 229.127 0.786433 -2.88887 0
M  V30 2505 H 226.673 0.376855 -1.38981 0
M  V30 2506 H 228.626 3.21759 -2.7212 0
M  V30 2507 H 227.35 2.88934 -1.52266 0
M  V30 2508 H 226.009 1.66286 -3.26718 0
M  V30 2509 H 225.657 4.11125 -2.89803 0
M  V30 2510 H 225.357 3.66174 -4.59554 0
M  V30 2511 H 226.881 4.48012 -4.1487 0
M  V30 2512 H 228.295 2.45636 -5.18011 0
M  V30 2513 H 226.692 1.8637 -5.70426 0
M  V30 2514 H 227.762 0.790662 -4.7841 0
M  V30 2515 N 229.106 1.52395 0.401703 0
M  V30 2516 C 230.036 1.79231 1.49661 0
M  V30 2517 C 231.017 0.643654 1.57452 0
M  V30 2518 O 232.202 0.889989 1.72606 0
M  V30 2519 C 229.332 1.94971 2.87409 0
M  V30 2520 C 228.286 3.10604 2.94465 0
M  V30 2521 C 227.612 3.11577 4.34538 0
M  V30 2522 C 228.912 4.49921 2.6527 0
M  V30 2523 H 230.606 2.70917 1.27454 0
M  V30 2524 H 228.152 1.30362 0.6117 0
M  V30 2525 H 230.105 2.12328 3.63999 0
M  V30 2526 H 228.829 0.999632 3.10926 0
M  V30 2527 H 227.488 2.93009 2.20321 0
M  V30 2528 H 227.136 2.14277 4.55076 0
M  V30 2529 H 226.836 3.89247 4.40183 0
M  V30 2530 H 228.36 3.31073 5.13053 0
M  V30 2531 H 229.774 4.67683 3.31581 0
M  V30 2532 H 228.171 5.29564 2.82281 0
M  V30 2533 H 229.241 4.57507 1.60671 0
M  V30 2534 N 230.584 -0.659388 1.43143 0
M  V30 2535 C 231.494 -1.80167 1.50256 0
M  V30 2536 C 232.51 -1.69571 0.390106 0
M  V30 2537 O 233.686 -1.90849 0.643319 0
M  V30 2538 C 230.751 -3.16409 1.41725 0
M  V30 2539 C 229.812 -3.38848 2.63591 0
M  V30 2540 C 229.045 -4.68591 2.55458 0
M  V30 2541 O 229.268 -5.47532 1.59891 0
M  V30 2542 O 228.202 -4.92614 3.45854 0
M  V30 2543 H 232.028 -1.77121 2.46702 0
M  V30 2544 H 229.613 -0.817092 1.25076 0
M  V30 2545 H 231.495 -3.9768 1.39387 0
M  V30 2546 H 230.17 -3.20059 0.484118 0
M  V30 2547 H 229.077 -2.57366 2.71502 0
M  V30 2548 H 230.41 -3.4004 3.55856 0
M  V30 2549 N 232.062 -1.29571 -0.897171 0
M  V30 2550 C 233.009 -1.14916 -2.00158 0
M  V30 2551 C 233.979 -0.0418149 -1.66047 0
M  V30 2552 O 235.164 -0.209793 -1.89643 0
M  V30 2553 C 232.304 -0.834307 -3.34863 0
M  V30 2554 C 231.417 -2.02234 -3.8174 0
M  V30 2555 C 230.552 -1.64664 -5.05034 0
M  V30 2556 C 229.591 -2.80033 -5.44286 0
M  V30 2557 N 228.728 -2.42843 -6.58765 0
M  V30 2558 H 233.568 -2.09403 -2.12025 0
M  V30 2559 H 231.105 -1.042 -1.0383 0
M  V30 2560 H 233.063 -0.632436 -4.12379 0
M  V30 2561 H 231.693 0.0736656 -3.22716 0
M  V30 2562 H 230.745 -2.33583 -3.00238 0
M  V30 2563 H 232.057 -2.88673 -4.06779 0
M  V30 2564 H 231.211 -1.4078 -5.9014 0
M  V30 2565 H 229.95 -0.753766 -4.8184 0
M  V30 2566 H 228.955 -3.04596 -4.57713 0
M  V30 2567 H 230.18 -3.69989 -5.6946 0
M  V30 2568 H 228.126 -1.56046 -6.3717 0
M  V30 2569 H 228.043 -3.22815 -6.83613 0
M  V30 2570 H 229.311 -2.22285 -7.47134 0
M  V30 2571 N 233.54 1.10788 -1.12088 0
M  V30 2572 C 234.789 1.82036 -0.868659 0
M  V30 2573 C 235.102 1.85929 0.607426 0
M  V30 2574 O 236.308 2.53346 0.97613 0
M  V30 2575 C 234.764 3.26951 -1.50435 0
M  V30 2576 C 234.372 3.31367 -3.01496 0
M  V30 2577 C 236.116 4.03053 -1.33225 0
M  V30 2578 C 234.023 4.7072 -3.58017 0
M  V30 2579 H 232.953 0.682108 -0.321318 0
M  V30 2580 H 235.604 1.24618 -1.34694 0
M  V30 2581 H 233.986 3.84343 -0.953735 0
M  V30 2582 H 235.16 2.83819 -3.6302 0
M  V30 2583 H 233.475 2.6875 -3.18061 0
M  V30 2584 H 236.072 5.05981 -1.72878 0
M  V30 2585 H 236.415 4.15387 -0.275529 0
M  V30 2586 H 236.948 3.52066 -1.85188 0
M  V30 2587 H 233.687 4.63585 -4.63432 0
M  V30 2588 H 233.207 5.1865 -3.01268 0
M  V30 2589 H 234.886 5.39685 -3.56859 0
M  V30 2590 N 235.018 0.912232 1.28515 0
M  V30 2591 C 235.981 0.404223 2.25607 0
M  V30 2592 C 236.981 -0.468602 1.53821 0
M  V30 2593 O 238.171 -0.271873 1.72065 0
M  V30 2594 C 235.303 -0.420653 3.38295 0
M  V30 2595 H 236.496 1.26188 2.7206 0
M  V30 2596 H 234.049 0.691495 1.40171 0
M  V30 2597 H 234.784 -1.29777 2.97201 0
M  V30 2598 H 234.569 0.204935 3.91564 0
M  V30 2599 H 236.059 -0.766971 4.10496 0
M  V30 2600 N 236.496 -1.42363 0.676048 0
M  V30 2601 C 237.724 -2.05859 0.207268 0
M  V30 2602 C 238.139 -1.50796 -1.13605 0
M  V30 2603 O 237.496 -0.648265 -1.70598 0
M  V30 2604 C 237.547 -3.61248 0.134975 0
M  V30 2605 O 237.268 -4.1427 1.42521 0
M  V30 2606 C 238.769 -4.41859 -0.357151 0
M  V30 2607 H 235.989 -0.663431 0.100503 0
M  V30 2608 H 238.533 -1.82479 0.923136 0
M  V30 2609 H 236.688 -3.83735 -0.531588 0
M  V30 2610 H 237.102 -5.0815 1.29939 0
M  V30 2611 H 238.576 -5.50847 -0.356641 0
M  V30 2612 H 239.053 -4.16536 -1.39264 0
M  V30 2613 H 239.659 -4.24392 0.27772 0
M  V30 2614 N 237.974 -0.419461 -1.51915 0
M  V30 2615 C 239.385 0.0477853 -1.86639 0
M  V30 2616 C 239.736 1.43531 -1.33766 0
M  V30 2617 O 238.861 2.05401 -0.68113 0
M  V30 2618 C 239.456 0.0934885 -3.38671 0
M  V30 2619 C 238.015 0.505097 -3.72996 0
M  V30 2620 C 237.162 -0.313792 -2.75519 0
M  V30 2621 H 240.113 -0.636088 -1.45395 0
M  V30 2622 H 240.134 0.906667 -3.6954 0
M  V30 2623 H 239.646 -0.916501 -3.77123 0
M  V30 2624 H 237.747 1.52135 -3.40126 0
M  V30 2625 H 237.86 0.242309 -4.78487 0
M  V30 2626 H 236.224 0.225363 -2.53701 0
M  V30 2627 H 237.007 -1.32232 -3.16812 0
M  V30 2628 N 239.452 1.56882 -0.150215 0
M  V30 2629 C 240.399 2.16922 0.788244 0
M  V30 2630 C 241.369 1.10303 1.24187 0
M  V30 2631 O 242.554 1.38359 1.31383 0
M  V30 2632 C 239.694 2.79754 2.02068 0
M  V30 2633 C 238.807 4.00775 1.61257 0
M  V30 2634 C 237.942 4.51595 2.79705 0
M  V30 2635 C 236.981 5.65074 2.35282 0
M  V30 2636 N 236.118 6.10499 3.4675 0
M  V30 2637 H 240.958 2.96779 0.269444 0
M  V30 2638 H 238.495 1.46599 0.12128 0
M  V30 2639 H 240.453 3.14329 2.74323 0
M  V30 2640 H 239.083 2.02536 2.51354 0
M  V30 2641 H 238.135 3.72158 0.787553 0
M  V30 2642 H 239.447 4.82978 1.24633 0
M  V30 2643 H 238.601 4.88242 3.60145 0
M  V30 2644 H 237.34 3.68406 3.19576 0
M  V30 2645 H 236.345 5.28 1.53283 0
M  V30 2646 H 237.57 6.50052 1.96493 0
M  V30 2647 H 235.516 5.30243 3.86236 0
M  V30 2648 H 235.433 6.87637 3.14152 0
M  V30 2649 H 236.701 6.51791 4.27537 0
M  V30 2650 N 240.93 -0.123565 1.57115 0
M  V30 2651 C 242.176 -0.833386 1.84885 0
M  V30 2652 C 242.509 -1.79742 0.735292 0
M  V30 2653 O 241.784 -1.92764 -0.25925 0
M  V30 2654 C 242.067 -1.5873 3.23228 0
M  V30 2655 C 241.92 -0.643183 4.45178 0
M  V30 2656 C 243.239 -2.54453 3.59085 0
M  V30 2657 H 240.358 -0.301518 0.6725 0
M  V30 2658 H 243 -0.097778 1.89748 0
M  V30 2659 H 241.15 -2.21438 3.19214 0
M  V30 2660 H 242.822 -0.0253015 4.61293 0
M  V30 2661 H 241.065 0.0456139 4.33776 0
M  V30 2662 H 241.736 -1.20724 5.38637 0
M  V30 2663 H 244.212 -2.01853 3.63861 0
M  V30 2664 H 243.088 -3.04238 4.5687 0
M  V30 2665 H 243.349 -3.36906 2.86264 0
M  V30 2666 N 242.408 -1.52605 -0.393616 0
M  V30 2667 C 243.355 -1.77055 -1.48054 0
M  V30 2668 C 244.325 -0.61358 -1.54352 0
M  V30 2669 O 245.51 -0.852806 -1.70681 0
M  V30 2670 C 242.65 -1.94108 -2.85335 0
M  V30 2671 C 241.763 -3.21792 -2.88226 0
M  V30 2672 C 240.898 -3.29188 -4.16904 0
M  V30 2673 C 239.937 -4.51013 -4.13828 0
M  V30 2674 N 239.074 -4.55716 -5.34105 0
M  V30 2675 H 243.914 -2.69815 -1.26506 0
M  V30 2676 H 241.451 -1.33683 -0.61379 0
M  V30 2677 H 243.409 -2.01979 -3.65049 0
M  V30 2678 H 242.039 -1.04713 -3.05344 0
M  V30 2679 H 241.091 -3.23015 -2.00911 0
M  V30 2680 H 242.403 -4.11557 -2.8182 0
M  V30 2681 H 241.557 -3.36216 -5.05018 0
M  V30 2682 H 240.296 -2.37389 -4.26026 0
M  V30 2683 H 239.301 -4.44115 -3.24102 0
M  V30 2684 H 240.526 -5.44123 -4.06333 0
M  V30 2685 H 238.472 -3.66807 -5.43865 0
M  V30 2686 H 238.389 -5.39346 -5.29756 0
M  V30 2687 H 239.657 -4.66993 -6.2413 0
M  V30 2688 N 243.887 0.651787 -1.4349 0
M  V30 2689 C 244.835 1.78586 -1.49029 0
M  V30 2690 C 245.829 1.65448 -0.363767 0
M  V30 2691 O 247.035 1.71777 -0.537821 0
M  V30 2692 H 243.41 0.589236 -0.467231 0
M  V30 2693 H 245.381 1.71035 -2.44519 0
M  V30 2694 C 244.13 3.16851 -1.43181 0
M  V30 2695 H 243.453 3.27598 -2.29171 0
M  V30 2696 H 244.893 3.96156 -1.51118 0
M  V30 2697 C 243.352 3.36568 -0.149616 0
M  V30 2698 O 243.882 3.93885 0.788509 0
M  V30 2699 N 242.088 2.90539 -0.0593484 0
M  V30 2700 H 241.635 2.4408 -0.823575 0
M  V30 2701 H 241.593 3.04108 0.797853 0
M  V30 2702 N 245.365 1.30045 0.890287 0
M  V30 2703 C 246.297 1.11786 2.00091 0
M  V30 2704 C 247.31 0.0626307 1.62679 0
M  V30 2705 O 248.499 0.308112 1.75821 0
M  V30 2706 C 245.599 0.681527 3.31977 0
M  V30 2707 C 244.772 1.81735 3.97858 0
M  V30 2708 C 243.831 1.37045 5.08041 0
M  V30 2709 O 242.857 2.07677 5.29961 0
M  V30 2710 N 244.059 0.246525 5.79976 0
M  V30 2711 H 246.824 2.07441 2.16306 0
M  V30 2712 H 244.385 1.2211 1.06305 0
M  V30 2713 H 246.377 0.365675 4.03045 0
M  V30 2714 H 244.947 -0.182828 3.12065 0
M  V30 2715 H 244.167 2.30159 3.20032 0
M  V30 2716 H 245.455 2.57865 4.38615 0
M  V30 2717 H 244.853 -0.34215 5.64664 0
M  V30 2718 H 243.41 -0.00990438 6.51799 0
M  V30 2719 N 246.843 -1.10192 1.12674 0
M  V30 2720 C 247.773 -2.18652 0.819362 0
M  V30 2721 C 248.754 -1.68698 -0.217915 0
M  V30 2722 O 249.939 -1.94041 -0.0785581 0
M  V30 2723 C 247.069 -3.46202 0.27594 0
M  V30 2724 C 246.023 -4.09444 1.24656 0
M  V30 2725 C 245.349 -5.31725 0.563258 0
M  V30 2726 C 246.649 -4.52863 2.60217 0
M  V30 2727 H 248.343 -2.44622 1.72628 0
M  V30 2728 H 245.889 -1.17571 0.831451 0
M  V30 2729 H 247.842 -4.21372 0.0486149 0
M  V30 2730 H 246.566 -3.1973 -0.666331 0
M  V30 2731 H 245.225 -3.36284 1.45974 0
M  V30 2732 H 244.873 -5.0153 -0.384235 0
M  V30 2733 H 244.573 -5.74991 1.21075 0
M  V30 2734 H 246.097 -6.09624 0.34503 0
M  V30 2735 H 247.511 -5.19294 2.42913 0
M  V30 2736 H 245.908 -5.06986 3.21068 0
M  V30 2737 H 246.978 -3.65656 3.18471 0
M  V30 2738 N 248.321 -0.919034 -1.28029 0
M  V30 2739 C 249.268 -0.410005 -2.27129 0
M  V30 2740 C 250.238 0.518405 -1.57803 0
M  V30 2741 O 251.423 0.439451 -1.8567 0
M  V30 2742 C 248.563 0.339054 -3.4343 0
M  V30 2743 C 247.676 -0.622468 -4.27492 0
M  V30 2744 C 246.811 0.145567 -5.31001 0
M  V30 2745 C 245.85 -0.809226 -6.06727 0
M  V30 2746 N 244.987 -0.0743728 -7.02061 0
M  V30 2747 H 249.827 -1.26011 -2.70047 0
M  V30 2748 H 247.364 -0.632663 -1.328 0
M  V30 2749 H 249.322 0.789586 -4.0966 0
M  V30 2750 H 247.952 1.15346 -3.01488 0
M  V30 2751 H 247.004 -1.19153 -3.61257 0
M  V30 2752 H 248.316 -1.35252 -4.80113 0
M  V30 2753 H 247.47 0.656417 -6.03139 0
M  V30 2754 H 246.209 0.908643 -4.79161 0
M  V30 2755 H 245.214 -1.3314 -5.33436 0
M  V30 2756 H 246.439 -1.57194 -6.60656 0
M  V30 2757 H 244.385 0.670616 -6.52563 0
M  V30 2758 H 244.302 -0.744157 -7.52329 0
M  V30 2759 H 245.57 0.416109 -7.78389 0
M  V30 2760 N 249.799 1.42003 -0.683588 0
M  V30 2761 C 250.709 2.34597 -0.0109075 0
M  V30 2762 C 251.725 1.55576 0.779245 0
M  V30 2763 O 252.901 1.88107 0.719555 0
M  V30 2764 C 249.966 3.34199 0.922588 0
M  V30 2765 C 249.027 4.29115 0.125984 0
M  V30 2766 C 248.26 5.23959 1.01502 0
M  V30 2767 O 248.483 5.23952 2.25456 0
M  V30 2768 O 247.417 6.00053 0.47111 0
M  V30 2769 H 251.243 2.93675 -0.773853 0
M  V30 2770 H 248.828 1.42654 -0.443861 0
M  V30 2771 H 250.71 3.95365 1.45823 0
M  V30 2772 H 249.385 2.77582 1.66523 0
M  V30 2773 H 248.292 3.71335 -0.453969 0
M  V30 2774 H 249.625 4.88798 -0.577736 0
M  V30 2775 N 251.277 0.427512 1.51691 0
M  V30 2776 C 252.505 -0.141191 2.06418 0
M  V30 2777 C 252.92 -1.37303 1.29589 0
M  V30 2778 O 252.277 -1.79059 0.352732 0
M  V30 2779 C 252.328 -0.473266 3.58389 0
M  V30 2780 O 252.049 0.709673 4.32314 0
M  V30 2781 C 253.55 -1.09371 4.29596 0
M  V30 2782 H 250.77 -0.0122747 0.670888 0
M  V30 2783 H 253.314 0.603764 1.95384 0
M  V30 2784 H 251.469 -1.16812 3.69369 0
M  V30 2785 H 251.883 0.42807 5.2275 0
M  V30 2786 H 253.357 -1.27613 5.37046 0
M  V30 2787 H 253.834 -2.072 3.87253 0
M  V30 2788 H 254.44 -0.43853 4.23033 0
M  V30 2789 N 252.755 -1.56801 0.158532 0
M  V30 2790 C 253.983 -2.00859 -0.496303 0
M  V30 2791 C 254.398 -1.03871 -1.57659 0
M  V30 2792 O 253.755 -0.0375165 -1.82461 0
M  V30 2793 C 253.806 -3.4479 -1.08638 0
M  V30 2794 O 253.527 -4.38072 -0.0492322 0
M  V30 2795 C 255.028 -4.04185 -1.8207 0
M  V30 2796 H 252.248 -0.65864 -0.128199 0
M  V30 2797 H 254.792 -2.02885 0.256506 0
M  V30 2798 H 252.947 -3.43579 -1.78975 0
M  V30 2799 H 253.361 -5.2227 -0.483102 0
M  V30 2800 H 254.835 -5.06857 -2.18633 0
M  V30 2801 H 255.312 -3.45549 -2.71095 0
M  V30 2802 H 255.918 -4.0906 -1.16405 0
M  V30 2803 N 254.233 0.115231 -1.57178 0
M  V30 2804 C 255.143 1.15994 -2.03918 0
M  V30 2805 C 256.159 1.45103 -0.960268 0
M  V30 2806 O 257.335 1.56144 -1.27204 0
M  V30 2807 C 254.4 2.46568 -2.43732 0
M  V30 2808 C 253.461 2.24822 -3.65723 0
M  V30 2809 C 252.694 3.4917 -4.03629 0
M  V30 2810 O 252.917 4.56623 -3.41835 0
M  V30 2811 O 251.851 3.39949 -4.96708 0
M  V30 2812 H 255.677 0.793019 -2.93164 0
M  V30 2813 H 253.262 0.3263 -1.45793 0
M  V30 2814 H 255.144 3.23492 -2.70057 0
M  V30 2815 H 253.819 2.82726 -1.57631 0
M  V30 2816 H 252.726 1.45744 -3.44542 0
M  V30 2817 H 254.059 1.93566 -4.52541 0
M  V30 2818 N 255.711 1.52812 0.385517 0
M  V30 2819 C 256.674 1.77188 1.45386 0
M  V30 2820 C 257.674 0.641953 1.4743 0
M  V30 2821 O 258.864 0.910033 1.4854 0
M  V30 2822 C 255.996 1.87582 2.8465 0
M  V30 2823 H 257.189 2.72583 1.25054 0
M  V30 2824 H 254.742 1.43586 0.617467 0
M  V30 2825 H 255.477 0.941849 3.10322 0
M  V30 2826 H 255.262 2.69748 2.84567 0
M  V30 2827 H 256.752 2.08102 3.62054 0
M  V30 2828 N 257.189 -0.644168 1.43834 0
M  V30 2829 C 258.152 -1.73857 1.49353 0
M  V30 2830 C 259.152 -1.56315 0.377112 0
M  V30 2831 O 260.342 -1.62048 0.639226 0
M  V30 2832 C 257.474 -3.12819 1.35488 0
M  V30 2833 H 258.667 -1.70342 2.46827 0
M  V30 2834 H 256.22 -0.856652 1.30733 0
M  V30 2835 H 256.955 -3.2194 0.390569 0
M  V30 2836 H 256.74 -3.26958 2.16428 0
M  V30 2837 H 258.23 -3.92606 1.42302 0
M  V30 2838 N 258.668 -1.30515 -0.883378 0
M  V30 2839 C 259.908 -1.20716 -1.64946 0
M  V30 2840 C 260.272 0.234072 -1.90568 0
M  V30 2841 O 261.473 0.455335 -2.64915 0
M  V30 2842 C 259.744 -2.01444 -2.9522 0
M  V30 2843 S 261.303 -2.0836 -3.86175 0
M  V30 2844 H 258.121 -0.430165 -0.566109 0
M  V30 2845 H 260.723 -1.65011 -1.04841 0
M  V30 2846 H 259.427 -3.05268 -2.74298 0
M  V30 2847 H 258.958 -1.57817 -3.60357 0
M  V30 2848 H 260.973 -1.21215 -4.81167 0
M  V30 2849 N 260.146 1.09593 -1.13257 0
M  V30 2850 C 261.562 1.33775 -0.870423 0
M  V30 2851 C 261.762 1.95327 0.494926 0
M  V30 2852 O 260.818 2.19853 1.2418 0
M  V30 2853 C 262.131 2.25106 -1.99369 0
M  V30 2854 C 263.679 2.3862 -2.02558 0
M  V30 2855 C 264.154 3.33285 -3.14142 0
M  V30 2856 N 265.645 3.40857 -3.13641 0
M  V30 2857 C 266.38 4.14101 -3.96621 0
M  V30 2858 N 265.876 4.90157 -4.8961 0
M  V30 2859 N 267.669 4.09808 -3.84726 0
M  V30 2860 H 259.82 0.680136 -2.01216 0
M  V30 2861 H 262.083 0.362133 -0.876107 0
M  V30 2862 H 261.789 1.87103 -2.97801 0
M  V30 2863 H 261.663 3.25481 -1.90635 0
M  V30 2864 H 264.05 2.75887 -1.0474 0
M  V30 2865 H 264.131 1.38028 -2.15364 0
M  V30 2866 H 263.775 2.96741 -4.12198 0
M  V30 2867 H 263.705 4.33776 -2.98574 0
M  V30 2868 H 266.196 2.86624 -2.46282 0
M  V30 2869 H 266.509 5.4347 -5.49418 0
M  V30 2870 H 264.854 4.89251 -4.93617 0
M  V30 2871 H 268.045 3.4949 -3.11408 0
M  V30 2872 H 268.218 4.66629 -4.49623 0
M  V30 2873 N 261.624 0.925811 1.2754 0
M  V30 2874 C 262.854 0.580666 1.98272 0
M  V30 2875 C 263.262 -0.845207 1.69272 0
M  V30 2876 O 262.605 -1.57306 0.948707 0
M  V30 2877 C 262.667 0.724418 3.52126 0
M  V30 2878 C 262.331 2.12206 4.04744 0
M  V30 2879 C 263.328 3.09604 4.17662 0
M  V30 2880 C 261.013 2.4385 4.39138 0
M  V30 2881 C 263.007 4.36755 4.64246 0
M  V30 2882 C 260.694 3.71237 4.85414 0
M  V30 2883 C 261.692 4.67503 4.97926 0
M  V30 2884 O 261.38 5.92624 5.43187 0
M  V30 2885 H 261.112 0.218987 0.639547 0
M  V30 2886 H 263.666 1.24452 1.63404 0
M  V30 2887 H 261.896 0.0034663 3.867 0
M  V30 2888 H 263.585 0.384607 4.04074 0
M  V30 2889 H 264.351 2.86478 3.91351 0
M  V30 2890 H 260.23 1.69665 4.28643 0
M  V30 2891 H 263.774 5.11898 4.73927 0
M  V30 2892 H 259.671 3.94182 5.11166 0
M  V30 2893 H 260.439 5.95585 5.61445 0
M  V30 2894 N 263.102 -1.41638 0.69111 0
M  V30 2895 C 264.35 -2.00902 0.219758 0
M  V30 2896 C 264.671 -1.54994 -1.18329 0
M  V30 2897 O 263.941 -0.778628 -1.79762 0
M  V30 2898 H 262.521 -0.74289 0.0782558 0
M  V30 2899 H 265.183 -1.73327 0.891271 0
M  V30 2900 H 264.279 -3.11224 0.233708 0
M  V30 2901 N 264.58 -0.43555 -1.51462 0
M  V30 2902 C 265.543 0.365137 -2.26273 0
M  V30 2903 C 266.543 0.951227 -1.29647 0
M  V30 2904 O 267.733 0.825958 -1.53374 0
M  V30 2905 C 264.865 1.51645 -3.05314 0
M  V30 2906 H 266.058 -0.290474 -2.9849 0
M  V30 2907 H 263.611 -0.188676 -1.55157 0
M  V30 2908 H 264.346 2.20816 -2.3751 0
M  V30 2909 H 264.131 1.10238 -3.76284 0
M  V30 2910 H 265.621 2.08218 -3.61987 0
M  V30 2911 N 266.058 1.56714 -0.166846 0
M  V30 2912 C 267.305 1.96747 0.479252 0
M  V30 2913 C 267.633 1.05263 1.63554 0
M  V30 2914 O 266.888 0.0858098 1.95512 0
M  V30 2915 C 267.187 3.42889 1.00806 0
M  V30 2916 C 266.853 4.50889 -0.0318574 0
M  V30 2917 C 265.515 4.8015 -0.317675 0
M  V30 2918 C 267.867 5.15949 -0.737956 0
M  V30 2919 C 265.195 5.71772 -1.31506 0
M  V30 2920 C 267.547 6.08647 -1.72429 0
M  V30 2921 C 266.211 6.36277 -2.0176 0
M  V30 2922 H 265.481 0.719949 0.175371 0
M  V30 2923 H 268.128 1.89756 -0.257864 0
M  V30 2924 H 266.433 3.4681 1.82291 0
M  V30 2925 H 268.13 3.71203 1.51689 0
M  V30 2926 H 264.72 4.28128 0.201088 0
M  V30 2927 H 268.904 4.93458 -0.530351 0
M  V30 2928 H 264.16 5.91465 -1.54853 0
M  V30 2929 H 268.334 6.58129 -2.27682 0
M  V30 2930 H 265.961 7.07075 -2.79194 0
M  V30 2931 N 267.536 -0.106894 1.57237 0
M  V30 2932 C 268.784 -0.810921 1.85117 0
M  V30 2933 C 269.105 -1.7984 0.753827 0
M  V30 2934 O 268.375 -1.94649 -0.221056 0
M  V30 2935 H 266.955 -0.302466 0.683025 0
M  V30 2936 H 269.617 -0.0913324 1.94686 0
M  V30 2937 H 268.713 -1.34875 2.81452 0
M  V30 2938 N 269.014 -1.53014 -0.377408 0
M  V30 2939 C 269.944 -1.81589 -1.46791 0
M  V30 2940 C 270.925 -0.668622 -1.56408 0
M  V30 2941 O 272.11 -0.917337 -1.71168 0
M  V30 2942 C 269.24 -1.99519 -2.8427 0
M  V30 2943 C 268.194 -3.15249 -2.89486 0
M  V30 2944 C 267.52 -3.18451 -4.29527 0
M  V30 2945 C 268.82 -4.54084 -2.58079 0
M  V30 2946 H 270.514 -2.7291 -1.23127 0
M  V30 2947 H 268.06 -1.31319 -0.590883 0
M  V30 2948 H 270.013 -2.18092 -3.60575 0
M  V30 2949 H 268.737 -1.04897 -3.09296 0
M  V30 2950 H 267.396 -2.96477 -2.15631 0
M  V30 2951 H 267.044 -2.2149 -4.5161 0
M  V30 2952 H 266.744 -3.962 -4.33934 0
M  V30 2953 H 268.268 -3.39193 -5.07721 0
M  V30 2954 H 269.682 -4.72899 -3.24098 0
M  V30 2955 H 268.079 -5.33987 -2.7382 0
M  V30 2956 H 269.149 -4.60006 -1.53372 0
M  V30 2957 N 270.492 0.636531 -1.44174 0
M  V30 2958 C 271.903 1.21806 -1.41493 0
M  V30 2959 C 272.254 1.95785 -0.1275 0
M  V30 2960 O 271.379 2.02147 0.772376 0
M  V30 2961 C 271.974 2.21551 -2.56321 0
M  V30 2962 C 270.533 2.75143 -2.56853 0
M  V30 2963 C 269.68 1.50052 -2.33195 0
M  V30 2964 H 272.631 0.427531 -1.52833 0
M  V30 2965 H 272.652 3.0405 -2.28765 0
M  V30 2966 H 272.164 1.67679 -3.50008 0
M  V30 2967 H 270.265 3.33033 -1.67093 0
M  V30 2968 H 270.378 3.2155 -3.55165 0
M  V30 2969 H 268.742 1.77993 -1.82183 0
M  V30 2970 H 269.525 0.980903 -3.28988 0
M  V30 2971 N 271.97 1.30982 0.876444 0
M  V30 2972 C 273.219 1.19658 1.62373 0
M  V30 2973 C 273.532 -0.245636 1.94052 0
M  V30 2974 O 274.738 -0.48049 2.67214 0
M  V30 2975 C 273.194 2.09433 2.92687 0
M  V30 2976 C 272.802 3.58613 2.68516 0
M  V30 2977 C 274.546 2.06893 3.70669 0
M  V30 2978 C 272.453 4.40416 3.94699 0
M  V30 2979 H 271.383 0.444268 0.609214 0
M  V30 2980 H 274.034 1.55791 0.969605 0
M  V30 2981 H 272.416 1.66191 3.59439 0
M  V30 2982 H 273.59 4.10058 2.10212 0
M  V30 2983 H 271.905 3.63063 2.03898 0
M  V30 2984 H 274.502 2.65258 4.64265 0
M  V30 2985 H 274.845 1.05448 4.02724 0
M  V30 2986 H 275.378 2.48301 3.10792 0
M  V30 2987 H 272.117 5.42591 3.67798 0
M  V30 2988 H 271.637 3.93731 4.52477 0
M  V30 2989 H 273.316 4.52294 4.62644 0
M  V30 2990 N 273.449 -1.08991 1.13837 0
M  V30 2991 C 274.677 -1.85011 0.926202 0
M  V30 2992 C 275.092 -1.8135 -0.525127 0
M  V30 2993 O 274.449 -1.21287 -1.36366 0
M  V30 2994 C 274.5 -3.32802 1.41155 0
M  V30 2995 O 274.221 -3.36444 2.80601 0
M  V30 2996 C 275.722 -4.25649 1.23847 0
M  V30 2997 H 272.942 -0.584249 0.32999 0
M  V30 2998 H 275.486 -1.37688 1.51202 0
M  V30 2999 H 273.641 -3.77536 0.868631 0
M  V30 3000 H 274.055 -4.28657 3.02248 0
M  V30 3001 H 275.529 -5.27485 1.62675 0
M  V30 3002 H 276.006 -4.38828 0.18065 0
M  V30 3003 H 276.612 -3.86735 1.76964 0
M  V30 3004 N 274.927 -0.932562 -1.27047 0
M  V30 3005 C 276.173 -0.576412 -1.94436 0
M  V30 3006 C 276.506 0.880891 -1.73072 0
M  V30 3007 O 275.781 1.62905 -1.06264 0
M  V30 3008 C 276.064 -0.909031 -3.48437 0
M  V30 3009 C 275.917 -2.42044 -3.79123 0
M  V30 3010 C 277.236 -0.418341 -4.38107 0
M  V30 3011 H 274.355 -0.210888 -0.706184 0
M  V30 3012 H 276.997 -1.16522 -1.50075 0
M  V30 3013 H 275.147 -0.407947 -3.86352 0
M  V30 3014 H 276.819 -2.99359 -3.50973 0
M  V30 3015 H 275.062 -2.86758 -3.25503 0
M  V30 3016 H 275.733 -2.6037 -4.86736 0
M  V30 3017 H 278.209 -0.847856 -4.0737 0
M  V30 3018 H 277.085 -0.679981 -5.44672 0
M  V30 3019 H 277.346 0.681642 -4.36814 0
M  V30 3020 N 276.405 1.4127 -0.698611 0
M  V30 3021 C 277.368 2.29158 -0.044132 0
M  V30 3022 C 278.368 1.44529 0.704841 0
M  V30 3023 O 279.558 1.65643 0.539276 0
M  V30 3024 C 276.69 3.27459 0.947809 0
M  V30 3025 H 277.883 2.88529 -0.817994 0
M  V30 3026 H 275.436 1.49307 -0.46228 0
M  V30 3027 H 276.171 2.73073 1.74933 0
M  V30 3028 H 275.956 3.8991 0.41385 0
M  V30 3029 H 277.446 3.93311 1.40344 0
M  V30 3030 N 277.883 0.443576 1.51229 0
M  V30 3031 C 278.833 -0.382787 2.24764 0
M  V30 3032 C 279.817 -0.984836 1.27239 0
M  V30 3033 O 281.009 -0.901943 1.52296 0
M  V30 3034 C 278.138 -1.47989 3.09765 0
M  V30 3035 C 277.224 -0.886931 4.14722 0
M  V30 3036 N 277.615 -0.0237103 5.05794 0
M  V30 3037 C 275.913 -1.15385 4.30816 0
M  V30 3038 C 276.614 0.309971 5.80874 0
M  V30 3039 N 275.59 -0.307989 5.42727 0
M  V30 3040 H 279.392 0.282624 2.92538 0
M  V30 3041 H 276.906 0.256027 1.60369 0
M  V30 3042 H 278.903 -2.08482 3.61027 0
M  V30 3043 H 277.563 -2.14758 2.43535 0
M  V30 3044 H 278.574 0.34318 5.16762 0
M  V30 3045 H 275.251 -1.81857 3.75812 0
M  V30 3046 H 276.641 1.01279 6.64223 0
M  V30 3047 N 279.361 -1.56624 0.175154 0
M  V30 3048 C 280.607 -1.9729 -0.469506 0
M  V30 3049 C 280.94 -1.06128 -1.62636 0
M  V30 3050 O 280.215 -0.109183 -1.94193 0
M  V30 3051 C 280.498 -3.47375 -0.948804 0
M  V30 3052 C 280.351 -4.49317 0.208491 0
M  V30 3053 C 281.67 -4.00652 -1.82116 0
M  V30 3054 H 278.789 -0.717317 -0.16919 0
M  V30 3055 H 281.431 -1.88184 0.262062 0
M  V30 3056 H 279.581 -3.55267 -1.57219 0
M  V30 3057 H 281.253 -4.53482 0.845682 0
M  V30 3058 H 279.496 -4.25121 0.863395 0
M  V30 3059 H 280.167 -5.51741 -0.169059 0
M  V30 3060 H 282.643 -3.95416 -1.2956 0
M  V30 3061 H 281.519 -5.06075 -2.12554 0
M  V30 3062 H 281.78 -3.44699 -2.7683 0
M  V30 3063 N 280.839 0.0985539 -1.57292 0
M  V30 3064 C 282.116 0.834155 -1.76921 0
M  V30 3065 C 282.496 1.97101 -0.755928 0
M  V30 3066 O 281.844 2.27474 0.216245 0
M  V30 3067 C 282.054 1.33194 -3.22584 0
M  V30 3068 C 283.402 1.77611 -3.85668 0
M  V30 3069 O 284.426 1.42825 -3.26312 0
M  V30 3070 O 283.285 2.4192 -4.90038 0
M  V30 3071 H 280.379 0.397628 -0.725135 0
M  V30 3072 H 282.925 0.0807044 -1.69508 0
M  V30 3073 H 281.697 0.517248 -3.87866 0
M  V30 3074 H 281.32 2.1475 -3.34616 0
M  V30 3075 N 282.317 1.53212 0.369288 0
M  V30 3076 C 283.565 1.68881 1.11012 0
M  V30 3077 C 283.886 0.441285 1.89941 0
M  V30 3078 O 283.156 -0.544623 1.88177 0
M  V30 3079 H 281.736 0.622569 0.412816 0
M  V30 3080 H 284.398 1.90391 0.416802 0
M  V30 3081 H 283.494 2.54822 1.80201 0
M  V30 3082 N 283.795 -0.628877 1.44509 0
M  V30 3083 C 284.727 -1.754 1.47538 0
M  V30 3084 C 285.74 -1.58575 0.368506 0
M  V30 3085 O 286.929 -1.66847 0.634376 0
M  V30 3086 C 284.029 -3.1315 1.29577 0
M  V30 3087 C 283.202 -3.56413 2.53551 0
M  V30 3088 C 282.261 -4.7305 2.30457 0
M  V30 3089 O 281.287 -4.81247 3.03957 0
M  V30 3090 N 282.489 -5.64903 1.3366 0
M  V30 3091 H 285.254 -1.73272 2.44534 0
M  V30 3092 H 282.815 -0.813512 1.39977 0
M  V30 3093 H 284.807 -3.88902 1.11971 0
M  V30 3094 H 283.377 -3.09908 0.409371 0
M  V30 3095 H 282.597 -2.70847 2.86419 0
M  V30 3096 H 283.885 -3.82071 3.36005 0
M  V30 3097 H 283.283 -5.60975 0.729604 0
M  V30 3098 H 281.84 -6.40275 1.22032 0
M  V30 3099 N 285.273 -1.31445 -0.869486 0
M  V30 3100 C 286.501 -1.24122 -1.65534 0
M  V30 3101 C 286.916 0.193387 -1.87807 0
M  V30 3102 O 286.273 1.12557 -1.43656 0
M  V30 3103 C 286.324 -1.98229 -3.02304 0
M  V30 3104 O 286.045 -3.3609 -2.81026 0
M  V30 3105 C 287.546 -1.97751 -3.96749 0
M  V30 3106 H 284.766 -0.428868 -0.516055 0
M  V30 3107 H 287.31 -1.73328 -1.08525 0
M  V30 3108 H 285.465 -1.52782 -3.56001 0
M  V30 3109 H 285.879 -3.7383 -3.67902 0
M  V30 3110 H 287.353 -2.54114 -4.90031 0
M  V30 3111 H 287.83 -0.960137 -4.28577 0
M  V30 3112 H 288.436 -2.43079 -3.48988 0
M  V30 3113 N 286.751 1.08385 -1.14413 0
M  V30 3114 C 287.701 2.13509 -0.79987 0
M  V30 3115 C 288.685 1.5951 0.211059 0
M  V30 3116 O 289.877 1.76995 0.0133694 0
M  V30 3117 C 287.006 3.42162 -0.279297 0
M  V30 3118 C 286.092 4.03042 -1.31976 0
M  V30 3119 N 286.483 4.38327 -2.52395 0
M  V30 3120 C 284.781 4.30379 -1.17004 0
M  V30 3121 C 285.482 4.86428 -3.19003 0
M  V30 3122 N 284.458 4.84547 -2.46405 0
M  V30 3123 H 288.26 2.38609 -1.7159 0
M  V30 3124 H 285.774 1.2572 -1.02802 0
M  V30 3125 H 287.771 4.16898 -0.0143688 0
M  V30 3126 H 286.431 3.18511 0.630923 0
M  V30 3127 H 287.442 4.29349 -2.89621 0
M  V30 3128 H 284.119 4.16281 -0.318854 0
M  V30 3129 H 285.509 5.23107 -4.21674 0
M  V30 3130 N 288.23 0.939286 1.26551 0
M  V30 3131 C 289.163 0.391702 2.24813 0
M  V30 3132 C 290.141 -0.518421 1.54114 0
M  V30 3133 O 291.325 -0.456299 1.82894 0
M  V30 3134 C 288.452 -0.437382 3.35864 0
M  V30 3135 C 287.498 0.410946 4.24516 0
M  V30 3136 S 288.331 1.83372 5.03125 0
M  V30 3137 C 289.487 1.01264 6.17654 0
M  V30 3138 H 289.72 1.22448 2.70913 0
M  V30 3139 H 287.253 0.742269 1.35387 0
M  V30 3140 H 289.211 -0.909837 4.0029 0
M  V30 3141 H 287.872 -1.24482 2.8838 0
M  V30 3142 H 287.065 -0.224191 5.03501 0
M  V30 3143 H 286.667 0.818014 3.64945 0
M  V30 3144 H 288.959 0.254023 6.77024 0
M  V30 3145 H 289.902 1.77589 6.85469 0
M  V30 3146 H 290.31 0.549532 5.61819 0
M  V30 3147 N 289.708 -1.40897 0.706093 0
M  V30 3148 C 290.638 -2.33418 0.0620085 0
M  V30 3149 C 291.619 -1.52385 -0.755827 0
M  V30 3150 O 292.804 -1.80886 -0.706674 0
M  V30 3151 C 289.934 -3.36293 -0.867445 0
M  V30 3152 C 288.888 -4.27716 -0.155932 0
M  V30 3153 C 288.214 -5.2105 -1.20046 0
M  V30 3154 C 289.514 -5.12944 0.984149 0
M  V30 3155 H 291.208 -2.87527 0.83477 0
M  V30 3156 H 288.754 -1.38249 0.402875 0
M  V30 3157 H 290.707 -3.99949 -1.32735 0
M  V30 3158 H 289.431 -2.80556 -1.67199 0
M  V30 3159 H 288.09 -3.65498 0.284047 0
M  V30 3160 H 287.738 -4.61624 -1.99781 0
M  V30 3161 H 287.438 -5.83056 -0.729328 0
M  V30 3162 H 288.962 -5.87584 -1.66066 0
M  V30 3163 H 290.376 -5.70109 0.604048 0
M  V30 3164 H 288.773 -5.83945 1.38304 0
M  V30 3165 H 289.843 -4.49485 1.81911 0
M  V30 3166 N 291.186 -0.45159 -1.50991 0
M  V30 3167 C 292.433 0.110074 -2.02201 0
M  V30 3168 C 292.761 1.4146 -1.33489 0
M  V30 3169 O 292.016 1.90617 -0.443125 0
M  V30 3170 C 292.315 0.361728 -3.55565 0
M  V30 3171 C 291.981 -0.858717 -4.42648 0
M  V30 3172 C 290.643 -1.19338 -4.66167 0
M  V30 3173 C 292.995 -1.67221 -4.93646 0
M  V30 3174 C 290.323 -2.34195 -5.37931 0
M  V30 3175 C 292.675 -2.8119 -5.6667 0
M  V30 3176 C 291.339 -3.15094 -5.88449 0
M  V30 3177 H 290.609 0.040279 -0.739904 0
M  V30 3178 H 293.256 -0.601696 -1.81802 0
M  V30 3179 H 291.561 1.15554 -3.74372 0
M  V30 3180 H 293.258 0.80996 -3.92735 0
M  V30 3181 H 289.848 -0.58796 -4.24548 0
M  V30 3182 H 294.032 -1.42686 -4.75347 0
M  V30 3183 H 289.288 -2.6076 -5.53005 0
M  V30 3184 H 293.462 -3.44585 -6.05173 0
M  V30 3185 H 291.089 -4.04204 -6.43835 0
M  V30 3186 N 292.664 1.56529 -0.183458 0
M  V30 3187 C 293.912 1.96855 0.457452 0
M  V30 3188 C 294.233 1.07104 1.62953 0
M  V30 3189 O 293.503 0.139887 1.954 0
M  V30 3190 H 292.083 0.72693 0.171992 0
M  V30 3191 H 294.745 1.93056 -0.267476 0
M  V30 3192 H 293.841 3.01423 0.809368 0
M  V30 3193 N 294.142 -0.090211 1.57342 0
M  V30 3194 C 295.367 -0.810082 1.90925 0
M  V30 3195 C 295.792 -1.71248 0.778187 0
M  V30 3196 O 295.15 -1.79278 -0.269991 0
M  V30 3197 C 295.198 -1.59529 3.23393 0
M  V30 3198 O 294.302 -2.70461 3.11327 0
M  V30 3199 H 293.643 -0.222231 0.625707 0
M  V30 3200 H 296.173 -0.0639716 2.045 0
M  V30 3201 H 296.183 -1.97847 3.5682 0
M  V30 3202 H 294.858 -0.933055 4.05299 0
M  V30 3203 H 293.435 -2.35135 2.89423 0
M  V30 3204 N 295.62 -1.53406 -0.361157 0
M  V30 3205 C 296.897 -1.60411 -1.11927 0
M  V30 3206 C 297.277 -0.414385 -2.06993 0
M  V30 3207 O 296.625 0.594976 -2.20618 0
M  V30 3208 C 296.835 -2.95652 -1.85448 0
M  V30 3209 C 298.183 -3.50386 -2.39823 0
M  V30 3210 O 299.207 -2.97711 -1.95568 0
M  V30 3211 O 298.066 -4.42482 -3.20737 0
M  V30 3212 H 295.16 -0.64811 -0.513695 0
M  V30 3213 H 297.706 -1.65749 -0.364065 0
M  V30 3214 H 296.478 -3.73682 -1.16091 0
M  V30 3215 H 296.101 -2.93825 -2.67866 0
M  V30 3216 N 297.098 0.621204 -1.44841 0
M  V30 3217 C 298.514 0.94048 -1.28946 0
M  V30 3218 C 298.714 2.00154 -0.23249 0
M  V30 3219 O 297.77 2.49651 0.378237 0
M  V30 3220 C 299.083 1.39433 -2.66419 0
M  V30 3221 C 300.631 1.50927 -2.74208 0
M  V30 3222 C 301.106 1.99692 -4.12174 0
M  V30 3223 N 302.597 2.06947 -4.144 0
M  V30 3224 C 303.332 2.45871 -5.1801 0
M  V30 3225 N 302.828 2.83862 -6.31977 0
M  V30 3226 N 304.621 2.46092 -5.05366 0
M  V30 3227 H 296.772 -0.0803548 -2.12248 0
M  V30 3228 H 299.035 0.0266913 -0.947624 0
M  V30 3229 H 298.741 0.688925 -3.44887 0
M  V30 3230 H 298.615 2.36347 -2.93973 0
M  V30 3231 H 301.002 2.20561 -1.96053 0
M  V30 3232 H 301.083 0.523627 -2.50383 0
M  V30 3233 H 300.727 1.30649 -4.90809 0
M  V30 3234 H 300.657 2.99146 -4.33381 0
M  V30 3235 H 303.148 1.80232 -3.32152 0
M  V30 3236 H 303.461 3.12405 -7.0684 0
M  V30 3237 H 301.806 2.8159 -6.35399 0
M  V30 3238 H 304.997 2.1581 -4.15384 0
M  V30 3239 H 305.17 2.76102 -5.86235 0
M  V30 3240 N 298.576 1.31904 0.862503 0
M  V30 3241 C 299.509 1.14514 1.97388 0
M  V30 3242 C 300.487 0.0466493 1.62533 0
M  V30 3243 O 301.671 0.204484 1.87388 0
M  V30 3244 C 298.798 0.751347 3.30261 0
M  V30 3245 C 297.844 1.85395 3.84098 0
M  V30 3246 S 298.677 3.46081 4.08642 0
M  V30 3247 C 299.833 3.08655 5.44502 0
M  V30 3248 H 300.066 2.08597 2.11836 0
M  V30 3249 H 297.599 1.16475 1.01356 0
M  V30 3250 H 299.557 0.530901 4.07052 0
M  V30 3251 H 298.218 -0.170493 3.13637 0
M  V30 3252 H 297.411 1.53122 4.80177 0
M  V30 3253 H 297.013 2.02984 3.14123 0
M  V30 3254 H 299.305 2.58012 6.26447 0
M  V30 3255 H 300.248 4.03726 5.81731 0
M  V30 3256 H 300.656 2.45891 5.08132 0
M  V30 3257 N 300.054 -1.07777 1.14986 0
M  V30 3258 C 300.964 -2.18404 0.856546 0
M  V30 3259 C 301.98 -1.73211 -0.165485 0
M  V30 3260 O 303.156 -2.01399 0.00755219 0
M  V30 3261 C 300.221 -3.44977 0.34526 0
M  V30 3262 C 299.282 -4.0476 1.43065 0
M  V30 3263 C 298.515 -5.25291 0.943663 0
M  V30 3264 O 298.738 -5.70004 -0.212426 0
M  V30 3265 O 297.672 -5.76638 1.72547 0
M  V30 3266 H 301.498 -2.45978 1.78125 0
M  V30 3267 H 299.083 -1.17033 0.928631 0
M  V30 3268 H 300.965 -4.21348 0.0663671 0
M  V30 3269 H 299.64 -3.18965 -0.551631 0
M  V30 3270 H 298.547 -3.29949 1.76309 0
M  V30 3271 H 299.88 -4.35035 2.30229 0
M  V30 3272 N 301.532 -0.945985 -1.26051 0
M  V30 3273 C 302.462 -0.477172 -2.28572 0
M  V30 3274 C 303.443 0.472032 -1.63419 0
M  V30 3275 O 304.628 0.372853 -1.90587 0
M  V30 3276 C 301.758 0.253975 -3.4637 0
M  V30 3277 C 300.712 -0.609135 -4.23643 0
M  V30 3278 C 300.038 0.252252 -5.34105 0
M  V30 3279 C 301.338 -1.8829 -4.8718 0
M  V30 3280 H 303.032 -1.33402 -2.68038 0
M  V30 3281 H 300.578 -0.642904 -1.28852 0
M  V30 3282 H 302.531 0.593016 -4.17207 0
M  V30 3283 H 301.255 1.145 -3.05871 0
M  V30 3284 H 299.914 -0.931138 -3.54578 0
M  V30 3285 H 299.562 1.14278 -4.89846 0
M  V30 3286 H 299.262 -0.32188 -5.86718 0
M  V30 3287 H 300.786 0.586454 -6.07777 0
M  V30 3288 H 302.2 -1.61081 -5.50205 0
M  V30 3289 H 300.597 -2.40199 -5.49931 0
M  V30 3290 H 301.667 -2.59134 -4.09851 0
M  V30 3291 N 303.011 1.40521 -0.713556 0
M  V30 3292 C 303.941 2.33381 -0.0743864 0
M  V30 3293 C 304.922 1.52784 0.747735 0
M  V30 3294 O 306.107 1.81258 0.697071 0
M  V30 3295 C 303.237 3.36748 0.849598 0
M  V30 3296 C 302.191 4.27793 0.133247 0
M  V30 3297 C 301.517 5.21679 1.17281 0
M  V30 3298 C 302.817 5.12415 -1.01134 0
M  V30 3299 H 304.511 2.87081 -0.850007 0
M  V30 3300 H 302.057 1.38034 -0.410201 0
M  V30 3301 H 304.01 4.00648 1.30612 0
M  V30 3302 H 302.734 2.81439 1.65709 0
M  V30 3303 H 301.393 3.65342 -0.303426 0
M  V30 3304 H 301.041 4.62677 1.9733 0
M  V30 3305 H 300.741 5.83435 0.698397 0
M  V30 3306 H 302.265 5.88456 1.62947 0
M  V30 3307 H 303.679 5.69781 -0.634274 0
M  V30 3308 H 302.076 5.83203 -1.41399 0
M  V30 3309 H 303.146 4.48514 -1.84292 0
M  V30 3310 N 304.489 0.459591 1.5075 0
M  V30 3311 C 305.452 -0.329093 2.26825 0
M  V30 3312 C 306.452 -0.930481 1.31144 0
M  V30 3313 O 307.642 -0.801453 1.54669 0
M  V30 3314 C 304.774 -1.46768 3.07688 0
M  V30 3315 H 305.967 0.337924 2.9799 0
M  V30 3316 H 303.52 0.213336 1.54837 0
M  V30 3317 H 304.255 -2.17009 2.40993 0
M  V30 3318 H 304.04 -1.04238 3.77991 0
M  V30 3319 H 305.53 -2.02433 3.65254 0
M  V30 3320 N 305.967 -1.56429 0.191757 0
M  V30 3321 C 306.917 -2.15548 -0.743184 0
M  V30 3322 C 307.901 -1.09531 -1.17863 0
M  V30 3323 O 309.093 -1.35602 -1.13759 0
M  V30 3324 C 306.222 -2.81577 -1.96391 0
M  V30 3325 C 305.308 -3.9478 -1.54951 0
M  V30 3326 N 305.699 -4.98677 -0.845876 0
M  V30 3327 C 303.997 -4.06319 -1.83905 0
M  V30 3328 C 304.698 -5.78183 -0.638724 0
M  V30 3329 N 303.674 -5.30495 -1.18643 0
M  V30 3330 H 307.476 -2.9324 -0.196839 0
M  V30 3331 H 304.99 -1.62398 -0.0081603 0
M  V30 3332 H 306.987 -3.22321 -2.64415 0
M  V30 3333 H 305.647 -2.05371 -2.51501 0
M  V30 3334 H 306.658 -5.15464 -0.501704 0
M  V30 3335 H 303.335 -3.41238 -2.40548 0
M  V30 3336 H 304.725 -6.71851 -0.0807929 0
M  V30 3337 N 307.445 0.0818655 -1.57387 0
M  V30 3338 C 308.375 1.09885 -2.06028 0
M  V30 3339 C 309.356 1.4098 -0.951774 0
M  V30 3340 O 310.541 1.50781 -1.22387 0
M  V30 3341 C 307.671 2.4151 -2.4958 0
M  V30 3342 C 306.625 2.24792 -3.64215 0
M  V30 3343 C 305.951 3.61712 -3.93787 0
M  V30 3344 C 307.251 1.67749 -4.94629 0
M  V30 3345 H 308.945 0.694128 -2.91243 0
M  V30 3346 H 306.491 0.332448 -1.4011 0
M  V30 3347 H 308.444 3.12939 -2.82219 0
M  V30 3348 H 307.168 2.83943 -1.61381 0
M  V30 3349 H 305.827 1.55807 -3.31843 0
M  V30 3350 H 305.475 4.01697 -3.02735 0
M  V30 3351 H 305.175 3.51368 -4.70971 0
M  V30 3352 H 306.699 4.34587 -4.28913 0
M  V30 3353 H 308.113 2.29032 -5.25564 0
M  V30 3354 H 306.51 1.68128 -5.76067 0
M  V30 3355 H 307.58 0.638059 -4.80684 0
M  V30 3356 N 308.923 1.53595 0.353017 0
M  V30 3357 C 309.853 1.83902 1.43883 0
M  V30 3358 C 310.834 0.693421 1.55324 0
M  V30 3359 O 312.019 0.944452 1.69687 0
M  V30 3360 C 309.149 2.04016 2.8106 0
M  V30 3361 C 308.103 3.19814 2.84434 0
M  V30 3362 C 307.429 3.25244 4.24406 0
M  V30 3363 C 308.729 4.58133 2.50822 0
M  V30 3364 H 310.423 2.74835 1.1877 0
M  V30 3365 H 307.969 1.32242 0.569917 0
M  V30 3366 H 309.922 2.238 3.57059 0
M  V30 3367 H 308.646 1.09804 3.07588 0
M  V30 3368 H 307.305 2.9987 2.10887 0
M  V30 3369 H 306.953 2.28646 4.48029 0
M  V30 3370 H 306.653 4.03054 4.27576 0
M  V30 3371 H 308.177 3.47228 5.0226 0
M  V30 3372 H 309.591 4.77995 3.16534 0
M  V30 3373 H 307.988 5.38276 2.6529 0
M  V30 3374 H 309.058 4.62387 1.46034 0
M  V30 3375 N 310.401 -0.613514 1.45168 0
M  V30 3376 C 311.649 -1.36997 1.48581 0
M  V30 3377 C 311.97 -1.94589 0.126545 0
M  V30 3378 O 311.24 -1.76816 -0.843372 0
M  V30 3379 H 309.82 -0.508558 0.547154 0
M  V30 3380 H 312.482 -0.720853 1.81079 0
M  V30 3381 H 311.578 -2.1924 2.22127 0
M  V30 3382 N 311.879 -1.3236 -0.855495 0
M  V30 3383 C 312.789 -1.23221 -1.99634 0
M  V30 3384 C 313.805 -0.145983 -1.73387 0
M  V30 3385 O 314.981 -0.366502 -1.98037 0
M  V30 3386 C 312.046 -0.954782 -3.33294 0
M  V30 3387 C 311.107 -2.12937 -3.72769 0
M  V30 3388 C 310.34 -1.86508 -5.00051 0
M  V30 3389 O 310.563 -0.807231 -5.64659 0
M  V30 3390 O 309.497 -2.72591 -5.36636 0
M  V30 3391 H 313.323 -2.19126 -2.1028 0
M  V30 3392 H 310.908 -1.12241 -0.986018 0
M  V30 3393 H 312.79 -0.816519 -4.13414 0
M  V30 3394 H 311.465 -0.0258854 -3.2369 0
M  V30 3395 H 310.372 -2.3231 -2.93228 0
M  V30 3396 H 311.705 -3.04102 -3.87018 0
M  V30 3397 N 313.357 1.07166 -1.15556 0
M  V30 3398 C 314.304 2.14417 -0.854055 0
M  V30 3399 C 315.274 1.64965 0.193806 0
M  V30 3400 O 316.459 1.90703 0.0609443 0
M  V30 3401 C 313.599 3.43304 -0.351574 0
M  V30 3402 C 312.712 4.06537 -1.46123 0
M  V30 3403 C 311.847 5.23266 -0.914677 0
M  V30 3404 C 310.886 5.78464 -2.00114 0
M  V30 3405 N 310.023 6.86521 -1.47083 0
M  V30 3406 H 314.863 2.39548 -1.77259 0
M  V30 3407 H 312.4 1.17543 -0.884425 0
M  V30 3408 H 314.358 4.17179 -0.0419409 0
M  V30 3409 H 312.988 3.18419 0.530037 0
M  V30 3410 H 312.04 3.30297 -1.88701 0
M  V30 3411 H 313.352 4.43567 -2.28144 0
M  V30 3412 H 312.506 6.04131 -0.557698 0
M  V30 3413 H 311.245 4.87658 -0.0636583 0
M  V30 3414 H 310.25 4.96243 -2.36692 0
M  V30 3415 H 311.475 6.16126 -2.85597 0
M  V30 3416 H 309.421 6.52849 -0.642198 0
M  V30 3417 H 309.338 7.22446 -2.22729 0
M  V30 3418 H 310.606 7.71087 -1.14215 0
M  V30 3419 N 314.835 0.952656 1.25548 0
M  V30 3420 C 316.081 0.616826 1.93822 0
M  V30 3421 C 316.436 -0.836684 1.73255 0
M  V30 3422 O 315.729 -1.59218 1.06584 0
M  V30 3423 C 315.923 0.908818 3.45652 0
M  V30 3424 C 315.752 2.38916 3.80984 0
M  V30 3425 C 314.522 3.04637 4.03143 0
M  V30 3426 C 316.72 3.36838 3.88645 0
M  V30 3427 N 314.702 4.42565 4.25453 0
M  V30 3428 C 316.073 4.60065 4.1562 0
M  V30 3429 C 318.128 3.31704 3.71318 0
M  V30 3430 C 316.831 5.78795 4.2707 0
M  V30 3431 C 318.857 4.4977 3.84006 0
M  V30 3432 C 318.219 5.71783 4.11392 0
M  V30 3433 H 314.318 0.27629 0.731565 0
M  V30 3434 H 316.902 1.22443 1.5138 0
M  V30 3435 H 315.073 0.330166 3.86994 0
M  V30 3436 H 316.805 0.533093 4.01174 0
M  V30 3437 H 313.56 2.55215 3.98952 0
M  V30 3438 H 313.984 5.1399 4.40617 0
M  V30 3439 H 318.626 2.3842 3.49164 0
M  V30 3440 H 316.344 6.72521 4.48041 0
M  V30 3441 H 319.93 4.47342 3.71989 0
M  V30 3442 H 318.81 6.61617 4.2099 0
M  V30 3443 N 316.313 -1.40141 0.720998 0
M  V30 3444 C 317.246 -2.2819 0.020916 0
M  V30 3445 C 318.224 -1.43633 -0.762129 0
M  V30 3446 O 319.408 -1.7304 -0.747633 0
M  V30 3447 C 316.535 -3.24281 -0.977715 0
M  V30 3448 C 315.581 -4.25548 -0.284836 0
M  V30 3449 S 316.414 -5.26247 0.991169 0
M  V30 3450 C 317.57 -6.259 -0.0052214 0
M  V30 3451 H 317.803 -2.87218 0.767649 0
M  V30 3452 H 315.336 -1.45656 0.512233 0
M  V30 3453 H 317.294 -3.80167 -1.54865 0
M  V30 3454 H 315.955 -2.643 -1.69719 0
M  V30 3455 H 315.148 -4.93154 -1.03996 0
M  V30 3456 H 314.75 -3.73389 0.213684 0
M  V30 3457 H 317.042 -6.72143 -0.850279 0
M  V30 3458 H 317.985 -7.05224 0.637599 0
M  V30 3459 H 318.393 -5.63277 -0.371366 0
M  V30 3460 N 317.792 -0.46758 -1.50504 0
M  V30 3461 C 319.04 0.0884469 -2.01906 0
M  V30 3462 C 319.361 1.40532 -1.35188 0
M  V30 3463 O 318.631 1.89515 -0.496079 0
M  V30 3464 H 317.211 0.0356765 -0.746148 0
M  V30 3465 H 319.873 -0.6172 -1.84869 0
M  V30 3466 H 318.969 0.2425 -3.11156 0
M  V30 3467 N 319.27 1.56325 -0.20005 0
M  V30 3468 C 320.681 1.8408 0.31167 0
M  V30 3469 C 321.032 1.12087 1.61031 0
M  V30 3470 O 320.157 0.38332 2.12978 0
M  V30 3471 C 320.752 3.33932 0.57226 0
M  V30 3472 C 319.311 3.6208 1.02834 0
M  V30 3473 C 318.458 2.77186 0.079634 0
M  V30 3474 H 321.409 1.52939 -0.423729 0
M  V30 3475 H 321.43 3.52971 1.42096 0
M  V30 3476 H 320.942 3.86303 -0.37308 0
M  V30 3477 H 319.043 3.15147 1.98778 0
M  V30 3478 H 319.156 4.7023 0.917624 0
M  V30 3479 H 317.52 2.47951 0.582448 0
M  V30 3480 H 318.303 3.32347 -0.860238 0
M  V30 3481 N 320.748 -0.0735177 1.57428 0
M  V30 3482 C 321.997 -0.771809 1.86349 0
M  V30 3483 C 322.31 -1.78828 0.792452 0
M  V30 3484 O 323.516 -2.53602 0.96945 0
M  V30 3485 C 321.972 -1.42358 3.30548 0
M  V30 3486 C 321.58 -0.445761 4.45777 0
M  V30 3487 C 323.324 -2.10434 3.6867 0
M  V30 3488 C 321.231 -1.10335 5.81016 0
M  V30 3489 H 320.161 -0.291999 0.695164 0
M  V30 3490 H 322.812 -0.0250749 1.83483 0
M  V30 3491 H 321.194 -2.21852 3.28021 0
M  V30 3492 H 322.368 0.319239 4.59693 0
M  V30 3493 H 320.683 0.130457 4.16196 0
M  V30 3494 H 323.28 -2.60405 4.67004 0
M  V30 3495 H 323.623 -2.90298 2.98383 0
M  V30 3496 H 324.156 -1.37773 3.7318 0
M  V30 3497 H 320.895 -0.345061 6.54591 0
M  V30 3498 H 320.415 -1.83925 5.70904 0
M  V30 3499 H 322.094 -1.62367 6.26295 0
M  V30 3500 N 322.226 -1.5378 -0.344866 0
M  V30 3501 C 323.637 -1.62428 -0.920552 0
M  V30 3502 C 323.988 -0.504747 -1.89596 0
M  V30 3503 O 323.113 0.365711 -2.13287 0
M  V30 3504 C 323.708 -2.94419 -1.67639 0
M  V30 3505 C 322.267 -3.05333 -2.20111 0
M  V30 3506 C 321.414 -2.57866 -1.01982 0
M  V30 3507 H 324.365 -1.58222 -0.123042 0
M  V30 3508 H 324.386 -2.83384 -2.53917 0
M  V30 3509 H 323.898 -3.7588 -0.966224 0
M  V30 3510 H 321.999 -2.28502 -2.94308 0
M  V30 3511 H 322.112 -4.10778 -2.46573 0
M  V30 3512 H 320.476 -2.13241 -1.39285 0
M  V30 3513 H 321.259 -3.41765 -0.324308 0
M  V30 3514 N 323.704 0.605807 -1.45491 0
M  V30 3515 C 325.115 1.18777 -1.44045 0
M  V30 3516 C 325.466 1.95471 -0.169001 0
M  V30 3517 O 324.591 2.0374 0.729324 0
M  V30 3518 C 325.186 2.16064 -2.60963 0
M  V30 3519 C 323.745 2.69633 -2.62631 0
M  V30 3520 C 322.892 1.45072 -2.36325 0
M  V30 3521 H 325.843 0.395017 -1.53705 0
M  V30 3522 H 325.864 2.9913 -2.35163 0
M  V30 3523 H 325.376 1.60217 -3.53486 0
M  V30 3524 H 323.477 3.29414 -1.74119 0
M  V30 3525 H 323.59 3.13944 -3.61906 0
M  V30 3526 H 321.954 1.74089 -1.85917 0
M  V30 3527 H 322.737 0.910899 -3.30995 0
M  V30 3528 N 325.182 1.32811 0.848464 0
M  V30 3529 C 326.145 1.22194 1.9391 0
M  V30 3530 C 327.145 0.143404 1.60159 0
M  V30 3531 O 328.335 0.394253 1.6968 0
M  V30 3532 C 325.467 0.88067 3.29328 0
M  V30 3533 H 326.66 2.19127 2.04752 0
M  V30 3534 H 324.213 1.16731 1.0394 0
M  V30 3535 H 324.948 -0.0865776 3.24184 0
M  V30 3536 H 324.733 1.66052 3.55203 0
M  V30 3537 H 326.223 0.830871 4.09251 0
M  V30 3538 N 326.66 -1.06551 1.16123 0
M  V30 3539 C 327.906 -1.79567 0.94252 0
M  V30 3540 C 328.239 -1.86869 -0.528547 0
M  V30 3541 O 327.514 -1.35838 -1.39206 0
M  V30 3542 C 327.797 -3.24195 1.56747 0
M  V30 3543 C 327.65 -3.24989 3.10969 0
M  V30 3544 C 328.969 -4.21678 1.25998 0
M  V30 3545 H 326.088 -0.651883 0.343828 0
M  V30 3546 H 328.73 -1.2463 1.43413 0
M  V30 3547 H 326.88 -3.71107 1.14942 0
M  V30 3548 H 328.552 -2.86258 3.61737 0
M  V30 3549 H 326.795 -2.63716 3.44436 0
M  V30 3550 H 327.466 -4.27005 3.49815 0
M  V30 3551 H 329.942 -3.83196 1.62174 0
M  V30 3552 H 328.818 -5.21146 1.7233 0
M  V30 3553 H 329.079 -4.4174 0.178367 0
M  V30 3554 N 328.138 -0.959301 -1.25041 0
M  V30 3555 C 329.086 -0.474437 -2.2771 0
M  V30 3556 C 330.08 0.457697 -1.631 0
M  V30 3557 O 331.286 0.333912 -1.76876 0
M  V30 3558 H 327.661 -0.134936 -0.739795 0
M  V30 3559 H 329.632 -1.35251 -2.65988 0
M  V30 3560 C 328.381 0.227884 -3.46952 0
M  V30 3561 H 327.704 -0.480248 -3.96905 0
M  V30 3562 H 329.144 0.531091 -4.20661 0
M  V30 3563 C 327.603 1.452 -3.04004 0
M  V30 3564 O 328.133 2.54949 -3.10426 0
M  V30 3565 N 326.339 1.31502 -2.59144 0
M  V30 3566 H 325.886 0.422065 -2.54119 0
M  V30 3567 H 325.844 2.13521 -2.30773 0
M  V30 3568 N 329.616 1.39756 -0.72842 0
M  V30 3569 C 330.579 2.29012 -0.0927297 0
M  V30 3570 C 331.579 1.45992 0.674025 0
M  V30 3571 O 332.769 1.66749 0.50402 0
M  V30 3572 C 329.901 3.29396 0.878137 0
M  V30 3573 H 331.094 2.86729 -0.879011 0
M  V30 3574 H 328.647 1.48293 -0.493847 0
M  V30 3575 H 329.382 2.76722 1.69101 0
M  V30 3576 H 329.167 3.907 0.331051 0
M  V30 3577 H 330.657 3.96199 1.3197 0
M  V30 3578 N 331.094 0.475555 1.50254 0
M  V30 3579 C 332.51 0.12997 1.5907 0
M  V30 3580 C 332.71 -1.36385 1.48328 0
M  V30 3581 O 331.766 -2.13754 1.34407 0
M  V30 3582 C 333.079 0.684139 2.92814 0
M  V30 3583 C 334.627 0.647965 3.0622 0
M  V30 3584 C 335.102 1.17975 4.42545 0
M  V30 3585 N 336.593 1.13936 4.48969 0
M  V30 3586 C 337.328 1.52129 5.52851 0
M  V30 3587 N 336.824 1.97793 6.63965 0
M  V30 3588 N 338.617 1.43704 5.4342 0
M  V30 3589 H 330.768 1.44706 1.55479 0
M  V30 3590 H 333.031 0.598691 0.735033 0
M  V30 3591 H 332.737 1.73079 3.06164 0
M  V30 3592 H 332.611 0.130204 3.76975 0
M  V30 3593 H 334.998 -0.38979 2.92514 0
M  V30 3594 H 335.079 1.23876 2.23805 0
M  V30 3595 H 334.723 2.21616 4.57 0
M  V30 3596 H 334.653 0.565138 5.23559 0
M  V30 3597 H 337.144 0.804488 3.69238 0
M  V30 3598 H 337.457 2.25072 7.39299 0
M  V30 3599 H 335.802 2.01749 6.65073 0
M  V30 3600 H 338.993 1.07867 4.55502 0
M  V30 3601 H 339.166 1.73794 6.24259 0
M  V30 3602 N 332.573 -1.56217 0.208337 0
M  V30 3603 C 333.503 -2.22694 -0.702116 0
M  V30 3604 C 334.484 -1.19432 -1.2112 0
M  V30 3605 O 335.669 -1.47978 -1.25762 0
M  V30 3606 C 332.799 -2.8966 -1.9161 0
M  V30 3607 C 331.753 -3.9928 -1.5414 0
M  V30 3608 C 331.079 -4.53476 -2.83308 0
M  V30 3609 C 332.379 -5.17012 -0.741339 0
M  V30 3610 H 334.073 -2.99034 -0.147898 0
M  V30 3611 H 331.619 -1.43831 -0.0696951 0
M  V30 3612 H 333.572 -3.34852 -2.55836 0
M  V30 3613 H 332.296 -2.10746 -2.49507 0
M  V30 3614 H 330.955 -3.54799 -0.922668 0
M  V30 3615 H 330.603 -3.71308 -3.39322 0
M  V30 3616 H 330.303 -5.27451 -2.58976 0
M  V30 3617 H 331.827 -5.01378 -3.485 0
M  V30 3618 H 333.241 -5.58667 -1.28699 0
M  V30 3619 H 331.638 -5.97137 -0.595627 0
M  V30 3620 H 332.708 -4.8423 0.254851 0
M  V30 3621 O 334.09 -0.071647 -1.61341 0
M  V30 3622 H 334.781 0.534597 -1.86177 0
M  V30 END ATOM
M  V30 BEGIN BOND
M  V30 END BOND
M  V30 END CTAB
M  END
$$$$
