drugbank_target|Q819U0 Peptide deformylase 1 (DB04310)
 OpenBabel12092120423D

  0  0  0     0  0            999 V3000
M  V30 BEGIN CTAB
M  V30 COUNTS 2476 2495 0 0 0
M  V30 BEGIN ATOM
M  V30 1 H -0.908 1.98254 -0.117106 0
M  V30 2 N 0 1.576 0 0
M  V30 3 C 0.933 2.03868 1.02534 0
M  V30 4 C 1.911 0.928543 1.3348 0
M  V30 5 O 3.095 1.19667 1.45644 0
M  V30 6 C 0.222 2.43627 2.35294 0
M  V30 7 C -0.732 3.65373 2.2001 0
M  V30 8 S 0.101 5.13292 1.52614 0
M  V30 9 C 1.257 5.56322 2.86805 0
M  V30 10 H 1.49 2.90518 0.631377 0
M  V30 11 H -0.977 1.52953 0.210867 0
M  V30 12 H 0.981 2.67203 3.11629 0
M  V30 13 H -0.358 1.57376 2.7183 0
M  V30 14 H -1.165 3.90944 3.18086 0
M  V30 15 H -1.563 3.418 1.51819 0
M  V30 16 H 0.729 5.58782 3.83104 0
M  V30 17 H 1.672 6.56266 2.65933 0
M  V30 18 H 2.08 4.83886 2.90714 0
M  V30 19 N 1.4781 -0.272755 1.55222 0
M  V30 20 C 2.4411 -1.32041 1.87344 0
M  V30 21 C 3.4411 -1.42342 0.74803 0
M  V30 22 O 4.6311 -1.41488 1.0162 0
M  V30 23 C 1.7631 -2.70173 2.07893 0
M  V30 24 H 2.9561 -1.04789 2.80997 0
M  V30 25 H 0.5091 -0.51083 1.47717 0
M  V30 26 H 1.2441 -3.02605 1.16622 0
M  V30 27 H 1.0291 -2.64082 2.89833 0
M  V30 28 H 2.5191 -3.45869 2.34017 0
M  V30 29 N 2.9562 -1.48159 -0.537278 0
M  V30 30 C 4.2022 -1.56035 -1.29541 0
M  V30 31 C 4.5352 -0.230377 -1.92829 0
M  V30 32 O 3.8102 0.762952 -1.78911 0
M  V30 33 C 4.0932 -2.69323 -2.39034 0
M  V30 34 C 3.9462 -4.12002 -1.80485 0
M  V30 35 C 5.2652 -2.78408 -3.40847 0
M  V30 36 H 2.3842 -0.567992 -0.469632 0
M  V30 37 H 5.0262 -1.80302 -0.599277 0
M  V30 38 H 3.1762 -2.48763 -2.98412 0
M  V30 39 H 4.8482 -4.43981 -1.25215 0
M  V30 40 H 3.0912 -4.19344 -1.11055 0
M  V30 41 H 3.7622 -4.87077 -2.59731 0
M  V30 42 H 6.2382 -2.97012 -2.91416 0
M  V30 43 H 5.1142 -3.59416 -4.14863 0
M  V30 44 H 5.3752 -1.86269 -4.00944 0
M  V30 45 N 4.4343 0.785586 -1.36625 0
M  V30 46 C 5.3643 1.91259 -1.33949 0
M  V30 47 C 6.3453 1.68795 -0.210325 0
M  V30 48 O 7.5303 1.89854 -0.408561 0
M  V30 49 C 4.6603 3.28339 -1.13186 0
M  V30 50 C 3.6143 3.65335 -2.22967 0
M  V30 51 C 2.9403 5.00806 -1.87342 0
M  V30 52 C 4.2403 3.7352 -3.65075 0
M  V30 53 H 5.9343 1.93755 -2.28253 0
M  V30 54 H 3.4803 0.930788 -1.09874 0
M  V30 55 H 5.4333 4.06804 -1.09948 0
M  V30 56 H 4.1573 3.2624 -0.153332 0
M  V30 57 H 2.8163 2.89169 -2.25337 0
M  V30 58 H 2.4643 4.95233 -0.880545 0
M  V30 59 H 2.1643 5.26529 -2.60846 0
M  V30 60 H 3.6883 5.81687 -1.85667 0
M  V30 61 H 5.1023 4.42168 -3.64911 0
M  V30 62 H 3.4993 4.10731 -4.37516 0
M  V30 63 H 4.5693 2.74527 -3.99703 0
M  V30 64 N 5.9124 1.20967 1.01018 0
M  V30 65 C 6.8224 0.980157 2.13143 0
M  V30 66 C 7.8384 -0.0660665 1.73875 0
M  V30 67 O 9.0144 0.122821 2.01025 0
M  V30 68 C 6.0794 0.54216 3.42435 0
M  V30 69 C 5.1404 1.65999 3.95908 0
M  V30 70 C 4.3734 1.2428 5.19028 0
M  V30 71 O 4.5964 0.114196 5.70286 0
M  V30 72 O 3.5304 2.05271 5.65816 0
M  V30 73 H 7.3564 1.91913 2.35379 0
M  V30 74 H 4.9414 0.994099 1.11526 0
M  V30 75 H 6.8234 0.30744 4.20277 0
M  V30 76 H 5.4984 -0.36815 3.216 0
M  V30 77 H 4.4054 1.94906 3.19316 0
M  V30 78 H 5.7384 2.54753 4.21143 0
M  V30 79 N 7.3905 -1.2043 1.01659 0
M  V30 80 C 8.6395 -1.89118 0.701237 0
M  V30 81 C 8.9525 -1.79705 -0.772358 0
M  V30 82 O 10.1585 -2.43528 -1.20026 0
M  V30 83 C 8.6145 -3.39168 1.20388 0
M  V30 84 C 8.2225 -3.57166 2.70438 0
M  V30 85 C 9.9665 -4.1341 0.963953 0
M  V30 86 C 7.8735 -5.01042 3.14183 0
M  V30 87 H 6.8035 -0.708267 0.2586 0
M  V30 88 H 9.4545 -1.36239 1.22927 0
M  V30 89 H 7.8365 -3.91369 0.603824 0
M  V30 90 H 9.0105 -3.15351 3.35992 0
M  V30 91 H 7.3255 -2.96294 2.92572 0
M  V30 92 H 9.9225 -5.19491 1.26621 0
M  V30 93 H 10.2655 -4.16181 -0.099578 0
M  V30 94 H 10.7985 -3.67309 1.52738 0
M  V30 95 H 7.5375 -5.03426 4.19812 0
M  V30 96 H 7.0575 -5.43668 2.53348 0
M  V30 97 H 8.7365 -5.69623 3.0682 0
M  V30 98 N 8.8686 -0.792821 -1.36206 0
M  V30 99 C 10.1176 -0.363353 -1.984 0
M  V30 100 C 10.4306 1.07172 -1.63626 0
M  V30 101 O 11.6366 1.60362 -2.19081 0
M  V30 102 C 10.0926 -0.59872 -3.54885 0
M  V30 103 C 9.7006 -2.04543 -3.9858 0
M  V30 104 C 11.4446 -0.233926 -4.23855 0
M  V30 105 C 9.3516 -2.22727 -5.47856 0
M  V30 106 H 8.2816 -0.13212 -0.742334 0
M  V30 107 H 10.9326 -0.974935 -1.55458 0
M  V30 108 H 9.3146 0.0826222 -3.95914 0
M  V30 109 H 10.4886 -2.76345 -3.68741 0
M  V30 110 H 8.8036 -2.36879 -3.42458 0
M  V30 111 H 11.4006 -0.348027 -5.33566 0
M  V30 112 H 11.7436 0.818351 -4.08177 0
M  V30 113 H 12.2766 -0.868639 -3.882 0
M  V30 114 H 9.0156 -3.2635 -5.68486 0
M  V30 115 H 8.5356 -1.55434 -5.7931 0
M  V30 116 H 10.2146 -2.03607 -6.14128 0
M  V30 117 N 10.3467 1.47872 -0.545128 0
M  V30 118 C 11.2937 2.29849 0.2093 0
M  V30 119 C 12.2637 1.38313 0.919707 0
M  V30 120 O 13.4487 1.67277 0.917772 0
M  V30 121 C 10.5887 3.22019 1.24088 0
M  V30 122 C 9.7017 4.2864 0.537778 0
M  V30 123 C 8.8367 5.07973 1.5536 0
M  V30 124 C 7.8757 6.06381 0.8348 0
M  V30 125 N 7.0127 6.78717 1.79688 0
M  V30 126 H 11.8527 2.93845 -0.49591 0
M  V30 127 H 9.3897 1.44848 -0.256389 0
M  V30 128 H 11.3477 3.73868 1.85144 0
M  V30 129 H 9.9777 2.59914 1.91428 0
M  V30 130 H 9.0297 3.7994 -0.187046 0
M  V30 131 H 10.3417 4.98793 -0.0258907 0
M  V30 132 H 9.4957 5.63912 2.23803 0
M  V30 133 H 8.2347 4.37693 2.15118 0
M  V30 134 H 7.2397 5.49631 0.136388 0
M  V30 135 H 8.4647 6.78665 0.24313 0
M  V30 136 H 6.4107 6.11177 2.38326 0
M  V30 137 H 6.3277 7.44998 1.28505 0
M  V30 138 H 7.5957 7.39237 2.47282 0
M  V30 139 N 11.8248 0.280983 1.55075 0
M  V30 140 C 12.7748 -0.618585 2.19448 0
M  V30 141 C 13.7588 -1.11401 1.16098 0
M  V30 142 O 14.9508 -1.0581 1.41891 0
M  V30 143 C 12.0798 -1.79951 2.92357 0
M  V30 144 C 11.1658 -1.321 4.03002 0
M  V30 145 N 11.5568 -0.559044 5.02701 0
M  V30 146 C 9.8548 -1.60346 4.16179 0
M  V30 147 C 10.5558 -0.306722 5.80891 0
M  V30 148 N 9.5318 -0.880825 5.36416 0
M  V30 149 H 13.3338 -0.0286638 2.93886 0
M  V30 150 H 10.8478 0.0848104 1.62178 0
M  V30 151 H 12.8448 -2.45531 3.36927 0
M  V30 152 H 11.5048 -2.39333 2.19431 0
M  V30 153 H 12.5158 -0.205827 5.17491 0
M  V30 154 H 9.1928 -2.20621 3.54447 0
M  V30 155 H 10.5828 0.30391 6.71212 0
M  V30 156 N 13.3029 -1.57598 0.00835791 0
M  V30 157 C 14.7139 -1.7892 -0.53333 0
M  V30 158 C 15.0649 -0.916609 -1.73473 0
M  V30 159 O 14.1899 -0.121336 -2.1606 0
M  V30 160 C 14.7849 -3.24488 -0.974313 0
M  V30 161 C 13.3439 -3.46878 -1.46125 0
M  V30 162 C 12.4909 -2.74157 -0.416302 0
M  V30 163 H 15.4419 -1.56958 0.234495 0
M  V30 164 H 15.4629 -3.3306 -1.83988 0
M  V30 165 H 14.9749 -3.87972 -0.099718 0
M  V30 166 H 13.0759 -2.8862 -2.35646 0
M  V30 167 H 13.1889 -4.55572 -1.48295 0
M  V30 168 H 11.5529 -2.39022 -0.87981 0
M  V30 169 H 12.3359 -3.40345 0.44947 0
M  V30 170 N 14.781 0.264519 -1.55364 0
M  V30 171 C 15.729 1.34702 -1.89626 0
M  V30 172 C 16.723 1.50712 -0.773459 0
M  V30 173 O 17.929 1.52395 -0.957897 0
M  V30 174 H 14.304 0.450682 -0.601988 0
M  V30 175 H 16.275 1.0306 -2.80038 0
M  V30 176 C 15.024 2.6989 -2.19214 0
M  V30 177 H 14.347 2.58365 -3.05103 0
M  V30 178 H 15.787 3.44553 -2.47102 0
M  V30 179 C 14.246 3.21637 -1.00254 0
M  V30 180 O 14.776 4.00973 -0.241501 0
M  V30 181 N 12.982 2.7943 -0.797938 0
M  V30 182 H 12.529 2.15026 -1.4185 0
M  V30 183 H 12.487 3.144 -0.00363422 0
M  V30 184 N 16.2591 1.48442 0.529413 0
M  V30 185 C 17.1691 1.6569 1.66084 0
M  V30 186 C 18.1851 0.539432 1.65427 0
M  V30 187 O 19.3611 0.810572 1.84368 0
M  V30 188 C 16.4261 1.69315 3.02545 0
M  V30 189 C 15.4871 2.92694 3.14052 0
M  V30 190 C 14.7201 2.96137 4.44003 0
M  V30 191 O 14.9431 2.07973 5.31134 0
M  V30 192 O 13.8771 3.88312 4.59888 0
M  V30 193 H 17.7031 2.61483 1.54469 0
M  V30 194 H 15.2881 1.3185 0.702567 0
M  V30 195 H 17.1701 1.74217 3.83701 0
M  V30 196 H 15.8451 0.766966 3.14483 0
M  V30 197 H 14.7521 2.93324 2.32189 0
M  V30 198 H 16.0851 3.84699 3.0703 0
M  V30 199 N 17.7372 -0.778329 1.37039 0
M  V30 200 C 18.9832 -1.53892 1.32079 0
M  V30 201 C 19.3162 -1.9396 -0.0965386 0
M  V30 202 O 18.5912 -1.63568 -1.05242 0
M  V30 203 C 18.8742 -2.80847 2.25382 0
M  V30 204 C 18.7272 -2.47076 3.75864 0
M  V30 205 C 20.0462 -3.82741 2.1725 0
M  V30 206 H 17.1652 -0.558303 0.48111 0
M  V30 207 H 19.8072 -0.893397 1.67685 0
M  V30 208 H 17.9572 -3.35931 1.95148 0
M  V30 209 H 19.6292 -1.97957 4.16666 0
M  V30 210 H 17.8722 -1.79863 3.94755 0
M  V30 211 H 18.5432 -3.37798 4.36574 0
M  V30 212 H 21.0192 -3.37133 2.43887 0
M  V30 213 H 19.8952 -4.69303 2.84686 0
M  V30 214 H 20.1562 -4.2652 1.16331 0
M  V30 215 N 19.2153 -1.21501 -1.00376 0
M  V30 216 C 20.1453 -0.999478 -2.11028 0
M  V30 217 C 21.1263 0.0759671 -1.6993 0
M  V30 218 O 22.3113 -0.0841106 -1.94018 0
M  V30 219 C 19.4413 -0.564709 -3.42678 0
M  V30 220 C 18.3953 -1.58486 -3.97576 0
M  V30 221 C 17.7213 -1.00628 -5.25146 0
M  V30 222 C 19.0213 -2.97204 -4.29496 0
M  V30 223 H 20.7153 -1.92495 -2.29317 0
M  V30 224 H 18.2613 -0.92693 -1.102 0
M  V30 225 H 20.2143 -0.401091 -4.19487 0
M  V30 226 H 18.9383 0.396411 -3.24185 0
M  V30 227 H 17.5973 -1.73606 -3.22888 0
M  V30 228 H 17.2453 -0.0368439 -5.02987 0
M  V30 229 H 16.9453 -1.68771 -5.62841 0
M  V30 230 H 18.4693 -0.854015 -6.04598 0
M  V30 231 H 19.8833 -2.8552 -4.97143 0
M  V30 232 H 18.2803 -3.62372 -4.78338 0
M  V30 233 H 19.3503 -3.47956 -3.3772 0
M  V30 234 N 20.6934 1.19889 -1.02296 0
M  V30 235 C 21.6034 2.26571 -0.608508 0
M  V30 236 C 22.6194 1.70299 0.356964 0
M  V30 237 O 23.7954 2.00235 0.216326 0
M  V30 238 C 20.8604 3.46677 0.0402814 0
M  V30 239 C 19.9214 4.18153 -0.97194 0
M  V30 240 C 19.1544 5.32525 -0.354016 0
M  V30 241 O 19.3774 5.64112 0.844604 0
M  V30 242 O 18.3114 5.92242 -1.07391 0
M  V30 243 H 22.1374 2.64251 -1.49684 0
M  V30 244 H 19.7224 1.26629 -0.792809 0
M  V30 245 H 21.6044 4.19475 0.402324 0
M  V30 246 H 20.2794 3.10858 0.902707 0
M  V30 247 H 19.1864 3.47499 -1.38546 0
M  V30 248 H 20.5194 4.57927 -1.80454 0
M  V30 249 N 22.1715 0.800033 1.35784 0
M  V30 250 C 23.3995 0.389606 2.03199 0
M  V30 251 C 23.8145 -0.997375 1.60306 0
M  V30 252 O 23.1715 -1.64154 0.797481 0
M  V30 253 C 23.2225 0.455855 3.58614 0
M  V30 254 O 22.9435 1.78815 3.99946 0
M  V30 255 C 24.4445 0.0374032 4.43284 0
M  V30 256 H 21.6645 0.159132 0.651857 0
M  V30 257 H 24.2085 1.08183 1.73541 0
M  V30 258 H 22.3635 -0.188057 3.86943 0
M  V30 259 H 22.7775 1.74636 4.94573 0
M  V30 260 H 24.2515 0.134882 5.51835 0
M  V30 261 H 24.7285 -1.01651 4.27275 0
M  V30 262 H 25.3345 0.654215 4.20238 0
M  V30 263 N 23.6496 -1.47581 0.552962 0
M  V30 264 C 25.0606 -1.86324 0.118463 0
M  V30 265 C 25.4116 -1.46006 -1.3106 0
M  V30 266 O 24.5366 -0.861182 -1.98526 0
M  V30 267 C 25.1316 -3.3816 0.20821 0
M  V30 268 C 23.6906 -3.7601 -0.171226 0
M  V30 269 C 22.8376 -2.71634 0.557686 0
M  V30 270 H 25.7886 -1.39159 0.762928 0
M  V30 271 H 25.8096 -3.76141 -0.574278 0
M  V30 272 H 25.3216 -3.67473 1.24841 0
M  V30 273 H 23.4226 -3.52313 -1.21269 0
M  V30 274 H 23.5356 -4.78745 0.184379 0
M  V30 275 H 21.8996 -2.547 0.00125792 0
M  V30 276 H 22.6826 -3.0379 1.59896 0
M  V30 277 N 25.1277 -0.289203 -1.54924 0
M  V30 278 C 26.3677 0.324536 -2.01807 0
M  V30 279 C 26.7317 1.5199 -1.17316 0
M  V30 280 O 27.9327 2.20422 -1.53843 0
M  V30 281 C 26.2037 0.683578 -3.50802 0
M  V30 282 S 27.7627 1.28185 -4.19659 0
M  V30 283 H 24.5807 0.100236 -0.703899 0
M  V30 284 H 27.1827 -0.414325 -1.91059 0
M  V30 285 H 25.8867 -0.195073 -4.09936 0
M  V30 286 H 25.4177 1.45354 -3.65562 0
M  V30 287 H 27.4327 2.57006 -4.24456 0
M  V30 288 N 26.6058 1.57591 -0.0167156 0
M  V30 289 C 27.5158 2.1291 0.98521 0
M  V30 290 C 28.5318 1.07834 1.36557 0
M  V30 291 O 29.7078 1.39826 1.44951 0
M  V30 292 C 26.7728 2.63512 2.25305 0
M  V30 293 C 25.8338 3.83256 1.93426 0
M  V30 294 C 25.0668 4.31435 3.14165 0
M  V30 295 O 25.2898 3.78851 4.26413 0
M  V30 296 O 24.2238 5.23416 2.97186 0
M  V30 297 H 28.0498 2.98772 0.544888 0
M  V30 298 H 25.6348 1.48012 0.203141 0
M  V30 299 H 27.5168 2.96183 2.99756 0
M  V30 300 H 26.1918 1.8074 2.68542 0
M  V30 301 H 25.0988 3.55531 1.16398 0
M  V30 302 H 26.4318 4.67153 1.55013 0
M  V30 303 N 28.0839 -0.256276 1.55502 0
M  V30 304 C 29.4999 -0.604325 1.47716 0
M  V30 305 C 29.6999 -1.88763 0.705039 0
M  V30 306 O 28.7559 -2.51445 0.230613 0
M  V30 307 C 30.0689 -0.715756 2.92057 0
M  V30 308 C 31.6169 -0.808706 3.02372 0
M  V30 309 C 32.0919 -0.951777 4.48001 0
M  V30 310 N 33.5829 -1.01688 4.519 0
M  V30 311 C 34.3179 -1.14668 5.61817 0
M  V30 312 N 33.8139 -1.24261 6.81565 0
M  V30 313 N 35.6069 -1.1791 5.49594 0
M  V30 314 H 27.7579 0.586291 2.04148 0
M  V30 315 H 30.0209 0.201015 0.926443 0
M  V30 316 H 29.7269 0.157027 3.51349 0
M  V30 317 H 29.6009 -1.59071 3.42018 0
M  V30 318 H 31.9879 -1.67195 2.43166 0
M  V30 319 H 32.0689 0.0912063 2.55637 0
M  V30 320 H 31.7129 -0.0931291 5.07815 0
M  V30 321 H 31.6429 -1.86659 4.92408 0
M  V30 322 H 34.1339 -0.954468 3.65648 0
M  V30 323 H 34.4469 -1.34046 7.61086 0
M  V30 324 H 32.7919 -1.21236 6.84344 0
M  V30 325 H 35.9829 -1.10057 4.54978 0
M  V30 326 H 36.1559 -1.27681 6.35296 0
M  V30 327 N 29.562 -1.4872 -0.521534 0
M  V30 328 C 30.808 -1.574 -1.27879 0
M  V30 329 C 31.141 -0.250817 -1.92573 0
M  V30 330 O 30.416 0.743934 -1.79711 0
M  V30 331 C 30.699 -2.71843 -2.36164 0
M  V30 332 C 30.552 -4.13893 -1.76105 0
M  V30 333 C 31.871 -2.82008 -3.37875 0
M  V30 334 H 28.99 -0.572941 -0.463581 0
M  V30 335 H 31.632 -1.80927 -0.580119 0
M  V30 336 H 29.782 -2.51914 -2.95756 0
M  V30 337 H 31.454 -4.45284 -1.20499 0
M  V30 338 H 29.697 -4.20498 -1.06601 0
M  V30 339 H 30.368 -4.89804 -2.5455 0
M  V30 340 H 32.844 -3.00086 -2.88249 0
M  V30 341 H 31.72 -3.63796 -4.11028 0
M  V30 342 H 31.981 -1.90511 -3.98946 0
M  V30 343 N 31.0401 0.771051 -1.3745 0
M  V30 344 C 32.2891 1.52491 -1.3202 0
M  V30 345 C 32.6021 1.9538 0.0927347 0
M  V30 346 O 33.8081 2.70159 0.269503 0
M  V30 347 C 32.2641 2.75366 -2.31736 0
M  V30 348 C 31.8721 2.39573 -3.78562 0
M  V30 349 C 33.6161 3.53307 -2.35318 0
M  V30 350 C 31.5231 3.58954 -4.70007 0
M  V30 351 H 30.4531 0.572506 -0.490666 0
M  V30 352 H 33.1041 0.844474 -1.62914 0
M  V30 353 H 31.4861 3.45303 -1.93861 0
M  V30 354 H 32.6601 1.77415 -4.25277 0
M  V30 355 H 30.9751 1.74805 -3.77932 0
M  V30 356 H 33.5721 4.42039 -3.00842 0
M  V30 357 H 33.9151 3.93217 -1.36698 0
M  V30 358 H 34.4481 2.90367 -2.71904 0
M  V30 359 H 31.1871 3.24125 -5.69757 0
M  V30 360 H 30.7071 4.20214 -4.27996 0
M  V30 361 H 32.3861 4.25758 -4.87175 0
M  V30 362 N 32.5182 1.22032 0.997298 0
M  V30 363 C 33.4662 0.983634 2.10778 0
M  V30 364 C 34.4602 -0.0717564 1.69248 0
M  V30 365 O 35.6662 0.080304 1.79821 0
M  V30 366 H 32.0412 0.300877 0.689186 0
M  V30 367 H 34.0122 1.92606 2.27916 0
M  V30 368 C 32.7612 0.57326 3.42942 0
M  V30 369 H 32.0842 1.37702 3.75338 0
M  V30 370 H 33.5242 0.447031 4.21637 0
M  V30 371 C 31.9832 -0.7167 3.29188 0
M  V30 372 O 32.5132 -1.77027 3.60589 0
M  V30 373 N 30.7192 -0.686167 2.82383 0
M  V30 374 H 30.2662 0.171507 2.57028 0
M  V30 375 H 30.2242 -1.54955 2.73562 0
M  V30 376 N 33.9963 -1.19345 1.0293 0
M  V30 377 C 35.2433 -1.89038 0.726008 0
M  V30 378 C 35.5713 -1.79649 -0.745427 0
M  V30 379 O 34.8263 -1.18354 -1.55855 0
M  V30 380 C 35.1253 -3.39292 1.12319 0
M  V30 381 C 34.7913 -3.68885 2.59297 0
M  V30 382 C 33.4533 -3.76671 2.99453 0
M  V30 383 C 35.8053 -3.82178 3.54386 0
M  V30 384 C 33.1333 -3.9522 4.33611 0
M  V30 385 C 35.4853 -4.0224 4.88248 0
M  V30 386 C 34.1493 -4.08259 5.28092 0
M  V30 387 H 33.4193 -0.691739 0.265665 0
M  V30 388 H 36.0663 -1.41328 1.29223 0
M  V30 389 H 34.3713 -3.88903 0.475584 0
M  V30 390 H 36.0683 -3.91536 0.866037 0
M  V30 391 H 32.6583 -3.63433 2.27189 0
M  V30 392 H 36.8423 -3.75505 3.24514 0
M  V30 393 H 32.0983 -3.98119 4.64016 0
M  V30 394 H 36.2723 -4.11468 5.61843 0
M  V30 395 H 33.8993 -4.22384 6.32057 0
M  V30 396 N 35.4744 -0.807222 -1.35358 0
M  V30 397 C 36.7514 -0.311126 -1.9311 0
M  V30 398 C 37.1314 1.19937 -1.73719 0
M  V30 399 O 36.4794 1.99918 -1.10657 0
M  V30 400 C 36.6894 -0.723226 -3.41424 0
M  V30 401 C 38.0374 -0.713078 -4.18569 0
M  V30 402 O 39.0614 -0.664811 -3.49941 0
M  V30 403 O 37.9204 -0.772022 -5.41019 0
M  V30 404 H 35.0144 -0.081526 -0.822972 0
M  V30 405 H 37.5604 -0.890962 -1.4443 0
M  V30 406 H 36.3324 -1.76426 -3.4927 0
M  V30 407 H 35.9554 -0.118232 -3.97424 0
M  V30 408 N 36.9525 1.47285 -0.560781 0
M  V30 409 C 37.8995 2.30058 0.18491 0
M  V30 410 C 38.8695 1.39281 0.904986 0
M  V30 411 O 40.0545 1.68241 0.899979 0
M  V30 412 C 37.1945 3.23317 1.20666 0
M  V30 413 C 36.3075 4.29186 0.492285 0
M  V30 414 C 35.4425 5.09592 1.49964 0
M  V30 415 C 34.4815 6.07232 0.770439 0
M  V30 416 N 33.6185 6.80584 1.72479 0
M  V30 417 H 38.4585 2.93302 -0.527048 0
M  V30 418 H 35.9955 1.44568 -0.271738 0
M  V30 419 H 37.9535 3.75811 1.81168 0
M  V30 420 H 36.5835 2.61929 1.88661 0
M  V30 421 H 35.6355 3.7972 -0.227333 0
M  V30 422 H 36.9475 4.98738 -0.0787929 0
M  V30 423 H 36.1015 5.66254 2.17809 0
M  V30 424 H 34.8405 4.3995 2.10464 0
M  V30 425 H 33.8455 5.49745 0.0780846 0
M  V30 426 H 35.0705 6.78884 0.171134 0
M  V30 427 H 33.0165 6.1367 2.3183 0
M  V30 428 H 32.9335 7.46319 1.20596 0
M  V30 429 H 34.2015 7.41818 2.39428 0
M  V30 430 N 38.4306 0.297415 1.54768 0
M  V30 431 C 39.3776 -0.580276 2.23386 0
M  V30 432 C 40.3476 -1.13238 1.21517 0
M  V30 433 O 41.5326 -1.17757 1.50126 0
M  V30 434 C 38.6726 -1.74801 2.97555 0
M  V30 435 C 37.7856 -1.22764 4.1419 0
M  V30 436 C 36.9206 -2.35895 4.75949 0
M  V30 437 C 35.9596 -1.80974 5.84735 0
M  V30 438 N 35.0966 -2.87664 6.40464 0
M  V30 439 H 39.9366 0.0114833 2.97998 0
M  V30 440 H 37.4736 0.0174361 1.4709 0
M  V30 441 H 39.4316 -2.43475 3.38786 0
M  V30 442 H 38.0616 -2.31145 2.25326 0
M  V30 443 H 37.1136 -0.433271 3.77924 0
M  V30 444 H 38.4256 -0.785551 4.92575 0
M  V30 445 H 37.5796 -3.12523 5.20014 0
M  V30 446 H 36.3186 -2.83429 3.96887 0
M  V30 447 H 35.3236 -1.02834 5.40097 0
M  V30 448 H 36.5486 -1.34348 6.65678 0
M  V30 449 H 34.4946 -3.34538 5.64287 0
M  V30 450 H 34.4116 -2.4794 7.14186 0
M  V30 451 H 35.6796 -3.642 6.89187 0
M  V30 452 N 39.9087 -1.5758 0.0250728 0
M  V30 453 C 40.8387 -2.13007 -0.956575 0
M  V30 454 C 41.8197 -1.0452 -1.342 0
M  V30 455 O 43.0047 -1.32332 -1.42133 0
M  V30 456 C 40.1347 -2.65386 -2.24026 0
M  V30 457 C 39.0887 -3.78623 -1.99571 0
M  V30 458 C 38.4147 -4.17414 -3.3417 0
M  V30 459 C 39.7147 -5.04867 -1.33814 0
M  V30 460 H 41.4087 -2.9528 -0.494991 0
M  V30 461 H 38.9547 -1.42042 -0.236651 0
M  V30 462 H 40.9077 -3.02794 -2.93076 0
M  V30 463 H 39.6317 -1.80268 -2.72343 0
M  V30 464 H 38.2907 -3.41646 -1.32941 0
M  V30 465 H 37.9387 -3.29284 -3.80238 0
M  V30 466 H 37.6387 -4.93719 -3.18615 0
M  V30 467 H 39.1627 -4.57402 -4.04495 0
M  V30 468 H 40.5767 -5.39888 -1.92857 0
M  V30 469 H 38.9737 -5.86144 -1.28669 0
M  V30 470 H 40.0437 -4.83904 -0.310561 0
M  V30 471 N 41.3868 0.248026 -1.55636 0
M  V30 472 C 42.6328 0.97767 -1.77678 0
M  V30 473 C 42.9658 1.85016 -0.590135 0
M  V30 474 O 42.2408 1.90095 0.411611 0
M  V30 475 C 42.5238 1.83914 -3.09593 0
M  V30 476 C 42.3768 0.99491 -4.38659 0
M  V30 477 C 43.6958 2.82183 -3.37729 0
M  V30 478 H 40.8148 0.354005 -0.646413 0
M  V30 479 H 43.4568 0.248253 -1.88371 0
M  V30 480 H 41.6068 2.46104 -3.00608 0
M  V30 481 H 43.2788 0.391789 -4.59633 0
M  V30 482 H 41.5218 0.299231 -4.32767 0
M  V30 483 H 42.1928 1.63145 -5.2734 0
M  V30 484 H 44.6688 2.30129 -3.4667 0
M  V30 485 H 43.5448 3.39582 -4.31249 0
M  V30 486 H 43.8058 3.58588 -2.58586 0
M  V30 487 N 42.8649 1.48995 0.513639 0
M  V30 488 C 43.8119 1.6473 1.61656 0
M  V30 489 C 44.7819 0.488984 1.58739 0
M  V30 490 O 45.9669 0.714478 1.76918 0
M  V30 491 C 43.1069 1.7082 2.99858 0
M  V30 492 C 42.2199 2.9787 3.12885 0
M  V30 493 C 41.3549 2.95017 4.41744 0
M  V30 494 C 40.3939 4.16702 4.48359 0
M  V30 495 N 39.5309 4.11832 5.68629 0
M  V30 496 H 44.3709 2.58909 1.47547 0
M  V30 497 H 41.9079 1.28382 0.71808 0
M  V30 498 H 43.8659 1.72331 3.79944 0
M  V30 499 H 42.4959 0.801181 3.12699 0
M  V30 500 H 41.5479 3.06029 2.25944 0
M  V30 501 H 42.8599 3.8786 3.13633 0
M  V30 502 H 42.0139 2.95021 5.30139 0
M  V30 503 H 40.7529 2.02784 4.43542 0
M  V30 504 H 39.7579 4.16955 3.58369 0
M  V30 505 H 40.9829 5.10113 4.48287 0
M  V30 506 H 38.9289 3.22428 5.71293 0
M  V30 507 H 38.8459 4.95543 5.7094 0
M  V30 508 H 40.1139 4.1592 6.59266 0
M  V30 509 N 44.343 -0.763751 1.37857 0
M  V30 510 C 45.273 -1.89103 1.36975 0
M  V30 511 C 46.254 -1.68439 0.237152 0
M  V30 512 O 47.439 -1.8918 0.438713 0
M  V30 513 C 44.569 -3.26496 1.18395 0
M  V30 514 C 43.523 -3.61741 2.28751 0
M  V30 515 C 42.849 -4.97762 1.95286 0
M  V30 516 C 44.149 -3.67665 3.70972 0
M  V30 517 H 45.843 -1.90099 2.31307 0
M  V30 518 H 43.389 -0.91319 1.11341 0
M  V30 519 H 45.342 -4.05003 1.16406 0
M  V30 520 H 44.066 -3.25955 0.205215 0
M  V30 521 H 42.725 -2.85547 2.29909 0
M  V30 522 H 42.373 -4.93769 0.959221 0
M  V30 523 H 42.073 -5.22313 2.69189 0
M  V30 524 H 43.597 -5.7866 1.94898 0
M  V30 525 H 45.011 -4.36307 3.719 0
M  V30 526 H 43.408 -4.03718 4.43995 0
M  V30 527 H 44.478 -2.68134 4.0402 0
M  V30 528 N 45.8211 -1.22559 -0.990812 0
M  V30 529 C 46.7511 -1.0218 -2.09956 0
M  V30 530 C 47.7321 0.0579394 -1.70001 0
M  V30 531 O 48.9171 -0.104684 -1.93918 0
M  V30 532 C 46.0471 -0.601023 -3.4206 0
M  V30 533 C 45.0011 -1.62694 -3.95872 0
M  V30 534 C 44.3271 -1.06193 -5.24049 0
M  V30 535 C 45.6271 -3.01743 -4.2632 0
M  V30 536 H 47.3211 -1.94916 -2.27262 0
M  V30 537 H 44.8671 -0.938566 -1.09211 0
M  V30 538 H 46.8201 -0.445561 -4.19038 0
M  V30 539 H 45.5441 0.362005 -3.24588 0
M  V30 540 H 44.2031 -1.77021 -3.21028 0
M  V30 541 H 43.8511 -0.0901903 -5.02919 0
M  V30 542 H 43.5511 -1.74732 -5.61019 0
M  V30 543 H 45.0751 -0.918092 -6.03658 0
M  V30 544 H 46.4891 -2.90777 -4.94087 0
M  V30 545 H 44.8861 -3.67425 -4.74467 0
M  V30 546 H 45.9561 -3.51518 -3.34011 0
M  V30 547 N 47.2992 1.18797 -1.03562 0
M  V30 548 C 48.2462 2.22253 -0.622259 0
M  V30 549 C 49.2162 1.61987 0.36736 0
M  V30 550 O 50.4012 1.88986 0.262492 0
M  V30 551 C 47.5412 3.45097 0.0138462 0
M  V30 552 C 46.6542 4.19722 -1.02263 0
M  V30 553 C 45.7892 5.30009 -0.355573 0
M  V30 554 C 44.8282 5.96399 -1.37749 0
M  V30 555 N 43.9652 6.98234 -0.735766 0
M  V30 556 H 48.8052 2.56968 -1.50903 0
M  V30 557 H 46.3422 1.26245 -0.755017 0
M  V30 558 H 48.3002 4.15279 0.399948 0
M  V30 559 H 46.9302 3.11018 0.864158 0
M  V30 560 H 45.9822 3.48418 -1.52673 0
M  V30 561 H 47.2942 4.65227 -1.79903 0
M  V30 562 H 46.4482 6.0664 0.0850095 0
M  V30 563 H 45.1872 4.85592 0.452967 0
M  V30 564 H 44.1922 5.18512 -1.82826 0
M  V30 565 H 45.4172 6.42899 -2.18764 0
M  V30 566 H 43.3632 6.55979 0.0525597 0
M  V30 567 H 43.2802 7.41965 -1.44995 0
M  V30 568 H 44.5482 7.78845 -0.31941 0
M  V30 569 N 48.7773 0.814389 1.34928 0
M  V30 570 C 50.0543 0.321363 1.92942 0
M  V30 571 C 50.4343 -1.19014 1.74353 0
M  V30 572 O 49.7823 -1.99328 1.11716 0
M  V30 573 C 49.9923 0.741323 3.41036 0
M  V30 574 C 51.3403 0.735266 4.18185 0
M  V30 575 O 52.3643 0.68336 3.49584 0
M  V30 576 O 51.2233 0.800703 5.40602 0
M  V30 577 H 48.3173 0.0858893 0.822528 0
M  V30 578 H 50.8633 0.898609 1.43955 0
M  V30 579 H 49.6353 1.78276 3.4833 0
M  V30 580 H 49.2583 0.139307 3.97356 0
M  V30 581 N 50.2554 -1.46986 0.568584 0
M  V30 582 C 51.1884 -2.27129 -0.220779 0
M  V30 583 C 52.1664 -1.34757 -0.909905 0
M  V30 584 O 53.3504 -1.64152 -0.926622 0
M  V30 585 C 50.4774 -3.12108 -1.31553 0
M  V30 586 C 49.5234 -4.20141 -0.733748 0
M  V30 587 S 50.3564 -5.33783 0.428479 0
M  V30 588 C 51.5124 -6.22327 -0.667811 0
M  V30 589 H 51.7454 -2.93731 0.459267 0
M  V30 590 H 49.2784 -1.5026 0.355154 0
M  V30 591 H 51.2364 -3.61636 -1.94241 0
M  V30 592 H 49.8974 -2.44847 -1.96746 0
M  V30 593 H 49.0904 -4.79373 -1.5562 0
M  V30 594 H 48.6924 -3.73553 -0.182812 0
M  V30 595 H 50.9844 -6.59364 -1.55708 0
M  V30 596 H 51.9274 -7.0801 -0.11258 0
M  V30 597 H 52.3354 -5.5618 -0.965601 0
M  V30 598 N 51.7335 -0.305618 -1.54608 0
M  V30 599 C 52.6835 0.583595 -2.20405 0
M  V30 600 C 53.6675 1.09539 -1.17856 0
M  V30 601 O 54.8595 1.0354 -1.43557 0
M  V30 602 C 51.9885 1.75277 -2.95183 0
M  V30 603 C 51.0745 1.25672 -4.05052 0
M  V30 604 N 51.4655 0.478998 -5.03527 0
M  V30 605 C 49.7635 1.53704 -4.18678 0
M  V30 606 C 50.4645 0.214269 -5.81305 0
M  V30 607 N 49.4405 0.795374 -5.3775 0
M  V30 608 H 53.2425 -0.0180946 -2.93894 0
M  V30 609 H 50.7565 -0.110601 -1.62023 0
M  V30 610 H 52.7535 2.4014 -3.40791 0
M  V30 611 H 51.4135 2.35812 -2.23211 0
M  V30 612 H 52.4245 0.123473 -5.17753 0
M  V30 613 H 49.1015 2.14954 -3.57912 0
M  V30 614 H 50.4915 -0.410656 -6.70644 0
M  V30 615 N 53.2116 1.57565 -0.0334293 0
M  V30 616 C 54.1216 2.13943 0.962572 0
M  V30 617 C 55.1376 1.09276 1.35406 0
M  V30 618 O 56.3136 1.41355 1.4346 0
M  V30 619 C 53.3786 2.65887 2.22497 0
M  V30 620 C 52.4396 3.85286 1.8935 0
M  V30 621 C 51.6726 4.34743 3.09571 0
M  V30 622 O 51.8956 3.83352 4.22371 0
M  V30 623 O 50.8296 5.26538 2.91618 0
M  V30 624 H 54.6556 2.99333 0.513169 0
M  V30 625 H 52.2406 1.4822 0.18743 0
M  V30 626 H 54.1226 2.99346 2.96598 0
M  V30 627 H 52.7976 1.83578 2.6661 0
M  V30 628 H 51.7046 3.56746 1.1262 0
M  V30 629 H 53.0376 4.68771 1.5005 0
M  V30 630 N 54.6897 -0.239769 1.55765 0
M  V30 631 C 55.9177 -0.98417 1.81994 0
M  V30 632 C 56.3327 -1.7867 0.610124 0
M  V30 633 O 55.6897 -1.77571 -0.421271 0
M  V30 634 C 55.7407 -1.91635 3.06526 0
M  V30 635 O 55.4617 -1.14629 4.22838 0
M  V30 636 C 56.9627 -2.77616 3.45607 0
M  V30 637 H 54.1827 -0.28928 0.605441 0
M  V30 638 H 56.7267 -0.260499 2.02834 0
M  V30 639 H 54.8817 -2.5942 2.87715 0
M  V30 640 H 55.2957 -1.77745 4.93464 0
M  V30 641 H 56.7697 -3.38759 4.35828 0
M  V30 642 H 57.2467 -3.4909 2.6652 0
M  V30 643 H 57.8527 -2.15271 3.66795 0
M  V30 644 N 56.1678 -1.49265 -0.50573 0
M  V30 645 C 57.1008 -1.60183 -1.62532 0
M  V30 646 C 58.0788 -0.451107 -1.56217 0
M  V30 647 O 59.2628 -0.666016 -1.76342 0
M  V30 648 C 56.3898 -1.55238 -3.01029 0
M  V30 649 C 55.4358 -2.7545 -3.25621 0
M  V30 650 S 56.2688 -4.37174 -3.09256 0
M  V30 651 C 57.4248 -4.34866 -4.50158 0
M  V30 652 H 57.6578 -2.54894 -1.53025 0
M  V30 653 H 55.1908 -1.38098 -0.690535 0
M  V30 654 H 57.1488 -1.53071 -3.80893 0
M  V30 655 H 55.8098 -0.618238 -3.07956 0
M  V30 656 H 55.0028 -2.68197 -4.26716 0
M  V30 657 H 54.6048 -2.75005 -2.53472 0
M  V30 658 H 56.8968 -4.06295 -5.42154 0
M  V30 659 H 57.8398 -5.36223 -4.62462 0
M  V30 660 H 58.2478 -3.65007 -4.30616 0
M  V30 661 N 57.6459 0.756429 -1.3826 0
M  V30 662 C 58.5759 1.88374 -1.37976 0
M  V30 663 C 59.5569 1.68311 -0.246082 0
M  V30 664 O 60.7419 1.88944 -0.44874 0
M  V30 665 C 57.8719 3.25864 -1.20125 0
M  V30 666 C 56.8259 3.60523 -2.30666 0
M  V30 667 C 56.1519 4.9672 -1.97923 0
M  V30 668 C 57.4519 3.65692 -3.72916 0
M  V30 669 H 59.1459 1.88869 -2.32312 0
M  V30 670 H 56.6919 0.907272 -1.11824 0
M  V30 671 H 58.6449 4.0438 -1.18552 0
M  V30 672 H 57.3689 3.25841 -0.222498 0
M  V30 673 H 56.0279 2.84324 -2.3142 0
M  V30 674 H 55.6759 4.93253 -0.985393 0
M  V30 675 H 55.3759 5.20878 -2.71955 0
M  V30 676 H 56.8999 5.77618 -1.97964 0
M  V30 677 H 58.3139 4.34328 -3.74208 0
M  V30 678 H 56.7109 4.01358 -4.4613 0
M  V30 679 H 57.7809 2.65987 -4.05436 0
M  V30 680 N 59.124 1.23083 0.984299 0
M  V30 681 C 60.373 1.05466 1.71929 0
M  V30 682 C 60.686 -0.409211 1.91272 0
M  V30 683 O 61.892 -0.705226 2.62181 0
M  V30 684 C 60.348 1.83874 3.09384 0
M  V30 685 C 59.956 3.34566 2.97943 0
M  V30 686 C 61.7 1.74734 3.8687 0
M  V30 687 C 59.607 4.05381 4.30605 0
M  V30 688 H 58.537 0.391039 0.644674 0
M  V30 689 H 61.188 1.47013 1.09815 0
M  V30 690 H 59.57 1.35131 3.72231 0
M  V30 691 H 60.744 3.90767 2.44209 0
M  V30 692 H 59.059 3.44476 2.33934 0
M  V30 693 H 61.656 2.24957 4.85076 0
M  V30 694 H 61.999 0.709372 4.10212 0
M  V30 695 H 62.532 2.21067 3.30717 0
M  V30 696 H 59.271 5.09467 4.1246 0
M  V30 697 H 58.791 3.53967 4.84218 0
M  V30 698 H 60.47 4.11458 4.99311 0
M  V30 699 N 60.6021 -1.18246 1.0419 0
M  V30 700 C 61.5651 -2.20128 0.638452 0
M  V30 701 C 62.5651 -1.57885 -0.304805 0
M  V30 702 O 63.7551 -1.73967 -0.0900369 0
M  V30 703 C 60.8871 -3.4084 -0.0637751 0
M  V30 704 H 62.0801 -2.57336 1.54007 0
M  V30 705 H 59.6331 -1.32152 0.834598 0
M  V30 706 H 60.3681 -3.09166 -0.979136 0
M  V30 707 H 60.1531 -3.8726 0.614198 0
M  V30 708 H 61.6431 -4.16274 -0.332512 0
M  V30 709 N 62.0802 -0.821533 -1.34494 0
M  V30 710 C 63.3572 -0.33159 -1.92769 0
M  V30 711 C 63.7372 1.18088 -1.74981 0
M  V30 712 O 63.0852 1.98733 -1.12772 0
M  V30 713 C 63.2952 -0.759398 -3.40638 0
M  V30 714 C 64.6432 -0.757433 -4.1779 0
M  V30 715 O 65.6672 -0.70189 -3.49216 0
M  V30 716 O 64.5262 -0.829361 -5.4017 0
M  V30 717 H 61.6202 -0.0902502 -0.822061 0
M  V30 718 H 64.1662 -0.906231 -1.43477 0
M  V30 719 H 62.9382 -1.8012 -3.47379 0
M  V30 720 H 62.5612 -0.160378 -3.97276 0
M  V30 721 N 63.5583 1.46682 -0.576371 0
M  V30 722 C 64.8063 2.02013 -0.0594163 0
M  V30 723 C 65.1273 1.45101 1.30271 0
M  V30 724 O 64.3973 0.633317 1.8538 0
M  V30 725 H 62.9773 0.746759 -0.0189745 0
M  V30 726 H 65.6393 1.79862 -0.750717 0
M  V30 727 H 64.7353 3.12097 0.014345 0
M  V30 728 N 65.0364 0.313813 1.54444 0
M  V30 729 C 66.2824 -0.292108 2.00685 0
M  V30 730 C 66.6154 -1.52548 1.20177 0
M  V30 731 O 65.8904 -1.92452 0.281531 0
M  V30 732 C 66.1734 -0.635968 3.5444 0
M  V30 733 C 66.0264 0.607437 4.4568 0
M  V30 734 C 67.3454 -1.45747 4.15266 0
M  V30 735 H 64.4644 -0.104697 0.729526 0
M  V30 736 H 67.1064 0.428457 1.85106 0
M  V30 737 H 65.2564 -1.24986 3.67846 0
M  V30 738 H 66.9284 1.24581 4.44159 0
M  V30 739 H 65.1714 1.23822 4.15753 0
M  V30 740 H 65.8424 0.322515 5.51057 0
M  V30 741 H 68.3184 -0.938645 4.05375 0
M  V30 742 H 67.1944 -1.66683 5.2298 0
M  V30 743 H 67.4554 -2.45063 3.67963 0
M  V30 744 N 66.5145 -1.57545 0.0417849 0
M  V30 745 C 67.7625 -1.91937 -0.632829 0
M  V30 746 C 68.0835 -0.919978 -1.71934 0
M  V30 747 O 67.3535 0.0366064 -1.95866 0
M  V30 748 H 65.9335 -0.708493 -0.236742 0
M  V30 749 H 68.5955 -1.9468 0.0925745 0
M  V30 750 H 67.6915 -2.92912 -1.07746 0
M  V30 751 N 67.9926 0.231505 -1.5589 0
M  V30 752 C 68.9226 1.29022 -1.94617 0
M  V30 753 C 69.9036 1.4941 -0.813067 0
M  V30 754 O 71.0886 1.6176 -1.07459 0
M  V30 755 C 68.2186 2.64199 -2.25424 0
M  V30 756 C 67.1726 2.58484 -3.41131 0
M  V30 757 C 66.4986 3.97599 -3.57518 0
M  V30 758 C 67.7986 2.1413 -4.76388 0
M  V30 759 H 69.4926 0.968563 -2.83301 0
M  V30 760 H 67.0386 0.464479 -1.36303 0
M  V30 761 H 68.9916 3.38413 -2.51107 0
M  V30 762 H 67.7156 2.98032 -1.33583 0
M  V30 763 H 66.3746 1.86727 -3.15481 0
M  V30 764 H 66.0226 4.28723 -2.6307 0
M  V30 765 H 65.7226 3.94659 -4.35337 0
M  V30 766 H 67.2466 4.7349 -3.85538 0
M  V30 767 H 68.6606 2.78083 -5.01341 0
M  V30 768 H 67.0576 2.2227 -5.57419 0
M  V30 769 H 68.1276 1.09331 -4.72414 0
M  V30 770 N 69.4707 1.49531 0.497807 0
M  V30 771 C 70.4337 1.65916 1.58128 0
M  V30 772 C 71.4337 0.530825 1.51786 0
M  V30 773 O 72.6237 0.797342 1.54881 0
M  V30 774 C 69.7557 1.65951 2.9778 0
M  V30 775 H 70.9487 2.62556 1.44929 0
M  V30 776 H 68.5017 1.38611 0.722275 0
M  V30 777 H 69.2367 0.709065 3.16453 0
M  V30 778 H 69.0217 2.47897 3.03792 0
M  V30 779 H 70.5117 1.80673 3.76493 0
M  V30 780 N 70.9488 -0.749086 1.3866 0
M  V30 781 C 71.9118 -1.84457 1.36045 0
M  V30 782 C 72.9118 -1.58682 0.260122 0
M  V30 783 O 74.1018 -1.66343 0.517261 0
M  V30 784 C 71.2338 -3.22008 1.11911 0
M  V30 785 H 72.4268 -1.88182 2.33512 0
M  V30 786 H 69.9798 -0.951266 1.24019 0
M  V30 787 H 70.7148 -3.2395 0.150686 0
M  V30 788 H 70.4998 -3.42111 1.91579 0
M  V30 789 H 71.9898 -4.0208 1.12788 0
M  V30 790 N 72.4269 -1.23603 -0.977757 0
M  V30 791 C 73.8379 -1.06424 -1.53398 0
M  V30 792 C 74.1889 0.367578 -1.92726 0
M  V30 793 O 73.3139 1.25465 -1.76316 0
M  V30 794 C 73.9089 -1.92568 -2.78753 0
M  V30 795 C 72.4679 -1.79642 -3.30765 0
M  V30 796 C 71.6149 -1.88111 -2.03739 0
M  V30 797 H 74.5659 -1.37227 -0.797152 0
M  V30 798 H 74.5869 -1.45203 -3.51705 0
M  V30 799 H 74.0989 -2.96771 -2.50098 0
M  V30 800 H 72.1999 -0.782325 -3.64294 0
M  V30 801 H 72.3129 -2.63174 -4.00345 0
M  V30 802 H 70.6769 -1.31723 -2.17994 0
M  V30 803 H 71.4599 -2.93875 -1.77461 0
M  V30 804 N 73.905 1.17692 -1.04816 0
M  V30 805 C 74.837 2.21103 -0.603822 0
M  V30 806 C 75.85 1.59411 0.33046 0
M  V30 807 O 77.039 1.7807 0.12379 0
M  V30 808 C 74.139 3.38623 0.136898 0
M  V30 809 C 73.312 4.29888 -0.807137 0
M  V30 810 C 72.371 5.26088 -0.10836 0
M  V30 811 O 71.397 5.64353 -0.741232 0
M  V30 812 N 72.599 5.68882 1.15558 0
M  V30 813 H 75.364 2.59848 -1.49329 0
M  V30 814 H 72.925 1.32553 -0.929587 0
M  V30 815 H 74.917 4.00009 0.614401 0
M  V30 816 H 73.487 2.98508 0.927993 0
M  V30 817 H 72.707 3.65993 -1.46434 0
M  V30 818 H 73.995 4.87759 -1.44807 0
M  V30 819 H 73.393 5.39861 1.69015 0
M  V30 820 H 71.95 6.32429 1.57722 0
M  V30 821 N 75.3831 0.828654 1.34056 0
M  V30 822 C 76.6291 0.42008 1.98402 0
M  V30 823 C 76.9621 -1.01564 1.65525 0
M  V30 824 O 76.2371 -1.70834 0.929831 0
M  V30 825 C 76.5201 0.62927 3.54559 0
M  V30 826 C 76.3731 2.11152 3.97159 0
M  V30 827 C 77.6921 0.0688756 4.40046 0
M  V30 828 H 74.8111 0.154104 0.720709 0
M  V30 829 H 77.4531 1.04228 1.5886 0
M  V30 830 H 75.6031 0.0996418 3.88372 0
M  V30 831 H 77.2751 2.70522 3.73651 0
M  V30 832 H 75.5181 2.59985 3.47261 0
M  V30 833 H 76.1891 2.20868 5.05887 0
M  V30 834 H 78.6651 0.521458 4.1282 0
M  V30 835 H 77.5411 0.245006 5.48353 0
M  V30 836 H 77.8021 -1.0266 4.30015 0
M  V30 837 N 76.8612 -1.46375 0.584142 0
M  V30 838 C 78.1092 -2.01978 0.0701287 0
M  V30 839 C 78.4302 -1.4579 -1.295 0
M  V30 840 O 77.7002 -0.64314 -1.85042 0
M  V30 841 H 76.2802 -0.746648 0.0229345 0
M  V30 842 H 78.9422 -1.79461 0.760245 0
M  V30 843 H 78.0382 -3.121 0.0022064 0
M  V30 844 N 78.3393 -0.321999 -1.54275 0
M  V30 845 C 79.5853 0.281461 -2.00837 0
M  V30 846 C 79.9183 1.51909 -1.20985 0
M  V30 847 O 79.1933 1.923 -0.291733 0
M  V30 848 C 79.4763 0.617162 -3.54772 0
M  V30 849 C 79.3293 -0.631064 -4.45351 0
M  V30 850 C 80.6483 1.43542 -4.16033 0
M  V30 851 H 77.7673 0.100826 -0.730071 0
M  V30 852 H 80.4093 -0.438268 -1.84876 0
M  V30 853 H 78.5593 1.23034 -3.68504 0
M  V30 854 H 80.2313 -1.26934 -4.43492 0
M  V30 855 H 78.4743 -1.26025 -4.15091 0
M  V30 856 H 79.1453 -0.351735 -5.50878 0
M  V30 857 H 81.6213 0.917134 -4.05867 0
M  V30 858 H 80.4973 1.63907 -5.23856 0
M  V30 859 H 80.7583 2.43108 -3.69257 0
M  V30 860 N 79.8174 1.5752 -0.0501392 0
M  V30 861 C 81.0424 1.97376 0.636997 0
M  V30 862 C 81.4674 0.927466 1.63645 0
M  V30 863 O 80.8254 -0.10941 1.8097 0
M  V30 864 C 80.8734 3.36304 1.30123 0
M  V30 865 O 79.9774 3.34156 2.41689 0
M  V30 866 H 79.3184 0.642998 0.165679 0
M  V30 867 H 81.8484 2.04258 -0.118233 0
M  V30 868 H 81.8584 3.73008 1.65315 0
M  V30 869 H 80.5334 4.11993 0.568746 0
M  V30 870 H 79.1104 3.09196 2.08451 0
M  V30 871 N 81.2955 -0.223234 1.56011 0
M  V30 872 C 82.2255 -1.27988 1.95298 0
M  V30 873 C 83.2065 -1.48976 0.820979 0
M  V30 874 O 84.3915 -1.61188 1.08315 0
M  V30 875 C 81.5215 -2.63 2.26822 0
M  V30 876 C 80.4755 -2.56671 3.42497 0
M  V30 877 C 79.8015 -3.95697 3.59622 0
M  V30 878 C 81.1015 -2.11601 4.77517 0
M  V30 879 H 82.7955 -0.953525 2.8381 0
M  V30 880 H 80.3415 -0.457244 1.36548 0
M  V30 881 H 82.2945 -3.37077 2.52898 0
M  V30 882 H 81.0185 -2.9732 1.35161 0
M  V30 883 H 79.6775 -1.85051 3.16467 0
M  V30 884 H 79.3255 -4.27322 2.6534 0
M  V30 885 H 79.0255 -3.92345 4.37424 0
M  V30 886 H 80.5495 -4.71438 3.88044 0
M  V30 887 H 81.9635 -2.7542 5.02809 0
M  V30 888 H 80.3605 -2.19311 5.5859 0
M  V30 889 H 81.4305 -1.06824 4.72987 0
M  V30 890 N 82.7736 -1.49793 -0.48987 0
M  V30 891 C 83.7056 -1.63413 -1.60713 0
M  V30 892 C 84.7186 -0.516329 -1.54395 0
M  V30 893 O 85.9076 -0.788812 -1.60125 0
M  V30 894 C 83.0076 -1.58516 -2.99543 0
M  V30 895 C 82.1806 -2.86016 -3.30928 0
M  V30 896 C 81.2396 -2.74018 -4.49222 0
M  V30 897 O 80.2656 -3.47964 -4.50455 0
M  V30 898 N 81.4676 -1.86309 -5.4979 0
M  V30 899 H 84.2326 -2.59777 -1.49452 0
M  V30 900 H 81.7936 -1.47022 -0.677955 0
M  V30 901 H 83.7856 -1.48128 -3.76617 0
M  V30 902 H 82.3556 -0.69965 -3.0467 0
M  V30 903 H 81.5756 -3.10672 -2.42645 0
M  V30 904 H 82.8636 -3.70521 -3.487 0
M  V30 905 H 82.2616 -1.2551 -5.51601 0
M  V30 906 H 80.8186 -1.81837 -6.25922 0
M  V30 907 N 84.2517 0.741722 -1.39055 0
M  V30 908 C 85.4977 1.50336 -1.36113 0
M  V30 909 C 85.8307 1.94148 0.0450796 0
M  V30 910 O 85.1057 1.66301 1.00868 0
M  V30 911 C 85.3887 2.74773 -2.32749 0
M  V30 912 C 85.2417 2.37023 -3.82283 0
M  V30 913 C 86.5607 3.76846 -2.27322 0
M  V30 914 H 83.6797 0.545351 -0.495743 0
M  V30 915 H 86.3217 0.848624 -1.69995 0
M  V30 916 H 84.4717 3.30639 -2.03986 0
M  V30 917 H 86.1437 1.8684 -4.21768 0
M  V30 918 H 84.3867 1.69334 -3.99385 0
M  V30 919 H 85.0577 3.26104 -4.45376 0
M  V30 920 H 87.5337 3.30548 -2.5274 0
M  V30 921 H 86.4097 4.6159 -2.97028 0
M  V30 922 H 86.6707 4.23286 -1.27599 0
M  V30 923 N 85.7298 1.2412 0.971189 0
M  V30 924 C 86.6928 1.03156 2.04674 0
M  V30 925 C 87.6928 -0.00990322 1.60797 0
M  V30 926 O 88.8828 0.230729 1.72665 0
M  V30 927 C 86.0148 0.562765 3.36223 0
M  V30 928 H 87.2078 1.98614 2.24705 0
M  V30 929 H 84.7608 1.06293 1.14593 0
M  V30 930 H 85.4958 -0.395176 3.21883 0
M  V30 931 H 85.2808 1.31441 3.69413 0
M  V30 932 H 86.7708 0.437015 4.15307 0
M  V30 933 N 87.2079 -1.17134 1.05439 0
M  V30 934 C 88.4539 -1.87733 0.767077 0
M  V30 935 C 88.7869 -1.8098 -0.704253 0
M  V30 936 O 88.0619 -1.21951 -1.5152 0
M  V30 937 C 88.3449 -3.37659 1.25133 0
M  V30 938 C 88.1979 -3.53149 2.78578 0
M  V30 939 C 89.5169 -4.31768 0.852324 0
M  V30 940 H 86.6359 -0.681687 0.280129 0
M  V30 941 H 89.2779 -1.37732 1.30881 0
M  V30 942 H 87.4279 -3.80373 0.790469 0
M  V30 943 H 89.0999 -3.19434 3.32806 0
M  V30 944 H 87.3429 -2.95345 3.17732 0
M  V30 945 H 88.0139 -4.58403 3.07523 0
M  V30 946 H 90.4899 -3.96909 1.24911 0
M  V30 947 H 89.3659 -5.35199 1.21873 0
M  V30 948 H 89.6269 -4.41429 -0.243485 0
M  V30 949 N 88.686 -0.835752 -1.33615 0
M  V30 950 C 89.932 -0.430596 -1.98176 0
M  V30 951 C 90.265 1.00684 -1.66061 0
M  V30 952 O 89.54 1.70339 -0.938877 0
M  V30 953 C 89.823 -0.648065 -3.5422 0
M  V30 954 C 89.676 -2.13255 -3.96033 0
M  V30 955 C 90.995 -0.0922113 -4.40003 0
M  V30 956 H 88.114 -0.157924 -0.719881 0
M  V30 957 H 90.756 -1.05069 -1.58305 0
M  V30 958 H 88.906 -0.120237 -3.88314 0
M  V30 959 H 90.578 -2.725 -3.72211 0
M  V30 960 H 88.821 -2.61823 -3.45878 0
M  V30 961 H 89.492 -2.23547 -5.04708 0
M  V30 962 H 91.968 -0.543343 -4.12537 0
M  V30 963 H 90.844 -0.274083 -5.48215 0
M  V30 964 H 91.105 1.00378 -4.30554 0
M  V30 965 N 90.1641 1.46063 -0.591896 0
M  V30 966 C 91.4411 1.95595 -0.0137119 0
M  V30 967 C 91.8211 1.5345 1.4497 0
M  V30 968 O 91.1691 0.789543 2.14426 0
M  V30 969 C 91.3791 3.48453 -0.195373 0
M  V30 970 C 92.7271 4.24546 -0.0679765 0
M  V30 971 O 93.7511 3.55982 -0.124681 0
M  V30 972 O 92.6101 5.46467 0.0600579 0
M  V30 973 H 89.7041 0.825795 0.0446279 0
M  V30 974 H 92.2501 1.56303 -0.660859 0
M  V30 975 H 91.0221 3.72045 -1.21235 0
M  V30 976 H 90.6451 3.94597 0.487775 0
M  V30 977 N 91.6422 0.330177 1.54103 0
M  V30 978 C 92.8882 -0.270806 2.00984 0
M  V30 979 C 93.2212 -1.51265 1.21789 0
M  V30 980 O 92.4962 -1.92142 0.301927 0
M  V30 981 C 92.7792 -0.598339 3.55094 0
M  V30 982 C 92.6322 0.654674 4.4501 0
M  V30 983 C 93.9512 -1.41334 4.16789 0
M  V30 984 H 91.0702 -0.0969531 0.730595 0
M  V30 985 H 93.7122 0.448066 1.84641 0
M  V30 986 H 91.8622 -1.21078 3.69151 0
M  V30 987 H 93.5342 1.29285 4.42813 0
M  V30 988 H 91.7772 1.28224 4.14416 0
M  V30 989 H 92.4482 0.380944 5.50684 0
M  V30 990 H 94.9242 -0.895597 4.06347 0
M  V30 991 H 93.8002 -1.61127 5.24718 0
M  V30 992 H 94.0612 -2.41146 3.70541 0
M  V30 993 N 93.1203 -1.57491 0.0584922 0
M  V30 994 C 94.3973 -1.84346 -0.653918 0
M  V30 995 C 94.7773 -0.948355 -1.88599 0
M  V30 996 O 94.1253 -0.0112403 -2.28497 0
M  V30 997 C 94.3353 -3.34239 -1.00425 0
M  V30 998 C 95.6833 -4.01431 -1.38342 0
M  V30 999 O 96.7073 -3.38907 -1.09637 0
M  V30 1000 O 95.5663 -5.11683 -1.91943 0
M  V30 1001 H 92.6603 -0.761112 -0.323478 0
M  V30 1002 H 95.2063 -1.6947 0.0884125 0
M  V30 1003 H 93.9783 -3.91089 -0.128625 0
M  V30 1004 H 93.6013 -3.54329 -1.80378 0
M  V30 1005 N 94.5984 0.214957 -1.56127 0
M  V30 1006 C 95.8754 0.963093 -1.70247 0
M  V30 1007 C 96.2554 2.02166 -0.60764 0
M  V30 1008 O 95.6034 2.25244 0.384385 0
M  V30 1009 C 95.8134 1.56756 -3.11815 0
M  V30 1010 C 97.1614 2.0573 -3.7143 0
M  V30 1011 O 98.1854 1.66637 -3.14818 0
M  V30 1012 O 97.0444 2.77603 -4.70743 0
M  V30 1013 H 94.1384 0.450321 -0.693643 0
M  V30 1014 H 96.6844 0.206219 -1.68442 0
M  V30 1015 H 95.4564 0.803533 -3.82961 0
M  V30 1016 H 95.0794 2.3898 -3.17765 0
M  V30 1017 N 96.0765 1.50051 0.48192 0
M  V30 1018 C 97.3535 1.51009 1.2432 0
M  V30 1019 C 97.7335 0.248587 2.09631 0
M  V30 1020 O 97.0815 -0.768409 2.15192 0
M  V30 1021 C 97.2915 2.79981 2.08355 0
M  V30 1022 C 98.6395 3.3022 2.66908 0
M  V30 1023 O 99.6635 2.81228 2.18607 0
M  V30 1024 O 98.5225 4.15595 3.54884 0
M  V30 1025 H 95.6165 0.605239 0.563573 0
M  V30 1026 H 98.1625 1.62332 0.494627 0
M  V30 1027 H 96.9345 3.63275 1.45419 0
M  V30 1028 H 96.5575 2.7161 2.90368 0
M  V30 1029 N 97.5546 -0.734337 1.39446 0
M  V30 1030 C 98.7826 -1.52358 1.39981 0
M  V30 1031 C 99.1976 -1.88799 -0.0054975 0
M  V30 1032 O 98.5546 -1.54146 -0.976998 0
M  V30 1033 C 98.6056 -2.81072 2.27333 0
M  V30 1034 O 98.3266 -2.46178 3.62392 0
M  V30 1035 C 99.8276 -3.75096 2.36259 0
M  V30 1036 H 97.0476 -0.470806 0.478103 0
M  V30 1037 H 99.5916 -0.907339 1.83269 0
M  V30 1038 H 97.7466 -3.39026 1.87457 0
M  V30 1039 H 98.1606 -3.28866 4.08592 0
M  V30 1040 H 99.6346 -4.62305 3.01626 0
M  V30 1041 H 100.112 -4.16892 1.38194 0
M  V30 1042 H 100.718 -3.23061 2.76608 0
M  V30 1043 N 99.0327 -1.24633 -0.964593 0
M  V30 1044 C 100.281 -1.08573 -1.70459 0
M  V30 1045 C 100.602 0.375655 -1.91347 0
M  V30 1046 O 99.8717 1.26779 -1.49345 0
M  V30 1047 H 98.4517 -0.398784 -0.631649 0
M  V30 1048 H 101.114 -1.56601 -1.16026 0
M  V30 1049 H 100.21 -1.58623 -2.68785 0
M  V30 1050 N 100.511 1.16574 -1.06058 0
M  V30 1051 C 101.458 2.20883 -0.669263 0
M  V30 1052 C 102.428 1.62729 0.332918 0
M  V30 1053 O 103.613 1.895 0.222346 0
M  V30 1054 C 100.753 3.45049 -0.0593572 0
M  V30 1055 C 99.8658 4.17458 -1.11143 0
M  V30 1056 C 99.0008 5.29135 -0.467916 0
M  V30 1057 C 98.0398 5.93343 -1.50369 0
M  V30 1058 N 97.1768 6.96516 -0.883706 0
M  V30 1059 H 102.017 2.53709 -1.5632 0
M  V30 1060 H 99.5538 1.24616 -0.781625 0
M  V30 1061 H 101.512 4.16033 0.311771 0
M  V30 1062 H 100.142 3.12781 0.797992 0
M  V30 1063 H 99.1938 3.45101 -1.60029 0
M  V30 1064 H 100.506 4.61307 -1.89731 0
M  V30 1065 H 99.6598 6.06684 -0.0436871 0
M  V30 1066 H 98.3988 4.86443 0.349864 0
M  V30 1067 H 97.4038 5.14517 -1.93784 0
M  V30 1068 H 98.6288 6.38114 -2.32352 0
M  V30 1069 H 96.5748 6.55943 -0.086595 0
M  V30 1070 H 96.4918 7.38723 -1.607 0
M  V30 1071 H 97.7598 7.77993 -0.484543 0
M  V30 1072 N 101.989 0.842826 1.3317 0
M  V30 1073 C 103.238 0.436738 1.96915 0
M  V30 1074 C 103.551 -1.01025 1.67491 0
M  V30 1075 O 104.757 -1.5212 2.24881 0
M  V30 1076 C 103.213 0.730021 3.52418 0
M  V30 1077 C 102.821 2.19195 3.90714 0
M  V30 1078 C 104.565 0.391076 4.22695 0
M  V30 1079 C 102.472 2.42907 5.39212 0
M  V30 1080 H 101.402 0.15958 0.736919 0
M  V30 1081 H 104.053 1.03196 1.51733 0
M  V30 1082 H 102.435 0.0643755 3.95948 0
M  V30 1083 H 103.609 2.8984 3.58231 0
M  V30 1084 H 101.924 2.49425 3.33431 0
M  V30 1085 H 104.521 0.545817 5.31907 0
M  V30 1086 H 104.864 -0.666294 4.10933 0
M  V30 1087 H 105.397 1.01212 3.84709 0
M  V30 1088 H 102.136 3.47224 5.55982 0
M  V30 1089 H 101.656 1.76827 5.73142 0
M  V30 1090 H 103.335 2.2626 6.06148 0
M  V30 1091 N 103.467 -1.45747 0.599634 0
M  V30 1092 C 104.377 -2.34262 -0.125888 0
M  V30 1093 C 105.393 -1.50768 -0.868625 0
M  V30 1094 O 106.569 -1.83592 -0.828003 0
M  V30 1095 C 103.634 -3.28252 -1.11587 0
M  V30 1096 C 102.695 -4.27651 -0.375956 0
M  V30 1097 C 101.928 -5.1715 -1.31877 0
M  V30 1098 O 102.151 -5.09916 -2.55621 0
M  V30 1099 O 101.085 -5.96286 -0.820157 0
M  V30 1100 H 104.911 -2.97688 0.601315 0
M  V30 1101 H 102.496 -1.44999 0.359934 0
M  V30 1102 H 104.378 -3.86191 -1.68626 0
M  V30 1103 H 103.053 -2.67401 -1.82424 0
M  V30 1104 H 101.96 -3.7335 0.236698 0
M  V30 1105 H 103.293 -4.91334 0.29177 0
M  V30 1106 N 104.945 -0.338344 -1.53925 0
M  V30 1107 C 105.875 0.51328 -2.27789 0
M  V30 1108 C 106.856 1.107 -1.29149 0
M  V30 1109 O 108.041 1.12937 -1.57984 0
M  V30 1110 C 105.171 1.66697 -3.04679 0
M  V30 1111 C 104.125 1.20183 -4.1078 0
M  V30 1112 C 103.451 2.44363 -4.75595 0
M  V30 1113 C 104.751 0.30605 -5.21403 0
M  V30 1114 H 106.445 -0.102883 -2.99223 0
M  V30 1115 H 103.991 -0.0509219 -1.4391 0
M  V30 1116 H 105.944 2.26915 -3.55088 0
M  V30 1117 H 104.668 2.30995 -2.30887 0
M  V30 1118 H 103.327 0.622499 -3.61276 0
M  V30 1119 H 102.975 3.07057 -3.98403 0
M  V30 1120 H 102.675 2.13925 -5.47275 0
M  V30 1121 H 104.199 3.05317 -5.28786 0
M  V30 1122 H 105.613 0.814929 -5.67478 0
M  V30 1123 H 104.01 0.0937929 -6.00027 0
M  V30 1124 H 105.08 -0.65921 -4.80398 0
M  V30 1125 N 106.423 1.57458 -0.0668435 0
M  V30 1126 C 107.672 1.92477 0.602947 0
M  V30 1127 C 107.985 0.948419 1.71068 0
M  V30 1128 O 109.191 1.19124 2.43971 0
M  V30 1129 C 107.647 3.41903 1.12383 0
M  V30 1130 C 107.255 4.47975 0.04737 0
M  V30 1131 C 108.999 3.85931 1.76797 0
M  V30 1132 C 106.906 5.88529 0.582022 0
M  V30 1133 H 105.836 0.718387 0.22899 0
M  V30 1134 H 108.487 1.82978 -0.138276 0
M  V30 1135 H 106.869 3.46459 1.91787 0
M  V30 1136 H 108.043 4.55029 -0.726978 0
M  V30 1137 H 106.358 4.13384 -0.500243 0
M  V30 1138 H 108.955 4.88322 2.17821 0
M  V30 1139 H 109.298 3.23029 2.62599 0
M  V30 1140 H 109.831 3.83958 1.04024 0
M  V30 1141 H 106.57 6.55065 -0.238721 0
M  V30 1142 H 106.09 5.85004 1.324 0
M  V30 1143 H 107.769 6.38258 1.05999 0
M  V30 1144 N 107.901 -0.206675 1.56239 0
M  V30 1145 C 108.849 -1.27571 1.94495 0
M  V30 1146 C 109.843 -1.47737 0.828862 0
M  V30 1147 O 111.049 -1.48735 1.0138 0
M  V30 1148 H 107.424 -0.428029 0.6183 0
M  V30 1149 H 109.395 -0.925961 2.8367 0
M  V30 1150 C 108.144 -2.61568 2.29079 0
M  V30 1151 H 107.467 -2.46863 3.14482 0
M  V30 1152 H 108.907 -3.35144 2.5972 0
M  V30 1153 C 107.366 -3.17695 1.12123 0
M  V30 1154 O 107.896 -3.99801 0.390153 0
M  V30 1155 N 106.102 -2.76276 0.901097 0
M  V30 1156 H 105.649 -2.09613 1.49733 0
M  V30 1157 H 105.607 -3.1417 0.120319 0
M  V30 1158 N 109.379 -1.50304 -0.473955 0
M  V30 1159 C 110.79 -1.54042 -1.0549 0
M  V30 1160 C 111.141 -0.342248 -1.93192 0
M  V30 1161 O 110.266 0.545157 -2.09421 0
M  V30 1162 C 110.861 -2.79152 -1.91989 0
M  V30 1163 C 109.42 -2.8558 -2.45196 0
M  V30 1164 C 108.567 -2.48295 -1.2347 0
M  V30 1165 H 111.518 -1.5661 -0.256693 0
M  V30 1166 H 111.539 -2.60845 -2.7702 0
M  V30 1167 H 111.051 -3.66339 -1.28131 0
M  V30 1168 H 109.152 -2.02738 -3.12615 0
M  V30 1169 H 109.265 -3.88403 -2.80499 0
M  V30 1170 H 107.629 -2.00669 -1.56856 0
M  V30 1171 H 108.412 -3.37787 -0.612789 0
M  V30 1172 N 110.857 0.726932 -1.39834 0
M  V30 1173 C 112.082 1.52121 -1.40976 0
M  V30 1174 C 112.507 1.88098 -0.00826029 0
M  V30 1175 O 111.865 1.52479 0.980807 0
M  V30 1176 C 111.913 2.78021 -2.29644 0
M  V30 1177 O 111.017 3.74272 -1.73188 0
M  V30 1178 H 110.358 0.45908 -0.479731 0
M  V30 1179 H 112.888 0.896207 -1.83927 0
M  V30 1180 H 112.898 3.26671 -2.44438 0
M  V30 1181 H 111.573 2.51169 -3.31492 0
M  V30 1182 H 110.15 3.33073 -1.6768 0
M  V30 1183 N 112.336 1.25143 0.95797 0
M  V30 1184 C 113.585 1.0909 1.69654 0
M  V30 1185 C 113.898 -0.368548 1.92097 0
M  V30 1186 O 115.104 -0.649455 2.63618 0
M  V30 1187 C 113.56 1.90395 3.05414 0
M  V30 1188 C 113.168 3.4081 2.90779 0
M  V30 1189 C 114.912 1.82901 3.83076 0
M  V30 1190 C 112.819 4.14423 4.21909 0
M  V30 1191 H 111.749 0.404625 0.636235 0
M  V30 1192 H 114.4 1.4931 1.06672 0
M  V30 1193 H 112.782 1.42996 3.69281 0
M  V30 1194 H 113.956 3.95859 2.35865 0
M  V30 1195 H 112.271 3.49361 2.26575 0
M  V30 1196 H 114.868 2.35196 4.80195 0
M  V30 1197 H 115.211 0.796224 4.08615 0
M  V30 1198 H 115.744 2.28033 3.25954 0
M  V30 1199 H 112.483 5.18102 4.01561 0
M  V30 1200 H 112.003 3.64159 4.76601 0
M  V30 1201 H 113.682 4.21956 4.90471 0
M  V30 1202 N 113.814 -1.1601 1.06675 0
M  V30 1203 C 114.744 -2.22688 0.702307 0
M  V30 1204 C 115.725 -1.67306 -0.307032 0
M  V30 1205 O 116.91 -1.93352 -0.181305 0
M  V30 1206 C 114.04 -3.47178 0.092038 0
M  V30 1207 C 112.994 -4.15477 1.02777 0
M  V30 1208 C 112.32 -5.33963 0.28061 0
M  V30 1209 C 113.62 -4.66019 2.35846 0
M  V30 1210 H 115.314 -2.53429 1.59419 0
M  V30 1211 H 112.86 -1.21813 0.767961 0
M  V30 1212 H 114.813 -4.21037 -0.174814 0
M  V30 1213 H 113.537 -3.15749 -0.834877 0
M  V30 1214 H 112.196 -3.43549 1.27944 0
M  V30 1215 H 111.844 -4.98788 -0.649545 0
M  V30 1216 H 111.544 -5.806 0.904258 0
M  V30 1217 H 113.068 -6.10596 0.021396 0
M  V30 1218 H 114.482 -5.3144 2.15045 0
M  V30 1219 H 112.879 -5.23293 2.93743 0
M  V30 1220 H 113.949 -3.82023 2.98641 0
M  V30 1221 N 115.292 -0.849877 -1.32721 0
M  V30 1222 C 116.202 -0.293791 -2.32753 0
M  V30 1223 C 117.218 0.585906 -1.63839 0
M  V30 1224 O 118.394 0.487413 -1.95413 0
M  V30 1225 C 115.459 0.512752 -3.42887 0
M  V30 1226 C 114.52 -0.39252 -4.27502 0
M  V30 1227 C 113.753 0.375625 -5.32377 0
M  V30 1228 O 113.976 1.60613 -5.4732 0
M  V30 1229 O 112.91 -0.256094 -6.01355 0
M  V30 1230 H 116.736 -1.12242 -2.82197 0
M  V30 1231 H 114.321 -0.612685 -1.36259 0
M  V30 1232 H 116.203 0.970704 -4.10067 0
M  V30 1233 H 114.878 1.31826 -2.95641 0
M  V30 1234 H 113.785 -0.898547 -3.63149 0
M  V30 1235 H 115.118 -1.16309 -4.7826 0
M  V30 1236 N 116.77 1.45427 -0.607355 0
M  V30 1237 C 117.717 2.3053 0.111625 0
M  V30 1238 C 118.687 1.4209 0.860216 0
M  V30 1239 O 119.872 1.71019 0.845998 0
M  V30 1240 C 117.012 3.26992 1.10319 0
M  V30 1241 C 116.125 4.30535 0.355493 0
M  V30 1242 C 115.26 5.14105 1.33676 0
M  V30 1243 C 114.299 6.09376 0.576862 0
M  V30 1244 N 113.436 6.85727 1.5074 0
M  V30 1245 H 118.276 2.91477 -0.620093 0
M  V30 1246 H 115.813 1.43631 -0.317594 0
M  V30 1247 H 117.771 3.81385 1.6912 0
M  V30 1248 H 116.401 2.67799 1.80232 0
M  V30 1249 H 115.453 3.78805 -0.348023 0
M  V30 1250 H 116.765 4.98235 -0.237423 0
M  V30 1251 H 115.919 5.72897 1.99684 0
M  V30 1252 H 114.658 4.46423 1.9636 0
M  V30 1253 H 113.663 5.49715 -0.0968519 0
M  V30 1254 H 114.888 6.79085 -0.0449341 0
M  V30 1255 H 112.834 6.20735 2.12189 0
M  V30 1256 H 112.751 7.49778 0.967913 0
M  V30 1257 H 114.019 7.4906 2.15706 0
M  V30 1258 N 118.248 0.346503 1.53744 0
M  V30 1259 C 119.664 -0.00530975 1.59599 0
M  V30 1260 C 119.864 -1.48465 1.36236 0
M  V30 1261 O 118.92 -2.24376 1.15808 0
M  V30 1262 C 120.233 0.433516 2.97559 0
M  V30 1263 C 121.781 0.386111 3.10609 0
M  V30 1264 C 122.256 0.800451 4.50951 0
M  V30 1265 N 123.747 0.754753 4.5701 0
M  V30 1266 C 124.482 1.04727 5.63755 0
M  V30 1267 N 123.978 1.4081 6.7834 0
M  V30 1268 N 125.771 0.971316 5.53644 0
M  V30 1269 H 117.922 1.31009 1.67184 0
M  V30 1270 H 120.185 0.534242 0.783128 0
M  V30 1271 H 119.891 1.46509 3.19731 0
M  V30 1272 H 119.765 -0.189753 3.76722 0
M  V30 1273 H 122.152 -0.636295 2.88158 0
M  V30 1274 H 122.233 1.04462 2.33498 0
M  V30 1275 H 121.877 1.82088 4.74137 0
M  V30 1276 H 121.807 0.119386 5.26465 0
M  V30 1277 H 124.298 0.488662 3.74727 0
M  V30 1278 H 124.611 1.61607 7.55714 0
M  V30 1279 H 122.956 1.44657 6.79779 0
M  V30 1280 H 126.147 0.688748 4.63005 0
M  V30 1281 H 126.32 1.20263 6.36742 0
M  V30 1282 N 119.726 -1.57421 0.075193 0
M  V30 1283 C 120.974 -1.93236 -0.591974 0
M  V30 1284 C 121.295 -0.956241 -1.69944 0
M  V30 1285 O 120.565 -0.00494792 -1.95899 0
M  V30 1286 H 119.145 -0.713355 -0.22166 0
M  V30 1287 H 121.807 -1.9444 0.133848 0
M  V30 1288 H 120.903 -2.95131 -1.01509 0
M  V30 1289 N 121.204 0.198386 -1.56346 0
M  V30 1290 C 122.114 1.2664 -1.97483 0
M  V30 1291 C 123.13 1.49989 -0.882002 0
M  V30 1292 O 124.306 1.62668 -1.18748 0
M  V30 1293 C 121.371 2.59141 -2.30319 0
M  V30 1294 C 120.432 2.43892 -3.53292 0
M  V30 1295 C 119.665 3.70074 -3.84553 0
M  V30 1296 O 119.888 4.74101 -3.1715 0
M  V30 1297 O 118.822 3.658 -4.7799 0
M  V30 1298 H 122.648 0.947304 -2.88548 0
M  V30 1299 H 120.233 0.403123 -1.43859 0
M  V30 1300 H 122.115 3.37352 -2.5253 0
M  V30 1301 H 120.79 2.90684 -1.42423 0
M  V30 1302 H 119.697 1.63803 -3.36332 0
M  V30 1303 H 121.03 2.17282 -4.41644 0
M  V30 1304 N 122.682 1.50554 0.465978 0
M  V30 1305 C 123.614 1.65949 1.58093 0
M  V30 1306 C 124.627 0.540827 1.53554 0
M  V30 1307 O 125.816 0.814187 1.5885 0
M  V30 1308 C 122.916 1.63261 2.96983 0
M  V30 1309 C 122.089 2.91245 3.26336 0
M  V30 1310 C 121.148 2.8113 4.44806 0
M  V30 1311 O 120.174 3.55086 4.44862 0
M  V30 1312 N 121.376 1.95032 5.46756 0
M  V30 1313 H 124.141 2.62122 1.45301 0
M  V30 1314 H 121.702 1.48082 0.65448 0
M  V30 1315 H 123.694 1.54101 3.74212 0
M  V30 1316 H 122.264 0.748032 3.03518 0
M  V30 1317 H 121.484 3.14493 2.37672 0
M  V30 1318 H 122.772 3.76022 3.42761 0
M  V30 1319 H 122.17 1.3427 5.49534 0
M  V30 1320 H 120.727 1.91772 6.2295 0
M  V30 1321 N 124.16 -0.719506 1.40217 0
M  V30 1322 C 125.406 -1.48152 1.38488 0
M  V30 1323 C 125.739 -1.94195 -0.0141867 0
M  V30 1324 O 125.014 -1.67884 -0.982096 0
M  V30 1325 C 125.297 -2.71035 2.37091 0
M  V30 1326 C 125.15 -2.30912 3.86005 0
M  V30 1327 C 126.469 -3.73182 2.33288 0
M  V30 1328 H 123.588 -0.537395 0.504357 0
M  V30 1329 H 126.23 -0.821472 1.71324 0
M  V30 1330 H 124.38 -3.27352 2.0922 0
M  V30 1331 H 126.052 -1.80107 4.24687 0
M  V30 1332 H 124.295 -1.62958 4.02029 0
M  V30 1333 H 124.966 -3.18978 4.50508 0
M  V30 1334 H 127.442 -3.26485 2.57966 0
M  V30 1335 H 126.318 -4.56806 3.04334 0
M  V30 1336 H 126.579 -4.21202 1.34317 0
M  V30 1337 N 125.638 -1.25649 -0.95132 0
M  V30 1338 C 126.886 -1.10375 -1.69298 0
M  V30 1339 C 127.207 0.355339 -1.91735 0
M  V30 1340 O 126.477 1.25188 -1.50681 0
M  V30 1341 H 125.057 -0.405461 -0.627384 0
M  V30 1342 H 127.719 -1.57823 -1.14358 0
M  V30 1343 H 126.815 -1.61465 -2.67087 0
M  V30 1344 N 127.117 1.15442 -1.07289 0
M  V30 1345 C 128.528 1.67803 -0.818475 0
M  V30 1346 C 128.879 1.8489 0.656507 0
M  V30 1347 O 128.004 1.55176 1.50829 0
M  V30 1348 C 128.599 3.04805 -1.47917 0
M  V30 1349 C 127.158 3.54245 -1.27229 0
M  V30 1350 C 126.305 2.29986 -1.54925 0
M  V30 1351 H 129.256 0.996646 -1.23502 0
M  V30 1352 H 129.277 3.69702 -0.90005 0
M  V30 1353 H 128.789 2.92336 -2.55267 0
M  V30 1354 H 126.89 3.71956 -0.21899 0
M  V30 1355 H 127.003 4.35723 -1.99203 0
M  V30 1356 H 125.367 2.35496 -0.970242 0
M  V30 1357 H 126.15 2.20105 -2.63455 0
M  V30 1358 N 128.595 0.856903 1.32268 0
M  V30 1359 C 129.505 0.306131 2.32594 0
M  V30 1360 C 130.521 -0.577209 1.64147 0
M  V30 1361 O 131.697 -0.477043 1.95669 0
M  V30 1362 C 128.762 -0.494561 3.43154 0
M  V30 1363 C 127.823 0.415186 4.27288 0
M  V30 1364 C 127.056 -0.347387 5.32568 0
M  V30 1365 O 127.279 -1.57708 5.48165 0
M  V30 1366 O 126.213 0.287982 6.01211 0
M  V30 1367 H 130.039 1.13737 2.81598 0
M  V30 1368 H 127.624 0.619902 1.35932 0
M  V30 1369 H 129.506 -0.948944 4.10576 0
M  V30 1370 H 128.181 -1.30257 2.96336 0
M  V30 1371 H 127.088 0.917793 3.62667 0
M  V30 1372 H 128.421 1.18844 4.77637 0
M  V30 1373 N 130.073 -1.45103 0.615059 0
M  V30 1374 C 131.321 -2.01784 0.112955 0
M  V30 1375 C 131.642 -1.48504 -1.26378 0
M  V30 1376 O 130.912 -0.682245 -1.83636 0
M  V30 1377 H 129.492 -0.745993 0.0387668 0
M  V30 1378 H 132.154 -1.77808 0.798141 0
M  V30 1379 H 131.25 -3.12025 0.0684069 0
M  V30 1380 N 131.551 -0.354651 -1.53558 0
M  V30 1381 C 132.791 0.238651 -2.03002 0
M  V30 1382 C 133.155 1.46878 -1.23656 0
M  V30 1383 O 134.356 2.13699 -1.63053 0
M  V30 1384 C 132.627 0.534175 -3.53386 0
M  V30 1385 S 134.186 1.10271 -4.24719 0
M  V30 1386 H 131.004 0.0702908 -0.707517 0
M  V30 1387 H 133.606 -0.494987 -1.8913 0
M  V30 1388 H 132.31 -0.368765 -4.0874 0
M  V30 1389 H 131.841 1.29718 -3.71398 0
M  V30 1390 H 133.856 2.38772 -4.34974 0
M  V30 1391 N 133.029 1.57378 -0.0835403 0
M  V30 1392 C 133.959 2.1641 0.87686 0
M  V30 1393 C 134.94 1.09429 1.30228 0
M  V30 1394 O 136.125 1.37516 1.37124 0
M  V30 1395 C 133.255 2.73517 2.14022 0
M  V30 1396 C 132.209 3.85769 1.85381 0
M  V30 1397 C 131.535 4.29529 3.18448 0
M  V30 1398 C 132.835 5.09486 1.14984 0
M  V30 1399 H 134.529 2.96914 0.385059 0
M  V30 1400 H 132.075 1.42823 0.18377 0
M  V30 1401 H 134.028 3.13463 2.81636 0
M  V30 1402 H 132.752 1.90252 2.65465 0
M  V30 1403 H 131.411 3.46345 1.20169 0
M  V30 1404 H 131.059 3.43169 3.67755 0
M  V30 1405 H 130.759 5.05204 3.00071 0
M  V30 1406 H 132.283 4.72099 3.8724 0
M  V30 1407 H 133.697 5.46674 1.72687 0
M  V30 1408 H 132.094 5.90515 1.06826 0
M  V30 1409 H 133.164 4.84724 0.130749 0
M  V30 1410 N 134.507 -0.190092 1.56449 0
M  V30 1411 C 135.732 -0.929864 1.85387 0
M  V30 1412 C 136.157 -1.7585 0.667704 0
M  V30 1413 O 135.515 -1.77198 -0.383459 0
M  V30 1414 C 135.563 -1.79773 3.12593 0
M  V30 1415 O 134.667 -2.89713 2.93496 0
M  V30 1416 H 134.008 -0.261574 0.610307 0
M  V30 1417 H 136.538 -0.193896 2.03679 0
M  V30 1418 H 136.548 -2.20139 3.43515 0
M  V30 1419 H 135.223 -1.18892 3.98544 0
M  V30 1420 H 133.8 -2.53065 2.73884 0
M  V30 1421 N 135.985 -1.50799 -0.457987 0
M  V30 1422 C 137.232 -1.62442 -1.20908 0
M  V30 1423 C 137.56 -0.330865 -1.91665 0
M  V30 1424 O 136.815 0.68401 -1.83357 0
M  V30 1425 C 137.114 -2.76358 -2.2663 0
M  V30 1426 C 136.78 -4.16378 -1.73033 0
M  V30 1427 C 135.442 -4.54473 -1.58138 0
M  V30 1428 C 137.794 -5.03836 -1.33413 0
M  V30 1429 C 135.122 -5.77754 -1.02065 0
M  V30 1430 C 137.474 -6.27676 -0.78778 0
M  V30 1431 C 136.138 -6.64562 -0.625561 0
M  V30 1432 H 135.408 -0.594417 -0.442435 0
M  V30 1433 H 138.055 -1.84772 -0.503136 0
M  V30 1434 H 136.36 -2.48167 -3.03184 0
M  V30 1435 H 138.057 -2.82568 -2.84528 0
M  V30 1436 H 134.647 -3.86331 -1.85598 0
M  V30 1437 H 138.831 -4.75026 -1.4375 0
M  V30 1438 H 134.087 -6.04997 -0.882547 0
M  V30 1439 H 138.261 -6.94797 -0.472177 0
M  V30 1440 H 135.888 -7.59965 -0.188926 0
M  V30 1441 N 137.463 0.71206 -1.40597 0
M  V30 1442 C 138.874 1.29135 -1.34837 0
M  V30 1443 C 139.225 1.96186 -0.0235395 0
M  V30 1444 O 138.35 1.97768 0.878444 0
M  V30 1445 C 138.945 2.34827 -2.44217 0
M  V30 1446 C 137.504 2.88371 -2.41907 0
M  V30 1447 C 136.651 1.62202 -2.24913 0
M  V30 1448 H 139.602 0.507944 -1.50352 0
M  V30 1449 H 139.623 3.15749 -2.12327 0
M  V30 1450 H 139.135 1.85996 -3.40627 0
M  V30 1451 H 137.236 3.41422 -1.49204 0
M  V30 1452 H 137.349 3.39925 -3.37621 0
M  V30 1453 H 135.713 1.874 -1.72492 0
M  V30 1454 H 136.496 1.15391 -3.23326 0
M  V30 1455 N 138.941 1.26152 0.944643 0
M  V30 1456 C 140.189 1.11271 1.6871 0
M  V30 1457 C 140.51 -0.345166 1.91921 0
M  V30 1458 O 139.78 -1.24387 1.51343 0
M  V30 1459 H 138.36 0.408783 0.625224 0
M  V30 1460 H 141.022 1.58427 1.1352 0
M  V30 1461 H 140.118 1.62879 2.66227 0
M  V30 1462 N 140.419 -1.14872 1.07899 0
M  V30 1463 C 141.349 -2.2193 0.725887 0
M  V30 1464 C 142.33 -1.67622 -0.28927 0
M  V30 1465 O 143.515 -1.93533 -0.160787 0
M  V30 1466 C 140.645 -3.47061 0.128856 0
M  V30 1467 C 139.599 -4.14363 1.07178 0
M  V30 1468 C 138.925 -5.33636 0.337229 0
M  V30 1469 C 140.225 -4.63492 2.40775 0
M  V30 1470 H 141.919 -2.51724 1.62097 0
M  V30 1471 H 139.465 -1.20991 0.780838 0
M  V30 1472 H 141.418 -4.21199 -0.130147 0
M  V30 1473 H 140.142 -3.16617 -0.80134 0
M  V30 1474 H 138.801 -3.42173 1.3158 0
M  V30 1475 H 138.449 -4.99449 -0.596606 0
M  V30 1476 H 138.149 -5.79609 0.965788 0
M  V30 1477 H 139.673 -6.10539 0.0861567 0
M  V30 1478 H 141.087 -5.2913 2.20669 0
M  V30 1479 H 139.484 -5.20148 2.99276 0
M  V30 1480 H 140.554 -3.78834 3.02676 0
M  V30 1481 N 141.898 -0.863906 -1.31812 0
M  V30 1482 C 143.128 -0.485406 -2.00817 0
M  V30 1483 C 143.536 0.925007 -1.65046 0
M  V30 1484 O 142.879 1.61653 -0.872574 0
M  V30 1485 C 142.941 -0.555589 -3.55181 0
M  V30 1486 C 142.605 -1.92654 -4.14407 0
M  V30 1487 C 143.602 -2.89324 -4.31958 0
M  V30 1488 C 141.287 -2.2262 -4.50273 0
M  V30 1489 C 143.281 -4.14108 -4.84555 0
M  V30 1490 C 140.968 -3.47654 -5.02573 0
M  V30 1491 C 141.966 -4.43214 -5.19664 0
M  V30 1492 O 141.654 -5.66033 -5.70843 0
M  V30 1493 H 141.386 -0.188224 -0.649267 0
M  V30 1494 H 143.94 -1.16514 -1.69156 0
M  V30 1495 H 142.17 0.181037 -3.86276 0
M  V30 1496 H 143.859 -0.19138 -4.05449 0
M  V30 1497 H 144.625 -2.6748 -4.04573 0
M  V30 1498 H 140.504 -1.4902 -4.3625 0
M  V30 1499 H 144.048 -4.88703 -4.9781 0
M  V30 1500 H 139.945 -3.69345 -5.29391 0
M  V30 1501 H 140.713 -5.6812 -5.89222 0
M  V30 1502 N 143.376 1.44774 -0.622745 0
M  V30 1503 C 144.624 2.01721 -0.123655 0
M  V30 1504 C 144.945 1.49172 1.25589 0
M  V30 1505 O 144.215 0.691974 1.83272 0
M  V30 1506 H 142.795 0.745777 -0.0427225 0
M  V30 1507 H 145.457 1.77382 -0.807559 0
M  V30 1508 H 144.553 3.11984 -0.0849534 0
M  V30 1509 N 144.854 0.36279 1.53368 0
M  V30 1510 C 145.764 -0.492994 2.29362 0
M  V30 1511 C 146.78 -1.09507 1.35219 0
M  V30 1512 O 147.956 -1.10662 1.68273 0
M  V30 1513 C 145.021 -1.61855 3.066 0
M  V30 1514 C 144.082 -1.04429 4.16405 0
M  V30 1515 C 143.315 -2.11621 4.89951 0
M  V30 1516 O 143.538 -3.32684 4.63333 0
M  V30 1517 O 142.472 -1.74835 5.75948 0
M  V30 1518 H 146.298 0.125331 3.03441 0
M  V30 1519 H 143.883 0.127253 1.48857 0
M  V30 1520 H 145.765 -2.27302 3.54841 0
M  V30 1521 H 144.44 -2.22233 2.3536 0
M  V30 1522 H 143.347 -0.353819 3.72423 0
M  V30 1523 H 144.68 -0.485113 4.89804 0
M  V30 1524 N 146.332 -1.57332 0.0918853 0
M  V30 1525 C 147.578 -1.94524 -0.573425 0
M  V30 1526 C 147.911 -0.973578 -1.68033 0
M  V30 1527 O 147.186 -0.00609226 -1.94499 0
M  V30 1528 C 147.469 -3.41858 -1.13161 0
M  V30 1529 C 147.322 -4.4979 -0.0299747 0
M  V30 1530 C 148.641 -3.90435 -2.03098 0
M  V30 1531 H 145.76 -0.70734 -0.206975 0
M  V30 1532 H 148.402 -1.89309 0.161942 0
M  V30 1533 H 146.552 -3.46433 -1.7583 0
M  V30 1534 H 148.224 -4.57327 0.604112 0
M  V30 1535 H 146.467 -4.291 0.636833 0
M  V30 1536 H 147.138 -5.50069 -0.461287 0
M  V30 1537 H 149.614 -3.87992 -1.50338 0
M  V30 1538 H 148.49 -4.94097 -2.39081 0
M  V30 1539 H 148.751 -3.29541 -2.94712 0
M  V30 1540 N 147.81 0.181792 -1.56548 0
M  V30 1541 C 148.72 1.24538 -1.98815 0
M  V30 1542 C 149.736 1.49045 -0.897861 0
M  V30 1543 O 150.912 1.61399 -1.20467 0
M  V30 1544 C 147.977 2.56683 -2.33055 0
M  V30 1545 C 147.038 2.40131 -3.55859 0
M  V30 1546 C 146.271 3.65975 -3.88456 0
M  V30 1547 O 146.494 4.70711 -3.22161 0
M  V30 1548 O 145.428 3.6071 -4.81842 0
M  V30 1549 H 149.254 0.916647 -2.89536 0
M  V30 1550 H 146.839 0.387842 -1.44278 0
M  V30 1551 H 148.721 3.34655 -2.56094 0
M  V30 1552 H 147.396 2.89157 -1.45498 0
M  V30 1553 H 146.303 1.60226 -3.38051 0
M  V30 1554 H 147.636 2.12585 -4.43924 0
M  V30 1555 N 149.288 1.51039 0.449983 0
M  V30 1556 C 150.704 1.38934 0.785462 0
M  V30 1557 C 150.904 0.461817 1.96136 0
M  V30 1558 O 149.96 -0.0877389 2.52348 0
M  V30 1559 C 151.273 2.80724 1.0777 0
M  V30 1560 C 152.821 2.89787 1.1829 0
M  V30 1561 C 153.296 4.32457 1.50815 0
M  V30 1562 N 154.787 4.35505 1.57764 0
M  V30 1563 C 155.522 5.42914 1.84477 0
M  V30 1564 N 155.018 6.60502 2.09068 0
M  V30 1565 N 156.811 5.3038 1.86155 0
M  V30 1566 H 148.962 2.09904 -0.324647 0
M  V30 1567 H 151.225 0.944378 -0.0827957 0
M  V30 1568 H 150.931 3.50531 0.286498 0
M  V30 1569 H 150.805 3.19273 2.00859 0
M  V30 1570 H 153.192 2.20186 1.96474 0
M  V30 1571 H 153.273 2.54752 0.231314 0
M  V30 1572 H 152.917 5.02603 0.731622 0
M  V30 1573 H 152.847 4.64995 2.47158 0
M  V30 1574 H 155.338 3.50724 1.40715 0
M  V30 1575 H 155.651 7.38158 2.28785 0
M  V30 1576 H 153.996 6.63639 2.06416 0
M  V30 1577 H 157.187 4.37505 1.66454 0
M  V30 1578 H 157.36 6.1417 2.06637 0
M  V30 1579 N 150.766 -0.704594 1.40972 0
M  V30 1580 C 151.729 -1.80035 1.41845 0
M  V30 1581 C 152.729 -1.57774 0.310474 0
M  V30 1582 O 153.919 -1.64613 0.56992 0
M  V30 1583 C 151.051 -3.18284 1.22098 0
M  V30 1584 H 152.244 -1.80658 2.3938 0
M  V30 1585 H 149.797 -0.911329 1.26982 0
M  V30 1586 H 150.532 -3.23306 0.253672 0
M  V30 1587 H 150.317 -3.35843 2.02366 0
M  V30 1588 H 151.807 -3.98289 1.25522 0
M  V30 1589 N 152.244 -1.26651 -0.937939 0
M  V30 1590 C 153.521 -1.0313 -1.66204 0
M  V30 1591 C 153.901 0.437256 -2.06522 0
M  V30 1592 O 153.249 1.41831 -1.79154 0
M  V30 1593 C 153.459 -1.98314 -2.87181 0
M  V30 1594 C 154.807 -2.27107 -3.58758 0
M  V30 1595 O 155.831 -1.96205 -2.97291 0
M  V30 1596 O 154.69 -2.79736 -4.69479 0
M  V30 1597 H 151.784 -0.392384 -0.727986 0
M  V30 1598 H 154.33 -1.37874 -0.989382 0
M  V30 1599 H 153.102 -2.97399 -2.54302 0
M  V30 1600 H 152.725 -1.64068 -3.6217 0
M  V30 1601 N 153.722 1.14298 -1.08507 0
M  V30 1602 C 154.952 1.88945 -0.835663 0
M  V30 1603 C 155.36 1.78894 0.615928 0
M  V30 1604 O 154.703 1.1468 1.43506 0
M  V30 1605 C 154.765 3.39585 -1.17994 0
M  V30 1606 C 154.429 3.7342 -2.63451 0
M  V30 1607 C 155.426 3.73454 -3.61702 0
M  V30 1608 C 153.111 4.03368 -2.99332 0
M  V30 1609 C 155.105 4.02961 -4.93864 0
M  V30 1610 C 152.792 4.32538 -4.31687 0
M  V30 1611 C 153.79 4.32318 -5.28763 0
M  V30 1612 O 153.478 4.6078 -6.58739 0
M  V30 1613 H 153.21 0.605307 -0.300965 0
M  V30 1614 H 155.764 1.45673 -1.44806 0
M  V30 1615 H 153.994 3.83315 -0.51055 0
M  V30 1616 H 155.683 3.9554 -0.911182 0
M  V30 1617 H 156.449 3.50403 -3.35325 0
M  V30 1618 H 152.328 4.02692 -2.24411 0
M  V30 1619 H 155.872 4.02704 -5.69627 0
M  V30 1620 H 151.769 4.55059 -4.57812 0
M  V30 1621 H 152.537 4.78492 -6.64069 0
M  V30 1622 N 155.201 0.870884 1.31352 0
M  V30 1623 C 156.45 0.478408 1.95944 0
M  V30 1624 C 156.763 -0.974493 1.69597 0
M  V30 1625 O 157.969 -1.47316 2.28058 0
M  V30 1626 C 156.425 0.804609 3.50791 0
M  V30 1627 C 156.033 2.27433 3.85977 0
M  V30 1628 C 157.777 0.480648 4.2177 0
M  V30 1629 C 155.684 2.5429 5.33939 0
M  V30 1630 H 154.614 0.175175 0.733369 0
M  V30 1631 H 157.265 1.06391 1.4951 0
M  V30 1632 H 155.647 0.148347 3.95722 0
M  V30 1633 H 156.821 2.97373 3.52002 0
M  V30 1634 H 155.136 2.56442 3.28065 0
M  V30 1635 H 157.733 0.658519 5.30629 0
M  V30 1636 H 158.076 -0.578979 4.12254 0
M  V30 1637 H 158.609 1.09349 3.82476 0
M  V30 1638 H 155.348 3.58939 5.48491 0
M  V30 1639 H 154.868 1.88945 5.69263 0
M  V30 1640 H 156.547 2.39066 6.01212 0
M  V30 1641 N 156.679 -1.44442 0.630414 0
M  V30 1642 C 157.626 -2.30678 -0.0749355 0
M  V30 1643 C 158.596 -1.4344 -0.837502 0
M  V30 1644 O 159.781 -1.72343 -0.818684 0
M  V30 1645 C 156.921 -3.28706 -1.05103 0
M  V30 1646 C 156.034 -4.31046 -0.286954 0
M  V30 1647 C 155.169 -5.16167 -1.2548 0
M  V30 1648 C 154.208 -6.10216 -0.479843 0
M  V30 1649 N 153.345 -6.88039 -1.39811 0
M  V30 1650 H 158.185 -2.90454 0.666386 0
M  V30 1651 H 155.722 -1.43107 0.340404 0
M  V30 1652 H 157.68 -3.84027 -1.63031 0
M  V30 1653 H 156.31 -2.70632 -1.75949 0
M  V30 1654 H 155.362 -3.78203 0.408243 0
M  V30 1655 H 156.674 -4.97794 0.316657 0
M  V30 1656 H 155.828 -5.76002 -1.90544 0
M  V30 1657 H 154.567 -4.49491 -1.89233 0
M  V30 1658 H 153.572 -5.49491 0.184295 0
M  V30 1659 H 154.797 -6.78928 0.152965 0
M  V30 1660 H 152.743 -6.24032 -2.02287 0
M  V30 1661 H 152.66 -7.51223 -0.848508 0
M  V30 1662 H 153.928 -7.52397 -2.03762 0
M  V30 1663 N 158.157 -0.370918 -1.53173 0
M  V30 1664 C 159.403 0.217423 -2.01631 0
M  V30 1665 C 159.736 1.47983 -1.25756 0
M  V30 1666 O 159.011 1.91274 -0.352764 0
M  V30 1667 C 159.294 0.503982 -3.56556 0
M  V30 1668 C 159.147 -0.77243 -4.43118 0
M  V30 1669 C 160.466 1.30234 -4.20389 0
M  V30 1670 H 157.585 0.0775486 -0.732909 0
M  V30 1671 H 160.227 -0.496863 -1.83388 0
M  V30 1672 H 158.377 1.11248 -3.72231 0
M  V30 1673 H 160.049 -1.4098 -4.39229 0
M  V30 1674 H 158.292 -1.39167 -4.10871 0
M  V30 1675 H 158.963 -0.526815 -5.4948 0
M  V30 1676 H 161.439 0.787546 -4.08579 0
M  V30 1677 H 160.315 1.47158 -5.28806 0
M  V30 1678 H 160.576 2.31237 -3.76805 0
M  V30 1679 N 159.635 1.57281 -0.100228 0
M  V30 1680 C 161.051 1.57527 0.256416 0
M  V30 1681 C 161.251 1.11173 1.68056 0
M  V30 1682 O 160.307 0.79053 2.39806 0
M  V30 1683 C 161.62 3.00673 0.0401747 0
M  V30 1684 C 163.168 3.12815 0.107528 0
M  V30 1685 C 163.643 4.57929 -0.0807834 0
M  V30 1686 N 165.134 4.63193 -0.0261207 0
M  V30 1687 C 165.869 5.73212 -0.146999 0
M  V30 1688 N 165.365 6.92047 -0.322999 0
M  V30 1689 N 167.158 5.62031 -0.0879044 0
M  V30 1690 H 159.309 1.85718 -1.03065 0
M  V30 1691 H 161.572 0.857446 -0.404339 0
M  V30 1692 H 161.278 3.38804 -0.943649 0
M  V30 1693 H 161.152 3.69042 0.780262 0
M  V30 1694 H 163.539 2.74554 1.08186 0
M  V30 1695 H 163.62 2.47028 -0.664134 0
M  V30 1696 H 163.264 4.96886 -1.05201 0
M  V30 1697 H 163.194 5.21783 0.710635 0
M  V30 1698 H 165.685 3.77748 0.107161 0
M  V30 1699 H 165.998 7.7173 -0.406608 0
M  V30 1700 H 164.343 6.94074 -0.358733 0
M  V30 1701 H 167.534 4.68075 0.048498 0
M  V30 1702 H 167.707 6.47734 -0.185557 0
M  V30 1703 N 161.113 -0.173488 1.56642 0
M  V30 1704 C 162.076 -1.19859 1.95362 0
M  V30 1705 C 163.076 -1.37296 0.83704 0
M  V30 1706 O 164.266 -1.34739 1.10413 0
M  V30 1707 C 161.398 -2.56405 2.24654 0
M  V30 1708 H 162.591 -0.867062 2.87092 0
M  V30 1709 H 160.144 -0.415853 1.50666 0
M  V30 1710 H 160.879 -2.94576 1.35631 0
M  V30 1711 H 160.664 -2.45115 3.06041 0
M  V30 1712 H 162.154 -3.30287 2.5554 0
M  V30 1713 N 162.591 -1.51276 -0.441967 0
M  V30 1714 C 163.523 -1.68444 -1.55433 0
M  V30 1715 C 164.536 -0.565187 -1.52674 0
M  V30 1716 O 165.725 -0.839356 -1.57534 0
M  V30 1717 C 162.825 -1.67966 -2.94348 0
M  V30 1718 C 161.998 -2.964 -3.21661 0
M  V30 1719 C 161.057 -2.88171 -4.40277 0
M  V30 1720 O 160.083 -3.62119 -4.39157 0
M  V30 1721 N 161.285 -2.03706 -5.43584 0
M  V30 1722 H 164.05 -2.644 -1.41112 0
M  V30 1723 H 161.611 -1.49104 -0.630838 0
M  V30 1724 H 163.603 -1.60035 -3.71713 0
M  V30 1725 H 162.173 -0.796225 -3.0229 0
M  V30 1726 H 161.393 -3.18234 -2.32638 0
M  V30 1727 H 162.681 -3.81427 -3.36736 0
M  V30 1728 H 162.079 -1.42995 -5.47329 0
M  V30 1729 H 160.636 -2.01658 -6.1982 0
M  V30 1730 N 164.069 0.697108 -1.41344 0
M  V30 1731 C 165.017 1.83237 -1.43272 0
M  V30 1732 C 166.011 1.66522 -0.310947 0
M  V30 1733 O 167.217 1.73402 -0.482899 0
M  V30 1734 H 163.592 0.603802 -0.448249 0
M  V30 1735 H 165.563 1.78727 -2.38954 0
M  V30 1736 C 164.312 3.21245 -1.33029 0
M  V30 1737 H 163.635 3.34723 -2.18633 0
M  V30 1738 H 165.075 4.00763 -1.38439 0
M  V30 1739 C 163.534 3.36873 -0.0424635 0
M  V30 1740 O 164.064 3.91177 0.913421 0
M  V30 1741 N 162.27 2.90581 0.0331145 0
M  V30 1742 H 161.817 2.46577 -0.745506 0
M  V30 1743 H 161.775 3.01416 0.894199 0
M  V30 1744 N 165.547 1.27147 0.931209 0
M  V30 1745 C 166.963 1.04475 1.20653 0
M  V30 1746 C 167.163 -0.223885 2.00252 0
M  V30 1747 O 166.219 -0.930332 2.34736 0
M  V30 1748 C 167.532 2.28209 1.95809 0
M  V30 1749 C 169.08 2.33211 2.08762 0
M  V30 1750 C 169.555 3.56665 2.87323 0
M  V30 1751 N 171.046 3.57201 2.94892 0
M  V30 1752 C 171.781 4.49395 3.56134 0
M  V30 1753 N 171.277 5.51889 4.18796 0
M  V30 1754 N 173.07 4.37026 3.53504 0
M  V30 1755 H 165.221 2.08612 0.399333 0
M  V30 1756 H 167.484 0.917312 0.239253 0
M  V30 1757 H 167.19 3.20538 1.44736 0
M  V30 1758 H 167.064 2.33247 2.96438 0
M  V30 1759 H 169.451 1.41391 2.59023 0
M  V30 1760 H 169.532 2.32178 1.07364 0
M  V30 1761 H 169.176 4.4882 2.37746 0
M  V30 1762 H 169.106 3.54948 3.88998 0
M  V30 1763 H 171.597 2.83074 2.50354 0
M  V30 1764 H 171.91 6.18409 4.63454 0
M  V30 1765 H 170.255 5.55735 4.17353 0
M  V30 1766 H 173.446 3.56166 3.03749 0
M  V30 1767 H 173.619 5.09067 4.00942 0
M  V30 1768 N 167.025 -1.13721 1.09112 0
M  V30 1769 C 168.441 -1.36914 0.820174 0
M  V30 1770 C 168.641 -1.93356 -0.567079 0
M  V30 1771 O 167.697 -2.15093 -1.32255 0
M  V30 1772 C 169.01 -2.3235 1.90877 0
M  V30 1773 C 170.558 -2.45973 1.93562 0
M  V30 1774 C 171.033 -3.44714 3.01556 0
M  V30 1775 N 172.524 -3.52263 3.00775 0
M  V30 1776 C 173.259 -4.28536 3.80978 0
M  V30 1777 N 172.755 -5.07991 4.71081 0
M  V30 1778 N 174.548 -4.23804 3.69251 0
M  V30 1779 H 166.699 -0.754348 1.98553 0
M  V30 1780 H 168.962 -0.3944 0.862063 0
M  V30 1781 H 168.668 -1.98027 2.90651 0
M  V30 1782 H 168.542 -3.32332 1.78424 0
M  V30 1783 H 170.929 -2.79584 0.944286 0
M  V30 1784 H 171.01 -1.45926 2.10093 0
M  V30 1785 H 170.654 -3.11835 4.00901 0
M  V30 1786 H 170.584 -4.44558 2.82269 0
M  V30 1787 H 173.075 -2.95567 2.35475 0
M  V30 1788 H 173.388 -5.63487 5.28869 0
M  V30 1789 H 171.733 -5.07235 4.75119 0
M  V30 1790 H 174.924 -3.60806 2.98222 0
M  V30 1791 H 175.097 -4.82995 4.31995 0
M  V30 1792 N 168.503 -0.877838 -1.30888 0
M  V30 1793 C 169.751 -0.491723 -1.96027 0
M  V30 1794 C 170.072 0.960827 -1.69685 0
M  V30 1795 O 169.342 1.67462 -1.01654 0
M  V30 1796 H 167.922 -0.17885 -0.725273 0
M  V30 1797 H 170.584 -1.11935 -1.59551 0
M  V30 1798 H 169.68 -0.656016 -3.05128 0
M  V30 1799 N 169.982 1.44106 -0.638065 0
M  V30 1800 C 170.929 2.30715 0.062701 0
M  V30 1801 C 171.899 1.43882 0.829883 0
M  V30 1802 O 173.084 1.72775 0.809532 0
M  V30 1803 C 170.224 3.29258 1.03358 0
M  V30 1804 C 169.337 4.31192 0.26409 0
M  V30 1805 C 168.472 5.16825 1.22741 0
M  V30 1806 C 167.511 6.10462 0.447475 0
M  V30 1807 N 166.648 6.8877 1.36161 0
M  V30 1808 H 171.488 2.90096 -0.681781 0
M  V30 1809 H 169.025 1.42925 -0.347988 0
M  V30 1810 H 170.983 3.84886 1.60992 0
M  V30 1811 H 169.613 2.71562 1.74511 0
M  V30 1812 H 168.665 3.77981 -0.428295 0
M  V30 1813 H 169.977 4.97619 -0.343052 0
M  V30 1814 H 169.131 5.77004 1.87487 0
M  V30 1815 H 167.87 4.50488 1.86847 0
M  V30 1816 H 166.875 5.49386 -0.213433 0
M  V30 1817 H 168.1 6.78837 -0.188968 0
M  V30 1818 H 166.046 6.25096 1.98975 0
M  V30 1819 H 165.963 7.51663 0.808656 0
M  V30 1820 H 167.231 7.53467 1.99769 0
M  V30 1821 N 171.46 0.379036 1.52974 0
M  V30 1822 C 172.706 -0.206727 2.01744 0
M  V30 1823 C 173.039 -1.47314 1.26539 0
M  V30 1824 O 172.314 -1.91084 0.362903 0
M  V30 1825 C 172.597 -0.485066 3.56818 0
M  V30 1826 C 172.45 0.795919 4.42702 0
M  V30 1827 C 173.769 -1.28003 4.21074 0
M  V30 1828 H 170.888 -0.0736607 0.73331 0
M  V30 1829 H 173.53 0.506581 1.83122 0
M  V30 1830 H 171.68 -1.09272 3.72816 0
M  V30 1831 H 173.352 1.43307 4.38476 0
M  V30 1832 H 171.595 1.41344 4.10127 0
M  V30 1833 H 172.266 0.555947 5.49193 0
M  V30 1834 H 174.742 -0.765867 4.08991 0
M  V30 1835 H 173.618 -1.44352 5.29579 0
M  V30 1836 H 173.879 -2.29236 3.78026 0
M  V30 1837 N 172.938 -1.57226 0.108567 0
M  V30 1838 C 174.185 -1.94833 -0.551943 0
M  V30 1839 C 174.513 -0.991204 -1.67348 0
M  V30 1840 O 173.768 -0.0131878 -1.95696 0
M  V30 1841 C 174.067 -3.38911 -1.13463 0
M  V30 1842 C 173.733 -4.50696 -0.135509 0
M  V30 1843 C 172.395 -4.80998 0.139252 0
M  V30 1844 C 174.747 -5.18333 0.545957 0
M  V30 1845 C 172.075 -5.76259 1.10194 0
M  V30 1846 C 174.427 -6.14627 1.49721 0
M  V30 1847 C 173.091 -6.43327 1.78006 0
M  V30 1848 H 172.361 -0.712944 -0.20197 0
M  V30 1849 H 175.008 -1.90582 0.18726 0
M  V30 1850 H 173.313 -3.39805 -1.95037 0
M  V30 1851 H 175.01 -3.65317 -1.65362 0
M  V30 1852 H 171.6 -4.27087 -0.359846 0
M  V30 1853 H 175.784 -4.95087 0.346842 0
M  V30 1854 H 171.04 -5.96804 1.32795 0
M  V30 1855 H 175.214 -6.66126 2.03099 0
M  V30 1856 H 172.841 -7.1695 2.52759 0
M  V30 1857 N 174.416 0.165178 -1.56732 0
M  V30 1858 C 175.346 1.20651 -1.99914 0
M  V30 1859 C 176.327 1.45827 -0.875705 0
M  V30 1860 O 177.512 1.57057 -1.14223 0
M  V30 1861 C 174.642 2.54401 -2.36427 0
M  V30 1862 C 173.596 2.43782 -3.51787 0
M  V30 1863 C 172.922 3.82078 -3.7406 0
M  V30 1864 C 174.222 1.93732 -4.85041 0
M  V30 1865 H 175.916 0.847534 -2.87154 0
M  V30 1866 H 173.462 0.40625 -1.38151 0
M  V30 1867 H 175.415 3.27458 -2.65234 0
M  V30 1868 H 174.139 2.92098 -1.46103 0
M  V30 1869 H 172.798 1.73178 -3.23117 0
M  V30 1870 H 172.446 4.17179 -2.81017 0
M  V30 1871 H 172.146 3.7584 -4.51684 0
M  V30 1872 H 173.67 4.56712 -4.05274 0
M  V30 1873 H 175.084 2.56569 -5.12684 0
M  V30 1874 H 173.481 1.98428 -5.66345 0
M  V30 1875 H 174.551 0.891962 -4.76626 0
M  V30 1876 N 175.894 1.51508 0.433938 0
M  V30 1877 C 176.824 1.76016 1.53429 0
M  V30 1878 C 177.805 0.610112 1.58782 0
M  V30 1879 O 178.99 0.853177 1.74455 0
M  V30 1880 C 176.12 1.88831 2.9148 0
M  V30 1881 C 175.074 3.04288 3.00987 0
M  V30 1882 C 174.4 3.0229 4.4105 0
M  V30 1883 C 175.7 4.44193 2.74754 0
M  V30 1884 H 177.394 2.68152 1.33171 0
M  V30 1885 H 174.94 1.29035 0.639214 0
M  V30 1886 H 176.893 2.04559 3.6842 0
M  V30 1887 H 175.617 0.933455 3.12976 0
M  V30 1888 H 174.276 2.8827 2.26486 0
M  V30 1889 H 173.924 2.04576 4.59519 0
M  V30 1890 H 173.624 3.79822 4.4834 0
M  V30 1891 H 175.148 3.20116 5.1996 0
M  V30 1892 H 176.562 4.60544 3.41426 0
M  V30 1893 H 174.959 5.23457 2.9345 0
M  V30 1894 H 176.029 4.53996 1.70339 0
M  V30 1895 N 177.372 -0.689602 1.41712 0
M  V30 1896 C 178.282 -1.83314 1.46401 0
M  V30 1897 C 179.298 -1.7036 0.35405 0
M  V30 1898 O 180.474 -1.92171 0.602692 0
M  V30 1899 C 177.539 -3.19344 1.34982 0
M  V30 1900 C 176.6 -3.44363 2.56344 0
M  V30 1901 C 175.833 -4.73904 2.45461 0
M  V30 1902 O 176.056 -5.508 1.48241 0
M  V30 1903 O 174.99 -4.99839 3.35328 0
M  V30 1904 H 178.816 -1.82314 2.42889 0
M  V30 1905 H 176.401 -0.843438 1.23315 0
M  V30 1906 H 178.283 -4.00547 1.3092 0
M  V30 1907 H 176.958 -3.21014 0.41612 0
M  V30 1908 H 175.865 -2.63067 2.65982 0
M  V30 1909 H 177.198 -3.47512 3.48563 0
M  V30 1910 N 178.85 -1.27639 -0.924453 0
M  V30 1911 C 179.813 -1.10681 -2.00705 0
M  V30 1912 C 180.813 -0.0497823 -1.60723 0
M  V30 1913 O 182.003 -0.294654 -1.7169 0
M  V30 1914 C 179.135 -0.687164 -3.33902 0
M  V30 1915 H 180.328 -2.06817 -2.17179 0
M  V30 1916 H 177.881 -1.10473 -1.10569 0
M  V30 1917 H 178.616 0.275439 -3.23128 0
M  V30 1918 H 178.401 -1.45061 -3.6428 0
M  V30 1919 H 179.891 -0.590853 -4.13399 0
M  V30 1920 N 180.328 1.1314 -1.09713 0
M  V30 1921 C 181.238 2.22242 -0.751367 0
M  V30 1922 C 182.254 1.72224 0.247938 0
M  V30 1923 O 183.43 2.01205 0.0885463 0
M  V30 1924 C 180.495 3.46231 -0.180274 0
M  V30 1925 C 179.556 4.11125 -1.2359 0
M  V30 1926 C 178.789 5.29195 -0.691966 0
M  V30 1927 O 179.012 5.68342 0.48414 0
M  V30 1928 O 177.946 5.84214 -1.44838 0
M  V30 1929 H 181.772 2.54197 -1.66186 0
M  V30 1930 H 179.357 1.21331 -0.871735 0
M  V30 1931 H 181.239 4.21185 0.134739 0
M  V30 1932 H 179.914 3.1597 0.703185 0
M  V30 1933 H 178.821 3.37985 -1.60366 0
M  V30 1934 H 180.154 4.45524 -2.09211 0
M  V30 1935 N 181.806 0.884767 1.30421 0
M  V30 1936 C 183.054 0.502112 1.95763 0
M  V30 1937 C 183.375 -0.951815 1.70192 0
M  V30 1938 O 182.645 -1.6692 1.0254 0
M  V30 1939 H 181.225 0.182694 0.724315 0
M  V30 1940 H 183.887 1.1278 1.58955 0
M  V30 1941 H 182.983 0.672188 3.04775 0
M  V30 1942 N 183.284 -1.43765 0.645699 0
M  V30 1943 C 184.531 -2.01898 0.15604 0
M  V30 1944 C 184.859 -1.50887 -1.22733 0
M  V30 1945 O 184.114 -0.689271 -1.8316 0
M  V30 1946 C 184.413 -3.57238 0.107679 0
M  V30 1947 C 184.079 -4.27564 1.43178 0
M  V30 1948 C 182.741 -4.46492 1.7944 0
M  V30 1949 C 185.093 -4.67454 2.30513 0
M  V30 1950 C 182.421 -5.02573 3.02716 0
M  V30 1951 C 184.773 -5.24901 3.53074 0
M  V30 1952 C 183.437 -5.42046 3.89541 0
M  V30 1953 H 182.707 -0.738797 0.057099 0
M  V30 1954 H 185.354 -1.72341 0.834912 0
M  V30 1955 H 183.659 -3.86293 -0.654618 0
M  V30 1956 H 185.356 -3.99965 -0.287938 0
M  V30 1957 H 181.946 -4.13171 1.13963 0
M  V30 1958 H 186.13 -4.5253 2.0379 0
M  V30 1959 H 181.386 -5.14033 3.31028 0
M  V30 1960 H 185.56 -5.54758 4.20971 0
M  V30 1961 H 183.187 -5.85268 4.85145 0
M  V30 1962 N 184.763 -0.387143 -1.52771 0
M  V30 1963 C 185.693 0.440551 -2.29306 0
M  V30 1964 C 186.674 1.06535 -1.32606 0
M  V30 1965 O 187.859 1.07853 -1.61497 0
M  V30 1966 C 184.989 1.56919 -3.09829 0
M  V30 1967 C 183.943 1.07054 -4.14395 0
M  V30 1968 C 183.269 2.29109 -4.83129 0
M  V30 1969 C 184.569 0.140015 -5.22112 0
M  V30 1970 H 186.263 -0.198026 -2.98744 0
M  V30 1971 H 183.809 -0.09668 -1.43675 0
M  V30 1972 H 185.762 2.15503 -3.62128 0
M  V30 1973 H 184.486 2.23532 -2.3812 0
M  V30 1974 H 183.145 0.507247 -3.63074 0
M  V30 1975 H 182.793 2.94227 -4.0797 0
M  V30 1976 H 182.493 1.96406 -5.53804 0
M  V30 1977 H 184.017 2.88339 -5.38231 0
M  V30 1978 H 185.431 0.633978 -5.69784 0
M  V30 1979 H 183.828 -0.0971485 -6.00021 0
M  V30 1980 H 184.898 -0.811711 -4.78058 0
M  V30 1981 N 186.241 1.57166 -0.116904 0
M  V30 1982 C 187.204 2.14039 0.819742 0
M  V30 1983 C 188.204 1.07477 1.19605 0
M  V30 1984 O 189.394 1.33263 1.1219 0
M  V30 1985 C 186.526 2.67891 2.10826 0
M  V30 1986 H 187.719 2.98128 0.325511 0
M  V30 1987 H 185.272 1.55739 0.132312 0
M  V30 1988 H 186.007 1.87384 2.64685 0
M  V30 1989 H 185.792 3.45823 1.84793 0
M  V30 1990 H 187.282 3.11809 2.77785 0
M  V30 1991 N 187.719 -0.156864 1.56817 0
M  V30 1992 C 189.135 -0.50916 1.5126 0
M  V30 1993 C 189.335 -1.83897 0.823658 0
M  V30 1994 O 188.391 -2.49469 0.390055 0
M  V30 1995 C 189.704 -0.52857 2.96018 0
M  V30 1996 C 191.252 -0.614771 3.06903 0
M  V30 1997 C 191.727 -0.664938 4.53147 0
M  V30 1998 N 193.218 -0.727433 4.57452 0
M  V30 1999 C 193.953 -0.787067 5.67973 0
M  V30 2000 N 193.449 -0.806649 6.88088 0
M  V30 2001 N 195.242 -0.827195 5.5598 0
M  V30 2002 H 187.393 0.714935 2.00006 0
M  V30 2003 H 189.656 0.259526 0.911784 0
M  V30 2004 H 189.362 0.380154 3.49639 0
M  V30 2005 H 189.236 -1.36998 3.51442 0
M  V30 2006 H 191.623 -1.51392 2.53307 0
M  V30 2007 H 191.704 0.253597 2.5454 0
M  V30 2008 H 191.348 0.230011 5.07379 0
M  V30 2009 H 191.278 -1.54966 5.03282 0
M  V30 2010 H 193.769 -0.719998 3.70978 0
M  V30 2011 H 194.082 -0.853727 7.6807 0
M  V30 2012 H 192.427 -0.774687 6.90669 0
M  V30 2013 H 195.618 -0.808998 4.61056 0
M  V30 2014 H 195.791 -0.870206 6.4213 0
M  V30 2015 N 189.197 -1.51736 -0.425897 0
M  V30 2016 C 190.16 -1.73271 -1.50032 0
M  V30 2017 C 191.16 -0.602639 -1.4908 0
M  V30 2018 O 192.35 -0.87033 -1.509 0
M  V30 2019 C 189.482 -1.79969 -2.89523 0
M  V30 2020 H 190.675 -2.69172 -1.32237 0
M  V30 2021 H 188.228 -1.41899 -0.65532 0
M  V30 2022 H 188.963 -0.859241 -3.1271 0
M  V30 2023 H 188.748 -2.62109 -2.91619 0
M  V30 2024 H 190.238 -1.9843 -3.67444 0
M  V30 2025 N 190.675 0.682077 -1.42076 0
M  V30 2026 C 191.924 1.43786 -1.41451 0
M  V30 2027 C 192.237 1.95574 -0.0317074 0
M  V30 2028 O 193.443 2.71326 0.0971462 0
M  V30 2029 C 191.899 2.60071 -2.48779 0
M  V30 2030 C 191.507 2.15013 -3.93031 0
M  V30 2031 C 193.251 3.37626 -2.57311 0
M  V30 2032 C 191.158 3.28336 -4.91883 0
M  V30 2033 H 190.088 0.540143 -0.526082 0
M  V30 2034 H 192.739 0.739157 -1.67955 0
M  V30 2035 H 191.121 3.32275 -2.15429 0
M  V30 2036 H 192.295 1.5001 -4.35699 0
M  V30 2037 H 190.61 1.50416 -3.88284 0
M  V30 2038 H 193.207 4.22012 -3.28345 0
M  V30 2039 H 193.55 3.83727 -1.61429 0
M  V30 2040 H 194.083 2.72488 -2.89819 0
M  V30 2041 H 190.822 2.87234 -5.89217 0
M  V30 2042 H 190.342 3.92145 -4.53853 0
M  V30 2043 H 192.021 3.93913 -5.13265 0
M  V30 2044 N 192.153 1.28127 0.917671 0
M  V30 2045 C 193.085 1.07517 2.02417 0
M  V30 2046 C 194.098 0.0281099 1.62776 0
M  V30 2047 O 195.287 0.270748 1.76435 0
M  V30 2048 C 192.387 0.610957 3.33347 0
M  V30 2049 C 191.56 1.73255 4.01624 0
M  V30 2050 C 190.619 1.26238 5.10833 0
M  V30 2051 O 189.645 1.96389 5.34247 0
M  V30 2052 N 190.847 0.123448 5.80369 0
M  V30 2053 H 193.612 2.02806 2.20658 0
M  V30 2054 H 191.173 1.19827 1.08871 0
M  V30 2055 H 193.165 0.280101 4.0373 0
M  V30 2056 H 191.735 -0.24898 3.11607 0
M  V30 2057 H 190.955 2.23319 3.24842 0
M  V30 2058 H 192.243 2.48503 4.43986 0
M  V30 2059 H 191.641 -0.461847 5.63812 0
M  V30 2060 H 190.198 -0.148158 6.51632 0
M  V30 2061 N 193.631 -1.12557 1.10312 0
M  V30 2062 C 194.581 -2.16331 0.720076 0
M  V30 2063 C 195.565 -1.58616 -0.270115 0
M  V30 2064 O 196.757 -1.76823 -0.0790507 0
M  V30 2065 C 193.886 -3.42963 0.152113 0
M  V30 2066 C 192.972 -4.07663 1.16927 0
M  V30 2067 N 193.363 -4.47392 2.35953 0
M  V30 2068 C 191.661 -4.34425 1.0095 0
M  V30 2069 C 192.362 -4.97932 3.0073 0
M  V30 2070 N 191.338 -4.93358 2.28252 0
M  V30 2071 H 195.14 -2.44813 1.62616 0
M  V30 2072 H 192.654 -1.29449 0.980654 0
M  V30 2073 H 194.651 -4.16664 -0.14037 0
M  V30 2074 H 193.311 -3.1595 -0.748701 0
M  V30 2075 H 194.322 -4.39802 2.73486 0
M  V30 2076 H 190.999 -4.17177 0.164134 0
M  V30 2077 H 192.389 -5.38397 4.01969 0
M  V30 2078 N 195.109 -0.891671 -1.2995 0
M  V30 2079 C 196.019 -0.367691 -2.31701 0
M  V30 2080 C 197.035 0.533486 -1.6562 0
M  V30 2081 O 198.211 0.424997 -1.96865 0
M  V30 2082 C 195.276 0.403406 -3.44345 0
M  V30 2083 C 194.337 -0.528328 -4.26037 0
M  V30 2084 C 193.57 0.206063 -5.33302 0
M  V30 2085 O 193.793 1.43119 -5.52153 0
M  V30 2086 O 192.727 -0.447281 -6.00236 0
M  V30 2087 H 196.553 -1.21163 -2.78484 0
M  V30 2088 H 194.138 -0.655725 -1.34241 0
M  V30 2089 H 196.02 0.839753 -4.12948 0
M  V30 2090 H 194.695 1.22354 -2.99685 0
M  V30 2091 H 193.602 -1.01362 -3.60106 0
M  V30 2092 H 194.935 -1.31465 -4.74318 0
M  V30 2093 N 196.587 1.43421 -0.653314 0
M  V30 2094 C 197.836 2.01032 -0.164076 0
M  V30 2095 C 198.149 1.52147 1.22926 0
M  V30 2096 O 199.355 2.02031 1.81371 0
M  V30 2097 C 197.811 3.59082 -0.24252 0
M  V30 2098 C 197.419 4.1696 -1.63855 0
M  V30 2099 C 199.163 4.24079 0.18911 0
M  V30 2100 C 197.07 5.67304 -1.67092 0
M  V30 2101 H 196 0.751798 -0.0575769 0
M  V30 2102 H 198.651 1.6439 -0.815362 0
M  V30 2103 H 197.033 3.93125 0.476276 0
M  V30 2104 H 198.207 3.94416 -2.38271 0
M  V30 2105 H 196.522 3.64335 -2.01616 0
M  V30 2106 H 199.119 5.34381 0.184775 0
M  V30 2107 H 199.462 3.98005 1.22056 0
M  V30 2108 H 199.995 3.94918 -0.477938 0
M  V30 2109 H 196.734 5.98145 -2.68146 0
M  V30 2110 H 196.254 5.91904 -0.970014 0
M  V30 2111 H 197.933 6.31344 -1.4147 0
M  V30 2112 N 198.065 0.39524 1.52563 0
M  V30 2113 C 199.342 -0.242908 1.94086 0
M  V30 2114 C 199.722 -1.63841 1.33114 0
M  V30 2115 O 199.07 -2.22928 0.501529 0
M  V30 2116 C 199.28 -0.26327 3.48006 0
M  V30 2117 C 200.628 -0.489354 4.21771 0
M  V30 2118 O 201.652 -0.343226 3.54543 0
M  V30 2119 O 200.511 -0.776169 5.4096 0
M  V30 2120 H 197.605 -0.152536 0.812811 0
M  V30 2121 H 200.151 0.450178 1.6362 0
M  V30 2122 H 198.923 0.713985 3.84731 0
M  V30 2123 H 198.546 -1.00103 3.84792 0
M  V30 2124 N 199.544 -1.57102 0.125237 0
M  V30 2125 C 200.494 -2.12202 -0.833936 0
M  V30 2126 C 201.478 -1.04433 -1.22403 0
M  V30 2127 O 202.67 -1.30655 -1.19408 0
M  V30 2128 C 199.799 -2.72994 -2.08157 0
M  V30 2129 C 198.885 -3.87852 -1.71556 0
M  V30 2130 N 199.276 -4.9464 -1.05662 0
M  V30 2131 C 197.574 -3.98153 -2.00973 0
M  V30 2132 C 198.275 -5.74953 -0.883376 0
M  V30 2133 N 197.251 -5.24985 -1.41036 0
M  V30 2134 H 201.053 -2.92141 -0.321035 0
M  V30 2135 H 198.567 -1.62217 -0.0770315 0
M  V30 2136 H 200.564 -3.10816 -2.77847 0
M  V30 2137 H 199.224 -1.9452 -2.59985 0
M  V30 2138 H 200.235 -5.12872 -0.719878 0
M  V30 2139 H 196.912 -3.30728 -2.54804 0
M  V30 2140 H 198.302 -6.70904 -0.365675 0
M  V30 2141 N 201.022 0.148545 -1.56898 0
M  V30 2142 C 201.952 1.18524 -2.01182 0
M  V30 2143 C 202.933 1.4489 -0.891123 0
M  V30 2144 O 204.118 1.55836 -1.15882 0
M  V30 2145 C 201.248 2.51879 -2.39112 0
M  V30 2146 C 200.202 2.40038 -3.54353 0
M  V30 2147 C 199.528 3.78089 -3.78091 0
M  V30 2148 C 200.828 1.88577 -4.87069 0
M  V30 2149 H 202.522 0.817029 -2.88036 0
M  V30 2150 H 200.068 0.391575 -1.38574 0
M  V30 2151 H 202.021 3.24627 -2.68692 0
M  V30 2152 H 200.745 2.90532 -1.49193 0
M  V30 2153 H 199.404 1.69742 -3.24936 0
M  V30 2154 H 199.052 4.14175 -2.85426 0
M  V30 2155 H 198.752 3.71028 -4.55645 0
M  V30 2156 H 200.276 4.52387 -4.10095 0
M  V30 2157 H 201.69 2.51117 -5.15377 0
M  V30 2158 H 200.087 1.9241 -5.68417 0
M  V30 2159 H 201.157 0.84136 -4.77545 0
M  V30 2160 N 202.5 1.5196 0.417844 0
M  V30 2161 C 203.45 1.7106 1.5074 0
M  V30 2162 C 204.434 0.564487 1.50673 0
M  V30 2163 O 205.626 0.821206 1.56797 0
M  V30 2164 C 202.755 1.85677 2.88754 0
M  V30 2165 C 201.841 3.06133 2.93502 0
M  V30 2166 N 202.232 4.28987 2.67962 0
M  V30 2167 C 200.53 3.05787 3.24669 0
M  V30 2168 C 201.231 5.10395 2.79055 0
M  V30 2169 N 200.207 4.45455 3.11561 0
M  V30 2170 H 204.009 2.63696 1.29775 0
M  V30 2171 H 201.523 1.49873 0.625436 0
M  V30 2172 H 203.52 1.97475 3.67164 0
M  V30 2173 H 202.18 0.942348 3.10725 0
M  V30 2174 H 203.191 4.57607 2.4252 0
M  V30 2175 H 199.868 2.2405 3.52289 0
M  V30 2176 H 201.258 6.18247 2.63097 0
M  V30 2177 N 203.978 -0.674533 1.42435 0
M  V30 2178 C 205.226 -1.43175 1.42637 0
M  V30 2179 C 205.547 -1.94951 0.0438992 0
M  V30 2180 O 204.817 -1.7308 -0.917607 0
M  V30 2181 H 203.397 -0.531307 0.525092 0
M  V30 2182 H 206.059 -0.797006 1.77859 0
M  V30 2183 H 205.155 -2.28463 2.12629 0
M  V30 2184 N 205.456 -1.28612 -0.910864 0
M  V30 2185 C 206.702 -1.16106 -1.66274 0
M  V30 2186 C 207.035 0.289113 -1.92036 0
M  V30 2187 O 206.31 1.21 -1.52281 0
M  V30 2188 C 206.593 -1.96309 -3.01885 0
M  V30 2189 C 206.446 -3.49405 -2.8326 0
M  V30 2190 C 207.765 -1.78076 -4.02463 0
M  V30 2191 H 204.884 -0.423152 -0.603417 0
M  V30 2192 H 207.526 -1.57961 -1.05586 0
M  V30 2193 H 205.676 -1.60742 -3.53687 0
M  V30 2194 H 207.348 -3.94894 -2.38446 0
M  V30 2195 H 205.591 -3.74893 -2.18261 0
M  V30 2196 H 206.262 -4.00784 -3.79574 0
M  V30 2197 H 208.738 -2.0912 -3.59733 0
M  V30 2198 H 207.614 -2.36561 -4.95308 0
M  V30 2199 H 207.875 -0.733008 -4.35981 0
M  V30 2200 N 206.934 1.1197 -1.10907 0
M  V30 2201 C 207.864 2.19928 -0.784473 0
M  V30 2202 C 208.845 1.6833 0.244726 0
M  V30 2203 O 210.03 1.93892 0.109418 0
M  V30 2204 C 207.16 3.46597 -0.220827 0
M  V30 2205 C 206.114 4.11376 -1.18127 0
M  V30 2206 C 205.44 5.32554 -0.478594 0
M  V30 2207 C 206.74 4.56945 -2.52979 0
M  V30 2208 H 208.434 2.47337 -1.68715 0
M  V30 2209 H 205.98 1.18879 -0.812642 0
M  V30 2210 H 207.933 4.21396 0.0184278 0
M  V30 2211 H 206.657 3.1863 0.717113 0
M  V30 2212 H 205.316 3.38564 -1.40606 0
M  V30 2213 H 204.964 5.00856 0.463976 0
M  V30 2214 H 204.664 5.76844 -1.11912 0
M  V30 2215 H 206.188 6.10096 -0.248 0
M  V30 2216 H 207.602 5.23093 -2.3462 0
M  V30 2217 H 205.999 5.1203 -3.12962 0
M  V30 2218 H 207.069 3.70676 -3.12614 0
M  V30 2219 N 208.412 0.89855 1.29475 0
M  V30 2220 C 209.659 0.523882 1.95606 0
M  V30 2221 C 209.987 -0.929608 1.70847 0
M  V30 2222 O 209.242 -1.67401 1.01367 0
M  V30 2223 C 209.541 0.761398 3.49195 0
M  V30 2224 C 209.207 2.19207 3.94029 0
M  V30 2225 C 207.869 2.58326 4.05982 0
M  V30 2226 C 210.221 3.12379 4.17216 0
M  V30 2227 C 207.549 3.898 4.38489 0
M  V30 2228 C 209.901 4.43401 4.51197 0
M  V30 2229 C 208.565 4.82394 4.61359 0
M  V30 2230 H 207.835 0.191702 0.715773 0
M  V30 2231 H 210.482 1.13699 1.54094 0
M  V30 2232 H 208.787 0.0653622 3.91745 0
M  V30 2233 H 210.484 0.450904 3.98457 0
M  V30 2234 H 207.074 1.87846 3.85242 0
M  V30 2235 H 211.258 2.83371 4.07449 0
M  V30 2236 H 206.514 4.19734 4.44559 0
M  V30 2237 H 210.688 5.15623 4.68087 0
M  V30 2238 H 208.315 5.84306 4.86303 0
M  V30 2239 N 209.89 -1.43072 0.660911 0
M  V30 2240 C 211.118 -2.06067 0.185422 0
M  V30 2241 C 211.533 -1.49582 -1.15198 0
M  V30 2242 O 210.89 -0.630134 -1.71276 0
M  V30 2243 C 210.941 -3.61371 0.0966523 0
M  V30 2244 O 210.662 -4.15758 1.38119 0
M  V30 2245 C 212.163 -4.41455 -0.403996 0
M  V30 2246 H 209.383 -0.664459 0.0934604 0
M  V30 2247 H 211.927 -1.83447 0.90373 0
M  V30 2248 H 210.082 -3.8315 -0.572259 0
M  V30 2249 H 210.496 -5.09499 1.24542 0
M  V30 2250 H 211.97 -5.50437 -0.415045 0
M  V30 2251 H 212.447 -4.15036 -1.43674 0
M  V30 2252 H 213.053 -4.24663 0.232691 0
M  V30 2253 N 211.368 -0.403325 -1.52352 0
M  V30 2254 C 212.593 0.176499 -2.06648 0
M  V30 2255 C 213.018 1.38577 -1.27193 0
M  V30 2256 O 212.376 1.7879 -0.300637 0
M  V30 2257 C 212.424 0.511061 -3.5696 0
M  V30 2258 O 211.528 1.60294 -3.79973 0
M  V30 2259 H 210.869 0.0167337 -0.663789 0
M  V30 2260 H 213.399 -0.574848 -1.96359 0
M  V30 2261 H 213.409 0.771362 -4.00642 0
M  V30 2262 H 212.084 -0.37296 -4.14224 0
M  V30 2263 H 210.661 1.33526 -3.48174 0
M  V30 2264 N 212.846 1.57033 -0.133567 0
M  V30 2265 C 213.793 2.16074 0.811208 0
M  V30 2266 C 214.763 1.08979 1.2535 0
M  V30 2267 O 215.948 1.36958 1.32843 0
M  V30 2268 C 213.088 2.77595 2.05024 0
M  V30 2269 C 212.201 3.99042 1.65498 0
M  V30 2270 C 211.336 4.48603 2.84479 0
M  V30 2271 C 210.375 5.62547 2.41262 0
M  V30 2272 N 209.512 6.06787 3.53206 0
M  V30 2273 H 214.352 2.96477 0.300906 0
M  V30 2274 H 211.889 1.46462 0.136822 0
M  V30 2275 H 213.847 3.11402 2.77642 0
M  V30 2276 H 212.477 1.99859 2.53488 0
M  V30 2277 H 211.529 3.71302 0.826981 0
M  V30 2278 H 212.841 4.81629 1.29748 0
M  V30 2279 H 211.995 4.84395 3.65303 0
M  V30 2280 H 210.734 3.64995 3.23465 0
M  V30 2281 H 209.739 5.26345 1.58874 0
M  V30 2282 H 210.964 6.47931 2.03377 0
M  V30 2283 H 208.91 5.26117 3.91838 0
M  V30 2284 H 208.827 6.84266 3.21427 0
M  V30 2285 H 210.095 6.4722 4.34427 0
M  V30 2286 N 214.325 -0.140222 1.56975 0
M  V30 2287 C 215.571 -0.852949 1.83991 0
M  V30 2288 C 215.904 -1.80512 0.716187 0
M  V30 2289 O 215.179 -1.92479 -0.279681 0
M  V30 2290 C 215.462 -1.6215 3.21527 0
M  V30 2291 C 215.315 -0.690363 4.4447 0
M  V30 2292 C 216.634 -2.58247 3.56366 0
M  V30 2293 H 213.753 -0.308634 0.669264 0
M  V30 2294 H 216.395 -0.117898 1.89634 0
M  V30 2295 H 214.545 -2.24812 3.16847 0
M  V30 2296 H 216.217 -0.0742264 4.6124 0
M  V30 2297 H 214.46 -0.000396433 4.338 0
M  V30 2298 H 215.131 -1.2643 5.37326 0
M  V30 2299 H 217.607 -2.05701 3.61699 0
M  V30 2300 H 216.483 -3.09067 4.53617 0
M  V30 2301 H 216.744 -3.39923 2.82674 0
M  V30 2302 N 215.803 -1.52179 -0.40978 0
M  V30 2303 C 217.031 -1.70054 -1.17853 0
M  V30 2304 C 217.446 -0.409735 -1.843 0
M  V30 2305 O 216.803 0.614183 -1.71855 0
M  V30 2306 C 216.854 -2.83568 -2.24213 0
M  V30 2307 O 216.575 -4.0765 -1.60478 0
M  V30 2308 C 218.076 -3.12947 -3.13973 0
M  V30 2309 H 215.296 -0.569917 -0.354169 0
M  V30 2310 H 217.84 -1.98734 -0.482198 0
M  V30 2311 H 215.995 -2.57409 -2.89516 0
M  V30 2312 H 216.409 -4.70899 -2.30986 0
M  V30 2313 H 217.883 -3.95889 -3.84677 0
M  V30 2314 H 218.36 -2.26472 -3.76307 0
M  V30 2315 H 218.966 -3.40868 -2.5434 0
M  V30 2316 N 217.281 0.66697 -1.42791 0
M  V30 2317 C 218.697 0.981027 -1.25889 0
M  V30 2318 C 218.897 2.00793 -0.168695 0
M  V30 2319 O 217.953 2.48321 0.45747 0
M  V30 2320 C 219.266 1.47838 -2.61848 0
M  V30 2321 C 220.814 1.59575 -2.69267 0
M  V30 2322 C 221.289 2.12704 -4.05612 0
M  V30 2323 N 222.78 2.20026 -4.07606 0
M  V30 2324 C 223.515 2.62227 -5.09926 0
M  V30 2325 N 223.011 3.03824 -6.22626 0
M  V30 2326 N 224.804 2.62045 -4.97281 0
M  V30 2327 H 216.955 -0.0127891 -2.12396 0
M  V30 2328 H 219.218 0.0568258 -0.946295 0
M  V30 2329 H 218.924 0.798299 -3.4252 0
M  V30 2330 H 218.798 2.45579 -2.86305 0
M  V30 2331 H 221.185 2.26687 -1.88936 0
M  V30 2332 H 221.266 0.60302 -2.48591 0
M  V30 2333 H 220.91 1.46198 -4.86404 0
M  V30 2334 H 220.84 3.12782 -4.23645 0
M  V30 2335 H 223.331 1.90708 -3.2625 0
M  V30 2336 H 223.644 3.34734 -6.96544 0
M  V30 2337 H 221.989 3.01662 -6.26119 0
M  V30 2338 H 225.18 2.28916 -4.08308 0
M  V30 2339 H 225.353 2.94613 -5.77154 0
M  V30 2340 N 218.759 1.29093 0.90403 0
M  V30 2341 C 219.989 1.19516 1.68522 0
M  V30 2342 C 220.397 -0.24738 1.87576 0
M  V30 2343 O 219.74 -1.17798 1.40959 0
M  V30 2344 C 219.802 1.83249 3.0929 0
M  V30 2345 C 219.466 3.32531 3.13484 0
M  V30 2346 C 220.463 4.28821 2.93953 0
M  V30 2347 C 218.148 3.73656 3.35688 0
M  V30 2348 C 220.142 5.64212 2.96553 0
M  V30 2349 C 217.829 5.0917 3.37919 0
M  V30 2350 C 218.827 6.04258 3.18373 0
M  V30 2351 O 218.515 7.37298 3.20385 0
M  V30 2352 H 218.247 0.415467 0.533257 0
M  V30 2353 H 220.801 1.70912 1.13922 0
M  V30 2354 H 219.031 1.26358 3.65473 0
M  V30 2355 H 220.72 1.68054 3.69476 0
M  V30 2356 H 221.486 3.98382 2.76616 0
M  V30 2357 H 217.365 3.00101 3.49943 0
M  V30 2358 H 220.909 6.38407 2.81216 0
M  V30 2359 H 216.806 5.39256 3.54787 0
M  V30 2360 H 217.574 7.46048 3.36681 0
M  V30 2361 N 220.237 -1.11381 1.11499 0
M  V30 2362 C 221.467 -1.86663 0.885464 0
M  V30 2363 C 221.875 -1.80464 -0.568281 0
M  V30 2364 O 221.218 -1.18445 -1.40415 0
M  V30 2365 C 221.28 -3.36337 1.26956 0
M  V30 2366 C 220.944 -3.66304 2.73259 0
M  V30 2367 C 221.941 -3.63733 3.71476 0
M  V30 2368 C 219.626 -3.9529 3.09921 0
M  V30 2369 C 221.62 -3.89725 5.04374 0
M  V30 2370 C 219.307 -4.20941 4.43004 0
M  V30 2371 C 220.305 -4.18147 5.40039 0
M  V30 2372 O 219.993 -4.43153 6.70724 0
M  V30 2373 H 219.725 -0.597114 0.316908 0
M  V30 2374 H 222.279 -1.41782 1.48617 0
M  V30 2375 H 220.509 -3.81826 0.611999 0
M  V30 2376 H 222.198 -3.92986 1.01573 0
M  V30 2377 H 222.964 -3.41389 3.44498 0
M  V30 2378 H 218.843 -3.966 2.35009 0
M  V30 2379 H 222.387 -3.8746 5.80104 0
M  V30 2380 H 218.284 -4.42761 4.69716 0
M  V30 2381 H 219.052 -4.60717 6.76522 0
M  V30 2382 N 221.715 -0.905404 -1.28997 0
M  V30 2383 C 222.625 -0.392246 -2.31298 0
M  V30 2384 C 223.641 0.515889 -1.66176 0
M  V30 2385 O 224.817 0.404093 -1.97304 0
M  V30 2386 C 221.882 0.36686 -3.44754 0
M  V30 2387 C 220.943 -0.573485 -4.25452 0
M  V30 2388 C 220.176 0.149488 -5.33491 0
M  V30 2389 O 220.399 1.37255 -5.5364 0
M  V30 2390 O 219.333 -0.510919 -5.99728 0
M  V30 2391 H 223.159 -1.2411 -2.77183 0
M  V30 2392 H 220.744 -0.669926 -1.33538 0
M  V30 2393 H 222.626 0.795907 -4.13816 0
M  V30 2394 H 221.301 1.19169 -3.00966 0
M  V30 2395 H 220.208 -1.05176 -3.59011 0
M  V30 2396 H 221.541 -1.36489 -4.72897 0
M  V30 2397 N 223.193 1.4272 -0.668489 0
M  V30 2398 C 224.103 2.34596 0.0139753 0
M  V30 2399 C 225.119 1.5474 0.795703 0
M  V30 2400 O 226.295 1.87334 0.739466 0
M  V30 2401 C 223.36 3.33202 0.957982 0
M  V30 2402 C 222.421 4.28957 0.17149 0
M  V30 2403 C 221.654 5.22853 1.07053 0
M  V30 2404 O 221.877 5.21531 2.31001 0
M  V30 2405 O 220.811 5.9952 0.534727 0
M  V30 2406 H 224.637 2.9448 -0.742661 0
M  V30 2407 H 222.222 1.43117 -0.428705 0
M  V30 2408 H 224.104 3.93796 1.50008 0
M  V30 2409 H 222.779 2.758 1.69458 0
M  V30 2410 H 221.686 3.71796 -0.414558 0
M  V30 2411 H 223.019 4.89383 -0.52586 0
M  V30 2412 N 224.671 0.411399 1.52136 0
M  V30 2413 C 225.619 -0.427633 2.28635 0
M  V30 2414 C 226.613 -1.04383 1.33419 0
M  V30 2415 O 227.819 -0.981772 1.50868 0
M  V30 2416 H 224.194 -0.156689 0.735495 0
M  V30 2417 H 226.165 0.238761 2.97443 0
M  V30 2418 C 224.914 -1.53082 3.12188 0
M  V30 2419 H 224.237 -1.06601 3.85326 0
M  V30 2420 H 225.677 -2.09167 3.68816 0
M  V30 2421 C 224.136 -2.49946 2.25895 0
M  V30 2422 O 224.666 -3.53884 1.90076 0
M  V30 2423 N 222.872 -2.2021 1.8962 0
M  V30 2424 H 222.419 -1.35719 2.18948 0
M  V30 2425 H 222.377 -2.85266 1.32176 0
M  V30 2426 N 226.149 -1.5696 0.141893 0
M  V30 2427 C 227.059 -2.20066 -0.812905 0
M  V30 2428 C 228.075 -1.18344 -1.27557 0
M  V30 2429 O 229.251 -1.50902 -1.33381 0
M  V30 2430 C 226.316 -2.80583 -2.03652 0
M  V30 2431 C 225.377 -3.97414 -1.62359 0
M  V30 2432 C 224.61 -4.55036 -2.78887 0
M  V30 2433 O 224.833 -4.11538 -3.94959 0
M  V30 2434 O 223.767 -5.45376 -2.54653 0
M  V30 2435 H 227.593 -3.02157 -0.305746 0
M  V30 2436 H 225.178 -1.49159 -0.0848799 0
M  V30 2437 H 227.06 -3.19067 -2.75272 0
M  V30 2438 H 225.735 -2.01508 -2.5333 0
M  V30 2439 H 224.642 -3.63656 -0.877775 0
M  V30 2440 H 225.975 -4.77994 -1.17401 0
M  V30 2441 N 227.627 0.131896 -1.57047 0
M  V30 2442 C 228.557 1.16384 -2.02428 0
M  V30 2443 C 229.538 1.43936 -0.90644 0
M  V30 2444 O 230.723 1.54599 -1.17528 0
M  V30 2445 C 227.853 2.49328 -2.4177 0
M  V30 2446 C 226.807 2.36266 -3.56879 0
M  V30 2447 C 226.133 3.74057 -3.8208 0
M  V30 2448 C 227.433 1.834 -4.89042 0
M  V30 2449 H 229.127 0.786433 -2.88887 0
M  V30 2450 H 226.673 0.376855 -1.38981 0
M  V30 2451 H 228.626 3.21759 -2.7212 0
M  V30 2452 H 227.35 2.88934 -1.52266 0
M  V30 2453 H 226.009 1.66286 -3.26718 0
M  V30 2454 H 225.657 4.11125 -2.89803 0
M  V30 2455 H 225.357 3.66174 -4.59554 0
M  V30 2456 H 226.881 4.48012 -4.1487 0
M  V30 2457 H 228.295 2.45636 -5.18011 0
M  V30 2458 H 226.692 1.8637 -5.70426 0
M  V30 2459 H 227.762 0.790662 -4.7841 0
M  V30 2460 N 229.106 1.52395 0.401703 0
M  V30 2461 C 230.016 1.7917 1.51444 0
M  V30 2462 C 231.032 0.677691 1.6026 0
M  V30 2463 O 232.208 0.963909 1.76835 0
M  V30 2464 C 229.273 1.94347 2.87107 0
M  V30 2465 C 228.334 3.18257 2.88116 0
M  V30 2466 C 227.567 3.32701 4.17308 0
M  V30 2467 O 227.79 2.52238 5.11598 0
M  V30 2468 O 226.724 4.25891 4.25324 0
M  V30 2469 H 230.55 2.73633 1.31752 0
M  V30 2470 H 228.135 1.3733 0.588296 0
M  V30 2471 H 230.017 2.06109 3.67555 0
M  V30 2472 H 228.692 1.03073 3.06851 0
M  V30 2473 H 227.599 3.11947 2.06494 0
M  V30 2474 H 228.932 4.09336 2.73322 0
M  V30 2475 O 230.623 -0.547609 1.51933 0
M  V30 2476 H 231.314 -1.20275 1.51834 0
M  V30 END ATOM
M  V30 BEGIN BOND
M  V30 END BOND
M  V30 END CTAB
M  END
$$$$
