drugbank_target|P05165 Propionyl-CoA carboxylase alpha chain, mitochondrial (DB00121)
 OpenBabel12092119333D

  0  0  0     0  0            999 V3000
M  V30 BEGIN CTAB
M  V30 COUNTS 11289 11386 0 0 0
M  V30 BEGIN ATOM
M  V30 1 H -0.908 1.98254 -0.117106 0
M  V30 2 N 0 1.576 0 0
M  V30 3 C 0.933 2.03868 1.02534 0
M  V30 4 C 1.911 0.928543 1.3348 0
M  V30 5 O 3.095 1.19667 1.45644 0
M  V30 6 C 0.222 2.43627 2.35294 0
M  V30 7 C -0.732 3.65373 2.2001 0
M  V30 8 S 0.101 5.13292 1.52614 0
M  V30 9 C 1.257 5.56322 2.86805 0
M  V30 10 H 1.49 2.90518 0.631377 0
M  V30 11 H -0.977 1.52953 0.210867 0
M  V30 12 H 0.981 2.67203 3.11629 0
M  V30 13 H -0.358 1.57376 2.7183 0
M  V30 14 H -1.165 3.90944 3.18086 0
M  V30 15 H -1.563 3.418 1.51819 0
M  V30 16 H 0.729 5.58782 3.83104 0
M  V30 17 H 1.672 6.56266 2.65933 0
M  V30 18 H 2.08 4.83886 2.90714 0
M  V30 19 N 1.4781 -0.272755 1.55222 0
M  V30 20 C 2.4411 -1.32041 1.87344 0
M  V30 21 C 3.4411 -1.42342 0.74803 0
M  V30 22 O 4.6311 -1.41488 1.0162 0
M  V30 23 C 1.7631 -2.70173 2.07893 0
M  V30 24 H 2.9561 -1.04789 2.80997 0
M  V30 25 H 0.5091 -0.51083 1.47717 0
M  V30 26 H 1.2441 -3.02605 1.16622 0
M  V30 27 H 1.0291 -2.64082 2.89833 0
M  V30 28 H 2.5191 -3.45869 2.34017 0
M  V30 29 N 2.9562 -1.48159 -0.537278 0
M  V30 30 C 4.2042 -1.55497 -1.29094 0
M  V30 31 C 4.5252 -0.227454 -1.93669 0
M  V30 32 O 3.7952 0.750386 -1.80959 0
M  V30 33 H 2.3752 -0.572832 -0.47945 0
M  V30 34 H 5.0372 -1.84579 -0.625818 0
M  V30 35 H 4.1332 -2.33216 -2.07405 0
M  V30 36 N 4.4343 0.785586 -1.36625 0
M  V30 37 C 5.6813 1.54362 -1.31067 0
M  V30 38 C 6.0093 1.94195 0.10893 0
M  V30 39 O 5.2643 1.63262 1.07908 0
M  V30 40 C 5.5633 2.83007 -2.1827 0
M  V30 41 C 5.2293 2.62294 -3.6676 0
M  V30 42 C 3.8913 2.56353 -4.0723 0
M  V30 43 C 6.2433 2.43371 -4.6089 0
M  V30 44 C 3.5713 2.29461 -5.39967 0
M  V30 45 C 5.9233 2.18005 -5.93849 0
M  V30 46 C 4.5873 2.105 -6.3344 0
M  V30 47 H 3.8573 0.564851 -0.479609 0
M  V30 48 H 6.5043 0.906028 -1.68711 0
M  V30 49 H 4.8093 3.51253 -1.73576 0
M  V30 50 H 6.5063 3.40817 -2.11292 0
M  V30 51 H 3.0963 2.67774 -3.34656 0
M  V30 52 H 7.2803 2.46959 -4.30494 0
M  V30 53 H 2.5363 2.22135 -5.69619 0
M  V30 54 H 6.7103 2.02359 -6.66351 0
M  V30 55 H 4.3373 1.89425 -7.36222 0
M  V30 56 N 5.9124 1.20967 1.01018 0
M  V30 57 C 7.1584 1.0353 1.7508 0
M  V30 58 C 7.5134 -0.42734 1.87594 0
M  V30 59 O 6.8064 -1.31298 1.3954 0
M  V30 60 C 7.0004 1.65997 3.16512 0
M  V30 61 C 6.8294 3.18184 3.17788 0
M  V30 62 C 5.5994 3.87198 3.24662 0
M  V30 63 C 7.7974 4.15334 3.03319 0
M  V30 64 N 5.7794 5.26618 3.15509 0
M  V30 65 C 7.1504 5.41472 3.02007 0
M  V30 66 C 9.2054 4.06449 2.87583 0
M  V30 67 C 7.9084 6.5975 2.86571 0
M  V30 68 C 9.9344 5.24357 2.73503 0
M  V30 69 C 9.2964 6.49404 2.72862 0
M  V30 70 H 5.3954 0.433137 0.651089 0
M  V30 71 H 7.9794 1.5324 1.20107 0
M  V30 72 H 6.1504 1.18863 3.69765 0
M  V30 73 H 7.8824 1.41816 3.79039 0
M  V30 74 H 4.6374 3.38093 3.31648 0
M  V30 75 H 5.0614 5.99626 3.14289 0
M  V30 76 H 9.7034 3.10573 2.86887 0
M  V30 77 H 7.4214 7.55792 2.86015 0
M  V30 78 H 11.0074 5.19299 2.62334 0
M  V30 79 H 9.8874 7.39105 2.62093 0
M  V30 80 N 7.3905 -1.2043 1.01659 0
M  V30 81 C 8.6365 -1.90079 0.706963 0
M  V30 82 C 8.9695 -1.78648 -0.761474 0
M  V30 83 O 8.2445 -1.17069 -1.55323 0
M  V30 84 C 8.5275 -3.41469 1.14327 0
M  V30 85 C 8.3805 -3.61833 2.67201 0
M  V30 86 C 9.6995 -4.34261 0.714529 0
M  V30 87 H 6.8185 -0.690254 0.2583 0
M  V30 88 H 9.4605 -1.41826 1.26433 0
M  V30 89 H 7.6105 -3.82696 0.669056 0
M  V30 90 H 9.2825 -3.2986 3.22475 0
M  V30 91 H 7.5255 -3.05304 3.08175 0
M  V30 92 H 8.1965 -4.67955 2.92783 0
M  V30 93 H 10.6725 -4.00682 1.12221 0
M  V30 94 H 9.5485 -5.38806 1.04784 0
M  V30 95 H 9.8095 -4.40431 -0.383799 0
M  V30 96 N 8.8686 -0.792821 -1.36206 0
M  V30 97 C 10.1166 -0.366062 -1.98757 0
M  V30 98 C 10.4376 1.0668 -1.63231 0
M  V30 99 O 9.7076 1.73587 -0.907978 0
M  V30 100 H 8.2876 -0.132364 -0.735179 0
M  V30 101 H 10.9496 -1.01562 -1.66347 0
M  V30 102 H 10.0456 -0.460638 -3.08682 0
M  V30 103 N 10.3467 1.47872 -0.545128 0
M  V30 104 C 11.5747 2.06889 -0.021084 0
M  V30 105 C 11.9897 1.39955 1.2672 0
M  V30 106 O 11.3467 0.492036 1.75742 0
M  V30 107 C 11.3977 3.60996 0.190817 0
M  V30 108 O 11.1187 4.25419 -1.04644 0
M  V30 109 C 12.6197 4.36849 0.753521 0
M  V30 110 H 9.8397 0.669785 -0.0403635 0
M  V30 111 H 12.3837 1.90049 -0.755095 0
M  V30 112 H 10.5387 3.77391 0.87492 0
M  V30 113 H 10.9527 5.17785 -0.836611 0
M  V30 114 H 12.4267 5.45399 0.851139 0
M  V30 115 H 12.9037 4.02306 1.762 0
M  V30 116 H 13.5097 4.25169 0.105503 0
M  V30 117 N 11.8248 0.280983 1.55075 0
M  V30 118 C 12.7878 -0.590896 2.21452 0
M  V30 119 C 13.7878 -1.07682 1.19421 0
M  V30 120 O 14.9778 -0.97605 1.44288 0
M  V30 121 C 12.1098 -1.81587 2.88511 0
M  V30 122 H 13.3028 -0.0112554 2.99898 0
M  V30 123 H 10.8558 0.0316438 1.56268 0
M  V30 124 H 11.5908 -2.43587 2.14093 0
M  V30 125 H 11.3758 -1.4753 3.63287 0
M  V30 126 H 12.8658 -2.43575 3.39206 0
M  V30 127 N 13.3029 -1.57598 0.00835791 0
M  V30 128 C 14.7139 -1.7892 -0.53333 0
M  V30 129 C 15.0649 -0.916609 -1.73473 0
M  V30 130 O 14.1899 -0.121336 -2.1606 0
M  V30 131 C 14.7849 -3.24488 -0.974313 0
M  V30 132 C 13.3439 -3.46878 -1.46125 0
M  V30 133 C 12.4909 -2.74157 -0.416302 0
M  V30 134 H 15.4419 -1.56958 0.234495 0
M  V30 135 H 15.4629 -3.3306 -1.83988 0
M  V30 136 H 14.9749 -3.87972 -0.099718 0
M  V30 137 H 13.0759 -2.8862 -2.35646 0
M  V30 138 H 13.1889 -4.55572 -1.48295 0
M  V30 139 H 11.5529 -2.39022 -0.87981 0
M  V30 140 H 12.3359 -3.40345 0.44947 0
M  V30 141 N 14.781 0.264519 -1.55364 0
M  V30 142 C 15.711 1.33121 -1.91836 0
M  V30 143 C 16.692 1.51101 -0.781192 0
M  V30 144 O 17.877 1.64003 -1.04003 0
M  V30 145 C 15.007 2.68921 -2.19769 0
M  V30 146 C 13.961 2.65661 -3.35571 0
M  V30 147 C 13.287 4.05093 -3.49004 0
M  V30 148 C 14.587 2.24187 -4.71739 0
M  V30 149 H 16.281 1.02844 -2.81182 0
M  V30 150 H 13.827 0.493286 -1.35287 0
M  V30 151 H 15.78 3.43663 -2.43872 0
M  V30 152 H 14.504 3.00799 -1.27231 0
M  V30 153 H 13.163 1.93377 -3.1145 0
M  V30 154 H 12.811 4.34206 -2.53917 0
M  V30 155 H 12.511 4.03804 -4.26868 0
M  V30 156 H 14.035 4.81561 -3.75408 0
M  V30 157 H 15.449 2.88654 -4.9533 0
M  V30 158 H 13.846 2.34044 -5.52579 0
M  V30 159 H 14.916 1.19327 -4.69988 0
M  V30 160 N 16.2591 1.48442 0.529413 0
M  V30 161 C 17.5051 1.5672 1.28711 0
M  V30 162 C 17.8381 0.2406 1.92704 0
M  V30 163 O 17.1131 -0.753454 1.79313 0
M  V30 164 C 17.3961 2.70587 2.37603 0
M  V30 165 C 17.2491 4.12953 1.78297 0
M  V30 166 C 18.5681 2.80212 3.39366 0
M  V30 167 H 15.6871 0.570474 0.466613 0
M  V30 168 H 18.3291 1.80617 0.589706 0
M  V30 169 H 16.4791 2.50342 2.97088 0
M  V30 170 H 18.1511 4.44639 1.22858 0
M  V30 171 H 16.3941 4.19927 1.0883 0
M  V30 172 H 17.0651 4.88448 2.57144 0
M  V30 173 H 19.5411 2.98553 2.89836 0
M  V30 174 H 18.4171 3.61611 4.12951 0
M  V30 175 H 18.6781 1.88393 3.99951 0
M  V30 176 N 17.7372 -0.778329 1.37039 0
M  V30 177 C 18.7002 -1.87301 1.32102 0
M  V30 178 C 19.7002 -1.59198 0.226405 0
M  V30 179 O 20.8902 -1.67403 0.481861 0
M  V30 180 C 18.0222 -3.24309 1.05055 0
M  V30 181 H 19.2152 -1.93093 2.29467 0
M  V30 182 H 16.7682 -0.977358 1.21973 0
M  V30 183 H 17.5032 -3.24196 0.0819373 0
M  V30 184 H 17.2882 -3.46098 1.84279 0
M  V30 185 H 18.7782 -4.04382 1.04234 0
M  V30 186 N 19.2153 -1.21501 -1.00376 0
M  V30 187 C 20.1783 -0.976927 -2.07337 0
M  V30 188 C 21.1783 0.0525322 -1.60714 0
M  V30 189 O 22.3683 -0.184869 -1.73216 0
M  V30 190 C 19.5003 -0.473423 -3.37597 0
M  V30 191 H 20.6933 -1.92587 -2.29892 0
M  V30 192 H 18.2463 -1.03217 -1.17371 0
M  V30 193 H 18.9813 0.480379 -3.20722 0
M  V30 194 H 18.7663 -1.216 -3.72768 0
M  V30 195 H 20.2563 -0.32675 -4.1632 0
M  V30 196 N 20.6934 1.19889 -1.02296 0
M  V30 197 C 21.9414 1.89046 -0.714558 0
M  V30 198 C 22.2624 1.79636 0.758681 0
M  V30 199 O 21.5324 1.20292 1.54618 0
M  V30 200 H 20.1124 0.699802 -0.261317 0
M  V30 201 H 22.7744 1.45574 -1.29592 0
M  V30 202 H 21.8704 2.95524 -1.0036 0
M  V30 203 N 22.1715 0.800033 1.35784 0
M  V30 204 C 23.5875 0.482977 1.52117 0
M  V30 205 C 23.7875 -0.996948 1.75109 0
M  V30 206 O 22.8435 -1.78216 1.78872 0
M  V30 207 C 24.1565 1.32264 2.70049 0
M  V30 208 C 25.7045 1.31742 2.83924 0
M  V30 209 C 26.1795 2.14106 4.04874 0
M  V30 210 N 27.6705 2.11607 4.12039 0
M  V30 211 C 28.4055 2.72099 5.04727 0
M  V30 212 N 27.9015 3.41492 6.02789 0
M  V30 213 N 29.6945 2.61776 4.97423 0
M  V30 214 H 21.8455 1.75856 1.19115 0
M  V30 215 H 24.1085 0.748122 0.582252 0
M  V30 216 H 23.8145 2.37261 2.59616 0
M  V30 217 H 23.6885 0.971303 3.6448 0
M  V30 218 H 26.0755 0.275333 2.93813 0
M  V30 219 H 26.1565 1.70859 1.9037 0
M  V30 220 H 25.8005 3.18351 3.95746 0
M  V30 221 H 25.7305 1.72353 4.97596 0
M  V30 222 H 28.2215 1.61112 3.41835 0
M  V30 223 H 28.5345 3.84953 6.70098 0
M  V30 224 H 26.8795 3.45596 6.02983 0
M  V30 225 H 30.0705 2.07157 4.19766 0
M  V30 226 H 30.2435 3.0921 5.69468 0
M  V30 227 N 23.6496 -1.47581 0.552962 0
M  V30 228 C 25.0656 -1.5818 0.212424 0
M  V30 229 C 25.2656 -1.55213 -1.28496 0
M  V30 230 O 24.3216 -1.45329 -2.06484 0
M  V30 231 C 25.6346 -2.88865 0.835318 0
M  V30 232 C 27.1826 -3.0244 0.806156 0
M  V30 233 C 27.6576 -4.35819 1.40804 0
M  V30 234 N 29.1486 -4.42444 1.37103 0
M  V30 235 C 29.8836 -5.44202 1.80641 0
M  V30 236 N 29.3796 -6.52795 2.32015 0
M  V30 237 N 31.1726 -5.35222 1.71738 0
M  V30 238 H 23.3236 -1.47753 1.52587 0
M  V30 239 H 25.5866 -0.702941 0.636064 0
M  V30 240 H 25.2926 -2.9676 1.88749 0
M  V30 241 H 25.1666 -3.7579 0.325848 0
M  V30 242 H 27.5536 -2.94144 -0.237317 0
M  V30 243 H 27.6346 -2.17068 1.35334 0
M  V30 244 H 27.2786 -4.44871 2.45056 0
M  V30 245 H 27.2086 -5.19916 0.836338 0
M  V30 246 H 29.6996 -3.6456 0.995202 0
M  V30 247 H 30.0126 -7.26609 2.63171 0
M  V30 248 H 28.3576 -6.53696 2.36023 0
M  V30 249 H 31.5486 -4.49284 1.31382 0
M  V30 250 H 31.7216 -6.14389 2.05987 0
M  V30 251 N 25.1277 -0.289203 -1.54924 0
M  V30 252 C 26.3757 0.322879 -1.99504 0
M  V30 253 C 26.6967 1.55313 -1.1791 0
M  V30 254 O 25.9667 1.94001 -0.272097 0
M  V30 255 H 24.5467 0.122291 -0.736922 0
M  V30 256 H 27.2087 -0.397802 -1.90797 0
M  V30 257 H 26.3047 0.603061 -3.06218 0
M  V30 258 N 26.6058 1.57591 -0.0167156 0
M  V30 259 C 28.0218 1.55946 0.339557 0
M  V30 260 C 28.2218 1.02109 1.73713 0
M  V30 261 O 27.2778 0.662303 2.43659 0
M  V30 262 C 28.5908 3.00037 0.199499 0
M  V30 263 C 30.1388 3.11805 0.273193 0
M  V30 264 C 30.6138 4.57713 0.162068 0
M  V30 265 N 32.1048 4.6268 0.219444 0
M  V30 266 C 32.8398 5.73185 0.157054 0
M  V30 267 N 32.3358 6.92786 0.0442936 0
M  V30 268 N 34.1288 5.61707 0.21014 0
M  V30 269 H 26.2798 1.90921 -0.930758 0
M  V30 270 H 28.5428 0.877674 -0.358319 0
M  V30 271 H 28.2488 3.4333 -0.76273 0
M  V30 272 H 28.1228 3.64387 0.974786 0
M  V30 273 H 30.5098 2.68433 1.22587 0
M  V30 274 H 30.5908 2.50201 -0.532256 0
M  V30 275 H 30.2348 5.01763 -0.78714 0
M  V30 276 H 30.1648 5.17283 0.986222 0
M  V30 277 H 32.6558 3.76649 0.307246 0
M  V30 278 H 32.9688 7.728 0.00304069 0
M  V30 279 H 31.3138 6.94999 0.00968457 0
M  V30 280 H 34.5048 4.6716 0.296546 0
M  V30 281 H 34.6778 6.47807 0.158054 0
M  V30 282 N 28.0839 -0.256276 1.55502 0
M  V30 283 C 29.3299 -0.982884 1.78076 0
M  V30 284 C 29.6849 -1.83319 0.584109 0
M  V30 285 O 28.9779 -1.86875 -0.422877 0
M  V30 286 C 29.1719 -1.88432 3.03691 0
M  V30 287 C 29.0009 -1.12276 4.35459 0
M  V30 288 C 27.7709 -0.831647 4.98409 0
M  V30 289 C 29.9689 -0.504933 5.11815 0
M  V30 290 N 27.9509 -0.0450423 6.13883 0
M  V30 291 C 29.3219 0.146696 6.19826 0
M  V30 292 C 31.3769 -0.414455 4.96172 0
M  V30 293 C 30.0799 0.880103 7.13895 0
M  V30 294 C 32.1059 0.305398 5.90611 0
M  V30 295 C 31.4679 0.945701 6.98023 0
M  V30 296 H 27.5669 -0.341084 0.703694 0
M  V30 297 H 30.1509 -0.256909 1.92998 0
M  V30 298 H 28.3219 -2.58241 2.90114 0
M  V30 299 H 30.0539 -2.54579 3.14598 0
M  V30 300 H 26.8089 -1.14111 4.59647 0
M  V30 301 H 27.2329 0.336079 6.76165 0
M  V30 302 H 31.8749 -0.895163 4.13215 0
M  V30 303 H 29.5929 1.37244 7.9636 0
M  V30 304 H 33.1789 0.375946 5.80584 0
M  V30 305 H 32.0589 1.49383 7.6984 0
M  V30 306 N 29.562 -1.4872 -0.521534 0
M  V30 307 C 30.973 -1.50607 -1.10337 0
M  V30 308 C 31.324 -0.280612 -1.94183 0
M  V30 309 O 30.449 0.611507 -2.0758 0
M  V30 310 C 31.044 -2.72903 -2.00772 0
M  V30 311 C 29.603 -2.77634 -2.54158 0
M  V30 312 C 28.75 -2.44241 -1.31307 0
M  V30 313 H 31.701 -1.55714 -0.306388 0
M  V30 314 H 31.722 -2.519 -2.85178 0
M  V30 315 H 31.234 -3.62077 -1.39721 0
M  V30 316 H 29.335 -1.92689 -3.18907 0
M  V30 317 H 29.448 -3.79283 -2.92714 0
M  V30 318 H 27.812 -1.95577 -1.63161 0
M  V30 319 H 28.595 -3.35666 -0.719943 0
M  V30 320 N 31.0401 0.771051 -1.3745 0
M  V30 321 C 32.4511 1.34737 -1.29239 0
M  V30 322 C 32.8021 1.96109 0.0596908 0
M  V30 323 O 31.9271 1.93865 0.961534 0
M  V30 324 C 32.5221 2.44973 -2.34037 0
M  V30 325 C 31.0811 2.98372 -2.29458 0
M  V30 326 C 30.2281 1.71595 -2.17831 0
M  V30 327 H 33.1791 0.571256 -1.48062 0
M  V30 328 H 33.2001 3.24471 -1.98744 0
M  V30 329 H 32.7121 2.00276 -3.32432 0
M  V30 330 H 30.8131 3.47443 -1.34589 0
M  V30 331 H 30.9261 3.53939 -3.229 0
M  V30 332 H 29.2901 1.94547 -1.64388 0
M  V30 333 H 30.0731 1.29001 -3.18141 0
M  V30 334 N 32.5182 1.22032 0.997298 0
M  V30 335 C 33.4502 0.944263 2.08845 0
M  V30 336 C 34.4632 -0.0754663 1.62625 0
M  V30 337 O 35.6522 0.157994 1.77799 0
M  V30 338 C 32.7522 0.397723 3.36558 0
M  V30 339 C 31.9252 1.47362 4.11829 0
M  V30 340 C 30.9842 0.934951 5.17827 0
M  V30 341 O 30.0102 1.62016 5.45655 0
M  V30 342 N 31.2122 -0.245895 5.79979 0
M  V30 343 H 33.9772 1.88363 2.33109 0
M  V30 344 H 31.5382 1.12661 1.16272 0
M  V30 345 H 33.5302 0.0227771 4.04694 0
M  V30 346 H 32.1002 -0.446646 3.09393 0
M  V30 347 H 31.3202 2.02208 3.38386 0
M  V30 348 H 32.6082 2.19764 4.58891 0
M  V30 349 H 32.0062 -0.819475 5.59733 0
M  V30 350 H 30.5632 -0.562272 6.4937 0
M  V30 351 N 33.9963 -1.19345 1.0293 0
M  V30 352 C 34.9283 -2.22036 0.56857 0
M  V30 353 C 35.9413 -1.58865 -0.355779 0
M  V30 354 O 37.1303 -1.77851 -0.152103 0
M  V30 355 C 34.2303 -3.38363 -0.190752 0
M  V30 356 C 33.4033 -4.31118 0.738643 0
M  V30 357 C 32.4623 -5.26194 0.0246497 0
M  V30 358 O 31.4883 -5.65461 0.651354 0
M  V30 359 N 32.6903 -5.66971 -1.24594 0
M  V30 360 H 35.4553 -2.6219 1.45177 0
M  V30 361 H 33.0163 -1.34015 0.908381 0
M  V30 362 H 35.0083 -3.98981 -0.677961 0
M  V30 363 H 33.5783 -2.96994 -0.975366 0
M  V30 364 H 32.7983 -3.68276 1.40593 0
M  V30 365 H 34.0863 -4.90001 1.37029 0
M  V30 366 H 33.4843 -5.37104 -1.77583 0
M  V30 367 H 32.0413 -6.2984 -1.67764 0
M  V30 368 N 35.4744 -0.807222 -1.35358 0
M  V30 369 C 36.4044 -0.232509 -2.3234 0
M  V30 370 C 37.3854 0.642386 -1.57504 0
M  V30 371 O 38.5704 0.572526 -1.85569 0
M  V30 372 C 35.7004 0.619238 -3.41735 0
M  V30 373 C 34.6544 -0.157215 -4.27711 0
M  V30 374 C 33.9804 0.816273 -5.28433 0
M  V30 375 C 35.2804 -1.35656 -5.04376 0
M  V30 376 H 36.9744 -1.04276 -2.80654 0
M  V30 377 H 34.5204 -0.50288 -1.34934 0
M  V30 378 H 36.4734 1.03137 -4.08584 0
M  V30 379 H 35.1974 1.46239 -2.92031 0
M  V30 380 H 33.8564 -0.550525 -3.62443 0
M  V30 381 H 33.5044 1.65494 -4.74996 0
M  V30 382 H 33.2044 0.301067 -5.86828 0
M  V30 383 H 34.7284 1.22659 -5.98153 0
M  V30 384 H 36.1424 -1.01927 -5.64166 0
M  V30 385 H 34.5394 -1.8063 -5.7227 0
M  V30 386 H 35.6094 -2.14288 -4.34981 0
M  V30 387 N 36.9525 1.47285 -0.560781 0
M  V30 388 C 37.8855 2.27009 0.232821 0
M  V30 389 C 38.8635 1.34273 0.917039 0
M  V30 390 O 40.0475 1.63659 0.935315 0
M  V30 391 C 37.1745 3.11406 1.33206 0
M  V30 392 C 36.2205 4.19746 0.756019 0
M  V30 393 S 37.0535 5.34003 -0.400165 0
M  V30 394 C 38.2095 6.21964 0.700805 0
M  V30 395 H 38.4425 2.93971 -0.443683 0
M  V30 396 H 35.9755 1.50446 -0.347181 0
M  V30 397 H 37.9335 3.60601 1.96156 0
M  V30 398 H 36.5945 2.438 1.98041 0
M  V30 399 H 35.7875 4.78541 1.5816 0
M  V30 400 H 35.3895 3.73451 0.202619 0
M  V30 401 H 37.6815 6.58529 1.59202 0
M  V30 402 H 38.6245 7.07941 0.150126 0
M  V30 403 H 39.0325 5.5566 0.995083 0
M  V30 404 N 38.4306 0.297415 1.54768 0
M  V30 405 C 39.3606 -0.573494 2.26348 0
M  V30 406 C 40.3416 -1.14085 1.26169 0
M  V30 407 O 41.5266 -1.17086 1.54934 0
M  V30 408 C 38.6566 -1.74716 3.00153 0
M  V30 409 C 37.6106 -1.31032 4.07449 0
M  V30 410 C 36.9366 -2.56887 4.68949 0
M  V30 411 C 38.2366 -0.444183 5.20408 0
M  V30 412 H 39.9306 0.0235131 2.99391 0
M  V30 413 H 37.4766 0.0127488 1.43994 0
M  V30 414 H 39.4296 -2.3625 3.48947 0
M  V30 415 H 38.1536 -2.37035 2.24682 0
M  V30 416 H 36.8126 -0.718066 3.59499 0
M  V30 417 H 36.4606 -3.17512 3.90122 0
M  V30 418 H 36.1606 -2.2836 5.41411 0
M  V30 419 H 37.6846 -3.19229 5.20505 0
M  V30 420 H 39.0986 -0.9651 5.65118 0
M  V30 421 H 37.4956 -0.252846 5.99567 0
M  V30 422 H 38.5656 0.531609 4.81977 0
M  V30 423 N 39.9087 -1.5758 0.0250728 0
M  V30 424 C 41.1337 -1.96337 -0.668317 0
M  V30 425 C 41.5587 -0.901314 -1.651 0
M  V30 426 O 40.9167 0.138187 -1.80773 0
M  V30 427 C 40.9647 -3.34191 -1.35457 0
M  V30 428 O 40.0687 -3.30269 -2.46974 0
M  V30 429 H 39.4097 -0.640281 -0.175887 0
M  V30 430 H 41.9397 -2.0442 0.0857224 0
M  V30 431 H 41.9497 -3.70331 -1.71228 0
M  V30 432 H 40.6247 -4.11036 -0.634218 0
M  V30 433 H 39.2017 -3.05841 -2.13344 0
M  V30 434 N 41.3868 0.248026 -1.55636 0
M  V30 435 C 42.3498 1.29044 -1.89421 0
M  V30 436 C 43.3498 1.41134 -0.770581 0
M  V30 437 O 44.5398 1.39854 -1.03858 0
M  V30 438 C 41.6718 2.66831 -2.12165 0
M  V30 439 H 42.8648 1.00305 -2.82629 0
M  V30 440 H 40.4178 0.487265 -1.48511 0
M  V30 441 H 41.1528 3.00711 -1.21422 0
M  V30 442 H 40.9378 2.59438 -2.93997 0
M  V30 443 H 42.4278 3.42103 -2.3949 0
M  V30 444 N 42.8649 1.48995 0.513639 0
M  V30 445 C 43.8279 1.64229 1.59879 0
M  V30 446 C 44.8279 0.514696 1.5234 0
M  V30 447 O 46.0179 0.78087 1.55718 0
M  V30 448 C 43.1499 1.62783 2.99524 0
M  V30 449 H 44.3429 2.61004 1.47705 0
M  V30 450 H 41.8959 1.37837 0.736936 0
M  V30 451 H 42.6309 0.675461 3.17188 0
M  V30 452 H 42.4159 2.4466 3.06404 0
M  V30 453 H 43.9059 1.76669 3.78388 0
M  V30 454 N 44.343 -0.763751 1.37857 0
M  V30 455 C 45.273 -1.89103 1.36975 0
M  V30 456 C 46.254 -1.68439 0.237152 0
M  V30 457 O 47.439 -1.8918 0.438713 0
M  V30 458 C 44.569 -3.26496 1.18395 0
M  V30 459 C 43.523 -3.61741 2.28751 0
M  V30 460 C 42.849 -4.97762 1.95286 0
M  V30 461 C 44.149 -3.67665 3.70972 0
M  V30 462 H 45.843 -1.90099 2.31307 0
M  V30 463 H 43.389 -0.91319 1.11341 0
M  V30 464 H 45.342 -4.05003 1.16406 0
M  V30 465 H 44.066 -3.25955 0.205215 0
M  V30 466 H 42.725 -2.85547 2.29909 0
M  V30 467 H 42.373 -4.93769 0.959221 0
M  V30 468 H 42.073 -5.22313 2.69189 0
M  V30 469 H 43.597 -5.7866 1.94898 0
M  V30 470 H 45.011 -4.36307 3.719 0
M  V30 471 H 43.408 -4.03718 4.43995 0
M  V30 472 H 44.478 -2.68134 4.0402 0
M  V30 473 N 45.8211 -1.22559 -0.990812 0
M  V30 474 C 47.2371 -0.985996 -1.255 0
M  V30 475 C 47.4371 0.319173 -1.98956 0
M  V30 476 O 46.4931 1.04127 -2.3003 0
M  V30 477 C 47.8061 -2.18607 -2.06474 0
M  V30 478 C 49.3541 -2.22985 -2.19651 0
M  V30 479 C 49.8291 -3.4255 -3.04012 0
M  V30 480 N 51.3201 -3.42725 -3.11599 0
M  V30 481 C 52.0551 -4.31892 -3.7717 0
M  V30 482 N 51.5511 -5.31279 -4.44651 0
M  V30 483 N 53.3441 -4.19662 -3.73952 0
M  V30 484 H 45.4951 -2.06469 -0.49841 0
M  V30 485 H 47.7581 -0.904853 -0.282747 0
M  V30 486 H 47.4641 -3.13267 -1.59865 0
M  V30 487 H 47.3381 -2.18838 -3.07229 0
M  V30 488 H 49.7251 -1.28871 -2.65474 0
M  V30 489 H 49.8061 -2.26791 -1.18319 0
M  V30 490 H 49.4501 -4.36965 -2.58889 0
M  V30 491 H 49.3801 -3.35984 -4.0549 0
M  V30 492 H 51.8711 -2.70807 -2.63575 0
M  V30 493 H 52.1841 -5.95593 -4.92431 0
M  V30 494 H 50.5291 -5.3519 -4.43392 0
M  V30 495 H 53.7201 -3.41268 -3.20396 0
M  V30 496 H 53.8931 -4.89358 -4.24774 0
M  V30 497 N 47.2992 1.18797 -1.03562 0
M  V30 498 C 48.5272 1.92599 -0.755869 0
M  V30 499 C 48.9422 1.75886 0.686271 0
M  V30 500 O 48.2992 1.08517 1.46732 0
M  V30 501 C 48.3502 3.44159 -1.10619 0
M  V30 502 O 48.0712 3.60341 -2.4917 0
M  V30 503 C 49.5722 4.3507 -0.850214 0
M  V30 504 H 46.7922 0.611587 -0.276048 0
M  V30 505 H 49.3362 1.50742 -1.38192 0
M  V30 506 H 47.4912 3.83823 -0.525194 0
M  V30 507 H 47.9052 4.54128 -2.62427 0
M  V30 508 H 49.3792 5.39989 -1.14523 0
M  V30 509 H 49.8562 4.38673 0.215176 0
M  V30 510 H 50.4622 4.01097 -1.41426 0
M  V30 511 N 48.7773 0.814389 1.34928 0
M  V30 512 C 49.7073 0.244827 2.32213 0
M  V30 513 C 50.6883 -0.634024 1.57842 0
M  V30 514 O 51.8733 -0.562676 1.8587 0
M  V30 515 C 49.0033 -0.601106 3.42058 0
M  V30 516 C 47.9573 0.179896 4.27622 0
M  V30 517 C 47.2833 -0.788237 5.28858 0
M  V30 518 C 48.5833 1.38329 5.03649 0
M  V30 519 H 50.2773 1.05763 2.80097 0
M  V30 520 H 47.8233 0.510029 1.34665 0
M  V30 521 H 49.7763 -1.00968 4.09125 0
M  V30 522 H 48.5003 -1.44688 2.92802 0
M  V30 523 H 47.1593 0.569739 3.62146 0
M  V30 524 H 46.8073 -1.62973 4.75866 0
M  V30 525 H 46.5073 -0.269942 5.8698 0
M  V30 526 H 48.0313 -1.19485 5.98795 0
M  V30 527 H 49.4453 1.04918 5.63618 0
M  V30 528 H 47.8423 1.83662 5.71304 0
M  V30 529 H 48.9123 2.16592 4.33839 0
M  V30 530 N 50.2554 -1.46986 0.568584 0
M  V30 531 C 51.2024 -2.30153 -0.172707 0
M  V30 532 C 52.1724 -1.39759 -0.897586 0
M  V30 533 O 53.3574 -1.68716 -0.891044 0
M  V30 534 C 50.4974 -3.23952 -1.1895 0
M  V30 535 C 49.6104 -4.29441 -0.469517 0
M  V30 536 C 48.7454 -5.1038 -1.47259 0
M  V30 537 C 47.7844 -6.07632 -0.738225 0
M  V30 538 N 46.9214 -6.8149 -1.68868 0
M  V30 539 H 51.7614 -2.93019 0.542596 0
M  V30 540 H 49.2984 -1.44422 0.279401 0
M  V30 541 H 51.2564 -3.76767 -1.79173 0
M  V30 542 H 49.8864 -2.62926 -1.87269 0
M  V30 543 H 48.9384 -3.79594 0.247467 0
M  V30 544 H 50.2504 -4.98689 0.105241 0
M  V30 545 H 49.4044 -5.67402 -2.14803 0
M  V30 546 H 48.1434 -4.4106 -2.08128 0
M  V30 547 H 47.1484 -5.49778 -0.0489293 0
M  V30 548 H 48.3734 -6.78966 -0.135129 0
M  V30 549 H 46.3194 -6.14891 -2.28573 0
M  V30 550 H 46.2364 -7.46948 -1.16636 0
M  V30 551 H 47.5044 -7.43078 -2.3549 0
M  V30 552 N 51.7335 -0.305618 -1.54608 0
M  V30 553 C 52.6835 0.583595 -2.20405 0
M  V30 554 C 53.6675 1.09539 -1.17856 0
M  V30 555 O 54.8595 1.0354 -1.43557 0
M  V30 556 C 51.9885 1.75277 -2.95183 0
M  V30 557 C 51.0745 1.25672 -4.05052 0
M  V30 558 N 51.4655 0.478998 -5.03527 0
M  V30 559 C 49.7635 1.53704 -4.18678 0
M  V30 560 C 50.4645 0.214269 -5.81305 0
M  V30 561 N 49.4405 0.795374 -5.3775 0
M  V30 562 H 53.2425 -0.0180946 -2.93894 0
M  V30 563 H 50.7565 -0.110601 -1.62023 0
M  V30 564 H 52.7535 2.4014 -3.40791 0
M  V30 565 H 51.4135 2.35812 -2.23211 0
M  V30 566 H 52.4245 0.123473 -5.17753 0
M  V30 567 H 49.1015 2.14954 -3.57912 0
M  V30 568 H 50.4915 -0.410656 -6.70644 0
M  V30 569 N 53.2116 1.57565 -0.0334293 0
M  V30 570 C 54.4576 1.92262 0.645226 0
M  V30 571 C 54.7906 0.910543 1.71531 0
M  V30 572 O 54.0656 -0.066099 1.94388 0
M  V30 573 C 54.3486 3.37422 1.2577 0
M  V30 574 C 54.2016 4.49369 0.196891 0
M  V30 575 C 55.5206 3.82628 2.17449 0
M  V30 576 H 52.6396 0.699171 0.233085 0
M  V30 577 H 55.2816 1.89779 -0.0915694 0
M  V30 578 H 53.4316 3.39669 1.88566 0
M  V30 579 H 55.1036 4.59254 -0.433962 0
M  V30 580 H 53.3466 4.31168 -0.477137 0
M  V30 581 H 54.0176 5.47978 0.665124 0
M  V30 582 H 56.4936 3.82145 1.64634 0
M  V30 583 H 55.3696 4.84883 2.57254 0
M  V30 584 H 55.6306 3.18376 3.0674 0
M  V30 585 N 54.6897 -0.239769 1.55765 0
M  V30 586 C 55.6197 -1.30052 1.9393 0
M  V30 587 C 56.6007 -1.49839 0.805132 0
M  V30 588 O 57.7857 -1.62328 1.06599 0
M  V30 589 C 54.9157 -2.65391 2.2402 0
M  V30 590 C 53.8697 -2.60289 3.39755 0
M  V30 591 C 53.1957 -3.99489 3.55405 0
M  V30 592 C 54.4957 -2.16654 4.75246 0
M  V30 593 H 56.1897 -0.983573 2.82783 0
M  V30 594 H 53.7357 -0.471701 1.36055 0
M  V30 595 H 55.6887 -3.3974 2.49308 0
M  V30 596 H 54.4127 -2.98736 1.32 0
M  V30 597 H 53.0717 -1.88398 3.14487 0
M  V30 598 H 52.7197 -4.30112 2.60793 0
M  V30 599 H 52.4197 -3.96962 4.33238 0
M  V30 600 H 53.9437 -4.75528 3.83022 0
M  V30 601 H 55.3577 -2.80737 4.99859 0
M  V30 602 H 53.7547 -2.25223 5.56232 0
M  V30 603 H 54.8247 -1.11835 4.71827 0
M  V30 604 N 56.1678 -1.49265 -0.50573 0
M  V30 605 C 57.3978 -1.61979 -1.28243 0
M  V30 606 C 57.8058 -0.288576 -1.86986 0
M  V30 607 O 57.1488 0.735408 -1.68337 0
M  V30 608 C 57.2108 -2.62632 -2.45489 0
M  V30 609 C 56.8748 -4.071 -2.07651 0
M  V30 610 C 57.8718 -4.94049 -1.61901 0
M  V30 611 C 55.5568 -4.52801 -2.17431 0
M  V30 612 C 57.5508 -6.24736 -1.26428 0
M  V30 613 C 55.2378 -5.83503 -1.8157 0
M  V30 614 C 56.2358 -6.69294 -1.36142 0
M  V30 615 O 55.9238 -7.9756 -1.00764 0
M  V30 616 H 55.6558 -0.54834 -0.395347 0
M  V30 617 H 58.2098 -1.96002 -0.614204 0
M  V30 618 H 56.4398 -2.2378 -3.15372 0
M  V30 619 H 58.1288 -2.64925 -3.07522 0
M  V30 620 H 58.8948 -4.5997 -1.53795 0
M  V30 621 H 54.7738 -3.86196 -2.51742 0
M  V30 622 H 58.3178 -6.91652 -0.908992 0
M  V30 623 H 54.2148 -6.17112 -1.89324 0
M  V30 624 H 54.9828 -8.10529 -1.13952 0
M  V30 625 N 57.6459 0.756429 -1.3826 0
M  V30 626 C 58.8759 1.54341 -1.3734 0
M  V30 627 C 59.2839 1.89159 0.0393917 0
M  V30 628 O 58.6269 1.5307 1.01565 0
M  V30 629 C 58.6889 2.87238 -2.16182 0
M  V30 630 C 58.3529 2.74973 -3.65019 0
M  V30 631 C 59.3499 2.44962 -4.58574 0
M  V30 632 C 57.0349 2.92515 -4.08338 0
M  V30 633 C 59.0289 2.32642 -5.93428 0
M  V30 634 C 56.7159 2.79815 -5.43274 0
M  V30 635 C 57.7139 2.49921 -6.35632 0
M  V30 636 O 57.4019 2.37275 -7.68086 0
M  V30 637 H 57.1339 0.484281 -0.471643 0
M  V30 638 H 59.6879 0.944152 -1.82414 0
M  V30 639 H 57.9179 3.49342 -1.65822 0
M  V30 640 H 59.6069 3.48731 -2.07705 0
M  V30 641 H 60.3729 2.31081 -4.26412 0
M  V30 642 H 56.2519 3.14781 -3.368 0
M  V30 643 H 59.7959 2.0923 -6.65484 0
M  V30 644 H 55.6929 2.93269 -5.75034 0
M  V30 645 H 56.4609 2.52509 -7.78577 0
M  V30 646 N 59.124 1.23083 0.984299 0
M  V30 647 C 60.349 1.088 1.76571 0
M  V30 648 C 60.774 -0.356657 1.84688 0
M  V30 649 O 60.132 -1.25788 1.30565 0
M  V30 650 C 60.18 1.71371 3.17277 0
M  V30 651 O 59.284 0.973213 4.00752 0
M  V30 652 H 58.625 0.381599 0.543395 0
M  V30 653 H 61.155 1.63057 1.23587 0
M  V30 654 H 61.165 1.76449 3.67872 0
M  V30 655 H 59.84 2.76493 3.10684 0
M  V30 656 H 58.417 0.999078 3.59267 0
M  V30 657 N 60.6021 -1.18246 1.0419 0
M  V30 658 C 62.0181 -1.40269 0.761366 0
M  V30 659 C 62.2181 -1.90777 -0.648578 0
M  V30 660 O 61.2741 -2.0929 -1.41258 0
M  V30 661 C 62.5871 -2.40237 1.8085 0
M  V30 662 C 64.1351 -2.53961 1.82955 0
M  V30 663 C 64.6101 -3.57194 2.86664 0
M  V30 664 N 66.1011 -3.64702 2.85563 0
M  V30 665 C 66.8361 -4.44309 3.6246 0
M  V30 666 N 66.3321 -5.27514 4.49111 0
M  V30 667 N 68.1251 -4.39084 3.50944 0
M  V30 668 H 60.2761 -0.837882 1.95175 0
M  V30 669 H 62.5391 -0.430608 0.84456 0
M  V30 670 H 62.2451 -2.10176 2.81991 0
M  V30 671 H 62.1191 -3.39601 1.64168 0
M  V30 672 H 64.5061 -2.83338 0.824855 0
M  V30 673 H 64.5871 -1.54706 2.03715 0
M  V30 674 H 64.2311 -3.28558 3.87314 0
M  V30 675 H 64.1611 -4.5613 2.6316 0
M  V30 676 H 66.6521 -3.05289 2.22727 0
M  V30 677 H 66.9651 -5.85411 5.04493 0
M  V30 678 H 65.3101 -5.2693 4.53178 0
M  V30 679 H 68.5011 -3.7313 2.82651 0
M  V30 680 H 68.6741 -5.00883 4.11121 0
M  V30 681 N 62.0802 -0.821533 -1.34494 0
M  V30 682 C 63.0122 -0.199946 -2.28326 0
M  V30 683 C 64.0252 0.609377 -1.50965 0
M  V30 684 O 65.2142 0.439285 -1.7301 0
M  V30 685 C 62.3142 0.738431 -3.30757 0
M  V30 686 C 61.4872 -0.0277632 -4.37391 0
M  V30 687 C 60.5462 0.831332 -5.19591 0
M  V30 688 O 59.5722 0.276822 -5.68526 0
M  V30 689 N 60.7742 2.15132 -5.39165 0
M  V30 690 H 63.5392 -1.00609 -2.82308 0
M  V30 691 H 61.1002 -0.678366 -1.47003 0
M  V30 692 H 63.0922 1.31773 -3.82646 0
M  V30 693 H 61.6622 1.44533 -2.7718 0
M  V30 694 H 60.8822 -0.788359 -3.86236 0
M  V30 695 H 62.1702 -0.555251 -5.05761 0
M  V30 696 H 61.5682 2.62559 -5.01078 0
M  V30 697 H 60.1252 2.6795 -5.94177 0
M  V30 698 N 63.5583 1.46682 -0.576371 0
M  V30 699 C 64.7983 2.04306 -0.0621356 0
M  V30 700 C 65.1623 1.4389 1.2712 0
M  V30 701 O 66.3633 1.92675 1.87429 0
M  V30 702 C 64.6343 3.57399 0.00927922 0
M  V30 703 S 66.1933 4.36309 0.466859 0
M  V30 704 H 63.0113 0.710167 -0.0344016 0
M  V30 705 H 65.6133 1.79807 -0.767437 0
M  V30 706 H 64.3173 3.98889 -0.965178 0
M  V30 707 H 63.8483 3.86424 0.737547 0
M  V30 708 H 65.8633 4.6533 1.72287 0
M  V30 709 N 65.0364 0.313813 1.54444 0
M  V30 710 C 65.9664 -0.549454 2.26943 0
M  V30 711 C 66.9474 -1.12741 1.27372 0
M  V30 712 O 68.1324 -1.15436 1.56167 0
M  V30 713 C 65.2624 -1.71523 3.01989 0
M  V30 714 C 64.2164 -1.26703 4.08816 0
M  V30 715 C 63.5424 -2.51898 4.71647 0
M  V30 716 C 64.8424 -0.388962 5.2085 0
M  V30 717 H 66.5364 0.0552661 2.99349 0
M  V30 718 H 64.0824 0.0280207 1.43973 0
M  V30 719 H 66.0354 -2.32535 3.51433 0
M  V30 720 H 64.7594 -2.34639 2.27183 0
M  V30 721 H 63.4184 -0.679896 3.6024 0
M  V30 722 H 63.0664 -3.13356 3.93468 0
M  V30 723 H 62.7664 -2.22605 5.43802 0
M  V30 724 H 64.2904 -3.1369 5.23861 0
M  V30 725 H 65.7044 -0.905107 5.6611 0
M  V30 726 H 64.1014 -0.18924 5.99802 0
M  V30 727 H 65.1714 0.582699 4.81386 0
M  V30 728 N 66.5145 -1.57545 0.0417849 0
M  V30 729 C 67.4475 -2.06514 -0.970928 0
M  V30 730 C 68.4255 -0.963607 -1.30971 0
M  V30 731 O 69.6095 -1.23486 -1.4242 0
M  V30 732 C 66.7365 -2.4978 -2.28752 0
M  V30 733 C 65.7825 -3.71078 -2.10246 0
M  V30 734 S 66.6155 -5.17158 -1.38952 0
M  V30 735 C 67.7715 -5.6373 -2.71954 0
M  V30 736 H 68.0045 -2.9209 -0.554129 0
M  V30 737 H 65.5375 -1.53459 -0.17024 0
M  V30 738 H 67.4955 -2.75371 -3.04435 0
M  V30 739 H 66.1565 -1.64527 -2.67562 0
M  V30 740 H 65.3495 -3.9924 -3.07609 0
M  V30 741 H 64.9515 -3.45705 -1.42704 0
M  V30 742 H 67.2435 -5.68743 -3.68154 0
M  V30 743 H 68.1865 -6.63086 -2.4844 0
M  V30 744 H 68.5945 -4.91424 -2.77782 0
M  V30 745 N 67.9926 0.231505 -1.5589 0
M  V30 746 C 69.2386 0.95877 -1.78705 0
M  V30 747 C 69.5716 1.8438 -0.609725 0
M  V30 748 O 68.8466 1.90521 0.391426 0
M  V30 749 C 69.1296 1.8062 -3.11526 0
M  V30 750 C 68.9826 0.948328 -4.39689 0
M  V30 751 C 70.3016 2.78585 -3.40703 0
M  V30 752 H 67.4206 0.347129 -0.650131 0
M  V30 753 H 70.0626 0.228259 -1.88624 0
M  V30 754 H 68.2126 2.42902 -3.03201 0
M  V30 755 H 69.8846 0.343016 -4.60023 0
M  V30 756 H 68.1276 0.253314 -4.3306 0
M  V30 757 H 68.7986 1.57543 -5.29041 0
M  V30 758 H 71.2746 2.26439 -3.49091 0
M  V30 759 H 70.1506 3.34988 -4.34826 0
M  V30 760 H 70.4116 3.55825 -2.62375 0
M  V30 761 N 69.4707 1.49531 0.497807 0
M  V30 762 C 70.6957 1.63159 1.28039 0
M  V30 763 C 71.1207 0.30418 1.85624 0
M  V30 764 O 70.4787 -0.728618 1.66015 0
M  V30 765 C 70.5267 2.70537 2.38416 0
M  V30 766 O 69.6307 2.29931 3.42353 0
M  V30 767 H 68.9717 0.546001 0.377861 0
M  V30 768 H 71.5017 1.9574 0.59558 0
M  V30 769 H 71.5117 2.92802 2.84132 0
M  V30 770 H 70.1867 3.6689 1.95869 0
M  V30 771 H 68.7637 2.18009 3.02533 0
M  V30 772 N 70.9488 -0.749086 1.3866 0
M  V30 773 C 72.3648 -1.05276 1.19955 0
M  V30 774 C 72.5648 -2.01435 0.05134 0
M  V30 775 O 71.6208 -2.45232 -0.60147 0
M  V30 776 C 72.9338 -1.62853 2.52783 0
M  V30 777 C 74.4818 -1.75002 2.59506 0
M  V30 778 C 74.9568 -2.35991 3.92521 0
M  V30 779 N 76.4478 -2.43416 3.94085 0
M  V30 780 C 77.1828 -2.91511 4.9377 0
M  V30 781 N 76.6788 -3.39608 6.03853 0
M  V30 782 N 78.4718 -2.90592 4.81157 0
M  V30 783 H 70.6228 -0.111066 2.12109 0
M  V30 784 H 72.8858 -0.111901 0.941373 0
M  V30 785 H 72.5918 -0.99664 3.37283 0
M  V30 786 H 72.4658 -2.61854 2.715 0
M  V30 787 H 74.8528 -2.37317 1.75398 0
M  V30 788 H 74.9338 -0.74693 2.44652 0
M  V30 789 H 74.5778 -1.74308 4.77053 0
M  V30 790 H 74.5078 -3.3695 4.04688 0
M  V30 791 H 76.9988 -2.09405 3.14576 0
M  V30 792 H 77.3118 -3.74775 6.75843 0
M  V30 793 H 75.6568 -3.37653 6.07466 0
M  V30 794 H 78.8478 -2.52332 3.94267 0
M  V30 795 H 79.0208 -3.27762 5.58996 0
M  V30 796 N 72.4269 -1.23603 -0.977757 0
M  V30 797 C 73.3749 -1.01704 -2.09187 0
M  V30 798 C 74.3689 0.0448214 -1.69341 0
M  V30 799 O 75.5749 -0.108902 -1.7967 0
M  V30 800 H 71.9499 -0.311803 -0.684312 0
M  V30 801 H 73.9209 -1.96207 -2.24823 0
M  V30 802 C 72.6699 -0.627746 -3.41986 0
M  V30 803 H 71.9929 -1.43656 -3.73099 0
M  V30 804 H 73.4329 -0.514053 -4.20872 0
M  V30 805 C 71.8919 0.664238 -3.30287 0
M  V30 806 O 72.4219 1.71268 -3.6336 0
M  V30 807 N 70.6279 0.641156 -2.83439 0
M  V30 808 H 70.1749 -0.212376 -2.56723 0
M  V30 809 H 70.1329 1.50583 -2.75993 0
M  V30 810 N 73.905 1.17692 -1.04816 0
M  V30 811 C 74.835 2.23777 -0.666791 0
M  V30 812 C 75.816 1.66796 0.33361 0
M  V30 813 O 77.001 1.93039 0.212042 0
M  V30 814 C 74.131 3.47281 -0.0367933 0
M  V30 815 C 73.085 4.17059 -0.961546 0
M  V30 816 C 72.411 5.34342 -0.195626 0
M  V30 817 C 73.711 4.69713 -2.28402 0
M  V30 818 H 75.405 2.55933 -1.55367 0
M  V30 819 H 72.951 1.23019 -0.748484 0
M  V30 820 H 74.904 4.20706 0.241775 0
M  V30 821 H 73.628 3.14381 0.885004 0
M  V30 822 H 72.287 3.45541 -1.22462 0
M  V30 823 H 71.935 4.97692 0.728816 0
M  V30 824 H 71.635 5.81966 -0.811775 0
M  V30 825 H 73.159 6.10553 0.0757473 0
M  V30 826 H 74.573 5.34794 -2.06563 0
M  V30 827 H 72.97 5.279 -2.8538 0
M  V30 828 H 74.04 3.86726 -2.92525 0
M  V30 829 N 75.3831 0.828654 1.34056 0
M  V30 830 C 76.6311 0.41863 1.97717 0
M  V30 831 C 76.9521 -1.02314 1.66002 0
M  V30 832 O 76.2221 -1.71119 0.953683 0
M  V30 833 H 74.8021 0.151809 0.731412 0
M  V30 834 H 77.4641 1.05936 1.63596 0
M  V30 835 H 76.5601 0.542318 3.07352 0
M  V30 836 N 76.8612 -1.46375 0.584142 0
M  V30 837 C 78.0862 -2.07268 0.0740405 0
M  V30 838 C 78.5112 -1.42979 -1.22223 0
M  V30 839 O 77.8692 -0.514092 -1.73859 0
M  V30 840 C 77.9172 -3.60518 -0.0767769 0
M  V30 841 O 77.0212 -3.96533 -1.13292 0
M  V30 842 H 76.3622 -0.660961 0.0634524 0
M  V30 843 H 78.8922 -1.87991 0.807492 0
M  V30 844 H 78.9022 -4.07021 -0.282489 0
M  V30 845 H 77.5772 -4.06702 0.86986 0
M  V30 846 H 76.1542 -3.61738 -0.905553 0
M  V30 847 N 78.3393 -0.321999 -1.54275 0
M  V30 848 C 79.5853 0.281461 -2.00837 0
M  V30 849 C 79.9183 1.51909 -1.20985 0
M  V30 850 O 79.1933 1.923 -0.291733 0
M  V30 851 C 79.4763 0.617162 -3.54772 0
M  V30 852 C 79.3293 -0.631064 -4.45351 0
M  V30 853 C 80.6483 1.43542 -4.16033 0
M  V30 854 H 77.7673 0.100826 -0.730071 0
M  V30 855 H 80.4093 -0.438268 -1.84876 0
M  V30 856 H 78.5593 1.23034 -3.68504 0
M  V30 857 H 80.2313 -1.26934 -4.43492 0
M  V30 858 H 78.4743 -1.26025 -4.15091 0
M  V30 859 H 79.1453 -0.351735 -5.50878 0
M  V30 860 H 81.6213 0.917134 -4.05867 0
M  V30 861 H 80.4973 1.63907 -5.23856 0
M  V30 862 H 80.7583 2.43108 -3.69257 0
M  V30 863 N 79.8174 1.5752 -0.0501392 0
M  V30 864 C 81.0654 1.9227 0.622642 0
M  V30 865 C 81.3864 0.929083 1.71444 0
M  V30 866 O 80.6564 -0.0262186 1.95882 0
M  V30 867 H 79.2364 0.709739 0.232981 0
M  V30 868 H 81.8984 1.94628 -0.102898 0
M  V30 869 H 80.9944 2.93479 1.06191 0
M  V30 870 N 81.2955 -0.223234 1.56011 0
M  V30 871 C 82.5255 -0.963413 1.82762 0
M  V30 872 C 82.9335 -1.78516 0.626804 0
M  V30 873 O 82.2765 -1.78974 -0.414014 0
M  V30 874 C 82.3385 -1.93126 3.0322 0
M  V30 875 C 82.0025 -1.2942 4.38291 0
M  V30 876 C 82.9995 -0.684916 5.15369 0
M  V30 877 C 80.6845 -1.30647 4.85012 0
M  V30 878 C 82.6785 -0.0963971 6.37327 0
M  V30 879 C 80.3655 -0.71411 6.06913 0
M  V30 880 C 81.3635 -0.110123 6.82911 0
M  V30 881 O 81.0515 0.47303 8.02507 0
M  V30 882 H 80.7835 -0.288011 0.611576 0
M  V30 883 H 83.3375 -0.244103 2.03944 0
M  V30 884 H 81.5675 -2.68952 2.77852 0
M  V30 885 H 83.2565 -2.53685 3.16857 0
M  V30 886 H 84.0225 -0.667774 4.80381 0
M  V30 887 H 79.9015 -1.76598 4.25833 0
M  V30 888 H 83.4455 0.375657 6.96588 0
M  V30 889 H 79.3425 -0.728659 6.41374 0
M  V30 890 H 80.1105 0.367186 8.17676 0
M  V30 891 N 82.7736 -1.49793 -0.48987 0
M  V30 892 C 84.0506 -1.50348 -1.25119 0
M  V30 893 C 84.4306 -0.237466 -2.0976 0
M  V30 894 O 83.7786 0.77981 -2.14782 0
M  V30 895 C 83.9886 -2.78872 -2.09837 0
M  V30 896 C 85.3366 -3.288 -2.68655 0
M  V30 897 O 86.3606 -2.80065 -2.20096 0
M  V30 898 O 85.2196 -4.13707 -3.57083 0
M  V30 899 H 82.3136 -0.602242 -0.566775 0
M  V30 900 H 84.8596 -1.62067 -0.503229 0
M  V30 901 H 83.6316 -3.62499 -1.47343 0
M  V30 902 H 83.2546 -2.70066 -2.91805 0
M  V30 903 N 84.2517 0.741722 -1.39055 0
M  V30 904 C 85.6627 1.31966 -1.32068 0
M  V30 905 C 86.0137 1.96192 0.0180797 0
M  V30 906 O 85.1387 1.95861 0.920196 0
M  V30 907 C 85.7337 2.39954 -2.39181 0
M  V30 908 C 84.2927 2.93438 -2.35735 0
M  V30 909 C 83.4397 1.66936 -2.21422 0
M  V30 910 H 86.3907 0.539721 -1.4924 0
M  V30 911 H 86.4117 3.20182 -2.05581 0
M  V30 912 H 85.9237 1.9318 -3.36605 0
M  V30 913 H 84.0247 3.4451 -1.41929 0
M  V30 914 H 84.1377 3.4701 -3.30335 0
M  V30 915 H 82.5017 1.91016 -1.68478 0
M  V30 916 H 83.2847 1.22224 -3.20806 0
M  V30 917 N 85.7298 1.2412 0.971189 0
M  V30 918 C 86.6778 1.02812 2.08644 0
M  V30 919 C 87.6718 -0.0358403 1.69362 0
M  V30 920 O 88.8778 0.118429 1.7961 0
M  V30 921 H 85.2528 0.315428 0.682649 0
M  V30 922 H 87.2238 1.97397 2.23779 0
M  V30 923 C 85.9728 0.645874 3.41649 0
M  V30 924 H 85.2958 1.45632 3.72332 0
M  V30 925 H 86.7358 0.536366 4.20594 0
M  V30 926 C 85.1948 -0.646713 3.30635 0
M  V30 927 O 85.7248 -1.69338 3.64263 0
M  V30 928 N 83.9308 -0.626115 2.83775 0
M  V30 929 H 83.4778 0.225988 2.56607 0
M  V30 930 H 83.4358 -1.49117 2.76788 0
M  V30 931 N 87.2079 -1.17134 1.05439 0
M  V30 932 C 88.1179 -2.24878 0.668365 0
M  V30 933 C 89.1339 -1.71186 -0.311687 0
M  V30 934 O 90.3099 -2.00738 -0.163161 0
M  V30 935 C 87.3749 -3.46662 0.051648 0
M  V30 936 C 86.4359 -4.15429 1.08246 0
M  V30 937 C 85.6689 -5.31399 0.495082 0
M  V30 938 O 85.8919 -5.66153 -0.694743 0
M  V30 939 O 84.8259 -5.89187 1.23056 0
M  V30 940 H 88.6519 -2.60189 1.56637 0
M  V30 941 H 86.2369 -1.24482 0.826104 0
M  V30 942 H 88.1189 -4.20394 -0.290966 0
M  V30 943 H 86.7939 -3.13142 -0.819971 0
M  V30 944 H 85.7009 -3.43704 1.47711 0
M  V30 945 H 87.0339 -4.52982 1.92532 0
M  V30 946 N 88.686 -0.835752 -1.33615 0
M  V30 947 C 89.633 -0.26473 -2.29277 0
M  V30 948 C 90.603 0.617712 -1.54187 0
M  V30 949 O 91.788 0.556641 -1.825 0
M  V30 950 C 88.928 0.556777 -3.40579 0
M  V30 951 C 88.041 -0.349339 -4.30585 0
M  V30 952 C 87.176 0.482969 -5.29 0
M  V30 953 C 86.215 -0.421732 -6.10645 0
M  V30 954 N 85.352 0.372262 -7.01112 0
M  V30 955 H 90.192 -1.08582 -2.77514 0
M  V30 956 H 87.729 -0.546927 -1.36554 0
M  V30 957 H 89.687 1.04852 -4.03809 0
M  V30 958 H 88.317 1.34286 -2.93542 0
M  V30 959 H 87.369 -0.959372 -3.68104 0
M  V30 960 H 88.681 -1.04445 -4.87742 0
M  V30 961 H 87.835 1.03866 -5.97743 0
M  V30 962 H 86.574 1.21153 -4.72412 0
M  V30 963 H 85.579 -0.989464 -5.40823 0
M  V30 964 H 86.804 -1.14861 -6.69316 0
M  V30 965 H 84.75 1.08426 -6.46977 0
M  V30 966 H 84.667 -0.264198 -7.55538 0
M  V30 967 H 85.935 0.910293 -7.74167 0
M  V30 968 N 90.1641 1.46063 -0.591896 0
M  V30 969 C 91.3921 2.06717 -0.0868936 0
M  V30 970 C 91.8071 1.43916 1.22203 0
M  V30 971 O 91.1641 0.547698 1.74088 0
M  V30 972 C 91.2151 3.6142 0.0758725 0
M  V30 973 O 90.9361 4.21874 -1.18126 0
M  V30 974 C 92.4371 4.39025 0.61416 0
M  V30 975 H 89.6571 0.668162 -0.0616518 0
M  V30 976 H 92.2011 1.8755 -0.815175 0
M  V30 977 H 90.3561 3.79983 0.754413 0
M  V30 978 H 90.7701 5.14861 -1.00092 0
M  V30 979 H 92.2441 5.4783 0.677193 0
M  V30 980 H 92.7211 4.07708 1.63312 0
M  V30 981 H 93.3271 4.2529 -0.0298142 0
M  V30 982 N 91.6422 0.330177 1.54103 0
M  V30 983 C 92.8892 -0.270405 2.00686 0
M  V30 984 C 93.2172 -1.51621 1.21825 0
M  V30 985 O 92.4722 -1.93536 0.29025 0
M  V30 986 C 92.7712 -0.643134 3.51566 0
M  V30 987 C 92.4372 0.504251 4.48072 0
M  V30 988 C 91.0992 0.819163 4.74176 0
M  V30 989 C 93.4512 1.27465 5.05373 0
M  V30 990 C 90.7792 1.90708 5.5484 0
M  V30 991 C 93.1312 2.35271 5.87223 0
M  V30 992 C 91.7952 2.67336 6.11627 0
M  V30 993 H 91.0652 -0.0989482 0.734364 0
M  V30 994 H 93.7122 0.455324 1.86008 0
M  V30 995 H 92.0172 -1.44938 3.64006 0
M  V30 996 H 93.7142 -1.11949 3.85056 0
M  V30 997 H 90.3042 0.248733 4.27878 0
M  V30 998 H 94.4882 1.04462 4.85182 0
M  V30 999 H 89.7442 2.15991 5.71977 0
M  V30 1000 H 93.9182 2.95405 6.30641 0
M  V30 1001 H 91.5452 3.51763 6.73919 0
M  V30 1002 N 93.1203 -1.57491 0.0584922 0
M  V30 1003 C 94.3973 -1.84346 -0.653918 0
M  V30 1004 C 94.7773 -0.948355 -1.88599 0
M  V30 1005 O 94.1253 -0.0112403 -2.28497 0
M  V30 1006 C 94.3353 -3.34239 -1.00425 0
M  V30 1007 C 95.6833 -4.01431 -1.38342 0
M  V30 1008 O 96.7073 -3.38907 -1.09637 0
M  V30 1009 O 95.5663 -5.11683 -1.91943 0
M  V30 1010 H 92.6603 -0.761112 -0.323478 0
M  V30 1011 H 95.2063 -1.6947 0.0884125 0
M  V30 1012 H 93.9783 -3.91089 -0.128625 0
M  V30 1013 H 93.6013 -3.54329 -1.80378 0
M  V30 1014 N 94.5984 0.214957 -1.56127 0
M  V30 1015 C 95.5454 1.26642 -1.92952 0
M  V30 1016 C 96.5154 1.46244 -0.78753 0
M  V30 1017 O 97.7004 1.59704 -1.04399 0
M  V30 1018 C 94.8404 2.6104 -2.25726 0
M  V30 1019 C 93.9534 2.49183 -3.52891 0
M  V30 1020 C 93.0884 3.76149 -3.7508 0
M  V30 1021 C 92.1274 3.59041 -4.95738 0
M  V30 1022 N 91.2644 4.77972 -5.14283 0
M  V30 1023 H 96.1044 0.945384 -2.82607 0
M  V30 1024 H 93.6414 0.455489 -1.3987 0
M  V30 1025 H 95.5994 3.39313 -2.42739 0
M  V30 1026 H 94.2294 2.91227 -1.39236 0
M  V30 1027 H 93.2814 1.6231 -3.44034 0
M  V30 1028 H 94.5934 2.32466 -4.41318 0
M  V30 1029 H 93.7474 4.62865 -3.92226 0
M  V30 1030 H 92.4864 3.95799 -2.84947 0
M  V30 1031 H 91.4914 2.7071 -4.78535 0
M  V30 1032 H 92.7164 3.40856 -5.87362 0
M  V30 1033 H 90.6624 4.97923 -4.27093 0
M  V30 1034 H 90.5794 4.64006 -5.96853 0
M  V30 1035 H 91.8474 5.66096 -5.35869 0
M  V30 1036 N 96.0765 1.50051 0.48192 0
M  V30 1037 C 97.3255 1.59741 1.23149 0
M  V30 1038 C 97.6385 0.298163 1.93314 0
M  V30 1039 O 98.8445 0.273835 2.70116 0
M  V30 1040 C 97.3005 2.81926 2.23708 0
M  V30 1041 C 96.9085 4.18685 1.59396 0
M  V30 1042 C 98.6525 3.00956 2.99375 0
M  V30 1043 C 96.5595 5.3207 2.58178 0
M  V30 1044 H 95.4895 0.594838 0.46334 0
M  V30 1045 H 98.1405 1.76467 0.503169 0
M  V30 1046 H 96.5225 2.58736 2.99786 0
M  V30 1047 H 97.6965 4.52088 0.891811 0
M  V30 1048 H 96.0115 4.05171 0.960503 0
M  V30 1049 H 98.6085 3.82836 3.73283 0
M  V30 1050 H 98.9515 2.12258 3.58123 0
M  V30 1051 H 99.4845 3.24277 2.30411 0
M  V30 1052 H 96.2235 6.22888 2.04184 0
M  V30 1053 H 95.7435 5.03098 3.26577 0
M  V30 1054 H 97.4225 5.62196 3.20225 0
M  V30 1055 N 97.5546 -0.734337 1.39446 0
M  V30 1056 C 98.4846 -1.86155 1.40955 0
M  V30 1057 C 99.4656 -1.67898 0.272827 0
M  V30 1058 O 100.651 -1.88207 0.478743 0
M  V30 1059 C 97.7806 -3.23912 1.25294 0
M  V30 1060 C 96.7346 -3.56808 2.36373 0
M  V30 1061 C 96.0606 -4.93508 2.058 0
M  V30 1062 C 97.3606 -3.59713 3.78687 0
M  V30 1063 H 99.0546 -1.8515 2.35287 0
M  V30 1064 H 96.6006 -0.889367 1.13253 0
M  V30 1065 H 98.5536 -4.02443 1.2497 0
M  V30 1066 H 97.2776 -3.25446 0.274308 0
M  V30 1067 H 95.9366 -2.80606 2.35914 0
M  V30 1068 H 95.5846 -4.91623 1.06374 0
M  V30 1069 H 95.2846 -5.16486 2.80208 0
M  V30 1070 H 96.8086 -5.74396 2.07128 0
M  V30 1071 H 98.2226 -4.2832 3.81071 0
M  V30 1072 H 96.6196 -3.94209 4.52459 0
M  V30 1073 H 97.6896 -2.59504 4.09617 0
M  V30 1074 N 99.0327 -1.24633 -0.964593 0
M  V30 1075 C 100.279 -1.08949 -1.71049 0
M  V30 1076 C 100.612 0.370302 -1.90637 0
M  V30 1077 O 99.8867 1.27349 -1.47011 0
M  V30 1078 C 100.17 -1.83329 -3.0994 0
M  V30 1079 C 100.023 -3.37077 -2.97824 0
M  V30 1080 C 101.342 -1.60846 -4.09654 0
M  V30 1081 H 98.4607 -0.397178 -0.620821 0
M  V30 1082 H 101.103 -1.5334 -1.12191 0
M  V30 1083 H 99.2527 -1.45597 -3.60186 0
M  V30 1084 H 100.925 -3.84425 -2.5498 0
M  V30 1085 H 99.1677 -3.65298 -2.33965 0
M  V30 1086 H 99.8387 -3.84324 -3.96231 0
M  V30 1087 H 102.315 -1.93674 -3.68279 0
M  V30 1088 H 101.191 -2.1534 -5.04896 0
M  V30 1089 H 101.452 -0.547434 -4.38698 0
M  V30 1090 N 100.511 1.16574 -1.06058 0
M  V30 1091 C 101.474 2.19085 -0.673392 0
M  V30 1092 C 102.474 1.5835 0.279648 0
M  V30 1093 O 103.664 1.74088 0.0623488 0
M  V30 1094 C 100.796 3.40899 0.00954234 0
M  V30 1095 H 101.989 2.54853 -1.58081 0
M  V30 1096 H 99.5418 1.30808 -0.855516 0
M  V30 1097 H 100.277 3.10684 0.929826 0
M  V30 1098 H 100.062 3.86233 -0.67573 0
M  V30 1099 H 101.552 4.1675 0.266245 0
M  V30 1100 N 101.989 0.842826 1.3317 0
M  V30 1101 C 102.937 0.267495 2.31057 0
M  V30 1102 C 103.931 -0.602682 1.58316 0
M  V30 1103 O 105.137 -0.491803 1.73151 0
M  V30 1104 H 101.512 0.0677813 0.748939 0
M  V30 1105 H 103.483 1.10754 2.77085 0
M  V30 1106 C 102.232 -0.539331 3.43492 0
M  V30 1107 H 101.555 0.12095 3.99617 0
M  V30 1108 H 102.995 -0.90767 4.14171 0
M  V30 1109 C 101.454 -1.71981 2.89697 0
M  V30 1110 O 101.984 -2.81862 2.86211 0
M  V30 1111 N 100.19 -1.54299 2.46252 0
M  V30 1112 H 99.7369 -0.649143 2.49287 0
M  V30 1113 H 99.6949 -2.33431 2.10612 0
M  V30 1114 N 103.467 -1.45747 0.599634 0
M  V30 1115 C 104.883 -1.57424 0.26264 0
M  V30 1116 C 105.083 -1.59222 -1.23493 0
M  V30 1117 O 104.139 -1.51825 -2.01756 0
M  V30 1118 C 105.452 -2.86061 0.926795 0
M  V30 1119 C 107 -2.99722 0.901967 0
M  V30 1120 C 107.475 -4.31119 1.54598 0
M  V30 1121 N 108.966 -4.37858 1.5111 0
M  V30 1122 C 109.701 -5.3818 1.97863 0
M  V30 1123 N 109.197 -6.45083 2.52666 0
M  V30 1124 N 110.99 -5.29487 1.88679 0
M  V30 1125 H 103.141 -1.42823 1.57211 0
M  V30 1126 H 105.404 -0.68235 0.658105 0
M  V30 1127 H 105.11 -2.90605 1.98095 0
M  V30 1128 H 104.984 -3.74563 0.445238 0
M  V30 1129 H 107.371 -2.9475 -0.143617 0
M  V30 1130 H 107.452 -2.12652 1.42171 0
M  V30 1131 H 107.096 -4.36849 2.59085 0
M  V30 1132 H 107.026 -5.16992 1.00132 0
M  V30 1133 H 109.517 -3.61209 1.11068 0
M  V30 1134 H 109.83 -7.17869 2.86155 0
M  V30 1135 H 108.175 -6.45856 2.56701 0
M  V30 1136 H 111.366 -4.44877 1.4561 0
M  V30 1137 H 111.539 -6.07524 2.25429 0
M  V30 1138 N 104.945 -0.338344 -1.53925 0
M  V30 1139 C 106.193 0.259245 -2.0043 0
M  V30 1140 C 106.514 1.51484 -1.22791 0
M  V30 1141 O 105.784 1.93037 -0.33368 0
M  V30 1142 H 104.364 0.0987845 -0.740439 0
M  V30 1143 H 107.026 -0.458302 -1.89435 0
M  V30 1144 H 106.122 0.505334 -3.07982 0
M  V30 1145 N 106.423 1.57458 -0.0668435 0
M  V30 1146 C 107.333 2.15937 0.916975 0
M  V30 1147 C 108.349 1.12123 1.33058 0
M  V30 1148 O 109.525 1.44366 1.40429 0
M  V30 1149 C 106.59 2.70547 2.16807 0
M  V30 1150 C 105.651 3.89215 1.81135 0
M  V30 1151 C 104.884 4.41211 3.0028 0
M  V30 1152 O 105.107 3.92225 4.14144 0
M  V30 1153 O 104.041 5.32605 2.80384 0
M  V30 1154 H 107.867 3.00354 0.449561 0
M  V30 1155 H 105.452 1.48584 0.155949 0
M  V30 1156 H 107.334 3.0557 2.90181 0
M  V30 1157 H 106.009 1.89192 2.62656 0
M  V30 1158 H 104.916 3.59054 1.05028 0
M  V30 1159 H 106.249 4.71848 1.40073 0
M  V30 1160 N 107.901 -0.206675 1.56239 0
M  V30 1161 C 109.15 -0.926964 1.79138 0
M  V30 1162 C 109.463 -1.84901 0.638043 0
M  V30 1163 O 110.669 -2.60906 0.751033 0
M  V30 1164 C 109.125 -1.6986 3.17294 0
M  V30 1165 C 108.733 -0.821956 4.40395 0
M  V30 1166 C 110.477 -2.40922 3.4951 0
M  V30 1167 C 108.384 -1.59179 5.69575 0
M  V30 1168 H 107.314 -0.349864 0.667915 0
M  V30 1169 H 109.965 -0.180487 1.8261 0
M  V30 1170 H 108.347 -2.48853 3.08039 0
M  V30 1171 H 109.521 -0.0715019 4.60745 0
M  V30 1172 H 107.836 -0.222741 4.15804 0
M  V30 1173 H 110.433 -2.99047 4.43255 0
M  V30 1174 H 110.776 -3.14542 2.72707 0
M  V30 1175 H 111.309 -1.68905 3.60161 0
M  V30 1176 H 108.048 -0.898589 6.49312 0
M  V30 1177 H 107.568 -2.31648 5.53262 0
M  V30 1178 H 109.247 -2.14862 6.10281 0
M  V30 1179 N 109.379 -1.50304 -0.473955 0
M  V30 1180 C 110.342 -1.6841 -1.55469 0
M  V30 1181 C 111.342 -0.554905 -1.50922 0
M  V30 1182 O 112.532 -0.821882 -1.53593 0
M  V30 1183 C 109.664 -1.70667 -2.95102 0
M  V30 1184 H 110.857 -2.64828 -1.40733 0
M  V30 1185 H 108.41 -1.39742 -0.700132 0
M  V30 1186 H 109.145 -0.75932 -3.15285 0
M  V30 1187 H 108.93 -2.52698 -2.9981 0
M  V30 1188 H 110.42 -1.8664 -3.73571 0
M  V30 1189 N 110.857 0.726932 -1.39834 0
M  V30 1190 C 112.097 1.4992 -1.38936 0
M  V30 1191 C 112.461 1.91996 0.0126883 0
M  V30 1192 O 113.662 2.68399 0.146715 0
M  V30 1193 C 111.933 2.70013 -2.34153 0
M  V30 1194 S 113.492 3.59563 -2.51515 0
M  V30 1195 H 110.31 0.51271 -0.492595 0
M  V30 1196 H 112.912 0.85107 -1.76003 0
M  V30 1197 H 111.616 2.37254 -3.34871 0
M  V30 1198 H 111.147 3.39748 -1.98331 0
M  V30 1199 H 113.162 4.63973 -1.75909 0
M  V30 1200 N 112.336 1.25143 0.95797 0
M  V30 1201 C 113.752 1.01892 1.22842 0
M  V30 1202 C 113.952 -0.266311 1.99732 0
M  V30 1203 O 113.008 -0.979913 2.3271 0
M  V30 1204 C 114.321 2.24004 2.00606 0
M  V30 1205 C 115.869 2.28731 2.13662 0
M  V30 1206 C 116.344 3.5049 2.94823 0
M  V30 1207 N 117.835 3.50866 3.02403 0
M  V30 1208 C 118.57 4.4174 3.65586 0
M  V30 1209 N 118.066 5.42882 4.30408 0
M  V30 1210 N 119.859 4.29429 3.62694 0
M  V30 1211 H 112.01 2.07718 0.443493 0
M  V30 1212 H 114.273 0.912031 0.258657 0
M  V30 1213 H 113.979 3.17395 1.51503 0
M  V30 1214 H 113.853 2.26907 3.01319 0
M  V30 1215 H 116.24 1.35865 2.61963 0
M  V30 1216 H 116.321 2.29848 1.12265 0
M  V30 1217 H 115.965 4.43676 2.47213 0
M  V30 1218 H 115.895 3.46617 3.96439 0
M  V30 1219 H 118.386 2.777 2.56302 0
M  V30 1220 H 118.699 6.0844 4.76467 0
M  V30 1221 H 117.044 5.46758 4.29047 0
M  V30 1222 H 120.235 3.49643 3.11236 0
M  V30 1223 H 120.408 5.00448 4.1165 0
M  V30 1224 N 113.814 -1.1601 1.06675 0
M  V30 1225 C 115.06 -1.86909 0.786945 0
M  V30 1226 C 115.393 -1.81717 -0.685018 0
M  V30 1227 O 114.668 -1.23551 -1.50218 0
M  V30 1228 C 114.951 -3.36313 1.28707 0
M  V30 1229 C 114.804 -3.50175 2.82308 0
M  V30 1230 C 116.123 -4.3084 0.898071 0
M  V30 1231 H 113.242 -0.678677 0.287343 0
M  V30 1232 H 115.884 -1.36336 1.32334 0
M  V30 1233 H 114.034 -3.79513 0.830768 0
M  V30 1234 H 115.706 -3.15886 3.36175 0
M  V30 1235 H 113.949 -2.91959 3.20847 0
M  V30 1236 H 114.62 -4.55116 3.12368 0
M  V30 1237 H 117.096 -3.95561 1.29114 0
M  V30 1238 H 115.972 -5.33876 1.27543 0
M  V30 1239 H 116.233 -4.41662 -0.196651 0
M  V30 1240 N 115.292 -0.849877 -1.32721 0
M  V30 1241 C 116.541 -0.447175 -1.96681 0
M  V30 1242 C 116.854 1.00135 -1.68025 0
M  V30 1243 O 118.06 1.50926 -2.25685 0
M  V30 1244 C 116.516 -0.7487 -3.52026 0
M  V30 1245 C 116.124 -2.21264 -3.89546 0
M  V30 1246 C 117.868 -0.413487 -4.22481 0
M  V30 1247 C 115.775 -2.45763 -5.37917 0
M  V30 1248 H 114.705 -0.163486 -0.736063 0
M  V30 1249 H 117.356 -1.03999 -1.51183 0
M  V30 1250 H 115.738 -0.0853727 -3.95908 0
M  V30 1251 H 116.912 -2.91736 -3.56689 0
M  V30 1252 H 115.227 -2.5119 -3.32103 0
M  V30 1253 H 117.824 -0.574017 -5.3161 0
M  V30 1254 H 118.167 0.644492 -4.11281 0
M  V30 1255 H 118.7 -1.03251 -3.84167 0
M  V30 1256 H 115.439 -3.50168 -5.54132 0
M  V30 1257 H 114.959 -1.79864 -5.72197 0
M  V30 1258 H 116.638 -2.29471 -6.0494 0
M  V30 1259 N 116.77 1.45427 -0.607355 0
M  V30 1260 C 118.186 1.57283 -0.270985 0
M  V30 1261 C 118.386 1.59875 1.22647 0
M  V30 1262 O 117.442 1.52893 2.00948 0
M  V30 1263 C 118.755 2.85566 -0.941952 0
M  V30 1264 C 120.303 2.9924 -0.917849 0
M  V30 1265 C 120.778 4.30293 -1.56882 0
M  V30 1266 N 122.269 4.37051 -1.5343 0
M  V30 1267 C 123.004 5.37123 -2.00715 0
M  V30 1268 N 122.5 6.43734 -2.56084 0
M  V30 1269 N 124.293 5.28479 -1.91484 0
M  V30 1270 H 116.444 1.41988 -1.57966 0
M  V30 1271 H 118.707 0.67885 -0.661715 0
M  V30 1272 H 118.413 2.8955 -1.99633 0
M  V30 1273 H 118.287 3.74322 -0.465096 0
M  V30 1274 H 120.674 2.94822 0.127984 0
M  V30 1275 H 120.755 2.11895 -1.43297 0
M  V30 1276 H 120.399 4.35469 -2.61398 0
M  V30 1277 H 120.329 5.16454 -1.02873 0
M  V30 1278 H 122.82 3.60615 -1.12982 0
M  V30 1279 H 123.133 7.16341 -2.89958 0
M  V30 1280 H 121.478 6.44485 -2.60122 0
M  V30 1281 H 124.669 4.44098 -1.47967 0
M  V30 1282 H 124.842 6.0632 -2.28648 0
M  V30 1283 N 118.248 0.346503 1.53744 0
M  V30 1284 C 119.476 -0.25041 2.05379 0
M  V30 1285 C 119.891 -1.43979 1.22129 0
M  V30 1286 O 119.248 -1.80677 0.257321 0
M  V30 1287 C 119.299 -0.662575 3.55376 0
M  V30 1288 O 119.02 0.479515 4.35468 0
M  V30 1289 C 120.521 -1.31989 4.23195 0
M  V30 1290 H 117.741 -0.0478198 0.669294 0
M  V30 1291 H 120.285 0.499346 1.9831 0
M  V30 1292 H 118.44 -1.36227 3.62658 0
M  V30 1293 H 118.854 0.15037 5.24284 0
M  V30 1294 H 120.328 -1.55902 5.29527 0
M  V30 1295 H 120.805 -2.27436 3.75725 0
M  V30 1296 H 121.411 -0.662154 4.20114 0
M  V30 1297 N 119.726 -1.57421 0.075193 0
M  V30 1298 C 120.966 -1.95495 -0.596757 0
M  V30 1299 C 121.33 -0.954886 -1.66571 0
M  V30 1300 O 122.531 -1.22341 -2.39345 0
M  V30 1301 C 120.802 -3.382 -1.15566 0
M  V30 1302 S 122.361 -3.98254 -1.84226 0
M  V30 1303 H 119.179 -0.683649 -0.195307 0
M  V30 1304 H 121.781 -1.94925 0.149859 0
M  V30 1305 H 120.485 -4.08766 -0.36588 0
M  V30 1306 H 120.016 -3.42321 -1.93856 0
M  V30 1307 H 122.031 -3.85435 -3.12497 0
M  V30 1308 N 121.204 0.198386 -1.56346 0
M  V30 1309 C 122.151 1.24589 -1.94284 0
M  V30 1310 C 123.121 1.454 -0.802997 0
M  V30 1311 O 124.306 1.58588 -1.06087 0
M  V30 1312 C 121.446 2.58631 -2.28482 0
M  V30 1313 C 120.559 2.45426 -3.55514 0
M  V30 1314 C 119.694 3.7215 -3.79049 0
M  V30 1315 C 118.733 3.53763 -4.99518 0
M  V30 1316 N 117.87 4.72491 -5.19323 0
M  V30 1317 H 122.71 0.915356 -2.83593 0
M  V30 1318 H 120.247 0.440629 -1.40346 0
M  V30 1319 H 122.205 3.3672 -2.46324 0
M  V30 1320 H 120.835 2.89734 -1.42317 0
M  V30 1321 H 119.887 1.58652 -3.45737 0
M  V30 1322 H 121.199 2.27772 -4.43758 0
M  V30 1323 H 120.353 4.58679 -3.97113 0
M  V30 1324 H 119.092 3.92754 -2.89129 0
M  V30 1325 H 118.097 2.65619 -4.8138 0
M  V30 1326 H 119.322 3.34607 -5.90944 0
M  V30 1327 H 117.268 4.93365 -4.3235 0
M  V30 1328 H 117.185 4.5765 -6.01741 0
M  V30 1329 H 118.453 5.6038 -5.41843 0
M  V30 1330 N 122.682 1.50554 0.465978 0
M  V30 1331 C 123.629 1.6979 1.56333 0
M  V30 1332 C 124.599 0.539239 1.57103 0
M  V30 1333 O 125.784 0.770401 1.74555 0
M  V30 1334 C 122.924 1.80273 2.94271 0
M  V30 1335 C 122.037 3.07674 3.0325 0
M  V30 1336 C 121.172 3.08922 4.32135 0
M  V30 1337 C 120.211 4.30755 4.34875 0
M  V30 1338 N 119.348 4.29714 5.55239 0
M  V30 1339 H 124.188 2.63472 1.39235 0
M  V30 1340 H 121.725 1.30602 0.676873 0
M  V30 1341 H 123.683 1.84332 3.74269 0
M  V30 1342 H 122.313 0.900258 3.09992 0
M  V30 1343 H 121.365 3.13062 2.16094 0
M  V30 1344 H 122.677 3.97642 3.01135 0
M  V30 1345 H 121.831 3.11738 5.20485 0
M  V30 1346 H 120.57 2.16792 4.36866 0
M  V30 1347 H 119.575 4.28146 3.44922 0
M  V30 1348 H 120.8 5.24117 4.31831 0
M  V30 1349 H 118.746 3.4044 5.60746 0
M  V30 1350 H 118.663 5.13456 5.54886 0
M  V30 1351 H 119.931 4.36683 6.457 0
M  V30 1352 N 124.16 -0.719506 1.40217 0
M  V30 1353 C 125.093 -1.84298 1.34571 0
M  V30 1354 C 126.071 -1.61149 0.216741 0
M  V30 1355 O 127.255 -1.84212 0.399756 0
M  V30 1356 C 124.382 -3.20568 1.09335 0
M  V30 1357 C 123.428 -3.62551 2.24631 0
M  V30 1358 S 124.261 -3.7012 3.87004 0
M  V30 1359 C 125.417 -5.09154 3.64024 0
M  V30 1360 H 125.65 -1.88807 2.2965 0
M  V30 1361 H 123.183 -0.885901 1.26456 0
M  V30 1362 H 125.141 -3.99246 0.954602 0
M  V30 1363 H 123.802 -3.13696 0.159164 0
M  V30 1364 H 122.995 -4.61483 2.02606 0
M  V30 1365 H 122.597 -2.91119 2.34789 0
M  V30 1366 H 124.889 -5.95955 3.22248 0
M  V30 1367 H 125.832 -5.36213 4.62473 0
M  V30 1368 H 126.24 -4.79562 2.97793 0
M  V30 1369 N 125.638 -1.25649 -0.95132 0
M  V30 1370 C 126.886 -1.10375 -1.69298 0
M  V30 1371 C 127.207 0.355339 -1.91735 0
M  V30 1372 O 126.477 1.25188 -1.50681 0
M  V30 1373 H 125.057 -0.405461 -0.627384 0
M  V30 1374 H 127.719 -1.57823 -1.14358 0
M  V30 1375 H 126.815 -1.61465 -2.67087 0
M  V30 1376 N 127.117 1.15442 -1.07289 0
M  V30 1377 C 128.366 1.85557 -0.790669 0
M  V30 1378 C 128.679 1.83186 0.685739 0
M  V30 1379 O 129.885 2.48977 1.0827 0
M  V30 1380 C 128.341 3.33038 -1.36433 0
M  V30 1381 C 127.949 3.43856 -2.8717 0
M  V30 1382 C 129.693 4.0834 -1.1601 0
M  V30 1383 C 127.6 4.85482 -3.3773 0
M  V30 1384 H 126.53 0.695122 -0.292098 0
M  V30 1385 H 129.181 1.30219 -1.29287 0
M  V30 1386 H 127.563 3.88043 -0.789864 0
M  V30 1387 H 128.737 2.98961 -3.50655 0
M  V30 1388 H 127.052 2.81998 -3.06376 0
M  V30 1389 H 129.649 5.12859 -1.51262 0
M  V30 1390 H 129.992 4.16182 -0.0991007 0
M  V30 1391 H 130.525 3.59603 -1.70089 0
M  V30 1392 H 127.264 4.82823 -4.43353 0
M  V30 1393 H 126.784 5.30961 -2.78999 0
M  V30 1394 H 128.463 5.54335 -3.33648 0
M  V30 1395 N 128.595 0.856903 1.32268 0
M  V30 1396 C 129.542 0.301172 2.28827 0
M  V30 1397 C 130.512 -0.593104 1.5515 0
M  V30 1398 O 131.697 -0.527537 1.83362 0
M  V30 1399 C 128.837 -0.502523 3.41422 0
M  V30 1400 C 127.95 0.417797 4.29975 0
M  V30 1401 C 127.085 -0.398749 5.29701 0
M  V30 1402 C 126.124 0.518827 6.09897 0
M  V30 1403 N 125.261 -0.260674 7.01616 0
M  V30 1404 H 130.101 1.12983 2.75751 0
M  V30 1405 H 127.638 0.568582 1.35667 0
M  V30 1406 H 129.596 -0.984141 4.05426 0
M  V30 1407 H 128.226 -1.29599 2.95642 0
M  V30 1408 H 127.278 1.01781 3.66531 0
M  V30 1409 H 128.59 1.12191 4.86019 0
M  V30 1410 H 127.744 -0.943435 5.9932 0
M  V30 1411 H 126.483 -1.13622 4.7428 0
M  V30 1412 H 125.488 1.07538 5.39181 0
M  V30 1413 H 126.713 1.25495 6.67404 0
M  V30 1414 H 124.659 -0.981198 6.4862 0
M  V30 1415 H 124.576 0.384364 7.55022 0
M  V30 1416 H 125.844 -0.787014 7.75517 0
M  V30 1417 N 130.073 -1.45103 0.615059 0
M  V30 1418 C 131.301 -2.06553 0.11977 0
M  V30 1419 C 131.716 -1.45842 -1.19898 0
M  V30 1420 O 131.073 -0.575325 -1.73194 0
M  V30 1421 C 131.124 -3.61495 -0.018364 0
M  V30 1422 O 130.845 -4.19942 1.24822 0
M  V30 1423 C 132.346 -4.39947 -0.544237 0
M  V30 1424 H 129.566 -0.667096 0.0722739 0
M  V30 1425 H 132.11 -1.8623 0.84491 0
M  V30 1426 H 130.265 -3.81135 -0.693865 0
M  V30 1427 H 130.679 -5.13204 1.0827 0
M  V30 1428 H 132.153 -5.48838 -0.589953 0
M  V30 1429 H 132.63 -4.10255 -1.56805 0
M  V30 1430 H 133.236 -4.25188 0.0974703 0
M  V30 1431 N 131.551 -0.354651 -1.53558 0
M  V30 1432 C 132.797 0.238797 -2.01389 0
M  V30 1433 C 133.13 1.49309 -1.2418 0
M  V30 1434 O 132.405 1.91638 -0.332457 0
M  V30 1435 C 132.688 0.541771 -3.56001 0
M  V30 1436 C 132.541 -0.725388 -4.43912 0
M  V30 1437 C 133.86 1.34685 -4.18984 0
M  V30 1438 H 130.979 0.0853177 -0.732045 0
M  V30 1439 H 133.621 -0.477384 -1.83905 0
M  V30 1440 H 131.771 1.15189 -3.71031 0
M  V30 1441 H 133.443 -1.36313 -4.407 0
M  V30 1442 H 131.686 -1.34801 -4.12324 0
M  V30 1443 H 132.357 -0.468505 -5.50008 0
M  V30 1444 H 134.833 0.830837 -4.07721 0
M  V30 1445 H 133.709 1.52759 -5.27215 0
M  V30 1446 H 133.97 2.35221 -3.74331 0
M  V30 1447 N 133.029 1.57378 -0.0835403 0
M  V30 1448 C 133.992 2.12252 0.864959 0
M  V30 1449 C 134.992 1.04916 1.21858 0
M  V30 1450 O 136.182 1.30853 1.14991 0
M  V30 1451 C 133.314 2.63358 2.16461 0
M  V30 1452 H 134.507 2.97371 0.388676 0
M  V30 1453 H 132.06 1.55423 0.165317 0
M  V30 1454 H 132.795 1.81727 2.686 0
M  V30 1455 H 132.58 3.41826 1.92087 0
M  V30 1456 H 134.07 3.05847 2.84337 0
M  V30 1457 N 134.507 -0.190092 1.56449 0
M  V30 1458 C 135.756 -0.907912 1.80111 0
M  V30 1459 C 136.069 -1.84214 0.657619 0
M  V30 1460 O 137.275 -2.60094 0.778663 0
M  V30 1461 C 135.731 -1.66485 3.19078 0
M  V30 1462 C 135.339 -0.7752 4.41242 0
M  V30 1463 C 137.083 -2.37201 3.52045 0
M  V30 1464 C 134.99 -1.53129 5.71231 0
M  V30 1465 H 133.92 -0.34276 0.671589 0
M  V30 1466 H 136.571 -0.161109 1.82791 0
M  V30 1467 H 134.953 -2.45572 3.10661 0
M  V30 1468 H 136.127 -0.0226298 4.60794 0
M  V30 1469 H 134.442 -0.178627 4.16017 0
M  V30 1470 H 137.039 -2.94329 4.46402 0
M  V30 1471 H 137.382 -3.11632 2.76028 0
M  V30 1472 H 137.915 -1.65075 3.61932 0
M  V30 1473 H 134.654 -0.82967 6.50228 0
M  V30 1474 H 134.174 -2.25767 5.55688 0
M  V30 1475 H 135.853 -2.08377 6.12526 0
M  V30 1476 N 135.985 -1.50799 -0.457987 0
M  V30 1477 C 136.935 -1.67003 -1.55222 0
M  V30 1478 C 137.919 -0.52434 -1.52117 0
M  V30 1479 O 139.111 -0.779345 -1.58919 0
M  V30 1480 C 136.24 -1.77956 -2.93576 0
M  V30 1481 C 135.326 -2.98243 -3.01516 0
M  V30 1482 N 135.717 -4.21732 -2.79241 0
M  V30 1483 C 134.015 -2.97072 -3.32662 0
M  V30 1484 C 134.716 -5.02817 -2.92489 0
M  V30 1485 N 133.692 -4.37038 -3.23262 0
M  V30 1486 H 137.494 -2.60163 -1.36721 0
M  V30 1487 H 135.008 -1.48163 -0.664952 0
M  V30 1488 H 137.005 -1.87671 -3.72271 0
M  V30 1489 H 135.665 -0.859634 -3.13114 0
M  V30 1490 H 136.676 -4.51016 -2.54567 0
M  V30 1491 H 133.353 -2.14631 -3.58106 0
M  V30 1492 H 134.743 -6.11054 -2.79396 0
M  V30 1493 N 137.463 0.71206 -1.40597 0
M  V30 1494 C 138.688 1.50617 -1.42581 0
M  V30 1495 C 139.113 1.88079 -0.0282102 0
M  V30 1496 O 138.471 1.53511 0.964579 0
M  V30 1497 C 138.519 2.7557 -2.3258 0
M  V30 1498 O 137.623 3.72414 -1.77148 0
M  V30 1499 H 136.964 0.453966 -0.484573 0
M  V30 1500 H 139.494 0.876649 -1.84868 0
M  V30 1501 H 139.504 3.2406 -2.47889 0
M  V30 1502 H 138.179 2.47639 -3.34138 0
M  V30 1503 H 136.756 3.31276 -1.71204 0
M  V30 1504 N 138.941 1.26152 0.944643 0
M  V30 1505 C 140.218 1.02247 1.66748 0
M  V30 1506 C 140.598 -0.448202 2.06287 0
M  V30 1507 O 139.946 -1.42779 1.78399 0
M  V30 1508 C 140.156 1.96788 2.88228 0
M  V30 1509 C 141.504 2.25201 3.59958 0
M  V30 1510 O 142.528 1.94626 2.98327 0
M  V30 1511 O 141.387 2.77242 4.70956 0
M  V30 1512 H 138.481 0.388517 0.730057 0
M  V30 1513 H 141.027 1.37348 0.99668 0
M  V30 1514 H 139.799 2.96047 2.55875 0
M  V30 1515 H 139.422 1.62145 3.63035 0
M  V30 1516 N 140.419 -1.14872 1.07899 0
M  V30 1517 C 141.665 -1.86064 0.806725 0
M  V30 1518 C 141.998 -1.82434 -0.665706 0
M  V30 1519 O 141.273 -1.25138 -1.48899 0
M  V30 1520 C 141.556 -3.34929 1.32267 0
M  V30 1521 C 141.409 -3.47161 2.86006 0
M  V30 1522 C 142.728 -4.29863 0.943717 0
M  V30 1523 H 139.847 -0.675591 0.294526 0
M  V30 1524 H 142.489 -1.34925 1.33773 0
M  V30 1525 H 140.639 -3.78611 0.870974 0
M  V30 1526 H 142.311 -3.12302 3.39507 0
M  V30 1527 H 140.554 -2.88539 3.23925 0
M  V30 1528 H 141.225 -4.51777 3.17177 0
M  V30 1529 H 143.701 -3.9417 1.33302 0
M  V30 1530 H 142.577 -5.32494 1.33198 0
M  V30 1531 H 142.838 -4.41846 -0.149796 0
M  V30 1532 N 141.898 -0.863906 -1.31812 0
M  V30 1533 C 143.175 -0.39275 -1.91616 0
M  V30 1534 C 143.555 1.12461 -1.7865 0
M  V30 1535 O 142.903 1.95045 -1.19037 0
M  V30 1536 C 143.113 -0.867385 -3.38049 0
M  V30 1537 C 144.461 -0.889966 -4.15168 0
M  V30 1538 O 145.485 -0.812635 -3.46806 0
M  V30 1539 O 144.344 -1.00079 -5.37258 0
M  V30 1540 H 141.438 -0.116358 -0.818773 0
M  V30 1541 H 143.984 -0.951418 -1.40521 0
M  V30 1542 H 142.756 -1.91081 -3.41473 0
M  V30 1543 H 142.379 -0.286687 -3.96565 0
M  V30 1544 N 143.376 1.44774 -0.622745 0
M  V30 1545 C 144.339 2.29069 0.0774015 0
M  V30 1546 C 145.339 1.4059 0.780461 0
M  V30 1547 O 146.529 1.62551 0.626322 0
M  V30 1548 C 143.661 3.21974 1.12006 0
M  V30 1549 H 144.854 2.92459 -0.663901 0
M  V30 1550 H 142.407 1.51548 -0.382486 0
M  V30 1551 H 143.142 2.63417 1.89162 0
M  V30 1552 H 142.927 3.87168 0.619951 0
M  V30 1553 H 144.417 3.85318 1.60995 0
M  V30 1554 N 144.854 0.36279 1.53368 0
M  V30 1555 C 146.079 -0.231226 2.06107 0
M  V30 1556 C 146.504 -1.419 1.23474 0
M  V30 1557 O 145.862 -1.79524 0.253128 0
M  V30 1558 C 145.91 -0.605523 3.5548 0
M  V30 1559 O 145.014 -1.70312 3.7559 0
M  V30 1560 H 144.355 -0.034327 0.663112 0
M  V30 1561 H 146.885 0.522584 1.97814 0
M  V30 1562 H 146.895 -0.877314 3.98456 0
M  V30 1563 H 145.57 0.263004 4.15068 0
M  V30 1564 H 144.147 -1.4271 3.44512 0
M  V30 1565 N 146.332 -1.57332 0.0918853 0
M  V30 1566 C 147.557 -1.98995 -0.584442 0
M  V30 1567 C 147.982 -0.970528 -1.61128 0
M  V30 1568 O 147.34 0.0613904 -1.81196 0
M  V30 1569 C 147.388 -3.39636 -1.21161 0
M  V30 1570 O 146.492 -3.40447 -2.32744 0
M  V30 1571 H 145.833 -0.647165 -0.148572 0
M  V30 1572 H 148.363 -2.03873 0.172347 0
M  V30 1573 H 148.373 -3.7726 -1.55367 0
M  V30 1574 H 147.048 -4.13356 -0.459313 0
M  V30 1575 H 145.625 -3.14614 -2.0018 0
M  V30 1576 N 147.81 0.181792 -1.56548 0
M  V30 1577 C 149.056 0.901431 -1.81665 0
M  V30 1578 C 149.389 1.82347 -0.668075 0
M  V30 1579 O 148.664 1.91669 0.330615 0
M  V30 1580 C 148.947 1.70618 -3.17115 0
M  V30 1581 C 148.8 0.807964 -4.42484 0
M  V30 1582 C 150.119 2.67605 -3.49393 0
M  V30 1583 H 147.238 0.32627 -0.660846 0
M  V30 1584 H 149.88 0.168134 -1.89255 0
M  V30 1585 H 148.03 2.33133 -3.10775 0
M  V30 1586 H 149.702 0.19649 -4.60881 0
M  V30 1587 H 147.945 0.115411 -4.33646 0
M  V30 1588 H 148.616 1.40632 -5.33785 0
M  V30 1589 H 151.092 2.15218 -3.56118 0
M  V30 1590 H 149.968 3.20985 -4.45264 0
M  V30 1591 H 150.229 3.47298 -2.73563 0
M  V30 1592 N 149.288 1.51039 0.449983 0
M  V30 1593 C 150.238 1.67824 1.54335 0
M  V30 1594 C 151.222 0.5324 1.51836 0
M  V30 1595 O 152.414 0.787762 1.58503 0
M  V30 1596 C 149.543 1.7951 2.92628 0
M  V30 1597 C 148.629 2.99838 2.9993 0
M  V30 1598 N 149.02 4.23207 2.77001 0
M  V30 1599 C 147.318 2.98832 3.31082 0
M  V30 1600 C 148.019 5.04361 2.89818 0
M  V30 1601 N 146.995 4.38746 3.2094 0
M  V30 1602 H 150.797 2.60884 1.35339 0
M  V30 1603 H 148.311 1.48513 0.657085 0
M  V30 1604 H 150.308 1.89642 3.7127 0
M  V30 1605 H 148.968 0.876227 3.12654 0
M  V30 1606 H 149.979 4.5236 2.52172 0
M  V30 1607 H 146.656 2.16527 3.56963 0
M  V30 1608 H 148.046 6.12528 2.76151 0
M  V30 1609 N 150.766 -0.704594 1.40972 0
M  V30 1610 C 152.012 -1.46675 1.40051 0
M  V30 1611 C 152.345 -1.94199 0.00641102 0
M  V30 1612 O 151.62 -1.68916 -0.964235 0
M  V30 1613 C 151.903 -2.68505 2.39952 0
M  V30 1614 C 151.756 -2.26805 3.88432 0
M  V30 1615 C 153.075 -3.70686 2.37233 0
M  V30 1616 H 150.194 -0.532015 0.510028 0
M  V30 1617 H 152.836 -0.803255 1.72185 0
M  V30 1618 H 150.986 -3.25114 2.1268 0
M  V30 1619 H 152.658 -1.75592 4.26574 0
M  V30 1620 H 150.901 -1.58685 4.03734 0
M  V30 1621 H 151.572 -3.14181 4.53866 0
M  V30 1622 H 154.048 -3.23731 2.61415 0
M  V30 1623 H 152.924 -4.53553 3.09162 0
M  V30 1624 H 153.185 -4.19754 1.38777 0
M  V30 1625 N 152.244 -1.26651 -0.937939 0
M  V30 1626 C 153.191 -1.0849 -2.03712 0
M  V30 1627 C 154.161 0.011033 -1.66096 0
M  V30 1628 O 155.346 -0.149353 -1.90215 0
M  V30 1629 C 152.486 -0.72735 -3.37348 0
M  V30 1630 C 151.599 -1.89986 -3.87981 0
M  V30 1631 C 150.734 -1.48513 -5.10017 0
M  V30 1632 C 149.773 -2.62575 -5.5292 0
M  V30 1633 N 148.91 -2.21762 -6.66158 0
M  V30 1634 H 153.75 -2.02551 -2.18579 0
M  V30 1635 H 151.287 -1.00844 -1.07093 0
M  V30 1636 H 153.245 -0.50092 -4.14182 0
M  V30 1637 H 151.875 0.176298 -3.22318 0
M  V30 1638 H 150.927 -2.23913 -3.07518 0
M  V30 1639 H 152.239 -2.75586 -4.15757 0
M  V30 1640 H 151.393 -1.21934 -5.94321 0
M  V30 1641 H 150.132 -0.60009 -4.83994 0
M  V30 1642 H 149.137 -2.8988 -4.67172 0
M  V30 1643 H 150.362 -3.51685 -5.80943 0
M  V30 1644 H 148.308 -1.35696 -6.41812 0
M  V30 1645 H 148.225 -3.00903 -6.93537 0
M  V30 1646 H 149.493 -1.98403 -7.53828 0
M  V30 1647 N 153.722 1.14298 -1.08507 0
M  V30 1648 C 154.655 2.18447 -0.660004 0
M  V30 1649 C 155.633 1.59242 0.328749 0
M  V30 1650 O 156.817 1.87062 0.232367 0
M  V30 1651 C 153.944 3.38688 0.0290807 0
M  V30 1652 C 152.99 4.1646 -0.919982 0
M  V30 1653 S 153.823 4.77334 -2.42718 0
M  V30 1654 C 154.979 6.00931 -1.75024 0
M  V30 1655 H 155.212 2.54166 -1.54231 0
M  V30 1656 H 152.745 1.25446 -0.900149 0
M  V30 1657 H 154.703 4.08342 0.420378 0
M  V30 1658 H 153.364 3.01289 0.887895 0
M  V30 1659 H 152.557 5.02529 -0.384751 0
M  V30 1660 H 152.159 3.52414 -1.25223 0
M  V30 1661 H 154.451 6.69017 -1.06877 0
M  V30 1662 H 155.394 6.59044 -2.58971 0
M  V30 1663 H 155.802 5.51089 -1.22317 0
M  V30 1664 N 155.201 0.870884 1.31352 0
M  V30 1665 C 156.164 0.332243 2.26779 0
M  V30 1666 C 157.164 -0.517302 1.52252 0
M  V30 1667 O 158.354 -0.326477 1.71113 0
M  V30 1668 C 155.486 -0.528066 3.36785 0
M  V30 1669 H 156.679 1.17469 2.75937 0
M  V30 1670 H 154.232 0.64655 1.423 0
M  V30 1671 H 154.967 -1.39167 2.92922 0
M  V30 1672 H 154.752 0.0802582 3.92018 0
M  V30 1673 H 156.242 -0.897179 4.07849 0
M  V30 1674 N 156.679 -1.44442 0.630414 0
M  V30 1675 C 157.956 -1.9549 0.0655657 0
M  V30 1676 C 158.336 -1.5724 -1.40851 0
M  V30 1677 O 157.684 -0.846116 -2.12257 0
M  V30 1678 C 157.894 -3.47812 0.287691 0
M  V30 1679 C 159.242 -4.24216 0.180513 0
M  V30 1680 O 160.266 -3.55526 0.219019 0
M  V30 1681 O 159.125 -5.46434 0.0848493 0
M  V30 1682 H 156.219 -0.826688 -0.0227177 0
M  V30 1683 H 158.765 -1.54496 0.702068 0
M  V30 1684 H 157.537 -3.687 1.31056 0
M  V30 1685 H 157.16 -3.95751 -0.382984 0
M  V30 1686 N 158.157 -0.370918 -1.53173 0
M  V30 1687 C 159.067 0.480823 -2.2962 0
M  V30 1688 C 160.083 1.08789 -1.35798 0
M  V30 1689 O 161.259 1.09768 -1.68858 0
M  V30 1690 C 158.324 1.60227 -3.07454 0
M  V30 1691 C 157.385 1.0222 -4.16953 0
M  V30 1692 C 156.618 2.0902 -4.91066 0
M  V30 1693 O 156.841 3.30222 -4.65091 0
M  V30 1694 O 155.775 1.71778 -5.76867 0
M  V30 1695 H 159.601 -0.141421 -3.03371 0
M  V30 1696 H 157.186 -0.135146 -1.48787 0
M  V30 1697 H 159.068 2.25417 -3.56041 0
M  V30 1698 H 157.743 2.20982 -2.36535 0
M  V30 1699 H 156.65 0.334064 -3.72605 0
M  V30 1700 H 157.983 0.459131 -4.90054 0
M  V30 1701 N 159.635 1.57281 -0.100228 0
M  V30 1702 C 160.598 2.13158 0.842398 0
M  V30 1703 C 161.598 1.06202 1.20738 0
M  V30 1704 O 162.788 1.32066 1.13597 0
M  V30 1705 C 159.92 2.65639 2.13655 0
M  V30 1706 H 161.113 2.97766 0.357114 0
M  V30 1707 H 158.666 1.5559 0.148823 0
M  V30 1708 H 159.401 1.84566 2.66657 0
M  V30 1709 H 159.186 3.43844 1.88451 0
M  V30 1710 H 160.676 3.08846 2.81077 0
M  V30 1711 N 161.113 -0.173488 1.56642 0
M  V30 1712 C 162.359 -0.891784 1.8214 0
M  V30 1713 C 162.692 -1.8199 0.677736 0
M  V30 1714 O 161.967 -1.91842 -0.320446 0
M  V30 1715 C 162.25 -1.68933 3.18015 0
M  V30 1716 C 162.103 -0.784487 4.42906 0
M  V30 1717 C 163.422 -2.65748 3.50808 0
M  V30 1718 H 160.541 -0.322761 0.662567 0
M  V30 1719 H 163.183 -0.158095 1.89341 0
M  V30 1720 H 161.333 -2.31482 3.12007 0
M  V30 1721 H 163.005 -0.172046 4.60979 0
M  V30 1722 H 161.248 -0.0924117 4.33702 0
M  V30 1723 H 161.919 -1.37799 5.34524 0
M  V30 1724 H 164.395 -2.13327 3.57255 0
M  V30 1725 H 163.271 -3.18619 4.4696 0
M  V30 1726 H 163.532 -3.45842 2.75401 0
M  V30 1727 N 162.591 -1.51276 -0.441967 0
M  V30 1728 C 163.831 -1.65372 -1.20132 0
M  V30 1729 C 164.195 -0.359871 -1.88597 0
M  V30 1730 O 165.396 -0.376551 -2.66149 0
M  V30 1731 C 163.667 -2.8207 -2.1948 0
M  V30 1732 S 165.226 -3.16467 -3.03964 0
M  V30 1733 H 162.044 -0.582669 -0.407453 0
M  V30 1734 H 164.646 -1.89166 -0.493609 0
M  V30 1735 H 163.35 -3.74523 -1.67812 0
M  V30 1736 H 162.881 -2.6045 -2.94838 0
M  V30 1737 H 164.896 -2.62543 -4.21053 0
M  V30 1738 N 164.069 0.697108 -1.41344 0
M  V30 1739 C 165.315 1.4593 -1.40827 0
M  V30 1740 C 165.648 1.94193 -0.0167098 0
M  V30 1741 O 164.923 1.69425 0.955263 0
M  V30 1742 C 165.206 2.67229 -2.41373 0
M  V30 1743 C 165.059 2.24741 -3.8963 0
M  V30 1744 C 166.378 3.69423 -2.39196 0
M  V30 1745 H 163.497 0.529303 -0.512842 0
M  V30 1746 H 166.139 0.794112 -1.72609 0
M  V30 1747 H 164.289 3.23982 -2.14401 0
M  V30 1748 H 165.961 1.73327 -4.27499 0
M  V30 1749 H 164.204 1.56542 -4.0457 0
M  V30 1750 H 164.875 3.1177 -4.55525 0
M  V30 1751 H 167.351 3.2234 -2.63128 0
M  V30 1752 H 166.227 4.51907 -3.11563 0
M  V30 1753 H 166.488 4.19012 -1.41001 0
M  V30 1754 N 165.547 1.27147 0.931209 0
M  V30 1755 C 166.795 1.13055 1.6752 0
M  V30 1756 C 167.116 -0.324791 1.92276 0
M  V30 1757 O 166.386 -1.22775 1.52654 0
M  V30 1758 H 164.966 0.415391 0.620854 0
M  V30 1759 H 167.628 1.59623 1.11833 0
M  V30 1760 H 166.724 1.65694 2.64485 0
M  V30 1761 N 167.025 -1.13721 1.09112 0
M  V30 1762 C 168.436 -1.6648 0.845068 0
M  V30 1763 C 168.787 -1.85911 -0.62701 0
M  V30 1764 O 167.912 -1.57556 -1.48341 0
M  V30 1765 C 168.507 -3.02413 1.52748 0
M  V30 1766 C 167.066 -3.52176 1.32849 0
M  V30 1767 C 166.213 -2.27492 1.58564 0
M  V30 1768 H 169.164 -0.976872 1.25072 0
M  V30 1769 H 169.185 -3.68223 0.958752 0
M  V30 1770 H 168.697 -2.88238 2.59885 0
M  V30 1771 H 166.798 -3.7156 0.278137 0
M  V30 1772 H 166.911 -4.32499 2.0611 0
M  V30 1773 H 165.275 -2.33923 1.00758 0
M  V30 1774 H 166.058 -2.15886 2.66924 0
M  V30 1775 N 168.503 -0.877838 -1.30888 0
M  V30 1776 C 169.466 -0.344265 -2.266 0
M  V30 1777 C 170.466 0.50922 -1.52524 0
M  V30 1778 O 171.656 0.317398 -1.71284 0
M  V30 1779 C 168.788 0.510198 -3.37061 0
M  V30 1780 H 169.981 -1.1893 -2.7531 0
M  V30 1781 H 167.534 -0.654088 -1.41956 0
M  V30 1782 H 168.269 1.37612 -2.93655 0
M  V30 1783 H 168.054 -0.101047 -3.9197 0
M  V30 1784 H 169.544 0.875537 -4.08319 0
M  V30 1785 N 169.982 1.44106 -0.638065 0
M  V30 1786 C 171.393 1.85316 -0.226894 0
M  V30 1787 C 171.744 1.53399 1.22324 0
M  V30 1788 O 170.869 0.975463 1.93167 0
M  V30 1789 C 171.464 3.3637 -0.405013 0
M  V30 1790 C 170.023 3.76369 -0.0482902 0
M  V30 1791 C 169.17 2.67921 -0.715108 0
M  V30 1792 H 172.121 1.34474 -0.842764 0
M  V30 1793 H 172.142 3.7885 0.354 0
M  V30 1794 H 171.654 3.59569 -1.46053 0
M  V30 1795 H 169.755 3.58784 1.00522 0
M  V30 1796 H 169.868 4.76856 -0.463187 0
M  V30 1797 H 168.232 2.54259 -0.149753 0
M  V30 1798 H 169.015 2.93951 -1.77335 0
M  V30 1799 N 171.46 0.379036 1.52974 0
M  V30 1800 C 172.688 -0.20679 2.05864 0
M  V30 1801 C 173.103 -1.41356 1.25155 0
M  V30 1802 O 172.46 -1.8009 0.295588 0
M  V30 1803 C 172.511 -0.587045 3.56702 0
M  V30 1804 O 172.232 0.571776 4.34353 0
M  V30 1805 C 173.733 -1.22983 4.25899 0
M  V30 1806 H 170.953 -0.0336123 0.670158 0
M  V30 1807 H 173.497 0.541298 1.97206 0
M  V30 1808 H 171.652 -1.28504 3.65466 0
M  V30 1809 H 172.066 0.261544 5.23847 0
M  V30 1810 H 173.54 -1.44635 5.32715 0
M  V30 1811 H 174.017 -2.19416 3.80465 0
M  V30 1812 H 174.623 -0.572892 4.21424 0
M  V30 1813 N 172.938 -1.57226 0.108567 0
M  V30 1814 C 174.163 -1.99604 -0.563303 0
M  V30 1815 C 174.588 -0.987563 -1.6009 0
M  V30 1816 O 173.946 0.0421687 -1.81251 0
M  V30 1817 C 173.994 -3.40902 -1.17552 0
M  V30 1818 O 173.098 -3.42896 -2.2912 0
M  V30 1819 H 172.439 -0.648704 -0.1417 0
M  V30 1820 H 174.969 -2.03679 0.193961 0
M  V30 1821 H 174.979 -3.78886 -1.51357 0
M  V30 1822 H 173.654 -4.1382 -0.415445 0
M  V30 1823 H 172.231 -3.1672 -1.96832 0
M  V30 1824 N 174.416 0.165178 -1.56732 0
M  V30 1825 C 175.363 1.2044 -1.96883 0
M  V30 1826 C 176.333 1.43664 -0.833657 0
M  V30 1827 O 177.518 1.56302 -1.09427 0
M  V30 1828 C 174.658 2.53727 -2.33916 0
M  V30 1829 C 173.771 2.3783 -3.6064 0
M  V30 1830 C 172.906 3.64026 -3.86857 0
M  V30 1831 C 171.945 3.43088 -5.06909 0
M  V30 1832 N 171.082 4.61369 -5.29229 0
M  V30 1833 H 175.922 0.854996 -2.85471 0
M  V30 1834 H 173.459 0.41076 -1.41249 0
M  V30 1835 H 175.417 3.31419 -2.53411 0
M  V30 1836 H 174.047 2.8665 -1.48431 0
M  V30 1837 H 173.099 1.51282 -3.49024 0
M  V30 1838 H 174.411 2.18308 -4.4849 0
M  V30 1839 H 173.565 4.50152 -4.06753 0
M  V30 1840 H 172.304 3.86533 -2.97394 0
M  V30 1841 H 171.309 2.55349 -4.86906 0
M  V30 1842 H 172.534 3.21997 -5.97909 0
M  V30 1843 H 170.48 4.84084 -4.42718 0
M  V30 1844 H 170.397 4.44783 -6.11313 0
M  V30 1845 H 171.665 5.48761 -5.53608 0
M  V30 1846 N 175.894 1.51508 0.433938 0
M  V30 1847 C 177.119 1.68443 1.21003 0
M  V30 1848 C 177.544 0.382636 1.84167 0
M  V30 1849 O 176.902 -0.65755 1.68956 0
M  V30 1850 C 176.95 2.80405 2.26727 0
M  V30 1851 O 176.054 2.44245 3.32292 0
M  V30 1852 H 175.395 0.561536 0.354363 0
M  V30 1853 H 177.925 1.9809 0.512024 0
M  V30 1854 H 177.935 3.0459 2.71457 0
M  V30 1855 H 176.61 3.74867 1.80132 0
M  V30 1856 H 175.187 2.30644 2.93015 0
M  V30 1857 N 177.372 -0.689602 1.41712 0
M  V30 1858 C 178.602 -1.47613 1.44548 0
M  V30 1859 C 179.01 -1.89132 0.0509034 0
M  V30 1860 O 178.353 -1.57741 -0.94146 0
M  V30 1861 C 178.415 -2.76596 2.2964 0
M  V30 1862 C 178.079 -2.57245 3.77722 0
M  V30 1863 C 179.076 -2.22804 4.69739 0
M  V30 1864 C 176.761 -2.727 4.2183 0
M  V30 1865 C 178.755 -2.04064 6.03851 0
M  V30 1866 C 176.442 -2.53576 5.56006 0
M  V30 1867 C 177.44 -2.1931 6.46832 0
M  V30 1868 O 177.128 -2.00359 7.78532 0
M  V30 1869 H 176.86 -0.461227 0.494212 0
M  V30 1870 H 179.414 -0.856045 1.86711 0
M  V30 1871 H 177.644 -3.41033 1.82301 0
M  V30 1872 H 179.333 -3.38424 2.24107 0
M  V30 1873 H 180.099 -2.10473 4.36951 0
M  V30 1874 H 175.978 -2.98353 3.51435 0
M  V30 1875 H 179.522 -1.77241 6.74708 0
M  V30 1876 H 175.419 -2.65499 5.88371 0
M  V30 1877 H 176.187 -2.15075 7.89737 0
M  V30 1878 N 178.85 -1.27639 -0.924453 0
M  V30 1879 C 179.78 -1.13166 -2.04244 0
M  V30 1880 C 180.761 -0.032256 -1.70069 0
M  V30 1881 O 181.946 -0.207328 -1.9309 0
M  V30 1882 C 179.076 -0.781496 -3.38393 0
M  V30 1883 C 178.03 -1.83449 -3.86692 0
M  V30 1884 C 177.356 -1.33822 -5.17683 0
M  V30 1885 C 178.656 -3.23917 -4.09726 0
M  V30 1886 H 180.35 -2.06689 -2.1661 0
M  V30 1887 H 177.896 -0.995136 -1.04082 0
M  V30 1888 H 179.849 -0.667057 -4.16087 0
M  V30 1889 H 178.573 0.189439 -3.2605 0
M  V30 1890 H 177.232 -1.93789 -3.11193 0
M  V30 1891 H 176.88 -0.35665 -5.01734 0
M  V30 1892 H 176.58 -2.04224 -5.50968 0
M  V30 1893 H 178.104 -1.23679 -5.97943 0
M  V30 1894 H 179.518 -3.16559 -4.77978 0
M  V30 1895 H 177.915 -3.92059 -4.54324 0
M  V30 1896 H 178.985 -3.68729 -3.14908 0
M  V30 1897 N 180.328 1.1314 -1.09713 0
M  V30 1898 C 181.276 2.20717 -0.733934 0
M  V30 1899 C 182.27 1.6729 0.266506 0
M  V30 1900 O 183.476 1.79547 0.127656 0
M  V30 1901 H 179.851 0.719292 -0.21937 0
M  V30 1902 H 181.822 2.48611 -1.6503 0
M  V30 1903 C 180.571 3.47265 -0.173849 0
M  V30 1904 H 179.894 3.88716 -0.934873 0
M  V30 1905 H 181.334 4.23979 0.0423126 0
M  V30 1906 C 179.793 3.18724 1.09164 0
M  V30 1907 O 180.323 3.37762 2.17439 0
M  V30 1908 N 178.529 2.72583 1.00732 0
M  V30 1909 H 178.076 2.57291 0.126121 0
M  V30 1910 H 178.034 2.53862 1.85476 0
M  V30 1911 N 181.806 0.884767 1.30421 0
M  V30 1912 C 182.739 0.295999 2.26272 0
M  V30 1913 C 183.717 -0.58332 1.51777 0
M  V30 1914 O 184.901 -0.53346 1.80794 0
M  V30 1915 C 182.028 -0.57944 3.33707 0
M  V30 1916 C 181.074 0.230525 4.25877 0
M  V30 1917 S 181.907 1.61867 5.1045 0
M  V30 1918 C 183.063 0.749756 6.21393 0
M  V30 1919 H 183.296 1.10848 2.75862 0
M  V30 1920 H 180.829 0.684178 1.38414 0
M  V30 1921 H 182.787 -1.07879 3.96071 0
M  V30 1922 H 181.448 -1.36601 2.82841 0
M  V30 1923 H 180.641 -0.437542 5.02097 0
M  V30 1924 H 180.243 0.662493 3.68086 0
M  V30 1925 H 182.535 -0.0333547 6.77492 0
M  V30 1926 H 183.478 1.48356 6.92384 0
M  V30 1927 H 183.886 0.310751 5.63644 0
M  V30 1928 N 183.284 -1.43765 0.645699 0
M  V30 1929 C 184.561 -1.9541 0.0862963 0
M  V30 1930 C 184.941 -1.58725 -1.39175 0
M  V30 1931 O 184.289 -0.868581 -2.11348 0
M  V30 1932 C 184.499 -3.47488 0.324565 0
M  V30 1933 C 185.847 -4.24001 0.225497 0
M  V30 1934 O 186.871 -3.55274 0.256715 0
M  V30 1935 O 185.73 -5.46313 0.142801 0
M  V30 1936 H 182.824 -0.826882 -0.0139483 0
M  V30 1937 H 185.37 -1.53743 0.718415 0
M  V30 1938 H 184.142 -3.67289 1.3496 0
M  V30 1939 H 183.765 -3.96135 -0.340987 0
M  V30 1940 N 184.763 -0.387143 -1.52771 0
M  V30 1941 C 185.726 0.436939 -2.24997 0
M  V30 1942 C 186.726 0.991991 -1.26555 0
M  V30 1943 O 187.916 0.874335 -1.50669 0
M  V30 1944 C 185.048 1.61281 -3.00335 0
M  V30 1945 H 186.241 -0.195365 -2.99263 0
M  V30 1946 H 183.794 -0.139218 -1.55679 0
M  V30 1947 H 184.529 2.2826 -2.30364 0
M  V30 1948 H 184.314 1.22154 -3.72587 0
M  V30 1949 H 185.804 2.19629 -3.5518 0
M  V30 1950 N 186.241 1.57166 -0.116904 0
M  V30 1951 C 187.49 1.94298 0.541407 0
M  V30 1952 C 187.803 1.00236 1.67964 0
M  V30 1953 O 189.009 1.26826 2.40057 0
M  V30 1954 C 187.465 3.45306 1.01449 0
M  V30 1955 C 187.073 4.47899 -0.0951738 0
M  V30 1956 C 188.817 3.91361 1.6443 0
M  V30 1957 C 186.724 5.90083 0.394491 0
M  V30 1958 H 185.654 0.725308 0.206019 0
M  V30 1959 H 188.305 1.82446 -0.196419 0
M  V30 1960 H 186.687 3.52385 1.80667 0
M  V30 1961 H 187.861 4.52486 -0.871374 0
M  V30 1962 H 186.176 4.11583 -0.631505 0
M  V30 1963 H 188.773 4.95004 2.02176 0
M  V30 1964 H 189.116 3.3122 2.52189 0
M  V30 1965 H 189.649 3.87073 0.917559 0
M  V30 1966 H 186.388 6.53974 -0.447004 0
M  V30 1967 H 185.908 5.88921 1.13722 0
M  V30 1968 H 187.587 6.41307 0.856399 0
M  V30 1969 N 187.719 -0.156864 1.56817 0
M  V30 1970 C 188.652 -1.22316 1.9265 0
M  V30 1971 C 189.63 -1.42059 0.791076 0
M  V30 1972 O 190.814 -1.56831 1.04576 0
M  V30 1973 C 187.941 -2.58375 2.18998 0
M  V30 1974 C 186.987 -2.55284 3.41661 0
M  V30 1975 S 187.82 -2.02946 4.95553 0
M  V30 1976 C 188.976 -3.40753 5.25013 0
M  V30 1977 H 189.209 -0.917403 2.82791 0
M  V30 1978 H 186.742 -0.362059 1.50095 0
M  V30 1979 H 188.7 -3.36677 2.34859 0
M  V30 1980 H 187.361 -2.86145 1.29538 0
M  V30 1981 H 186.554 -3.55418 3.57343 0
M  V30 1982 H 186.156 -1.85086 3.24991 0
M  V30 1983 H 188.448 -4.36819 5.17876 0
M  V30 1984 H 189.391 -3.29933 6.26538 0
M  V30 1985 H 189.799 -3.37433 4.52548 0
M  V30 1986 N 189.197 -1.51736 -0.425897 0
M  V30 1987 C 190.107 -1.76738 -1.54275 0
M  V30 1988 C 191.123 -0.65211 -1.61318 0
M  V30 1989 O 192.299 -0.935654 -1.78346 0
M  V30 1990 C 189.364 -1.89755 -2.90162 0
M  V30 1991 C 188.425 -3.13633 -2.93143 0
M  V30 1992 C 187.658 -3.2602 -4.22548 0
M  V30 1993 O 187.881 -2.44067 -5.15546 0
M  V30 1994 O 186.815 -4.19071 -4.32046 0
M  V30 1995 H 190.641 -2.71502 -1.36089 0
M  V30 1996 H 188.226 -1.36376 -0.610069 0
M  V30 1997 H 190.108 -2.00236 -3.70788 0
M  V30 1998 H 188.783 -0.981785 -3.08452 0
M  V30 1999 H 187.69 -3.08622 -2.11431 0
M  V30 2000 H 189.023 -4.04936 -2.798 0
M  V30 2001 N 190.675 0.682077 -1.42076 0
M  V30 2002 C 191.638 1.77756 -1.44691 0
M  V30 2003 C 192.638 1.5726 -0.335535 0
M  V30 2004 O 193.828 1.63686 -0.596037 0
M  V30 2005 C 190.96 3.16301 -1.27146 0
M  V30 2006 H 192.153 1.76826 -2.42224 0
M  V30 2007 H 189.706 0.891012 -1.28416 0
M  V30 2008 H 190.441 3.22862 -0.305075 0
M  V30 2009 H 190.226 3.32581 -2.07683 0
M  V30 2010 H 191.716 3.96241 -1.31843 0
M  V30 2011 N 192.153 1.28127 0.917671 0
M  V30 2012 C 193.402 1.14432 1.66097 0
M  V30 2013 C 193.715 -0.307247 1.93172 0
M  V30 2014 O 194.921 -0.565259 2.65551 0
M  V30 2015 C 193.377 2.00015 2.99202 0
M  V30 2016 C 192.985 3.49889 2.79789 0
M  V30 2017 C 194.729 1.94996 3.77064 0
M  V30 2018 C 192.636 4.27636 4.08511 0
M  V30 2019 H 191.566 0.424662 0.62304 0
M  V30 2020 H 194.217 1.52628 1.01868 0
M  V30 2021 H 192.599 1.54672 3.64544 0
M  V30 2022 H 193.773 4.03162 2.23152 0
M  V30 2023 H 192.088 3.56392 2.15345 0
M  V30 2024 H 194.685 2.50354 4.72469 0
M  V30 2025 H 195.028 0.925819 4.05875 0
M  V30 2026 H 195.561 2.38287 3.18534 0
M  V30 2027 H 192.3 5.30615 3.84874 0
M  V30 2028 H 191.82 3.79137 4.64774 0
M  V30 2029 H 193.499 4.37346 4.76799 0
M  V30 2030 N 193.631 -1.12557 1.10312 0
M  V30 2031 C 194.578 -2.18247 0.750781 0
M  V30 2032 C 195.548 -1.63853 -0.272293 0
M  V30 2033 O 196.733 -1.90195 -0.151862 0
M  V30 2034 C 193.873 -3.44591 0.187379 0
M  V30 2035 C 192.986 -4.13046 1.2656 0
M  V30 2036 C 192.121 -5.27034 0.663978 0
M  V30 2037 C 191.16 -5.87353 1.72287 0
M  V30 2038 N 190.297 -6.92757 1.1416 0
M  V30 2039 H 195.137 -2.47732 1.65628 0
M  V30 2040 H 192.674 -1.21629 0.827337 0
M  V30 2041 H 194.632 -4.16904 -0.157148 0
M  V30 2042 H 193.262 -3.15527 -0.681355 0
M  V30 2043 H 192.314 -3.38924 1.72727 0
M  V30 2044 H 193.626 -4.53947 2.06721 0
M  V30 2045 H 192.78 -6.06104 0.268824 0
M  V30 2046 H 191.519 -4.87407 -0.169082 0
M  V30 2047 H 190.524 -5.06971 2.12746 0
M  V30 2048 H 191.749 -6.29051 2.55875 0
M  V30 2049 H 189.695 -6.5517 0.329984 0
M  V30 2050 H 189.612 -7.3225 1.88007 0
M  V30 2051 H 190.88 -7.75658 0.772956 0
M  V30 2052 N 195.109 -0.891671 -1.2995 0
M  V30 2053 C 196.056 -0.361736 -2.27948 0
M  V30 2054 C 197.026 0.551761 -1.56668 0
M  V30 2055 O 198.211 0.478736 -1.84696 0
M  V30 2056 C 195.351 0.411825 -3.42634 0
M  V30 2057 C 194.464 -0.531651 -4.28716 0
M  V30 2058 C 193.599 0.258167 -5.30572 0
M  V30 2059 C 192.638 -0.680349 -6.08307 0
M  V30 2060 N 191.775 0.0745613 -7.0206 0
M  V30 2061 H 196.615 -1.20254 -2.72659 0
M  V30 2062 H 194.152 -0.604352 -1.34112 0
M  V30 2063 H 196.11 0.876304 -4.07893 0
M  V30 2064 H 194.74 1.21715 -2.98974 0
M  V30 2065 H 193.792 -1.11463 -3.63703 0
M  V30 2066 H 195.104 -1.25038 -4.82874 0
M  V30 2067 H 194.258 0.784204 -6.0161 0
M  V30 2068 H 192.997 1.01008 -4.77126 0
M  V30 2069 H 192.002 -1.21796 -5.3614 0
M  V30 2070 H 193.227 -1.43145 -6.63842 0
M  V30 2071 H 191.173 0.808883 -6.50994 0
M  V30 2072 H 191.09 -0.584409 -7.53738 0
M  V30 2073 H 192.358 0.581123 -7.77331 0
M  V30 2074 N 196.587 1.43421 -0.653314 0
M  V30 2075 C 197.815 2.06163 -0.174491 0
M  V30 2076 C 198.23 1.48969 1.1599 0
M  V30 2077 O 197.587 0.621042 1.71608 0
M  V30 2078 C 197.638 3.61417 -0.0774865 0
M  V30 2079 O 197.359 4.16485 -1.35912 0
M  V30 2080 C 198.86 4.41235 0.427402 0
M  V30 2081 H 196.08 0.664946 -0.0899353 0
M  V30 2082 H 198.624 1.83924 -0.893988 0
M  V30 2083 H 196.779 3.82841 0.59257 0
M  V30 2084 H 197.193 5.10153 -1.21839 0
M  V30 2085 H 198.667 5.5021 0.44423 0
M  V30 2086 H 199.144 4.14268 1.45873 0
M  V30 2087 H 199.75 4.2478 -0.210167 0
M  V30 2088 N 198.065 0.39524 1.52563 0
M  V30 2089 C 199.481 0.0454682 1.59535 0
M  V30 2090 C 199.681 -1.44056 1.4089 0
M  V30 2091 O 198.737 -2.20579 1.22888 0
M  V30 2092 C 200.05 0.527963 2.96029 0
M  V30 2093 C 201.598 0.484733 3.09224 0
M  V30 2094 C 202.073 0.943512 4.48176 0
M  V30 2095 N 203.564 0.899765 4.54377 0
M  V30 2096 C 204.299 1.22609 5.60138 0
M  V30 2097 N 203.795 1.62319 6.73516 0
M  V30 2098 N 205.588 1.14696 5.50274 0
M  V30 2099 H 197.739 1.36261 1.62931 0
M  V30 2100 H 200.002 0.558887 0.765735 0
M  V30 2101 H 199.708 1.56607 3.14908 0
M  V30 2102 H 199.582 -0.0698056 3.77135 0
M  V30 2103 H 201.969 -0.544298 2.90037 0
M  V30 2104 H 202.05 1.11838 2.30056 0
M  V30 2105 H 201.694 1.9708 4.68104 0
M  V30 2106 H 201.624 0.286817 5.25818 0
M  V30 2107 H 204.115 0.607632 3.72983 0
M  V30 2108 H 204.428 1.85567 7.5019 0
M  V30 2109 H 202.773 1.66211 6.74833 0
M  V30 2110 H 205.964 0.835701 4.6058 0
M  V30 2111 H 206.137 1.40459 6.32594 0
M  V30 2112 N 199.544 -1.57102 0.125237 0
M  V30 2113 C 200.507 -2.14471 -0.80838 0
M  V30 2114 C 201.507 -1.0811 -1.19033 0
M  V30 2115 O 202.697 -1.33856 -1.11482 0
M  V30 2116 C 199.829 -2.69005 -2.09402 0
M  V30 2117 H 201.022 -2.98297 -0.309696 0
M  V30 2118 H 198.575 -1.55807 -0.124051 0
M  V30 2119 H 199.31 -1.88785 -2.63687 0
M  V30 2120 H 199.095 -3.46799 -1.82957 0
M  V30 2121 H 200.585 -3.13278 -2.76128 0
M  V30 2122 N 201.022 0.148545 -1.56898 0
M  V30 2123 C 201.954 1.20852 -1.9475 0
M  V30 2124 C 202.967 1.39265 -0.843152 0
M  V30 2125 O 204.156 1.38864 -1.12156 0
M  V30 2126 C 201.256 2.57362 -2.20495 0
M  V30 2127 C 200.429 2.59947 -3.51776 0
M  V30 2128 C 199.488 3.77984 -3.6608 0
M  V30 2129 O 198.514 3.62929 -4.38487 0
M  V30 2130 N 199.716 4.95375 -3.02629 0
M  V30 2131 H 202.481 0.886804 -2.86279 0
M  V30 2132 H 200.042 0.338121 -1.5833 0
M  V30 2133 H 202.034 3.34833 -2.27307 0
M  V30 2134 H 200.604 2.81832 -1.35238 0
M  V30 2135 H 199.824 1.68403 -3.56419 0
M  V30 2136 H 201.112 2.58704 -4.38121 0
M  V30 2137 H 200.51 5.10509 -2.43715 0
M  V30 2138 H 199.067 5.70627 -3.15004 0
M  V30 2139 N 202.5 1.5196 0.417844 0
M  V30 2140 C 203.463 1.74065 1.49111 0
M  V30 2141 C 204.463 0.610537 1.48758 0
M  V30 2142 O 205.653 0.87832 1.50437 0
M  V30 2143 C 202.785 1.81502 2.88565 0
M  V30 2144 H 203.978 2.69869 1.30807 0
M  V30 2145 H 201.531 1.42244 0.647785 0
M  V30 2146 H 202.266 0.875813 3.1225 0
M  V30 2147 H 202.051 2.63651 2.90225 0
M  V30 2148 H 203.541 2.00376 3.66387 0
M  V30 2149 N 203.978 -0.674533 1.42435 0
M  V30 2150 C 205.224 -1.43671 1.43131 0
M  V30 2151 C 205.557 -1.94142 0.0476021 0
M  V30 2152 O 204.832 -1.70924 -0.928188 0
M  V30 2153 C 205.115 -2.63355 2.45594 0
M  V30 2154 C 204.968 -2.18514 3.93156 0
M  V30 2155 C 206.287 -3.65571 2.45043 0
M  V30 2156 H 203.406 -0.521077 0.521198 0
M  V30 2157 H 206.048 -0.766551 1.7385 0
M  V30 2158 H 204.198 -3.2053 2.19528 0
M  V30 2159 H 205.87 -1.66504 4.30202 0
M  V30 2160 H 204.113 -1.50086 4.07009 0
M  V30 2161 H 204.784 -3.04484 4.60428 0
M  V30 2162 H 207.26 -3.18113 2.68223 0
M  V30 2163 H 206.136 -4.46893 3.18713 0
M  V30 2164 H 206.397 -4.16716 1.47649 0
M  V30 2165 N 205.456 -1.28612 -0.910864 0
M  V30 2166 C 206.406 -1.09423 -2.00026 0
M  V30 2167 C 207.39 -0.0170079 -1.60891 0
M  V30 2168 O 208.582 -0.237472 -1.754 0
M  V30 2169 C 205.711 -0.76114 -3.34756 0
M  V30 2170 C 204.797 -1.87735 -3.80285 0
M  V30 2171 N 205.188 -3.11938 -3.98156 0
M  V30 2172 C 203.486 -1.76786 -4.09467 0
M  V30 2173 C 204.187 -3.84687 -4.36338 0
M  V30 2174 N 203.163 -3.12555 -4.44759 0
M  V30 2175 H 206.965 -2.03658 -2.11898 0
M  V30 2176 H 204.479 -1.19573 -1.09891 0
M  V30 2177 H 206.476 -0.604743 -4.12491 0
M  V30 2178 H 205.136 0.173403 -3.24237 0
M  V30 2179 H 206.147 -3.47516 -3.83996 0
M  V30 2180 H 202.824 -0.905284 -4.07567 0
M  V30 2181 H 204.214 -4.91518 -4.58104 0
M  V30 2182 N 206.934 1.1197 -1.10907 0
M  V30 2183 C 208.345 1.65114 -0.871446 0
M  V30 2184 C 208.696 1.86885 0.597353 0
M  V30 2185 O 207.821 1.59896 1.45816 0
M  V30 2186 C 208.416 2.99944 -1.5754 0
M  V30 2187 C 206.975 3.50018 -1.38435 0
M  V30 2188 C 206.122 2.24941 -1.62164 0
M  V30 2189 H 209.073 0.956851 -1.2661 0
M  V30 2190 H 209.094 3.66651 -1.01721 0
M  V30 2191 H 208.606 2.84067 -2.64438 0
M  V30 2192 H 206.707 3.71071 -0.337214 0
M  V30 2193 H 206.82 4.29165 -2.12965 0
M  V30 2194 H 205.184 2.3229 -1.04467 0
M  V30 2195 H 205.967 2.11612 -2.70324 0
M  V30 2196 N 208.412 0.89855 1.29475 0
M  V30 2197 C 209.66 0.522847 1.9522 0
M  V30 2198 C 209.981 -0.93371 1.71192 0
M  V30 2199 O 209.251 -1.65823 1.04305 0
M  V30 2200 H 207.831 0.190366 0.722336 0
M  V30 2201 H 210.493 1.14459 1.5775 0
M  V30 2202 H 209.589 0.704476 3.04045 0
M  V30 2203 N 209.89 -1.43072 0.660911 0
M  V30 2204 C 211.12 -2.05769 0.185153 0
M  V30 2205 C 211.528 -1.49668 -1.15742 0
M  V30 2206 O 210.871 -0.625649 -1.72717 0
M  V30 2207 C 210.933 -3.59489 0.0278237 0
M  V30 2208 C 210.597 -4.38212 1.2969 0
M  V30 2209 C 211.594 -4.69772 2.22734 0
M  V30 2210 C 209.279 -4.7809 1.54063 0
M  V30 2211 C 211.273 -5.40129 3.38437 0
M  V30 2212 C 208.96 -5.4819 2.70058 0
M  V30 2213 C 209.958 -5.79132 3.62071 0
M  V30 2214 O 209.646 -6.47798 4.76039 0
M  V30 2215 H 209.378 -0.669873 0.0908086 0
M  V30 2216 H 211.932 -1.84436 0.90402 0
M  V30 2217 H 210.162 -3.79426 -0.746489 0
M  V30 2218 H 211.851 -4.03862 -0.406275 0
M  V30 2219 H 212.617 -4.39476 2.05149 0
M  V30 2220 H 208.496 -4.53408 0.833215 0
M  V30 2221 H 212.04 -5.64198 4.10277 0
M  V30 2222 H 207.937 -5.77902 2.87574 0
M  V30 2223 H 208.705 -6.66283 4.75404 0
M  V30 2224 N 211.368 -0.403325 -1.52352 0
M  V30 2225 C 212.616 0.174003 -2.0135 0
M  V30 2226 C 212.937 1.46139 -1.29106 0
M  V30 2227 O 212.207 1.91448 -0.415253 0
M  V30 2228 H 210.787 0.0672911 -0.743963 0
M  V30 2229 H 213.449 -0.538235 -1.87321 0
M  V30 2230 H 212.545 0.374254 -3.09848 0
M  V30 2231 N 212.846 1.57033 -0.133567 0
M  V30 2232 C 214.093 1.95686 0.520877 0
M  V30 2233 C 214.421 1.0177 1.6575 0
M  V30 2234 O 213.676 0.0443195 1.9565 0
M  V30 2235 C 213.975 3.40674 1.08057 0
M  V30 2236 C 213.641 4.50855 0.0637899 0
M  V30 2237 C 212.303 4.80716 -0.215757 0
M  V30 2238 C 214.655 5.17398 -0.62835 0
M  V30 2239 C 211.983 5.74433 -1.19348 0
M  V30 2240 C 214.335 6.12167 -1.5948 0
M  V30 2241 C 212.999 6.40414 -1.88218 0
M  V30 2242 H 212.269 0.716067 0.190602 0
M  V30 2243 H 214.916 1.9026 -0.217556 0
M  V30 2244 H 213.221 3.42865 1.89606 0
M  V30 2245 H 214.918 3.67902 1.59529 0
M  V30 2246 H 211.508 4.27605 0.291855 0
M  V30 2247 H 215.692 4.94472 -0.425562 0
M  V30 2248 H 210.948 5.94616 -1.42272 0
M  V30 2249 H 215.122 6.6281 -2.13671 0
M  V30 2250 H 212.749 7.12838 -2.64133 0
M  V30 2251 N 214.325 -0.140222 1.56975 0
M  V30 2252 C 215.255 -1.17456 2.01808 0
M  V30 2253 C 216.236 -1.44415 0.898794 0
M  V30 2254 O 217.421 -1.5522 1.16707 0
M  V30 2255 C 214.551 -2.50607 2.40444 0
M  V30 2256 C 213.505 -2.38155 3.55621 0
M  V30 2257 C 212.831 -3.76078 3.80091 0
M  V30 2258 C 214.131 -1.85991 4.88062 0
M  V30 2259 H 215.825 -0.801743 2.88466 0
M  V30 2260 H 213.371 -0.38422 1.38779 0
M  V30 2261 H 215.324 -3.23197 2.7041 0
M  V30 2262 H 214.048 -2.89737 1.50732 0
M  V30 2263 H 212.707 -1.68016 3.25832 0
M  V30 2264 H 212.355 -4.12656 2.87618 0
M  V30 2265 H 212.055 -3.68606 4.57606 0
M  V30 2266 H 213.579 -4.50206 4.12488 0
M  V30 2267 H 214.993 -2.4838 5.16701 0
M  V30 2268 H 213.39 -1.89393 5.6943 0
M  V30 2269 H 214.46 -0.816023 4.77984 0
M  V30 2270 N 215.803 -1.52179 -0.40978 0
M  V30 2271 C 217.028 -1.70347 -1.18308 0
M  V30 2272 C 217.453 -0.411887 -1.83535 0
M  V30 2273 O 216.811 0.630587 -1.6998 0
M  V30 2274 C 216.859 -2.83977 -2.22238 0
M  V30 2275 O 215.963 -2.495 -3.28365 0
M  V30 2276 H 215.304 -0.567103 -0.345384 0
M  V30 2277 H 217.834 -1.98879 -0.480445 0
M  V30 2278 H 217.844 -3.0887 -2.66577 0
M  V30 2279 H 216.519 -3.77685 -1.74146 0
M  V30 2280 H 215.096 -2.35277 -2.89308 0
M  V30 2281 N 217.281 0.66697 -1.42791 0
M  V30 2282 C 218.191 1.80962 -1.49299 0
M  V30 2283 C 219.207 1.69775 -0.381108 0
M  V30 2284 O 220.383 1.91188 -0.633188 0
M  V30 2285 C 217.448 3.17156 -1.40045 0
M  V30 2286 C 216.509 3.40242 -2.6179 0
M  V30 2287 C 215.742 4.69939 -2.52969 0
M  V30 2288 O 215.965 5.48372 -1.56985 0
M  V30 2289 O 214.899 4.94441 -3.43237 0
M  V30 2290 H 218.725 1.78427 -2.45759 0
M  V30 2291 H 216.31 0.823713 -1.24641 0
M  V30 2292 H 218.192 3.98413 -1.37276 0
M  V30 2293 H 216.867 3.20312 -0.467138 0
M  V30 2294 H 215.774 2.58802 -2.70134 0
M  V30 2295 H 217.107 3.41923 -3.54047 0
M  V30 2296 N 218.759 1.29093 0.90403 0
M  V30 2297 C 219.707 1.13727 2.02901 0
M  V30 2298 C 220.701 0.0539853 1.69314 0
M  V30 2299 O 221.907 0.213469 1.7873 0
M  V30 2300 H 218.282 0.35117 0.664969 0
M  V30 2301 H 220.253 2.08982 2.13001 0
M  V30 2302 C 219.002 0.826066 3.37745 0
M  V30 2303 H 218.325 1.65164 3.64089 0
M  V30 2304 H 219.765 0.758559 4.17159 0
M  V30 2305 C 218.224 -0.470541 3.33598 0
M  V30 2306 O 218.754 -1.49792 3.72727 0
M  V30 2307 N 216.96 -0.474812 2.86695 0
M  V30 2308 H 216.507 0.361692 2.55048 0
M  V30 2309 H 216.465 -1.34236 2.84303 0
M  V30 2310 N 220.237 -1.11381 1.11499 0
M  V30 2311 C 221.184 -2.17439 0.773887 0
M  V30 2312 C 222.154 -1.64132 -0.254899 0
M  V30 2313 O 223.339 -1.90345 -0.13168 0
M  V30 2314 C 220.479 -3.44373 0.223917 0
M  V30 2315 C 219.592 -4.1168 1.30934 0
M  V30 2316 C 218.727 -5.263 0.71984 0
M  V30 2317 C 217.766 -5.85493 1.78507 0
M  V30 2318 N 216.903 -6.91507 1.21502 0
M  V30 2319 H 221.743 -2.45962 1.68246 0
M  V30 2320 H 219.28 -1.20744 0.840191 0
M  V30 2321 H 221.238 -4.17047 -0.112921 0
M  V30 2322 H 219.868 -3.16232 -0.647851 0
M  V30 2323 H 218.92 -3.37073 1.76312 0
M  V30 2324 H 220.232 -4.51729 2.11524 0
M  V30 2325 H 219.386 -6.05785 0.333094 0
M  V30 2326 H 218.125 -4.87559 -0.117377 0
M  V30 2327 H 217.13 -5.04686 2.18111 0
M  V30 2328 H 218.355 -6.26301 2.62533 0
M  V30 2329 H 216.301 -6.54783 0.399455 0
M  V30 2330 H 216.218 -7.30214 1.95763 0
M  V30 2331 H 217.486 -7.74795 0.855181 0
M  V30 2332 N 221.715 -0.905404 -1.28997 0
M  V30 2333 C 222.625 -0.392246 -2.31298 0
M  V30 2334 C 223.641 0.515889 -1.66176 0
M  V30 2335 O 224.817 0.404093 -1.97304 0
M  V30 2336 C 221.882 0.36686 -3.44754 0
M  V30 2337 C 220.943 -0.573485 -4.25452 0
M  V30 2338 C 220.176 0.149488 -5.33491 0
M  V30 2339 O 220.399 1.37255 -5.5364 0
M  V30 2340 O 219.333 -0.510919 -5.99728 0
M  V30 2341 H 223.159 -1.2411 -2.77183 0
M  V30 2342 H 220.744 -0.669926 -1.33538 0
M  V30 2343 H 222.626 0.795907 -4.13816 0
M  V30 2344 H 221.301 1.19169 -3.00966 0
M  V30 2345 H 220.208 -1.05176 -3.59011 0
M  V30 2346 H 221.541 -1.36489 -4.72897 0
M  V30 2347 N 223.193 1.4272 -0.668489 0
M  V30 2348 C 224.44 2.01624 -0.18814 0
M  V30 2349 C 224.768 1.5282 1.20317 0
M  V30 2350 O 224.023 0.718323 1.8204 0
M  V30 2351 C 224.322 3.57021 -0.164499 0
M  V30 2352 C 223.988 4.25232 -1.49962 0
M  V30 2353 C 222.65 4.4358 -1.8652 0
M  V30 2354 C 225.002 4.63727 -2.37921 0
M  V30 2355 C 222.33 4.97694 -3.10674 0
M  V30 2356 C 224.682 5.19218 -3.6138 0
M  V30 2357 C 223.346 5.3578 -3.98115 0
M  V30 2358 H 222.616 0.737795 -0.0688454 0
M  V30 2359 H 225.263 1.70991 -0.862225 0
M  V30 2360 H 223.568 3.87285 0.593079 0
M  V30 2361 H 225.265 4.00372 0.224271 0
M  V30 2362 H 221.855 4.11306 -1.20522 0
M  V30 2363 H 226.039 4.4923 -2.10964 0
M  V30 2364 H 221.295 5.08702 -3.39164 0
M  V30 2365 H 225.469 5.4799 -4.29743 0
M  V30 2366 H 223.096 5.77475 -4.94395 0
M  V30 2367 N 224.671 0.411399 1.52136 0
M  V30 2368 C 225.634 -0.401089 2.25663 0
M  V30 2369 C 226.634 -0.971732 1.28117 0
M  V30 2370 O 227.824 -0.850254 1.52041 0
M  V30 2371 C 224.956 -1.56483 3.02863 0
M  V30 2372 H 226.149 0.24295 2.98914 0
M  V30 2373 H 223.702 0.163968 1.55438 0
M  V30 2374 H 224.437 -2.24567 2.33967 0
M  V30 2375 H 224.222 -1.16211 3.74483 0
M  V30 2376 H 225.712 -2.13951 3.58629 0
M  V30 2377 N 226.149 -1.5696 0.141893 0
M  V30 2378 C 227.565 -1.58151 -0.21456 0
M  V30 2379 C 227.765 -1.1559 -1.65049 0
M  V30 2380 O 226.821 -0.853832 -2.37626 0
M  V30 2381 C 228.134 -3.00674 0.0395576 0
M  V30 2382 C 229.682 -3.1299 -0.0245529 0
M  V30 2383 C 230.157 -4.57554 0.202167 0
M  V30 2384 N 231.648 -4.62961 0.148919 0
M  V30 2385 C 232.383 -5.7262 0.298924 0
M  V30 2386 N 231.879 -6.90947 0.50637 0
M  V30 2387 N 233.672 -5.61601 0.236886 0
M  V30 2388 H 225.823 -1.8292 1.07953 0
M  V30 2389 H 228.086 -0.846425 0.42693 0
M  V30 2390 H 227.792 -3.36183 1.03315 0
M  V30 2391 H 227.666 -3.70981 -0.682143 0
M  V30 2392 H 230.053 -2.77326 -1.00869 0
M  V30 2393 H 230.134 -2.4518 0.729396 0
M  V30 2394 H 229.778 -4.93922 1.18338 0
M  V30 2395 H 229.708 -5.23484 -0.572044 0
M  V30 2396 H 232.199 -3.77899 -0.00697015 0
M  V30 2397 H 232.512 -7.7038 0.611076 0
M  V30 2398 H 230.857 -6.92878 0.542628 0
M  V30 2399 H 234.048 -4.68039 0.0756209 0
M  V30 2400 H 234.221 -6.47015 0.357227 0
M  V30 2401 N 227.627 0.131896 -1.57047 0
M  V30 2402 C 228.867 0.847972 -1.85981 0
M  V30 2403 C 229.231 1.77655 -0.7282 0
M  V30 2404 O 230.432 2.53322 -0.898968 0
M  V30 2405 C 228.703 1.58919 -3.20124 0
M  V30 2406 S 230.262 2.34862 -3.70655 0
M  V30 2407 H 227.08 0.283273 -0.652133 0
M  V30 2408 H 229.682 0.107057 -1.95207 0
M  V30 2409 H 228.386 0.898771 -4.00438 0
M  V30 2410 H 227.917 2.37073 -3.13942 0
M  V30 2411 H 229.932 3.60344 -3.41126 0
M  V30 2412 N 229.106 1.52395 0.401703 0
M  V30 2413 C 230.036 1.79231 1.49661 0
M  V30 2414 C 231.017 0.643654 1.57452 0
M  V30 2415 O 232.202 0.889989 1.72606 0
M  V30 2416 C 229.332 1.94971 2.87409 0
M  V30 2417 C 228.286 3.10604 2.94465 0
M  V30 2418 C 227.612 3.11577 4.34538 0
M  V30 2419 C 228.912 4.49921 2.6527 0
M  V30 2420 H 230.606 2.70917 1.27454 0
M  V30 2421 H 228.152 1.30362 0.6117 0
M  V30 2422 H 230.105 2.12328 3.63999 0
M  V30 2423 H 228.829 0.999632 3.10926 0
M  V30 2424 H 227.488 2.93009 2.20321 0
M  V30 2425 H 227.136 2.14277 4.55076 0
M  V30 2426 H 226.836 3.89247 4.40183 0
M  V30 2427 H 228.36 3.31073 5.13053 0
M  V30 2428 H 229.774 4.67683 3.31581 0
M  V30 2429 H 228.171 5.29564 2.82281 0
M  V30 2430 H 229.241 4.57507 1.60671 0
M  V30 2431 N 230.584 -0.659388 1.43143 0
M  V30 2432 C 231.547 -1.75432 1.47501 0
M  V30 2433 C 232.547 -1.56707 0.360512 0
M  V30 2434 O 233.737 -1.62717 0.622002 0
M  V30 2435 C 230.869 -3.14239 1.32162 0
M  V30 2436 H 232.062 -1.7295 2.45006 0
M  V30 2437 H 229.615 -0.870469 1.29817 0
M  V30 2438 H 230.35 -3.22336 0.356401 0
M  V30 2439 H 230.135 -3.29235 2.12948 0
M  V30 2440 H 231.625 -3.94094 1.3813 0
M  V30 2441 N 232.062 -1.29571 -0.897171 0
M  V30 2442 C 233.025 -1.14913 -1.98312 0
M  V30 2443 C 234.025 -0.0838629 -1.60581 0
M  V30 2444 O 235.215 -0.331006 -1.71026 0
M  V30 2445 C 232.347 -0.757835 -3.3237 0
M  V30 2446 H 233.54 -2.11377 -2.12743 0
M  V30 2447 H 231.093 -1.12793 -1.08201 0
M  V30 2448 H 231.828 0.206837 -3.2364 0
M  V30 2449 H 231.613 -1.52755 -3.61121 0
M  V30 2450 H 233.103 -0.678408 -4.12053 0
M  V30 2451 N 233.54 1.10788 -1.12088 0
M  V30 2452 C 234.45 2.20599 -0.798338 0
M  V30 2453 C 235.466 1.72712 0.21135 0
M  V30 2454 O 236.642 2.01348 0.0458477 0
M  V30 2455 C 233.707 3.45771 -0.253674 0
M  V30 2456 C 232.768 4.08411 -1.32283 0
M  V30 2457 C 232.001 5.27608 -0.80406 0
M  V30 2458 O 232.224 5.69241 0.363478 0
M  V30 2459 O 231.158 5.8101 -1.57198 0
M  V30 2460 H 234.984 2.50614 -1.7154 0
M  V30 2461 H 232.569 1.19454 -0.897275 0
M  V30 2462 H 234.451 4.21376 0.0453691 0
M  V30 2463 H 233.126 3.1739 0.636005 0
M  V30 2464 H 232.033 3.34507 -1.67499 0
M  V30 2465 H 233.366 4.40986 -2.18614 0
M  V30 2466 N 235.018 0.912232 1.28515 0
M  V30 2467 C 236.295 0.463597 1.90027 0
M  V30 2468 C 236.675 -1.05753 1.82701 0
M  V30 2469 O 236.023 -1.90492 1.26194 0
M  V30 2470 C 236.233 0.992253 3.34597 0
M  V30 2471 C 237.581 1.04344 4.11579 0
M  V30 2472 O 238.605 0.94079 3.43551 0
M  V30 2473 O 237.464 1.1995 5.33174 0
M  V30 2474 H 234.558 0.146666 0.813891 0
M  V30 2475 H 237.104 1.00292 1.36893 0
M  V30 2476 H 235.876 2.03623 3.34146 0
M  V30 2477 H 235.499 0.433672 3.95228 0
M  V30 2478 N 236.496 -1.42363 0.676048 0
M  V30 2479 C 237.742 -2.0182 0.199125 0
M  V30 2480 C 238.075 -1.53339 -1.19168 0
M  V30 2481 O 237.35 -0.736124 -1.80032 0
M  V30 2482 C 237.633 -3.59331 0.235144 0
M  V30 2483 C 237.486 -4.17989 1.66149 0
M  V30 2484 C 238.805 -4.3813 -0.41595 0
M  V30 2485 H 235.924 -0.733293 0.0738311 0
M  V30 2486 H 238.566 -1.69368 0.86107 0
M  V30 2487 H 236.716 -3.87109 -0.328487 0
M  V30 2488 H 238.388 -4.0116 2.27747 0
M  V30 2489 H 236.631 -3.7377 2.20178 0
M  V30 2490 H 237.302 -5.27126 1.63837 0
M  V30 2491 H 239.778 -4.16051 0.0638529 0
M  V30 2492 H 238.654 -5.47717 -0.360115 0
M  V30 2493 H 238.915 -4.16101 -1.49373 0
M  V30 2494 N 237.974 -0.419461 -1.51915 0
M  V30 2495 C 239.22 0.153166 -2.02221 0
M  V30 2496 C 239.553 1.43907 -1.30401 0
M  V30 2497 O 238.828 1.90055 -0.413438 0
M  V30 2498 C 239.111 0.390291 -3.57979 0
M  V30 2499 C 238.964 -0.913014 -4.40436 0
M  V30 2500 C 240.283 1.16794 -4.2432 0
M  V30 2501 H 237.402 0.0541924 -0.735005 0
M  V30 2502 H 240.044 -0.554955 -1.81715 0
M  V30 2503 H 238.194 0.993491 -3.75582 0
M  V30 2504 H 239.866 -1.54882 -4.34522 0
M  V30 2505 H 238.109 -1.52168 -4.06236 0
M  V30 2506 H 238.78 -0.701361 -5.47526 0
M  V30 2507 H 241.256 0.657161 -4.10878 0
M  V30 2508 H 240.132 1.3026 -5.3322 0
M  V30 2509 H 240.393 2.19132 -3.83971 0
M  V30 2510 N 239.452 1.56882 -0.150215 0
M  V30 2511 C 240.699 1.96228 0.500093 0
M  V30 2512 C 241.027 1.03522 1.64661 0
M  V30 2513 O 240.282 0.0650683 1.95592 0
M  V30 2514 C 240.581 3.41801 1.04437 0
M  V30 2515 C 240.247 4.50897 0.0159671 0
M  V30 2516 C 238.909 4.8046 -0.266731 0
M  V30 2517 C 241.261 5.16703 -0.683192 0
M  V30 2518 C 238.589 5.73135 -1.25434 0
M  V30 2519 C 240.941 6.10441 -1.65964 0
M  V30 2520 C 239.605 6.38382 -1.95 0
M  V30 2521 H 238.875 0.718048 0.182997 0
M  V30 2522 H 241.522 1.90019 -0.237724 0
M  V30 2523 H 239.827 3.44857 1.85959 0
M  V30 2524 H 241.524 3.69573 1.55618 0
M  V30 2525 H 238.114 4.27891 0.246485 0
M  V30 2526 H 242.298 4.93993 -0.477983 0
M  V30 2527 H 237.554 5.93074 -1.48571 0
M  V30 2528 H 241.728 6.60507 -2.20689 0
M  V30 2529 H 239.355 7.09996 -2.71679 0
M  V30 2530 N 240.93 -0.123565 1.57115 0
M  V30 2531 C 242.179 -0.830704 1.83799 0
M  V30 2532 C 242.492 -1.81259 0.735158 0
M  V30 2533 O 243.698 -2.56558 0.888278 0
M  V30 2534 C 242.154 -1.52802 3.25852 0
M  V30 2535 C 241.762 -0.587356 4.44133 0
M  V30 2536 C 243.506 -2.22056 3.61789 0
M  V30 2537 C 241.413 -1.28764 5.77212 0
M  V30 2538 H 240.343 -0.313967 0.685522 0
M  V30 2539 H 242.994 -0.0834359 1.8331 0
M  V30 2540 H 241.376 -2.32175 3.20797 0
M  V30 2541 H 242.55 0.172829 4.60476 0
M  V30 2542 H 240.865 -0.00201892 4.164 0
M  V30 2543 H 243.462 -2.75131 4.58483 0
M  V30 2544 H 243.805 -2.99644 2.88997 0
M  V30 2545 H 244.338 -1.49576 3.68608 0
M  V30 2546 H 241.077 -0.55314 6.53162 0
M  V30 2547 H 240.597 -2.01995 5.64764 0
M  V30 2548 H 242.276 -1.8221 6.20813 0
M  V30 2549 N 242.408 -1.52605 -0.393616 0
M  V30 2550 C 243.656 -1.67093 -1.13685 0
M  V30 2551 C 243.977 -0.411011 -1.90619 0
M  V30 2552 O 243.247 0.574491 -1.87287 0
M  V30 2553 H 241.827 -0.615923 -0.422668 0
M  V30 2554 H 244.489 -1.89704 -0.447039 0
M  V30 2555 H 243.585 -2.51922 -1.84232 0
M  V30 2556 N 243.887 0.651787 -1.4349 0
M  V30 2557 C 245.298 1.233 -1.40193 0
M  V30 2558 C 245.649 1.9591 -0.106727 0
M  V30 2559 O 244.774 2.01316 0.793773 0
M  V30 2560 C 245.369 2.24257 -2.53957 0
M  V30 2561 C 243.928 2.77852 -2.5392 0
M  V30 2562 C 243.075 1.52517 -2.3159 0
M  V30 2563 H 246.026 0.443717 -1.52371 0
M  V30 2564 H 246.047 3.0646 -2.25528 0
M  V30 2565 H 245.559 1.71382 -3.4821 0
M  V30 2566 H 243.66 3.34786 -1.63551 0
M  V30 2567 H 243.773 3.25299 -3.51735 0
M  V30 2568 H 242.137 1.79915 -1.80285 0
M  V30 2569 H 242.92 1.01574 -3.27929 0
M  V30 2570 N 245.365 1.30045 0.890287 0
M  V30 2571 C 246.642 1.09227 1.62262 0
M  V30 2572 C 247.022 -0.360305 2.08002 0
M  V30 2573 O 246.37 -1.35084 1.84295 0
M  V30 2574 C 246.58 2.08835 2.79623 0
M  V30 2575 C 247.928 2.40266 3.50082 0
M  V30 2576 O 248.952 2.07104 2.89804 0
M  V30 2577 O 247.811 2.96967 4.58773 0
M  V30 2578 H 244.905 0.419132 0.712922 0
M  V30 2579 H 247.451 1.41451 0.937529 0
M  V30 2580 H 246.223 3.06633 2.43089 0
M  V30 2581 H 245.846 1.77397 3.55832 0
M  V30 2582 N 246.843 -1.10192 1.12674 0
M  V30 2583 C 248.071 -1.85983 0.906527 0
M  V30 2584 C 248.486 -1.80783 -0.544333 0
M  V30 2585 O 247.843 -1.19834 -1.37645 0
M  V30 2586 C 247.894 -3.34281 1.37618 0
M  V30 2587 O 247.615 -3.39401 2.77017 0
M  V30 2588 C 249.116 -4.26938 1.19325 0
M  V30 2589 H 246.336 -0.587716 0.323775 0
M  V30 2590 H 248.88 -1.39284 1.49734 0
M  V30 2591 H 247.035 -3.78436 0.828539 0
M  V30 2592 H 247.449 -4.31838 2.97684 0
M  V30 2593 H 248.923 -5.29181 1.57071 0
M  V30 2594 H 249.4 -4.38995 0.134097 0
M  V30 2595 H 250.006 -3.8859 1.72852 0
M  V30 2596 N 248.321 -0.919034 -1.28029 0
M  V30 2597 C 249.271 -0.382574 -2.24767 0
M  V30 2598 C 250.255 0.508286 -1.52661 0
M  V30 2599 O 251.447 0.347145 -1.73562 0
M  V30 2600 C 248.576 0.371432 -3.41285 0
M  V30 2601 C 247.662 -0.535449 -4.20706 0
M  V30 2602 N 248.053 -1.65141 -4.78082 0
M  V30 2603 C 246.351 -0.336824 -4.44726 0
M  V30 2604 C 247.052 -2.21475 -5.37888 0
M  V30 2605 N 246.028 -1.50537 -5.22341 0
M  V30 2606 H 249.83 -1.23477 -2.66703 0
M  V30 2607 H 247.344 -0.772299 -1.42861 0
M  V30 2608 H 249.341 0.772638 -4.09678 0
M  V30 2609 H 248.001 1.22066 -3.00882 0
M  V30 2610 H 249.012 -2.03392 -4.7629 0
M  V30 2611 H 245.689 0.47246 -4.14818 0
M  V30 2612 H 247.079 -3.15379 -5.93284 0
M  V30 2613 N 249.799 1.42003 -0.683588 0
M  V30 2614 C 250.762 2.29191 -0.0198243 0
M  V30 2615 C 251.762 1.43773 0.72013 0
M  V30 2616 O 252.952 1.65061 0.556815 0
M  V30 2617 C 250.084 3.26435 0.982487 0
M  V30 2618 H 251.277 2.8938 -0.787345 0
M  V30 2619 H 248.83 1.49789 -0.446418 0
M  V30 2620 H 249.565 2.71203 1.77819 0
M  V30 2621 H 249.35 3.89449 0.455182 0
M  V30 2622 H 250.84 3.918 1.44508 0
M  V30 2623 N 251.277 0.427512 1.51691 0
M  V30 2624 C 252.526 -0.143679 2.01188 0
M  V30 2625 C 252.839 -1.44642 1.31674 0
M  V30 2626 O 254.045 -2.09997 1.72086 0
M  V30 2627 C 252.501 -0.306602 3.58592 0
M  V30 2628 C 252.109 0.985125 4.37035 0
M  V30 2629 C 253.853 -0.832091 4.16265 0
M  V30 2630 C 251.76 0.788382 5.86122 0
M  V30 2631 H 250.69 -0.0574701 0.751807 0
M  V30 2632 H 253.341 0.555772 1.74881 0
M  V30 2633 H 251.723 -1.06882 3.81303 0
M  V30 2634 H 252.897 1.75492 4.26074 0
M  V30 2635 H 251.212 1.4384 3.90767 0
M  V30 2636 H 253.809 -0.995617 5.25349 0
M  V30 2637 H 254.152 -1.81186 3.74803 0
M  V30 2638 H 254.685 -0.128444 3.97593 0
M  V30 2639 H 251.424 1.74025 6.31978 0
M  V30 2640 H 250.944 0.0582143 5.99772 0
M  V30 2641 H 252.623 0.437722 6.45518 0
M  V30 2642 N 252.755 -1.56801 0.158532 0
M  V30 2643 C 253.687 -2.14488 -0.807923 0
M  V30 2644 C 254.7 -1.09721 -1.20271 0
M  V30 2645 O 255.889 -1.36956 -1.14478 0
M  V30 2646 C 252.989 -2.66217 -2.09718 0
M  V30 2647 C 252.162 -3.95507 -1.86796 0
M  V30 2648 C 251.221 -4.3243 -2.99818 0
M  V30 2649 O 250.247 -5.00543 -2.71008 0
M  V30 2650 N 251.449 -3.92947 -4.27285 0
M  V30 2651 H 254.214 -2.98042 -0.314816 0
M  V30 2652 H 251.775 -1.61881 -0.0246692 0
M  V30 2653 H 253.767 -2.87924 -2.84398 0
M  V30 2654 H 252.337 -1.87324 -2.50257 0
M  V30 2655 H 251.557 -3.82309 -0.96089 0
M  V30 2656 H 252.845 -4.79972 -1.68833 0
M  V30 2657 H 252.243 -3.38087 -4.53557 0
M  V30 2658 H 250.8 -4.19681 -4.9871 0
M  V30 2659 N 254.233 0.115231 -1.57178 0
M  V30 2660 C 255.196 1.12526 -1.99676 0
M  V30 2661 C 256.196 1.34095 -0.88742 0
M  V30 2662 O 257.386 1.30548 -1.15337 0
M  V30 2663 C 254.518 2.4789 -2.34015 0
M  V30 2664 H 255.711 0.759912 -2.90113 0
M  V30 2665 H 253.264 0.359648 -1.52106 0
M  V30 2666 H 253.999 2.89339 -1.4647 0
M  V30 2667 H 253.784 2.33588 -3.14927 0
M  V30 2668 H 255.274 3.20575 -2.67622 0
M  V30 2669 N 255.711 1.52812 0.385517 0
M  V30 2670 C 256.644 1.72592 1.49289 0
M  V30 2671 C 257.622 0.573819 1.52138 0
M  V30 2672 O 258.806 0.80404 1.70492 0
M  V30 2673 C 255.933 1.78669 2.87741 0
M  V30 2674 C 254.979 3.00455 3.02703 0
M  V30 2675 S 255.812 4.60366 2.73538 0
M  V30 2676 C 256.968 4.69263 4.14177 0
M  V30 2677 H 257.201 2.66248 1.32285 0
M  V30 2678 H 254.734 1.43148 0.578611 0
M  V30 2679 H 256.692 1.82855 3.67524 0
M  V30 2680 H 255.353 0.861 3.02069 0
M  V30 2681 H 254.546 3.01258 4.04054 0
M  V30 2682 H 254.148 2.94278 2.30817 0
M  V30 2683 H 256.44 4.48092 5.08153 0
M  V30 2684 H 257.383 5.71276 4.18388 0
M  V30 2685 H 257.791 3.98072 4.00249 0
M  V30 2686 N 257.189 -0.644168 1.43834 0
M  V30 2687 C 258.437 -1.40117 1.45642 0
M  V30 2688 C 258.758 -1.94814 0.0852413 0
M  V30 2689 O 258.028 -1.74988 -0.880688 0
M  V30 2690 H 256.608 -0.52005 0.536243 0
M  V30 2691 H 259.27 -0.7591 1.7951 0
M  V30 2692 H 258.366 -2.23902 2.17427 0
M  V30 2693 N 258.668 -1.30515 -0.883378 0
M  V30 2694 C 259.945 -1.10086 -1.6168 0
M  V30 2695 C 260.325 0.349269 -2.08191 0
M  V30 2696 O 259.673 1.34105 -1.85008 0
M  V30 2697 C 259.883 -2.10315 -2.78511 0
M  V30 2698 C 261.231 -2.42119 -3.48803 0
M  V30 2699 O 262.255 -2.08638 -2.88702 0
M  V30 2700 O 261.114 -2.99396 -4.57192 0
M  V30 2701 H 258.208 -0.422907 -0.710689 0
M  V30 2702 H 260.754 -1.41947 -0.930015 0
M  V30 2703 H 259.526 -3.07917 -2.41459 0
M  V30 2704 H 259.149 -1.79282 -3.54886 0
M  V30 2705 N 260.146 1.09593 -1.13257 0
M  V30 2706 C 261.093 2.1618 -0.808381 0
M  V30 2707 C 262.063 1.64517 0.228754 0
M  V30 2708 O 263.248 1.9053 0.101381 0
M  V30 2709 C 260.388 3.43973 -0.278675 0
M  V30 2710 C 259.501 4.09545 -1.37466 0
M  V30 2711 C 258.636 5.25088 -0.803479 0
M  V30 2712 C 257.675 5.82579 -1.87799 0
M  V30 2713 N 256.812 6.89486 -1.32488 0
M  V30 2714 H 261.652 2.43254 -1.72138 0
M  V30 2715 H 259.189 1.19392 -0.859294 0
M  V30 2716 H 261.147 4.17174 0.0465583 0
M  V30 2717 H 259.777 3.17223 0.597459 0
M  V30 2718 H 258.829 3.34226 -1.81652 0
M  V30 2719 H 260.141 4.48307 -2.18684 0
M  V30 2720 H 259.295 6.05178 -0.429427 0
M  V30 2721 H 258.034 4.87684 0.0397956 0
M  V30 2722 H 257.039 5.01152 -2.26113 0
M  V30 2723 H 258.264 6.22045 -2.72463 0
M  V30 2724 H 256.21 6.54064 -0.503575 0
M  V30 2725 H 256.127 7.27007 -2.07355 0
M  V30 2726 H 257.395 7.73336 -0.978336 0
M  V30 2727 N 261.624 0.925811 1.2754 0
M  V30 2728 C 262.873 0.561084 1.93739 0
M  V30 2729 C 263.186 -0.901685 1.73577 0
M  V30 2730 O 264.392 -1.37511 2.34101 0
M  V30 2731 C 262.848 0.952668 3.47062 0
M  V30 2732 C 262.456 2.43599 3.75983 0
M  V30 2733 C 264.2 0.659103 4.19352 0
M  V30 2734 C 262.107 2.76707 5.22673 0
M  V30 2735 H 261.037 0.206122 0.725279 0
M  V30 2736 H 263.688 1.12637 1.44863 0
M  V30 2737 H 262.07 0.316053 3.94737 0
M  V30 2738 H 263.244 3.12035 3.39073 0
M  V30 2739 H 261.559 2.70125 3.16893 0
M  V30 2740 H 264.156 0.882985 5.27359 0
M  V30 2741 H 264.499 -0.403607 4.14339 0
M  V30 2742 H 265.032 1.25473 3.77494 0
M  V30 2743 H 261.771 3.8188 5.32774 0
M  V30 2744 H 261.291 2.12919 5.60737 0
M  V30 2745 H 262.97 2.6435 5.90532 0
M  V30 2746 N 263.102 -1.41638 0.69111 0
M  V30 2747 C 264.012 -2.34588 0.0233487 0
M  V30 2748 C 265.028 -1.55987 -0.770984 0
M  V30 2749 O 266.204 -1.88486 -0.709569 0
M  V30 2750 C 263.269 -3.34684 -0.904851 0
M  V30 2751 C 262.33 -4.29176 -0.103225 0
M  V30 2752 C 261.563 -5.2449 -0.987216 0
M  V30 2753 O 261.786 -5.2514 -2.22674 0
M  V30 2754 O 260.72 -6.00295 -0.439281 0
M  V30 2755 H 264.546 -2.93261 0.789416 0
M  V30 2756 H 262.131 -1.42417 0.45142 0
M  V30 2757 H 264.013 -3.96133 -1.43724 0
M  V30 2758 H 262.688 -2.78461 -1.65049 0
M  V30 2759 H 261.595 -3.71089 0.473655 0
M  V30 2760 H 262.928 -4.88484 0.60365 0
M  V30 2761 N 264.58 -0.43555 -1.51462 0
M  V30 2762 C 265.805 0.132627 -2.06976 0
M  V30 2763 C 266.23 1.35848 -1.30104 0
M  V30 2764 O 265.588 1.78112 -0.338493 0
M  V30 2765 C 265.636 0.43523 -3.57964 0
M  V30 2766 O 264.74 1.52198 -3.83288 0
M  V30 2767 H 264.081 0.00265 -0.663995 0
M  V30 2768 H 266.611 -0.616369 -1.95095 0
M  V30 2769 H 266.621 0.686206 -4.02188 0
M  V30 2770 H 265.296 -0.460739 -4.1334 0
M  V30 2771 H 263.873 1.2611 -3.50928 0
M  V30 2772 N 266.058 1.56714 -0.166846 0
M  V30 2773 C 267.005 2.17746 0.765193 0
M  V30 2774 C 267.975 1.11614 1.23011 0
M  V30 2775 O 269.16 1.39745 1.29908 0
M  V30 2776 C 266.3 2.81882 1.9909 0
M  V30 2777 C 265.413 4.02462 1.56997 0
M  V30 2778 C 264.548 4.54537 2.749 0
M  V30 2779 C 263.587 5.67538 2.29275 0
M  V30 2780 N 262.724 6.14142 3.40255 0
M  V30 2781 H 267.564 2.97048 0.237952 0
M  V30 2782 H 265.101 1.4672 0.105725 0
M  V30 2783 H 267.059 3.17221 2.70974 0
M  V30 2784 H 265.689 2.05191 2.49192 0
M  V30 2785 H 264.741 3.72973 0.748037 0
M  V30 2786 H 266.053 4.84273 1.19503 0
M  V30 2787 H 265.207 4.92035 3.54946 0
M  V30 2788 H 263.946 3.71774 3.1565 0
M  V30 2789 H 262.951 5.29597 1.47674 0
M  V30 2790 H 264.176 6.52099 1.89588 0
M  V30 2791 H 262.122 5.3431 3.8059 0
M  V30 2792 H 262.039 6.9093 3.06841 0
M  V30 2793 H 263.307 6.56289 4.206 0
M  V30 2794 N 267.536 -0.106894 1.57237 0
M  V30 2795 C 268.466 -1.13148 2.04254 0
M  V30 2796 C 269.447 -1.42476 0.929224 0
M  V30 2797 O 270.632 -1.52709 1.19973 0
M  V30 2798 C 267.762 -2.4545 2.45706 0
M  V30 2799 C 266.716 -2.30558 3.60592 0
M  V30 2800 C 266.042 -3.67931 3.87983 0
M  V30 2801 C 267.342 -1.75597 4.91897 0
M  V30 2802 H 269.036 -0.740374 2.90101 0
M  V30 2803 H 266.582 -0.354696 1.39563 0
M  V30 2804 H 268.535 -3.17389 2.77205 0
M  V30 2805 H 267.259 -2.86475 1.56843 0
M  V30 2806 H 265.918 -1.61067 3.29322 0
M  V30 2807 H 265.566 -4.06462 2.96306 0
M  V30 2808 H 265.266 -3.58817 4.65322 0
M  V30 2809 H 266.79 -4.41356 4.21945 0
M  V30 2810 H 268.204 -2.37364 5.21854 0
M  V30 2811 H 266.601 -1.77272 5.73319 0
M  V30 2812 H 267.671 -0.714451 4.79608 0
M  V30 2813 N 269.014 -1.53014 -0.377408 0
M  V30 2814 C 269.944 -1.81589 -1.46791 0
M  V30 2815 C 270.925 -0.668622 -1.56408 0
M  V30 2816 O 272.11 -0.917337 -1.71168 0
M  V30 2817 C 269.24 -1.99519 -2.8427 0
M  V30 2818 C 268.194 -3.15249 -2.89486 0
M  V30 2819 C 267.52 -3.18451 -4.29527 0
M  V30 2820 C 268.82 -4.54084 -2.58079 0
M  V30 2821 H 270.514 -2.7291 -1.23127 0
M  V30 2822 H 268.06 -1.31319 -0.590883 0
M  V30 2823 H 270.013 -2.18092 -3.60575 0
M  V30 2824 H 268.737 -1.04897 -3.09296 0
M  V30 2825 H 267.396 -2.96477 -2.15631 0
M  V30 2826 H 267.044 -2.2149 -4.5161 0
M  V30 2827 H 266.744 -3.962 -4.33934 0
M  V30 2828 H 268.268 -3.39193 -5.07721 0
M  V30 2829 H 269.682 -4.72899 -3.24098 0
M  V30 2830 H 268.079 -5.33987 -2.7382 0
M  V30 2831 H 269.149 -4.60006 -1.53372 0
M  V30 2832 N 270.492 0.636531 -1.44174 0
M  V30 2833 C 271.455 1.73063 -1.50273 0
M  V30 2834 C 272.455 1.56113 -0.385397 0
M  V30 2835 O 273.645 1.61707 -0.64781 0
M  V30 2836 C 270.777 3.12096 -1.37145 0
M  V30 2837 H 271.97 1.69031 -2.47727 0
M  V30 2838 H 269.523 0.849706 -1.31186 0
M  V30 2839 H 270.258 3.21728 -0.407636 0
M  V30 2840 H 270.043 3.25805 -2.18159 0
M  V30 2841 H 271.533 3.91846 -1.44382 0
M  V30 2842 N 271.97 1.30982 0.876444 0
M  V30 2843 C 272.917 1.18085 1.98304 0
M  V30 2844 C 273.887 0.0682263 1.6596 0
M  V30 2845 O 275.072 0.239937 1.89285 0
M  V30 2846 C 272.212 0.887475 3.33493 0
M  V30 2847 C 271.325 2.08281 3.78475 0
M  V30 2848 C 270.46 1.72678 5.0235 0
M  V30 2849 C 269.499 2.88657 5.39762 0
M  V30 2850 N 268.636 2.53292 6.54819 0
M  V30 2851 H 273.476 2.1275 2.08666 0
M  V30 2852 H 271.013 1.05839 1.02159 0
M  V30 2853 H 272.971 0.697961 4.1132 0
M  V30 2854 H 271.601 -0.022315 3.22792 0
M  V30 2855 H 270.653 2.3833 2.96484 0
M  V30 2856 H 271.965 2.95108 4.02135 0
M  V30 2857 H 271.119 1.50151 5.87826 0
M  V30 2858 H 269.858 0.830327 4.8058 0
M  V30 2859 H 268.863 3.1184 4.52809 0
M  V30 2860 H 270.088 3.79002 5.63502 0
M  V30 2861 H 268.034 1.66163 6.34607 0
M  V30 2862 H 267.951 3.3365 6.7839 0
M  V30 2863 H 269.219 2.34143 7.43503 0
M  V30 2864 N 273.449 -1.08991 1.13837 0
M  V30 2865 C 274.396 -2.15748 0.819835 0
M  V30 2866 C 275.366 -1.64636 -0.220026 0
M  V30 2867 O 276.551 -1.90582 -0.0912757 0
M  V30 2868 C 273.691 -3.4382 0.296913 0
M  V30 2869 C 272.804 -4.0881 1.39636 0
M  V30 2870 C 271.939 -5.24655 0.831314 0
M  V30 2871 C 270.978 -5.81575 1.90886 0
M  V30 2872 N 270.115 -6.88774 1.36142 0
M  V30 2873 H 274.955 -2.42338 1.73426 0
M  V30 2874 H 272.492 -1.18935 0.865613 0
M  V30 2875 H 274.45 -4.17193 -0.0244339 0
M  V30 2876 H 273.08 -3.17535 -0.580628 0
M  V30 2877 H 272.132 -3.33258 1.83422 0
M  V30 2878 H 273.444 -4.47141 2.21058 0
M  V30 2879 H 272.598 -6.04942 0.461515 0
M  V30 2880 H 271.337 -4.87698 -0.013932 0
M  V30 2881 H 270.342 -4.99946 2.28767 0
M  V30 2882 H 271.567 -6.20592 2.75758 0
M  V30 2883 H 269.513 -6.53788 0.538254 0
M  V30 2884 H 269.43 -7.25898 2.11208 0
M  V30 2885 H 270.698 -7.72806 1.01933 0
M  V30 2886 N 274.927 -0.932562 -1.27047 0
M  V30 2887 C 275.89 -0.440064 -2.24936 0
M  V30 2888 C 276.89 0.444071 -1.54547 0
M  V30 2889 O 278.08 0.244465 -1.72476 0
M  V30 2890 C 275.212 0.36678 -3.38921 0
M  V30 2891 H 276.405 -1.305 -2.70018 0
M  V30 2892 H 273.958 -0.713707 -1.39054 0
M  V30 2893 H 274.693 1.25033 -2.99228 0
M  V30 2894 H 274.478 -0.267204 -3.91188 0
M  V30 2895 H 275.968 0.701567 -4.11665 0
M  V30 2896 N 276.405 1.4127 -0.698611 0
M  V30 2897 C 277.315 2.34573 -0.0357891 0
M  V30 2898 C 278.331 1.56393 0.762701 0
M  V30 2899 O 279.507 1.8886 0.699564 0
M  V30 2900 C 276.572 3.35159 0.887089 0
M  V30 2901 C 275.633 4.29225 0.0804634 0
M  V30 2902 C 274.866 5.25006 0.959387 0
M  V30 2903 O 275.089 5.26314 2.19886 0
M  V30 2904 O 274.023 6.00519 0.407439 0
M  V30 2905 H 277.849 2.92838 -0.804957 0
M  V30 2906 H 275.434 1.42175 -0.458966 0
M  V30 2907 H 277.316 3.9689 1.41621 0
M  V30 2908 H 275.991 2.79333 1.6357 0
M  V30 2909 H 274.898 3.70833 -0.493328 0
M  V30 2910 H 276.231 4.88157 -0.629547 0
M  V30 2911 N 277.883 0.443576 1.51229 0
M  V30 2912 C 279.129 -0.120975 2.02439 0
M  V30 2913 C 279.462 -1.41815 1.32674 0
M  V30 2914 O 278.737 -1.89373 0.443622 0
M  V30 2915 C 279.02 -0.333291 3.58554 0
M  V30 2916 C 278.873 0.982968 4.38928 0
M  V30 2917 C 280.192 -1.10028 4.26124 0
M  V30 2918 H 277.311 -0.0424923 0.735774 0
M  V30 2919 H 279.953 0.583794 1.80809 0
M  V30 2920 H 278.103 -0.933614 3.77115 0
M  V30 2921 H 279.775 1.61775 4.32003 0
M  V30 2922 H 278.018 1.58611 4.03763 0
M  V30 2923 H 278.689 0.788379 5.46341 0
M  V30 2924 H 281.165 -0.591711 4.11871 0
M  V30 2925 H 280.041 -1.21761 5.35225 0
M  V30 2926 H 280.302 -2.12996 3.87408 0
M  V30 2927 N 279.361 -1.56624 0.175154 0
M  V30 2928 C 280.309 -2.19468 -0.770495 0
M  V30 2929 C 281.303 -1.15985 -1.23466 0
M  V30 2930 O 282.509 -1.34176 -1.19987 0
M  V30 2931 H 278.884 -0.703095 -0.266761 0
M  V30 2932 H 280.855 -2.97613 -0.216542 0
M  V30 2933 C 279.604 -2.85264 -1.98796 0
M  V30 2934 H 278.927 -3.64623 -1.63983 0
M  V30 2935 H 280.367 -3.327 -2.62843 0
M  V30 2936 C 278.826 -1.85239 -2.81404 0
M  V30 2937 O 279.356 -1.34024 -3.78682 0
M  V30 2938 N 277.562 -1.53911 -2.46495 0
M  V30 2939 H 277.109 -1.95751 -1.67449 0
M  V30 2940 H 277.067 -0.872382 -3.02054 0
M  V30 2941 N 280.839 0.0985539 -1.57292 0
M  V30 2942 C 282.067 0.816318 -1.90115 0
M  V30 2943 C 282.482 1.72451 -0.768509 0
M  V30 2944 O 281.839 1.80643 0.259687 0
M  V30 2945 C 281.89 1.63259 -3.22535 0
M  V30 2946 O 281.611 0.760934 -4.31441 0
M  V30 2947 C 283.112 2.45372 -3.69199 0
M  V30 2948 H 280.332 0.233595 -0.629027 0
M  V30 2949 H 282.876 0.0768229 -2.04356 0
M  V30 2950 H 281.031 2.32463 -3.09903 0
M  V30 2951 H 281.445 1.32595 -5.07463 0
M  V30 2952 H 282.919 2.98144 -4.64558 0
M  V30 2953 H 283.396 3.23677 -2.96867 0
M  V30 2954 H 284.002 1.81373 -3.84687 0
M  V30 2955 N 282.317 1.53212 0.369288 0
M  V30 2956 C 283.566 1.68436 1.10961 0
M  V30 2957 C 283.879 0.440738 1.9057 0
M  V30 2958 O 285.085 0.473446 2.6734 0
M  V30 2959 C 283.541 2.97744 2.0218 0
M  V30 2960 C 283.149 4.29355 1.279 0
M  V30 2961 C 284.893 3.22334 2.76226 0
M  V30 2962 C 282.8 5.49755 2.17999 0
M  V30 2963 H 281.73 0.627568 0.41794 0
M  V30 2964 H 284.381 1.79713 0.370884 0
M  V30 2965 H 282.763 2.8026 2.79768 0
M  V30 2966 H 283.937 4.57458 0.554007 0
M  V30 2967 H 282.252 4.11179 0.657311 0
M  V30 2968 H 284.849 4.09471 3.43857 0
M  V30 2969 H 285.192 2.38238 3.41392 0
M  V30 2970 H 285.725 3.40475 2.05723 0
M  V30 2971 H 282.464 6.36318 1.57417 0
M  V30 2972 H 281.984 5.25937 2.88359 0
M  V30 2973 H 283.663 5.84401 2.77641 0
M  V30 2974 N 283.795 -0.628877 1.44509 0
M  V30 2975 C 285.206 -1.21054 1.42137 0
M  V30 2976 C 285.557 -1.95715 0.137881 0
M  V30 2977 O 284.682 -2.02554 -0.761645 0
M  V30 2978 C 285.277 -2.20189 2.57493 0
M  V30 2979 C 283.836 -2.73777 2.58308 0
M  V30 2980 C 282.983 -1.48813 2.33987 0
M  V30 2981 H 285.934 -0.41942 1.53057 0
M  V30 2982 H 285.955 -3.02833 2.30375 0
M  V30 2983 H 285.467 -1.6582 3.50892 0
M  V30 2984 H 283.568 -3.32142 1.68856 0
M  V30 2985 H 283.681 -3.19662 3.56865 0
M  V30 2986 H 282.045 -1.77024 1.83124 0
M  V30 2987 H 282.828 -0.963442 3.29504 0
M  V30 2988 N 285.273 -1.31445 -0.869486 0
M  V30 2989 C 286.521 -1.20918 -1.61936 0
M  V30 2990 C 286.842 0.232683 -1.93607 0
M  V30 2991 O 286.112 1.15352 -1.58338 0
M  V30 2992 H 284.692 -0.44454 -0.600328 0
M  V30 2993 H 287.354 -1.64776 -1.0409 0
M  V30 2994 H 286.45 -1.78124 -2.56278 0
M  V30 2995 N 286.751 1.08385 -1.14413 0
M  V30 2996 C 287.998 1.80776 -0.912482 0
M  V30 2997 C 288.326 1.86236 0.560934 0
M  V30 2998 O 287.581 1.33431 1.43159 0
M  V30 2999 C 287.88 3.26273 -1.45879 0
M  V30 3000 C 287.546 3.4093 -2.95089 0
M  V30 3001 C 286.208 3.44638 -3.35824 0
M  V30 3002 C 288.56 3.44591 -3.91033 0
M  V30 3003 C 285.888 3.49597 -4.71167 0
M  V30 3004 C 288.24 3.51086 -5.26233 0
M  V30 3005 C 286.904 3.53067 -5.6648 0
M  V30 3006 H 286.174 0.661507 -0.333901 0
M  V30 3007 H 288.821 1.27613 -1.42784 0
M  V30 3008 H 287.126 3.82146 -0.864376 0
M  V30 3009 H 288.823 3.80839 -1.2555 0
M  V30 3010 H 285.413 3.38736 -2.62594 0
M  V30 3011 H 289.597 3.40957 -3.60641 0
M  V30 3012 H 284.853 3.49424 -5.0171 0
M  V30 3013 H 289.027 3.52864 -6.00383 0
M  V30 3014 H 286.654 3.56662 -6.71339 0
M  V30 3015 N 288.23 0.939286 1.26551 0
M  V30 3016 C 289.507 0.5038 1.89001 0
M  V30 3017 C 289.887 -1.01854 1.84903 0
M  V30 3018 O 289.235 -1.87773 1.30206 0
M  V30 3019 C 289.445 1.063 3.32417 0
M  V30 3020 C 290.793 1.13051 4.09273 0
M  V30 3021 O 291.817 1.01345 3.41479 0
M  V30 3022 O 290.676 1.31233 5.30509 0
M  V30 3023 H 287.77 0.163897 0.810597 0
M  V30 3024 H 290.316 1.03173 1.34735 0
M  V30 3025 H 289.088 2.10665 3.29752 0
M  V30 3026 H 288.711 0.517408 3.94219 0
M  V30 3027 N 289.708 -1.40897 0.706093 0
M  V30 3028 C 290.956 -2.00657 0.241054 0
M  V30 3029 C 291.277 -1.56241 -1.16678 0
M  V30 3030 O 290.547 -0.79765 -1.78926 0
M  V30 3031 H 289.127 -0.742018 0.0861308 0
M  V30 3032 H 291.789 -1.72372 0.909604 0
M  V30 3033 H 290.885 -3.10958 0.266705 0
M  V30 3034 N 291.186 -0.45159 -1.50991 0
M  V30 3035 C 292.432 0.110237 -2.025 0
M  V30 3036 C 292.765 1.41109 -1.33424 0
M  V30 3037 O 292.04 1.89135 -0.453659 0
M  V30 3038 C 292.323 0.314271 -3.58726 0
M  V30 3039 C 292.176 -1.00623 -4.38401 0
M  V30 3040 C 293.495 1.07767 -4.26702 0
M  V30 3041 H 290.614 0.0385897 -0.735989 0
M  V30 3042 H 293.256 -0.593374 -1.80497 0
M  V30 3043 H 291.406 0.913601 -3.77605 0
M  V30 3044 H 293.078 -1.64064 -4.31139 0
M  V30 3045 H 291.321 -1.6075 -4.02917 0
M  V30 3046 H 291.992 -0.817341 -5.45915 0
M  V30 3047 H 294.468 0.56986 -4.12179 0
M  V30 3048 H 293.344 1.18921 -5.35863 0
M  V30 3049 H 293.605 2.10939 -3.88532 0
M  V30 3050 N 292.664 1.56529 -0.183458 0
M  V30 3051 C 293.91 1.97537 0.459036 0
M  V30 3052 C 294.243 1.06989 1.62071 0
M  V30 3053 O 293.518 0.11948 1.94133 0
M  V30 3054 C 293.801 3.47874 0.930368 0
M  V30 3055 C 293.654 4.492 -0.232317 0
M  V30 3056 C 294.973 4.01612 1.79989 0
M  V30 3057 H 292.092 0.718204 0.165383 0
M  V30 3058 H 294.734 1.88042 -0.272038 0
M  V30 3059 H 292.884 3.56095 1.55333 0
M  V30 3060 H 294.556 4.53027 -0.86972 0
M  V30 3061 H 292.799 4.24657 -0.885928 0
M  V30 3062 H 293.47 5.51823 0.139796 0
M  V30 3063 H 295.946 3.96097 1.27461 0
M  V30 3064 H 294.822 5.07195 2.09867 0
M  V30 3065 H 295.083 3.46163 2.74998 0
M  V30 3066 N 294.142 -0.090211 1.57342 0
M  V30 3067 C 295.089 -1.10909 2.02405 0
M  V30 3068 C 296.059 -1.39523 0.901252 0
M  V30 3069 O 297.244 -1.50903 1.1676 0
M  V30 3070 C 294.384 -2.42277 2.45755 0
M  V30 3071 C 293.497 -2.20352 3.71576 0
M  V30 3072 C 292.632 -3.45154 4.03785 0
M  V30 3073 C 291.671 -3.18512 5.22701 0
M  V30 3074 N 290.808 -4.35593 5.50639 0
M  V30 3075 H 295.648 -0.71782 2.89225 0
M  V30 3076 H 293.185 -0.342901 1.43048 0
M  V30 3077 H 295.143 -3.18951 2.68935 0
M  V30 3078 H 293.773 -2.79242 1.61938 0
M  V30 3079 H 292.825 -1.34458 3.55844 0
M  V30 3080 H 294.137 -1.96661 4.58395 0
M  V30 3081 H 293.291 -4.30233 4.27767 0
M  V30 3082 H 292.03 -3.71904 3.15498 0
M  V30 3083 H 291.035 -2.31827 4.98534 0
M  V30 3084 H 292.26 -2.93103 6.12591 0
M  V30 3085 H 290.206 -4.6241 4.6531 0
M  V30 3086 H 290.123 -4.1511 6.31838 0
M  V30 3087 H 291.391 -5.21723 5.7916 0
M  V30 3088 N 295.62 -1.53406 -0.361157 0
M  V30 3089 C 296.897 -1.60411 -1.11927 0
M  V30 3090 C 297.277 -0.414385 -2.06993 0
M  V30 3091 O 296.625 0.594976 -2.20618 0
M  V30 3092 C 296.835 -2.95652 -1.85448 0
M  V30 3093 C 298.183 -3.50386 -2.39823 0
M  V30 3094 O 299.207 -2.97711 -1.95568 0
M  V30 3095 O 298.066 -4.42482 -3.20737 0
M  V30 3096 H 295.16 -0.64811 -0.513695 0
M  V30 3097 H 297.706 -1.65749 -0.364065 0
M  V30 3098 H 296.478 -3.73682 -1.16091 0
M  V30 3099 H 296.101 -2.93825 -2.67866 0
M  V30 3100 N 297.098 0.621204 -1.44841 0
M  V30 3101 C 298.061 1.71459 -1.521 0
M  V30 3102 C 299.061 1.55696 -0.401933 0
M  V30 3103 O 300.251 1.61011 -0.664925 0
M  V30 3104 C 297.383 3.10624 -1.40447 0
M  V30 3105 H 298.576 1.66394 -2.49506 0
M  V30 3106 H 296.129 0.835745 -1.3208 0
M  V30 3107 H 296.864 3.21277 -0.441737 0
M  V30 3108 H 296.649 3.23473 -2.21602 0
M  V30 3109 H 298.139 3.90293 -1.4853 0
M  V30 3110 N 298.576 1.31904 0.862503 0
M  V30 3111 C 299.486 1.22161 2.00285 0
M  V30 3112 C 300.502 0.136785 1.73462 0
M  V30 3113 O 301.678 0.355994 1.98229 0
M  V30 3114 C 298.743 0.937093 3.33796 0
M  V30 3115 C 297.804 2.10957 3.73893 0
M  V30 3116 C 297.037 1.83853 5.01033 0
M  V30 3117 O 297.26 0.777274 5.65079 0
M  V30 3118 O 296.194 2.69741 5.38074 0
M  V30 3119 H 300.02 2.18008 2.11439 0
M  V30 3120 H 297.605 1.11716 0.991957 0
M  V30 3121 H 299.487 0.794583 4.13841 0
M  V30 3122 H 298.162 0.00871894 3.23699 0
M  V30 3123 H 297.069 2.30752 2.94456 0
M  V30 3124 H 298.402 3.02046 3.88625 0
M  V30 3125 N 300.054 -1.07777 1.14986 0
M  V30 3126 C 300.964 -2.18404 0.856546 0
M  V30 3127 C 301.98 -1.73211 -0.165485 0
M  V30 3128 O 303.156 -2.01399 0.00755219 0
M  V30 3129 C 300.221 -3.44977 0.34526 0
M  V30 3130 C 299.282 -4.0476 1.43065 0
M  V30 3131 C 298.515 -5.25291 0.943663 0
M  V30 3132 O 298.738 -5.70004 -0.212426 0
M  V30 3133 O 297.672 -5.76638 1.72547 0
M  V30 3134 H 301.498 -2.45978 1.78125 0
M  V30 3135 H 299.083 -1.17033 0.928631 0
M  V30 3136 H 300.965 -4.21348 0.0663671 0
M  V30 3137 H 299.64 -3.18965 -0.551631 0
M  V30 3138 H 298.547 -3.29949 1.76309 0
M  V30 3139 H 299.88 -4.35035 2.30229 0
M  V30 3140 N 301.532 -0.945985 -1.26051 0
M  V30 3141 C 302.495 -0.463897 -2.24456 0
M  V30 3142 C 303.495 0.427655 -1.55009 0
M  V30 3143 O 304.685 0.226157 -1.72726 0
M  V30 3144 C 301.817 0.330812 -3.39291 0
M  V30 3145 H 303.01 -1.33357 -2.68619 0
M  V30 3146 H 300.563 -0.728416 -1.38289 0
M  V30 3147 H 301.298 1.21852 -3.00537 0
M  V30 3148 H 301.083 -0.308679 -3.90883 0
M  V30 3149 H 302.573 0.657865 -4.12386 0
M  V30 3150 N 303.011 1.40521 -0.713556 0
M  V30 3151 C 304.257 2.01221 -0.252564 0
M  V30 3152 C 304.59 1.56444 1.1506 0
M  V30 3153 O 303.865 0.783597 1.78017 0
M  V30 3154 C 304.148 3.58582 -0.330332 0
M  V30 3155 C 304.001 4.13437 -1.77173 0
M  V30 3156 C 305.32 4.39079 0.299641 0
M  V30 3157 H 302.439 0.731077 -0.0932471 0
M  V30 3158 H 305.081 1.67026 -0.905673 0
M  V30 3159 H 303.231 3.87844 0.225737 0
M  V30 3160 H 304.903 3.9498 -2.38303 0
M  V30 3161 H 303.146 3.67801 -2.3001 0
M  V30 3162 H 303.817 5.22597 -1.77755 0
M  V30 3163 H 306.293 4.15735 -0.174139 0
M  V30 3164 H 305.169 5.4848 0.214771 0
M  V30 3165 H 305.43 4.19915 1.38288 0
M  V30 3166 N 304.489 0.459591 1.5075 0
M  V30 3167 C 305.905 0.113092 1.59199 0
M  V30 3168 C 306.105 -1.37951 1.46874 0
M  V30 3169 O 305.161 -2.15168 1.32132 0
M  V30 3170 C 306.474 0.653043 2.93523 0
M  V30 3171 C 308.022 0.615449 3.0689 0
M  V30 3172 C 308.497 1.13275 4.43771 0
M  V30 3173 N 309.988 1.09167 4.50152 0
M  V30 3174 C 310.723 1.46256 5.54434 0
M  V30 3175 N 310.219 1.90739 6.66026 0
M  V30 3176 N 312.012 1.37932 5.44914 0
M  V30 3177 H 304.163 1.43049 1.57005 0
M  V30 3178 H 306.426 0.590861 0.741341 0
M  V30 3179 H 306.132 1.69822 3.07983 0
M  V30 3180 H 306.006 0.0902132 3.77092 0
M  V30 3181 H 308.393 -0.420793 2.92084 0
M  V30 3182 H 308.474 1.21495 2.25106 0
M  V30 3183 H 308.118 2.16757 4.59324 0
M  V30 3184 H 308.048 0.509576 5.24129 0
M  V30 3185 H 310.539 0.76528 3.7007 0
M  V30 3186 H 310.852 2.17218 7.41644 0
M  V30 3187 H 309.197 1.94683 6.67176 0
M  V30 3188 H 312.388 1.0303 4.56621 0
M  V30 3189 H 312.561 1.67164 6.26067 0
M  V30 3190 N 305.967 -1.56429 0.191757 0
M  V30 3191 C 307.216 -1.9666 -0.448088 0
M  V30 3192 C 307.529 -1.08136 -1.62991 0
M  V30 3193 O 308.735 -1.38135 -2.33733 0
M  V30 3194 C 307.191 -3.49753 -0.848585 0
M  V30 3195 C 306.799 -4.46935 0.308764 0
M  V30 3196 C 308.543 -3.9876 -1.4557 0
M  V30 3197 C 306.45 -5.91293 -0.112506 0
M  V30 3198 H 305.38 -0.734312 -0.171179 0
M  V30 3199 H 308.031 -1.81301 0.283242 0
M  V30 3200 H 306.413 -3.60604 -1.63649 0
M  V30 3201 H 307.587 -4.47813 1.08627 0
M  V30 3202 H 305.902 -4.08102 0.827158 0
M  V30 3203 H 308.499 -5.04086 -1.78328 0
M  V30 3204 H 308.842 -3.42875 -2.36099 0
M  V30 3205 H 309.375 -3.9101 -0.731836 0
M  V30 3206 H 306.114 -6.51097 0.758514 0
M  V30 3207 H 305.634 -5.93676 -0.854941 0
M  V30 3208 H 307.313 -6.44663 -0.549448 0
M  V30 3209 N 307.445 0.0818655 -1.57387 0
M  V30 3210 C 308.408 1.08265 -2.02018 0
M  V30 3211 C 309.408 1.32183 -0.915664 0
M  V30 3212 O 310.598 1.28073 -1.18081 0
M  V30 3213 C 307.73 2.42871 -2.39221 0
M  V30 3214 H 308.923 0.698204 -2.91659 0
M  V30 3215 H 306.476 0.327303 -1.52835 0
M  V30 3216 H 307.211 2.86167 -1.52575 0
M  V30 3217 H 306.996 2.26855 -3.19811 0
M  V30 3218 H 308.486 3.14826 -2.74362 0
M  V30 3219 N 308.923 1.53595 0.353017 0
M  V30 3220 C 310.339 1.43648 0.695516 0
M  V30 3221 C 310.539 0.585617 1.92802 0
M  V30 3222 O 309.595 0.0729223 2.52395 0
M  V30 3223 C 310.908 2.8701 0.896991 0
M  V30 3224 C 312.456 2.96723 0.996209 0
M  V30 3225 C 312.931 4.41173 1.23007 0
M  V30 3226 N 314.422 4.44657 1.29749 0
M  V30 3227 C 315.157 5.53547 1.49577 0
M  V30 3228 N 314.653 6.72461 1.66639 0
M  V30 3229 N 316.446 5.41145 1.52048 0
M  V30 3230 H 308.597 2.07415 -0.457481 0
M  V30 3231 H 310.86 0.9372 -0.142687 0
M  V30 3232 H 310.566 3.51644 0.0629938 0
M  V30 3233 H 310.44 3.31401 1.80148 0
M  V30 3234 H 312.827 2.32235 1.82074 0
M  V30 3235 H 312.908 2.55707 0.0688331 0
M  V30 3236 H 312.552 5.06238 0.410505 0
M  V30 3237 H 312.482 4.79772 2.17086 0
M  V30 3238 H 314.973 3.58963 1.18126 0
M  V30 3239 H 315.286 7.51214 1.81378 0
M  V30 3240 H 313.631 6.75423 1.63794 0
M  V30 3241 H 316.822 4.47205 1.38294 0
M  V30 3242 H 316.995 6.26068 1.67159 0
M  V30 3243 N 310.401 -0.613514 1.45168 0
M  V30 3244 C 311.311 -1.75296 1.55912 0
M  V30 3245 C 312.327 -1.68244 0.443856 0
M  V30 3246 O 313.503 -1.88706 0.70371 0
M  V30 3247 C 310.568 -3.1174 1.5172 0
M  V30 3248 C 309.629 -3.30291 2.74238 0
M  V30 3249 C 308.862 -4.60226 2.70236 0
M  V30 3250 O 309.085 -5.42168 1.77229 0
M  V30 3251 O 308.019 -4.81361 3.61352 0
M  V30 3252 H 311.845 -1.69183 2.52212 0
M  V30 3253 H 309.43 -0.776886 1.27612 0
M  V30 3254 H 311.312 -3.93044 1.51968 0
M  V30 3255 H 309.987 -3.18357 0.585697 0
M  V30 3256 H 308.894 -2.48598 2.79553 0
M  V30 3257 H 310.227 -3.28547 3.66494 0
M  V30 3258 N 311.879 -1.3236 -0.855495 0
M  V30 3259 C 313.128 -1.22226 -1.60448 0
M  V30 3260 C 313.441 0.214733 -1.94418 0
M  V30 3261 O 314.647 0.437917 -2.67945 0
M  V30 3262 C 313.103 -2.14063 -2.89318 0
M  V30 3263 C 312.711 -3.62839 -2.62777 0
M  V30 3264 C 314.455 -2.12764 -3.67331 0
M  V30 3265 C 312.362 -4.4664 -3.87643 0
M  V30 3266 H 311.292 -0.453904 -0.602069 0
M  V30 3267 H 313.943 -1.57314 -0.944698 0
M  V30 3268 H 312.325 -1.71889 -3.5675 0
M  V30 3269 H 313.499 -4.1335 -2.03662 0
M  V30 3270 H 311.814 -3.66261 -1.98096 0
M  V30 3271 H 314.411 -2.72611 -4.59987 0
M  V30 3272 H 314.754 -1.11841 -4.00995 0
M  V30 3273 H 315.287 -2.53214 -3.06802 0
M  V30 3274 H 312.026 -5.48373 -3.5912 0
M  V30 3275 H 311.546 -4.0088 -4.46156 0
M  V30 3276 H 313.225 -4.59597 -4.55389 0
M  V30 3277 N 313.357 1.07166 -1.15556 0
M  V30 3278 C 314.605 1.79443 -0.929764 0
M  V30 3279 C 314.926 1.87246 0.544414 0
M  V30 3280 O 314.196 1.37473 1.39564 0
M  V30 3281 H 312.776 0.664625 -0.341003 0
M  V30 3282 H 315.438 1.29499 -1.45657 0
M  V30 3283 H 314.534 2.81832 -1.34079 0
M  V30 3284 N 314.835 0.952656 1.25548 0
M  V30 3285 C 316.065 0.622592 1.96996 0
M  V30 3286 C 316.473 -0.809112 1.71026 0
M  V30 3287 O 315.816 -1.55258 0.981861 0
M  V30 3288 C 315.878 0.798946 3.5051 0
M  V30 3289 C 315.542 2.20744 4.00151 0
M  V30 3290 C 316.539 3.18394 4.11001 0
M  V30 3291 C 314.224 2.5311 4.33867 0
M  V30 3292 C 316.218 4.46504 4.54877 0
M  V30 3293 C 313.905 3.8145 4.7743 0
M  V30 3294 C 314.903 4.77959 4.87897 0
M  V30 3295 O 314.591 6.04012 5.30494 0
M  V30 3296 H 314.323 0.232503 0.634758 0
M  V30 3297 H 316.877 1.2789 1.60728 0
M  V30 3298 H 315.107 0.0854903 3.86605 0
M  V30 3299 H 316.796 0.47023 4.03167 0
M  V30 3300 H 317.562 2.94715 3.85186 0
M  V30 3301 H 313.441 1.78719 4.24948 0
M  V30 3302 H 316.985 5.21835 4.62962 0
M  V30 3303 H 312.882 4.04936 5.0269 0
M  V30 3304 H 313.65 6.0736 5.48685 0
M  V30 3305 N 316.313 -1.40141 0.720998 0
M  V30 3306 C 317.724 -1.83678 0.334553 0
M  V30 3307 C 318.075 -1.6027 -1.13173 0
M  V30 3308 O 317.2 -1.08643 -1.87152 0
M  V30 3309 C 317.795 -3.33437 0.600437 0
M  V30 3310 C 316.354 -3.75447 0.267642 0
M  V30 3311 C 315.501 -2.63296 0.870097 0
M  V30 3312 H 318.452 -1.29331 0.919732 0
M  V30 3313 H 318.473 -3.80269 -0.132517 0
M  V30 3314 H 317.985 -3.50442 1.66768 0
M  V30 3315 H 316.086 -3.64035 -0.794329 0
M  V30 3316 H 316.199 -4.73344 0.74042 0
M  V30 3317 H 314.563 -2.52954 0.297739 0
M  V30 3318 H 315.346 -2.83112 1.94172 0
M  V30 3319 N 317.792 -0.46758 -1.50504 0
M  V30 3320 C 319.038 0.0887532 -2.02606 0
M  V30 3321 C 319.371 1.39686 -1.34913 0
M  V30 3322 O 318.646 1.88644 -0.473694 0
M  V30 3323 C 318.929 0.276206 -3.59039 0
M  V30 3324 C 318.782 -1.05267 -4.37309 0
M  V30 3325 C 320.101 1.03235 -4.27821 0
M  V30 3326 H 317.22 0.0307814 -0.736357 0
M  V30 3327 H 319.862 -0.612485 -1.79857 0
M  V30 3328 H 318.012 0.8735 -3.78553 0
M  V30 3329 H 319.684 -1.68628 -4.29374 0
M  V30 3330 H 317.927 -1.65015 -4.01189 0
M  V30 3331 H 318.598 -0.875197 -5.45018 0
M  V30 3332 H 321.074 0.526111 -4.12761 0
M  V30 3333 H 319.95 1.1323 -5.37094 0
M  V30 3334 H 320.211 2.06806 -3.90748 0
M  V30 3335 N 319.27 1.56325 -0.20005 0
M  V30 3336 C 320.203 2.15234 0.758267 0
M  V30 3337 C 321.181 1.09046 1.20614 0
M  V30 3338 O 322.365 1.37186 1.29276 0
M  V30 3339 C 319.492 2.71524 2.02466 0
M  V30 3340 C 318.538 3.90345 1.71852 0
M  V30 3341 S 319.371 5.28513 0.862249 0
M  V30 3342 C 320.527 5.88227 2.13868 0
M  V30 3343 H 320.76 2.96183 0.2575 0
M  V30 3344 H 318.293 1.54393 0.0150099 0
M  V30 3345 H 320.251 3.04598 2.75191 0
M  V30 3346 H 318.912 1.90607 2.49655 0
M  V30 3347 H 318.105 4.28158 2.65888 0
M  V30 3348 H 317.707 3.58306 1.07205 0
M  V30 3349 H 319.999 6.02891 3.09076 0
M  V30 3350 H 320.942 6.84714 1.80479 0
M  V30 3351 H 321.35 5.16874 2.2694 0
M  V30 3352 N 320.748 -0.0735177 1.57428 0
M  V30 3353 C 321.997 -0.771809 1.86349 0
M  V30 3354 C 322.31 -1.78828 0.792452 0
M  V30 3355 O 323.516 -2.53602 0.96945 0
M  V30 3356 C 321.972 -1.42358 3.30548 0
M  V30 3357 C 321.58 -0.445761 4.45777 0
M  V30 3358 C 323.324 -2.10434 3.6867 0
M  V30 3359 C 321.231 -1.10335 5.81016 0
M  V30 3360 H 320.161 -0.291999 0.695164 0
M  V30 3361 H 322.812 -0.0250749 1.83483 0
M  V30 3362 H 321.194 -2.21852 3.28021 0
M  V30 3363 H 322.368 0.319239 4.59693 0
M  V30 3364 H 320.683 0.130457 4.16196 0
M  V30 3365 H 323.28 -2.60405 4.67004 0
M  V30 3366 H 323.623 -2.90298 2.98383 0
M  V30 3367 H 324.156 -1.37773 3.7318 0
M  V30 3368 H 320.895 -0.345061 6.54591 0
M  V30 3369 H 320.415 -1.83925 5.70904 0
M  V30 3370 H 322.094 -1.62367 6.26295 0
M  V30 3371 N 322.226 -1.5378 -0.344866 0
M  V30 3372 C 323.173 -1.81676 -1.42346 0
M  V30 3373 C 324.143 -0.662376 -1.52321 0
M  V30 3374 O 325.328 -0.906675 -1.67881 0
M  V30 3375 C 322.468 -2.03087 -2.79015 0
M  V30 3376 C 321.581 -3.30799 -2.77842 0
M  V30 3377 C 320.716 -3.42285 -4.0622 0
M  V30 3378 C 319.755 -4.6395 -3.9927 0
M  V30 3379 N 318.892 -4.72477 -5.19336 0
M  V30 3380 H 323.732 -2.73703 -1.17858 0
M  V30 3381 H 321.269 -1.35568 -0.570949 0
M  V30 3382 H 323.227 -2.1349 -3.58438 0
M  V30 3383 H 321.857 -1.14375 -3.01858 0
M  V30 3384 H 320.909 -3.29244 -1.90533 0
M  V30 3385 H 322.221 -4.20314 -2.68584 0
M  V30 3386 H 321.375 -3.52113 -4.94066 0
M  V30 3387 H 320.114 -2.50823 -4.18258 0
M  V30 3388 H 319.119 -4.54201 -3.09809 0
M  V30 3389 H 320.344 -5.56775 -3.88817 0
M  V30 3390 H 318.29 -3.83924 -5.3192 0
M  V30 3391 H 318.207 -5.55927 -5.12329 0
M  V30 3392 H 319.475 -4.86613 -6.08957 0
M  V30 3393 N 323.704 0.605807 -1.45491 0
M  V30 3394 C 324.667 1.69836 -1.5391 0
M  V30 3395 C 325.667 1.55261 -0.418424 0
M  V30 3396 O 326.857 1.60296 -0.681965 0
M  V30 3397 C 323.989 3.09117 -1.43734 0
M  V30 3398 H 325.182 1.63738 -2.51257 0
M  V30 3399 H 322.735 0.821689 -1.32959 0
M  V30 3400 H 323.47 3.20791 -0.475788 0
M  V30 3401 H 323.255 3.21104 -2.25021 0
M  V30 3402 H 324.745 3.88696 -1.52661 0
M  V30 3403 N 325.182 1.32811 0.848464 0
M  V30 3404 C 326.407 1.26882 1.6406 0
M  V30 3405 C 326.832 -0.15913 1.87426 0
M  V30 3406 O 326.19 -1.11258 1.43148 0
M  V30 3407 C 326.238 2.03997 2.97351 0
M  V30 3408 O 325.342 1.39201 3.88197 0
M  V30 3409 H 324.683 0.436982 0.499943 0
M  V30 3410 H 327.213 1.75224 1.0563 0
M  V30 3411 H 327.223 2.14403 3.47124 0
M  V30 3412 H 325.898 3.0783 2.79666 0
M  V30 3413 H 324.475 1.37381 3.46671 0
M  V30 3414 N 326.66 -1.06551 1.16123 0
M  V30 3415 C 327.623 -2.12132 0.867906 0
M  V30 3416 C 328.623 -1.60224 -0.135944 0
M  V30 3417 O 329.813 -1.73943 0.0946422 0
M  V30 3418 C 326.945 -3.396 0.297419 0
M  V30 3419 H 328.138 -2.39586 1.80385 0
M  V30 3420 H 325.691 -1.22574 0.969812 0
M  V30 3421 H 326.426 -3.17794 -0.64633 0
M  V30 3422 H 326.211 -3.78581 1.02073 0
M  V30 3423 H 327.701 -4.17455 0.110052 0
M  V30 3424 N 328.138 -0.959301 -1.25041 0
M  V30 3425 C 329.386 -0.615393 -1.92503 0
M  V30 3426 C 329.707 0.850969 -1.75452 0
M  V30 3427 O 328.977 1.60658 -1.12098 0
M  V30 3428 H 327.557 -0.224613 -0.712431 0
M  V30 3429 H 330.219 -1.21855 -1.5211 0
M  V30 3430 H 329.315 -0.848738 -3.00338 0
M  V30 3431 N 329.616 1.39756 -0.72842 0
M  V30 3432 C 330.864 2.00248 -0.272946 0
M  V30 3433 C 331.185 1.58077 1.14178 0
M  V30 3434 O 330.455 0.826014 1.77634 0
M  V30 3435 H 329.035 0.740554 -0.0979247 0
M  V30 3436 H 331.697 1.70903 -0.936912 0
M  V30 3437 H 330.793 3.10495 -0.316142 0
M  V30 3438 N 331.094 0.475555 1.50254 0
M  V30 3439 C 332.342 -0.077738 2.0195 0
M  V30 3440 C 332.663 -1.39813 1.35931 0
M  V30 3441 O 331.933 -1.89249 0.506123 0
M  V30 3442 H 330.513 -0.031719 0.746326 0
M  V30 3443 H 333.175 0.626995 1.84539 0
M  V30 3444 H 332.271 -0.225995 3.11281 0
M  V30 3445 N 332.573 -1.56217 0.208337 0
M  V30 3446 C 333.821 -1.97558 -0.426076 0
M  V30 3447 C 334.142 -1.09683 -1.61229 0
M  V30 3448 O 333.412 -0.170956 -1.95153 0
M  V30 3449 H 331.992 -0.729575 -0.160405 0
M  V30 3450 H 334.654 -1.92606 0.298155 0
M  V30 3451 H 333.75 -3.02672 -0.761312 0
M  V30 3452 N 334.051 0.0651679 -1.57465 0
M  V30 3453 C 334.998 1.07675 -2.04144 0
M  V30 3454 C 335.968 1.38071 -0.923335 0
M  V30 3455 O 337.153 1.49026 -1.19146 0
M  V30 3456 C 334.293 2.38337 -2.49579 0
M  V30 3457 C 333.406 2.14413 -3.75035 0
M  V30 3458 C 332.541 3.38686 -4.09225 0
M  V30 3459 C 331.58 3.10156 -5.27702 0
M  V30 3460 N 330.717 4.26778 -5.57499 0
M  V30 3461 H 335.557 0.671716 -2.90331 0
M  V30 3462 H 333.094 0.3201 -1.43575 0
M  V30 3463 H 335.052 3.14632 -2.73975 0
M  V30 3464 H 333.682 2.7663 -1.6636 0
M  V30 3465 H 332.734 1.2878 -3.57939 0
M  V30 3466 H 334.046 1.89344 -4.61466 0
M  V30 3467 H 333.2 4.23373 -4.34558 0
M  V30 3468 H 331.939 3.66837 -3.21374 0
M  V30 3469 H 330.944 2.23866 -5.02159 0
M  V30 3470 H 332.169 2.8332 -6.17176 0
M  V30 3471 H 330.115 4.54948 -4.72608 0
M  V30 3472 H 330.032 4.05005 -6.38362 0
M  V30 3473 H 331.3 5.12443 -5.87386 0
M  V30 3474 N 335.529 1.53961 0.336706 0
M  V30 3475 C 336.777 1.71197 1.07405 0
M  V30 3476 C 337.098 0.481475 1.88962 0
M  V30 3477 O 336.368 -0.504585 1.8929 0
M  V30 3478 H 334.948 0.631185 0.399517 0
M  V30 3479 H 337.61 1.91232 0.376323 0
M  V30 3480 H 336.706 2.58587 1.74755 0
M  V30 3481 N 337.007 -0.598083 1.45811 0
M  V30 3482 C 337.94 -1.7223 1.49706 0
M  V30 3483 C 338.918 -1.58732 0.352535 0
M  V30 3484 O 340.102 -1.80162 0.554438 0
M  V30 3485 C 337.229 -3.10148 1.3611 0
M  V30 3486 C 336.275 -3.42209 2.54549 0
M  V30 3487 S 337.108 -3.35989 4.16979 0
M  V30 3488 C 338.264 -4.76471 4.05865 0
M  V30 3489 H 338.497 -1.68665 2.44826 0
M  V30 3490 H 336.03 -0.775541 1.33509 0
M  V30 3491 H 337.988 -3.8972 1.28953 0
M  V30 3492 H 336.649 -3.11219 0.424451 0
M  V30 3493 H 335.842 -4.42652 2.40988 0
M  V30 3494 H 335.444 -2.70173 2.58617 0
M  V30 3495 H 337.736 -5.665 3.71596 0
M  V30 3496 H 338.679 -4.95089 5.06253 0
M  V30 3497 H 339.087 -4.52599 3.37364 0
M  V30 3498 N 338.485 -1.33259 -0.841409 0
M  V30 3499 C 339.901 -1.12538 -1.13169 0
M  V30 3500 C 340.101 0.0854037 -2.01319 0
M  V30 3501 O 339.157 0.766417 -2.40587 0
M  V30 3502 C 340.47 -2.41156 -1.79623 0
M  V30 3503 C 342.018 -2.47038 -1.922 0
M  V30 3504 C 342.493 -3.7561 -2.6207 0
M  V30 3505 N 343.984 -3.76667 -2.69585 0
M  V30 3506 C 344.719 -4.72861 -3.2433 0
M  V30 3507 N 344.215 -5.79428 -3.79783 0
M  V30 3508 N 346.008 -4.6034 -3.22558 0
M  V30 3509 H 338.159 -2.10868 -0.254676 0
M  V30 3510 H 340.422 -0.931615 -0.175493 0
M  V30 3511 H 340.128 -3.29747 -1.22311 0
M  V30 3512 H 340.002 -2.53114 -2.79666 0
M  V30 3513 H 342.389 -1.58898 -2.48667 0
M  V30 3514 H 342.47 -2.39022 -0.911148 0
M  V30 3515 H 342.114 -4.64131 -2.06263 0
M  V30 3516 H 342.044 -3.80902 -3.63622 0
M  V30 3517 H 344.535 -2.99648 -2.30259 0
M  V30 3518 H 344.848 -6.48867 -4.19752 0
M  V30 3519 H 343.193 -5.83166 -3.78078 0
M  V30 3520 H 346.384 -3.76244 -2.78492 0
M  V30 3521 H 346.557 -5.35478 -3.64921 0
M  V30 3522 N 339.963 1.05934 -1.16686 0
M  V30 3523 C 341.212 1.78188 -0.945085 0
M  V30 3524 C 341.525 1.88338 0.528021 0
M  V30 3525 O 342.731 2.57258 0.867799 0
M  V30 3526 C 341.187 3.20277 -1.64167 0
M  V30 3527 C 340.795 3.18281 -3.15279 0
M  V30 3528 C 342.539 3.97039 -1.502 0
M  V30 3529 C 340.446 4.55112 -3.7766 0
M  V30 3530 H 339.376 0.667866 -0.349959 0
M  V30 3531 H 342.027 1.18794 -1.39858 0
M  V30 3532 H 340.409 3.79952 -1.11589 0
M  V30 3533 H 341.583 2.68167 -3.74731 0
M  V30 3534 H 339.898 2.55018 -3.29173 0
M  V30 3535 H 342.495 4.98194 -1.94183 0
M  V30 3536 H 342.838 4.13845 -0.451461 0
M  V30 3537 H 343.371 3.43894 -1.99954 0
M  V30 3538 H 340.11 4.43512 -4.82677 0
M  V30 3539 H 339.63 5.05406 -3.22994 0
M  V30 3540 H 341.309 5.24064 -3.79428 0
M  V30 3541 N 341.441 0.965919 1.2453 0
M  V30 3542 C 342.404 0.499547 2.2369 0
M  V30 3543 C 343.404 -0.40294 1.5567 0
M  V30 3544 O 344.594 -0.19865 1.73064 0
M  V30 3545 C 341.726 -0.276792 3.39774 0
M  V30 3546 H 342.919 1.37613 2.66463 0
M  V30 3547 H 340.472 0.750324 1.37112 0
M  V30 3548 H 341.207 -1.17055 3.02438 0
M  V30 3549 H 340.992 0.370826 3.90343 0
M  V30 3550 H 342.482 -0.592175 4.1338 0
M  V30 3551 N 342.919 -1.39368 0.735821 0
M  V30 3552 C 344.165 -2.01272 0.293439 0
M  V30 3553 C 344.52 -1.57344 -1.10728 0
M  V30 3554 O 343.813 -0.792744 -1.74431 0
M  V30 3555 C 344.007 -3.5583 0.334651 0
M  V30 3556 C 343.836 -4.14764 1.73784 0
M  V30 3557 C 342.606 -4.47315 2.35026 0
M  V30 3558 C 344.804 -4.38246 2.69157 0
M  V30 3559 N 342.786 -4.91756 3.6749 0
M  V30 3560 C 344.157 -4.849 3.86357 0
M  V30 3561 C 346.212 -4.20315 2.66908 0
M  V30 3562 C 344.915 -5.15505 5.01645 0
M  V30 3563 C 346.941 -4.52033 3.8134 0
M  V30 3564 C 346.303 -4.98895 4.97276 0
M  V30 3565 H 342.402 -0.766756 0.153652 0
M  V30 3566 H 344.986 -1.69276 0.961967 0
M  V30 3567 H 343.157 -3.87212 -0.303527 0
M  V30 3568 H 344.889 -4.04503 -0.126358 0
M  V30 3569 H 341.644 -4.35143 1.86943 0
M  V30 3570 H 342.068 -5.18333 4.35499 0
M  V30 3571 H 346.71 -3.83287 1.78468 0
M  V30 3572 H 344.428 -5.51437 5.90713 0
M  V30 3573 H 348.014 -4.39781 3.80899 0
M  V30 3574 H 346.894 -5.22973 5.84353 0
M  V30 3575 N 344.397 -0.483516 -1.5 0
M  V30 3576 C 345.674 0.129337 -1.95172 0
M  V30 3577 C 346.054 1.55802 -1.4244 0
M  V30 3578 O 345.402 2.19625 -0.630649 0
M  V30 3579 C 345.612 0.0599251 -3.48949 0
M  V30 3580 C 346.96 0.242617 -4.23906 0
M  V30 3581 O 347.984 0.135933 -3.55941 0
M  V30 3582 O 346.843 0.459454 -5.44565 0
M  V30 3583 H 343.937 0.104887 -0.820322 0
M  V30 3584 H 346.483 -0.544807 -1.60717 0
M  V30 3585 H 345.255 -0.937079 -3.79914 0
M  V30 3586 H 344.878 0.774984 -3.89974 0
M  V30 3587 N 345.875 1.56104 -0.216619 0
M  V30 3588 C 347.152 1.89988 0.465165 0
M  V30 3589 C 347.532 1.13326 1.78102 0
M  V30 3590 O 346.88 0.241033 2.27225 0
M  V30 3591 C 347.09 3.42646 0.662939 0
M  V30 3592 C 348.438 4.13311 0.972602 0
M  V30 3593 O 349.462 3.48217 0.749901 0
M  V30 3594 O 348.321 5.28396 1.39499 0
M  V30 3595 H 345.415 0.78979 0.245276 0
M  V30 3596 H 347.961 1.67721 -0.258436 0
M  V30 3597 H 346.733 3.90399 -0.26543 0
M  V30 3598 H 346.356 3.70677 1.43821 0
M  V30 3599 N 347.353 -0.0568162 1.57498 0
M  V30 3600 C 348.263 -1.08346 2.08083 0
M  V30 3601 C 349.279 -1.41439 1.01346 0
M  V30 3602 O 350.455 -1.51316 1.32912 0
M  V30 3603 C 347.52 -2.37352 2.52715 0
M  V30 3604 C 346.581 -2.11093 3.73816 0
M  V30 3605 C 345.814 -3.33949 4.1631 0
M  V30 3606 O 346.037 -4.43622 3.58547 0
M  V30 3607 O 344.971 -3.21279 5.08983 0
M  V30 3608 H 348.797 -0.683667 2.95905 0
M  V30 3609 H 346.382 -0.271965 1.46904 0
M  V30 3610 H 348.264 -3.13246 2.81877 0
M  V30 3611 H 346.939 -2.76681 1.68016 0
M  V30 3612 H 345.846 -1.32856 3.49714 0
M  V30 3613 H 347.179 -1.76637 4.59413 0
M  V30 3614 N 348.832 -1.54138 -0.328536 0
M  V30 3615 C 349.742 -1.86192 -1.42723 0
M  V30 3616 C 350.758 -0.753382 -1.56844 0
M  V30 3617 O 351.934 -1.04718 -1.72035 0
M  V30 3618 C 348.999 -2.07824 -2.77507 0
M  V30 3619 C 348.06 -3.31641 -2.72603 0
M  V30 3620 C 347.293 -3.52232 -4.00959 0
M  V30 3621 O 347.516 -2.7636 -4.9898 0
M  V30 3622 O 346.45 -4.45699 -4.0452 0
M  V30 3623 H 350.276 -2.79608 -1.18547 0
M  V30 3624 H 347.861 -1.3998 -0.522104 0
M  V30 3625 H 349.743 -2.23411 -3.57303 0
M  V30 3626 H 348.418 -1.17596 -3.01584 0
M  V30 3627 H 347.325 -3.21444 -1.91376 0
M  V30 3628 H 348.658 -4.2191 -2.53481 0
M  V30 3629 N 350.31 0.590341 -1.46126 0
M  V30 3630 C 351.538 1.37504 -1.54597 0
M  V30 3631 C 351.953 1.87897 -0.184447 0
M  V30 3632 O 351.31 1.63192 0.816984 0
M  V30 3633 C 351.361 2.56779 -2.54454 0
M  V30 3634 O 351.082 2.08476 -3.85317 0
M  V30 3635 C 352.583 3.49427 -2.72792 0
M  V30 3636 H 349.803 0.420325 -0.523037 0
M  V30 3637 H 352.347 0.718383 -1.91467 0
M  V30 3638 H 350.502 3.1845 -2.20609 0
M  V30 3639 H 350.916 2.86097 -4.396 0
M  V30 3640 H 352.39 4.29619 -3.466 0
M  V30 3641 H 352.867 4.00876 -1.79429 0
M  V30 3642 H 353.473 2.93598 -3.07702 0
M  V30 3643 N 351.788 1.33704 0.83433 0
M  V30 3644 C 353.204 1.13137 1.12571 0
M  V30 3645 C 353.404 -0.0747261 2.01361 0
M  V30 3646 O 352.46 -0.753647 2.4099 0
M  V30 3647 C 353.773 2.42105 1.78342 0
M  V30 3648 C 355.321 2.48054 1.90888 0
M  V30 3649 C 355.796 3.76995 2.60075 0
M  V30 3650 N 357.287 3.78092 2.67584 0
M  V30 3651 C 358.022 4.74574 3.21818 0
M  V30 3652 N 357.518 5.81434 3.76705 0
M  V30 3653 N 359.311 4.62044 3.20112 0
M  V30 3654 H 351.462 2.11 0.243489 0
M  V30 3655 H 353.725 0.932532 0.17055 0
M  V30 3656 H 353.431 3.30391 1.20561 0
M  V30 3657 H 353.305 2.54594 2.7832 0
M  V30 3658 H 355.692 1.60215 2.47821 0
M  V30 3659 H 355.773 2.39502 0.898459 0
M  V30 3660 H 355.417 4.65219 2.03799 0
M  V30 3661 H 355.347 3.82825 3.61597 0
M  V30 3662 H 357.838 3.00865 2.28667 0
M  V30 3663 H 358.151 6.51084 4.16305 0
M  V30 3664 H 356.496 5.85163 3.7498 0
M  V30 3665 H 359.687 3.77716 2.76493 0
M  V30 3666 H 359.86 5.37406 3.62076 0
M  V30 3667 N 353.266 -1.05314 1.17247 0
M  V30 3668 C 354.543 -1.75184 0.87005 0
M  V30 3669 C 354.923 -2.01481 -0.629965 0
M  V30 3670 O 354.271 -1.64988 -1.58086 0
M  V30 3671 C 354.481 -3.04594 1.70363 0
M  V30 3672 C 355.829 -3.78567 1.92281 0
M  V30 3673 O 356.853 -3.14461 1.67311 0
M  V30 3674 O 355.712 -4.93755 2.3424 0
M  V30 3675 H 352.806 -0.761729 0.322021 0
M  V30 3676 H 355.352 -1.11493 1.27935 0
M  V30 3677 H 354.124 -2.81201 2.72106 0
M  V30 3678 H 353.747 -3.76022 1.29202 0
M  V30 3679 N 354.744 -0.972509 -1.24016 0
M  V30 3680 C 355.992 -0.635776 -1.91839 0
M  V30 3681 C 356.313 0.832312 -1.76345 0
M  V30 3682 O 355.583 1.5946 -1.13795 0
M  V30 3683 H 354.163 -0.232157 -0.710009 0
M  V30 3684 H 356.825 -1.23462 -1.50809 0
M  V30 3685 H 355.921 -0.880545 -2.99421 0
M  V30 3686 N 356.222 1.38976 -0.743202 0
M  V30 3687 C 357.469 2.00343 -0.294752 0
M  V30 3688 C 357.797 1.58983 1.12047 0
M  V30 3689 O 357.052 0.813809 1.77977 0
M  V30 3690 C 357.351 3.55647 -0.353517 0
M  V30 3691 C 357.017 4.16685 -1.72292 0
M  V30 3692 C 355.679 4.3307 -2.09771 0
M  V30 3693 C 358.031 4.50464 -2.62168 0
M  V30 3694 C 355.359 4.80526 -3.36618 0
M  V30 3695 C 357.711 4.99332 -3.88395 0
M  V30 3696 C 356.375 5.13924 -4.25956 0
M  V30 3697 H 355.645 0.733108 -0.107857 0
M  V30 3698 H 358.292 1.6618 -0.951651 0
M  V30 3699 H 356.597 3.89884 0.386954 0
M  V30 3700 H 358.294 4.00998 0.0117269 0
M  V30 3701 H 354.884 4.04339 -1.42155 0
M  V30 3702 H 359.068 4.37416 -2.3448 0
M  V30 3703 H 354.324 4.90008 -3.65653 0
M  V30 3704 H 358.498 5.2444 -4.58187 0
M  V30 3705 H 356.125 5.50457 -5.2431 0
M  V30 3706 N 357.7 0.491464 1.49741 0
M  V30 3707 C 359.116 0.146835 1.58923 0
M  V30 3708 C 359.316 -1.34804 1.49767 0
M  V30 3709 O 358.372 -2.12317 1.36667 0
M  V30 3710 C 359.685 0.715157 2.92072 0
M  V30 3711 C 361.233 0.680407 3.05515 0
M  V30 3712 C 361.708 1.22663 4.41269 0
M  V30 3713 N 363.199 1.18691 4.47735 0
M  V30 3714 C 363.934 1.57984 5.51207 0
M  V30 3715 N 363.43 2.04824 6.6183 0
M  V30 3716 N 365.223 1.49459 5.41866 0
M  V30 3717 H 357.374 1.46347 1.53936 0
M  V30 3718 H 359.637 0.606453 0.728642 0
M  V30 3719 H 359.343 1.76317 3.04311 0
M  V30 3720 H 359.217 0.17018 3.76816 0
M  V30 3721 H 361.604 -0.358743 2.92911 0
M  V30 3722 H 361.685 1.26242 2.22478 0
M  V30 3723 H 361.329 2.26451 4.54623 0
M  V30 3724 H 361.259 0.620637 5.2293 0
M  V30 3725 H 363.75 0.843605 3.68364 0
M  V30 3726 H 364.063 2.32901 7.3687 0
M  V30 3727 H 362.408 2.08791 6.62896 0
M  V30 3728 H 365.599 1.12692 4.54333 0
M  V30 3729 H 365.772 1.80406 6.22381 0
M  V30 3730 N 359.178 -1.55987 0.224894 0
M  V30 3731 C 360.108 -2.23426 -0.678457 0
M  V30 3732 C 361.089 -1.20709 -1.19847 0
M  V30 3733 O 362.274 -1.49304 -1.24186 0
M  V30 3734 C 359.404 -2.91676 -1.88527 0
M  V30 3735 C 358.358 -4.00893 -1.49896 0
M  V30 3736 C 357.684 -4.56455 -2.78483 0
M  V30 3737 C 358.984 -5.17769 -0.686461 0
M  V30 3738 H 360.678 -2.99175 -0.116173 0
M  V30 3739 H 358.224 -1.43897 -0.054436 0
M  V30 3740 H 360.177 -3.37547 -2.5227 0
M  V30 3741 H 358.901 -2.1338 -2.47258 0
M  V30 3742 H 357.56 -3.55758 -0.884985 0
M  V30 3743 H 357.208 -3.74886 -3.35365 0
M  V30 3744 H 356.908 -5.30169 -2.53368 0
M  V30 3745 H 358.432 -5.05047 -3.43162 0
M  V30 3746 H 359.846 -5.60001 -1.22767 0
M  V30 3747 H 358.243 -5.97735 -0.532259 0
M  V30 3748 H 359.313 -4.83932 0.306196 0
M  V30 3749 N 360.656 0.0484629 -1.57525 0
M  V30 3750 C 361.881 0.759177 -1.93006 0
M  V30 3751 C 362.306 1.69125 -0.823317 0
M  V30 3752 O 361.664 1.79931 0.222364 0
M  V30 3753 C 361.712 1.50899 -3.27509 0
M  V30 3754 O 360.816 2.62112 -3.18388 0
M  V30 3755 H 360.157 0.205564 -0.631379 0
M  V30 3756 H 362.687 0.00972959 -2.04598 0
M  V30 3757 H 362.697 1.88317 -3.6194 0
M  V30 3758 H 361.372 0.825269 -4.0763 0
M  V30 3759 H 359.949 2.27379 -2.95556 0
M  V30 3760 N 362.134 1.5431 0.320358 0
M  V30 3761 C 363.359 1.76954 1.08175 0
M  V30 3762 C 363.784 0.518193 1.80821 0
M  V30 3763 O 363.142 -0.530411 1.73368 0
M  V30 3764 C 363.19 2.96451 2.05303 0
M  V30 3765 O 362.294 2.68221 3.13259 0
M  V30 3766 H 361.635 0.586275 0.311733 0
M  V30 3767 H 364.165 2.01342 0.363676 0
M  V30 3768 H 364.175 3.23887 2.48116 0
M  V30 3769 H 362.85 3.87196 1.51829 0
M  V30 3770 H 361.427 2.51744 2.75099 0
M  V30 3771 N 363.613 -0.582584 1.46437 0
M  V30 3772 C 364.545 -1.70618 1.53043 0
M  V30 3773 C 365.558 -1.57322 0.418769 0
M  V30 3774 O 366.747 -1.64744 0.687136 0
M  V30 3775 C 363.847 -3.08869 1.39474 0
M  V30 3776 C 363.02 -3.48166 2.64762 0
M  V30 3777 C 362.079 -4.65478 2.4539 0
M  V30 3778 O 361.105 -4.71333 3.19114 0
M  V30 3779 N 362.307 -5.60365 1.51564 0
M  V30 3780 H 365.072 -1.65405 2.49923 0
M  V30 3781 H 362.633 -0.768567 1.42494 0
M  V30 3782 H 364.625 -3.85143 1.24287 0
M  V30 3783 H 363.195 -3.08449 0.507758 0
M  V30 3784 H 362.415 -2.61598 2.9489 0
M  V30 3785 H 363.703 -3.71188 3.4799 0
M  V30 3786 H 363.101 -5.5837 0.907705 0
M  V30 3787 H 361.658 -6.36068 1.4234 0
M  V30 3788 N 365.091 -1.34144 -0.827227 0
M  V30 3789 C 366.001 -1.27428 -1.96975 0
M  V30 3790 C 367.017 -0.182728 -1.73038 0
M  V30 3791 O 368.193 -0.408426 -1.97215 0
M  V30 3792 C 365.258 -1.02526 -3.31194 0
M  V30 3793 C 364.319 -2.20796 -3.68168 0
M  V30 3794 C 363.552 -1.97073 -4.95982 0
M  V30 3795 O 363.775 -0.926822 -5.6282 0
M  V30 3796 O 362.709 -2.83912 -5.30733 0
M  V30 3797 H 366.535 -2.23537 -2.05584 0
M  V30 3798 H 364.12 -1.14307 -0.961989 0
M  V30 3799 H 366.002 -0.904026 -4.11589 0
M  V30 3800 H 364.677 -0.0945389 -3.23562 0
M  V30 3801 H 363.584 -2.38477 -2.88235 0
M  V30 3802 H 364.917 -3.12243 -3.8048 0
M  V30 3803 N 366.569 1.04691 -1.17803 0
M  V30 3804 C 367.532 2.10724 -0.901545 0
M  V30 3805 C 368.532 1.6042 0.110437 0
M  V30 3806 O 369.722 1.7377 -0.122303 0
M  V30 3807 C 366.854 3.39084 -0.351409 0
M  V30 3808 H 368.047 2.36686 -1.84174 0
M  V30 3809 H 365.6 1.21015 -0.98919 0
M  V30 3810 H 366.335 3.18782 0.59569 0
M  V30 3811 H 366.12 3.76909 -1.08083 0
M  V30 3812 H 367.61 4.17227 -0.176451 0
M  V30 3813 N 368.047 0.979072 1.23499 0
M  V30 3814 C 369.01 0.523244 2.23147 0
M  V30 3815 C 370.01 -0.386406 1.56088 0
M  V30 3816 O 371.2 -0.180283 1.73265 0
M  V30 3817 C 368.332 -0.240739 3.40049 0
M  V30 3818 H 369.525 1.40432 2.64989 0
M  V30 3819 H 367.078 0.764824 1.36309 0
M  V30 3820 H 367.813 -1.13841 3.03662 0
M  V30 3821 H 367.598 0.412207 3.89927 0
M  V30 3822 H 369.088 -0.548297 4.13985 0
M  V30 3823 N 369.525 -1.3858 0.750561 0
M  V30 3824 C 370.75 -2.04997 0.314812 0
M  V30 3825 C 371.175 -1.56235 -1.04749 0
M  V30 3826 O 370.533 -0.712981 -1.66692 0
M  V30 3827 C 370.581 -3.58961 0.343415 0
M  V30 3828 O 369.685 -4.07025 -0.663628 0
M  V30 3829 H 369.026 -0.649081 0.139962 0
M  V30 3830 H 371.556 -1.77313 1.02084 0
M  V30 3831 H 371.566 -4.07542 0.193233 0
M  V30 3832 H 370.241 -3.93811 1.33738 0
M  V30 3833 H 368.818 -3.6982 -0.478307 0
M  V30 3834 N 371.003 -0.499398 -1.49478 0
M  V30 3835 C 372.228 0.044722 -2.07352 0
M  V30 3836 C 372.653 1.30207 -1.35749 0
M  V30 3837 O 372.011 1.76516 -0.413732 0
M  V30 3838 C 372.059 0.283013 -3.59488 0
M  V30 3839 O 371.163 1.35804 -3.89398 0
M  V30 3840 H 370.504 -0.0255147 -0.66351 0
M  V30 3841 H 373.034 -0.698561 -1.92305 0
M  V30 3842 H 373.044 0.515007 -4.04737 0
M  V30 3843 H 371.719 -0.635636 -4.11014 0
M  V30 3844 H 370.296 1.11113 -3.55961 0
M  V30 3845 N 372.481 1.55866 -0.233164 0
M  V30 3846 C 373.728 1.98603 0.395374 0
M  V30 3847 C 374.056 1.12105 1.58942 0
M  V30 3848 O 373.311 0.168656 1.94972 0
M  V30 3849 C 373.61 3.46856 0.861724 0
M  V30 3850 C 373.276 4.50348 -0.223066 0
M  V30 3851 C 371.938 4.78371 -0.521038 0
M  V30 3852 C 374.29 5.12355 -0.956124 0
M  V30 3853 C 371.618 5.6568 -1.55638 0
M  V30 3854 C 373.97 6.00786 -1.98089 0
M  V30 3855 C 372.634 6.27148 -2.28565 0
M  V30 3856 H 371.904 0.726739 0.144677 0
M  V30 3857 H 374.551 1.88491 -0.338114 0
M  V30 3858 H 372.856 3.5423 1.67418 0
M  V30 3859 H 374.553 3.77302 1.35809 0
M  V30 3860 H 371.143 4.28596 0.0193234 0
M  V30 3861 H 375.327 4.90765 -0.739166 0
M  V30 3862 H 370.583 5.84365 -1.798 0
M  V30 3863 H 374.757 6.4788 -2.55391 0
M  V30 3864 H 372.384 6.94597 -3.08932 0
M  V30 3865 N 373.959 -0.0401083 1.57549 0
M  V30 3866 C 375.207 -0.731677 1.8839 0
M  V30 3867 C 375.528 -1.76481 0.829425 0
M  V30 3868 O 374.798 -1.95411 -0.1383 0
M  V30 3869 H 373.378 -0.273225 0.695239 0
M  V30 3870 H 376.04 -0.00867725 1.94898 0
M  V30 3871 H 375.136 -1.22816 2.86919 0
M  V30 3872 N 375.437 -1.54477 -0.31217 0
M  V30 3873 C 376.714 -1.63891 -1.06767 0
M  V30 3874 C 377.094 -0.480028 -2.0557 0
M  V30 3875 O 376.442 0.524487 -2.22399 0
M  V30 3876 C 376.652 -3.01402 -1.75948 0
M  V30 3877 C 378 -3.57838 -2.28554 0
M  V30 3878 O 379.024 -3.03782 -1.85998 0
M  V30 3879 O 377.883 -4.52462 -3.06497 0
M  V30 3880 H 374.977 -0.664125 -0.492816 0
M  V30 3881 H 377.523 -1.66823 -0.311149 0
M  V30 3882 H 376.295 -3.77187 -1.04144 0
M  V30 3883 H 375.918 -3.02199 -2.58383 0
M  V30 3884 N 376.915 0.57481 -1.46744 0
M  V30 3885 C 378.192 1.3352 -1.4294 0
M  V30 3886 C 378.572 2.10775 -0.117009 0
M  V30 3887 O 377.92 2.09966 0.901474 0
M  V30 3888 C 378.13 2.25456 -2.66403 0
M  V30 3889 C 379.478 2.87035 -3.12883 0
M  V30 3890 O 380.502 2.35766 -2.67007 0
M  V30 3891 O 379.361 3.80179 -3.92589 0
M  V30 3892 H 376.455 0.600318 -0.568812 0
M  V30 3893 H 379.001 0.595171 -1.58921 0
M  V30 3894 H 377.773 1.67851 -3.53471 0
M  V30 3895 H 377.396 3.06785 -2.52921 0
M  V30 3896 N 378.394 1.34581 0.820102 0
M  V30 3897 C 379.81 1.14325 1.11364 0
M  V30 3898 C 380.01 -0.0533648 2.01429 0
M  V30 3899 O 379.066 -0.728044 2.41776 0
M  V30 3900 C 380.379 2.43983 1.75764 0
M  V30 3901 C 381.927 2.50065 1.88246 0
M  V30 3902 C 382.402 3.79732 2.56061 0
M  V30 3903 N 383.893 3.80908 2.63558 0
M  V30 3904 C 384.628 4.77961 3.16766 0
M  V30 3905 N 384.124 5.85397 3.70517 0
M  V30 3906 N 385.917 4.65413 3.15194 0
M  V30 3907 H 378.068 2.11246 0.221096 0
M  V30 3908 H 380.331 0.934289 0.160649 0
M  V30 3909 H 380.037 3.31651 1.1705 0
M  V30 3910 H 379.911 2.57531 2.75604 0
M  V30 3911 H 382.298 1.62834 2.46108 0
M  V30 3912 H 382.379 2.40442 0.873006 0
M  V30 3913 H 382.023 4.67354 1.98853 0
M  V30 3914 H 381.953 3.86639 3.57516 0
M  V30 3915 H 384.444 3.03274 2.25463 0
M  V30 3916 H 384.757 6.55463 4.09376 0
M  V30 3917 H 383.102 5.89107 3.68752 0
M  V30 3918 H 386.293 3.80627 2.72471 0
M  V30 3919 H 386.466 5.41216 3.56356 0
M  V30 3920 N 379.872 -1.04064 1.18357 0
M  V30 3921 C 380.802 -2.14001 0.934113 0
M  V30 3922 C 381.783 -1.69616 -0.128186 0
M  V30 3923 O 382.968 -1.94185 0.0244093 0
M  V30 3924 C 380.098 -3.44253 0.459066 0
M  V30 3925 C 379.052 -4.02261 1.46185 0
M  V30 3926 C 378.378 -5.27992 0.844322 0
M  V30 3927 C 379.678 -4.38432 2.83856 0
M  V30 3928 H 381.372 -2.35127 1.85352 0
M  V30 3929 H 378.918 -1.12998 0.892604 0
M  V30 3930 H 380.871 -4.20522 0.271907 0
M  V30 3931 H 379.595 -3.22813 -0.495912 0
M  V30 3932 H 378.254 -3.28074 1.63595 0
M  V30 3933 H 377.902 -5.02862 -0.117845 0
M  V30 3934 H 377.602 -5.67765 1.51384 0
M  V30 3935 H 379.126 -6.06938 0.667693 0
M  V30 3936 H 380.54 -5.05688 2.70098 0
M  V30 3937 H 378.937 -4.89254 3.47491 0
M  V30 3938 H 380.007 -3.4826 3.37406 0
M  V30 3939 N 381.35 -0.985608 -1.22978 0
M  V30 3940 C 382.28 -0.549649 -2.26939 0
M  V30 3941 C 383.261 0.419803 -1.64838 0
M  V30 3942 O 384.446 0.31203 -1.91677 0
M  V30 3943 C 381.576 0.143652 -3.47003 0
M  V30 3944 C 380.53 -0.743606 -4.21491 0
M  V30 3945 C 379.856 0.0822027 -5.34637 0
M  V30 3946 C 381.156 -2.03694 -4.80943 0
M  V30 3947 H 382.85 -1.41862 -2.63658 0
M  V30 3948 H 380.396 -0.683571 -1.26741 0
M  V30 3949 H 382.349 0.459985 -4.18882 0
M  V30 3950 H 381.073 1.04711 -3.09359 0
M  V30 3951 H 379.732 -1.04347 -3.51436 0
M  V30 3952 H 379.38 0.986359 -4.93234 0
M  V30 3953 H 379.08 -0.508377 -5.85397 0
M  V30 3954 H 380.604 0.392797 -6.09335 0
M  V30 3955 H 382.018 -1.78504 -5.44802 0
M  V30 3956 H 380.415 -2.57573 -5.42011 0
M  V30 3957 H 381.485 -2.72042 -4.01399 0
M  V30 3958 N 382.828 1.3818 -0.7579 0
M  V30 3959 C 384.077 1.99261 -0.312744 0
M  V30 3960 C 384.39 1.60846 1.11301 0
M  V30 3961 O 385.596 2.14929 1.65885 0
M  V30 3962 C 384.052 3.56294 -0.50821 0
M  V30 3963 C 383.66 4.03657 -1.94333 0
M  V30 3964 C 385.404 4.24313 -0.125982 0
M  V30 3965 C 383.311 5.53347 -2.08712 0
M  V30 3966 H 382.241 0.745456 -0.113185 0
M  V30 3967 H 384.892 1.57889 -0.935056 0
M  V30 3968 H 383.274 3.95575 0.183353 0
M  V30 3969 H 384.448 3.75655 -2.66871 0
M  V30 3970 H 382.763 3.48376 -2.28086 0
M  V30 3971 H 385.36 5.34279 -0.212125 0
M  V30 3972 H 385.703 4.05962 0.921964 0
M  V30 3973 H 386.236 3.90285 -0.769563 0
M  V30 3974 H 382.975 5.76607 -3.11777 0
M  V30 3975 H 382.495 5.83078 -1.4064 0
M  V30 3976 H 384.174 6.19111 -1.87912 0
M  V30 3977 N 384.306 0.507319 1.49211 0
M  V30 3978 C 385.216 -0.272136 2.33016 0
M  V30 3979 C 386.232 -0.961206 1.45041 0
M  V30 3980 O 387.408 -0.941191 1.78055 0
M  V30 3981 C 384.473 -1.31895 3.20631 0
M  V30 3982 C 383.534 -0.642648 4.24463 0
M  V30 3983 C 382.767 -1.63959 5.07891 0
M  V30 3984 O 382.99 -2.87007 4.92933 0
M  V30 3985 O 381.924 -1.19143 5.8999 0
M  V30 3986 H 385.75 0.413982 3.00865 0
M  V30 3987 H 383.335 0.268556 1.46966 0
M  V30 3988 H 385.217 -1.92446 3.7489 0
M  V30 3989 H 383.892 -1.98788 2.5547 0
M  V30 3990 H 382.799 0.00276252 3.741 0
M  V30 3991 H 384.132 -0.0160534 4.92197 0
M  V30 3992 N 385.784 -1.5574 0.241426 0
M  V30 3993 C 386.731 -2.21149 -0.660432 0
M  V30 3994 C 387.701 -1.17356 -1.17545 0
M  V30 3995 O 388.886 -1.45784 -1.23093 0
M  V30 3996 C 386.026 -2.91059 -1.85414 0
M  V30 3997 C 385.139 -4.09495 -1.37616 0
M  V30 3998 C 384.274 -4.67135 -2.529 0
M  V30 3999 C 383.313 -5.77831 -2.01936 0
M  V30 4000 N 382.45 -6.29677 -3.10566 0
M  V30 4001 H 387.29 -2.97845 -0.095955 0
M  V30 4002 H 384.827 -1.47057 -0.0356024 0
M  V30 4003 H 386.785 -3.29788 -2.5553 0
M  V30 4004 H 385.415 -2.16846 -2.39118 0
M  V30 4005 H 384.467 -3.76117 -0.569235 0
M  V30 4006 H 385.779 -4.89423 -0.962618 0
M  V30 4007 H 384.933 -5.08409 -3.31067 0
M  V30 4008 H 383.672 -3.86411 -2.97553 0
M  V30 4009 H 382.677 -5.36039 -1.22238 0
M  V30 4010 H 383.902 -6.60402 -1.58259 0
M  V30 4011 H 381.848 -5.5186 -3.54664 0
M  V30 4012 H 381.765 -7.04783 -2.73526 0
M  V30 4013 H 383.033 -6.75609 -3.88809 0
M  V30 4014 N 387.262 0.0317525 -1.57568 0
M  V30 4015 C 388.509 0.723104 -1.89149 0
M  V30 4016 C 388.837 1.75504 -0.838377 0
M  V30 4017 O 388.092 1.95037 0.160982 0
M  V30 4018 C 388.391 1.43167 -3.27472 0
M  V30 4019 C 388.057 0.535972 -4.47703 0
M  V30 4020 C 386.719 0.289262 -4.8033 0
M  V30 4021 C 389.071 -0.0826125 -5.21135 0
M  V30 4022 C 386.399 -0.584853 -5.83778 0
M  V30 4023 C 388.751 -0.944414 -6.25511 0
M  V30 4024 C 387.415 -1.20061 -6.56614 0
M  V30 4025 H 386.685 0.264602 -0.692146 0
M  V30 4026 H 389.332 -0.0169496 -1.91492 0
M  V30 4027 H 387.637 2.24497 -3.21105 0
M  V30 4028 H 389.334 1.97209 -3.49155 0
M  V30 4029 H 385.924 0.738414 -4.22191 0
M  V30 4030 H 390.108 0.0950302 -4.96209 0
M  V30 4031 H 385.364 -0.79168 -6.06253 0
M  V30 4032 H 389.538 -1.43026 -6.81554 0
M  V30 4033 H 387.165 -1.87967 -7.36595 0
M  V30 4034 N 388.74 1.54641 0.303973 0
M  V30 4035 C 389.989 1.7299 1.03717 0
M  V30 4036 C 390.302 0.521168 1.88529 0
M  V30 4037 O 391.508 0.586408 2.65092 0
M  V30 4038 C 389.964 3.06051 1.89369 0
M  V30 4039 C 389.572 4.34393 1.09574 0
M  V30 4040 C 391.316 3.3376 2.62306 0
M  V30 4041 C 389.223 5.58506 1.94486 0
M  V30 4042 H 388.153 0.64473 0.390947 0
M  V30 4043 H 390.804 1.81124 0.294328 0
M  V30 4044 H 389.186 2.91874 2.67629 0
M  V30 4045 H 390.36 4.59396 0.359485 0
M  V30 4046 H 388.675 4.13597 0.482324 0
M  V30 4047 H 391.272 4.23687 3.26181 0
M  V30 4048 H 391.615 2.52503 3.3098 0
M  V30 4049 H 392.148 3.48894 1.91097 0
M  V30 4050 H 388.887 6.42422 1.30287 0
M  V30 4051 H 388.407 5.37694 2.65792 0
M  V30 4052 H 390.086 5.95651 2.52605 0
M  V30 4053 N 390.218 -0.567019 1.47046 0
M  V30 4054 C 391.495 -1.3276 1.43646 0
M  V30 4055 C 391.875 -2.1071 0.128186 0
M  V30 4056 O 391.223 -2.10441 -0.890326 0
M  V30 4057 C 391.433 -2.2404 2.67595 0
M  V30 4058 C 392.781 -2.85372 3.14401 0
M  V30 4059 O 393.805 -2.34346 2.68254 0
M  V30 4060 O 392.664 -3.78091 3.946 0
M  V30 4061 H 389.758 -0.597293 0.571988 0
M  V30 4062 H 392.304 -0.586735 1.59234 0
M  V30 4063 H 391.076 -1.65975 3.54356 0
M  V30 4064 H 390.699 -3.05439 2.54544 0
M  V30 4065 N 391.696 -1.35014 -0.812953 0
M  V30 4066 C 392.644 -1.27435 -1.94585 0
M  V30 4067 C 393.638 -0.170494 -1.6854 0
M  V30 4068 O 394.844 -0.336085 -1.76835 0
M  V30 4069 H 391.219 -0.396144 -0.639198 0
M  V30 4070 H 393.19 -2.23158 -1.98098 0
M  V30 4071 C 391.939 -1.05677 -3.31252 0
M  V30 4072 H 391.262 -1.89853 -3.51846 0
M  V30 4073 H 392.702 -1.04413 -4.10943 0
M  V30 4074 C 391.161 0.239615 -3.36047 0
M  V30 4075 O 391.691 1.23759 -3.8216 0
M  V30 4076 N 389.897 0.276186 -2.89285 0
M  V30 4077 H 389.444 -0.53653 -2.51951 0
M  V30 4078 H 389.402 1.14332 -2.92875 0
M  V30 4079 N 393.175 1.03435 -1.18907 0
M  V30 4080 C 394.586 1.58195 -0.991523 0
M  V30 4081 C 394.937 1.90801 0.457081 0
M  V30 4082 O 394.062 1.70272 1.33553 0
M  V30 4083 C 394.657 2.87432 -1.79355 0
M  V30 4084 C 393.216 3.38785 -1.64017 0
M  V30 4085 C 392.363 2.12292 -1.78402 0
M  V30 4086 H 395.314 0.860299 -1.33359 0
M  V30 4087 H 395.335 3.58096 -1.28638 0
M  V30 4088 H 394.847 2.63669 -2.84781 0
M  V30 4089 H 392.948 3.67547 -0.611536 0
M  V30 4090 H 393.061 4.12186 -2.44212 0
M  V30 4091 H 391.425 2.23901 -1.2141 0
M  V30 4092 H 392.208 1.90977 -2.85277 0
M  V30 4093 N 394.653 0.992116 1.22453 0
M  V30 4094 C 396.069 0.702713 1.43297 0
M  V30 4095 C 396.269 -0.726909 1.87932 0
M  V30 4096 O 395.325 -1.49792 2.0327 0
M  V30 4097 C 396.638 1.70762 2.47509 0
M  V30 4098 C 398.186 1.72298 2.61309 0
M  V30 4099 C 398.661 2.71649 3.68742 0
M  V30 4100 N 400.152 2.70239 3.76199 0
M  V30 4101 C 400.887 3.43778 4.58917 0
M  V30 4102 N 400.383 4.26914 5.45633 0
M  V30 4103 N 402.176 3.32487 4.5322 0
M  V30 4104 H 394.327 1.91543 0.917871 0
M  V30 4105 H 396.59 0.826031 0.465162 0
M  V30 4106 H 396.296 2.73059 2.21657 0
M  V30 4107 H 396.17 1.49985 3.46099 0
M  V30 4108 H 398.557 0.706989 2.86506 0
M  V30 4109 H 398.638 1.97143 1.62997 0
M  V30 4110 H 398.282 3.73397 3.44292 0
M  V30 4111 H 398.212 2.44074 4.66622 0
M  V30 4112 H 400.703 2.09912 3.14237 0
M  V30 4113 H 401.016 4.79855 6.05771 0
M  V30 4114 H 399.361 4.31002 5.45218 0
M  V30 4115 H 402.552 2.6698 3.84499 0
M  V30 4116 H 402.725 3.90058 5.17454 0
M  V30 4117 N 396.131 -1.37776 0.765217 0
M  V30 4118 C 397.081 -2.2768 0.12075 0
M  V30 4119 C 398.065 -1.45778 -0.680988 0
M  V30 4120 O 399.257 -1.684 -0.545033 0
M  V30 4121 C 396.386 -3.34722 -0.762626 0
M  V30 4122 C 395.472 -4.24074 0.0465881 0
M  V30 4123 N 395.863 -4.93939 1.08892 0
M  V30 4124 C 394.161 -4.45643 -0.178418 0
M  V30 4125 C 394.862 -5.59845 1.57951 0
M  V30 4126 N 393.838 -5.36218 0.892797 0
M  V30 4127 H 397.64 -2.79166 0.918889 0
M  V30 4128 H 395.154 -1.50816 0.602353 0
M  V30 4129 H 397.151 -3.98031 -1.24005 0
M  V30 4130 H 395.811 -2.84793 -1.55959 0
M  V30 4131 H 396.822 -4.96572 1.47095 0
M  V30 4132 H 393.499 -4.06599 -0.9478 0
M  V30 4133 H 394.889 -6.25703 2.44838 0
M  V30 4134 N 397.609 -0.515225 -1.4894 0
M  V30 4135 C 398.858 0.0261361 -2.01683 0
M  V30 4136 C 399.171 1.36719 -1.39883 0
M  V30 4137 O 400.377 1.99606 -1.84037 0
M  V30 4138 C 398.833 0.0970111 -3.59769 0
M  V30 4139 C 398.441 -1.23825 -4.30548 0
M  V30 4140 C 400.185 0.587981 -4.20408 0
M  V30 4141 C 398.092 -1.12877 -5.80528 0
M  V30 4142 H 397.022 0.0135398 -0.753878 0
M  V30 4143 H 399.673 -0.656787 -1.71343 0
M  V30 4144 H 398.055 0.844694 -3.86886 0
M  V30 4145 H 399.229 -2.00034 -4.15118 0
M  V30 4146 H 397.544 -1.66379 -3.81716 0
M  V30 4147 H 400.141 0.68763 -5.3026 0
M  V30 4148 H 400.484 1.59026 -3.84729 0
M  V30 4149 H 401.017 -0.103582 -3.97665 0
M  V30 4150 H 397.756 -2.10575 -6.20756 0
M  V30 4151 H 397.276 -0.407799 -5.98412 0
M  V30 4152 H 398.955 -0.813332 -6.41868 0
M  V30 4153 N 399.087 1.5561 -0.249682 0
M  V30 4154 C 399.997 2.25143 0.659375 0
M  V30 4155 C 401.013 1.2685 1.19101 0
M  V30 4156 O 402.189 1.59732 1.22669 0
M  V30 4157 C 399.254 2.93945 1.8384 0
M  V30 4158 C 398.315 4.07655 1.34596 0
M  V30 4159 C 397.548 4.73167 2.46878 0
M  V30 4160 O 397.771 4.37768 3.65671 0
M  V30 4161 O 396.705 5.61623 2.16478 0
M  V30 4162 H 400.531 3.03545 0.0968698 0
M  V30 4163 H 398.116 1.49389 -0.018074 0
M  V30 4164 H 399.998 3.37271 2.52638 0
M  V30 4165 H 398.673 2.18481 2.38847 0
M  V30 4166 H 397.58 3.68839 0.625174 0
M  V30 4167 H 398.913 4.84946 0.841941 0
M  V30 4168 N 400.565 -0.0233959 1.57583 0
M  V30 4169 C 401.814 -0.712133 1.8871 0
M  V30 4170 C 402.127 -1.76217 0.848944 0
M  V30 4171 O 403.333 -2.50389 1.04964 0
M  V30 4172 C 401.789 -1.3177 3.3491 0
M  V30 4173 C 401.397 -0.303715 4.46969 0
M  V30 4174 C 403.141 -1.98598 3.75179 0
M  V30 4175 C 401.048 -0.917945 5.84233 0
M  V30 4176 H 399.978 -0.269735 0.704101 0
M  V30 4177 H 402.629 0.0333114 1.8347 0
M  V30 4178 H 401.011 -2.11304 3.34913 0
M  V30 4179 H 402.185 0.465325 4.58445 0
M  V30 4180 H 400.5 0.2628 4.1557 0
M  V30 4181 H 403.097 -2.45416 4.75053 0
M  V30 4182 H 403.44 -2.80659 3.07468 0
M  V30 4183 H 403.973 -1.25831 3.77374 0
M  V30 4184 H 400.712 -0.136633 6.55358 0
M  V30 4185 H 400.232 -1.65669 5.76467 0
M  V30 4186 H 401.911 -1.4236 6.31144 0
M  V30 4187 N 402.043 -1.548 -0.295768 0
M  V30 4188 C 402.975 -1.82492 -1.3867 0
M  V30 4189 C 403.988 -0.708134 -1.46592 0
M  V30 4190 O 405.177 -0.985686 -1.48817 0
M  V30 4191 C 402.277 -1.95256 -2.76999 0
M  V30 4192 C 401.45 -3.25709 -2.91946 0
M  V30 4193 C 400.509 -3.28824 -4.10806 0
M  V30 4194 O 399.535 -4.02328 -4.02643 0
M  V30 4195 N 400.737 -2.5459 -5.21694 0
M  V30 4196 H 403.502 -2.76646 -1.15269 0
M  V30 4197 H 401.063 -1.54438 -0.485849 0
M  V30 4198 H 403.055 -1.94736 -3.54768 0
M  V30 4199 H 401.625 -1.08072 -2.93324 0
M  V30 4200 H 400.845 -3.38959 -2.01247 0
M  V30 4201 H 402.133 -4.11786 -2.98847 0
M  V30 4202 H 401.531 -1.94512 -5.31208 0
M  V30 4203 H 400.088 -2.59818 -5.97778 0
M  V30 4204 N 403.521 0.559213 -1.47345 0
M  V30 4205 C 404.767 1.31843 -1.54095 0
M  V30 4206 C 405.1 1.93149 -0.201726 0
M  V30 4207 O 404.375 1.77759 0.789428 0
M  V30 4208 C 404.658 2.43006 -2.65744 0
M  V30 4209 C 404.511 1.86581 -4.09277 0
M  V30 4210 C 405.83 3.44943 -2.73318 0
M  V30 4211 H 402.949 0.478012 -0.560957 0
M  V30 4212 H 405.591 0.625977 -1.79392 0
M  V30 4213 H 403.741 3.02072 -2.44305 0
M  V30 4214 H 405.413 1.31792 -4.42073 0
M  V30 4215 H 403.656 1.17268 -4.17649 0
M  V30 4216 H 404.327 2.66933 -4.83168 0
M  V30 4217 H 406.803 2.95793 -2.92653 0
M  V30 4218 H 405.679 4.20153 -3.53218 0
M  V30 4219 H 405.94 4.03665 -1.80296 0
M  V30 4220 N 404.999 1.35443 0.805782 0
M  V30 4221 C 405.929 1.31095 1.93226 0
M  V30 4222 C 406.91 0.185244 1.69088 0
M  V30 4223 O 408.095 0.380332 1.90439 0
M  V30 4224 C 405.225 1.08299 3.29983 0
M  V30 4225 C 404.179 2.17519 3.68605 0
M  V30 4226 C 403.505 1.79887 5.03532 0
M  V30 4227 C 404.805 3.5949 3.78898 0
M  V30 4228 H 406.499 2.25352 1.97122 0
M  V30 4229 H 404.045 1.0848 0.946996 0
M  V30 4230 H 405.998 1.03897 4.08391 0
M  V30 4231 H 404.722 0.104885 3.26432 0
M  V30 4232 H 403.381 2.2102 2.92482 0
M  V30 4233 H 403.029 0.80693 4.96485 0
M  V30 4234 H 402.729 2.53001 5.30344 0
M  V30 4235 H 404.253 1.77011 5.84379 0
M  V30 4236 H 405.667 3.58307 4.47536 0
M  V30 4237 H 404.064 4.31371 4.1718 0
M  V30 4238 H 405.134 3.95584 2.80431 0
M  V30 4239 N 406.477 -1.02803 1.19454 0
M  V30 4240 C 407.725 -1.75869 0.995722 0
M  V30 4241 C 408.046 -1.89138 -0.474543 0
M  V30 4242 O 407.316 -1.42558 -1.34366 0
M  V30 4243 H 405.896 -0.651511 0.365435 0
M  V30 4244 H 408.558 -1.24004 1.50363 0
M  V30 4245 H 407.654 -2.76661 1.44447 0
M  V30 4246 N 407.956 -0.998596 -1.21925 0
M  V30 4247 C 409.233 -0.593401 -1.86382 0
M  V30 4248 C 409.613 0.92916 -1.89552 0
M  V30 4249 O 408.961 1.81347 -1.39017 0
M  V30 4250 C 409.171 -1.22039 -3.26967 0
M  V30 4251 C 410.519 -1.32449 -4.03413 0
M  V30 4252 O 411.543 -1.17522 -3.36254 0
M  V30 4253 O 410.402 -1.56395 -5.23644 0
M  V30 4254 H 407.496 -0.202385 -0.801854 0
M  V30 4255 H 410.042 -1.09484 -1.29659 0
M  V30 4256 H 408.814 -2.26158 -3.19325 0
M  V30 4257 H 408.437 -0.704906 -3.91301 0
M  V30 4258 N 409.434 1.37368 -0.772513 0
M  V30 4259 C 410.381 2.30262 -0.157488 0
M  V30 4260 C 411.351 1.51137 0.688965 0
M  V30 4261 O 412.536 1.79704 0.641168 0
M  V30 4262 C 409.676 3.37611 0.715045 0
M  V30 4263 C 408.789 4.31746 -0.148098 0
M  V30 4264 C 407.924 5.26171 0.729213 0
M  V30 4265 C 406.963 6.11948 -0.136418 0
M  V30 4266 N 406.1 6.98613 0.698914 0
M  V30 4267 H 410.94 2.82277 -0.955179 0
M  V30 4268 H 408.477 1.38957 -0.482631 0
M  V30 4269 H 410.435 3.98479 1.23575 0
M  V30 4270 H 409.065 2.86959 1.47833 0
M  V30 4271 H 408.117 3.72178 -0.786613 0
M  V30 4272 H 409.429 4.92084 -0.81579 0
M  V30 4273 H 408.583 5.92247 1.31637 0
M  V30 4274 H 407.322 4.66246 1.43059 0
M  V30 4275 H 406.327 5.4485 -0.736102 0
M  V30 4276 H 407.552 6.73945 -0.835134 0
M  V30 4277 H 405.498 6.41215 1.38489 0
M  V30 4278 H 405.415 7.55948 0.0885358 0
M  V30 4279 H 406.683 7.69077 1.27044 0
M  V30 4280 N 410.912 0.523116 1.48665 0
M  V30 4281 C 411.862 -0.263106 2.26477 0
M  V30 4282 C 412.846 -0.916005 1.32281 0
M  V30 4283 O 414.038 -0.819946 1.56863 0
M  V30 4284 C 411.167 -1.31361 3.17174 0
M  V30 4285 C 410.253 -0.665849 4.1884 0
M  V30 4286 N 410.644 0.244434 5.05209 0
M  V30 4287 C 408.942 -0.923863 4.36326 0
M  V30 4288 C 409.643 0.617443 5.78414 0
M  V30 4289 N 408.619 -0.0198686 5.43596 0
M  V30 4290 H 412.421 0.437295 2.90629 0
M  V30 4291 H 409.935 0.340675 1.58787 0
M  V30 4292 H 411.932 -1.89052 3.71571 0
M  V30 4293 H 410.592 -2.01546 2.54576 0
M  V30 4294 H 411.603 0.616621 5.14216 0
M  V30 4295 H 408.28 -1.6168 3.84923 0
M  V30 4296 H 409.67 1.36346 6.57921 0
M  V30 4297 N 412.39 -1.55475 0.257931 0
M  V30 4298 C 413.638 -1.98813 -0.363009 0
M  V30 4299 C 413.959 -1.14757 -1.57657 0
M  V30 4300 O 413.229 -0.232956 -1.9451 0
M  V30 4301 H 411.809 -0.734308 -0.137113 0
M  V30 4302 H 414.471 -1.9156 0.359281 0
M  V30 4303 H 413.567 -3.04941 -0.664634 0
M  V30 4304 N 413.868 0.0150385 -1.57593 0
M  V30 4305 C 414.816 1.02958 -2.08572 0
M  V30 4306 C 415.81 1.36554 -1.00246 0
M  V30 4307 O 417.016 1.35295 -1.18724 0
M  V30 4308 H 413.391 0.349619 -0.665786 0
M  V30 4309 H 415.362 0.573932 -2.92829 0
M  V30 4310 C 414.111 2.31752 -2.59203 0
M  V30 4311 H 413.434 2.06765 -3.42182 0
M  V30 4312 H 414.874 3.01053 -2.98568 0
M  V30 4313 C 413.333 3.01692 -1.49945 0
M  V30 4314 O 413.863 3.92083 -0.873704 0
M  V30 4315 N 412.069 2.6326 -1.23056 0
M  V30 4316 H 411.616 1.89838 -1.74125 0
M  V30 4317 H 411.574 3.10372 -0.501685 0
M  V30 4318 N 415.346 1.54954 0.287554 0
M  V30 4319 C 416.309 1.86076 1.33823 0
M  V30 4320 C 417.309 0.734414 1.43049 0
M  V30 4321 O 418.499 1.00266 1.42452 0
M  V30 4322 C 415.631 2.05305 2.72144 0
M  V30 4323 H 416.824 2.79984 1.07465 0
M  V30 4324 H 414.377 1.47223 0.524902 0
M  V30 4325 H 415.112 1.1373 3.03704 0
M  V30 4326 H 414.897 2.873 2.66836 0
M  V30 4327 H 416.387 2.30706 3.48087 0
M  V30 4328 N 416.824 -0.551391 1.4764 0
M  V30 4329 C 417.754 -1.66757 1.63445 0
M  V30 4330 C 418.735 -1.63077 0.483742 0
M  V30 4331 O 419.92 -1.80607 0.71377 0
M  V30 4332 C 417.05 -3.05387 1.65396 0
M  V30 4333 C 416.004 -3.23918 2.79752 0
M  V30 4334 C 415.33 -4.63393 2.66779 0
M  V30 4335 C 416.63 -3.08735 4.21284 0
M  V30 4336 H 418.324 -1.53786 2.56886 0
M  V30 4337 H 415.87 -0.738415 1.23626 0
M  V30 4338 H 417.823 -3.83325 1.75043 0
M  V30 4339 H 416.547 -3.19332 0.685195 0
M  V30 4340 H 415.206 -2.48391 2.69625 0
M  V30 4341 H 414.854 -4.74144 1.67918 0
M  V30 4342 H 414.554 -4.7674 3.43501 0
M  V30 4343 H 416.078 -5.43458 2.78364 0
M  V30 4344 H 417.492 -3.76484 4.32357 0
M  V30 4345 H 415.889 -3.33588 4.98838 0
M  V30 4346 H 416.959 -2.0541 4.39243 0
M  V30 4347 N 418.302 -1.35869 -0.798587 0
M  V30 4348 C 419.548 -1.30788 -1.55775 0
M  V30 4349 C 419.903 0.114558 -1.92059 0
M  V30 4350 O 419.196 1.06691 -1.59147 0
M  V30 4351 C 419.39 -2.1556 -2.85077 0
M  V30 4352 C 419.219 -3.65904 -2.61428 0
M  V30 4353 C 417.989 -4.35112 -2.56915 0
M  V30 4354 C 420.187 -4.59375 -2.31255 0
M  V30 4355 N 418.169 -5.71155 -2.25068 0
M  V30 4356 C 419.54 -5.83598 -2.09316 0
M  V30 4357 C 421.595 -4.48035 -2.17185 0
M  V30 4358 C 420.298 -6.97755 -1.74731 0
M  V30 4359 C 422.324 -5.62049 -1.83998 0
M  V30 4360 C 421.686 -6.85305 -1.629 0
M  V30 4361 H 417.785 -0.533855 -0.571422 0
M  V30 4362 H 420.369 -1.7083 -0.934079 0
M  V30 4363 H 418.54 -1.77776 -3.45326 0
M  V30 4364 H 420.272 -2.01938 -3.50718 0
M  V30 4365 H 417.027 -3.87812 -2.71843 0
M  V30 4366 H 417.451 -6.42978 -2.11916 0
M  V30 4367 H 422.093 -3.53338 -2.3219 0
M  V30 4368 H 419.811 -7.92411 -1.58464 0
M  V30 4369 H 423.397 -5.55232 -1.73808 0
M  V30 4370 H 422.277 -7.72034 -1.37596 0
M  V30 4371 N 419.78 1.02168 -1.19998 0
M  V30 4372 C 420.71 2.12488 -0.96804 0
M  V30 4373 C 421.691 1.69799 0.101185 0
M  V30 4374 O 422.876 1.94121 -0.0552993 0
M  V30 4375 C 420.006 3.43479 -0.513776 0
M  V30 4376 C 418.96 3.99884 -1.52566 0
M  V30 4377 C 418.286 5.26582 -0.928214 0
M  V30 4378 C 419.586 4.33861 -2.90795 0
M  V30 4379 H 421.28 2.32149 -1.89069 0
M  V30 4380 H 418.826 1.11564 -0.910468 0
M  V30 4381 H 420.779 4.20036 -0.338774 0
M  V30 4382 H 419.503 3.23561 0.444493 0
M  V30 4383 H 418.162 3.25429 -1.68794 0
M  V30 4384 H 417.81 5.02986 0.0378289 0
M  V30 4385 H 417.51 5.65284 -1.60397 0
M  V30 4386 H 419.034 6.05799 -0.764167 0
M  V30 4387 H 420.448 5.01327 -2.78109 0
M  V30 4388 H 418.845 4.83664 -3.55231 0
M  V30 4389 H 419.915 3.42848 -3.42904 0
M  V30 4390 N 421.258 1.00505 1.21394 0
M  V30 4391 C 422.206 0.558623 2.25792 0
M  V30 4392 C 423.2 -0.396848 1.64686 0
M  V30 4393 O 424.406 -0.268035 1.77993 0
M  V30 4394 H 420.781 0.1623 0.734277 0
M  V30 4395 H 422.752 1.4503 2.60785 0
M  V30 4396 C 421.501 -0.0989574 3.47559 0
M  V30 4397 H 420.824 0.627225 3.94849 0
M  V30 4398 H 422.264 -0.3746 4.22342 0
M  V30 4399 C 420.723 -1.33817 3.09184 0
M  V30 4400 O 421.253 -2.43252 3.19674 0
M  V30 4401 N 419.459 -1.21793 2.63846 0
M  V30 4402 H 419.006 -0.32746 2.5551 0
M  V30 4403 H 418.964 -2.04809 2.38539 0
M  V30 4404 N 422.737 -1.36956 0.779787 0
M  V30 4405 C 423.647 -2.33965 0.172491 0
M  V30 4406 C 424.663 -1.60574 -0.670222 0
M  V30 4407 O 425.839 -1.92617 -0.588263 0
M  V30 4408 C 422.904 -3.39761 -0.690173 0
M  V30 4409 C 421.965 -4.28964 0.169924 0
M  V30 4410 C 421.198 -5.29707 -0.651662 0
M  V30 4411 O 421.421 -5.38238 -1.88827 0
M  V30 4412 O 420.355 -6.01873 -0.0566264 0
M  V30 4413 H 424.181 -2.87647 0.974321 0
M  V30 4414 H 421.766 -1.39258 0.541078 0
M  V30 4415 H 423.648 -4.04471 -1.1824 0
M  V30 4416 H 422.323 -2.88394 -1.47006 0
M  V30 4417 H 421.23 -3.67326 0.708696 0
M  V30 4418 H 422.563 -4.83656 0.913085 0
M  V30 4419 N 424.215 -0.530993 -1.48385 0
M  V30 4420 C 425.631 -0.188919 -1.58478 0
M  V30 4421 C 425.831 1.30786 -1.53288 0
M  V30 4422 O 424.887 2.08619 -1.42248 0
M  V30 4423 C 426.2 -0.792343 -2.90073 0
M  V30 4424 C 427.748 -0.76117 -3.03604 0
M  V30 4425 C 428.223 -1.34319 -4.37861 0
M  V30 4426 N 429.714 -1.3052 -4.44431 0
M  V30 4427 C 430.449 -1.72543 -5.46824 0
M  V30 4428 N 429.945 -2.22299 -6.56167 0
M  V30 4429 N 431.738 -1.63773 -5.37712 0
M  V30 4430 H 423.889 -1.50377 -1.50002 0
M  V30 4431 H 426.152 -0.625559 -0.712306 0
M  V30 4432 H 425.858 -1.84323 -2.99529 0
M  V30 4433 H 425.732 -0.270026 -3.76232 0
M  V30 4434 H 428.119 0.280957 -2.93759 0
M  V30 4435 H 428.2 -1.32097 -2.19053 0
M  V30 4436 H 427.844 -2.38425 -4.4846 0
M  V30 4437 H 427.774 -0.759064 -5.21101 0
M  V30 4438 H 430.265 -0.940973 -3.65997 0
M  V30 4439 H 430.578 -2.52356 -7.30436 0
M  V30 4440 H 428.923 -2.26293 -6.57127 0
M  V30 4441 H 432.114 -1.24698 -4.51185 0
M  V30 4442 H 432.287 -1.96844 -6.17379 0
M  V30 4443 N 425.693 1.55336 -0.266172 0
M  V30 4444 C 426.603 2.2583 0.635458 0
M  V30 4445 C 427.619 1.28106 1.17749 0
M  V30 4446 O 428.795 1.61024 1.20968 0
M  V30 4447 C 425.86 2.95879 1.80712 0
M  V30 4448 C 424.921 4.09059 1.30265 0
M  V30 4449 C 424.154 4.75759 2.41846 0
M  V30 4450 O 424.377 4.41622 3.61007 0
M  V30 4451 O 423.311 5.63888 2.1051 0
M  V30 4452 H 427.137 3.03631 0.0646693 0
M  V30 4453 H 424.722 1.49361 -0.0339177 0
M  V30 4454 H 426.604 3.39932 2.49047 0
M  V30 4455 H 425.279 2.21002 2.36516 0
M  V30 4456 H 424.186 3.69482 0.586019 0
M  V30 4457 H 425.519 4.85811 0.790458 0
M  V30 4458 N 427.171 -0.0066808 1.57599 0
M  V30 4459 C 428.411 -0.697501 1.92131 0
M  V30 4460 C 428.775 -1.71306 0.867071 0
M  V30 4461 O 429.976 -2.45377 1.09743 0
M  V30 4462 C 428.247 -1.32978 3.3174 0
M  V30 4463 S 429.806 -2.04665 3.88146 0
M  V30 4464 H 426.624 -0.230555 0.672581 0
M  V30 4465 H 429.226 0.0484026 1.9544 0
M  V30 4466 H 427.93 -0.57772 4.06313 0
M  V30 4467 H 427.461 -2.11376 3.31789 0
M  V30 4468 H 429.476 -3.32097 3.68682 0
M  V30 4469 N 428.649 -1.55105 -0.279332 0
M  V30 4470 C 429.874 -1.7976 -1.03446 0
M  V30 4471 C 430.299 -0.565952 -1.79384 0
M  V30 4472 O 429.657 0.484259 -1.74713 0
M  V30 4473 C 429.705 -3.0179 -1.97371 0
M  V30 4474 O 428.809 -2.76432 -3.06038 0
M  V30 4475 H 428.15 -0.594334 -0.29608 0
M  V30 4476 H 430.68 -2.02235 -0.310165 0
M  V30 4477 H 430.69 -3.30351 -2.39441 0
M  V30 4478 H 429.365 -3.91085 -1.4151 0
M  V30 4479 H 427.942 -2.58949 -2.68328 0
M  V30 4480 N 430.127 0.543554 -1.4793 0
M  V30 4481 C 431.376 1.29649 -1.54512 0
M  V30 4482 C 431.689 1.94382 -0.217973 0
M  V30 4483 O 432.895 2.71017 -0.161908 0
M  V30 4484 C 431.351 2.35175 -2.72435 0
M  V30 4485 C 430.959 1.76572 -4.11736 0
M  V30 4486 C 432.703 3.11564 -2.8832 0
M  V30 4487 C 430.61 2.79958 -5.20939 0
M  V30 4488 H 429.54 0.487541 -0.57517 0
M  V30 4489 H 432.191 0.575708 -1.74235 0
M  V30 4490 H 430.573 3.10229 -2.46118 0
M  V30 4491 H 431.747 1.07799 -4.48013 0
M  V30 4492 H 430.062 1.12722 -4.00852 0
M  V30 4493 H 432.659 3.88794 -3.67074 0
M  V30 4494 H 433.002 3.66594 -1.97268 0
M  V30 4495 H 433.535 2.43623 -3.14472 0
M  V30 4496 H 430.274 2.29766 -6.13912 0
M  V30 4497 H 429.794 3.47101 -4.89164 0
M  V30 4498 H 431.473 3.43198 -5.48474 0
M  V30 4499 N 431.605 1.3629 0.791371 0
M  V30 4500 C 432.537 1.26321 1.91248 0
M  V30 4501 C 433.55 0.18313 1.61767 0
M  V30 4502 O 434.739 0.437682 1.73051 0
M  V30 4503 C 431.839 0.925901 3.26007 0
M  V30 4504 C 431.012 2.10746 3.83281 0
M  V30 4505 C 430.071 1.74352 4.96475 0
M  V30 4506 O 429.097 2.46416 5.13096 0
M  V30 4507 N 430.299 0.676058 5.7655 0
M  V30 4508 H 433.064 2.22915 2.00323 0
M  V30 4509 H 430.625 1.29659 0.969546 0
M  V30 4510 H 432.617 0.663636 3.99222 0
M  V30 4511 H 431.187 0.0491581 3.12561 0
M  V30 4512 H 430.407 2.53264 3.02077 0
M  V30 4513 H 431.695 2.8969 4.18279 0
M  V30 4514 H 431.093 0.0776467 5.65647 0
M  V30 4515 H 429.65 0.473612 6.50077 0
M  V30 4516 N 433.083 -1.0153 1.20538 0
M  V30 4517 C 434.499 -1.27461 0.96051 0
M  V30 4518 C 434.699 -1.98273 -0.359193 0
M  V30 4519 O 433.755 -2.27886 -1.0874 0
M  V30 4520 C 435.068 -2.10837 2.14402 0
M  V30 4521 C 436.616 -2.24099 2.18515 0
M  V30 4522 C 437.091 -3.10852 3.36355 0
M  V30 4523 N 438.582 -3.18441 3.36377 0
M  V30 4524 C 439.317 -3.85795 4.24205 0
M  V30 4525 N 438.813 -4.55264 5.22213 0
M  V30 4526 N 440.606 -3.82331 4.12043 0
M  V30 4527 H 432.757 -0.539907 2.05423 0
M  V30 4528 H 435.02 -0.30092 0.898972 0
M  V30 4529 H 434.726 -1.66144 3.09983 0
M  V30 4530 H 434.6 -3.11576 2.12604 0
M  V30 4531 H 436.987 -2.68016 1.23497 0
M  V30 4532 H 437.068 -1.22865 2.24361 0
M  V30 4533 H 436.712 -2.6764 4.31661 0
M  V30 4534 H 436.642 -4.12177 3.27746 0
M  V30 4535 H 439.133 -2.68978 2.65442 0
M  V30 4536 H 439.446 -5.04331 5.85551 0
M  V30 4537 H 437.791 -4.54085 5.26148 0
M  V30 4538 H 440.982 -3.27207 3.34743 0
M  V30 4539 H 441.155 -4.34547 4.807 0
M  V30 4540 N 434.561 -1.01147 -1.20859 0
M  V30 4541 C 435.977 -0.725422 -1.42161 0
M  V30 4542 C 436.177 0.696919 -1.89064 0
M  V30 4543 O 435.233 1.46539 -2.05627 0
M  V30 4544 C 436.546 -1.74678 -2.44761 0
M  V30 4545 C 438.094 -1.76433 -2.58535 0
M  V30 4546 C 438.569 -2.77481 -3.64374 0
M  V30 4547 N 440.06 -2.76189 -3.71852 0
M  V30 4548 C 440.795 -3.51035 -4.53389 0
M  V30 4549 N 440.291 -4.35541 -5.38773 0
M  V30 4550 N 442.084 -3.39655 -4.47873 0
M  V30 4551 H 434.235 -1.92979 -0.887282 0
M  V30 4552 H 436.498 -0.833327 -0.451962 0
M  V30 4553 H 436.204 -2.76551 -2.17285 0
M  V30 4554 H 436.078 -1.55472 -3.43669 0
M  V30 4555 H 438.465 -0.75248 -2.85345 0
M  V30 4556 H 438.546 -1.99712 -1.5984 0
M  V30 4557 H 438.19 -3.78827 -3.38308 0
M  V30 4558 H 438.12 -2.51466 -4.6268 0
M  V30 4559 H 440.611 -2.14885 -3.10858 0
M  V30 4560 H 440.924 -4.89432 -5.98061 0
M  V30 4561 H 439.269 -4.39621 -5.38292 0
M  V30 4562 H 442.46 -2.73063 -3.80203 0
M  V30 4563 H 442.633 -3.9824 -5.11184 0
M  V30 4564 N 436.039 1.36541 -0.78704 0
M  V30 4565 C 436.987 2.31965 -0.171724 0
M  V30 4566 C 437.981 1.55689 0.667631 0
M  V30 4567 O 439.187 1.70969 0.562981 0
M  V30 4568 H 435.562 0.751101 -0.0367545 0
M  V30 4569 H 437.533 2.81428 -0.992017 0
M  V30 4570 C 436.282 3.40968 0.680904 0
M  V30 4571 H 435.605 3.99775 0.0443961 0
M  V30 4572 H 437.045 4.10063 1.07815 0
M  V30 4573 C 435.504 2.82338 1.83813 0
M  V30 4574 O 436.034 2.74311 2.93456 0
M  V30 4575 N 434.24 2.39661 1.6435 0
M  V30 4576 H 433.787 2.46389 0.751668 0
M  V30 4577 H 433.745 2.00779 2.4194 0
M  V30 4578 N 437.518 0.538854 1.48102 0
M  V30 4579 C 438.45 -0.256278 2.27763 0
M  V30 4580 C 439.463 -0.89633 1.35904 0
M  V30 4581 O 440.652 -0.773275 1.60881 0
M  V30 4582 C 437.752 -1.37896 3.09577 0
M  V30 4583 C 436.925 -0.839159 4.29275 0
M  V30 4584 C 435.984 -1.84405 4.9283 0
M  V30 4585 O 435.01 -1.39746 5.51779 0
M  V30 4586 N 436.212 -3.17666 4.85869 0
M  V30 4587 H 438.977 0.426968 2.96643 0
M  V30 4588 H 436.538 0.373747 1.57527 0
M  V30 4589 H 438.53 -2.04955 3.48963 0
M  V30 4590 H 437.1 -1.96572 2.4306 0
M  V30 4591 H 436.32 0.00769287 3.94199 0
M  V30 4592 H 437.608 -0.457548 5.06739 0
M  V30 4593 H 437.006 -3.56609 4.39143 0
M  V30 4594 H 435.563 -3.80334 5.29329 0
M  V30 4595 N 438.996 -1.55193 0.274407 0
M  V30 4596 C 439.943 -2.225 -0.613374 0
M  V30 4597 C 440.913 -1.19823 -1.15029 0
M  V30 4598 O 442.098 -1.48362 -1.19973 0
M  V30 4599 C 439.238 -2.94927 -1.79199 0
M  V30 4600 C 438.351 -4.12322 -1.28899 0
M  V30 4601 C 437.486 -4.72394 -2.42934 0
M  V30 4602 C 436.525 -5.81984 -1.89634 0
M  V30 4603 N 435.662 -6.36123 -2.9714 0
M  V30 4604 H 440.502 -2.97982 -0.032756 0
M  V30 4605 H 438.039 -1.47099 -0.00440146 0
M  V30 4606 H 439.997 -3.35134 -2.48478 0
M  V30 4607 H 438.627 -2.2187 -2.34465 0
M  V30 4608 H 437.679 -3.7724 -0.489327 0
M  V30 4609 H 438.991 -4.91355 -0.858587 0
M  V30 4610 H 438.145 -5.15317 -3.20208 0
M  V30 4611 H 436.884 -3.92636 -2.8929 0
M  V30 4612 H 435.889 -5.38511 -1.1084 0
M  V30 4613 H 437.114 -6.6361 -1.44215 0
M  V30 4614 H 435.06 -5.59259 -3.42878 0
M  V30 4615 H 434.977 -7.10427 -2.58515 0
M  V30 4616 H 436.245 -6.83704 -3.74391 0
M  V30 4617 N 440.474 -0.00167713 -1.576 0
M  V30 4618 C 441.72 0.683832 -1.90923 0
M  V30 4619 C 442.053 1.7333 -0.875799 0
M  V30 4620 O 441.328 1.94215 0.10525 0
M  V30 4621 C 441.611 1.32543 -3.3482 0
M  V30 4622 C 441.464 0.287387 -4.48881 0
M  V30 4623 C 442.783 2.25114 -3.78169 0
M  V30 4624 H 439.902 0.247125 -0.694333 0
M  V30 4625 H 442.544 -0.0533149 -1.89925 0
M  V30 4626 H 440.694 1.95372 -3.35801 0
M  V30 4627 H 442.366 -0.341346 -4.60035 0
M  V30 4628 H 440.609 -0.39017 -4.32042 0
M  V30 4629 H 441.28 0.775393 -5.46527 0
M  V30 4630 H 443.756 1.723 -3.7875 0
M  V30 4631 H 442.632 2.66971 -4.79602 0
M  V30 4632 H 442.893 3.13092 -3.12131 0
M  V30 4633 N 441.952 1.55251 0.271103 0
M  V30 4634 C 443.198 1.76207 1.00394 0
M  V30 4635 C 443.531 0.562604 1.85872 0
M  V30 4636 O 442.806 -0.439785 1.89463 0
M  V30 4637 C 443.089 3.06828 1.8849 0
M  V30 4638 C 442.942 4.37134 1.05992 0
M  V30 4639 C 444.261 3.33503 2.87165 0
M  V30 4640 H 441.38 0.641086 0.363562 0
M  V30 4641 H 444.022 1.87982 0.276189 0
M  V30 4642 H 442.172 2.96921 2.5054 0
M  V30 4643 H 443.844 4.59001 0.459978 0
M  V30 4644 H 442.087 4.32275 0.363443 0
M  V30 4645 H 442.758 5.2486 1.70955 0
M  V30 4646 H 445.234 3.43215 2.3525 0
M  V30 4647 H 444.11 4.2616 3.45946 0
M  V30 4648 H 444.371 2.53235 3.62387 0
M  V30 4649 N 443.43 -0.535701 1.48216 0
M  V30 4650 C 444.34 -1.66785 1.64985 0
M  V30 4651 C 445.356 -1.65654 0.532414 0
M  V30 4652 O 446.532 -1.8471 0.80275 0
M  V30 4653 C 443.597 -3.0326 1.68031 0
M  V30 4654 C 442.658 -3.1529 2.9136 0
M  V30 4655 C 441.891 -4.45255 2.94252 0
M  V30 4656 O 442.114 -5.32011 2.05719 0
M  V30 4657 O 441.048 -4.6153 3.86359 0
M  V30 4658 H 444.874 -1.55576 2.60825 0
M  V30 4659 H 442.459 -0.70815 1.31551 0
M  V30 4660 H 444.341 -3.84436 1.72589 0
M  V30 4661 H 443.016 -3.14805 0.753628 0
M  V30 4662 H 441.923 -2.3343 2.92337 0
M  V30 4663 H 443.256 -3.08658 3.83394 0
M  V30 4664 N 444.908 -1.36708 -0.784132 0
M  V30 4665 C 445.818 -1.3363 -1.92822 0
M  V30 4666 C 446.834 -0.237686 -1.72369 0
M  V30 4667 O 448.01 -0.470962 -1.95816 0
M  V30 4668 C 445.075 -1.13011 -3.27764 0
M  V30 4669 C 444.136 -2.32397 -3.60957 0
M  V30 4670 C 443.369 -2.12752 -4.89461 0
M  V30 4671 O 443.592 -1.10541 -5.59586 0
M  V30 4672 O 442.526 -3.00653 -5.21432 0
M  V30 4673 H 446.352 -2.29964 -1.98369 0
M  V30 4674 H 443.937 -1.1731 -0.925136 0
M  V30 4675 H 445.819 -1.03451 -4.08504 0
M  V30 4676 H 444.494 -0.19743 -3.23097 0
M  V30 4677 H 443.401 -2.47527 -2.80502 0
M  V30 4678 H 444.734 -3.2419 -3.70354 0
M  V30 4679 N 446.386 1.0089 -1.21074 0
M  V30 4680 C 447.349 2.0775 -0.968129 0
M  V30 4681 C 448.349 1.6069 0.0593445 0
M  V30 4682 O 449.539 1.73293 -0.177525 0
M  V30 4683 C 446.671 3.37794 -0.459108 0
M  V30 4684 H 447.864 2.30707 -1.9161 0
M  V30 4685 H 445.417 1.17807 -1.02719 0
M  V30 4686 H 446.152 3.20516 0.49397 0
M  V30 4687 H 445.937 3.7328 -1.20019 0
M  V30 4688 H 447.427 4.16454 -0.309099 0
M  V30 4689 N 447.864 1.01787 1.20321 0
M  V30 4690 C 449.275 0.739307 1.71438 0
M  V30 4691 C 449.626 -0.742041 1.81627 0
M  V30 4692 O 448.751 -1.57903 1.47971 0
M  V30 4693 C 449.346 1.33538 3.11373 0
M  V30 4694 C 447.905 1.10566 3.59795 0
M  V30 4695 C 447.052 1.44028 2.36962 0
M  V30 4696 H 450.003 1.18718 1.05317 0
M  V30 4697 H 450.024 0.726611 3.73498 0
M  V30 4698 H 449.536 2.41352 3.03926 0
M  V30 4699 H 447.637 0.0452405 3.72573 0
M  V30 4700 H 447.75 1.78661 4.44542 0
M  V30 4701 H 446.114 0.85933 2.39766 0
M  V30 4702 H 446.897 2.52901 2.32155 0
M  V30 4703 N 449.342 -1.36122 0.79427 0
M  V30 4704 C 450.567 -2.03891 0.379871 0
M  V30 4705 C 450.992 -1.59488 -0.997251 0
M  V30 4706 O 450.35 -0.765652 -1.64339 0
M  V30 4707 C 450.398 -3.57687 0.457442 0
M  V30 4708 O 449.502 -4.08931 -0.5338 0
M  V30 4709 H 448.843 -0.6443 0.160541 0
M  V30 4710 H 451.373 -1.73976 1.07673 0
M  V30 4711 H 451.383 -4.06721 0.322792 0
M  V30 4712 H 450.058 -3.89357 1.46199 0
M  V30 4713 H 448.635 -3.71154 -0.360409 0
M  V30 4714 N 450.82 -0.546701 -1.47814 0
M  V30 4715 C 452.069 -0.0166497 -2.01693 0
M  V30 4716 C 452.382 1.33721 -1.42752 0
M  V30 4717 O 453.588 1.95658 -1.8823 0
M  V30 4718 C 452.044 0.0206769 -3.59894 0
M  V30 4719 C 451.652 -1.3293 -4.27824 0
M  V30 4720 C 453.396 0.498674 -4.21561 0
M  V30 4721 C 451.303 -1.25165 -5.78003 0
M  V30 4722 H 450.233 -0.0024541 -0.753996 0
M  V30 4723 H 452.884 -0.692984 -1.69912 0
M  V30 4724 H 451.266 0.76244 -3.88591 0
M  V30 4725 H 452.44 -2.08795 -4.10781 0
M  V30 4726 H 450.755 -1.74438 -3.78101 0
M  V30 4727 H 453.352 0.575 -5.31599 0
M  V30 4728 H 453.695 1.5083 -3.88016 0
M  V30 4729 H 454.228 -0.18791 -3.97356 0
M  V30 4730 H 450.967 -2.23695 -6.1615 0
M  V30 4731 H 450.487 -0.53464 -5.97412 0
M  V30 4732 H 452.166 -0.949299 -6.39998 0
M  V30 4733 N 452.299 1.55045 -0.282633 0
M  V30 4734 C 453.546 1.9976 0.33199 0
M  V30 4735 C 453.874 1.17105 1.55295 0
M  V30 4736 O 453.129 0.230599 1.94337 0
M  V30 4737 C 453.428 3.49422 0.750938 0
M  V30 4738 C 453.094 4.4941 -0.366228 0
M  V30 4739 C 451.756 4.76471 -0.672964 0
M  V30 4740 C 454.108 5.09054 -1.11864 0
M  V30 4741 C 451.436 5.60442 -1.73556 0
M  V30 4742 C 453.788 5.9418 -2.17102 0
M  V30 4743 C 452.452 6.19558 -2.48402 0
M  V30 4744 H 451.722 0.730974 0.121484 0
M  V30 4745 H 454.369 1.8732 -0.39791 0
M  V30 4746 H 452.674 3.59377 1.56063 0
M  V30 4747 H 454.371 3.81432 1.23736 0
M  V30 4748 H 450.961 4.2844 -0.117041 0
M  V30 4749 H 455.145 4.88165 -0.894925 0
M  V30 4750 H 450.401 5.78349 -1.983 0
M  V30 4751 H 454.575 6.39427 -2.75873 0
M  V30 4752 H 452.202 6.84417 -3.30874 0
M  V30 4753 N 453.777 0.010035 1.57597 0
M  V30 4754 C 454.707 -0.976857 2.12084 0
M  V30 4755 C 455.688 -1.35191 1.03235 0
M  V30 4756 O 456.873 -1.43389 1.3097 0
M  V30 4757 C 454.003 -2.26548 2.63236 0
M  V30 4758 C 452.957 -2.03175 3.76701 0
M  V30 4759 C 452.283 -3.38138 4.14206 0
M  V30 4760 C 453.583 -1.38625 5.03568 0
M  V30 4761 H 455.277 -0.523145 2.94794 0
M  V30 4762 H 452.823 -0.250195 1.4181 0
M  V30 4763 H 454.776 -2.95952 2.99984 0
M  V30 4764 H 453.5 -2.74051 1.77661 0
M  V30 4765 H 452.159 -1.36195 3.40362 0
M  V30 4766 H 451.807 -3.83363 3.25641 0
M  V30 4767 H 451.507 -3.23312 4.90656 0
M  V30 4768 H 453.031 -4.08841 4.53521 0
M  V30 4769 H 454.445 -1.98 5.38023 0
M  V30 4770 H 452.842 -1.34256 5.84889 0
M  V30 4771 H 453.912 -0.356722 4.83586 0
M  V30 4772 N 455.255 -1.55392 -0.262866 0
M  V30 4773 C 456.532 -1.67204 -1.01499 0
M  V30 4774 C 456.912 -0.545186 -2.03939 0
M  V30 4775 O 456.26 0.453467 -2.23955 0
M  V30 4776 C 456.47 -3.06847 -1.6627 0
M  V30 4777 C 457.818 -3.64928 -2.17054 0
M  V30 4778 O 458.842 -3.09545 -1.76239 0
M  V30 4779 O 457.701 -4.61984 -2.91947 0
M  V30 4780 H 454.795 -0.679467 -0.471438 0
M  V30 4781 H 457.341 -1.67729 -0.257918 0
M  V30 4782 H 456.113 -3.80309 -0.920915 0
M  V30 4783 H 455.736 -3.10266 -2.48638 0
M  V30 4784 N 456.733 0.527833 -1.48498 0
M  V30 4785 C 457.696 1.61439 -1.62696 0
M  V30 4786 C 458.696 1.52824 -0.500136 0
M  V30 4787 O 459.886 1.56456 -0.765976 0
M  V30 4788 C 457.018 3.01063 -1.59918 0
M  V30 4789 H 458.211 1.50189 -2.59583 0
M  V30 4790 H 455.764 0.750055 -1.37127 0
M  V30 4791 H 456.499 3.17818 -0.645163 0
M  V30 4792 H 456.284 3.08725 -2.41726 0
M  V30 4793 H 457.774 3.80057 -1.73051 0
M  V30 4794 N 458.211 1.37122 0.776871 0
M  V30 4795 C 459.121 1.34651 1.9211 0
M  V30 4796 C 460.137 0.246824 1.7224 0
M  V30 4797 O 461.313 0.48134 1.95563 0
M  V30 4798 C 458.378 1.14748 3.2716 0
M  V30 4799 C 457.439 2.34308 3.5972 0
M  V30 4800 C 456.672 2.15345 4.88326 0
M  V30 4801 O 456.895 1.13507 5.58992 0
M  V30 4802 O 455.829 3.03414 5.1983 0
M  V30 4803 H 459.655 2.31013 1.97146 0
M  V30 4804 H 457.24 1.17799 0.918901 0
M  V30 4805 H 459.122 1.05616 4.0795 0
M  V30 4806 H 457.797 0.214562 3.22988 0
M  V30 4807 H 456.704 2.49011 2.79185 0
M  V30 4808 H 458.037 3.26149 3.68629 0
M  V30 4809 N 459.689 -1.00246 1.21608 0
M  V30 4810 C 460.917 -1.77631 1.06089 0
M  V30 4811 C 461.332 -1.84746 -0.38916 0
M  V30 4812 O 460.689 -1.31068 -1.26994 0
M  V30 4813 C 460.74 -3.21415 1.65453 0
M  V30 4814 O 460.461 -3.14703 3.04785 0
M  V30 4815 C 461.962 -4.15289 1.55079 0
M  V30 4816 H 459.182 -0.558162 0.37242 0
M  V30 4817 H 461.726 -1.26093 1.60999 0
M  V30 4818 H 459.881 -3.70053 1.14629 0
M  V30 4819 H 460.295 -4.05056 3.33212 0
M  V30 4820 H 461.769 -5.13965 2.01355 0
M  V30 4821 H 462.246 -4.36279 0.505665 0
M  V30 4822 H 462.852 -3.72543 2.05163 0
M  V30 4823 N 461.167 -1.02423 -1.1978 0
M  V30 4824 C 462.583 -0.740459 -1.41384 0
M  V30 4825 C 462.783 0.676827 -1.89793 0
M  V30 4826 O 461.839 1.4435 -2.0717 0
M  V30 4827 C 463.152 -1.77264 -2.42895 0
M  V30 4828 C 464.7 -1.79165 -2.56649 0
M  V30 4829 C 465.175 -2.8133 -3.6141 0
M  V30 4830 N 466.666 -2.80118 -3.68901 0
M  V30 4831 C 467.401 -3.55824 -4.49641 0
M  V30 4832 N 466.897 -4.41231 -5.34123 0
M  V30 4833 N 468.69 -3.44387 -4.44246 0
M  V30 4834 H 460.841 -1.9391 -0.866764 0
M  V30 4835 H 463.104 -0.838074 -0.443098 0
M  V30 4836 H 462.81 -2.7884 -2.14339 0
M  V30 4837 H 462.684 -1.59108 -3.42001 0
M  V30 4838 H 465.071 -0.782702 -2.84531 0
M  V30 4839 H 465.152 -2.01396 -1.57713 0
M  V30 4840 H 464.796 -3.82394 -3.34271 0
M  V30 4841 H 464.726 -2.56359 -4.59986 0
M  V30 4842 H 467.217 -2.1817 -3.08562 0
M  V30 4843 H 467.53 -4.95747 -5.92836 0
M  V30 4844 H 465.875 -4.45306 -5.33599 0
M  V30 4845 H 469.066 -2.7708 -3.77285 0
M  V30 4846 H 469.239 -4.0364 -5.06931 0
M  V30 4847 N 462.645 1.35699 -0.801477 0
M  V30 4848 C 464.061 1.52065 -0.484596 0
M  V30 4849 C 464.261 1.75215 0.995084 0
M  V30 4850 O 463.317 1.79061 1.78026 0
M  V30 4851 C 464.63 2.69908 -1.32552 0
M  V30 4852 C 466.178 2.83784 -1.32044 0
M  V30 4853 C 466.653 4.04646 -2.14536 0
M  V30 4854 N 468.144 4.11814 -2.12046 0
M  V30 4855 C 468.879 5.04437 -2.72636 0
M  V30 4856 N 468.375 6.02426 -3.42133 0
M  V30 4857 N 470.168 4.97144 -2.62305 0
M  V30 4858 H 462.319 1.18928 -1.75983 0
M  V30 4859 H 464.582 0.581455 -0.748741 0
M  V30 4860 H 464.288 2.59363 -2.37537 0
M  V30 4861 H 464.162 3.64376 -0.975181 0
M  V30 4862 H 466.549 2.93783 -0.27846 0
M  V30 4863 H 466.63 1.90188 -1.71062 0
M  V30 4864 H 466.274 3.95407 -3.18772 0
M  V30 4865 H 466.204 4.97413 -1.72882 0
M  V30 4866 H 468.695 3.41664 -1.61476 0
M  V30 4867 H 469.008 6.69688 -3.85666 0
M  V30 4868 H 467.353 6.02615 -3.46237 0
M  V30 4869 H 470.544 4.19546 -2.07603 0
M  V30 4870 H 470.717 5.69138 -3.09815 0
M  V30 4871 N 464.123 0.554532 1.47522 0
M  V30 4872 C 465.086 -0.184174 2.28459 0
M  V30 4873 C 466.086 -0.845195 1.36796 0
M  V30 4874 O 467.276 -0.701467 1.59452 0
M  V30 4875 C 464.408 -1.26903 3.16399 0
M  V30 4876 H 465.601 0.526751 2.95238 0
M  V30 4877 H 463.154 0.311375 1.53167 0
M  V30 4878 H 463.889 -2.01244 2.54306 0
M  V30 4879 H 463.674 -0.799883 3.83854 0
M  V30 4880 H 465.164 -1.78794 3.77389 0
M  V30 4881 N 465.601 -1.54893 0.290851 0
M  V30 4882 C 466.534 -2.19289 -0.631489 0
M  V30 4883 C 467.512 -1.15893 -1.14051 0
M  V30 4884 O 468.696 -1.4449 -1.21058 0
M  V30 4885 C 465.823 -2.82866 -1.86291 0
M  V30 4886 C 464.869 -3.997 -1.48801 0
M  V30 4887 S 465.702 -5.32641 -0.552644 0
M  V30 4888 C 466.858 -5.99696 -1.79209 0
M  V30 4889 H 467.091 -2.9718 -0.0843791 0
M  V30 4890 H 464.624 -1.54218 0.075031 0
M  V30 4891 H 466.582 -3.20124 -2.56964 0
M  V30 4892 H 465.243 -2.04839 -2.38117 0
M  V30 4893 H 464.436 -4.42932 -2.40473 0
M  V30 4894 H 464.038 -3.63947 -0.861321 0
M  V30 4895 H 466.33 -6.19886 -2.734 0
M  V30 4896 H 467.273 -6.94071 -1.40251 0
M  V30 4897 H 467.681 -5.29226 -1.96419 0
M  V30 4898 N 467.08 -0.0183926 -1.57589 0
M  V30 4899 C 468.328 0.661253 -1.90976 0
M  V30 4900 C 468.649 1.73281 -0.894353 0
M  V30 4901 O 467.919 1.9579 0.0656788 0
M  V30 4902 H 466.499 0.247233 -0.704901 0
M  V30 4903 H 469.161 -0.0636639 -1.94796 0
M  V30 4904 H 468.257 1.12083 -2.9128 0
M  V30 4905 N 468.558 1.5553 0.254621 0
M  V30 4906 C 469.468 1.92789 1.33677 0
M  V30 4907 C 470.484 0.827356 1.53071 0
M  V30 4908 O 471.66 1.12807 1.66843 0
M  V30 4909 C 468.725 2.20827 2.67275 0
M  V30 4910 C 467.786 3.4427 2.5647 0
M  V30 4911 C 467.019 3.70961 3.83697 0
M  V30 4912 O 467.242 2.99852 4.85227 0
M  V30 4913 O 466.176 4.64491 3.82794 0
M  V30 4914 H 470.002 2.84945 1.05071 0
M  V30 4915 H 467.587 1.42312 0.454723 0
M  V30 4916 H 469.469 2.40204 3.46237 0
M  V30 4917 H 468.144 1.31851 2.9563 0
M  V30 4918 H 467.051 3.30209 1.75821 0
M  V30 4919 H 468.384 4.33524 2.33062 0
M  V30 4920 N 470.036 -0.519951 1.48776 0
M  V30 4921 C 470.968 -1.63973 1.60142 0
M  V30 4922 C 471.981 -1.55404 0.485117 0
M  V30 4923 O 473.17 -1.61682 0.756391 0
M  V30 4924 C 470.27 -3.02676 1.52449 0
M  V30 4925 C 469.443 -3.36624 2.79291 0
M  V30 4926 C 468.502 -4.54652 2.64912 0
M  V30 4927 O 467.528 -4.57374 3.38818 0
M  V30 4928 N 468.73 -5.53432 1.75195 0
M  V30 4929 H 471.495 -1.54656 2.56713 0
M  V30 4930 H 469.056 -0.707439 1.45626 0
M  V30 4931 H 471.048 -3.79525 1.4051 0
M  V30 4932 H 469.618 -3.06018 0.638125 0
M  V30 4933 H 468.838 -2.48855 3.0572 0
M  V30 4934 H 470.126 -3.56094 3.6342 0
M  V30 4935 H 469.524 -5.54018 1.14371 0
M  V30 4936 H 468.081 -6.29459 1.69189 0
M  V30 4937 N 471.514 -1.37532 -0.769588 0
M  V30 4938 C 472.477 -1.33292 -1.86456 0
M  V30 4939 C 473.477 -0.236537 -1.59051 0
M  V30 4940 O 474.667 -0.492511 -1.67093 0
M  V30 4941 C 471.799 -1.07118 -3.23633 0
M  V30 4942 H 472.992 -2.30692 -1.91628 0
M  V30 4943 H 470.545 -1.22593 -0.969572 0
M  V30 4944 H 471.28 -0.102578 -3.24138 0
M  V30 4945 H 471.065 -1.86479 -3.44917 0
M  V30 4946 H 472.555 -1.06806 -4.03711 0
M  V30 4947 N 472.992 0.995999 -1.22138 0
M  V30 4948 C 474.238 1.73767 -1.04561 0
M  V30 4949 C 474.571 1.89633 0.418698 0
M  V30 4950 O 473.846 1.43723 1.3105 0
M  V30 4951 C 474.129 3.14505 -1.75382 0
M  V30 4952 C 473.982 3.06306 -3.29388 0
M  V30 4953 C 475.301 4.13615 -1.50369 0
M  V30 4954 H 472.42 0.630728 -0.38125 0
M  V30 4955 H 475.062 1.16057 -1.50435 0
M  V30 4956 H 473.212 3.63775 -1.36383 0
M  V30 4957 H 474.884 2.64681 -3.77812 0
M  V30 4958 H 473.127 2.43186 -3.59226 0
M  V30 4959 H 473.798 4.05884 -3.74116 0
M  V30 4960 H 476.274 3.73089 -1.84239 0
M  V30 4961 H 475.15 5.10212 -2.02421 0
M  V30 4962 H 475.411 4.39949 -0.435611 0
M  V30 4963 N 474.47 1.03057 1.19235 0
M  V30 4964 C 475.433 0.617418 2.20727 0
M  V30 4965 C 476.433 -0.319856 1.57587 0
M  V30 4966 O 477.623 -0.106633 1.73873 0
M  V30 4967 C 474.755 -0.096296 3.40764 0
M  V30 4968 H 475.948 1.51544 2.58794 0
M  V30 4969 H 473.501 0.821949 1.32942 0
M  V30 4970 H 474.236 -1.00859 3.08217 0
M  V30 4971 H 474.021 0.577217 3.87828 0
M  V30 4972 H 475.511 -0.372219 4.15938 0
M  V30 4973 N 475.948 -1.35272 0.808662 0
M  V30 4974 C 476.878 -2.32315 0.234981 0
M  V30 4975 C 477.859 -1.57572 -0.64071 0
M  V30 4976 O 479.044 -1.8563 -0.570551 0
M  V30 4977 C 476.174 -3.41801 -0.615601 0
M  V30 4978 C 475.128 -4.27694 0.161767 0
M  V30 4979 C 474.454 -5.28519 -0.810649 0
M  V30 4980 C 475.754 -5.04231 1.36193 0
M  V30 4981 H 477.448 -2.80543 1.04575 0
M  V30 4982 H 474.994 -1.3488 0.504315 0
M  V30 4983 H 476.947 -4.08693 -1.02702 0
M  V30 4984 H 475.671 -2.92186 -1.45928 0
M  V30 4985 H 474.33 -3.62384 0.554382 0
M  V30 4986 H 473.978 -4.75171 -1.64988 0
M  V30 4987 H 473.678 -5.8686 -0.294822 0
M  V30 4988 H 475.202 -5.98283 -1.22023 0
M  V30 4989 H 476.616 -5.64058 1.02528 0
M  V30 4990 H 475.013 -5.72077 1.81239 0
M  V30 4991 H 476.083 -4.34753 2.14751 0
M  V30 4992 N 477.426 -0.562348 -1.47226 0
M  V30 4993 C 478.389 0.172056 -2.28553 0
M  V30 4994 C 479.389 0.837928 -1.37242 0
M  V30 4995 O 480.579 0.693001 -1.59822 0
M  V30 4996 C 477.711 1.25223 -3.17068 0
M  V30 4997 H 478.904 -0.542401 -2.94954 0
M  V30 4998 H 476.457 -0.319493 -1.53 0
M  V30 4999 H 477.192 1.99892 -2.55369 0
M  V30 5000 H 476.977 0.779515 -3.84273 0
M  V30 5001 H 478.467 1.76791 -3.78332 0
M  V30 5002 N 478.904 1.54736 -0.299062 0
M  V30 5003 C 480.32 1.59507 0.0543849 0
M  V30 5004 C 480.52 1.31606 1.52585 0
M  V30 5005 O 479.576 1.08853 2.27832 0
M  V30 5006 C 480.889 2.98751 -0.34181 0
M  V30 5007 C 482.437 3.1165 -0.290414 0
M  V30 5008 C 482.912 4.53199 -0.661402 0
M  V30 5009 N 484.403 4.59114 -0.613863 0
M  V30 5010 C 485.138 5.66709 -0.873417 0
M  V30 5011 N 484.634 6.82349 -1.19884 0
M  V30 5012 N 486.427 5.56369 -0.800608 0
M  V30 5013 H 478.578 1.71133 -1.25806 0
M  V30 5014 H 480.841 0.799186 -0.509908 0
M  V30 5015 H 480.547 3.24085 -1.36608 0
M  V30 5016 H 480.421 3.75961 0.305508 0
M  V30 5017 H 482.808 2.86066 0.724605 0
M  V30 5018 H 482.889 2.366 -0.972327 0
M  V30 5019 H 482.533 4.79513 -1.67422 0
M  V30 5020 H 482.463 5.26583 0.0425612 0
M  V30 5021 H 484.954 3.76053 -0.3732 0
M  V30 5022 H 485.267 7.60326 -1.38291 0
M  V30 5023 H 483.612 6.83906 -1.23685 0
M  V30 5024 H 486.803 4.64904 -0.546045 0
M  V30 5025 H 486.976 6.40139 -1.00626 0
M  V30 5026 N 480.382 0.0267497 1.57577 0
M  V30 5027 C 481.345 -0.940916 2.08996 0
M  V30 5028 C 482.345 -1.25561 1.00455 0
M  V30 5029 O 483.535 -1.19634 1.26623 0
M  V30 5030 C 480.667 -2.25814 2.55384 0
M  V30 5031 H 481.86 -0.495628 2.95776 0
M  V30 5032 H 479.413 -0.221241 1.54726 0
M  V30 5033 H 480.148 -2.74976 1.71926 0
M  V30 5034 H 479.933 -2.04285 3.34679 0
M  V30 5035 H 481.423 -2.95178 2.95398 0
M  V30 5036 N 481.861 -1.55662 -0.24637 0
M  V30 5037 C 483.107 -1.77782 -0.975779 0
M  V30 5038 C 483.44 -0.592103 -1.84953 0
M  V30 5039 O 482.715 0.409588 -1.90138 0
M  V30 5040 C 482.998 -3.09788 -1.83584 0
M  V30 5041 C 482.851 -4.38764 -0.990241 0
M  V30 5042 C 484.17 -3.38029 -2.81823 0
M  V30 5043 H 481.289 -0.646789 -0.353317 0
M  V30 5044 H 483.931 -1.88398 -0.246248 0
M  V30 5045 H 482.081 -3.00869 -2.45784 0
M  V30 5046 H 483.753 -4.59675 -0.386897 0
M  V30 5047 H 481.996 -4.32798 -0.294626 0
M  V30 5048 H 482.667 -5.27514 -1.62584 0
M  V30 5049 H 485.143 -3.46915 -2.2976 0
M  V30 5050 H 484.019 -4.3161 -3.39122 0
M  V30 5051 H 484.28 -2.58968 -3.58313 0
M  V30 5052 N 483.339 0.512053 -1.4905 0
M  V30 5053 C 484.286 1.6148 -1.64902 0
M  V30 5054 C 485.256 1.58687 -0.490673 0
M  V30 5055 O 486.441 1.76842 -0.71636 0
M  V30 5056 C 483.581 2.99676 -1.71139 0
M  V30 5057 C 482.694 3.12568 -2.98203 0
M  V30 5058 C 481.829 4.4143 -2.95487 0
M  V30 5059 C 480.868 4.47916 -4.17179 0
M  V30 5060 N 480.005 5.68191 -4.12437 0
M  V30 5061 H 484.845 1.47271 -2.59066 0
M  V30 5062 H 482.382 0.716713 -1.28459 0
M  V30 5063 H 484.34 3.79761 -1.72736 0
M  V30 5064 H 482.97 3.12614 -0.804508 0
M  V30 5065 H 482.022 2.25618 -3.06269 0
M  V30 5066 H 483.334 3.1322 -3.88194 0
M  V30 5067 H 482.488 5.29825 -2.95585 0
M  V30 5068 H 481.227 4.43326 -2.03256 0
M  V30 5069 H 480.232 3.57925 -4.17337 0
M  V30 5070 H 481.457 4.47744 -5.1059 0
M  V30 5071 H 479.403 5.7095 -3.23036 0
M  V30 5072 H 479.32 5.70413 -4.96151 0
M  V30 5073 H 480.588 6.58823 -4.16621 0
M  V30 5074 N 484.817 1.37938 0.762283 0
M  V30 5075 C 486.047 1.36685 1.54922 0
M  V30 5076 C 486.455 -0.0474099 1.89141 0
M  V30 5077 O 485.798 -1.02213 1.52638 0
M  V30 5078 C 485.86 2.14963 2.88152 0
M  V30 5079 C 485.524 3.6385 2.76518 0
M  V30 5080 C 486.521 4.57531 2.46904 0
M  V30 5081 C 484.206 4.07095 2.94243 0
M  V30 5082 C 486.2 5.92436 2.35156 0
M  V30 5083 C 483.887 5.42083 2.82116 0
M  V30 5084 C 484.885 6.34567 2.52614 0
M  V30 5085 O 484.573 7.67073 2.40529 0
M  V30 5086 H 484.305 0.469586 0.486276 0
M  V30 5087 H 486.859 1.82012 0.951876 0
M  V30 5088 H 485.089 1.6434 3.50042 0
M  V30 5089 H 486.778 2.06224 3.49609 0
M  V30 5090 H 487.544 4.25428 2.32886 0
M  V30 5091 H 483.423 3.35462 3.16206 0
M  V30 5092 H 486.967 6.64591 2.12049 0
M  V30 5093 H 482.864 5.73785 2.95704 0
M  V30 5094 H 483.632 7.77499 2.55807 0
M  V30 5095 N 486.295 -0.989507 1.22664 0
M  V30 5096 C 487.52 -1.77031 1.08051 0
M  V30 5097 C 487.945 -1.84535 -0.364483 0
M  V30 5098 O 487.303 -1.3003 -1.2634 0
M  V30 5099 C 487.351 -3.18 1.70024 0
M  V30 5100 O 486.455 -4.01161 0.956216 0
M  V30 5101 H 485.796 -0.545008 0.379292 0
M  V30 5102 H 488.326 -1.24277 1.62531 0
M  V30 5103 H 488.336 -3.68616 1.74888 0
M  V30 5104 H 487.011 -3.11853 2.75174 0
M  V30 5105 H 485.588 -3.59687 0.98384 0
M  V30 5106 N 487.773 -1.03688 -1.18687 0
M  V30 5107 C 488.998 -0.757819 -1.93059 0
M  V30 5108 C 489.423 0.678353 -1.75442 0
M  V30 5109 O 488.781 1.46938 -1.06203 0
M  V30 5110 C 488.829 -1.12423 -3.42627 0
M  V30 5111 O 487.933 -0.247505 -4.11657 0
M  V30 5112 H 487.274 -0.279245 -0.602427 0
M  V30 5113 H 489.804 -1.3857 -1.5053 0
M  V30 5114 H 489.814 -1.08454 -3.93322 0
M  V30 5115 H 488.489 -2.17049 -3.54771 0
M  V30 5116 H 487.066 -0.34649 -3.71287 0
M  V30 5117 N 489.251 1.34841 -0.815825 0
M  V30 5118 C 490.214 2.27959 -0.238185 0
M  V30 5119 C 491.214 1.49983 0.579816 0
M  V30 5120 O 492.404 1.69617 0.396953 0
M  V30 5121 C 489.536 3.34314 0.666876 0
M  V30 5122 H 490.729 2.80558 -1.05958 0
M  V30 5123 H 488.282 1.44852 -0.587156 0
M  V30 5124 H 489.017 2.86916 1.5116 0
M  V30 5125 H 488.802 3.92014 0.0819106 0
M  V30 5126 H 490.292 4.0379 1.06506 0
M  V30 5127 N 490.729 0.570148 1.46925 0
M  V30 5128 C 491.977 0.0508523 2.02036 0
M  V30 5129 C 492.298 -1.30885 1.44548 0
M  V30 5130 O 491.568 -1.85647 0.625453 0
M  V30 5131 H 490.148 0.0158088 0.746833 0
M  V30 5132 H 492.81 0.743086 1.80178 0
M  V30 5133 H 491.906 -0.027575 3.12088 0
M  V30 5134 N 492.207 -1.54576 0.307264 0
M  V30 5135 C 493.435 -2.04675 -0.302597 0
M  V30 5136 C 493.85 -1.18425 -1.47041 0
M  V30 5137 O 493.207 -0.211257 -1.81273 0
M  V30 5138 C 493.258 -3.53575 -0.752801 0
M  V30 5139 O 492.979 -4.36547 0.368536 0
M  V30 5140 C 494.48 -4.19699 -1.42717 0
M  V30 5141 H 491.7 -0.66786 -0.0648374 0
M  V30 5142 H 494.244 -1.99516 0.448716 0
M  V30 5143 H 492.399 -3.59074 -1.45412 0
M  V30 5144 H 492.813 -5.24497 0.0168937 0
M  V30 5145 H 494.287 -5.25388 -1.69327 0
M  V30 5146 H 494.764 -3.69815 -2.36925 0
M  V30 5147 H 495.37 -4.18293 -0.768856 0
M  V30 5148 N 493.685 -0.035106 -1.57561 0
M  V30 5149 C 494.931 0.64318 -1.92331 0
M  V30 5150 C 495.264 1.71434 -0.912368 0
M  V30 5151 O 494.539 1.94395 0.0640303 0
M  V30 5152 C 494.822 1.25411 -3.37556 0
M  V30 5153 C 494.675 0.192109 -4.4939 0
M  V30 5154 C 495.994 2.17041 -3.82859 0
M  V30 5155 H 493.113 0.232341 -0.699419 0
M  V30 5156 H 495.755 -0.0935889 -1.89769 0
M  V30 5157 H 493.905 1.88205 -3.39869 0
M  V30 5158 H 495.577 -0.438849 -4.59208 0
M  V30 5159 H 493.82 -0.481725 -4.31117 0
M  V30 5160 H 494.491 0.659292 -5.48049 0
M  V30 5161 H 496.967 1.64228 -3.8232 0
M  V30 5162 H 495.843 2.56738 -4.85157 0
M  V30 5163 H 496.104 3.06401 -3.18702 0
M  V30 5164 N 495.163 1.55791 0.238111 0
M  V30 5165 C 496.073 1.94196 1.31625 0
M  V30 5166 C 497.089 0.843545 1.52185 0
M  V30 5167 O 498.265 1.1457 1.65637 0
M  V30 5168 C 495.33 2.2365 2.64918 0
M  V30 5169 C 494.391 3.46971 2.52804 0
M  V30 5170 C 493.624 3.7501 3.79741 0
M  V30 5171 O 493.847 3.04982 4.82019 0
M  V30 5172 O 492.781 4.68525 3.77846 0
M  V30 5173 H 496.607 2.86044 1.02043 0
M  V30 5174 H 494.192 1.42786 0.439603 0
M  V30 5175 H 496.074 2.43863 3.4367 0
M  V30 5176 H 494.749 1.34979 2.94215 0
M  V30 5177 H 493.656 3.32055 1.72309 0
M  V30 5178 H 494.989 4.35971 2.28451 0
M  V30 5179 N 496.642 -0.504142 1.49319 0
M  V30 5180 C 497.889 -1.25846 1.58647 0
M  V30 5181 C 498.217 -1.92592 0.27177 0
M  V30 5182 O 497.472 -1.81167 -0.74007 0
M  V30 5183 C 497.771 -2.35021 2.69258 0
M  V30 5184 C 497.437 -1.85755 4.1086 0
M  V30 5185 C 496.099 -1.72038 4.49395 0
M  V30 5186 C 498.451 -1.48844 4.99495 0
M  V30 5187 C 495.779 -1.19783 5.74342 0
M  V30 5188 C 498.131 -0.980422 6.24956 0
M  V30 5189 C 496.795 -0.829622 6.62324 0
M  V30 5190 H 496.065 -0.460505 0.580531 0
M  V30 5191 H 498.712 -0.559716 1.83138 0
M  V30 5192 H 497.017 -3.10672 2.38726 0
M  V30 5193 H 498.714 -2.93083 2.73685 0
M  V30 5194 H 495.304 -1.9739 3.80441 0
M  V30 5195 H 499.488 -1.5829 4.70381 0
M  V30 5196 H 494.744 -1.06817 6.01997 0
M  V30 5197 H 498.918 -0.685608 6.93017 0
M  V30 5198 H 496.545 -0.42253 7.59025 0
M  V30 5199 N 498.12 -1.38341 -0.754957 0
M  V30 5200 C 499.05 -1.38176 -1.88227 0
M  V30 5201 C 500.031 -0.247873 -1.68284 0
M  V30 5202 O 501.216 -0.45075 -1.88896 0
M  V30 5203 C 498.346 -1.20471 -3.25736 0
M  V30 5204 C 497.3 -2.3105 -3.60278 0
M  V30 5205 C 496.626 -1.98452 -4.96509 0
M  V30 5206 C 497.926 -3.73305 -3.65295 0
M  V30 5207 H 499.62 -2.32512 -1.88622 0
M  V30 5208 H 497.166 -1.1192 -0.906082 0
M  V30 5209 H 499.119 -1.18982 -4.04254 0
M  V30 5210 H 497.843 -0.225965 -3.25817 0
M  V30 5211 H 496.502 -2.31723 -2.84078 0
M  V30 5212 H 496.15 -0.990641 -4.93148 0
M  V30 5213 H 495.85 -2.7251 -5.20588 0
M  V30 5214 H 497.374 -1.98578 -5.77407 0
M  V30 5215 H 498.788 -3.7467 -4.3393 0
M  V30 5216 H 497.185 -4.46557 -4.00883 0
M  V30 5217 H 498.255 -4.05719 -2.65556 0
M  V30 5218 N 499.598 0.982988 -1.23187 0
M  V30 5219 C 500.844 1.72648 -1.06398 0
M  V30 5220 C 501.177 1.90066 0.398561 0
M  V30 5221 O 500.452 1.45105 1.29518 0
M  V30 5222 C 500.735 3.12627 -1.78707 0
M  V30 5223 C 500.588 3.02795 -3.32618 0
M  V30 5224 C 501.907 4.11997 -1.54747 0
M  V30 5225 H 499.026 0.626649 -0.387918 0
M  V30 5226 H 501.668 1.14455 -1.51658 0
M  V30 5227 H 499.818 3.62308 -1.40234 0
M  V30 5228 H 501.49 2.60659 -3.80598 0
M  V30 5229 H 499.733 2.39362 -3.61785 0
M  V30 5230 H 500.404 4.01893 -3.78399 0
M  V30 5231 H 502.88 3.71114 -1.88186 0
M  V30 5232 H 501.756 5.08037 -2.07821 0
M  V30 5233 H 502.017 4.39462 -0.482249 0
M  V30 5234 N 501.076 1.04316 1.18135 0
M  V30 5235 C 502.353 0.662166 1.84051 0
M  V30 5236 C 502.733 -0.858169 1.9287 0
M  V30 5237 O 502.081 -1.76062 1.45652 0
M  V30 5238 C 502.291 1.3409 3.22212 0
M  V30 5239 C 503.639 1.4733 3.9822 0
M  V30 5240 O 504.663 1.29921 3.31661 0
M  V30 5241 O 503.522 1.75722 5.17479 0
M  V30 5242 H 500.616 0.232005 0.79379 0
M  V30 5243 H 503.162 1.1422 1.25506 0
M  V30 5244 H 501.934 2.37853 3.10711 0
M  V30 5245 H 501.557 0.849649 3.88416 0
M  V30 5246 N 502.554 -1.34406 0.822964 0
M  V30 5247 C 503.779 -2.0304 0.423034 0
M  V30 5248 C 504.204 -1.61568 -0.963196 0
M  V30 5249 O 503.562 -0.800339 -1.62678 0
M  V30 5250 C 503.61 -3.56636 0.53321 0
M  V30 5251 O 502.714 -4.09971 -0.446939 0
M  V30 5252 H 502.055 -0.64075 0.174171 0
M  V30 5253 H 504.585 -1.71653 1.11339 0
M  V30 5254 H 504.595 -4.05945 0.408991 0
M  V30 5255 H 503.27 -3.86168 1.54425 0
M  V30 5256 H 501.847 -3.71835 -0.281601 0
M  V30 5257 N 504.032 -0.577932 -1.46621 0
M  V30 5258 C 504.979 0.158048 -2.30258 0
M  V30 5259 C 505.949 0.888669 -1.40328 0
M  V30 5260 O 507.134 0.880283 -1.6928 0
M  V30 5261 C 504.274 1.16884 -3.24703 0
M  V30 5262 C 503.387 0.442163 -4.29731 0
M  V30 5263 C 502.522 1.44007 -5.11308 0
M  V30 5264 C 501.561 0.69952 -6.0809 0
M  V30 5265 N 500.698 1.64525 -6.82551 0
M  V30 5266 H 505.538 -0.561242 -2.92667 0
M  V30 5267 H 503.075 -0.288591 -1.44241 0
M  V30 5268 H 505.033 1.7677 -3.779 0
M  V30 5269 H 503.663 1.85591 -2.64113 0
M  V30 5270 H 502.715 -0.271632 -3.79429 0
M  V30 5271 H 504.027 -0.136992 -4.98612 0
M  V30 5272 H 503.181 2.11186 -5.68758 0
M  V30 5273 H 501.92 2.05315 -4.42377 0
M  V30 5274 H 500.925 0.0139217 -5.49798 0
M  V30 5275 H 502.15 0.091894 -6.79038 0
M  V30 5276 H 500.096 2.24653 -6.16334 0
M  V30 5277 H 500.013 1.11878 -7.47676 0
M  V30 5278 H 501.281 2.30754 -7.44562 0
M  V30 5279 N 505.51 1.54411 -0.315457 0
M  V30 5280 C 506.457 2.24048 0.554166 0
M  V30 5281 C 507.427 1.2283 1.11812 0
M  V30 5282 O 508.612 1.51491 1.15997 0
M  V30 5283 C 505.752 2.99574 1.71316 0
M  V30 5284 C 504.865 4.15594 1.17922 0
M  V30 5285 C 504 4.78669 2.30324 0
M  V30 5286 C 503.039 5.86807 1.74137 0
M  V30 5287 N 502.176 6.43777 2.8017 0
M  V30 5288 H 507.016 2.97964 -0.0462602 0
M  V30 5289 H 504.553 1.47059 -0.0346009 0
M  V30 5290 H 506.511 3.41604 2.39505 0
M  V30 5291 H 505.141 2.28008 2.285 0
M  V30 5292 H 504.193 3.78404 0.389136 0
M  V30 5293 H 505.505 4.93459 0.728012 0
M  V30 5294 H 504.659 5.23626 3.06433 0
M  V30 5295 H 503.398 4.00168 2.78778 0
M  V30 5296 H 502.403 5.41261 0.965236 0
M  V30 5297 H 503.628 6.67201 1.2657 0
M  V30 5298 H 501.574 5.68153 3.2793 0
M  V30 5299 H 501.491 7.17031 2.39588 0
M  V30 5300 H 502.759 6.9339 3.56132 0
M  V30 5301 N 506.988 0.0434614 1.5754 0
M  V30 5302 C 507.936 -0.951465 2.1225 0
M  V30 5303 C 508.93 -1.3274 1.05245 0
M  V30 5304 O 510.136 -1.30795 1.23663 0
M  V30 5305 H 506.511 -0.324667 0.678303 0
M  V30 5306 H 508.482 -0.464855 2.94757 0
M  V30 5307 C 507.231 -2.21972 2.67626 0
M  V30 5308 H 506.554 -1.93923 3.4962 0
M  V30 5309 H 507.994 -2.89765 3.09536 0
M  V30 5310 C 506.453 -2.95919 1.61038 0
M  V30 5311 O 506.983 -3.8857 1.01862 0
M  V30 5312 N 505.189 -2.58511 1.32741 0
M  V30 5313 H 504.736 -1.83244 1.81051 0
M  V30 5314 H 504.694 -3.08296 0.616531 0
M  V30 5315 N 508.466 -1.55915 -0.229846 0
M  V30 5316 C 509.713 -1.78542 -0.955452 0
M  V30 5317 C 510.041 -0.610785 -1.84661 0
M  V30 5318 O 509.296 0.405213 -1.91459 0
M  V30 5319 C 509.595 -3.06845 -1.8325 0
M  V30 5320 C 509.261 -4.37395 -1.09528 0
M  V30 5321 C 507.923 -4.72868 -0.891598 0
M  V30 5322 C 510.275 -5.18029 -0.574046 0
M  V30 5323 C 507.603 -5.86496 -0.154655 0
M  V30 5324 C 509.955 -6.32423 0.149513 0
M  V30 5325 C 508.619 -6.66504 0.364519 0
M  V30 5326 H 507.889 -0.653333 -0.349625 0
M  V30 5327 H 510.536 -1.90183 -0.224235 0
M  V30 5328 H 508.841 -2.90291 -2.63132 0
M  V30 5329 H 510.538 -3.21553 -2.39592 0
M  V30 5330 H 507.128 -4.09538 -1.26399 0
M  V30 5331 H 511.312 -4.91066 -0.718899 0
M  V30 5332 H 506.568 -6.11396 0.0222356 0
M  V30 5333 H 510.742 -6.94137 0.560947 0
M  V30 5334 H 508.369 -7.54397 0.937495 0
M  V30 5335 N 509.944 0.496216 -1.49584 0
M  V30 5336 C 511.174 1.27209 -1.62793 0
M  V30 5337 C 511.582 1.86799 -0.300476 0
M  V30 5338 O 510.925 1.68802 0.724674 0
M  V30 5339 C 510.987 2.43812 -2.64189 0
M  V30 5340 C 510.651 2.05055 -4.08414 0
M  V30 5341 C 511.648 1.58752 -4.9507 0
M  V30 5342 C 509.333 2.14543 -4.54177 0
M  V30 5343 C 511.327 1.22448 -6.25528 0
M  V30 5344 C 509.014 1.77851 -5.84647 0
M  V30 5345 C 510.012 1.31878 -6.70147 0
M  V30 5346 O 509.7 0.956834 -7.98185 0
M  V30 5347 H 509.432 0.391848 -0.550846 0
M  V30 5348 H 511.986 0.601712 -1.96389 0
M  V30 5349 H 510.216 3.13941 -2.25783 0
M  V30 5350 H 511.905 3.05829 -2.66877 0
M  V30 5351 H 512.671 1.50863 -4.60939 0
M  V30 5352 H 508.55 2.49277 -3.87791 0
M  V30 5353 H 512.094 0.864933 -6.92217 0
M  V30 5354 H 507.991 1.8539 -6.18305 0
M  V30 5355 H 508.759 1.08789 -8.11238 0
M  V30 5356 N 511.423 1.38739 0.74761 0
M  V30 5357 C 512.67 1.35274 1.50689 0
M  V30 5358 C 512.998 -0.0553359 1.94421 0
M  V30 5359 O 512.253 -1.03365 1.66175 0
M  V30 5360 C 512.552 2.25992 2.7688 0
M  V30 5361 C 512.218 3.73854 2.5208 0
M  V30 5362 C 510.88 4.14145 2.45025 0
M  V30 5363 C 513.232 4.67427 2.30568 0
M  V30 5364 C 510.56 5.4609 2.14483 0
M  V30 5365 C 512.912 5.99635 2.01545 0
M  V30 5366 C 511.576 6.39004 1.92951 0
M  V30 5367 H 510.846 0.495003 0.55141 0
M  V30 5368 H 513.493 1.71145 0.859158 0
M  V30 5369 H 511.798 1.83196 3.46333 0
M  V30 5370 H 513.495 2.20611 3.34861 0
M  V30 5371 H 510.085 3.41913 2.58444 0
M  V30 5372 H 514.269 4.3714 2.34994 0
M  V30 5373 H 509.525 5.75528 2.06342 0
M  V30 5374 H 513.699 6.71678 1.83906 0
M  V30 5375 H 511.326 7.41165 1.6905 0
M  V30 5376 N 512.901 -0.976442 1.23707 0
M  V30 5377 C 513.831 -2.08749 1.04624 0
M  V30 5378 C 514.812 -1.70057 -0.0380956 0
M  V30 5379 O 515.997 -1.93782 0.127308 0
M  V30 5380 C 513.127 -3.41335 0.640902 0
M  V30 5381 C 512.081 -3.93947 1.67302 0
M  V30 5382 C 511.407 -5.22774 1.12301 0
M  V30 5383 C 512.707 -4.22769 3.06697 0
M  V30 5384 H 514.401 -2.24972 1.97555 0
M  V30 5385 H 511.947 -1.08108 0.951247 0
M  V30 5386 H 513.9 -4.18489 0.494434 0
M  V30 5387 H 512.624 -3.24988 -0.324099 0
M  V30 5388 H 511.283 -3.18941 1.80755 0
M  V30 5389 H 510.931 -5.0278 0.148877 0
M  V30 5390 H 510.631 -5.58942 1.81267 0
M  V30 5391 H 512.155 -6.02546 0.988479 0
M  V30 5392 H 513.569 -4.90659 2.96524 0
M  V30 5393 H 511.966 -4.70147 3.72937 0
M  V30 5394 H 513.036 -3.29885 3.55392 0
M  V30 5395 N 514.379 -1.04941 -1.1758 0
M  V30 5396 C 515.289 -0.658826 -2.25159 0
M  V30 5397 C 516.305 0.318941 -1.71052 0
M  V30 5398 O 517.481 0.171669 -2.00667 0
M  V30 5399 C 514.546 -0.0369522 -3.4668 0
M  V30 5400 C 513.607 -1.06484 -4.15884 0
M  V30 5401 C 512.84 -0.472551 -5.31604 0
M  V30 5402 O 513.063 0.718736 -5.65854 0
M  V30 5403 O 511.997 -1.20557 -5.89703 0
M  V30 5404 H 515.823 -1.55533 -2.60851 0
M  V30 5405 H 513.408 -0.820819 -1.24832 0
M  V30 5406 H 515.29 0.308784 -4.20267 0
M  V30 5407 H 513.965 0.833238 -3.12792 0
M  V30 5408 H 512.872 -1.46253 -3.44327 0
M  V30 5409 H 514.205 -1.9061 -4.53794 0
M  V30 5410 N 515.857 1.33968 -0.830081 0
M  V30 5411 C 516.79 2.27303 -0.202182 0
M  V30 5412 C 517.768 1.49235 0.645581 0
M  V30 5413 O 518.952 1.78433 0.607762 0
M  V30 5414 C 516.079 3.31025 0.716932 0
M  V30 5415 C 515.125 4.26466 -0.0542271 0
M  V30 5416 S 515.958 5.16707 -1.40622 0
M  V30 5417 C 517.114 6.23962 -0.492167 0
M  V30 5418 H 517.347 2.8021 -0.99346 0
M  V30 5419 H 514.88 1.41124 -0.626359 0
M  V30 5420 H 516.838 3.91271 1.24165 0
M  V30 5421 H 515.499 2.76951 1.4818 0
M  V30 5422 H 514.692 4.99858 0.644785 0
M  V30 5423 H 514.294 3.7051 -0.509722 0
M  V30 5424 H 516.586 6.76774 0.31347 0
M  V30 5425 H 517.529 6.97927 -1.19599 0
M  V30 5426 H 517.937 5.64447 -0.0774176 0
M  V30 5427 N 517.335 0.585699 1.46312 0
M  V30 5428 C 518.283 -0.158577 2.32059 0
M  V30 5429 C 519.277 -0.881427 1.44662 0
M  V30 5430 O 520.483 -0.799476 1.61271 0
M  V30 5431 H 516.858 -0.0700066 0.748734 0
M  V30 5432 H 518.829 0.583383 2.92642 0
M  V30 5433 C 517.578 -1.15701 3.27885 0
M  V30 5434 H 516.901 -0.610215 3.95116 0
M  V30 5435 H 518.341 -1.64812 3.90657 0
M  V30 5436 C 516.8 -2.21951 2.53455 0
M  V30 5437 O 517.33 -3.29352 2.29978 0
M  V30 5438 N 515.536 -1.9664 2.13965 0
M  V30 5439 H 515.083 -1.09309 2.33258 0
M  V30 5440 H 515.041 -2.6794 1.64485 0
M  V30 5441 N 518.813 -1.54241 0.323641 0
M  V30 5442 C 520.041 -2.04985 -0.280871 0
M  V30 5443 C 520.456 -1.19978 -1.45777 0
M  V30 5444 O 519.813 -0.230471 -1.81039 0
M  V30 5445 C 519.864 -3.54353 -0.715258 0
M  V30 5446 O 519.585 -4.36132 0.414817 0
M  V30 5447 C 521.086 -4.21189 -1.38257 0
M  V30 5448 H 518.306 -0.66851 -0.0577502 0
M  V30 5449 H 520.85 -1.99029 0.469852 0
M  V30 5450 H 519.005 -3.60596 -1.41596 0
M  V30 5451 H 519.419 -5.2445 0.0725227 0
M  V30 5452 H 520.893 -5.27154 -1.63745 0
M  V30 5453 H 521.37 -3.72307 -2.32989 0
M  V30 5454 H 521.976 -4.19085 -0.724447 0
M  V30 5455 N 520.291 -0.0518155 -1.57515 0
M  V30 5456 C 521.707 0.304735 -1.56664 0
M  V30 5457 C 521.907 1.71395 -1.05953 0
M  V30 5458 O 520.963 2.42123 -0.716414 0
M  V30 5459 C 522.276 0.132614 -3.00407 0
M  V30 5460 C 523.824 0.20367 -3.12337 0
M  V30 5461 C 524.299 0.0600706 -4.57961 0
M  V30 5462 N 525.79 0.116326 -4.63054 0
M  V30 5463 C 526.525 0.0293363 -5.73392 0
M  V30 5464 N 526.021 -0.110038 -6.92713 0
M  V30 5465 N 527.814 0.0849651 -5.62036 0
M  V30 5466 H 519.965 -0.973056 -1.888 0
M  V30 5467 H 522.228 -0.377781 -0.869474 0
M  V30 5468 H 521.934 -0.839019 -3.41546 0
M  V30 5469 H 521.808 0.893376 -3.66468 0
M  V30 5470 H 524.195 1.16578 -2.71097 0
M  V30 5471 H 524.276 -0.587857 -2.48954 0
M  V30 5472 H 523.92 -0.898715 -4.99886 0
M  V30 5473 H 523.85 0.87075 -5.19351 0
M  V30 5474 H 526.341 0.22327 -3.7724 0
M  V30 5475 H 526.654 -0.169104 -7.72615 0
M  V30 5476 H 524.999 -0.145132 -6.94848 0
M  V30 5477 H 528.19 0.192411 -4.67704 0
M  V30 5478 H 528.363 0.0137131 -6.47999 0
M  V30 5479 N 521.769 1.56035 0.221574 0
M  V30 5480 C 522.699 1.95434 1.2778 0
M  V30 5481 C 523.68 0.822564 1.48889 0
M  V30 5482 O 524.865 1.08486 1.61072 0
M  V30 5483 C 521.995 2.27102 2.62759 0
M  V30 5484 C 520.949 3.4277 2.56306 0
M  V30 5485 C 520.275 3.60043 3.95314 0
M  V30 5486 C 521.575 4.77742 2.11093 0
M  V30 5487 H 523.269 2.83912 0.950504 0
M  V30 5488 H 520.815 1.36596 0.455791 0
M  V30 5489 H 522.768 2.53256 3.36807 0
M  V30 5490 H 521.492 1.35478 2.97176 0
M  V30 5491 H 520.151 3.16664 1.84715 0
M  V30 5492 H 519.799 2.65794 4.27039 0
M  V30 5493 H 519.499 4.37841 3.91879 0
M  V30 5494 H 521.023 3.88545 4.71025 0
M  V30 5495 H 522.437 5.03102 2.74885 0
M  V30 5496 H 520.834 5.58823 2.18716 0
M  V30 5497 H 521.904 4.731 1.06321 0
M  V30 5498 N 523.247 -0.488276 1.49845 0
M  V30 5499 C 524.179 -1.60539 1.63584 0
M  V30 5500 C 525.192 -1.5434 0.517972 0
M  V30 5501 O 526.381 -1.60041 0.790516 0
M  V30 5502 C 523.481 -2.99374 1.58835 0
M  V30 5503 C 522.654 -3.30624 2.86368 0
M  V30 5504 C 521.713 -4.4893 2.74496 0
M  V30 5505 O 520.739 -4.50085 3.48443 0
M  V30 5506 N 521.941 -5.49591 1.86894 0
M  V30 5507 H 524.706 -1.49176 2.59936 0
M  V30 5508 H 522.267 -0.67639 1.47094 0
M  V30 5509 H 524.259 -3.76459 1.48529 0
M  V30 5510 H 522.829 -3.04595 0.702892 0
M  V30 5511 H 522.049 -2.42314 3.1093 0
M  V30 5512 H 523.337 -3.48305 3.70892 0
M  V30 5513 H 522.735 -5.51467 1.26097 0
M  V30 5514 H 521.292 -6.25728 1.82503 0
M  V30 5515 N 524.725 -1.39134 -0.740242 0
M  V30 5516 C 525.971 -1.36273 -1.50192 0
M  V30 5517 C 526.304 0.0430136 -1.94152 0
M  V30 5518 O 525.579 1.00691 -1.66408 0
M  V30 5519 C 525.862 -2.33041 -2.74525 0
M  V30 5520 C 525.715 -3.82535 -2.36617 0
M  V30 5521 C 527.034 -2.27723 -3.76604 0
M  V30 5522 H 524.153 -0.496323 -0.544823 0
M  V30 5523 H 526.795 -1.70085 -0.846815 0
M  V30 5524 H 524.945 -2.04337 -3.30422 0
M  V30 5525 H 526.617 -4.21967 -1.86391 0
M  V30 5526 H 524.86 -3.99565 -1.68909 0
M  V30 5527 H 525.531 -4.45723 -3.2563 0
M  V30 5528 H 528.007 -2.53091 -3.30279 0
M  V30 5529 H 526.883 -2.97519 -4.61274 0
M  V30 5530 H 527.144 -1.28049 -4.2315 0
M  V30 5531 N 526.204 0.969867 -1.24223 0
M  V30 5532 C 527.114 2.09806 -1.0497 0
M  V30 5533 C 528.13 1.73998 0.00886455 0
M  V30 5534 O 529.306 2.00513 -0.188848 0
M  V30 5535 C 526.371 3.40467 -0.654452 0
M  V30 5536 C 525.432 3.90236 -1.78926 0
M  V30 5537 C 524.665 5.14662 -1.41277 0
M  V30 5538 O 524.888 5.69602 -0.301632 0
M  V30 5539 O 523.822 5.58761 -2.23763 0
M  V30 5540 H 527.648 2.28942 -1.99548 0
M  V30 5541 H 525.233 1.08197 -1.03023 0
M  V30 5542 H 527.115 4.19039 -0.445452 0
M  V30 5543 H 525.79 3.22636 0.262216 0
M  V30 5544 H 524.697 3.12735 -2.05299 0
M  V30 5545 H 526.03 4.1254 -2.68462 0
M  V30 5546 N 527.682 1.05563 1.17022 0
M  V30 5547 C 528.632 0.630007 2.19123 0
M  V30 5548 C 529.616 -0.335472 1.57364 0
M  V30 5549 O 530.808 -0.1521 1.76345 0
M  V30 5550 C 527.937 0.0101676 3.43298 0
M  V30 5551 C 527.023 0.999698 4.12149 0
M  V30 5552 N 527.414 2.17251 4.56766 0
M  V30 5553 C 525.712 0.829 4.38228 0
M  V30 5554 C 526.413 2.79883 5.09942 0
M  V30 5555 N 525.389 2.07656 5.02374 0
M  V30 5556 H 529.191 1.52353 2.51328 0
M  V30 5557 H 526.705 0.926288 1.33393 0
M  V30 5558 H 528.702 -0.312541 4.15727 0
M  V30 5559 H 527.362 -0.878707 3.12584 0
M  V30 5560 H 528.373 2.55067 4.50734 0
M  V30 5561 H 525.05 -0.00850974 4.17499 0
M  V30 5562 H 526.44 3.79362 5.54558 0
M  V30 5563 N 529.16 -1.33526 0.837174 0
M  V30 5564 C 530.571 -1.80182 0.489017 0
M  V30 5565 C 530.922 -1.69285 -0.991826 0
M  V30 5566 O 530.047 -1.24113 -1.77271 0
M  V30 5567 C 530.642 -3.27149 0.880866 0
M  V30 5568 C 529.201 -3.71828 0.584872 0
M  V30 5569 C 528.348 -2.54974 1.09011 0
M  V30 5570 H 531.299 -1.21071 1.02603 0
M  V30 5571 H 531.32 -3.80024 0.190239 0
M  V30 5572 H 530.832 -3.35048 1.95869 0
M  V30 5573 H 528.933 -3.69457 -0.48295 0
M  V30 5574 H 529.046 -4.65366 1.13892 0
M  V30 5575 H 527.41 -2.4952 0.511047 0
M  V30 5576 H 528.193 -2.65637 2.17467 0
M  V30 5577 N 530.638 -0.59345 -1.46 0
M  V30 5578 C 531.884 -0.0832754 -2.02629 0
M  V30 5579 C 532.217 1.27749 -1.46266 0
M  V30 5580 O 531.492 1.8395 -0.631866 0
M  V30 5581 C 531.775 -0.0290756 -3.60088 0
M  V30 5582 C 531.628 -1.41951 -4.26814 0
M  V30 5583 C 532.947 0.666055 -4.35031 0
M  V30 5584 H 530.066 -0.031736 -0.736316 0
M  V30 5585 H 532.708 -0.762711 -1.74019 0
M  V30 5586 H 530.858 0.549532 -3.84594 0
M  V30 5587 H 532.53 -2.04411 -4.13538 0
M  V30 5588 H 530.773 -1.98422 -3.8576 0
M  V30 5589 H 531.444 -1.33395 -5.3564 0
M  V30 5590 H 533.92 0.174401 -4.15734 0
M  V30 5591 H 532.796 0.673041 -5.44758 0
M  V30 5592 H 533.057 1.72946 -4.06869 0
M  V30 5593 N 532.116 1.54067 -0.331816 0
M  V30 5594 C 533.344 2.05131 0.269996 0
M  V30 5595 C 533.759 1.20749 1.45138 0
M  V30 5596 O 533.116 0.240069 1.80914 0
M  V30 5597 C 533.167 3.54728 0.696456 0
M  V30 5598 O 532.888 4.35906 -0.43794 0
M  V30 5599 C 534.389 4.21916 1.36021 0
M  V30 5600 H 531.609 0.668807 0.0542042 0
M  V30 5601 H 534.153 1.98777 -0.4804 0
M  V30 5602 H 532.308 3.61342 1.39681 0
M  V30 5603 H 532.722 5.24404 -0.100334 0
M  V30 5604 H 534.196 5.28015 1.60947 0
M  V30 5605 H 534.673 3.73538 2.31011 0
M  V30 5606 H 535.279 4.19463 0.702212 0
M  V30 5607 N 533.594 0.0601682 1.57485 0
M  V30 5608 C 534.504 -0.926121 2.15546 0
M  V30 5609 C 535.52 -1.33532 1.11558 0
M  V30 5610 O 536.696 -1.4104 1.4377 0
M  V30 5611 C 533.761 -2.17952 2.69625 0
M  V30 5612 C 532.822 -1.82783 3.88444 0
M  V30 5613 C 532.055 -3.02148 4.39935 0
M  V30 5614 O 532.278 -4.15803 3.90466 0
M  V30 5615 O 531.212 -2.82639 5.31412 0
M  V30 5616 H 535.038 -0.462289 3.00161 0
M  V30 5617 H 532.623 -0.162246 1.48516 0
M  V30 5618 H 534.505 -2.91474 3.04337 0
M  V30 5619 H 533.18 -2.63456 1.88077 0
M  V30 5620 H 532.087 -1.06549 3.58606 0
M  V30 5621 H 533.42 -1.42072 4.7125 0
M  V30 5622 N 535.072 -1.5615 -0.213296 0
M  V30 5623 C 536.312 -1.81325 -0.943435 0
M  V30 5624 C 536.676 -0.634934 -1.81198 0
M  V30 5625 O 537.877 -0.766166 -2.5765 0
M  V30 5626 C 536.148 -3.11437 -1.75334 0
M  V30 5627 S 537.707 -3.57955 -2.53799 0
M  V30 5628 H 534.525 -0.636538 -0.316766 0
M  V30 5629 H 537.127 -1.94387 -0.208313 0
M  V30 5630 H 535.831 -3.95228 -1.10556 0
M  V30 5631 H 535.362 -3.01204 -2.53061 0
M  V30 5632 H 537.377 -3.21947 -3.77577 0
M  V30 5633 N 536.55 0.480323 -1.50102 0
M  V30 5634 C 537.799 1.22979 -1.59872 0
M  V30 5635 C 538.112 1.93282 -0.30022 0
M  V30 5636 O 539.318 2.70086 -0.276709 0
M  V30 5637 C 537.774 2.23408 -2.82164 0
M  V30 5638 C 537.382 1.5895 -4.18854 0
M  V30 5639 C 539.126 2.99055 -3.01275 0
M  V30 5640 C 537.033 2.57611 -5.32344 0
M  V30 5641 H 535.963 0.462707 -0.59533 0
M  V30 5642 H 538.614 0.501291 -1.7652 0
M  V30 5643 H 536.996 2.99511 -2.59055 0
M  V30 5644 H 538.17 0.887 -4.52182 0
M  V30 5645 H 536.485 0.956191 -4.05273 0
M  V30 5646 H 539.082 3.72876 -3.83233 0
M  V30 5647 H 539.425 3.57897 -2.12639 0
M  V30 5648 H 539.958 2.30066 -3.24522 0
M  V30 5649 H 536.697 2.03521 -6.23105 0
M  V30 5650 H 536.217 3.26041 -5.03445 0
M  V30 5651 H 537.896 3.19627 -5.62537 0
M  V30 5652 N 538.028 1.39524 0.732853 0
M  V30 5653 C 539.256 1.40143 1.52209 0
M  V30 5654 C 539.671 -0.00348836 1.888 0
M  V30 5655 O 539.028 -0.975357 1.5425 0
M  V30 5656 C 539.079 2.27632 2.8083 0
M  V30 5657 O 538.8 3.62654 2.45792 0
M  V30 5658 C 540.301 2.36658 3.74844 0
M  V30 5659 H 537.521 0.478604 0.470297 0
M  V30 5660 H 540.065 1.83366 0.905388 0
M  V30 5661 H 538.22 1.87818 3.38826 0
M  V30 5662 H 538.634 4.08941 3.28431 0
M  V30 5663 H 540.108 3.02118 4.61984 0
M  V30 5664 H 540.585 1.38638 4.16745 0
M  V30 5665 H 541.191 2.76951 3.22766 0
M  V30 5666 N 539.506 -0.963266 1.24736 0
M  V30 5667 C 540.754 -1.70343 1.08755 0
M  V30 5668 C 541.075 -1.91387 -0.373619 0
M  V30 5669 O 540.345 -1.4948 -1.2662 0
M  V30 5670 H 538.925 -0.631224 0.399456 0
M  V30 5671 H 541.587 -1.15859 1.56725 0
M  V30 5672 H 540.683 -2.68616 1.58909 0
M  V30 5673 N 540.985 -1.06182 -1.16461 0
M  V30 5674 C 541.915 -0.692861 -2.22984 0
M  V30 5675 C 542.896 0.314122 -1.67174 0
M  V30 5676 O 544.081 0.189499 -1.93273 0
M  V30 5677 C 541.211 -0.07732 -3.47214 0
M  V30 5678 C 540.165 -1.01015 -4.15909 0
M  V30 5679 C 539.491 -0.257973 -5.34077 0
M  V30 5680 C 540.791 -2.33868 -4.67015 0
M  V30 5681 H 542.485 -1.58343 -2.54102 0
M  V30 5682 H 540.031 -0.76279 -1.22137 0
M  V30 5683 H 541.984 0.19266 -4.20959 0
M  V30 5684 H 540.708 0.848254 -3.15392 0
M  V30 5685 H 539.367 -1.26486 -3.44088 0
M  V30 5686 H 539.015 0.670684 -4.98509 0
M  V30 5687 H 538.715 -0.879638 -5.80979 0
M  V30 5688 H 540.239 0.00448788 -6.106 0
M  V30 5689 H 541.653 -2.1279 -5.32347 0
M  V30 5690 H 540.05 -2.91522 -5.24533 0
M  V30 5691 H 541.12 -2.97019 -3.83286 0
M  V30 5692 N 542.463 1.3308 -0.844243 0
M  V30 5693 C 543.74 1.92178 -0.364261 0
M  V30 5694 C 544.12 1.76961 1.15101 0
M  V30 5695 O 543.468 1.16128 1.9679 0
M  V30 5696 C 543.678 3.393 -0.817106 0
M  V30 5697 C 545.026 4.16444 -0.828236 0
M  V30 5698 O 546.05 3.47975 -0.761062 0
M  V30 5699 O 544.909 5.38685 -0.920926 0
M  V30 5700 H 542.003 0.820411 -0.10419 0
M  V30 5701 H 544.549 1.41918 -0.930453 0
M  V30 5702 H 543.321 3.44272 -1.85991 0
M  V30 5703 H 542.944 3.96947 -0.227785 0
M  V30 5704 N 543.941 0.601185 1.45683 0
M  V30 5705 C 544.871 -0.108824 2.33246 0
M  V30 5706 C 545.852 -0.865223 1.46451 0
M  V30 5707 O 547.037 -0.83704 1.75235 0
M  V30 5708 C 544.167 -1.11101 3.2905 0
M  V30 5709 C 543.121 -0.468244 4.25431 0
M  V30 5710 C 542.447 -1.57822 5.10878 0
M  V30 5711 C 543.747 0.606469 5.18767 0
M  V30 5712 H 545.441 0.622306 2.92861 0
M  V30 5713 H 542.987 0.300714 1.40825 0
M  V30 5714 H 544.94 -1.61622 3.89174 0
M  V30 5715 H 543.664 -1.87265 2.67581 0
M  V30 5716 H 542.323 0.0160484 3.66596 0
M  V30 5717 H 541.971 -2.32998 4.45781 0
M  V30 5718 H 541.671 -1.15369 5.76163 0
M  V30 5719 H 543.195 -2.08583 5.73869 0
M  V30 5720 H 544.609 0.185589 5.73 0
M  V30 5721 H 543.006 0.952381 5.92494 0
M  V30 5722 H 544.076 1.48559 4.61582 0
M  V30 5723 N 545.419 -1.53889 0.339982 0
M  V30 5724 C 546.665 -2.01152 -0.258003 0
M  V30 5725 C 546.998 -1.22749 -1.50487 0
M  V30 5726 O 546.273 -0.314156 -1.91946 0
M  V30 5727 C 546.556 -3.55468 -0.575717 0
M  V30 5728 C 546.409 -4.44584 0.682996 0
M  V30 5729 C 547.728 -4.1768 -1.38677 0
M  V30 5730 H 544.847 -0.731198 -0.0922992 0
M  V30 5731 H 547.489 -1.84352 0.459814 0
M  V30 5732 H 545.639 -3.69914 -1.18725 0
M  V30 5733 H 547.311 -4.41981 1.32102 0
M  V30 5734 H 545.554 -4.13592 1.3086 0
M  V30 5735 H 546.225 -5.5043 0.416001 0
M  V30 5736 H 548.701 -4.0691 -0.869705 0
M  V30 5737 H 547.577 -5.25734 -1.57783 0
M  V30 5738 H 547.838 -3.72069 -2.38782 0
M  V30 5739 N 546.897 -0.0685191 -1.57451 0
M  V30 5740 C 547.829 0.929372 -2.09512 0
M  V30 5741 C 548.842 1.26354 -1.02657 0
M  V30 5742 O 550.031 1.2213 -1.30179 0
M  V30 5743 C 547.131 2.24612 -2.53777 0
M  V30 5744 C 546.304 2.09128 -3.84167 0
M  V30 5745 C 545.363 3.24079 -4.14559 0
M  V30 5746 O 544.389 2.99215 -4.8421 0
M  V30 5747 N 545.591 4.49077 -3.67845 0
M  V30 5748 H 548.356 0.484901 -2.95751 0
M  V30 5749 H 545.917 0.11729 -1.61475 0
M  V30 5750 H 547.909 3.00412 -2.71172 0
M  V30 5751 H 546.479 2.60569 -1.72692 0
M  V30 5752 H 545.699 1.17815 -3.76182 0
M  V30 5753 H 546.987 1.9603 -4.69521 0
M  V30 5754 H 546.385 4.72165 -3.11571 0
M  V30 5755 H 544.942 5.21915 -3.90446 0
M  V30 5756 N 548.375 1.56261 0.205012 0
M  V30 5757 C 549.285 1.96944 1.27476 0
M  V30 5758 C 550.301 0.875636 1.50362 0
M  V30 5759 O 551.477 1.18058 1.6317 0
M  V30 5760 C 548.542 2.29219 2.60115 0
M  V30 5761 C 547.603 3.52255 2.45387 0
M  V30 5762 C 546.836 3.8298 3.71701 0
M  V30 5763 O 547.059 3.15138 4.75441 0
M  V30 5764 O 545.993 4.76435 3.67823 0
M  V30 5765 H 549.819 2.88144 0.959527 0
M  V30 5766 H 547.404 1.43686 0.409217 0
M  V30 5767 H 549.286 2.51098 3.3842 0
M  V30 5768 H 547.961 1.4119 2.91285 0
M  V30 5769 H 546.868 3.35635 1.65227 0
M  V30 5770 H 548.201 4.40719 2.19152 0
M  V30 5771 N 549.853 -0.472356 1.50355 0
M  V30 5772 C 550.786 -1.58923 1.63764 0
M  V30 5773 C 551.764 -1.55173 0.485793 0
M  V30 5774 O 552.948 -1.74815 0.705132 0
M  V30 5775 C 550.075 -2.97497 1.61905 0
M  V30 5776 C 549.121 -3.19405 2.82635 0
M  V30 5777 S 549.954 -2.99441 4.43954 0
M  V30 5778 C 551.11 -4.40359 4.44786 0
M  V30 5779 H 551.343 -1.47309 2.58239 0
M  V30 5780 H 548.876 -0.659601 1.39602 0
M  V30 5781 H 550.834 -3.77389 1.61518 0
M  V30 5782 H 549.495 -3.06502 0.686683 0
M  V30 5783 H 548.688 -4.20636 2.77636 0
M  V30 5784 H 548.29 -2.47283 2.80583 0
M  V30 5785 H 550.582 -5.32969 4.1827 0
M  V30 5786 H 551.525 -4.50403 5.46391 0
M  V30 5787 H 551.933 -4.22378 3.74509 0
M  V30 5788 N 551.331 -1.39911 -0.725443 0
M  V30 5789 C 552.58 -1.36963 -1.48068 0
M  V30 5790 C 552.893 0.0284478 -1.95579 0
M  V30 5791 O 554.099 0.180535 -2.70899 0
M  V30 5792 C 552.555 -2.40664 -2.67598 0
M  V30 5793 C 552.163 -3.86234 -2.26997 0
M  V30 5794 C 553.907 -2.46807 -3.45379 0
M  V30 5795 C 551.814 -4.81554 -3.43307 0
M  V30 5796 H 550.744 -0.509223 -0.556065 0
M  V30 5797 H 553.395 -1.65602 -0.790454 0
M  V30 5798 H 551.777 -2.05109 -3.38742 0
M  V30 5799 H 552.951 -4.3088 -1.63337 0
M  V30 5800 H 551.266 -3.83475 -1.62284 0
M  V30 5801 H 553.863 -3.15213 -4.31909 0
M  V30 5802 H 554.206 -1.49552 -3.8851 0
M  V30 5803 H 554.739 -2.81303 -2.81271 0
M  V30 5804 H 551.478 -5.80106 -3.05217 0
M  V30 5805 H 550.998 -4.4158 -4.05915 0
M  V30 5806 H 552.677 -5.0091 -4.0951 0
M  V30 5807 N 552.809 0.956637 -1.25245 0
M  V30 5808 C 554.225 1.22733 -1.02023 0
M  V30 5809 C 554.425 1.99761 0.264186 0
M  V30 5810 O 553.481 2.32814 0.977436 0
M  V30 5811 C 554.794 2.00367 -2.24217 0
M  V30 5812 C 556.342 2.13418 -2.28958 0
M  V30 5813 C 556.817 2.9445 -3.50803 0
M  V30 5814 N 558.308 3.02029 -3.51187 0
M  V30 5815 C 559.043 3.65116 -4.42129 0
M  V30 5816 N 558.539 4.2983 -5.43339 0
M  V30 5817 N 560.332 3.62237 -4.29815 0
M  V30 5818 H 552.483 0.441282 -2.07765 0
M  V30 5819 H 554.746 0.257686 -0.912306 0
M  V30 5820 H 554.452 1.51165 -3.17556 0
M  V30 5821 H 554.326 3.01077 -2.27228 0
M  V30 5822 H 556.713 2.61819 -1.36143 0
M  V30 5823 H 556.794 1.1202 -2.29968 0
M  V30 5824 H 556.438 2.46741 -4.43939 0
M  V30 5825 H 556.368 3.9607 -3.47039 0
M  V30 5826 H 558.859 2.56007 -2.77973 0
M  V30 5827 H 559.172 4.75819 -6.08947 0
M  V30 5828 H 557.517 4.28465 -5.47214 0
M  V30 5829 H 560.708 3.10863 -3.49974 0
M  V30 5830 H 560.881 4.11117 -5.00886 0
M  V30 5831 N 554.287 1.06798 1.15896 0
M  V30 5832 C 555.533 0.788934 1.86825 0
M  V30 5833 C 555.866 -0.683084 1.8179 0
M  V30 5834 O 555.141 -1.50086 1.23711 0
M  V30 5835 C 555.424 1.29065 3.36176 0
M  V30 5836 C 555.277 2.8268 3.49874 0
M  V30 5837 C 556.596 0.902655 4.30744 0
M  V30 5838 H 553.715 0.288066 0.678371 0
M  V30 5839 H 556.357 1.32479 1.36195 0
M  V30 5840 H 554.507 0.834806 3.79425 0
M  V30 5841 H 556.179 3.36511 3.15528 0
M  V30 5842 H 554.422 3.21157 2.91617 0
M  V30 5843 H 555.093 3.12852 4.54783 0
M  V30 5844 H 557.569 1.29535 3.95424 0
M  V30 5845 H 556.445 1.28111 5.3374 0
M  V30 5846 H 556.706 -0.191951 4.41683 0
M  V30 5847 N 555.766 -1.3263 0.851289 0
M  V30 5848 C 556.729 -2.27247 0.298541 0
M  V30 5849 C 557.729 -1.51467 -0.539847 0
M  V30 5850 O 558.919 -1.7061 -0.351843 0
M  V30 5851 C 556.051 -3.35964 -0.578004 0
M  V30 5852 H 557.244 -2.7765 1.13359 0
M  V30 5853 H 554.797 -1.43245 0.625354 0
M  V30 5854 H 555.532 -2.90823 -1.435 0
M  V30 5855 H 555.317 -3.92094 0.0220539 0
M  V30 5856 H 556.807 -4.06472 -0.957626 0
M  V30 5857 N 557.244 -0.608902 -1.45362 0
M  V30 5858 C 558.191 0.109172 -2.30542 0
M  V30 5859 C 559.161 0.858704 -1.42181 0
M  V30 5860 O 560.346 0.844178 -1.71109 0
M  V30 5861 C 557.486 1.09971 -3.27109 0
M  V30 5862 C 556.599 0.350911 -4.30572 0
M  V30 5863 C 555.734 1.33129 -5.14247 0
M  V30 5864 C 554.773 0.570377 -6.09437 0
M  V30 5865 N 553.91 1.5001 -6.85887 0
M  V30 5866 H 558.75 -0.623195 -2.91411 0
M  V30 5867 H 556.287 -0.319122 -1.43597 0
M  V30 5868 H 558.245 1.68714 -3.81564 0
M  V30 5869 H 556.875 1.79947 -2.67991 0
M  V30 5870 H 555.927 -0.352054 -3.78767 0
M  V30 5871 H 557.239 -0.242725 -4.98209 0
M  V30 5872 H 556.393 1.99074 -5.73109 0
M  V30 5873 H 555.132 1.95885 -4.46632 0
M  V30 5874 H 554.137 -0.102702 -5.49704 0
M  V30 5875 H 555.362 -0.0521607 -6.7908 0
M  V30 5876 H 553.308 2.11529 -6.2096 0
M  V30 5877 H 553.225 0.959934 -7.49881 0
M  V30 5878 H 554.493 2.14909 -7.49289 0
M  V30 5879 N 558.722 1.53707 -0.348139 0
M  V30 5880 C 559.97 2.00591 0.246478 0
M  V30 5881 C 560.291 1.23753 1.50699 0
M  V30 5882 O 559.561 0.345964 1.92821 0
M  V30 5883 H 558.141 0.741053 0.0940679 0
M  V30 5884 H 560.803 1.89139 -0.470354 0
M  V30 5885 H 559.899 3.08297 0.485714 0
M  V30 5886 N 560.2 0.0768682 1.57412 0
M  V30 5887 C 561.43 -0.5991 1.97723 0
M  V30 5888 C 561.838 -1.63378 0.954166 0
M  V30 5889 O 561.181 -1.83578 -0.0668706 0
M  V30 5890 C 561.243 -1.32078 3.34358 0
M  V30 5891 C 560.907 -0.438985 4.54887 0
M  V30 5892 C 561.904 0.305492 5.19002 0
M  V30 5893 C 559.589 -0.362378 5.00991 0
M  V30 5894 C 561.583 1.11475 6.27576 0
M  V30 5895 C 559.27 0.450543 6.09437 0
M  V30 5896 C 560.268 1.18777 6.72593 0
M  V30 5897 O 559.956 1.98727 7.7895 0
M  V30 5898 H 559.688 -0.166725 0.655117 0
M  V30 5899 H 562.242 0.147337 2.04871 0
M  V30 5900 H 560.472 -2.1134 3.2384 0
M  V30 5901 H 562.161 -1.88949 3.5924 0
M  V30 5902 H 562.927 0.25593 4.84324 0
M  V30 5903 H 558.806 -0.925832 4.51608 0
M  V30 5904 H 562.35 1.69068 6.76803 0
M  V30 5905 H 558.247 0.501651 6.43548 0
M  V30 5906 H 559.015 1.91214 7.95851 0
M  V30 5907 N 561.678 -1.56367 -0.196722 0
M  V30 5908 C 563.089 -1.70462 -0.761545 0
M  V30 5909 C 563.44 -0.683161 -1.83922 0
M  V30 5910 O 562.565 0.160753 -2.15802 0
M  V30 5911 C 563.16 -3.09057 -1.38814 0
M  V30 5912 C 561.719 -3.24922 -1.90007 0
M  V30 5913 C 560.866 -2.66412 -0.769399 0
M  V30 5914 H 563.817 -1.58675 0.0283263 0
M  V30 5915 H 563.838 -3.06296 -2.2575 0
M  V30 5916 H 563.35 -3.83378 -0.603559 0
M  V30 5917 H 561.451 -2.55514 -2.71189 0
M  V30 5918 H 561.564 -4.3241 -2.06297 0
M  V30 5919 H 559.928 -2.25546 -1.18326 0
M  V30 5920 H 560.711 -3.433 0.00291773 0
M  V30 5921 N 563.156 0.464375 -1.50603 0
M  V30 5922 C 564.086 1.56944 -1.72889 0
M  V30 5923 C 565.067 1.59979 -0.577997 0
M  V30 5924 O 566.252 1.76138 -0.817855 0
M  V30 5925 C 563.382 2.95225 -1.8292 0
M  V30 5926 C 562.336 3.07056 -2.98162 0
M  V30 5927 C 561.662 4.47051 -2.93343 0
M  V30 5928 C 562.962 2.83648 -4.38567 0
M  V30 5929 H 564.656 1.38547 -2.65415 0
M  V30 5930 H 562.202 0.665082 -1.27721 0
M  V30 5931 H 564.155 3.72467 -1.97095 0
M  V30 5932 H 562.879 3.14793 -0.870209 0
M  V30 5933 H 561.538 2.32248 -2.83648 0
M  V30 5934 H 561.186 4.63547 -1.95276 0
M  V30 5935 H 560.886 4.55902 -3.70712 0
M  V30 5936 H 562.41 5.26304 -3.09575 0
M  V30 5937 H 563.824 3.50636 -4.53572 0
M  V30 5938 H 562.221 3.03937 -5.17438 0
M  V30 5939 H 563.291 1.79451 -4.50472 0
M  V30 5940 N 564.634 1.40294 0.718013 0
M  V30 5941 C 566.05 1.2227 1.02577 0
M  V30 5942 C 566.25 0.0961976 2.0127 0
M  V30 5943 O 565.306 -0.546695 2.46511 0
M  V30 5944 C 566.619 2.56348 1.57182 0
M  V30 5945 C 568.167 2.6334 1.69178 0
M  V30 5946 C 568.642 3.9768 2.27188 0
M  V30 5947 N 570.133 3.99409 2.34578 0
M  V30 5948 C 570.868 5.00141 2.8044 0
M  V30 5949 N 570.364 6.11268 3.26073 0
M  V30 5950 N 572.157 4.87511 2.79802 0
M  V30 5951 H 564.308 2.12304 0.0637899 0
M  V30 5952 H 566.571 0.943632 0.0909036 0
M  V30 5953 H 566.277 3.3942 0.921262 0
M  V30 5954 H 566.151 2.77266 2.55741 0
M  V30 5955 H 568.538 1.80641 2.33351 0
M  V30 5956 H 568.619 2.46255 0.692247 0
M  V30 5957 H 568.263 4.80817 1.63638 0
M  V30 5958 H 568.193 4.12093 3.27852 0
M  V30 5959 H 570.684 3.19162 2.02346 0
M  V30 5960 H 570.997 6.84023 3.59628 0
M  V30 5961 H 569.342 6.14837 3.24038 0
M  V30 5962 H 572.533 3.9979 2.43487 0
M  V30 5963 H 572.706 5.66158 3.15228 0
M  V30 5964 N 566.112 -0.949982 1.2575 0
M  V30 5965 C 567.062 -2.03297 1.03221 0
M  V30 5966 C 568.046 -1.60867 -0.0324751 0
M  V30 5967 O 569.238 -1.76047 0.183423 0
M  V30 5968 C 566.367 -3.36938 0.657841 0
M  V30 5969 C 565.453 -3.85878 1.75952 0
M  V30 5970 N 565.844 -4.0756 2.99547 0
M  V30 5971 C 564.142 -4.14709 1.64111 0
M  V30 5972 C 564.843 -4.47961 3.71087 0
M  V30 5973 N 563.819 -4.5416 2.98731 0
M  V30 5974 H 567.621 -2.1806 1.97045 0
M  V30 5975 H 565.135 -1.13516 1.16138 0
M  V30 5976 H 567.132 -4.14155 0.477614 0
M  V30 5977 H 565.792 -3.2355 -0.273025 0
M  V30 5978 H 566.803 -3.94501 3.35544 0
M  V30 5979 H 563.48 -4.10158 0.779527 0
M  V30 5980 H 564.87 -4.73002 4.77199 0
M  V30 5981 N 567.59 -1.07411 -1.15328 0
M  V30 5982 C 568.537 -0.694995 -2.20087 0
M  V30 5983 C 569.507 0.313904 -1.63107 0
M  V30 5984 O 570.692 0.200216 -1.89747 0
M  V30 5985 C 567.832 -0.0996218 -3.44956 0
M  V30 5986 C 566.945 -1.16007 -4.16133 0
M  V30 5987 C 566.08 -0.529636 -5.28553 0
M  V30 5988 C 565.119 -1.57283 -5.91548 0
M  V30 5989 N 564.256 -0.964932 -6.95438 0
M  V30 5990 H 569.096 -1.5927 -2.51867 0
M  V30 5991 H 566.633 -0.796115 -1.23695 0
M  V30 5992 H 568.591 0.263197 -4.16369 0
M  V30 5993 H 567.221 0.761435 -3.13691 0
M  V30 5994 H 566.273 -1.64045 -3.4321 0
M  V30 5995 H 567.585 -1.95101 -4.59061 0
M  V30 5996 H 566.739 -0.114487 -6.06592 0
M  V30 5997 H 565.478 0.29307 -4.86819 0
M  V30 5998 H 564.483 -1.99775 -5.12221 0
M  V30 5999 H 565.708 -2.39783 -6.35359 0
M  V30 6000 H 563.654 -0.16314 -6.55797 0
M  V30 6001 H 563.571 -1.69311 -7.36797 0
M  V30 6002 H 564.839 -0.575305 -7.77374 0
M  V30 6003 N 569.068 1.32177 -0.85831 0
M  V30 6004 C 570 2.27688 -0.262835 0
M  V30 6005 C 571.013 1.52588 0.567513 0
M  V30 6006 O 572.202 1.74156 0.391407 0
M  V30 6007 C 569.302 3.32668 0.646937 0
M  V30 6008 C 568.475 4.37148 -0.148372 0
M  V30 6009 C 567.534 5.21686 0.687728 0
M  V30 6010 O 566.56 5.69074 0.119934 0
M  V30 6011 N 567.762 5.44892 2.00182 0
M  V30 6012 H 570.527 2.79426 -1.08356 0
M  V30 6013 H 568.088 1.45076 -0.718647 0
M  V30 6014 H 570.08 3.86134 1.2117 0
M  V30 6015 H 568.65 2.81061 1.36834 0
M  V30 6016 H 567.87 3.83915 -0.894572 0
M  V30 6017 H 569.158 5.04038 -0.694514 0
M  V30 6018 H 568.556 5.08128 2.4864 0
M  V30 6019 H 567.113 6.0134 2.51463 0
M  V30 6020 N 570.547 0.616602 1.45037 0
M  V30 6021 C 571.51 -0.0871112 2.29034 0
M  V30 6022 C 572.51 -0.786414 1.40258 0
M  V30 6023 O 573.7 -0.633207 1.62284 0
M  V30 6024 C 570.832 -1.13369 3.21497 0
M  V30 6025 H 572.025 0.651497 2.92738 0
M  V30 6026 H 569.578 0.376058 1.51709 0
M  V30 6027 H 570.313 -1.90277 2.62612 0
M  V30 6028 H 570.098 -0.636358 3.86902 0
M  V30 6029 H 571.588 -1.62627 3.84633 0
M  V30 6030 N 572.025 -1.5352 0.356285 0
M  V30 6031 C 573.302 -1.93405 -0.292223 0
M  V30 6032 C 573.682 -1.28901 -1.67176 0
M  V30 6033 O 573.03 -0.444632 -2.24132 0
M  V30 6034 C 573.24 -3.47223 -0.35175 0
M  V30 6035 C 574.588 -4.20389 -0.596534 0
M  V30 6036 O 575.612 -3.53554 -0.433344 0
M  V30 6037 O 574.471 -5.3881 -0.913589 0
M  V30 6038 H 571.565 -0.808666 -0.173172 0
M  V30 6039 H 574.111 -1.64713 0.408391 0
M  V30 6040 H 572.883 -3.86423 0.615841 0
M  V30 6041 H 572.506 -3.8212 -1.09864 0
M  V30 6042 N 573.503 -0.0852151 -1.57369 0
M  V30 6043 C 574.752 0.580443 -1.93168 0
M  V30 6044 C 575.065 1.6995 -0.968319 0
M  V30 6045 O 576.271 2.42564 -1.21963 0
M  V30 6046 C 574.727 1.08386 -3.43192 0
M  V30 6047 C 574.335 -0.00491388 -4.48 0
M  V30 6048 C 576.079 1.72281 -3.87968 0
M  V30 6049 C 573.986 0.513299 -5.89168 0
M  V30 6050 H 572.916 0.22059 -0.72101 0
M  V30 6051 H 575.567 -0.159621 -1.82804 0
M  V30 6052 H 573.949 1.8773 -3.48674 0
M  V30 6053 H 575.123 -0.780032 -4.5415 0
M  V30 6054 H 573.438 -0.548453 -4.12772 0
M  V30 6055 H 576.035 2.12108 -4.9083 0
M  V30 6056 H 576.378 2.58811 -3.26071 0
M  V30 6057 H 576.911 0.995359 -3.85146 0
M  V30 6058 H 573.65 -0.315153 -6.54742 0
M  V30 6059 H 573.17 1.25564 -5.8651 0
M  V30 6060 H 574.849 0.985433 -6.39451 0
M  V30 6061 N 574.981 1.5647 0.188427 0
M  V30 6062 C 576.397 1.50204 0.539532 0
M  V30 6063 C 576.597 0.78644 1.85519 0
M  V30 6064 O 575.653 0.339714 2.50204 0
M  V30 6065 C 576.966 2.94893 0.588103 0
M  V30 6066 C 578.514 3.05602 0.67648 0
M  V30 6067 C 578.989 4.51716 0.756101 0
M  V30 6068 N 580.48 4.55894 0.819451 0
M  V30 6069 C 581.215 5.66272 0.90134 0
M  V30 6070 N 580.711 6.86323 0.945118 0
M  V30 6071 N 582.504 5.54201 0.939043 0
M  V30 6072 H 574.655 2.01406 -0.674493 0
M  V30 6073 H 576.918 0.916828 -0.241103 0
M  V30 6074 H 576.624 3.50334 -0.309633 0
M  V30 6075 H 576.498 3.4861 1.44051 0
M  V30 6076 H 578.885 2.50206 1.56465 0
M  V30 6077 H 578.966 2.54999 -0.202262 0
M  V30 6078 H 578.61 5.07739 -0.12774 0
M  V30 6079 H 578.54 5.00058 1.65074 0
M  V30 6080 H 581.031 3.69452 0.794594 0
M  V30 6081 H 581.344 7.66194 1.0083 0
M  V30 6082 H 579.689 6.88968 0.913683 0
M  V30 6083 H 582.88 4.59333 0.901725 0
M  V30 6084 H 583.053 6.40247 0.999402 0
M  V30 6085 N 576.459 -0.456382 1.50847 0
M  V30 6086 C 577.708 -1.2042 1.61808 0
M  V30 6087 C 578.021 -1.9278 0.330932 0
M  V30 6088 O 579.227 -2.69612 0.319643 0
M  V30 6089 C 577.683 -2.18891 2.85683 0
M  V30 6090 C 577.291 -1.52267 4.2133 0
M  V30 6091 C 579.035 -2.94224 3.05994 0
M  V30 6092 C 576.942 -2.4911 5.36375 0
M  V30 6093 H 575.872 -0.453177 0.602616 0
M  V30 6094 H 578.523 -0.473144 1.77295 0
M  V30 6095 H 576.905 -2.95351 2.63787 0
M  V30 6096 H 578.079 -0.814949 4.53536 0
M  V30 6097 H 576.394 -0.891594 4.06743 0
M  V30 6098 H 578.991 -3.66732 3.89117 0
M  V30 6099 H 579.334 -3.54469 2.18306 0
M  V30 6100 H 579.867 -2.24874 3.28141 0
M  V30 6101 H 576.606 -1.93582 6.26264 0
M  V30 6102 H 576.126 -3.17991 5.08569 0
M  V30 6103 H 577.805 -3.10637 5.67551 0
M  V30 6104 N 577.937 -1.40673 -0.710563 0
M  V30 6105 C 578.885 -1.41517 -1.84596 0
M  V30 6106 C 579.879 -0.295043 -1.66811 0
M  V30 6107 O 581.085 -0.466331 -1.73854 0
M  V30 6108 H 577.46 -0.442467 -0.608052 0
M  V30 6109 H 579.431 -2.37238 -1.80999 0
M  V30 6110 C 578.18 -1.29957 -3.225 0
M  V30 6111 H 577.503 -2.15429 -3.36794 0
M  V30 6112 H 578.943 -1.34608 -4.02066 0
M  V30 6113 C 577.402 -0.0103164 -3.36898 0
M  V30 6114 O 577.932 0.950707 -3.90288 0
M  V30 6115 N 576.138 0.0608409 -2.90536 0
M  V30 6116 H 575.685 -0.721943 -2.47277 0
M  V30 6117 H 575.643 0.92292 -3.00549 0
M  V30 6118 N 579.415 0.9433 -1.26252 0
M  V30 6119 C 580.663 1.68592 -1.11451 0
M  V30 6120 C 580.984 1.91957 0.343123 0
M  V30 6121 O 580.254 1.51475 1.24226 0
M  V30 6122 H 578.834 0.624789 -0.409448 0
M  V30 6123 H 581.496 1.13351 -1.58548 0
M  V30 6124 H 580.592 2.66054 -1.63162 0
M  V30 6125 N 580.893 1.08022 1.14757 0
M  V30 6126 C 582.139 0.818552 1.86202 0
M  V30 6127 C 582.494 -0.648563 1.81139 0
M  V30 6128 O 581.787 -1.4704 1.22841 0
M  V30 6129 C 581.981 1.26964 3.34088 0
M  V30 6130 C 581.81 2.77907 3.5355 0
M  V30 6131 C 580.58 3.45604 3.68627 0
M  V30 6132 C 582.778 3.7609 3.50801 0
M  V30 6133 N 580.76 4.85119 3.76209 0
M  V30 6134 C 582.131 5.0148 3.64579 0
M  V30 6135 C 584.186 3.6915 3.34115 0
M  V30 6136 C 582.889 6.20755 3.63395 0
M  V30 6137 C 584.915 4.87896 3.34233 0
M  V30 6138 C 584.277 6.12123 3.48547 0
M  V30 6139 H 580.376 0.352186 0.698204 0
M  V30 6140 H 582.96 1.37781 1.37567 0
M  V30 6141 H 581.131 0.738008 3.81324 0
M  V30 6142 H 582.863 0.954806 3.93275 0
M  V30 6143 H 579.618 2.96016 3.69691 0
M  V30 6144 H 580.042 5.57748 3.83726 0
M  V30 6145 H 584.684 2.74045 3.21961 0
M  V30 6146 H 582.402 7.16175 3.74326 0
M  V30 6147 H 585.988 4.8421 3.2254 0
M  V30 6148 H 584.868 7.02468 3.48581 0
M  V30 6149 N 582.371 -1.3172 0.865308 0
M  V30 6150 C 583.334 -2.26918 0.322627 0
M  V30 6151 C 584.334 -1.52031 -0.523751 0
M  V30 6152 O 585.524 -1.70973 -0.333727 0
M  V30 6153 C 582.656 -3.36558 -0.542338 0
M  V30 6154 H 583.849 -2.76432 1.16298 0
M  V30 6155 H 581.402 -1.42573 0.640512 0
M  V30 6156 H 582.137 -2.92329 -1.40407 0
M  V30 6157 H 581.922 -3.92048 0.0636395 0
M  V30 6158 H 583.412 -4.07465 -0.91446 0
M  V30 6159 N 583.85 -0.624285 -1.44708 0
M  V30 6160 C 585.096 -0.126237 -2.02407 0
M  V30 6161 C 585.428 1.24618 -1.48943 0
M  V30 6162 O 584.704 1.82569 -0.670742 0
M  V30 6163 C 584.986 -0.105449 -3.59946 0
M  V30 6164 C 584.84 -1.50972 -4.23707 0
M  V30 6165 C 586.159 0.573629 -4.36346 0
M  V30 6166 H 583.278 -0.0473472 -0.735478 0
M  V30 6167 H 585.92 -0.799452 -1.72362 0
M  V30 6168 H 584.07 0.46783 -3.85673 0
M  V30 6169 H 585.742 -2.13136 -4.0911 0
M  V30 6170 H 583.985 -2.0656 -3.81465 0
M  V30 6171 H 584.656 -1.44727 -5.32689 0
M  V30 6172 H 587.132 0.0861787 -4.16011 0
M  V30 6173 H 586.008 0.557338 -5.46063 0
M  V30 6174 H 586.269 1.64276 -4.10446 0
M  V30 6175 N 585.328 1.53329 -0.364422 0
M  V30 6176 C 586.238 2.29414 0.490552 0
M  V30 6177 C 587.254 1.35335 1.09363 0
M  V30 6178 O 588.43 1.68391 1.10483 0
M  V30 6179 C 585.495 3.06772 1.61529 0
M  V30 6180 C 584.556 4.16516 1.03986 0
M  V30 6181 C 583.789 4.90176 2.111 0
M  V30 6182 O 584.012 4.63687 3.32191 0
M  V30 6183 O 582.946 5.76134 1.74222 0
M  V30 6184 H 586.772 3.03428 -0.12856 0
M  V30 6185 H 584.357 1.48843 -0.128837 0
M  V30 6186 H 586.239 3.55082 2.26924 0
M  V30 6187 H 584.914 2.35596 2.21983 0
M  V30 6188 H 583.821 3.7246 0.349856 0
M  V30 6189 H 585.154 4.89855 0.4799 0
M  V30 6190 N 586.806 0.0935595 1.57322 0
M  V30 6191 C 588.046 -0.573901 1.96178 0
M  V30 6192 C 588.41 -1.65445 0.97426 0
M  V30 6193 O 589.611 -2.37901 1.25126 0
M  V30 6194 C 587.882 -1.11612 3.39526 0
M  V30 6195 S 589.441 -1.79566 4.00377 0
M  V30 6196 H 586.259 -0.187315 0.685882 0
M  V30 6197 H 588.861 0.172597 1.94737 0
M  V30 6198 H 587.565 -0.31815 4.09165 0
M  V30 6199 H 587.096 -1.89848 3.4456 0
M  V30 6200 H 589.111 -3.07978 3.89056 0
M  V30 6201 N 588.284 -1.56567 -0.180126 0
M  V30 6202 C 589.7 -1.50488 -0.531559 0
M  V30 6203 C 589.9 -0.796267 -1.851 0
M  V30 6204 O 588.956 -0.352978 -2.50021 0
M  V30 6205 C 590.269 -2.95201 -0.572456 0
M  V30 6206 C 591.817 -3.05957 -0.660264 0
M  V30 6207 C 592.292 -4.5211 -0.732135 0
M  V30 6208 N 593.783 -4.56322 -0.795262 0
M  V30 6209 C 594.518 -5.66742 -0.871296 0
M  V30 6210 N 594.014 -6.86815 -0.908708 0
M  V30 6211 N 595.807 -5.54691 -0.909639 0
M  V30 6212 H 587.958 -2.01045 0.685165 0
M  V30 6213 H 590.221 -0.915536 0.245962 0
M  V30 6214 H 589.927 -3.50165 0.328208 0
M  V30 6215 H 589.801 -3.49369 -1.422 0
M  V30 6216 H 592.188 -2.51032 -1.55136 0
M  V30 6217 H 592.269 -2.54888 0.215783 0
M  V30 6218 H 591.913 -5.07664 0.154664 0
M  V30 6219 H 591.843 -5.00926 -1.6242 0
M  V30 6220 H 594.334 -3.69868 -0.77499 0
M  V30 6221 H 594.647 -7.66718 -0.967654 0
M  V30 6222 H 592.992 -6.89443 -0.877132 0
M  V30 6223 H 596.183 -4.59804 -0.877353 0
M  V30 6224 H 596.356 -6.40768 -0.965434 0
M  V30 6225 N 589.762 0.448376 -1.51087 0
M  V30 6226 C 591.008 1.20049 -1.6345 0
M  V30 6227 C 591.341 1.91121 -0.344444 0
M  V30 6228 O 590.616 1.83125 0.655396 0
M  V30 6229 C 590.899 2.22624 -2.83038 0
M  V30 6230 C 590.752 1.55708 -4.21989 0
M  V30 6231 C 592.071 3.23718 -2.98152 0
M  V30 6232 H 589.19 0.435085 -0.59487 0
M  V30 6233 H 591.832 0.491183 -1.83541 0
M  V30 6234 H 589.982 2.83117 -2.66039 0
M  V30 6235 H 591.654 0.986367 -4.50631 0
M  V30 6236 H 589.897 0.859647 -4.25197 0
M  V30 6237 H 590.568 2.30357 -5.01637 0
M  V30 6238 H 593.044 2.73269 -3.13788 0
M  V30 6239 H 591.92 3.92795 -3.83411 0
M  V30 6240 H 592.181 3.89179 -2.09743 0
M  V30 6241 N 591.24 1.41047 0.703093 0
M  V30 6242 C 592.47 1.43133 1.48985 0
M  V30 6243 C 592.878 0.0328537 1.89171 0
M  V30 6244 O 592.221 -0.956469 1.56835 0
M  V30 6245 C 592.283 2.26991 2.78775 0
M  V30 6246 C 591.947 3.7525 2.60837 0
M  V30 6247 C 592.944 4.67591 2.27276 0
M  V30 6248 C 590.629 4.19208 2.76712 0
M  V30 6249 C 592.623 6.01877 2.09817 0
M  V30 6250 C 590.31 5.53561 2.5887 0
M  V30 6251 C 591.308 6.4471 2.25472 0
M  V30 6252 O 590.996 7.76584 2.07778 0
M  V30 6253 H 590.728 0.489788 0.465922 0
M  V30 6254 H 593.282 1.85886 0.873822 0
M  V30 6255 H 591.512 1.79038 3.42757 0
M  V30 6256 H 593.201 2.20867 3.40547 0
M  V30 6257 H 593.967 4.34923 2.14633 0
M  V30 6258 H 589.846 3.48572 3.01693 0
M  V30 6259 H 593.39 6.72986 1.83671 0
M  V30 6260 H 589.287 5.85811 2.71102 0
M  V30 6261 H 590.055 7.87649 2.22601 0
M  V30 6262 N 592.718 -0.936591 1.26751 0
M  V30 6263 C 593.681 -2.01752 1.08761 0
M  V30 6264 C 594.681 -1.60763 0.0344435 0
M  V30 6265 O 595.871 -1.71963 0.278258 0
M  V30 6266 C 593.003 -3.34543 0.655271 0
M  V30 6267 H 594.196 -2.19143 2.04735 0
M  V30 6268 H 591.749 -1.11618 1.09413 0
M  V30 6269 H 592.484 -3.22851 -0.30626 0
M  V30 6270 H 592.269 -3.65647 1.41578 0
M  V30 6271 H 593.759 -4.13944 0.551378 0
M  V30 6272 N 594.196 -1.08629 -1.14182 0
M  V30 6273 C 595.106 -0.730126 -2.22949 0
M  V30 6274 C 596.122 0.26436 -1.7198 0
M  V30 6275 O 597.298 0.107742 -2.01112 0
M  V30 6276 C 594.363 -0.147227 -3.46387 0
M  V30 6277 C 593.424 -1.19662 -4.12286 0
M  V30 6278 C 592.657 -0.641437 -5.29831 0
M  V30 6279 O 592.88 0.538351 -5.67854 0
M  V30 6280 O 591.814 -1.39257 -5.85569 0
M  V30 6281 H 595.64 -1.63753 -2.55771 0
M  V30 6282 H 593.225 -0.860118 -1.22157 0
M  V30 6283 H 595.107 0.174923 -4.21037 0
M  V30 6284 H 593.782 0.733304 -3.15285 0
M  V30 6285 H 592.689 -1.57133 -3.395 0
M  V30 6286 H 594.022 -2.0495 -4.475 0
M  V30 6287 N 595.674 1.31259 -0.872281 0
M  V30 6288 C 596.951 1.91362 -0.404943 0
M  V30 6289 C 597.331 1.79362 1.11321 0
M  V30 6290 O 596.679 1.20277 1.94283 0
M  V30 6291 C 596.889 3.3749 -0.888893 0
M  V30 6292 C 598.237 4.14593 -0.916384 0
M  V30 6293 O 599.261 3.46282 -0.834701 0
M  V30 6294 O 598.12 5.3661 -1.03498 0
M  V30 6295 H 595.214 0.818016 -0.121569 0
M  V30 6296 H 597.76 1.39912 -0.960346 0
M  V30 6297 H 596.532 3.40249 -1.93251 0
M  V30 6298 H 596.155 3.96375 -0.311932 0
M  V30 6299 N 597.152 0.631951 1.44375 0
M  V30 6300 C 598.563 0.219036 1.85411 0
M  V30 6301 C 598.914 -1.22974 1.52879 0
M  V30 6302 O 598.039 -1.93579 0.967266 0
M  V30 6303 C 598.634 0.39075 3.36539 0
M  V30 6304 C 597.193 0.0323351 3.76386 0
M  V30 6305 C 596.34 0.703744 2.68221 0
M  V30 6306 H 599.291 0.837056 1.3483 0
M  V30 6307 H 599.312 -0.370056 3.78696 0
M  V30 6308 H 598.824 1.44527 3.60185 0
M  V30 6309 H 596.925 -1.02042 3.58355 0
M  V30 6310 H 597.038 0.442969 4.77048 0
M  V30 6311 H 595.402 0.138974 2.54321 0
M  V30 6312 H 596.185 1.76088 2.947 0
M  V30 6313 N 598.631 -1.53133 0.372548 0
M  V30 6314 C 599.861 -2.05476 -0.215202 0
M  V30 6315 C 600.269 -1.24534 -1.42436 0
M  V30 6316 O 599.612 -0.280771 -1.81542 0
M  V30 6317 C 599.674 -3.53276 -0.666068 0
M  V30 6318 C 599.338 -4.54998 0.427342 0
M  V30 6319 C 600.335 -5.03911 1.27944 0
M  V30 6320 C 598.02 -4.98828 0.589579 0
M  V30 6321 C 600.014 -5.95263 2.27905 0
M  V30 6322 C 597.701 -5.89984 1.59255 0
M  V30 6323 C 598.699 -6.38093 2.43571 0
M  V30 6324 O 598.387 -7.27451 3.42156 0
M  V30 6325 H 598.119 -0.67481 -0.040099 0
M  V30 6326 H 600.673 -1.98409 0.531312 0
M  V30 6327 H 598.903 -3.57904 -1.4643 0
M  V30 6328 H 600.592 -3.88442 -1.1776 0
M  V30 6329 H 601.358 -4.70792 1.16532 0
M  V30 6330 H 597.237 -4.60965 -0.0569456 0
M  V30 6331 H 600.781 -6.32736 2.93753 0
M  V30 6332 H 596.678 -6.22518 1.70711 0
M  V30 6333 H 597.446 -7.45467 3.37967 0
M  V30 6334 N 600.109 -0.101901 -1.5727 0
M  V30 6335 C 601.056 0.854577 -2.14396 0
M  V30 6336 C 602.026 1.27521 -1.06432 0
M  V30 6337 O 603.211 1.35575 -1.34253 0
M  V30 6338 C 600.351 2.10576 -2.73408 0
M  V30 6339 C 599.464 1.73504 -3.95626 0
M  V30 6340 C 598.599 2.9346 -4.42781 0
M  V30 6341 C 597.638 2.52547 -5.57572 0
M  V30 6342 N 596.775 3.65359 -5.99547 0
M  V30 6343 H 601.615 0.360578 -2.9581 0
M  V30 6344 H 599.152 0.166303 -1.46157 0
M  V30 6345 H 601.11 2.83859 -3.05745 0
M  V30 6346 H 599.74 2.57463 -1.94711 0
M  V30 6347 H 598.792 0.901622 -3.6956 0
M  V30 6348 H 600.104 1.39426 -4.78917 0
M  V30 6349 H 599.258 3.74988 -4.76937 0
M  V30 6350 H 597.997 3.30753 -3.58404 0
M  V30 6351 H 597.002 1.69446 -5.23037 0
M  V30 6352 H 598.227 2.1639 -6.43702 0
M  V30 6353 H 596.173 4.02358 -5.18116 0
M  V30 6354 H 596.09 3.35148 -6.77652 0
M  V30 6355 H 597.358 4.47378 -6.38336 0
M  V30 6356 N 601.587 1.56661 0.17182 0
M  V30 6357 C 602.812 1.86459 0.908165 0
M  V30 6358 C 603.237 0.688181 1.75059 0
M  V30 6359 O 602.595 -0.362753 1.77634 0
M  V30 6360 C 602.643 3.14669 1.76112 0
M  V30 6361 O 601.747 2.96858 2.86268 0
M  V30 6362 H 601.088 0.613318 0.254434 0
M  V30 6363 H 603.618 2.03892 0.170113 0
M  V30 6364 H 603.628 3.46061 2.16115 0
M  V30 6365 H 602.303 3.99905 1.14233 0
M  V30 6366 H 600.88 2.76819 2.49852 0
M  V30 6367 N 603.065 -0.440357 1.51323 0
M  V30 6368 C 604.312 -1.19004 1.63842 0
M  V30 6369 C 604.64 -1.91266 0.35321 0
M  V30 6370 O 603.895 -1.84143 -0.662565 0
M  V30 6371 C 604.194 -2.2339 2.78984 0
M  V30 6372 C 603.86 -1.68162 4.18369 0
M  V30 6373 C 602.522 -1.52823 4.56288 0
M  V30 6374 C 604.874 -1.27524 5.05358 0
M  V30 6375 C 602.202 -0.953157 5.78906 0
M  V30 6376 C 604.554 -0.714474 6.28552 0
M  V30 6377 C 603.218 -0.547961 6.65247 0
M  V30 6378 H 602.488 -0.435468 0.59954 0
M  V30 6379 H 605.135 -0.481538 1.85347 0
M  V30 6380 H 603.44 -3.00267 2.51688 0
M  V30 6381 H 605.137 -2.81211 2.85869 0
M  V30 6382 H 601.727 -1.81077 3.8847 0
M  V30 6383 H 605.911 -1.38197 4.76671 0
M  V30 6384 H 601.167 -0.811882 6.05986 0
M  V30 6385 H 605.341 -0.391059 6.95301 0
M  V30 6386 H 602.968 -0.100222 7.60134 0
M  V30 6387 N 604.543 -1.41418 -0.695603 0
M  V30 6388 C 605.791 -1.40496 -1.45277 0
M  V30 6389 C 606.112 -0.0149538 -1.94994 0
M  V30 6390 O 605.382 0.9432 -1.71699 0
M  V30 6391 H 603.962 -0.517147 -0.539044 0
M  V30 6392 H 606.624 -1.76656 -0.823321 0
M  V30 6393 H 605.72 -2.09214 -2.31595 0
M  V30 6394 N 606.021 0.929856 -1.27246 0
M  V30 6395 C 606.951 2.04722 -1.12299 0
M  V30 6396 C 607.932 1.70082 -0.0250464 0
M  V30 6397 O 609.117 1.93176 -0.199141 0
M  V30 6398 C 606.247 3.38721 -0.767145 0
M  V30 6399 C 605.201 3.87466 -1.81808 0
M  V30 6400 C 604.527 5.18246 -1.31626 0
M  V30 6401 C 605.827 4.11095 -3.22177 0
M  V30 6402 H 607.521 2.17485 -2.05769 0
M  V30 6403 H 605.067 1.04503 -0.990715 0
M  V30 6404 H 607.02 4.16366 -0.649413 0
M  V30 6405 H 605.744 3.25967 0.203259 0
M  V30 6406 H 604.403 3.12012 -1.92468 0
M  V30 6407 H 604.051 5.01881 -0.335378 0
M  V30 6408 H 603.751 5.51829 -2.01887 0
M  V30 6409 H 605.275 5.98462 -1.21143 0
M  V30 6410 H 606.689 4.79316 -3.1453 0
M  V30 6411 H 605.086 4.55982 -3.90129 0
M  V30 6412 H 606.156 3.16468 -3.67391 0
M  V30 6413 N 607.499 1.09233 1.13605 0
M  V30 6414 C 608.91 0.846839 1.6639 0
M  V30 6415 C 609.261 -0.625031 1.85978 0
M  V30 6416 O 608.386 -1.48173 1.57714 0
M  V30 6417 C 608.981 1.5307 3.0225 0
M  V30 6418 C 607.54 1.33223 3.52035 0
M  V30 6419 C 606.687 1.58806 2.27323 0
M  V30 6420 H 609.638 1.25175 0.975541 0
M  V30 6421 H 609.659 0.96267 3.68121 0
M  V30 6422 H 609.171 2.60192 2.87961 0
M  V30 6423 H 607.272 0.282091 3.71531 0
M  V30 6424 H 607.385 2.0657 4.32279 0
M  V30 6425 H 605.749 1.01007 2.33815 0
M  V30 6426 H 606.532 2.67153 2.15602 0
M  V30 6427 N 608.977 -1.30795 0.87923 0
M  V30 6428 C 610.202 -2.01063 0.508769 0
M  V30 6429 C 610.627 -1.65508 -0.893803 0
M  V30 6430 O 609.985 -0.868616 -1.59138 0
M  V30 6431 C 610.033 -3.54054 0.683991 0
M  V30 6432 O 609.137 -4.11498 -0.272654 0
M  V30 6433 H 608.478 -0.632786 0.201191 0
M  V30 6434 H 611.008 -1.66776 1.18519 0
M  V30 6435 H 611.018 -4.03845 0.580798 0
M  V30 6436 H 609.693 -3.79271 1.70665 0
M  V30 6437 H 608.27 -3.72695 -0.12364 0
M  V30 6438 N 610.455 -0.639598 -1.44038 0
M  V30 6439 C 611.704 -0.144885 -2.01179 0
M  V30 6440 C 612.017 1.24372 -1.50967 0
M  V30 6441 O 613.223 1.83291 -2.00292 0
M  V30 6442 C 611.679 -0.208244 -3.59297 0
M  V30 6443 C 611.287 -1.59869 -4.18504 0
M  V30 6444 C 613.031 0.229568 -4.23879 0
M  V30 6445 C 610.938 -1.61671 -5.68873 0
M  V30 6446 H 609.868 -0.0504005 -0.752314 0
M  V30 6447 H 612.519 -0.799639 -1.65161 0
M  V30 6448 H 610.901 0.513767 -3.92653 0
M  V30 6449 H 612.075 -2.34496 -3.96671 0
M  V30 6450 H 610.39 -1.98131 -3.66242 0
M  V30 6451 H 612.987 0.235758 -5.3418 0
M  V30 6452 H 613.33 1.25848 -3.96822 0
M  V30 6453 H 613.863 -0.440233 -3.95357 0
M  V30 6454 H 610.602 -2.62427 -6.00677 0
M  V30 6455 H 610.122 -0.913489 -5.92803 0
M  V30 6456 H 611.801 -1.35439 -6.32665 0
M  V30 6457 N 611.933 1.52934 -0.380664 0
M  V30 6458 C 613.181 2.01069 0.203874 0
M  V30 6459 C 613.502 1.26922 1.4804 0
M  V30 6460 O 612.772 0.386787 1.92044 0
M  V30 6461 H 611.352 0.742882 0.0783279 0
M  V30 6462 H 614.014 1.88099 -0.510368 0
M  V30 6463 H 613.11 3.09258 0.42021 0
M  V30 6464 N 613.412 0.11024 1.57214 0
M  V30 6465 C 614.828 -0.24638 1.57687 0
M  V30 6466 C 615.028 -1.67344 1.12241 0
M  V30 6467 O 614.084 -2.39298 0.805783 0
M  V30 6468 C 615.397 -0.0210288 3.00693 0
M  V30 6469 C 616.945 -0.0876077 3.12877 0
M  V30 6470 C 617.42 0.10994 4.57868 0
M  V30 6471 N 618.911 0.0556135 4.63167 0
M  V30 6472 C 619.646 0.183495 5.73106 0
M  V30 6473 N 619.142 0.367058 6.91827 0
M  V30 6474 N 620.935 0.123689 5.61964 0
M  V30 6475 H 613.086 1.04246 1.85058 0
M  V30 6476 H 615.349 0.40979 0.854854 0
M  V30 6477 H 615.055 0.965203 3.38196 0
M  V30 6478 H 614.929 -0.756748 3.69531 0
M  V30 6479 H 617.316 -1.06436 2.75237 0
M  V30 6480 H 617.397 0.67985 2.466 0
M  V30 6481 H 617.041 1.08362 4.96206 0
M  V30 6482 H 616.971 -0.677397 5.22225 0
M  V30 6483 H 619.462 -0.0831062 3.77809 0
M  V30 6484 H 619.775 0.455739 7.71455 0
M  V30 6485 H 618.12 0.40292 6.93831 0
M  V30 6486 H 621.311 -0.0186928 4.68096 0
M  V30 6487 H 621.484 0.226797 6.47603 0
M  V30 6488 N 614.89 -1.56749 -0.16351 0
M  V30 6489 C 615.82 -2.00042 -1.20438 0
M  V30 6490 C 616.801 -0.877256 -1.45733 0
M  V30 6491 O 617.986 -1.1439 -1.56935 0
M  V30 6492 C 615.116 -2.36697 -2.54149 0
M  V30 6493 C 614.07 -3.52046 -2.43408 0
M  V30 6494 C 613.396 -3.74466 -3.81679 0
M  V30 6495 C 614.696 -4.85247 -1.93216 0
M  V30 6496 H 616.39 -2.87244 -0.844477 0
M  V30 6497 H 613.936 -1.38194 -0.40478 0
M  V30 6498 H 615.889 -2.65582 -3.27176 0
M  V30 6499 H 614.613 -1.46414 -2.91943 0
M  V30 6500 H 613.272 -3.23301 -1.72834 0
M  V30 6501 H 612.92 -2.81461 -4.1688 0
M  V30 6502 H 612.62 -4.52084 -3.75359 0
M  V30 6503 H 614.144 -4.0576 -4.5628 0
M  V30 6504 H 615.558 -5.12957 -2.56023 0
M  V30 6505 H 613.955 -5.66556 -1.97825 0
M  V30 6506 H 615.025 -4.7672 -0.88689 0
M  V30 6507 N 616.368 0.432326 -1.51554 0
M  V30 6508 C 617.593 1.20824 -1.68571 0
M  V30 6509 C 618.018 1.84126 -0.384596 0
M  V30 6510 O 617.376 1.69025 0.655751 0
M  V30 6511 C 617.424 2.26429 -2.80646 0
M  V30 6512 O 616.528 3.32032 -2.44598 0
M  V30 6513 H 615.869 0.353765 -0.561913 0
M  V30 6514 H 618.399 0.509916 -1.98144 0
M  V30 6515 H 618.409 2.71133 -3.04878 0
M  V30 6516 H 617.084 1.79733 -3.75058 0
M  V30 6517 H 615.661 2.92769 -2.30956 0
M  V30 6518 N 617.846 1.41785 0.688094 0
M  V30 6519 C 618.778 1.40159 1.81351 0
M  V30 6520 C 619.791 0.30262 1.59963 0
M  V30 6521 O 620.98 0.564841 1.69327 0
M  V30 6522 C 618.08 1.16517 3.1824 0
M  V30 6523 C 617.253 2.38597 3.66593 0
M  V30 6524 C 616.312 2.10699 4.82174 0
M  V30 6525 O 615.338 2.83798 4.93404 0
M  V30 6526 N 616.54 1.10187 5.69947 0
M  V30 6527 H 619.305 2.3716 1.83236 0
M  V30 6528 H 616.866 1.36494 0.870697 0
M  V30 6529 H 618.858 0.957941 3.93199 0
M  V30 6530 H 617.428 0.280873 3.11336 0
M  V30 6531 H 616.648 2.74974 2.82459 0
M  V30 6532 H 617.936 3.19919 3.95638 0
M  V30 6533 H 617.334 0.497016 5.63512 0
M  V30 6534 H 615.891 0.954518 6.44773 0
M  V30 6535 N 619.324 -0.923095 1.27737 0
M  V30 6536 C 620.554 -1.70277 1.17001 0
M  V30 6537 C 620.962 -1.87188 -0.275199 0
M  V30 6538 O 620.305 -1.39195 -1.19877 0
M  V30 6539 C 620.367 -3.11976 1.78637 0
M  V30 6540 C 620.031 -3.18386 3.27841 0
M  V30 6541 C 621.028 -3.00287 4.2441 0
M  V30 6542 C 618.713 -3.41198 3.68632 0
M  V30 6543 C 620.707 -3.04896 5.59747 0
M  V30 6544 C 618.394 -3.4544 5.04097 0
M  V30 6545 C 619.392 -3.27309 5.99465 0
M  V30 6546 O 619.08 -3.31295 7.32461 0
M  V30 6547 H 618.812 -0.539366 0.407505 0
M  V30 6548 H 621.366 -1.16446 1.69202 0
M  V30 6549 H 619.596 -3.67308 1.20919 0
M  V30 6550 H 621.285 -3.7193 1.6255 0
M  V30 6551 H 622.051 -2.825 3.94232 0
M  V30 6552 H 617.93 -3.54359 2.94873 0
M  V30 6553 H 621.474 -2.90662 6.34162 0
M  V30 6554 H 617.371 -3.62753 5.33929 0
M  V30 6555 H 618.139 -3.47719 7.40968 0
M  V30 6556 N 620.802 -1.09834 -1.13024 0
M  V30 6557 C 621.734 -0.699379 -2.18269 0
M  V30 6558 C 622.747 0.260841 -1.60697 0
M  V30 6559 O 623.936 0.0462538 -1.7844 0
M  V30 6560 C 621.036 -0.0104537 -3.38898 0
M  V30 6561 C 620.209 -0.993275 -4.25973 0
M  V30 6562 C 619.268 -0.336982 -5.2512 0
M  V30 6563 O 618.294 -0.985892 -5.60597 0
M  V30 6564 N 619.496 0.90716 -5.73368 0
M  V30 6565 H 622.261 -1.60486 -2.5311 0
M  V30 6566 H 619.822 -0.986337 -1.28386 0
M  V30 6567 H 621.814 0.43991 -4.02302 0
M  V30 6568 H 620.384 0.797335 -3.0226 0
M  V30 6569 H 619.604 -1.62208 -3.5928 0
M  V30 6570 H 620.892 -1.65876 -4.81002 0
M  V30 6571 H 620.29 1.45384 -5.46699 0
M  V30 6572 H 618.847 1.30077 -6.38689 0
M  V30 6573 N 622.28 1.30327 -0.886154 0
M  V30 6574 C 623.19 2.31854 -0.357866 0
M  V30 6575 C 624.206 1.65392 0.540502 0
M  V30 6576 O 625.382 1.96683 0.433339 0
M  V30 6577 C 622.447 3.44171 0.417999 0
M  V30 6578 C 621.508 4.26257 -0.510263 0
M  V30 6579 C 620.741 5.3321 0.228669 0
M  V30 6580 O 620.964 5.51542 1.45458 0
M  V30 6581 O 619.898 6.0042 -0.421832 0
M  V30 6582 H 623.724 2.78995 -1.19982 0
M  V30 6583 H 621.309 1.34518 -0.650028 0
M  V30 6584 H 623.191 4.12588 0.857251 0
M  V30 6585 H 621.866 2.99164 1.23623 0
M  V30 6586 H 620.773 3.60533 -0.99835 0
M  V30 6587 H 622.106 4.74871 -1.29454 0
M  V30 6588 N 623.758 0.647228 1.43697 0
M  V30 6589 C 625.169 0.238689 1.85168 0
M  V30 6590 C 625.52 -1.21345 1.54175 0
M  V30 6591 O 624.645 -1.92542 0.987743 0
M  V30 6592 C 625.24 0.426422 3.36106 0
M  V30 6593 C 623.799 0.0722541 3.76331 0
M  V30 6594 C 622.946 0.732153 2.6746 0
M  V30 6595 H 625.897 0.851309 1.33934 0
M  V30 6596 H 625.918 -0.32987 3.79067 0
M  V30 6597 H 625.43 1.48339 3.58632 0
M  V30 6598 H 623.531 -0.982355 3.59417 0
M  V30 6599 H 623.644 0.493541 4.76551 0
M  V30 6600 H 622.008 0.16594 2.54159 0
M  V30 6601 H 622.791 1.79204 2.92816 0
M  V30 6602 N 625.236 -1.5273 0.388769 0
M  V30 6603 C 626.166 -2.29353 -0.438111 0
M  V30 6604 C 627.147 -1.32719 -1.06394 0
M  V30 6605 O 628.332 -1.61612 -1.07681 0
M  V30 6606 C 625.462 -3.09995 -1.56589 0
M  V30 6607 C 624.416 -4.14509 -1.06613 0
M  V30 6608 C 623.742 -4.83372 -2.28594 0
M  V30 6609 C 625.042 -5.22127 -0.134459 0
M  V30 6610 H 626.736 -2.98723 0.201206 0
M  V30 6611 H 624.282 -1.43665 0.0982089 0
M  V30 6612 H 626.235 -3.62357 -2.15118 0
M  V30 6613 H 624.959 -2.38357 -2.23279 0
M  V30 6614 H 623.618 -3.63128 -0.503383 0
M  V30 6615 H 623.266 -4.08283 -2.93792 0
M  V30 6616 H 622.966 -5.54012 -1.95817 0
M  V30 6617 H 624.49 -5.38538 -2.87766 0
M  V30 6618 H 625.904 -5.69851 -0.627914 0
M  V30 6619 H 624.301 -6.00011 0.103534 0
M  V30 6620 H 625.371 -4.77971 0.816798 0
M  V30 6621 N 626.714 -0.118576 -1.57153 0
M  V30 6622 C 627.664 0.842924 -2.11846 0
M  V30 6623 C 628.648 1.22845 -1.03914 0
M  V30 6624 O 629.84 1.19961 -1.30148 0
M  V30 6625 C 626.969 2.09312 -2.72109 0
M  V30 6626 C 626.055 1.73198 -3.87122 0
M  V30 6627 N 626.446 1.07758 -4.94188 0
M  V30 6628 C 624.744 2.02659 -3.97298 0
M  V30 6629 C 625.445 0.907741 -5.74574 0
M  V30 6630 N 624.421 1.4326 -5.24383 0
M  V30 6631 H 628.223 0.333416 -2.92003 0
M  V30 6632 H 625.737 0.0839073 -1.62183 0
M  V30 6633 H 627.734 2.79162 -3.09635 0
M  V30 6634 H 626.394 2.60807 -1.93416 0
M  V30 6635 H 627.405 0.741613 -5.12563 0
M  V30 6636 H 624.082 2.56204 -3.29645 0
M  V30 6637 H 625.472 0.394112 -6.70743 0
M  V30 6638 N 628.193 1.56834 0.155195 0
M  V30 6639 C 629.123 2.00678 1.19376 0
M  V30 6640 C 630.104 0.884973 1.45266 0
M  V30 6641 O 631.289 1.1522 1.56326 0
M  V30 6642 C 628.419 2.38042 2.5289 0
M  V30 6643 C 627.373 3.53332 2.41538 0
M  V30 6644 C 626.699 3.76485 3.79688 0
M  V30 6645 C 627.999 4.86265 1.9064 0
M  V30 6646 H 629.693 2.87688 0.829232 0
M  V30 6647 H 627.239 1.38407 0.397445 0
M  V30 6648 H 629.192 2.67314 3.25763 0
M  V30 6649 H 627.916 1.4796 2.91162 0
M  V30 6650 H 626.575 3.24213 1.71117 0
M  V30 6651 H 626.223 2.83667 4.15382 0
M  V30 6652 H 625.923 4.54068 3.72956 0
M  V30 6653 H 627.447 4.08174 4.54122 0
M  V30 6654 H 628.861 5.14308 2.53299 0
M  V30 6655 H 627.258 5.67597 1.94818 0
M  V30 6656 H 628.328 4.77184 0.861596 0
M  V30 6657 N 629.671 -0.424282 1.51781 0
M  V30 6658 C 631.082 -1.00368 1.57427 0
M  V30 6659 C 631.433 -1.91962 0.40558 0
M  V30 6660 O 630.558 -2.111 -0.47601 0
M  V30 6661 C 631.153 -1.82707 2.85313 0
M  V30 6662 C 629.712 -2.35675 2.93487 0
M  V30 6663 C 628.859 -1.1524 2.5222 0
M  V30 6664 H 631.81 -0.205064 1.5737 0
M  V30 6665 H 631.831 -2.68294 2.69812 0
M  V30 6666 H 631.343 -1.16017 3.70353 0
M  V30 6667 H 629.444 -3.05781 2.12906 0
M  V30 6668 H 629.557 -2.67578 3.97415 0
M  V30 6669 H 627.921 -1.50174 2.05718 0
M  V30 6670 H 628.704 -0.5014 3.39619 0
M  V30 6671 N 631.149 -1.42148 -0.680565 0
M  V30 6672 C 632.397 -1.42029 -1.43779 0
M  V30 6673 C 632.718 -0.0356347 -1.94967 0
M  V30 6674 O 631.988 0.924936 -1.7269 0
M  V30 6675 H 630.568 -0.522835 -0.533529 0
M  V30 6676 H 633.23 -1.7752 -0.804538 0
M  V30 6677 H 632.326 -2.11658 -2.29363 0
M  V30 6678 N 632.627 0.916307 -1.28225 0
M  V30 6679 C 633.873 1.66765 -1.154 0
M  V30 6680 C 634.206 1.91912 0.297251 0
M  V30 6681 O 633.481 1.51766 1.21644 0
M  V30 6682 C 633.764 3.02715 -1.95028 0
M  V30 6683 C 633.617 2.84738 -3.48201 0
M  V30 6684 C 634.936 4.03215 -1.76369 0
M  V30 6685 H 632.055 0.605205 -0.42059 0
M  V30 6686 H 634.697 1.06255 -1.57512 0
M  V30 6687 H 632.847 3.54365 -1.59242 0
M  V30 6688 H 634.519 2.40118 -3.9388 0
M  V30 6689 H 632.762 2.19848 -3.73964 0
M  V30 6690 H 633.433 3.8127 -3.99171 0
M  V30 6691 H 635.909 3.60617 -2.07593 0
M  V30 6692 H 634.785 4.96306 -2.34459 0
M  V30 6693 H 635.046 4.36288 -0.71452 0
M  V30 6694 N 634.105 1.10431 1.1244 0
M  V30 6695 C 635.521 0.836096 1.35947 0
M  V30 6696 C 635.721 -0.544475 1.94004 0
M  V30 6697 O 634.777 -1.29735 2.16622 0
M  V30 6698 C 636.09 1.93575 2.30107 0
M  V30 6699 C 637.638 1.9642 2.43697 0
M  V30 6700 C 638.113 3.05559 3.41171 0
M  V30 6701 N 639.604 3.04865 3.48728 0
M  V30 6702 C 640.339 3.85954 4.24061 0
M  V30 6703 N 639.835 4.76977 5.02458 0
M  V30 6704 N 641.628 3.74172 4.19466 0
M  V30 6705 H 633.779 1.9942 0.731124 0
M  V30 6706 H 636.042 0.866607 0.384312 0
M  V30 6707 H 635.748 2.92943 1.94621 0
M  V30 6708 H 635.622 1.8229 3.30227 0
M  V30 6709 H 638.009 0.97685 2.78463 0
M  V30 6710 H 638.09 2.11782 1.43465 0
M  V30 6711 H 637.734 4.04513 3.07135 0
M  V30 6712 H 637.664 2.87438 4.41234 0
M  V30 6713 H 640.155 2.38908 2.92799 0
M  V30 6714 H 640.468 5.35409 5.57277 0
M  V30 6715 H 638.813 4.81006 5.01655 0
M  V30 6716 H 642.004 3.02412 3.57302 0
M  V30 6717 H 642.177 4.37602 4.77921 0
M  V30 6718 N 635.583 -1.29855 0.893053 0
M  V30 6719 C 636.829 -1.96116 0.516349 0
M  V30 6720 C 637.162 -1.70281 -0.933695 0
M  V30 6721 O 636.437 -1.01205 -1.66096 0
M  V30 6722 C 636.72 -3.51068 0.801455 0
M  V30 6723 C 636.573 -3.86387 2.30272 0
M  V30 6724 C 637.892 -4.39186 0.283423 0
M  V30 6725 H 635.011 -0.712335 0.189072 0
M  V30 6726 H 637.653 -1.53587 1.11852 0
M  V30 6727 H 635.803 -3.87424 0.288949 0
M  V30 6728 H 637.475 -3.60012 2.88425 0
M  V30 6729 H 635.718 -3.34167 2.76613 0
M  V30 6730 H 636.389 -4.94512 2.45279 0
M  V30 6731 H 638.865 -4.09785 0.722187 0
M  V30 6732 H 637.741 -5.46505 0.512169 0
M  V30 6733 H 638.002 -4.34511 -0.815643 0
M  V30 6734 N 637.061 -0.65484 -1.43351 0
M  V30 6735 C 638.338 -0.0987371 -1.95351 0
M  V30 6736 C 638.718 1.38161 -1.59608 0
M  V30 6737 O 638.066 2.10791 -0.882021 0
M  V30 6738 C 638.276 -0.346684 -3.47274 0
M  V30 6739 C 639.624 -0.25249 -4.23849 0
M  V30 6740 O 640.648 -0.279332 -3.55103 0
M  V30 6741 O 639.507 -0.177584 -5.46211 0
M  V30 6742 H 636.601 0.0086829 -0.826954 0
M  V30 6743 H 639.147 -0.728189 -1.53282 0
M  V30 6744 H 637.919 -1.37296 -3.66423 0
M  V30 6745 H 637.542 0.315757 -3.96344 0
M  V30 6746 N 638.539 1.52521 -0.396863 0
M  V30 6747 C 639.764 2.06571 0.185258 0
M  V30 6748 C 640.189 1.26605 1.39115 0
M  V30 6749 O 639.547 0.293055 1.78916 0
M  V30 6750 C 639.595 3.5674 0.526189 0
M  V30 6751 O 638.699 3.7929 1.61903 0
M  V30 6752 H 638.04 0.663712 0.0195474 0
M  V30 6753 H 640.57 1.966 -0.566519 0
M  V30 6754 H 640.58 4.00311 0.788338 0
M  V30 6755 H 639.255 4.14379 -0.355397 0
M  V30 6756 H 637.832 3.47605 1.35 0
M  V30 6757 N 640.017 0.126909 1.57088 0
M  V30 6758 C 641.265 -0.528123 1.95078 0
M  V30 6759 C 641.586 -1.66708 1.0116 0
M  V30 6760 O 640.856 -1.95777 0.0693527 0
M  V30 6761 H 639.436 -0.198087 0.720257 0
M  V30 6762 H 642.098 0.197703 1.93895 0
M  V30 6763 H 641.194 -0.917507 2.98309 0
M  V30 6764 N 641.495 -1.56914 -0.146875 0
M  V30 6765 C 642.744 -1.82546 -0.857898 0
M  V30 6766 C 643.057 -0.708169 -1.8233 0
M  V30 6767 O 644.263 -0.850093 -2.57848 0
M  V30 6768 C 642.719 -3.23548 -1.57623 0
M  V30 6769 C 642.327 -4.43212 -0.653224 0
M  V30 6770 C 644.071 -3.58453 -2.27402 0
M  V30 6771 C 641.978 -5.75237 -1.37318 0
M  V30 6772 H 640.908 -0.680786 -0.32411 0
M  V30 6773 H 643.559 -1.83166 -0.110639 0
M  V30 6774 H 641.941 -3.17315 -2.36912 0
M  V30 6775 H 643.115 -4.60682 0.104452 0
M  V30 6776 H 641.43 -4.16351 -0.0638336 0
M  V30 6777 H 644.027 -4.54349 -2.81907 0
M  V30 6778 H 644.37 -2.84516 -3.03901 0
M  V30 6779 H 644.903 -3.66347 -1.55032 0
M  V30 6780 H 641.642 -6.52269 -0.650041 0
M  V30 6781 H 641.162 -5.61703 -2.10357 0
M  V30 6782 H 642.841 -6.18039 -1.91406 0
M  V30 6783 N 642.974 0.416227 -1.52004 0
M  V30 6784 C 643.906 1.52552 -1.71058 0
M  V30 6785 C 644.919 1.51693 -0.59102 0
M  V30 6786 O 646.108 1.56087 -0.865973 0
M  V30 6787 C 643.208 2.91455 -1.72937 0
M  V30 6788 C 642.381 3.16584 -3.01816 0
M  V30 6789 C 641.44 4.35322 -2.95603 0
M  V30 6790 O 640.466 4.32947 -3.6952 0
M  V30 6791 N 641.668 5.40049 -2.12903 0
M  V30 6792 H 644.433 1.36604 -2.66757 0
M  V30 6793 H 641.994 0.60544 -1.50153 0
M  V30 6794 H 643.986 3.68944 -1.66321 0
M  V30 6795 H 642.556 3.00895 -0.847418 0
M  V30 6796 H 641.776 2.27203 -3.22137 0
M  V30 6797 H 643.064 3.30213 -3.87088 0
M  V30 6798 H 642.462 5.44823 -1.52265 0
M  V30 6799 H 641.019 6.16308 -2.1215 0
M  V30 6800 N 644.452 1.42507 0.673017 0
M  V30 6801 C 645.863 1.38347 1.25367 0
M  V30 6802 C 646.214 0.0776327 1.96046 0
M  V30 6803 O 645.339 -0.823571 2.00116 0
M  V30 6804 C 645.934 2.506 2.28002 0
M  V30 6805 C 644.493 2.49767 2.81591 0
M  V30 6806 C 643.64 2.293 1.55938 0
M  V30 6807 H 646.591 1.51695 0.466288 0
M  V30 6808 H 646.612 2.20953 3.09774 0
M  V30 6809 H 646.124 3.45627 1.76532 0
M  V30 6810 H 644.225 1.58563 3.37177 0
M  V30 6811 H 644.338 3.46867 3.30485 0
M  V30 6812 H 642.702 1.77594 1.82572 0
M  V30 6813 H 643.485 3.26385 1.06431 0
M  V30 6814 N 645.93 -0.909495 1.28709 0
M  V30 6815 C 647.178 -1.65577 1.15882 0
M  V30 6816 C 647.499 -1.928 -0.292108 0
M  V30 6817 O 646.769 -1.54716 -1.20166 0
M  V30 6818 H 645.349 -0.613714 0.425869 0
M  V30 6819 H 648.011 -1.09108 1.61498 0
M  V30 6820 H 647.107 -2.61634 1.70159 0
M  V30 6821 N 647.408 -1.11026 -1.11852 0
M  V30 6822 C 648.633 -0.879064 -1.87849 0
M  V30 6823 C 649.058 0.565406 -1.79401 0
M  V30 6824 O 648.416 1.39886 -1.15333 0
M  V30 6825 C 648.464 -1.33985 -3.34784 0
M  V30 6826 O 647.568 -0.508803 -4.09249 0
M  V30 6827 H 646.909 -0.316992 -0.583448 0
M  V30 6828 H 649.439 -1.47863 -1.41413 0
M  V30 6829 H 649.449 -1.33248 -3.85628 0
M  V30 6830 H 648.124 -2.39172 -3.40249 0
M  V30 6831 H 646.701 -0.581913 -3.68332 0
M  V30 6832 N 648.886 1.2938 -0.899927 0
M  V30 6833 C 650.163 1.9046 -0.445443 0
M  V30 6834 C 650.543 1.81683 1.07492 0
M  V30 6835 O 649.891 1.24371 1.91688 0
M  V30 6836 C 650.101 3.35529 -0.960279 0
M  V30 6837 C 651.449 4.12556 -1.00412 0
M  V30 6838 O 652.473 3.44434 -0.907965 0
M  V30 6839 O 651.332 5.34294 -1.14857 0
M  V30 6840 H 648.426 0.815253 -0.138893 0
M  V30 6841 H 650.972 1.37844 -0.989808 0
M  V30 6842 H 649.744 3.36074 -2.00425 0
M  V30 6843 H 649.367 3.95624 -0.395939 0
M  V30 6844 N 650.364 0.662433 1.43002 0
M  V30 6845 C 651.613 0.176873 2.00923 0
M  V30 6846 C 651.926 -1.21954 1.52927 0
M  V30 6847 O 653.132 -1.80081 2.03182 0
M  V30 6848 C 651.588 0.265379 3.5892 0
M  V30 6849 C 651.196 1.66507 4.15908 0
M  V30 6850 C 652.94 -0.162103 4.2419 0
M  V30 6851 C 650.847 1.707 5.66229 0
M  V30 6852 H 649.777 0.0623627 0.751417 0
M  V30 6853 H 652.428 0.825813 1.63868 0
M  V30 6854 H 650.81 -0.451235 3.93421 0
M  V30 6855 H 651.984 2.40777 3.92891 0
M  V30 6856 H 650.299 2.03932 3.63044 0
M  V30 6857 H 652.896 -0.150745 5.34487 0
M  V30 6858 H 653.239 -1.19519 3.98774 0
M  V30 6859 H 653.772 0.503075 3.94606 0
M  V30 6860 H 650.511 2.7195 5.96426 0
M  V30 6861 H 650.031 1.00768 5.91275 0
M  V30 6862 H 651.71 1.45487 6.3043 0
M  V30 6863 N 651.842 -1.52309 0.404946 0
M  V30 6864 C 653.067 -2.06666 -0.1743 0
M  V30 6865 C 653.492 -1.27341 -1.38441 0
M  V30 6866 O 652.85 -0.302539 -1.78758 0
M  V30 6867 C 652.898 -3.57014 -0.507262 0
M  V30 6868 O 652.002 -3.80144 -1.59889 0
M  V30 6869 H 651.343 -0.663807 -0.0160273 0
M  V30 6870 H 653.873 -1.96297 0.576937 0
M  V30 6871 H 653.883 -4.00724 -0.767098 0
M  V30 6872 H 652.558 -4.14184 0.377368 0
M  V30 6873 H 651.135 -3.48316 -1.33155 0
M  V30 6874 N 653.32 -0.135238 -1.57019 0
M  V30 6875 C 654.569 0.518694 -1.94917 0
M  V30 6876 C 654.882 1.66783 -1.0219 0
M  V30 6877 O 656.088 2.38561 -1.29619 0
M  V30 6878 C 654.544 0.974123 -3.46466 0
M  V30 6879 C 654.152 -0.147439 -4.47757 0
M  V30 6880 C 655.896 1.59851 -3.93253 0
M  V30 6881 C 653.803 0.325599 -5.90503 0
M  V30 6882 H 652.733 0.19754 -0.727663 0
M  V30 6883 H 655.384 -0.217698 -1.82204 0
M  V30 6884 H 653.766 1.76542 -3.5447 0
M  V30 6885 H 654.94 -0.924122 -4.51438 0
M  V30 6886 H 653.255 -0.679496 -4.10818 0
M  V30 6887 H 655.852 1.96385 -4.9733 0
M  V30 6888 H 656.195 2.48306 -3.3414 0
M  V30 6889 H 656.728 0.872323 -3.88118 0
M  V30 6890 H 653.467 -0.523295 -6.53408 0
M  V30 6891 H 652.987 1.06841 -5.90208 0
M  V30 6892 H 654.666 0.781498 -6.42263 0
M  V30 6893 N 654.798 1.5699 0.138552 0
M  V30 6894 C 656.028 1.87704 0.863184 0
M  V30 6895 C 656.436 0.722411 1.74865 0
M  V30 6896 O 655.779 -0.316636 1.80951 0
M  V30 6897 C 655.841 3.13219 1.76449 0
M  V30 6898 C 655.505 4.44648 1.05532 0
M  V30 6899 C 656.502 5.18318 0.405252 0
M  V30 6900 C 654.187 4.91367 1.04231 0
M  V30 6901 C 656.181 6.36916 -0.24835 0
M  V30 6902 C 653.868 6.09887 0.384904 0
M  V30 6903 C 654.866 6.82508 -0.259292 0
M  V30 6904 O 654.554 7.98775 -0.906258 0
M  V30 6905 H 654.286 0.626255 0.254521 0
M  V30 6906 H 656.84 2.04966 0.133472 0
M  V30 6907 H 655.07 2.91988 2.53535 0
M  V30 6908 H 656.759 3.30111 2.36181 0
M  V30 6909 H 657.525 4.83289 0.407053 0
M  V30 6910 H 653.404 4.34759 1.53315 0
M  V30 6911 H 656.948 6.93538 -0.751755 0
M  V30 6912 H 652.845 6.44376 0.380799 0
M  V30 6913 H 653.613 8.14494 -0.80877 0
M  V30 6914 N 656.276 -0.40816 1.52223 0
M  V30 6915 C 657.506 -1.17501 1.69932 0
M  V30 6916 C 657.914 -1.84729 0.408874 0
M  V30 6917 O 657.257 -1.7274 -0.625025 0
M  V30 6918 C 657.319 -2.27994 2.77955 0
M  V30 6919 C 656.983 -1.80894 4.19674 0
M  V30 6920 C 657.98 -1.29618 5.03483 0
M  V30 6921 C 655.665 -1.87698 4.65913 0
M  V30 6922 C 657.659 -0.857695 6.31603 0
M  V30 6923 C 655.346 -1.43461 5.94022 0
M  V30 6924 C 656.344 -0.925822 6.76696 0
M  V30 6925 O 656.032 -0.489841 8.02406 0
M  V30 6926 H 655.764 -0.359065 0.572755 0
M  V30 6927 H 658.318 -0.486188 1.99563 0
M  V30 6928 H 656.548 -3.00243 2.43703 0
M  V30 6929 H 658.237 -2.89749 2.84254 0
M  V30 6930 H 659.003 -1.23733 4.68951 0
M  V30 6931 H 654.882 -2.26244 4.01665 0
M  V30 6932 H 658.426 -0.459879 6.96083 0
M  V30 6933 H 654.323 -1.49026 6.28062 0
M  V30 6934 H 655.091 -0.613062 8.16201 0
M  V30 6935 N 657.755 -1.42862 -0.66545 0
M  V30 6936 C 659.032 -1.3431 -1.42197 0
M  V30 6937 C 659.412 0.0150265 -2.11095 0
M  V30 6938 O 658.76 1.03101 -2.03918 0
M  V30 6939 C 658.97 -2.51783 -2.41674 0
M  V30 6940 C 660.318 -2.94321 -3.0604 0
M  V30 6941 O 661.342 -2.51741 -2.52001 0
M  V30 6942 O 660.201 -3.68047 -4.03985 0
M  V30 6943 H 657.295 -0.530159 -0.634713 0
M  V30 6944 H 659.841 -1.54888 -0.693386 0
M  V30 6945 H 658.613 -3.42282 -1.89627 0
M  V30 6946 H 658.236 -2.33241 -3.22001 0
M  V30 6947 N 659.233 0.902656 -1.29189 0
M  V30 6948 C 660.644 1.46809 -1.15343 0
M  V30 6949 C 660.995 1.94568 0.252517 0
M  V30 6950 O 660.12 1.83454 1.14777 0
M  V30 6951 C 660.715 2.66829 -2.08776 0
M  V30 6952 C 659.274 3.19518 -1.98961 0
M  V30 6953 C 658.421 1.92212 -1.99874 0
M  V30 6954 H 661.372 0.714282 -1.41717 0
M  V30 6955 H 661.393 3.42465 -1.65826 0
M  V30 6956 H 660.905 2.32039 -3.11094 0
M  V30 6957 H 659.006 3.59008 -0.99721 0
M  V30 6958 H 659.119 3.84016 -2.86477 0
M  V30 6959 H 657.483 2.0979 -1.44431 0
M  V30 6960 H 658.266 1.59702 -3.03891 0
M  V30 6961 N 660.711 1.11618 1.11262 0
M  V30 6962 C 661.644 0.719995 2.16544 0
M  V30 6963 C 662.622 -0.28471 1.60088 0
M  V30 6964 O 663.806 -0.180693 1.87632 0
M  V30 6965 C 660.933 0.0643302 3.38639 0
M  V30 6966 C 659.979 1.03448 4.13764 0
M  V30 6967 S 660.812 2.55789 4.70459 0
M  V30 6968 C 661.968 1.91529 5.95875 0
M  V30 6969 H 662.201 1.61181 2.49816 0
M  V30 6970 H 659.734 0.934401 1.22916 0
M  V30 6971 H 661.692 -0.307609 4.09346 0
M  V30 6972 H 660.353 -0.804471 3.03623 0
M  V30 6973 H 659.546 0.523188 5.01277 0
M  V30 6974 H 659.148 1.34893 3.48826 0
M  V30 6975 H 661.44 1.25286 6.65815 0
M  V30 6976 H 662.383 2.77047 6.51652 0
M  V30 6977 H 662.791 1.37468 5.47506 0
M  V30 6978 N 662.189 -1.289 0.906776 0
M  V30 6979 C 663.438 -1.9455 0.532262 0
M  V30 6980 C 663.751 -1.72219 -0.927353 0
M  V30 6981 O 664.957 -2.32033 -1.40971 0
M  V30 6982 C 663.413 -3.48438 0.901041 0
M  V30 6983 C 663.021 -3.79558 2.37991 0
M  V30 6984 C 664.765 -4.20284 0.596777 0
M  V30 6985 C 662.672 -5.26723 2.68918 0
M  V30 6986 H 661.602 -0.728259 0.195333 0
M  V30 6987 H 664.253 -1.46519 1.10474 0
M  V30 6988 H 662.635 -3.95162 0.257419 0
M  V30 6989 H 663.809 -3.43668 3.06967 0
M  V30 6990 H 662.124 -3.20868 2.65391 0
M  V30 6991 H 664.721 -5.28612 0.8046 0
M  V30 6992 H 665.064 -4.13694 -0.465072 0
M  V30 6993 H 665.597 -3.79315 1.19855 0
M  V30 6994 H 662.336 -5.38384 3.73928 0
M  V30 6995 H 661.856 -5.63836 2.04571 0
M  V30 6996 H 663.535 -5.94391 2.55555 0
M  V30 6997 N 663.667 -0.670007 -1.42649 0
M  V30 6998 C 664.892 -0.196955 -2.06463 0
M  V30 6999 C 665.317 1.1352 -1.49983 0
M  V30 7000 O 664.675 1.705 -0.616397 0
M  V30 7001 C 664.723 -0.137381 -3.60338 0
M  V30 7002 O 663.827 0.895523 -4.02559 0
M  V30 7003 H 663.168 -0.102579 -0.656029 0
M  V30 7004 H 665.698 -0.917669 -1.82866 0
M  V30 7005 H 665.708 0.0403625 -4.0798 0
M  V30 7006 H 664.383 -1.10977 -4.0082 0
M  V30 7007 H 662.96 0.689209 -3.66476 0
M  V30 7008 N 665.145 1.52092 -0.413018 0
M  V30 7009 C 666.092 2.27119 0.410558 0
M  V30 7010 C 667.062 1.29692 1.03774 0
M  V30 7011 O 668.247 1.58561 1.06128 0
M  V30 7012 C 665.387 3.09863 1.51918 0
M  V30 7013 C 664.5 4.22252 0.912528 0
M  V30 7014 C 663.635 4.92348 1.99417 0
M  V30 7015 C 662.674 5.96694 1.36466 0
M  V30 7016 N 661.811 6.60292 2.38661 0
M  V30 7017 H 666.651 2.97067 -0.235661 0
M  V30 7018 H 664.188 1.46542 -0.128055 0
M  V30 7019 H 666.146 3.56144 2.17295 0
M  V30 7020 H 664.776 2.42078 2.13537 0
M  V30 7021 H 663.828 3.80113 0.147697 0
M  V30 7022 H 665.14 4.9709 0.412717 0
M  V30 7023 H 664.294 5.42054 2.72512 0
M  V30 7024 H 663.033 4.17087 2.52764 0
M  V30 7025 H 662.038 5.46304 0.61906 0
M  V30 7026 H 663.263 6.73899 0.838827 0
M  V30 7027 H 661.209 5.87858 2.91134 0
M  V30 7028 H 661.126 7.30816 1.93503 0
M  V30 7029 H 662.394 7.14635 3.11314 0
M  V30 7030 N 666.623 0.143563 1.56945 0
M  V30 7031 C 667.553 -0.7936 2.196 0
M  V30 7032 C 668.534 -1.25955 1.14321 0
M  V30 7033 O 669.719 -1.31773 1.42651 0
M  V30 7034 C 666.849 -2.03424 2.81489 0
M  V30 7035 C 665.803 -1.70519 3.92565 0
M  V30 7036 C 665.129 -3.01817 4.41373 0
M  V30 7037 C 666.429 -0.95449 5.13504 0
M  V30 7038 H 668.123 -0.271423 2.98167 0
M  V30 7039 H 665.669 -0.12911 1.4342 0
M  V30 7040 H 667.622 -2.69463 3.23987 0
M  V30 7041 H 666.346 -2.58008 2.00248 0
M  V30 7042 H 665.005 -1.06859 3.5068 0
M  V30 7043 H 664.653 -3.54386 3.56959 0
M  V30 7044 H 664.353 -2.80565 5.16292 0
M  V30 7045 H 665.877 -3.68934 4.86539 0
M  V30 7046 H 667.291 -1.5169 5.52868 0
M  V30 7047 H 665.688 -0.842035 5.94163 0
M  V30 7048 H 666.758 0.0544033 4.84869 0
M  V30 7049 N 668.101 -1.57061 -0.130224 0
M  V30 7050 C 669.35 -1.83446 -0.838488 0
M  V30 7051 C 669.663 -0.727468 -1.81569 0
M  V30 7052 O 670.869 -0.877394 -2.56932 0
M  V30 7053 C 669.325 -3.25201 -1.54182 0
M  V30 7054 C 668.933 -4.4388 -0.606178 0
M  V30 7055 C 670.677 -3.60844 -2.23588 0
M  V30 7056 C 668.584 -5.76661 -1.31209 0
M  V30 7057 H 667.514 -0.684185 -0.316871 0
M  V30 7058 H 670.165 -1.83273 -0.0912059 0
M  V30 7059 H 668.547 -3.1981 -2.33533 0
M  V30 7060 H 669.721 -4.60545 0.153308 0
M  V30 7061 H 668.036 -4.16395 -0.0196705 0
M  V30 7062 H 670.633 -4.57313 -2.77072 0
M  V30 7063 H 670.976 -2.87724 -3.00867 0
M  V30 7064 H 671.509 -3.67971 -1.51137 0
M  V30 7065 H 668.248 -6.52922 -0.580823 0
M  V30 7066 H 667.768 -5.63902 -2.04387 0
M  V30 7067 H 669.447 -6.20035 -1.8484 0
M  V30 7068 N 669.579 0.400081 -1.52437 0
M  V30 7069 C 670.807 1.16768 -1.70801 0
M  V30 7070 C 671.222 1.84036 -0.421462 0
M  V30 7071 O 670.579 1.72242 0.603228 0
M  V30 7072 C 670.63 2.22403 -2.8499 0
M  V30 7073 O 670.351 1.57879 -4.08663 0
M  V30 7074 C 671.852 3.11974 -3.1494 0
M  V30 7075 H 669.072 0.350533 -0.57216 0
M  V30 7076 H 671.616 0.469534 -1.99037 0
M  V30 7077 H 669.771 2.87871 -2.59247 0
M  V30 7078 H 670.185 2.27982 -4.7236 0
M  V30 7079 H 671.659 3.82148 -3.9833 0
M  V30 7080 H 672.136 3.74858 -2.28863 0
M  V30 7081 H 672.742 2.52165 -3.42481 0
M  V30 7082 N 671.057 1.43213 0.657864 0
M  V30 7083 C 672.287 1.478 1.44356 0
M  V30 7084 C 672.695 0.0930206 1.88971 0
M  V30 7085 O 672.038 -0.906089 1.59799 0
M  V30 7086 C 672.1 2.35745 2.71412 0
M  V30 7087 C 671.764 3.83359 2.48767 0
M  V30 7088 C 672.761 4.74585 2.12285 0
M  V30 7089 C 670.446 4.27799 2.63235 0
M  V30 7090 C 672.44 6.08247 1.90562 0
M  V30 7091 C 670.127 5.61516 2.41128 0
M  V30 7092 C 671.125 6.51557 2.04847 0
M  V30 7093 O 670.813 7.82802 1.82967 0
M  V30 7094 H 670.545 0.504363 0.450104 0
M  V30 7095 H 673.099 1.88572 0.814241 0
M  V30 7096 H 671.329 1.89852 3.36887 0
M  V30 7097 H 673.018 2.31589 3.33348 0
M  V30 7098 H 673.784 4.41531 2.00687 0
M  V30 7099 H 669.663 3.57993 2.90451 0
M  V30 7100 H 673.207 6.78489 1.62168 0
M  V30 7101 H 669.104 5.94139 2.52327 0
M  V30 7102 H 669.872 7.94332 1.97429 0
M  V30 7103 N 672.536 -0.895792 1.29666 0
M  V30 7104 C 673.784 -1.64339 1.17631 0
M  V30 7105 C 674.105 -1.93099 -0.271643 0
M  V30 7106 O 673.375 -1.55981 -1.18518 0
M  V30 7107 H 671.955 -0.609162 0.432354 0
M  V30 7108 H 674.617 -1.07389 1.62646 0
M  V30 7109 H 673.713 -2.59815 1.72924 0
M  V30 7110 N 674.014 -1.12206 -1.10668 0
M  V30 7111 C 675.239 -0.898938 -1.86906 0
M  V30 7112 C 675.664 0.546346 -1.79991 0
M  V30 7113 O 675.022 1.38655 -1.1681 0
M  V30 7114 C 675.07 -1.37529 -3.33344 0
M  V30 7115 O 674.174 -0.55218 -4.08687 0
M  V30 7116 H 673.515 -0.323163 -0.580053 0
M  V30 7117 H 676.045 -1.49355 -1.39837 0
M  V30 7118 H 676.055 -1.3733 -3.84193 0
M  V30 7119 H 674.73 -2.42767 -3.37693 0
M  V30 7120 H 673.307 -0.620947 -3.67694 0
M  V30 7121 N 675.492 1.28418 -0.913599 0
M  V30 7122 C 676.769 1.89977 -0.465619 0
M  V30 7123 C 677.149 1.82813 1.05559 0
M  V30 7124 O 676.497 1.26397 1.90358 0
M  V30 7125 C 676.707 3.34492 -0.995813 0
M  V30 7126 C 678.055 4.11468 -1.04782 0
M  V30 7127 O 679.079 3.43451 -0.944445 0
M  V30 7128 O 677.938 5.33046 -1.20518 0
M  V30 7129 H 675.032 0.813734 -0.147532 0
M  V30 7130 H 677.578 1.36786 -1.00437 0
M  V30 7131 H 676.35 3.33929 -2.03978 0
M  V30 7132 H 675.973 3.95181 -0.437878 0
M  V30 7133 N 676.97 0.677563 1.42291 0
M  V30 7134 C 678.386 0.347376 1.55774 0
M  V30 7135 C 678.586 -1.14703 1.65667 0
M  V30 7136 O 677.642 -1.93252 1.62512 0
M  V30 7137 C 678.955 1.08011 2.80631 0
M  V30 7138 C 680.503 1.06271 2.94407 0
M  V30 7139 C 680.978 1.77683 4.22129 0
M  V30 7140 N 682.469 1.74564 4.29047 0
M  V30 7141 C 683.204 2.26673 5.26694 0
M  V30 7142 N 682.7 2.87176 6.30477 0
M  V30 7143 N 684.493 2.17032 5.18511 0
M  V30 7144 H 676.644 1.64703 1.34114 0
M  V30 7145 H 678.907 0.694038 0.645768 0
M  V30 7146 H 678.613 2.13518 2.79469 0
M  V30 7147 H 678.487 0.647115 3.71608 0
M  V30 7148 H 680.874 0.0159658 2.95096 0
M  V30 7149 H 680.955 1.53461 2.04654 0
M  V30 7150 H 680.599 2.82327 4.22201 0
M  V30 7151 H 680.529 1.2794 5.10822 0
M  V30 7152 H 683.02 1.30436 3.54676 0
M  V30 7153 H 683.333 3.24551 7.01346 0
M  V30 7154 H 681.678 2.91247 6.31031 0
M  V30 7155 H 684.869 1.69451 4.36353 0
M  V30 7156 H 685.042 2.57948 5.94446 0
M  V30 7157 N 678.448 -1.51871 0.421078 0
M  V30 7158 C 679.676 -2.06356 -0.14994 0
M  V30 7159 C 680.091 -1.29006 -1.37851 0
M  V30 7160 O 679.448 -0.345139 -1.79207 0
M  V30 7161 C 679.499 -3.58185 -0.488454 0
M  V30 7162 O 679.22 -4.32611 0.691341 0
M  V30 7163 C 680.721 -4.29129 -1.11191 0
M  V30 7164 H 677.941 -0.67083 -0.0151186 0
M  V30 7165 H 680.485 -1.95638 0.595476 0
M  V30 7166 H 678.64 -3.68871 -1.18376 0
M  V30 7167 H 679.054 -5.22927 0.405906 0
M  V30 7168 H 680.528 -5.36501 -1.29889 0
M  V30 7169 H 681.005 -3.86371 -2.0884 0
M  V30 7170 H 681.611 -4.22843 -0.456458 0
M  V30 7171 N 679.926 -0.151884 -1.56866 0
M  V30 7172 C 680.836 0.798876 -2.20579 0
M  V30 7173 C 681.852 1.268 -1.19154 0
M  V30 7174 O 683.028 1.32418 -1.51748 0
M  V30 7175 C 680.093 2.01861 -2.81874 0
M  V30 7176 C 679.154 1.59825 -3.9844 0
M  V30 7177 C 678.387 2.75984 -4.56802 0
M  V30 7178 O 678.61 3.92331 -4.14044 0
M  V30 7179 O 677.544 2.51175 -5.46987 0
M  V30 7180 H 681.37 0.2865 -3.02346 0
M  V30 7181 H 678.955 0.0753806 -1.4921 0
M  V30 7182 H 680.837 2.73235 -3.20813 0
M  V30 7183 H 679.512 2.52042 -2.03117 0
M  V30 7184 H 678.419 0.854601 -3.64208 0
M  V30 7185 H 679.752 1.14355 -4.78731 0
M  V30 7186 N 681.404 1.57128 0.121893 0
M  V30 7187 C 682.367 1.99197 1.13372 0
M  V30 7188 C 683.367 0.881728 1.3447 0
M  V30 7189 O 684.557 1.14783 1.31036 0
M  V30 7190 C 681.689 2.32963 2.4888 0
M  V30 7191 H 682.882 2.89788 0.772204 0
M  V30 7192 H 680.435 1.51952 0.366093 0
M  V30 7193 H 681.17 1.45243 2.89957 0
M  V30 7194 H 680.955 3.13934 2.34921 0
M  V30 7195 H 682.445 2.66261 3.21706 0
M  V30 7196 N 682.882 -0.391992 1.52647 0
M  V30 7197 C 683.812 -1.48517 1.8018 0
M  V30 7198 C 684.793 -1.57039 0.653667 0
M  V30 7199 O 685.978 -1.72036 0.900962 0
M  V30 7200 C 683.108 -2.86161 1.96797 0
M  V30 7201 C 682.062 -2.92481 3.12472 0
M  V30 7202 C 681.388 -4.32546 3.14338 0
M  V30 7203 C 682.688 -2.624 4.51601 0
M  V30 7204 H 684.382 -1.25726 2.71723 0
M  V30 7205 H 681.928 -0.603387 1.30749 0
M  V30 7206 H 683.881 -3.62639 2.14641 0
M  V30 7207 H 682.605 -3.10283 1.01941 0
M  V30 7208 H 681.264 -2.18451 2.94406 0
M  V30 7209 H 680.912 -4.53703 2.1717 0
M  V30 7210 H 680.612 -4.37695 3.92042 0
M  V30 7211 H 682.136 -5.10934 3.34333 0
M  V30 7212 H 683.55 -3.28596 4.69785 0
M  V30 7213 H 681.947 -2.78903 5.3135 0
M  V30 7214 H 683.017 -1.57754 4.58521 0
M  V30 7215 N 684.36 -1.4356 -0.65026 0
M  V30 7216 C 685.307 -1.48948 -1.76304 0
M  V30 7217 C 686.277 -0.338919 -1.62605 0
M  V30 7218 O 687.462 -0.54649 -1.82806 0
M  V30 7219 C 684.602 -1.42131 -3.14472 0
M  V30 7220 C 683.715 -2.67415 -3.39284 0
M  V30 7221 C 682.85 -2.52565 -4.67316 0
M  V30 7222 C 681.889 -3.73103 -4.85243 0
M  V30 7223 N 681.026 -3.57046 -6.04535 0
M  V30 7224 H 685.866 -2.44032 -1.71034 0
M  V30 7225 H 683.403 -1.21131 -0.834601 0
M  V30 7226 H 685.361 -1.36172 -3.94351 0
M  V30 7227 H 683.991 -0.506273 -3.18805 0
M  V30 7228 H 683.043 -2.8364 -2.53481 0
M  V30 7229 H 684.355 -3.56943 -3.48415 0
M  V30 7230 H 683.509 -2.44331 -5.55326 0
M  V30 7231 H 682.248 -1.60566 -4.60511 0
M  V30 7232 H 681.253 -3.81743 -3.95667 0
M  V30 7233 H 682.478 -4.66115 -4.93876 0
M  V30 7234 H 680.424 -2.67783 -5.98856 0
M  V30 7235 H 680.341 -4.40178 -6.14638 0
M  V30 7236 H 681.609 -3.52669 -6.95158 0
M  V30 7237 N 685.838 0.888903 -1.30139 0
M  V30 7238 C 687.254 1.17153 -1.08385 0
M  V30 7239 C 687.454 2.0088 0.157925 0
M  V30 7240 O 686.51 2.37668 0.852652 0
M  V30 7241 C 687.823 1.882 -2.34523 0
M  V30 7242 C 689.371 2.00981 -2.39949 0
M  V30 7243 C 689.846 2.75441 -3.65918 0
M  V30 7244 N 691.337 2.82989 -3.66704 0
M  V30 7245 C 692.072 3.41167 -4.60861 0
M  V30 7246 N 691.568 4.00425 -5.6536 0
M  V30 7247 N 693.361 3.38944 -4.48412 0
M  V30 7248 H 685.512 0.33053 -2.09812 0
M  V30 7249 H 687.775 0.208964 -0.924683 0
M  V30 7250 H 687.481 1.34119 -3.25123 0
M  V30 7251 H 687.355 2.88609 -2.42868 0
M  V30 7252 H 689.742 2.54234 -1.4983 0
M  V30 7253 H 689.823 0.996725 -2.35582 0
M  V30 7254 H 689.467 2.22861 -4.56394 0
M  V30 7255 H 689.397 3.77118 -3.67546 0
M  V30 7256 H 691.888 2.40912 -2.91153 0
M  V30 7257 H 692.201 4.42871 -6.33313 0
M  V30 7258 H 690.546 3.98856 -5.69157 0
M  V30 7259 H 693.737 2.91875 -3.6596 0
M  V30 7260 H 693.91 3.83989 -5.21974 0
M  V30 7261 N 687.317 1.12792 1.10072 0
M  V30 7262 C 688.25 0.742921 2.15768 0
M  V30 7263 C 689.228 -0.267714 1.60381 0
M  V30 7264 O 690.412 -0.160782 1.87813 0
M  V30 7265 C 687.539 0.100244 3.38552 0
M  V30 7266 C 686.585 1.07831 4.12644 0
M  V30 7267 S 687.418 2.60765 4.6772 0
M  V30 7268 C 688.574 1.97838 5.9381 0
M  V30 7269 H 688.807 1.63822 2.48092 0
M  V30 7270 H 686.34 0.947385 1.21918 0
M  V30 7271 H 688.298 -0.264175 4.09649 0
M  V30 7272 H 686.959 -0.772223 3.04459 0
M  V30 7273 H 686.152 0.576325 5.00694 0
M  V30 7274 H 685.754 1.38586 3.47376 0
M  V30 7275 H 688.046 1.32341 6.64449 0
M  V30 7276 H 688.989 2.83943 6.48677 0
M  V30 7277 H 689.397 1.43267 5.46017 0
M  V30 7278 N 688.795 -1.27931 0.920396 0
M  V30 7279 C 689.758 -2.25345 0.41858 0
M  V30 7280 C 690.758 -1.54116 -0.458798 0
M  V30 7281 O 691.948 -1.72235 -0.260912 0
M  V30 7282 C 689.08 -3.38556 -0.399104 0
M  V30 7283 H 690.273 -2.71251 1.27918 0
M  V30 7284 H 687.826 -1.39728 0.700406 0
M  V30 7285 H 688.561 -2.98021 -1.27882 0
M  V30 7286 H 688.346 -3.91426 0.229863 0
M  V30 7287 H 689.836 -4.10976 -0.740817 0
M  V30 7288 N 690.273 -0.685099 -1.4193 0
M  V30 7289 C 691.55 -0.140152 -1.95097 0
M  V30 7290 C 691.93 1.34745 -1.62502 0
M  V30 7291 O 691.278 2.08872 -0.926534 0
M  V30 7292 C 691.488 -0.420268 -3.4646 0
M  V30 7293 C 692.836 -0.342338 -4.23218 0
M  V30 7294 O 693.86 -0.354592 -3.54431 0
M  V30 7295 O 692.719 -0.293404 -5.45712 0
M  V30 7296 H 689.813 -0.00885998 -0.826953 0
M  V30 7297 H 692.359 -0.760539 -1.51703 0
M  V30 7298 H 691.131 -1.45037 -3.63428 0
M  V30 7299 H 690.754 0.231616 -3.96925 0
M  V30 7300 N 691.751 1.51645 -0.429126 0
M  V30 7301 C 692.714 2.26116 0.374726 0
M  V30 7302 C 693.714 1.29242 0.956714 0
M  V30 7303 O 694.904 1.53022 0.832452 0
M  V30 7304 C 692.036 3.04669 1.52937 0
M  V30 7305 H 693.229 2.9861 -0.277818 0
M  V30 7306 H 690.782 1.55236 -0.182097 0
M  V30 7307 H 691.517 2.36571 2.21821 0
M  V30 7308 H 691.302 3.75814 1.11833 0
M  V30 7309 H 692.792 3.61102 2.09751 0
M  V30 7310 N 693.229 0.160201 1.56784 0
M  V30 7311 C 694.159 -0.770264 2.2043 0
M  V30 7312 C 695.14 -1.24736 1.15651 0
M  V30 7313 O 696.325 -1.30253 1.44041 0
M  V30 7314 C 693.455 -2.00427 2.83631 0
M  V30 7315 C 692.409 -1.66345 3.94352 0
M  V30 7316 C 691.735 -2.97119 4.4455 0
M  V30 7317 C 693.035 -0.899972 5.14488 0
M  V30 7318 H 694.729 -0.239783 2.98438 0
M  V30 7319 H 692.275 -0.113891 1.43549 0
M  V30 7320 H 694.228 -2.66012 3.26827 0
M  V30 7321 H 692.952 -2.5587 2.02973 0
M  V30 7322 H 691.611 -1.03133 3.51794 0
M  V30 7323 H 691.259 -3.5058 3.60698 0
M  V30 7324 H 690.959 -2.75073 5.19238 0
M  V30 7325 H 692.483 -3.63753 4.90425 0
M  V30 7326 H 693.897 -1.45818 5.54446 0
M  V30 7327 H 692.294 -0.778968 5.95023 0
M  V30 7328 H 693.364 0.105827 4.84785 0
M  V30 7329 N 694.707 -1.5719 -0.113559 0
M  V30 7330 C 695.984 -1.76117 -0.850999 0
M  V30 7331 C 696.364 -0.737085 -1.97814 0
M  V30 7332 O 695.712 0.237942 -2.27258 0
M  V30 7333 C 695.922 -3.21298 -1.36266 0
M  V30 7334 C 697.27 -3.83955 -1.81283 0
M  V30 7335 O 698.294 -3.24934 -1.45933 0
M  V30 7336 O 697.153 -4.87707 -2.46585 0
M  V30 7337 H 694.247 -0.721308 -0.404529 0
M  V30 7338 H 696.793 -1.69423 -0.0968756 0
M  V30 7339 H 695.565 -3.87355 -0.554235 0
M  V30 7340 H 695.188 -3.32552 -2.17933 0
M  V30 7341 N 696.185 0.383891 -1.52853 0
M  V30 7342 C 697.133 1.48965 -1.7864 0
M  V30 7343 C 698.127 1.56242 -0.654577 0
M  V30 7344 O 699.333 1.59347 -0.83716 0
M  V30 7345 H 695.708 0.495892 -0.565328 0
M  V30 7346 H 697.679 1.24411 -2.71228 0
M  V30 7347 C 696.428 2.86036 -1.97683 0
M  V30 7348 H 695.751 2.81188 -2.84206 0
M  V30 7349 H 697.191 3.62632 -2.19713 0
M  V30 7350 C 695.65 3.28428 -0.750776 0
M  V30 7351 O 696.18 4.0164 0.0693491 0
M  V30 7352 N 694.386 2.84765 -0.579427 0
M  V30 7353 H 693.933 2.25353 -1.24795 0
M  V30 7354 H 693.891 3.13486 0.239544 0
M  V30 7355 N 697.663 1.43903 0.642637 0
M  V30 7356 C 698.893 1.49323 1.4278 0
M  V30 7357 C 699.301 0.113058 1.88862 0
M  V30 7358 O 698.644 -0.889089 1.60751 0
M  V30 7359 C 698.706 2.3861 2.68897 0
M  V30 7360 C 698.37 3.85976 2.44687 0
M  V30 7361 C 699.367 4.7681 2.07239 0
M  V30 7362 C 697.052 4.30567 2.58683 0
M  V30 7363 C 699.046 6.10234 1.841 0
M  V30 7364 C 696.733 5.64042 2.35159 0
M  V30 7365 C 697.731 6.53693 1.97925 0
M  V30 7366 O 697.419 7.84698 1.74654 0
M  V30 7367 H 697.151 0.509109 0.444729 0
M  V30 7368 H 699.705 1.89425 0.794195 0
M  V30 7369 H 697.935 1.93415 3.34855 0
M  V30 7370 H 699.624 2.35112 3.30873 0
M  V30 7371 H 700.39 4.43635 1.95993 0
M  V30 7372 H 696.269 3.61054 2.86637 0
M  V30 7373 H 699.813 6.80171 1.54962 0
M  V30 7374 H 695.71 5.96782 2.46011 0
M  V30 7375 H 696.478 7.96382 1.88993 0
M  V30 7376 N 699.141 -0.881989 1.30609 0
M  V30 7377 C 700.387 -1.63647 1.19781 0
M  V30 7378 C 700.72 -1.92632 -0.246265 0
M  V30 7379 O 699.995 -1.54938 -1.17577 0
M  V30 7380 C 700.278 -2.97437 2.02985 0
M  V30 7381 C 700.131 -2.75406 3.55628 0
M  V30 7382 C 701.45 -3.98397 1.86997 0
M  V30 7383 H 698.569 -0.593841 0.436488 0
M  V30 7384 H 701.211 -1.02041 1.60273 0
M  V30 7385 H 699.361 -3.50018 1.68581 0
M  V30 7386 H 701.033 -2.2959 4.00107 0
M  V30 7387 H 699.276 -2.09856 3.79662 0
M  V30 7388 H 699.947 -3.70552 4.09139 0
M  V30 7389 H 702.423 -3.54986 2.17081 0
M  V30 7390 H 701.299 -4.89916 2.47536 0
M  V30 7391 H 701.56 -4.3424 0.829943 0
M  V30 7392 N 700.619 -1.13374 -1.09472 0
M  V30 7393 C 701.868 -0.889844 -1.8101 0
M  V30 7394 C 702.181 0.585686 -1.86625 0
M  V30 7395 O 703.387 0.946497 -2.54467 0
M  V30 7396 C 701.843 -1.54241 -3.25174 0
M  V30 7397 C 701.451 -3.05343 -3.27826 0
M  V30 7398 C 703.195 -1.37919 -4.0147 0
M  V30 7399 C 701.102 -3.63486 -4.6651 0
M  V30 7400 H 700.032 -0.329256 -0.678311 0
M  V30 7401 H 702.683 -1.36139 -1.23038 0
M  V30 7402 H 701.065 -0.998525 -3.83204 0
M  V30 7403 H 702.239 -3.66307 -2.79563 0
M  V30 7404 H 700.554 -3.21175 -2.65019 0
M  V30 7405 H 703.151 -1.78771 -5.03929 0
M  V30 7406 H 703.494 -0.323987 -4.15037 0
M  V30 7407 H 704.027 -1.89284 -3.49881 0
M  V30 7408 H 700.766 -4.68811 -4.58145 0
M  V30 7409 H 700.286 -3.073 -5.15099 0
M  V30 7410 H 701.965 -3.63134 -5.35484 0
M  V30 7411 N 702.098 1.27442 -0.927168 0
M  V30 7412 C 703.514 1.46754 -0.627329 0
M  V30 7413 C 703.714 1.83902 0.823549 0
M  V30 7414 O 702.77 1.95215 1.60148 0
M  V30 7415 C 704.083 2.56045 -1.57674 0
M  V30 7416 C 705.631 2.69906 -1.58491 0
M  V30 7417 C 706.106 3.82355 -2.52128 0
M  V30 7418 N 707.597 3.89728 -2.50332 0
M  V30 7419 C 708.332 4.76155 -3.19475 0
M  V30 7420 N 707.828 5.67073 -3.97995 0
M  V30 7421 N 709.621 4.6988 -3.08496 0
M  V30 7422 H 701.772 1.01613 -1.86517 0
M  V30 7423 H 704.035 0.507443 -0.800753 0
M  V30 7424 H 703.741 2.35542 -2.61176 0
M  V30 7425 H 703.615 3.53423 -1.31804 0
M  V30 7426 H 706.002 2.89792 -0.557208 0
M  V30 7427 H 706.083 1.73018 -1.8841 0
M  V30 7428 H 705.727 3.63224 -3.55008 0
M  V30 7429 H 705.657 4.7867 -2.19505 0
M  V30 7430 H 708.148 3.24717 -1.93306 0
M  V30 7431 H 708.461 6.2988 -4.4774 0
M  V30 7432 H 706.806 5.6687 -4.02098 0
M  V30 7433 H 709.997 3.97848 -2.46646 0
M  V30 7434 H 710.17 5.37017 -3.62652 0
M  V30 7435 N 703.576 0.692616 1.41565 0
M  V30 7436 C 704.824 0.221896 2.00878 0
M  V30 7437 C 705.145 -1.18164 1.5512 0
M  V30 7438 O 704.415 -1.79679 0.78054 0
M  V30 7439 H 702.995 0.0790463 0.742806 0
M  V30 7440 H 705.657 0.893115 1.73232 0
M  V30 7441 H 704.753 0.23702 3.11199 0
M  V30 7442 N 705.054 -1.51416 0.437162 0
M  V30 7443 C 706.3 -2.02386 -0.129555 0
M  V30 7444 C 706.633 -1.32071 -1.42376 0
M  V30 7445 O 705.908 -0.43559 -1.8956 0
M  V30 7446 C 706.191 -3.5841 -0.348487 0
M  V30 7447 C 706.044 -4.39341 0.964352 0
M  V30 7448 C 707.363 -4.25654 -1.11834 0
M  V30 7449 H 704.482 -0.735587 -0.0456109 0
M  V30 7450 H 707.124 -1.81055 0.576124 0
M  V30 7451 H 705.274 -3.76716 -0.949592 0
M  V30 7452 H 706.946 -4.32685 1.59942 0
M  V30 7453 H 705.189 -4.04432 1.56898 0
M  V30 7454 H 705.86 -5.4667 0.765212 0
M  V30 7455 H 708.336 -4.11617 -0.609165 0
M  V30 7456 H 707.212 -5.34704 -1.24029 0
M  V30 7457 H 707.473 -3.86502 -2.14636 0
M  V30 7458 N 706.532 -0.168513 -1.56696 0
M  V30 7459 C 707.76 0.483503 -2.01171 0
M  V30 7460 C 708.175 1.56994 -1.04872 0
M  V30 7461 O 707.532 1.82434 -0.0491337 0
M  V30 7462 C 707.583 1.0644 -3.45475 0
M  V30 7463 O 707.304 0.0213375 -4.38095 0
M  V30 7464 C 708.805 1.79493 -4.05336 0
M  V30 7465 H 706.025 0.124002 -0.659443 0
M  V30 7466 H 708.569 -0.269419 -2.02717 0
M  V30 7467 H 706.724 1.76784 -3.44712 0
M  V30 7468 H 707.138 0.449837 -5.22567 0
M  V30 7469 H 708.612 2.15401 -5.08238 0
M  V30 7470 H 709.089 2.68889 -3.47269 0
M  V30 7471 H 709.695 1.13798 -4.09793 0
M  V30 7472 N 708.01 1.57248 0.105221 0
M  V30 7473 C 708.96 1.9777 1.1345 0
M  V30 7474 C 709.944 0.854654 1.36325 0
M  V30 7475 O 711.136 1.11844 1.37186 0
M  V30 7476 C 708.265 2.39717 2.45745 0
M  V30 7477 C 707.351 3.58686 2.26286 0
M  V30 7478 N 707.742 4.73942 1.76671 0
M  V30 7479 C 706.04 3.64586 2.56891 0
M  V30 7480 C 706.741 5.55923 1.71245 0
M  V30 7481 N 705.717 4.98803 2.16093 0
M  V30 7482 H 709.519 2.84336 0.743664 0
M  V30 7483 H 707.033 1.59359 0.312787 0
M  V30 7484 H 709.03 2.66971 3.20206 0
M  V30 7485 H 707.69 1.54523 2.85574 0
M  V30 7486 H 708.701 4.9689 1.46016 0
M  V30 7487 H 705.378 2.90031 3.00314 0
M  V30 7488 H 706.768 6.58398 1.34022 0
M  V30 7489 N 709.488 -0.375779 1.53054 0
M  V30 7490 C 710.436 -1.48015 1.79428 0
M  V30 7491 C 711.43 -1.55893 0.662854 0
M  V30 7492 O 712.636 -1.58901 0.845599 0
M  V30 7493 H 709.011 -0.492887 0.56795 0
M  V30 7494 H 710.982 -1.22971 2.71884 0
M  V30 7495 C 709.731 -2.84984 1.99197 0
M  V30 7496 H 709.054 -2.79677 2.85693 0
M  V30 7497 H 710.494 -3.61462 2.21633 0
M  V30 7498 C 708.953 -3.28025 0.768183 0
M  V30 7499 O 709.483 -4.01671 -0.0480482 0
M  V30 7500 N 707.689 -2.84454 0.594521 0
M  V30 7501 H 707.236 -2.24688 1.25988 0
M  V30 7502 H 707.194 -3.13609 -0.222916 0
M  V30 7503 N 710.966 -1.44241 -0.634997 0
M  V30 7504 C 712.215 -1.46102 -1.39058 0
M  V30 7505 C 712.528 -0.0959909 -1.95364 0
M  V30 7506 O 713.734 0.00788751 -2.71499 0
M  V30 7507 C 712.19 -2.57195 -2.51751 0
M  V30 7508 C 711.798 -3.99888 -2.01974 0
M  V30 7509 C 713.542 -2.68272 -3.28984 0
M  V30 7510 C 711.449 -5.02412 -3.11987 0
M  V30 7511 H 710.379 -0.543556 -0.522554 0
M  V30 7512 H 713.03 -1.70294 -0.683538 0
M  V30 7513 H 711.412 -2.26237 -3.25012 0
M  V30 7514 H 712.586 -4.40396 -1.35604 0
M  V30 7515 H 710.901 -3.93019 -1.37568 0
M  V30 7516 H 713.498 -3.42042 -4.10988 0
M  V30 7517 H 713.841 -1.73957 -3.78212 0
M  V30 7518 H 714.374 -2.98622 -2.62812 0
M  V30 7519 H 711.113 -5.98342 -2.67707 0
M  V30 7520 H 710.633 -4.66501 -3.77011 0
M  V30 7521 H 712.312 -5.25939 -3.76825 0
M  V30 7522 N 712.444 0.87505 -1.31075 0
M  V30 7523 C 713.407 1.96333 -1.18263 0
M  V30 7524 C 714.407 1.60416 -0.111106 0
M  V30 7525 O 715.597 1.7044 -0.359987 0
M  V30 7526 C 712.729 3.31036 -0.81414 0
M  V30 7527 H 713.922 2.09125 -2.14958 0
M  V30 7528 H 711.475 1.06271 -1.14614 0
M  V30 7529 H 712.21 3.23944 0.151875 0
M  V30 7530 H 711.995 3.58476 -1.58862 0
M  V30 7531 H 713.485 4.10842 -0.748249 0
M  V30 7532 N 713.922 1.13953 1.08869 0
M  V30 7533 C 714.852 0.844824 2.17681 0
M  V30 7534 C 715.833 -0.198213 1.68941 0
M  V30 7535 O 717.018 -0.0559073 1.9412 0
M  V30 7536 C 714.148 0.316325 3.45856 0
M  V30 7537 C 713.102 1.29426 4.07962 0
M  V30 7538 C 712.428 0.625275 5.31031 0
M  V30 7539 C 713.728 2.65484 4.49795 0
M  V30 7540 H 715.422 1.75471 2.42591 0
M  V30 7541 H 712.968 0.845116 1.16592 0
M  V30 7542 H 714.921 0.0977876 4.21287 0
M  V30 7543 H 713.645 -0.628972 3.20486 0
M  V30 7544 H 712.304 1.49889 3.34558 0
M  V30 7545 H 711.952 -0.325678 5.01945 0
M  V30 7546 H 711.652 1.27777 5.73539 0
M  V30 7547 H 713.176 0.416152 6.0918 0
M  V30 7548 H 714.59 2.48957 5.16424 0
M  V30 7549 H 712.987 3.26963 5.03205 0
M  V30 7550 H 714.057 3.22717 3.61914 0
M  V30 7551 N 715.4 -1.26948 0.933913 0
M  V30 7552 C 716.33 -2.29017 0.45534 0
M  V30 7553 C 717.311 -1.62961 -0.487605 0
M  V30 7554 O 718.496 -1.90223 -0.391022 0
M  V30 7555 C 715.626 -3.46112 -0.287015 0
M  V30 7556 C 714.58 -4.24205 0.568682 0
M  V30 7557 C 713.906 -5.3384 -0.303206 0
M  V30 7558 C 715.206 -4.88954 1.83633 0
M  V30 7559 H 716.9 -2.69298 1.30839 0
M  V30 7560 H 714.446 -1.29459 0.630579 0
M  V30 7561 H 716.399 -4.16622 -0.6328 0
M  V30 7562 H 715.123 -3.04765 -1.17414 0
M  V30 7563 H 713.782 -3.5545 0.897261 0
M  V30 7564 H 713.43 -4.88734 -1.18947 0
M  V30 7565 H 713.13 -5.86998 0.265879 0
M  V30 7566 H 714.654 -6.0719 -0.644423 0
M  V30 7567 H 716.068 -5.51717 1.55823 0
M  V30 7568 H 714.465 -5.52198 2.34941 0
M  V30 7569 H 715.535 -4.12305 2.55211 0
M  V30 7570 N 716.879 -0.700114 -1.41195 0
M  V30 7571 C 718.295 -0.372114 -1.55201 0
M  V30 7572 C 718.495 1.12053 -1.6747 0
M  V30 7573 O 717.551 1.90642 -1.65566 0
M  V30 7574 C 718.864 -1.12462 -2.78878 0
M  V30 7575 C 720.412 -1.10941 -2.92679 0
M  V30 7576 C 720.887 -1.84376 -4.19249 0
M  V30 7577 N 722.378 -1.81368 -4.26216 0
M  V30 7578 C 723.113 -2.35024 -5.23021 0
M  V30 7579 N 722.609 -2.9717 -6.25829 0
M  V30 7580 N 724.402 -2.25254 -5.14992 0
M  V30 7581 H 716.553 -1.66816 -1.31477 0
M  V30 7582 H 718.816 -0.704223 -0.634644 0
M  V30 7583 H 718.522 -2.17937 -2.76037 0
M  V30 7584 H 718.396 -0.706152 -3.70531 0
M  V30 7585 H 720.783 -0.062911 -2.95033 0
M  V30 7586 H 720.864 -1.56698 -2.02187 0
M  V30 7587 H 720.508 -2.89008 -4.17656 0
M  V30 7588 H 720.438 -1.3605 -5.08722 0
M  V30 7589 H 722.929 -1.36062 -3.52556 0
M  V30 7590 H 723.242 -3.35668 -6.96094 0
M  V30 7591 H 721.587 -3.01249 -6.26318 0
M  V30 7592 H 724.778 -1.76372 -4.33602 0
M  V30 7593 H 724.951 -2.67373 -5.90268 0
M  V30 7594 N 718.357 1.51182 -0.445186 0
M  V30 7595 C 719.267 2.31692 0.368255 0
M  V30 7596 C 720.283 1.40942 1.02036 0
M  V30 7597 O 721.459 1.74011 1.01401 0
M  V30 7598 C 718.524 3.14903 1.45041 0
M  V30 7599 C 717.585 4.21442 0.817615 0
M  V30 7600 C 716.818 5.00677 1.8482 0
M  V30 7601 O 717.041 4.80644 3.07145 0
M  V30 7602 O 715.975 5.84559 1.43438 0
M  V30 7603 H 719.801 3.0232 -0.289219 0
M  V30 7604 H 717.386 1.47951 -0.207555 0
M  V30 7605 H 719.268 3.66612 2.07783 0
M  V30 7606 H 717.943 2.47031 2.09182 0
M  V30 7607 H 716.85 3.73791 0.151931 0
M  V30 7608 H 718.183 4.9171 0.219564 0
M  V30 7609 N 719.835 0.176821 1.56605 0
M  V30 7610 C 721.081 -0.467406 1.9734 0
M  V30 7611 C 721.414 -1.62523 1.06301 0
M  V30 7612 O 720.689 -1.94182 0.11125 0
M  V30 7613 C 720.972 -0.945106 3.47476 0
M  V30 7614 C 720.825 0.213273 4.49294 0
M  V30 7615 C 722.144 -1.8169 4.00845 0
M  V30 7616 H 719.263 -0.168426 0.717497 0
M  V30 7617 H 721.905 0.264065 1.88156 0
M  V30 7618 H 720.055 -1.56841 3.55434 0
M  V30 7619 H 721.727 0.850508 4.53392 0
M  V30 7620 H 719.97 0.867918 4.25029 0
M  V30 7621 H 720.641 -0.163187 5.51759 0
M  V30 7622 H 723.117 -1.29139 3.95553 0
M  V30 7623 H 721.993 -2.12015 5.06301 0
M  V30 7624 H 722.254 -2.76463 3.44994 0
M  V30 7625 N 721.313 -1.57302 -0.09688 0
M  V30 7626 C 722.562 -1.85183 -0.799388 0
M  V30 7627 C 722.875 -0.765818 -1.79985 0
M  V30 7628 O 724.081 -0.931696 -2.55013 0
M  V30 7629 C 722.537 -3.28399 -1.47249 0
M  V30 7630 C 722.145 -4.45066 -0.511888 0
M  V30 7631 C 723.889 -3.65506 -2.15883 0
M  V30 7632 C 721.796 -5.79315 -1.18948 0
M  V30 7633 H 720.726 -0.690752 -0.302287 0
M  V30 7634 H 723.377 -1.83425 -0.0523104 0
M  V30 7635 H 721.759 -3.24692 -2.26697 0
M  V30 7636 H 722.933 -4.60116 0.250962 0
M  V30 7637 H 721.248 -4.16343 0.0686576 0
M  V30 7638 H 723.845 -4.63087 -2.67309 0
M  V30 7639 H 724.188 -2.94041 -2.94696 0
M  V30 7640 H 724.721 -3.71094 -1.43298 0
M  V30 7641 H 721.46 -6.54007 -0.442198 0
M  V30 7642 H 720.98 -5.68111 -1.9238 0
M  V30 7643 H 722.659 -6.23816 -1.71646 0
M  V30 7644 N 722.791 0.367657 -1.53252 0
M  V30 7645 C 724.04 1.10782 -1.68554 0
M  V30 7646 C 724.353 1.90523 -0.442765 0
M  V30 7647 O 725.559 2.6729 -0.47629 0
M  V30 7648 C 724.015 2.01863 -2.97959 0
M  V30 7649 C 723.623 1.27443 -4.29491 0
M  V30 7650 C 725.367 2.75883 -3.22628 0
M  V30 7651 C 723.274 2.17414 -5.49987 0
M  V30 7652 H 722.204 0.417272 -0.628013 0
M  V30 7653 H 724.855 0.368971 -1.79752 0
M  V30 7654 H 723.237 2.7947 -2.80558 0
M  V30 7655 H 724.411 0.549138 -4.57516 0
M  V30 7656 H 722.726 0.652935 -4.11249 0
M  V30 7657 H 725.323 3.43421 -4.09837 0
M  V30 7658 H 725.666 3.41138 -2.38601 0
M  V30 7659 H 726.199 2.0536 -3.40693 0
M  V30 7660 H 722.938 1.5674 -6.36485 0
M  V30 7661 H 722.458 2.87799 -5.26243 0
M  V30 7662 H 724.137 2.77019 -5.84696 0
M  V30 7663 N 724.269 1.44576 0.627338 0
M  V30 7664 C 725.217 1.52039 1.76031 0
M  V30 7665 C 726.211 0.391796 1.64807 0
M  V30 7666 O 727.417 0.5669 1.7084 0
M  V30 7667 H 723.792 0.477165 0.581221 0
M  V30 7668 H 725.763 2.47387 1.6686 0
M  V30 7669 C 724.512 1.48539 3.14375 0
M  V30 7670 H 723.835 2.34699 3.23661 0
M  V30 7671 H 725.275 1.57821 3.93534 0
M  V30 7672 C 723.734 0.20672 3.36265 0
M  V30 7673 O 724.264 -0.72154 3.95167 0
M  V30 7674 N 722.47 0.108654 2.90397 0
M  V30 7675 H 722.017 0.864884 2.42647 0
M  V30 7676 H 721.975 -0.746121 3.05418 0
M  V30 7677 N 725.747 -0.868086 1.31537 0
M  V30 7678 C 726.972 -1.65926 1.24432 0
M  V30 7679 C 727.397 -1.87169 -0.186936 0
M  V30 7680 O 726.755 -1.4148 -1.13371 0
M  V30 7681 C 726.803 -3.00347 1.9956 0
M  V30 7682 O 725.907 -3.90221 1.33422 0
M  V30 7683 H 725.248 -0.506375 0.429512 0
M  V30 7684 H 727.778 -1.0822 1.73637 0
M  V30 7685 H 727.788 -3.50269 2.09226 0
M  V30 7686 H 726.463 -2.84205 3.03645 0
M  V30 7687 H 725.04 -3.48672 1.32219 0
M  V30 7688 N 727.225 -1.14528 -1.08264 0
M  V30 7689 C 728.641 -0.885976 -1.3275 0
M  V30 7690 C 728.841 0.472096 -1.95892 0
M  V30 7691 O 727.897 1.21606 -2.21288 0
M  V30 7692 C 729.21 -2.01982 -2.22764 0
M  V30 7693 C 730.758 -2.05329 -2.36239 0
M  V30 7694 C 731.233 -3.1801 -3.29596 0
M  V30 7695 N 732.724 -3.17598 -3.37173 0
M  V30 7696 C 733.459 -4.01426 -4.09444 0
M  V30 7697 N 732.955 -4.95297 -4.8441 0
M  V30 7698 N 734.748 -3.89482 -4.0529 0
M  V30 7699 H 726.899 -2.01996 -0.656607 0
M  V30 7700 H 729.162 -0.880274 -0.351884 0
M  V30 7701 H 728.868 -2.99964 -1.83615 0
M  V30 7702 H 728.742 -1.94421 -3.23234 0
M  V30 7703 H 731.129 -1.07953 -2.74646 0
M  V30 7704 H 731.21 -2.1696 -1.35506 0
M  V30 7705 H 730.854 -4.15633 -2.9191 0
M  V30 7706 H 730.784 -3.03616 -4.30261 0
M  V30 7707 H 733.275 -2.4961 -2.83731 0
M  V30 7708 H 733.588 -5.55723 -5.37021 0
M  V30 7709 H 731.933 -4.99293 -4.83457 0
M  V30 7710 H 735.124 -3.15465 -3.45832 0
M  V30 7711 H 735.297 -4.55039 -4.6135 0
M  V30 7712 N 728.703 1.26451 -0.940633 0
M  V30 7713 C 729.95 1.93778 -0.587909 0
M  V30 7714 C 730.278 1.73811 0.872935 0
M  V30 7715 O 729.533 1.06816 1.63978 0
M  V30 7716 C 729.832 3.46503 -0.875794 0
M  V30 7717 C 729.498 3.86609 -2.32043 0
M  V30 7718 C 728.16 3.97269 -2.71534 0
M  V30 7719 C 730.512 4.0672 -3.25927 0
M  V30 7720 C 727.84 4.25436 -4.04006 0
M  V30 7721 C 730.192 4.36375 -4.57995 0
M  V30 7722 C 728.856 4.45249 -4.97302 0
M  V30 7723 H 728.126 0.709084 -0.215131 0
M  V30 7724 H 730.773 1.50272 -1.18704 0
M  V30 7725 H 729.078 3.91319 -0.194124 0
M  V30 7726 H 730.775 3.96759 -0.581665 0
M  V30 7727 H 727.365 3.78858 -2.00411 0
M  V30 7728 H 731.549 3.97912 -2.96614 0
M  V30 7729 H 726.805 4.30519 -4.34124 0
M  V30 7730 H 730.979 4.50882 -5.30734 0
M  V30 7731 H 728.606 4.66829 -5.99979 0
M  V30 7732 N 730.181 0.707592 1.40822 0
M  V30 7733 C 731.427 0.244031 2.01326 0
M  V30 7734 C 731.76 -1.15722 1.55955 0
M  V30 7735 O 731.035 -1.78347 0.776044 0
M  V30 7736 C 731.318 0.315128 3.58718 0
M  V30 7737 C 731.171 1.75419 4.14184 0
M  V30 7738 C 732.49 -0.318251 4.38948 0
M  V30 7739 H 729.609 0.0901471 0.731466 0
M  V30 7740 H 732.251 0.898584 1.67408 0
M  V30 7741 H 730.401 -0.242176 3.87744 0
M  V30 7742 H 732.073 2.36626 3.95987 0
M  V30 7743 H 730.316 2.28449 3.68773 0
M  V30 7744 H 730.987 1.75538 5.23345 0
M  V30 7745 H 733.463 0.156514 4.15806 0
M  V30 7746 H 732.339 -0.238019 5.48384 0
M  V30 7747 H 732.6 -1.40067 4.19325 0
M  V30 7748 N 731.66 -1.50943 0.453197 0
M  V30 7749 C 732.607 -2.28128 -0.350197 0
M  V30 7750 C 733.577 -1.32398 -1.00299 0
M  V30 7751 O 734.762 -1.61319 -1.01887 0
M  V30 7752 C 731.902 -3.13782 -1.43649 0
M  V30 7753 C 731.015 -4.24523 -0.800255 0
M  V30 7754 C 730.15 -4.97462 -1.86293 0
M  V30 7755 C 729.189 -6.00102 -1.20598 0
M  V30 7756 N 728.326 -6.66387 -2.21071 0
M  V30 7757 H 733.166 -2.96337 0.31434 0
M  V30 7758 H 730.703 -1.46151 0.166863 0
M  V30 7759 H 732.661 -3.6178 -2.07776 0
M  V30 7760 H 731.291 -2.47655 -2.07044 0
M  V30 7761 H 730.343 -3.80371 -0.0468651 0
M  V30 7762 H 731.655 -4.98009 -0.280777 0
M  V30 7763 H 730.809 -5.49088 -2.58044 0
M  V30 7764 H 729.548 -4.23642 -2.41617 0
M  V30 7765 H 728.553 -5.47753 -0.474 0
M  V30 7766 H 729.778 -6.75887 -0.659859 0
M  V30 7767 H 727.724 -5.9537 -2.75446 0
M  V30 7768 H 727.641 -7.3569 -1.74058 0
M  V30 7769 H 728.909 -7.22638 -2.92257 0
M  V30 7770 N 733.138 -0.185124 -1.56509 0
M  V30 7771 C 734.386 0.455357 -1.96903 0
M  V30 7772 C 734.707 1.62839 -1.07277 0
M  V30 7773 O 733.977 1.95385 -0.141966 0
M  V30 7774 H 732.557 0.171218 -0.727113 0
M  V30 7775 H 735.219 -0.26953 -1.93027 0
M  V30 7776 H 734.315 0.80616 -3.01509 0
M  V30 7777 N 734.616 1.57351 0.0885366 0
M  V30 7778 C 735.893 1.77449 0.822873 0
M  V30 7779 C 736.273 0.768463 1.96616 0
M  V30 7780 O 735.621 -0.201757 2.27608 0
M  V30 7781 C 735.831 3.23425 1.31137 0
M  V30 7782 C 737.179 3.86791 1.75152 0
M  V30 7783 O 738.203 3.27215 1.40745 0
M  V30 7784 O 737.062 4.91568 2.38794 0
M  V30 7785 H 734.156 0.727653 0.393002 0
M  V30 7786 H 736.702 1.69556 0.0699095 0
M  V30 7787 H 735.474 3.88188 0.49254 0
M  V30 7788 H 735.097 3.35977 2.12615 0
M  V30 7789 N 736.094 -0.359525 1.53444 0
M  V30 7790 C 737.343 -1.09886 1.69139 0
M  V30 7791 C 737.656 -1.90285 0.452863 0
M  V30 7792 O 738.862 -2.67033 0.490459 0
M  V30 7793 C 737.318 -2.0028 2.99025 0
M  V30 7794 C 736.926 -1.25164 4.30161 0
M  V30 7795 C 738.67 -2.74168 3.24086 0
M  V30 7796 C 736.577 -2.14494 5.51132 0
M  V30 7797 H 735.507 -0.413936 0.630217 0
M  V30 7798 H 738.158 -0.359434 1.79945 0
M  V30 7799 H 736.54 -2.77978 2.82036 0
M  V30 7800 H 737.714 -0.524867 4.57801 0
M  V30 7801 H 736.029 -0.631116 4.11589 0
M  V30 7802 H 738.626 -3.41243 4.11652 0
M  V30 7803 H 738.969 -3.39868 2.40407 0
M  V30 7804 H 739.502 -2.0355 3.41778 0
M  V30 7805 H 736.241 -1.53362 6.37307 0
M  V30 7806 H 735.761 -2.85004 5.27762 0
M  V30 7807 H 737.44 -2.73914 5.86157 0
M  V30 7808 N 737.572 -1.44907 -0.619662 0
M  V30 7809 C 738.797 -1.52021 -1.41083 0
M  V30 7810 C 739.222 -0.14976 -1.87503 0
M  V30 7811 O 738.58 0.863303 -1.59426 0
M  V30 7812 C 738.628 -2.49911 -2.59955 0
M  V30 7813 O 737.732 -2.00857 -3.60181 0
M  V30 7814 H 737.073 -0.512912 -0.421684 0
M  V30 7815 H 739.603 -1.90149 -0.755282 0
M  V30 7816 H 739.613 -2.68323 -3.07354 0
M  V30 7817 H 738.288 -3.4945 -2.25516 0
M  V30 7818 H 736.865 -1.92265 -3.19513 0
M  V30 7819 N 739.05 0.861098 -1.31996 0
M  V30 7820 C 740.278 1.6474 -1.25173 0
M  V30 7821 C 740.693 1.87926 0.181425 0
M  V30 7822 O 740.05 1.4437 1.1164 0
M  V30 7823 C 740.101 3.01036 -2.0015 0
M  V30 7824 O 739.822 2.7888 -3.37872 0
M  V30 7825 C 741.323 3.95481 -2.00273 0
M  V30 7826 H 738.543 0.513314 -0.432146 0
M  V30 7827 H 741.087 1.07419 -1.74016 0
M  V30 7828 H 739.242 3.55021 -1.55046 0
M  V30 7829 H 739.656 3.65514 -3.76165 0
M  V30 7830 H 741.13 4.88403 -2.57229 0
M  V30 7831 H 741.607 4.27957 -0.987407 0
M  V30 7832 H 742.213 3.47433 -2.45296 0
M  V30 7833 N 740.528 1.15101 1.07655 0
M  V30 7834 C 741.475 0.844958 2.14777 0
M  V30 7835 C 742.445 -0.200798 1.64882 0
M  V30 7836 O 743.63 -0.0690278 1.90675 0
M  V30 7837 C 740.77 0.337018 3.4345 0
M  V30 7838 C 739.883 1.44398 4.07153 0
M  V30 7839 C 739.018 0.892487 5.23649 0
M  V30 7840 C 738.057 1.9766 5.79307 0
M  V30 7841 N 737.194 1.44171 6.87138 0
M  V30 7842 H 742.034 1.76242 2.40297 0
M  V30 7843 H 739.571 0.879435 1.17917 0
M  V30 7844 H 741.529 0.024256 4.17193 0
M  V30 7845 H 740.159 -0.543531 3.18191 0
M  V30 7846 H 739.211 1.87299 3.31094 0
M  V30 7847 H 740.523 2.26262 4.4453 0
M  V30 7848 H 739.677 0.532083 6.04362 0
M  V30 7849 H 738.416 0.0429854 4.87681 0
M  V30 7850 H 737.421 2.34586 4.97242 0
M  V30 7851 H 738.646 2.82982 6.17331 0
M  V30 7852 H 736.592 0.614518 6.53115 0
M  V30 7853 H 736.509 2.19665 7.23383 0
M  V30 7854 H 737.777 1.10945 7.71564 0
M  V30 7855 N 742.006 -1.2595 0.947325 0
M  V30 7856 C 743.253 -1.93463 0.598178 0
M  V30 7857 C 743.581 -1.74271 -0.863705 0
M  V30 7858 O 742.836 -1.07684 -1.63409 0
M  V30 7859 C 743.135 -3.46034 0.894158 0
M  V30 7860 C 742.801 -3.85373 2.3409 0
M  V30 7861 C 741.463 -3.95823 2.73637 0
M  V30 7862 C 743.815 -4.04986 3.2808 0
M  V30 7863 C 741.143 -4.23288 4.06257 0
M  V30 7864 C 743.495 -4.3394 4.60303 0
M  V30 7865 C 742.159 -4.42606 4.99656 0
M  V30 7866 H 741.429 -0.707933 0.218889 0
M  V30 7867 H 744.076 -1.4964 1.19499 0
M  V30 7868 H 742.381 -3.9121 0.214874 0
M  V30 7869 H 744.078 -3.96445 0.602698 0
M  V30 7870 H 740.668 -3.7779 2.02417 0
M  V30 7871 H 744.852 -3.96333 2.9872 0
M  V30 7872 H 740.108 -4.28211 4.36401 0
M  V30 7873 H 744.282 -4.48061 5.33118 0
M  V30 7874 H 741.909 -4.63641 6.02446 0
M  V30 7875 N 743.484 -0.715051 -1.40445 0
M  V30 7876 C 744.414 -0.0768699 -2.33373 0
M  V30 7877 C 745.395 0.746109 -1.52863 0
M  V30 7878 O 746.58 0.695142 -1.81332 0
M  V30 7879 C 743.71 0.846014 -3.36838 0
M  V30 7880 C 742.664 0.128694 -4.27806 0
M  V30 7881 C 741.99 1.16726 -5.21804 0
M  V30 7882 C 743.29 -1.01679 -5.12307 0
M  V30 7883 H 744.984 -0.853061 -2.8699 0
M  V30 7884 H 742.53 -0.41167 -1.3799 0
M  V30 7885 H 744.483 1.30185 -4.00786 0
M  V30 7886 H 743.207 1.6541 -2.81615 0
M  V30 7887 H 741.866 -0.307314 -3.6531 0
M  V30 7888 H 741.514 1.96838 -4.62887 0
M  V30 7889 H 741.214 0.692188 -5.83509 0
M  V30 7890 H 742.738 1.62321 -5.88629 0
M  V30 7891 H 744.152 -0.640337 -5.69713 0
M  V30 7892 H 742.549 -1.4202 -5.83053 0
M  V30 7893 H 743.619 -1.84769 -4.48317 0
M  V30 7894 N 744.962 1.50701 -0.461195 0
M  V30 7895 C 746.187 2.07171 0.0974773 0
M  V30 7896 C 746.612 1.32391 1.3362 0
M  V30 7897 O 745.97 0.368676 1.77512 0
M  V30 7898 C 746.018 3.58651 0.374409 0
M  V30 7899 O 745.122 3.85816 1.4567 0
M  V30 7900 H 744.463 0.663944 -0.00862047 0
M  V30 7901 H 746.993 1.94021 -0.649394 0
M  V30 7902 H 747.003 4.03295 0.617843 0
M  V30 7903 H 745.678 4.12498 -0.530829 0
M  V30 7904 H 744.255 3.53018 1.20136 0
M  V30 7905 N 746.441 0.193421 1.56409 0
M  V30 7906 C 747.718 -0.493318 1.89277 0
M  V30 7907 C 748.098 -1.79765 1.10669 0
M  V30 7908 O 747.446 -2.27558 0.207274 0
M  V30 7909 C 747.656 -0.713732 3.41624 0
M  V30 7910 C 749.004 -1.03385 4.11821 0
M  V30 7911 O 750.028 -0.801511 3.47065 0
M  V30 7912 O 748.887 -1.47327 5.26267 0
M  V30 7913 H 745.981 -0.256973 0.786062 0
M  V30 7914 H 748.527 0.23351 1.68086 0
M  V30 7915 H 747.299 0.207446 3.9075 0
M  V30 7916 H 746.922 -1.49308 3.68501 0
M  V30 7917 N 747.919 -1.57396 -0.0801906 0
M  V30 7918 C 749.165 -1.87113 -0.782083 0
M  V30 7919 C 749.498 -0.78458 -1.77646 0
M  V30 7920 O 748.773 0.205993 -1.93406 0
M  V30 7921 C 749.056 -3.27483 -1.49756 0
M  V30 7922 C 748.909 -4.46782 -0.520171 0
M  V30 7923 C 750.228 -3.65965 -2.44454 0
M  V30 7924 H 747.347 -0.680559 -0.282858 0
M  V30 7925 H 749.989 -1.89946 -0.0454139 0
M  V30 7926 H 748.139 -3.25199 -2.12551 0
M  V30 7927 H 749.811 -4.61187 0.101919 0
M  V30 7928 H 748.054 -4.33485 0.165219 0
M  V30 7929 H 748.725 -5.41761 -1.05824 0
M  V30 7930 H 751.201 -3.69289 -1.91742 0
M  V30 7931 H 750.077 -4.65086 -2.91524 0
M  V30 7932 H 750.338 -2.95446 -3.28883 0
M  V30 7933 N 749.397 0.351382 -1.53633 0
M  V30 7934 C 750.627 1.11113 -1.74176 0
M  V30 7935 C 751.035 1.83084 -0.477154 0
M  V30 7936 O 750.378 1.74941 0.560483 0
M  V30 7937 C 750.44 2.17521 -2.86225 0
M  V30 7938 C 750.104 1.65193 -4.26099 0
M  V30 7939 C 751.101 1.10842 -5.07947 0
M  V30 7940 C 748.786 1.70277 -4.72558 0
M  V30 7941 C 750.78 0.622689 -6.34351 0
M  V30 7942 C 748.467 1.21316 -5.98937 0
M  V30 7943 C 749.465 0.674033 -6.79666 0
M  V30 7944 O 749.153 0.191696 -8.03671 0
M  V30 7945 H 748.885 0.33756 -0.585687 0
M  V30 7946 H 751.439 0.411786 -2.0123 0
M  V30 7947 H 749.669 2.90991 -2.54678 0
M  V30 7948 H 751.358 2.78999 -2.94812 0
M  V30 7949 H 752.124 1.06243 -4.7322 0
M  V30 7950 H 748.003 2.11181 -4.09785 0
M  V30 7951 H 751.547 0.201216 -6.9731 0
M  V30 7952 H 747.444 1.25613 -6.3316 0
M  V30 7953 H 748.212 0.309712 -8.17914 0
M  V30 7954 N 750.875 1.45233 0.611969 0
M  V30 7955 C 752.286 1.4354 1.19387 0
M  V30 7956 C 752.637 0.160713 1.95541 0
M  V30 7957 O 751.762 -0.737954 2.03429 0
M  V30 7958 C 752.357 2.60045 2.17169 0
M  V30 7959 C 750.916 2.61486 2.70744 0
M  V30 7960 C 750.063 2.35708 1.46072 0
M  V30 7961 H 753.014 1.53536 0.401529 0
M  V30 7962 H 753.035 2.33893 3.00124 0
M  V30 7963 H 752.547 3.52803 1.61714 0
M  V30 7964 H 750.648 1.72721 3.30149 0
M  V30 7965 H 750.761 3.60572 3.15476 0
M  V30 7966 H 749.125 1.85178 1.74875 0
M  V30 7967 H 749.908 3.30606 0.924922 0
M  V30 7968 N 752.353 -0.854086 1.3245 0
M  V30 7969 C 753.63 -1.59188 1.1366 0
M  V30 7970 C 754.01 -2.08917 -0.302807 0
M  V30 7971 O 753.358 -1.8795 -1.29951 0
M  V30 7972 C 753.568 -2.73757 2.16467 0
M  V30 7973 C 754.916 -3.43323 2.49829 0
M  V30 7974 O 755.94 -2.83983 2.15017 0
M  V30 7975 O 754.799 -4.50409 3.09506 0
M  V30 7976 H 751.893 -0.701092 0.438633 0
M  V30 7977 H 754.439 -0.898165 1.43983 0
M  V30 7978 H 753.211 -2.3454 3.1322 0
M  V30 7979 H 752.834 -3.50804 1.87142 0
M  V30 7980 N 753.831 -1.1567 -1.07043 0
M  V30 7981 C 755.079 -0.931673 -1.79344 0
M  V30 7982 C 755.4 0.542421 -1.87304 0
M  V30 7983 O 754.67 1.39418 -1.37621 0
M  V30 7984 H 753.25 -0.34171 -0.664262 0
M  V30 7985 H 755.912 -1.45795 -1.29344 0
M  V30 7986 H 755.008 -1.34379 -2.81689 0
M  V30 7987 N 755.309 1.25446 -0.953992 0
M  V30 7988 C 756.556 1.93143 -0.608429 0
M  V30 7989 C 756.884 1.74727 0.854451 0
M  V30 7990 O 756.139 1.0855 1.62836 0
M  V30 7991 C 756.438 3.45555 -0.912496 0
M  V30 7992 C 756.104 3.84126 -2.36131 0
M  V30 7993 C 754.766 3.94367 -2.75732 0
M  V30 7994 C 757.118 4.0324 -3.30223 0
M  V30 7995 C 754.446 4.21127 -4.08496 0
M  V30 7996 C 756.798 4.31493 -4.62598 0
M  V30 7997 C 755.462 4.3995 -5.01996 0
M  V30 7998 H 754.732 0.706762 -0.22264 0
M  V30 7999 H 757.379 1.49005 -1.20291 0
M  V30 8000 H 755.684 3.91091 -0.235618 0
M  V30 8001 H 757.381 3.9612 -0.623714 0
M  V30 8002 H 753.971 3.76711 -2.04418 0
M  V30 8003 H 758.155 3.94744 -3.00817 0
M  V30 8004 H 753.411 4.2589 -4.38665 0
M  V30 8005 H 757.585 4.45227 -5.35486 0
M  V30 8006 H 755.212 4.60439 -6.04896 0
M  V30 8007 N 756.787 0.722489 1.40064 0
M  V30 8008 C 757.734 0.0743738 2.3068 0
M  V30 8009 C 758.704 -0.743004 1.48555 0
M  V30 8010 O 759.889 -0.705536 1.77276 0
M  V30 8011 C 757.029 -0.836292 3.34814 0
M  V30 8012 C 756.142 -0.00764663 4.31999 0
M  V30 8013 C 755.277 -0.918428 5.232 0
M  V30 8014 C 754.316 -0.0842838 6.12042 0
M  V30 8015 N 753.453 -0.950316 6.95639 0
M  V30 8016 H 758.293 0.852794 2.85537 0
M  V30 8017 H 755.83 0.432222 1.40607 0
M  V30 8018 H 757.788 -1.3786 3.93765 0
M  V30 8019 H 756.418 -1.58082 2.81443 0
M  V30 8020 H 755.47 0.651928 3.74772 0
M  V30 8021 H 756.782 0.63786 4.94705 0
M  V30 8022 H 755.936 -1.52902 5.87116 0
M  V30 8023 H 754.675 -1.59774 4.60786 0
M  V30 8024 H 753.68 0.5392 5.4715 0
M  V30 8025 H 754.905 0.591628 6.76518 0
M  V30 8026 H 752.851 -1.61515 6.35806 0
M  V30 8027 H 752.768 -0.361004 7.55138 0
M  V30 8028 H 754.036 -1.54687 7.63997 0
M  V30 8029 N 758.265 -1.50454 0.469181 0
M  V30 8030 C 759.513 -2.01916 -0.0862982 0
M  V30 8031 C 759.834 -1.35337 -1.40388 0
M  V30 8032 O 759.104 -0.498096 -1.89462 0
M  V30 8033 H 757.684 -0.746185 -0.0348825 0
M  V30 8034 H 760.346 -1.84804 0.619167 0
M  V30 8035 H 759.442 -3.11182 -0.239189 0
M  V30 8036 N 759.743 -0.201713 -1.56304 0
M  V30 8037 C 760.693 0.729444 -2.16016 0
M  V30 8038 C 761.677 1.17164 -1.10279 0
M  V30 8039 O 762.869 1.12893 -1.36324 0
M  V30 8040 C 759.998 1.94594 -2.82822 0
M  V30 8041 C 759.084 1.52434 -3.95758 0
M  V30 8042 N 759.475 0.814106 -4.99205 0
M  V30 8043 C 757.773 1.81314 -4.07481 0
M  V30 8044 C 758.474 0.601896 -5.78578 0
M  V30 8045 N 757.45 1.15263 -5.3124 0
M  V30 8046 H 761.252 0.178163 -2.93359 0
M  V30 8047 H 758.766 -0.00218038 -1.624 0
M  V30 8048 H 760.763 2.62357 -3.23998 0
M  V30 8049 H 759.423 2.50188 -2.06969 0
M  V30 8050 H 760.434 0.468872 -5.15773 0
M  V30 8051 H 757.111 2.3837 -3.42762 0
M  V30 8052 H 758.501 0.0380119 -6.71889 0
M  V30 8053 N 761.222 1.57436 0.0718424 0
M  V30 8054 C 762.155 1.98982 1.11721 0
M  V30 8055 C 763.133 0.866731 1.37574 0
M  V30 8056 O 764.317 1.12903 1.50948 0
M  V30 8057 C 761.444 2.32648 2.46155 0
M  V30 8058 C 760.49 3.54964 2.36437 0
M  V30 8059 S 761.323 5.05802 1.75854 0
M  V30 8060 C 762.479 5.42669 3.11867 0
M  V30 8061 H 762.712 2.87338 0.763154 0
M  V30 8062 H 760.245 1.51833 0.280372 0
M  V30 8063 H 762.203 2.52719 3.23486 0
M  V30 8064 H 760.864 1.44821 2.78722 0
M  V30 8065 H 760.057 3.76038 3.35577 0
M  V30 8066 H 759.659 3.34524 1.67242 0
M  V30 8067 H 761.951 5.40737 4.08178 0
M  V30 8068 H 762.894 6.43461 2.95573 0
M  V30 8069 H 763.302 4.70131 3.1247 0
M  V30 8070 N 762.7 -0.34323 1.53817 0
M  V30 8071 C 763.63 -1.42709 1.84814 0
M  V30 8072 C 764.611 -1.5488 0.703297 0
M  V30 8073 O 765.796 -1.69082 0.955237 0
M  V30 8074 C 762.926 -2.79756 2.05801 0
M  V30 8075 C 761.88 -2.82392 3.21619 0
M  V30 8076 C 761.206 -4.22326 3.2794 0
M  V30 8077 C 762.506 -2.479 4.59721 0
M  V30 8078 H 764.2 -1.17018 2.75585 0
M  V30 8079 H 761.746 -0.561485 1.32602 0
M  V30 8080 H 763.699 -3.55627 2.26069 0
M  V30 8081 H 762.423 -3.06883 1.11761 0
M  V30 8082 H 761.082 -2.08974 3.01207 0
M  V30 8083 H 760.73 -4.46564 2.31494 0
M  V30 8084 H 760.43 -4.25001 4.05768 0
M  V30 8085 H 761.954 -5.00039 3.50419 0
M  V30 8086 H 763.368 -3.13484 4.80001 0
M  V30 8087 H 761.765 -2.61857 5.39954 0
M  V30 8088 H 762.835 -1.43087 4.63308 0
M  V30 8089 N 764.178 -1.45556 -0.604258 0
M  V30 8090 C 765.406 -1.53278 -1.38973 0
M  V30 8091 C 765.821 -0.166509 -1.88064 0
M  V30 8092 O 765.178 0.832519 -1.62405 0
M  V30 8093 C 765.229 -2.51992 -2.59195 0
M  V30 8094 O 764.95 -3.8331 -2.12143 0
M  V30 8095 C 766.451 -2.69445 -3.52015 0
M  V30 8096 H 763.671 -0.519003 -0.425297 0
M  V30 8097 H 766.215 -1.90773 -0.736621 0
M  V30 8098 H 764.37 -2.17561 -3.2054 0
M  V30 8099 H 764.784 -4.3685 -2.90279 0
M  V30 8100 H 766.258 -3.42485 -4.32907 0
M  V30 8101 H 766.735 -1.75596 -4.0257 0
M  V30 8102 H 767.341 -3.04886 -2.9652 0
M  V30 8103 N 765.656 0.84705 -1.32902 0
M  V30 8104 C 766.603 1.95624 -1.22473 0
M  V30 8105 C 767.573 1.65767 -0.105178 0
M  V30 8106 O 768.758 1.88704 -0.282042 0
M  V30 8107 C 765.898 3.31434 -0.961542 0
M  V30 8108 C 765.011 3.73741 -2.1666 0
M  V30 8109 C 764.146 4.98379 -1.83825 0
M  V30 8110 C 763.185 5.33199 -3.00609 0
M  V30 8111 N 762.322 6.49014 -2.67816 0
M  V30 8112 H 767.162 2.03875 -2.17345 0
M  V30 8113 H 764.699 0.997764 -1.08088 0
M  V30 8114 H 766.657 4.09663 -0.789411 0
M  V30 8115 H 765.287 3.22762 -0.0495938 0
M  V30 8116 H 764.339 2.91102 -2.44875 0
M  V30 8117 H 765.651 3.95462 -3.03993 0
M  V30 8118 H 764.805 5.84336 -1.63208 0
M  V30 8119 H 763.544 4.78611 -0.937172 0
M  V30 8120 H 762.549 4.4575 -3.21849 0
M  V30 8121 H 763.774 5.5492 -3.9146 0
M  V30 8122 H 761.72 6.30748 -1.80258 0
M  V30 8123 H 761.637 6.7079 -3.48679 0
M  V30 8124 H 762.905 7.38103 -2.50647 0
M  V30 8125 N 767.134 1.16236 1.06428 0
M  V30 8126 C 768.359 0.967688 1.83441 0
M  V30 8127 C 768.784 -0.479167 1.81894 0
M  V30 8128 O 768.142 -1.34224 1.21875 0
M  V30 8129 C 768.19 1.49806 3.2801 0
M  V30 8130 O 767.294 0.703481 4.06356 0
M  V30 8131 H 766.635 0.344468 0.56766 0
M  V30 8132 H 769.165 1.54442 1.34197 0
M  V30 8133 H 769.175 1.51495 3.78831 0
M  V30 8134 H 767.85 2.55133 3.2845 0
M  V30 8135 H 766.427 0.756986 3.65136 0
M  V30 8136 N 768.612 -1.24939 0.960631 0
M  V30 8137 C 769.522 -2.29374 0.492435 0
M  V30 8138 C 770.538 -1.68262 -0.443154 0
M  V30 8139 O 771.714 -1.98875 -0.31793 0
M  V30 8140 C 768.779 -3.46023 -0.216626 0
M  V30 8141 C 767.84 -4.22557 0.757915 0
M  V30 8142 C 767.073 -5.33636 0.0825969 0
M  V30 8143 O 767.296 -5.59084 -1.13054 0
M  V30 8144 O 766.23 -5.96939 0.771177 0
M  V30 8145 H 770.056 -2.71525 1.36044 0
M  V30 8146 H 767.641 -1.30499 0.72735 0
M  V30 8147 H 769.523 -4.16885 -0.615241 0
M  V30 8148 H 768.198 -3.05862 -1.05971 0
M  V30 8149 H 767.105 -3.54099 1.20685 0
M  V30 8150 H 768.438 -4.66516 1.5692 0
M  V30 8151 N 770.09 -0.729906 -1.39679 0
M  V30 8152 C 771.037 -0.0866063 -2.30637 0
M  V30 8153 C 772.007 0.735115 -1.48947 0
M  V30 8154 O 773.192 0.696125 -1.77648 0
M  V30 8155 C 770.332 0.818524 -3.35252 0
M  V30 8156 C 769.445 -0.0152635 -4.31997 0
M  V30 8157 C 768.58 0.890669 -5.2368 0
M  V30 8158 C 767.619 0.0518246 -6.12078 0
M  V30 8159 N 766.756 0.913411 -6.96133 0
M  V30 8160 H 771.596 -0.867925 -2.85081 0
M  V30 8161 H 769.133 -0.439673 -1.40376 0
M  V30 8162 H 771.091 1.3577 -3.9449 0
M  V30 8163 H 769.721 1.56587 -2.82277 0
M  V30 8164 H 768.773 -0.671794 -3.74421 0
M  V30 8165 H 770.085 -0.664086 -4.9436 0
M  V30 8166 H 769.239 1.49787 -5.87919 0
M  V30 8167 H 767.978 1.57328 -4.61627 0
M  V30 8168 H 766.983 -0.568209 -5.46856 0
M  V30 8169 H 768.208 -0.627497 -6.76195 0
M  V30 8170 H 766.154 1.58141 -6.36653 0
M  V30 8171 H 766.071 0.320952 -7.55318 0
M  V30 8172 H 767.339 1.50633 -7.64807 0
M  V30 8173 N 771.568 1.50203 -0.477153 0
M  V30 8174 C 772.516 2.30278 0.327826 0
M  V30 8175 C 773.51 1.37831 0.984839 0
M  V30 8176 O 774.716 1.54994 0.915251 0
M  V30 8177 H 771.091 0.741612 0.124564 0
M  V30 8178 H 773.062 2.96124 -0.367853 0
M  V30 8179 C 771.811 3.18548 1.39365 0
M  V30 8180 H 771.134 3.89596 0.897475 0
M  V30 8181 H 772.574 3.77561 1.92934 0
M  V30 8182 C 771.033 2.36548 2.39889 0
M  V30 8183 O 771.563 2.05282 3.45286 0
M  V30 8184 N 769.769 1.99015 2.11758 0
M  V30 8185 H 769.316 2.24641 1.26071 0
M  V30 8186 H 769.274 1.44454 2.7925 0
M  V30 8187 N 773.046 0.209999 1.56195 0
M  V30 8188 C 773.978 -0.736967 2.17029 0
M  V30 8189 C 774.991 -1.16599 1.13616 0
M  V30 8190 O 776.18 -1.09914 1.40646 0
M  V30 8191 C 773.28 -2.00852 2.72969 0
M  V30 8192 C 772.453 -1.73691 4.01435 0
M  V30 8193 C 771.512 -2.85439 4.42053 0
M  V30 8194 O 770.538 -2.54405 5.09183 0
M  V30 8195 N 771.74 -4.14135 4.06783 0
M  V30 8196 H 774.505 -0.216656 2.98916 0
M  V30 8197 H 772.066 0.0285672 1.61875 0
M  V30 8198 H 774.058 -2.74778 2.97118 0
M  V30 8199 H 772.628 -2.43963 1.95451 0
M  V30 8200 H 771.848 -0.834676 3.85262 0
M  V30 8201 H 773.136 -1.52961 4.85263 0
M  V30 8202 H 772.534 -4.42196 3.52816 0
M  V30 8203 H 771.091 -4.84642 4.35851 0
M  V30 8204 N 774.524 -1.57472 -0.0634922 0
M  V30 8205 C 775.454 -2.07297 -1.07473 0
M  V30 8206 C 776.435 -0.968162 -1.39859 0
M  V30 8207 O 777.62 -1.24139 -1.49343 0
M  V30 8208 C 774.75 -2.52381 -2.38581 0
M  V30 8209 C 773.704 -3.66813 -2.20526 0
M  V30 8210 C 773.03 -3.97982 -3.57092 0
M  V30 8211 C 774.33 -4.96553 -1.61965 0
M  V30 8212 H 776.024 -2.92033 -0.660092 0
M  V30 8213 H 773.57 -1.40488 -0.316074 0
M  V30 8214 H 775.523 -2.85852 -3.09624 0
M  V30 8215 H 774.247 -1.64684 -2.8204 0
M  V30 8216 H 772.906 -3.33639 -1.51924 0
M  V30 8217 H 772.554 -3.07403 -3.98136 0
M  V30 8218 H 772.254 -4.7504 -3.45848 0
M  V30 8219 H 773.778 -4.33956 -4.29552 0
M  V30 8220 H 775.192 -5.28201 -2.22883 0
M  V30 8221 H 773.589 -5.7799 -1.61394 0
M  V30 8222 H 774.659 -4.81396 -0.581918 0
M  V30 8223 N 776.003 0.335068 -1.53997 0
M  V30 8224 C 776.933 1.41727 -1.85568 0
M  V30 8225 C 777.914 1.54505 -0.7115 0
M  V30 8226 O 779.099 1.68573 -0.964191 0
M  V30 8227 C 776.229 2.7866 -2.07282 0
M  V30 8228 C 775.183 2.80682 -3.23112 0
M  V30 8229 C 774.509 4.20581 -3.30175 0
M  V30 8230 C 775.809 2.45458 -4.61029 0
M  V30 8231 H 777.503 1.15555 -2.76202 0
M  V30 8232 H 775.049 0.554445 -1.32898 0
M  V30 8233 H 777.002 3.54423 -2.27952 0
M  V30 8234 H 775.726 3.06286 -1.13387 0
M  V30 8235 H 774.385 2.07373 -3.02311 0
M  V30 8236 H 774.033 4.4533 -2.33859 0
M  V30 8237 H 773.733 4.22843 -4.08016 0
M  V30 8238 H 775.257 4.98174 -3.53066 0
M  V30 8239 H 776.671 3.10934 -4.81656 0
M  V30 8240 H 775.068 2.5899 -5.41336 0
M  V30 8241 H 776.138 1.40628 -4.6406 0
M  V30 8242 N 777.481 1.45874 0.596531 0
M  V30 8243 C 778.444 1.54988 1.68853 0
M  V30 8244 C 779.444 0.428302 1.54991 0
M  V30 8245 O 780.634 0.692158 1.59859 0
M  V30 8246 C 777.766 1.457 3.08195 0
M  V30 8247 H 778.959 2.52294 1.62135 0
M  V30 8248 H 776.512 1.33479 0.813206 0
M  V30 8249 H 777.247 0.496204 3.20481 0
M  V30 8250 H 777.032 2.27061 3.19665 0
M  V30 8251 H 778.522 1.55133 3.87716 0
M  V30 8252 N 778.959 -0.83999 1.33349 0
M  V30 8253 C 780.208 -1.59011 1.2409 0
M  V30 8254 C 780.521 -1.94655 -0.192029 0
M  V30 8255 O 781.727 -2.68438 -0.406617 0
M  V30 8256 C 780.183 -2.86801 2.17425 0
M  V30 8257 C 779.791 -2.58525 3.65881 0
M  V30 8258 C 781.535 -3.64823 2.17036 0
M  V30 8259 C 779.442 -3.82404 4.51133 0
M  V30 8260 H 778.372 -0.596731 0.460899 0
M  V30 8261 H 781.023 -0.926274 1.58406 0
M  V30 8262 H 779.405 -3.54719 1.7604 0
M  V30 8263 H 780.579 -1.98824 4.15699 0
M  V30 8264 H 778.894 -1.93808 3.68548 0
M  V30 8265 H 781.491 -4.56774 2.7796 0
M  V30 8266 H 781.834 -3.99663 1.16513 0
M  V30 8267 H 782.367 -3.03826 2.56777 0
M  V30 8268 H 779.106 -3.52696 5.52527 0
M  V30 8269 H 778.626 -4.41447 4.0606 0
M  V30 8270 H 780.305 -4.49995 4.6488 0
M  V30 8271 N 780.437 -1.16799 -1.0581 0
M  V30 8272 C 781.4 -0.881396 -2.11575 0
M  V30 8273 C 782.4 0.12574 -1.60308 0
M  V30 8274 O 783.59 -0.105716 -1.73879 0
M  V30 8275 C 780.722 -0.319037 -3.39404 0
M  V30 8276 H 781.915 -1.81907 -2.38432 0
M  V30 8277 H 779.468 -0.977597 -1.21954 0
M  V30 8278 H 780.203 0.626082 -3.18199 0
M  V30 8279 H 779.988 -1.04481 -3.77923 0
M  V30 8280 H 781.478 -0.13663 -4.17376 0
M  V30 8281 N 781.915 1.24427 -0.967243 0
M  V30 8282 C 783.14 1.9708 -0.646069 0
M  V30 8283 C 783.565 1.71272 0.777665 0
M  V30 8284 O 782.923 0.976179 1.52776 0
M  V30 8285 C 782.971 3.48501 -0.926266 0
M  V30 8286 O 782.075 4.12398 -0.0114653 0
M  V30 8287 H 781.416 0.617423 -0.244304 0
M  V30 8288 H 783.946 1.58215 -1.29727 0
M  V30 8289 H 783.956 3.98885 -0.857619 0
M  V30 8290 H 782.631 3.66613 -1.96386 0
M  V30 8291 H 781.208 3.72661 -0.133396 0
M  V30 8292 N 783.393 0.737304 1.3929 0
M  V30 8293 C 784.618 0.295237 2.05288 0
M  V30 8294 C 785.043 -1.06235 1.55228 0
M  V30 8295 O 784.401 -1.67365 0.697043 0
M  V30 8296 C 784.449 0.309146 3.59272 0
M  V30 8297 O 783.553 -0.702437 4.06374 0
M  V30 8298 H 782.894 0.133762 0.650387 0
M  V30 8299 H 785.424 1.00387 1.78279 0
M  V30 8300 H 785.434 0.154336 4.07708 0
M  V30 8301 H 784.109 1.29974 3.95069 0
M  V30 8302 H 782.686 -0.513574 3.69346 0
M  V30 8303 N 784.871 -1.49948 0.485112 0
M  V30 8304 C 785.801 -2.31675 -0.291364 0
M  V30 8305 C 786.782 -1.39216 -0.977383 0
M  V30 8306 O 787.967 -1.68133 -0.971855 0
M  V30 8307 C 785.097 -3.19326 -1.36558 0
M  V30 8308 C 784.051 -4.2045 -0.800359 0
M  V30 8309 C 783.377 -4.96931 -1.97391 0
M  V30 8310 C 784.677 -5.21925 0.197867 0
M  V30 8311 H 786.371 -2.96839 0.390775 0
M  V30 8312 H 783.917 -1.42749 0.189375 0
M  V30 8313 H 785.87 -3.75304 -1.91638 0
M  V30 8314 H 784.594 -2.52074 -2.07668 0
M  V30 8315 H 783.253 -3.65594 -0.271428 0
M  V30 8316 H 782.901 -4.26141 -2.67232 0
M  V30 8317 H 782.601 -5.65344 -1.60187 0
M  V30 8318 H 784.125 -5.55749 -2.52935 0
M  V30 8319 H 785.539 -5.72691 -0.264239 0
M  V30 8320 H 783.936 -5.98138 0.484908 0
M  V30 8321 H 785.006 -4.71809 1.11912 0
M  V30 8322 N 786.349 -0.21828 -1.56081 0
M  V30 8323 C 787.596 0.414307 -1.98216 0
M  V30 8324 C 787.924 1.60005 -1.10584 0
M  V30 8325 O 787.179 1.95124 -0.150043 0
M  V30 8326 C 787.478 0.894782 -3.46018 0
M  V30 8327 C 787.144 -0.180083 -4.5054 0
M  V30 8328 C 785.806 -0.475367 -4.78846 0
M  V30 8329 C 788.158 -0.907191 -5.13244 0
M  V30 8330 C 785.486 -1.50233 -5.67139 0
M  V30 8331 C 787.838 -1.92347 -6.02649 0
M  V30 8332 C 786.502 -2.22571 -6.293 0
M  V30 8333 H 785.772 0.151606 -0.725325 0
M  V30 8334 H 788.419 -0.320113 -1.88806 0
M  V30 8335 H 786.724 1.7079 -3.52616 0
M  V30 8336 H 788.421 1.39403 -3.75989 0
M  V30 8337 H 785.011 0.06022 -4.28558 0
M  V30 8338 H 789.195 -0.692303 -4.91448 0
M  V30 8339 H 784.451 -1.74215 -5.86054 0
M  V30 8340 H 788.625 -2.49197 -6.50288 0
M  V30 8341 H 786.252 -3.0229 -6.97513 0
M  V30 8342 N 787.827 1.57504 0.0551401 0
M  V30 8343 C 789.073 1.88334 0.752216 0
M  V30 8344 C 789.406 0.812742 1.76375 0
M  V30 8345 O 788.681 -0.175198 1.93709 0
M  V30 8346 C 788.964 3.29824 1.44528 0
M  V30 8347 C 788.817 4.47553 0.449026 0
M  V30 8348 C 790.136 3.69808 2.38601 0
M  V30 8349 H 787.255 0.684973 0.271995 0
M  V30 8350 H 789.897 1.89994 0.0151895 0
M  V30 8351 H 788.047 3.28539 2.07351 0
M  V30 8352 H 789.719 4.60967 -0.175277 0
M  V30 8353 H 787.962 4.33168 -0.234162 0
M  V30 8354 H 788.633 5.43376 0.971917 0
M  V30 8355 H 791.109 3.72293 1.85842 0
M  V30 8356 H 789.985 4.69665 2.84088 0
M  V30 8357 H 790.246 3.00641 3.24141 0
M  V30 8358 N 789.305 -0.326896 1.54172 0
M  V30 8359 C 790.268 -1.38515 1.8261 0
M  V30 8360 C 791.268 -1.44872 0.697771 0
M  V30 8361 O 792.458 -1.44957 0.966078 0
M  V30 8362 C 789.59 -2.77281 1.98313 0
M  V30 8363 H 790.783 -1.14556 2.77159 0
M  V30 8364 H 788.336 -0.562199 1.45839 0
M  V30 8365 H 789.071 -3.065 1.05964 0
M  V30 8366 H 788.856 -2.74061 2.80416 0
M  V30 8367 H 790.346 -3.53845 2.21773 0
M  V30 8368 N 790.784 -1.46188 -0.588786 0
M  V30 8369 C 792.031 -1.51184 -1.34721 0
M  V30 8370 C 792.359 -0.161084 -1.93832 0
M  V30 8371 O 791.614 0.842557 -1.76634 0
M  V30 8372 C 791.913 -2.55364 -2.50048 0
M  V30 8373 C 791.579 -3.99553 -2.08969 0
M  V30 8374 C 790.241 -4.38811 -1.9748 0
M  V30 8375 C 792.593 -4.90156 -1.77191 0
M  V30 8376 C 789.921 -5.66544 -1.52463 0
M  V30 8377 C 792.273 -6.1832 -1.33654 0
M  V30 8378 C 790.937 -6.5649 -1.20738 0
M  V30 8379 H 790.207 -0.55322 -0.49298 0
M  V30 8380 H 792.854 -1.79634 -0.663627 0
M  V30 8381 H 791.159 -2.20552 -3.23827 0
M  V30 8382 H 792.856 -2.5646 -3.08268 0
M  V30 8383 H 789.446 -3.68518 -2.18843 0
M  V30 8384 H 793.63 -4.60549 -1.84955 0
M  V30 8385 H 788.886 -5.94895 -1.411 0
M  V30 8386 H 793.06 -6.87956 -1.08117 0
M  V30 8387 H 790.687 -7.55362 -0.856307 0
M  V30 8388 N 792.262 0.832906 -1.33792 0
M  V30 8389 C 793.194 1.95042 -1.2038 0
M  V30 8390 C 794.207 1.62253 -0.133299 0
M  V30 8391 O 795.396 1.74315 -0.384261 0
M  V30 8392 C 792.496 3.287 -0.825215 0
M  V30 8393 C 791.669 3.89581 -1.98861 0
M  V30 8394 C 790.728 5.01602 -1.59003 0
M  V30 8395 O 789.754 5.20431 -2.30522 0
M  V30 8396 N 790.956 5.78356 -0.498446 0
M  V30 8397 H 793.721 2.07083 -2.16649 0
M  V30 8398 H 791.282 1.00896 -1.26616 0
M  V30 8399 H 793.274 4.01074 -0.540559 0
M  V30 8400 H 791.844 3.12565 0.0469796 0
M  V30 8401 H 791.064 3.09723 -2.43856 0
M  V30 8402 H 792.352 4.26989 -2.76691 0
M  V30 8403 H 791.75 5.65618 0.0963297 0
M  V30 8404 H 790.307 6.51226 -0.273485 0
M  V30 8405 N 793.74 1.17359 1.05189 0
M  V30 8406 C 794.67 0.91365 2.14883 0
M  V30 8407 C 795.651 -0.144365 1.69486 0
M  V30 8408 O 796.836 0.00587861 1.94199 0
M  V30 8409 C 793.966 0.426196 3.44675 0
M  V30 8410 C 792.92 1.4234 4.03638 0
M  V30 8411 C 792.246 0.793902 5.28773 0
M  V30 8412 C 793.546 2.7966 4.41121 0
M  V30 8413 H 795.24 1.831 2.36885 0
M  V30 8414 H 792.786 0.881781 1.13845 0
M  V30 8415 H 794.739 0.231767 4.20762 0
M  V30 8416 H 793.463 -0.526693 3.22325 0
M  V30 8417 H 792.122 1.60457 3.2962 0
M  V30 8418 H 791.77 -0.165824 5.02727 0
M  V30 8419 H 791.47 1.45959 5.69183 0
M  V30 8420 H 792.994 0.609747 6.07548 0
M  V30 8421 H 794.408 2.6526 5.08242 0
M  V30 8422 H 792.805 3.42807 4.92548 0
M  V30 8423 H 793.875 3.34068 3.51464 0
M  V30 8424 N 795.218 -1.23913 0.973828 0
M  V30 8425 C 796.634 -1.44325 0.681363 0
M  V30 8426 C 796.834 -1.86832 -0.754728 0
M  V30 8427 O 795.89 -2.01024 -1.52793 0
M  V30 8428 C 797.203 -2.50017 1.67069 0
M  V30 8429 C 798.751 -2.63838 1.68399 0
M  V30 8430 C 799.226 -3.72734 2.66145 0
M  V30 8431 N 800.717 -3.80169 2.64624 0
M  V30 8432 C 801.452 -4.6397 3.36927 0
M  V30 8433 N 800.948 -5.51911 4.18767 0
M  V30 8434 N 802.741 -4.58106 3.25722 0
M  V30 8435 H 794.892 -0.946204 1.9016 0
M  V30 8436 H 797.155 -0.477374 0.819035 0
M  V30 8437 H 796.861 -2.25686 2.69738 0
M  V30 8438 H 796.735 -3.48287 1.4483 0
M  V30 8439 H 799.122 -2.87524 0.664379 0
M  V30 8440 H 799.203 -1.65906 1.94702 0
M  V30 8441 H 798.847 -3.49797 3.68245 0
M  V30 8442 H 798.777 -4.70193 2.3712 0
M  V30 8443 H 801.268 -3.17319 2.05224 0
M  V30 8444 H 801.581 -6.12828 4.70809 0
M  V30 8445 H 799.926 -5.51556 4.2286 0
M  V30 8446 H 803.117 -3.8842 2.61242 0
M  V30 8447 H 803.29 -5.23188 3.82333 0
M  V30 8448 N 796.696 -0.74468 -1.38897 0
M  V30 8449 C 797.659 -0.11945 -2.28889 0
M  V30 8450 C 798.659 0.656942 -1.46768 0
M  V30 8451 O 799.849 0.484525 -1.67326 0
M  V30 8452 C 796.981 0.839635 -3.30398 0
M  V30 8453 H 798.174 -0.912414 -2.85683 0
M  V30 8454 H 795.727 -0.511119 -1.47707 0
M  V30 8455 H 796.462 1.6586 -2.78677 0
M  V30 8456 H 796.247 0.285432 -3.9106 0
M  V30 8457 H 797.737 1.27337 -3.97712 0
M  V30 8458 N 798.174 1.49689 -0.493057 0
M  V30 8459 C 799.106 2.26867 0.326195 0
M  V30 8460 C 800.119 1.33083 0.937697 0
M  V30 8461 O 801.308 1.58427 0.822382 0
M  V30 8462 C 798.408 3.0519 1.4735 0
M  V30 8463 C 797.581 4.26491 0.970767 0
M  V30 8464 C 796.64 4.86926 1.99473 0
M  V30 8465 O 795.666 5.47221 1.56647 0
M  V30 8466 N 796.868 4.75871 3.32456 0
M  V30 8467 H 799.633 2.97816 -0.335547 0
M  V30 8468 H 797.194 1.58602 -0.325129 0
M  V30 8469 H 799.186 3.42496 2.15589 0
M  V30 8470 H 797.756 2.369 2.03954 0
M  V30 8471 H 796.976 3.94036 0.113529 0
M  V30 8472 H 798.264 5.05092 0.613156 0
M  V30 8473 H 797.662 4.2797 3.69944 0
M  V30 8474 H 796.219 5.17383 3.96431 0
M  V30 8475 N 799.652 0.226554 1.55963 0
M  V30 8476 C 800.602 -0.694986 2.1715 0
M  V30 8477 C 801.586 -1.15394 1.12129 0
M  V30 8478 O 802.778 -1.1071 1.38102 0
M  V30 8479 C 799.907 -1.9007 2.85882 0
M  V30 8480 C 798.993 -1.46119 3.98133 0
M  V30 8481 N 799.384 -0.734584 5.00437 0
M  V30 8482 C 797.682 -1.74809 4.10314 0
M  V30 8483 C 798.383 -0.509773 5.79462 0
M  V30 8484 N 797.359 -1.06796 5.33006 0
M  V30 8485 H 801.161 -0.131469 2.93606 0
M  V30 8486 H 798.675 0.0280165 1.62376 0
M  V30 8487 H 800.672 -2.57169 3.28131 0
M  V30 8488 H 799.332 -2.46864 2.10923 0
M  V30 8489 H 800.343 -0.386757 5.16454 0
M  V30 8490 H 797.02 -2.32887 3.46511 0
M  V30 8491 H 798.41 0.0688847 6.71865 0
M  V30 8492 N 801.13 -1.57531 -0.0467866 0
M  V30 8493 C 802.377 -1.88451 -0.74112 0
M  V30 8494 C 802.705 -0.821592 -1.76296 0
M  V30 8495 O 801.96 0.179585 -1.94874 0
M  V30 8496 C 802.259 -3.26091 -1.46285 0
M  V30 8497 C 801.925 -4.47171 -0.578669 0
M  V30 8498 C 800.587 -4.80032 -0.335083 0
M  V30 8499 C 802.939 -5.2119 0.0328809 0
M  V30 8500 C 800.267 -5.84309 0.529121 0
M  V30 8501 C 802.619 -6.26383 0.884684 0
M  V30 8502 C 801.283 -6.57729 1.1379 0
M  V30 8503 H 800.553 -0.68959 -0.271195 0
M  V30 8504 H 803.2 -1.915 -0.00132378 0
M  V30 8505 H 801.505 -3.18948 -2.27551 0
M  V30 8506 H 803.202 -3.47258 -2.00532 0
M  V30 8507 H 799.792 -4.21467 -0.778666 0
M  V30 8508 H 803.976 -4.96096 -0.142375 0
M  V30 8509 H 799.232 -6.06981 0.733794 0
M  V30 8510 H 803.406 -6.82888 1.36516 0
M  V30 8511 H 801.033 -7.38355 1.80929 0
M  V30 8512 N 802.608 0.318715 -1.54344 0
M  V30 8513 C 803.54 1.41364 -1.80413 0
M  V30 8514 C 804.553 1.47627 -0.686294 0
M  V30 8515 O 805.742 1.50264 -0.963486 0
M  V30 8516 C 802.842 2.79867 -1.91123 0
M  V30 8517 C 802.015 2.96749 -3.21339 0
M  V30 8518 C 801.074 4.15642 -3.22689 0
M  V30 8519 O 800.1 4.08571 -3.96306 0
M  V30 8520 N 801.302 5.25416 -2.46817 0
M  V30 8521 H 804.067 1.19363 -2.74905 0
M  V30 8522 H 801.628 0.508722 -1.537 0
M  V30 8523 H 803.62 3.57619 -1.89448 0
M  V30 8524 H 802.19 2.94896 -1.03706 0
M  V30 8525 H 801.41 2.06257 -3.35934 0
M  V30 8526 H 802.698 3.04927 -4.07304 0
M  V30 8527 H 802.096 5.34037 -1.86605 0
M  V30 8528 H 800.653 6.01569 -2.50915 0
M  V30 8529 N 804.086 1.46499 0.581025 0
M  V30 8530 C 804.996 1.59778 1.71779 0
M  V30 8531 C 806.012 0.481223 1.67213 0
M  V30 8532 O 807.188 0.74557 1.87091 0
M  V30 8533 C 804.253 1.58626 3.08283 0
M  V30 8534 C 803.314 2.81527 3.241 0
M  V30 8535 C 802.547 2.80421 4.54092 0
M  V30 8536 O 802.77 1.89262 5.38085 0
M  V30 8537 O 801.704 3.71984 4.73193 0
M  V30 8538 H 805.53 2.55918 1.63523 0
M  V30 8539 H 803.115 1.29311 0.748267 0
M  V30 8540 H 804.997 1.60686 3.89561 0
M  V30 8541 H 803.672 0.656467 3.16973 0
M  V30 8542 H 802.579 2.85021 2.42309 0
M  V30 8543 H 803.912 3.73721 3.20302 0
M  V30 8544 N 805.565 -0.825799 1.34232 0
M  V30 8545 C 806.513 -1.95792 1.25572 0
M  V30 8546 C 807.507 -1.68695 0.154404 0
M  V30 8547 O 808.713 -1.77147 0.319196 0
M  V30 8548 H 805.088 -0.642949 0.390027 0
M  V30 8549 H 807.059 -2.00219 2.21258 0
M  V30 8550 C 805.808 -3.32245 1.02511 0
M  V30 8551 H 805.131 -3.53642 1.86487 0
M  V30 8552 H 806.571 -4.1192 1.00487 0
M  V30 8553 C 805.03 -3.35803 -0.27167 0
M  V30 8554 O 805.56 -3.80962 -1.274 0
M  V30 8555 N 803.766 -2.89008 -0.303778 0
M  V30 8556 H 803.313 -2.52451 0.512464 0
M  V30 8557 H 803.271 -2.9177 -1.17121 0
M  V30 8558 N 807.043 -1.17915 -1.04565 0
M  V30 8559 C 808.268 -0.996749 -1.81878 0
M  V30 8560 C 808.693 0.450169 -1.82634 0
M  V30 8561 O 808.051 1.32268 -1.23995 0
M  V30 8562 C 808.099 -1.55005 -3.25585 0
M  V30 8563 O 807.203 -0.76804 -4.05185 0
M  V30 8564 H 806.544 -0.353456 -0.562108 0
M  V30 8565 H 809.074 -1.56557 -1.31723 0
M  V30 8566 H 809.084 -1.57503 -3.76373 0
M  V30 8567 H 807.759 -2.60327 -3.2435 0
M  V30 8568 H 806.336 -0.81498 -3.63885 0
M  V30 8569 N 808.521 1.23394 -0.980386 0
M  V30 8570 C 809.937 1.43961 -0.689008 0
M  V30 8571 C 810.137 1.87229 0.744809 0
M  V30 8572 O 809.193 2.01831 1.51725 0
M  V30 8573 C 810.506 2.49128 -1.68392 0
M  V30 8574 C 812.054 2.62941 -1.69796 0
M  V30 8575 C 812.529 3.71317 -2.68118 0
M  V30 8576 N 814.02 3.7876 -2.66636 0
M  V30 8577 C 814.755 4.62176 -3.39383 0
M  V30 8578 N 814.251 5.49682 -4.21688 0
M  V30 8579 N 816.044 4.56372 -3.28147 0
M  V30 8580 H 808.195 0.936106 -1.90659 0
M  V30 8581 H 810.458 0.473023 -0.821555 0
M  V30 8582 H 810.164 2.24252 -2.70931 0
M  V30 8583 H 810.038 3.47514 -1.46675 0
M  V30 8584 H 812.425 2.87168 -0.679617 0
M  V30 8585 H 812.506 1.64871 -1.95579 0
M  V30 8586 H 812.15 3.4784 -3.70095 0
M  V30 8587 H 812.08 4.68929 -2.3961 0
M  V30 8588 H 814.571 3.16226 -2.06904 0
M  V30 8589 H 814.884 6.10323 -4.74053 0
M  V30 8590 H 813.229 5.49306 -4.25779 0
M  V30 8591 H 816.42 3.87029 -2.63299 0
M  V30 8592 H 816.593 5.21153 -3.85102 0
M  V30 8593 N 809.999 0.752036 1.385 0
M  V30 8594 C 810.932 0.0717411 2.28087 0
M  V30 8595 C 811.91 -0.729945 1.45295 0
M  V30 8596 O 813.094 -0.708902 1.74662 0
M  V30 8597 C 810.221 -0.905237 3.26379 0
M  V30 8598 C 809.267 -0.189973 4.26077 0
M  V30 8599 S 810.1 1.10815 5.23909 0
M  V30 8600 C 811.256 0.134202 6.25756 0
M  V30 8601 H 811.489 0.831438 2.85437 0
M  V30 8602 H 809.022 0.544552 1.44478 0
M  V30 8603 H 810.98 -1.46358 3.83523 0
M  V30 8604 H 809.641 -1.63789 2.68015 0
M  V30 8605 H 808.834 -0.92985 4.95348 0
M  V30 8606 H 808.436 0.296804 3.7282 0
M  V30 8607 H 810.728 -0.700345 6.7387 0
M  V30 8608 H 811.671 0.794532 7.03628 0
M  V30 8609 H 812.079 -0.245801 5.63965 0
M  V30 8610 N 811.477 -1.49425 0.500989 0
M  V30 8611 C 812.888 -1.86624 0.0532011 0
M  V30 8612 C 813.239 -1.41331 -1.36088 0
M  V30 8613 O 812.364 -0.791195 -2.01418 0
M  V30 8614 C 812.959 -3.38681 0.0897693 0
M  V30 8615 C 811.518 -3.75181 -0.302677 0
M  V30 8616 C 810.665 -2.73419 0.462307 0
M  V30 8617 H 813.616 -1.41743 0.713773 0
M  V30 8618 H 813.637 -3.73902 -0.705528 0
M  V30 8619 H 813.149 -3.71616 1.11907 0
M  V30 8620 H 811.25 -3.47855 -1.33521 0
M  V30 8621 H 811.363 -4.79097 0.0167653 0
M  V30 8622 H 809.727 -2.54548 -0.0878557 0
M  V30 8623 H 810.51 -3.09198 1.49169 0
M  V30 8624 N 812.955 -0.234822 -1.55841 0
M  V30 8625 C 814.201 0.393843 -1.98939 0
M  V30 8626 C 814.534 1.58466 -1.1226 0
M  V30 8627 O 813.809 1.93635 -0.183242 0
M  V30 8628 C 814.092 0.815492 -3.50745 0
M  V30 8629 C 813.945 -0.379878 -4.48193 0
M  V30 8630 C 815.264 1.66687 -4.07312 0
M  V30 8631 H 812.383 0.141681 -0.723253 0
M  V30 8632 H 815.025 -0.333716 -1.87046 0
M  V30 8633 H 813.175 1.43541 -3.6101 0
M  V30 8634 H 814.847 -1.0182 -4.49923 0
M  V30 8635 H 813.09 -1.02507 -4.21515 0
M  V30 8636 H 813.761 -0.0417069 -5.51984 0
M  V30 8637 H 816.237 1.14369 -4.00074 0
M  V30 8638 H 815.113 1.93078 -5.13821 0
M  V30 8639 H 815.374 2.63468 -3.55017 0
M  V30 8640 N 814.433 1.57553 0.0384317 0
M  V30 8641 C 815.682 1.88022 0.730108 0
M  V30 8642 C 815.995 0.83209 1.77019 0
M  V30 8643 O 817.201 1.0257 2.51379 0
M  V30 8644 C 815.657 3.33637 1.3496 0
M  V30 8645 C 815.265 4.46659 0.346352 0
M  V30 8646 C 817.009 3.73266 2.02169 0
M  V30 8647 C 814.916 5.8333 0.973652 0
M  V30 8648 H 813.846 0.701496 0.276442 0
M  V30 8649 H 816.497 1.83493 -0.0158028 0
M  V30 8650 H 814.879 3.32882 2.1449 0
M  V30 8651 H 816.053 4.58868 -0.421558 0
M  V30 8652 H 814.368 4.15802 -0.223133 0
M  V30 8653 H 816.965 4.72689 2.49938 0
M  V30 8654 H 817.308 3.04776 2.8358 0
M  V30 8655 H 817.841 3.76156 1.29427 0
M  V30 8656 H 814.58 6.55197 0.199163 0
M  V30 8657 H 814.1 5.7486 1.71162 0
M  V30 8658 H 815.779 6.29757 1.48376 0
M  V30 8659 N 815.911 -0.310526 1.54511 0
M  V30 8660 C 816.858 -1.38264 1.84802 0
M  V30 8661 C 817.828 -1.50808 0.696141 0
M  V30 8662 O 819.013 -1.6582 0.943846 0
M  V30 8663 C 816.153 -2.74422 2.09252 0
M  V30 8664 C 815.266 -2.70405 3.36906 0
M  V30 8665 C 814.401 -3.98495 3.51248 0
M  V30 8666 C 813.44 -3.88836 4.72729 0
M  V30 8667 N 812.577 -5.08683 4.83928 0
M  V30 8668 H 817.417 -1.11732 2.76261 0
M  V30 8669 H 814.954 -0.540609 1.36806 0
M  V30 8670 H 816.912 -3.53593 2.21422 0
M  V30 8671 H 815.542 -2.99235 1.2107 0
M  V30 8672 H 814.594 -1.83151 3.33406 0
M  V30 8673 H 815.906 -2.59155 4.26193 0
M  V30 8674 H 815.06 -4.861 3.63031 0
M  V30 8675 H 813.799 -4.12567 2.60077 0
M  V30 8676 H 812.804 -2.99615 4.60989 0
M  V30 8677 H 814.029 -3.76318 5.65298 0
M  V30 8678 H 811.975 -5.23236 3.95677 0
M  V30 8679 H 811.892 -4.99819 5.67201 0
M  V30 8680 H 813.16 -5.97966 5.00057 0
M  V30 8681 N 817.389 -1.46805 -0.573248 0
M  V30 8682 C 818.8 -1.46655 -1.15539 0
M  V30 8683 C 819.151 -0.2125 -1.95046 0
M  V30 8684 O 818.276 0.683759 -2.05314 0
M  V30 8685 C 818.871 -2.65711 -2.10198 0
M  V30 8686 C 817.43 -2.68572 -2.63716 0
M  V30 8687 C 816.577 -2.39498 -1.39772 0
M  V30 8688 H 819.528 -1.54547 -0.36068 0
M  V30 8689 H 819.549 -2.41768 -2.93817 0
M  V30 8690 H 819.061 -3.56967 -1.52303 0
M  V30 8691 H 817.162 -1.81414 -3.25453 0
M  V30 8692 H 817.275 -3.68809 -3.05805 0
M  V30 8693 H 815.639 -1.89749 -1.69904 0
M  V30 8694 H 816.422 -3.32942 -0.836943 0
M  V30 8695 N 818.867 0.818669 -1.34668 0
M  V30 8696 C 820.144 1.56118 -1.17841 0
M  V30 8697 C 820.524 2.09646 0.24731 0
M  V30 8698 O 819.872 1.91329 1.24922 0
M  V30 8699 C 820.082 2.67922 -2.23649 0
M  V30 8700 C 821.43 3.36579 -2.58843 0
M  V30 8701 O 822.454 2.78182 -2.22471 0
M  V30 8702 O 821.313 4.42045 -3.21339 0
M  V30 8703 H 818.407 0.689216 -0.457067 0
M  V30 8704 H 820.953 0.859674 -1.46314 0
M  V30 8705 H 819.725 2.26153 -3.19328 0
M  V30 8706 H 819.348 3.45719 -1.96377 0
M  V30 8707 N 820.346 1.18468 1.03938 0
M  V30 8708 C 821.595 0.975193 1.76558 0
M  V30 8709 C 821.908 -0.495978 1.89207 0
M  V30 8710 O 823.114 -0.824009 2.58694 0
M  V30 8711 C 821.57 1.69579 3.17444 0
M  V30 8712 C 821.178 3.20636 3.12884 0
M  V30 8713 C 822.922 1.56917 3.94433 0
M  V30 8714 C 820.829 3.8533 4.48636 0
M  V30 8715 H 819.759 0.361244 0.66183 0
M  V30 8716 H 822.41 1.41854 1.16403 0
M  V30 8717 H 820.792 1.18022 3.78004 0
M  V30 8718 H 821.966 3.79228 2.61768 0
M  V30 8719 H 820.281 3.33454 2.49394 0
M  V30 8720 H 822.878 2.02611 4.94826 0
M  V30 8721 H 823.221 0.521638 4.13019 0
M  V30 8722 H 823.754 2.05762 3.40451 0
M  V30 8723 H 820.493 4.90136 4.35255 0
M  V30 8724 H 820.013 3.31526 4.99851 0
M  V30 8725 H 821.692 3.88269 5.17549 0
M  V30 8726 N 821.824 -1.22873 0.986916 0
M  V30 8727 C 822.787 -2.2281 0.537442 0
M  V30 8728 C 823.787 -1.56331 -0.37646 0
M  V30 8729 O 824.977 -1.73376 -0.169247 0
M  V30 8730 C 822.109 -3.40195 -0.219082 0
M  V30 8731 H 823.302 -2.64089 1.42116 0
M  V30 8732 H 820.855 -1.35819 0.773488 0
M  V30 8733 H 821.59 -3.04381 -1.11905 0
M  V30 8734 H 821.375 -3.89657 0.437026 0
M  V30 8735 H 822.865 -4.14326 -0.521926 0
M  V30 8736 N 823.302 -0.75937 -1.38099 0
M  V30 8737 C 824.25 -0.124954 -2.32264 0
M  V30 8738 C 825.244 0.698863 -1.54312 0
M  V30 8739 O 826.45 0.597312 -1.698 0
M  V30 8740 H 822.825 -0.0216142 -0.751689 0
M  V30 8741 H 824.796 -0.935115 -2.83369 0
M  V30 8742 C 823.545 0.749463 -3.39527 0
M  V30 8743 H 822.868 0.124932 -3.99605 0
M  V30 8744 H 824.308 1.16055 -4.07808 0
M  V30 8745 C 822.767 1.89464 -2.78577 0
M  V30 8746 O 823.297 2.98923 -2.68343 0
M  V30 8747 N 821.503 1.69145 -2.36301 0
M  V30 8748 H 821.05 0.801157 -2.44825 0
M  V30 8749 H 821.008 2.45936 -1.95864 0
M  V30 8750 N 824.78 1.49157 -0.508906 0
M  V30 8751 C 826.026 2.03385 0.0248089 0
M  V30 8752 C 826.381 1.381 1.33964 0
M  V30 8753 O 825.674 0.510317 1.84679 0
M  V30 8754 C 825.868 3.56687 0.225717 0
M  V30 8755 C 825.697 4.36832 -1.06809 0
M  V30 8756 C 824.467 4.78556 -1.6221 0
M  V30 8757 C 826.665 4.74934 -1.97338 0
M  V30 8758 N 824.647 5.43158 -2.86098 0
M  V30 8759 C 826.018 5.39336 -3.05805 0
M  V30 8760 C 828.073 4.56872 -1.97921 0
M  V30 8761 C 826.776 5.87587 -4.1489 0
M  V30 8762 C 828.802 5.06089 -3.05987 0
M  V30 8763 C 828.164 5.70499 -4.13172 0
M  V30 8764 H 824.263 0.781349 -0.0318988 0
M  V30 8765 H 826.847 1.82233 -0.685518 0
M  V30 8766 H 825.018 3.77707 0.905108 0
M  V30 8767 H 826.75 3.97554 0.757147 0
M  V30 8768 H 823.505 4.59017 -1.16621 0
M  V30 8769 H 823.929 5.8004 -3.49116 0
M  V30 8770 H 828.571 4.06474 -1.16357 0
M  V30 8771 H 826.289 6.37002 -4.97247 0
M  V30 8772 H 829.875 4.93919 -3.07466 0
M  V30 8773 H 828.755 6.07893 -4.95415 0
M  V30 8774 N 826.258 0.243083 1.55714 0
M  V30 8775 C 827.168 -0.668913 2.24862 0
M  V30 8776 C 828.184 -1.19638 1.26344 0
M  V30 8777 O 829.36 -1.23345 1.5921 0
M  V30 8778 C 826.425 -1.85084 2.93163 0
M  V30 8779 C 825.486 -1.36323 4.07081 0
M  V30 8780 C 824.719 -2.48882 4.72116 0
M  V30 8781 O 824.942 -3.67523 4.36214 0
M  V30 8782 O 823.876 -2.18857 5.60701 0
M  V30 8783 H 827.702 -0.109737 3.03502 0
M  V30 8784 H 825.287 0.0117411 1.49395 0
M  V30 8785 H 827.169 -2.54065 3.36197 0
M  V30 8786 H 825.844 -2.39771 2.17466 0
M  V30 8787 H 824.751 -0.640804 3.68571 0
M  V30 8788 H 826.084 -0.86249 4.84584 0
M  V30 8789 N 827.736 -1.57571 -0.0300757 0
M  V30 8790 C 828.666 -2.0953 -1.03051 0
M  V30 8791 C 829.647 -0.99761 -1.37774 0
M  V30 8792 O 830.832 -1.27279 -1.46676 0
M  V30 8793 C 827.962 -2.57385 -2.33174 0
M  V30 8794 C 826.916 -3.71409 -2.12696 0
M  V30 8795 C 826.242 -4.05467 -3.4857 0
M  V30 8796 C 827.542 -4.99877 -1.51396 0
M  V30 8797 H 829.236 -2.93367 -0.597999 0
M  V30 8798 H 826.782 -1.41127 -0.286203 0
M  V30 8799 H 828.735 -2.92355 -3.03491 0
M  V30 8800 H 827.459 -1.70629 -2.78484 0
M  V30 8801 H 826.118 -3.36786 -1.44813 0
M  V30 8802 H 825.766 -3.15779 -3.91526 0
M  V30 8803 H 825.466 -4.82269 -3.35694 0
M  V30 8804 H 826.99 -4.4297 -4.2025 0
M  V30 8805 H 828.404 -5.3281 -2.11629 0
M  V30 8806 H 826.801 -5.81283 -1.49098 0
M  V30 8807 H 827.871 -4.82522 -0.479676 0
M  V30 8808 N 829.214 0.302327 -1.54673 0
M  V30 8809 C 830.439 1.06103 -1.78205 0
M  V30 8810 C 830.864 1.80204 -0.53926 0
M  V30 8811 O 830.222 1.73975 0.510142 0
M  V30 8812 C 830.27 2.01829 -2.98827 0
M  V30 8813 O 829.374 3.10108 -2.71858 0
M  V30 8814 H 828.715 0.30487 -0.589873 0
M  V30 8815 H 831.245 0.340153 -2.01753 0
M  V30 8816 H 831.255 2.44319 -3.2676 0
M  V30 8817 H 829.93 1.473 -3.88942 0
M  V30 8818 H 828.507 2.72142 -2.54937 0
M  V30 8819 N 830.692 1.47107 0.565454 0
M  V30 8820 C 831.938 1.53535 1.32495 0
M  V30 8821 C 832.271 0.193537 1.93233 0
M  V30 8822 O 831.546 -0.796956 1.77423 0
M  V30 8823 C 831.829 2.64712 2.4413 0
M  V30 8824 C 831.682 4.08482 1.88314 0
M  V30 8825 C 833.001 2.71853 3.46098 0
M  V30 8826 H 830.12 0.558926 0.480386 0
M  V30 8827 H 832.762 1.79125 0.633575 0
M  V30 8828 H 830.912 2.43023 3.03104 0
M  V30 8829 H 832.584 4.4151 1.33665 0
M  V30 8830 H 830.827 4.17148 1.19037 0
M  V30 8831 H 831.498 4.82032 2.68978 0
M  V30 8832 H 833.974 2.91397 2.97031 0
M  V30 8833 H 832.85 3.51433 4.21646 0
M  V30 8834 H 833.111 1.78584 4.04426 0
M  V30 8835 N 832.17 -0.811516 1.35101 0
M  V30 8836 C 833.117 -1.92308 1.27617 0
M  V30 8837 C 834.087 -1.6543 0.149091 0
M  V30 8838 O 835.272 -1.8789 0.331974 0
M  V30 8839 C 832.412 -3.28768 1.04908 0
M  V30 8840 C 831.525 -3.67865 2.26493 0
M  V30 8841 C 830.66 -4.9333 1.96974 0
M  V30 8842 C 829.699 -5.25041 3.1464 0
M  V30 8843 N 828.836 -6.41685 2.84929 0
M  V30 8844 H 833.676 -1.98041 2.22674 0
M  V30 8845 H 831.213 -0.968755 1.10696 0
M  V30 8846 H 833.171 -4.07426 0.897749 0
M  V30 8847 H 831.801 -3.22517 0.135151 0
M  V30 8848 H 830.853 -2.84507 2.52507 0
M  V30 8849 H 832.165 -3.87263 3.14371 0
M  V30 8850 H 831.319 -5.79803 1.78643 0
M  V30 8851 H 830.058 -4.75958 1.06374 0
M  V30 8852 H 829.063 -4.3706 3.33554 0
M  V30 8853 H 830.288 -5.44346 4.06035 0
M  V30 8854 H 828.234 -6.25747 1.96918 0
M  V30 8855 H 828.151 -6.6131 3.66341 0
M  V30 8856 H 829.419 -7.31198 2.70128 0
M  V30 8857 N 833.648 -1.19017 -1.03309 0
M  V30 8858 C 834.578 -0.94772 -2.13402 0
M  V30 8859 C 835.559 0.117383 -1.69694 0
M  V30 8860 O 836.744 -0.0367733 -1.94165 0
M  V30 8861 C 833.874 -0.480977 -3.43953 0
M  V30 8862 C 832.828 -1.48743 -4.01322 0
M  V30 8863 C 832.154 -0.877924 -5.27443 0
M  V30 8864 C 833.454 -2.86642 -4.36616 0
M  V30 8865 H 835.148 -1.86846 -2.33942 0
M  V30 8866 H 832.694 -0.899781 -1.12427 0
M  V30 8867 H 834.647 -0.298677 -4.2034 0
M  V30 8868 H 833.371 0.475348 -3.23122 0
M  V30 8869 H 832.03 -1.65681 -3.27025 0
M  V30 8870 H 831.678 0.0858232 -5.02927 0
M  V30 8871 H 831.378 -1.54996 -5.66789 0
M  V30 8872 H 832.902 -0.706326 -6.06501 0
M  V30 8873 H 834.316 -2.73312 -5.03958 0
M  V30 8874 H 832.713 -3.50599 -4.87032 0
M  V30 8875 H 833.783 -3.39617 -3.46105 0
M  V30 8876 N 835.127 1.22348 -0.993418 0
M  V30 8877 C 836.077 2.221 -0.515333 0
M  V30 8878 C 837.061 1.55409 0.416762 0
M  V30 8879 O 838.253 1.75317 0.243497 0
M  V30 8880 C 835.382 3.42888 0.168173 0
M  V30 8881 C 834.468 4.16786 -0.784257 0
M  V30 8882 N 834.859 4.67435 -1.93231 0
M  V30 8883 C 833.157 4.41942 -0.600243 0
M  V30 8884 C 833.858 5.23792 -2.53016 0
M  V30 8885 N 832.834 5.12483 -1.8128 0
M  V30 8886 H 836.636 2.58902 -1.39093 0
M  V30 8887 H 834.15 1.38024 -0.855747 0
M  V30 8888 H 836.147 4.13542 0.528069 0
M  V30 8889 H 834.807 3.07598 1.03989 0
M  V30 8890 H 835.818 4.63375 -2.31309 0
M  V30 8891 H 832.495 4.16891 0.225369 0
M  V30 8892 H 833.885 5.73515 -3.50043 0
M  V30 8893 N 836.605 0.766683 1.37694 0
M  V30 8894 C 837.882 0.25366 1.93948 0
M  V30 8895 C 838.262 -1.25041 1.70082 0
M  V30 8896 O 837.61 -2.03115 1.04674 0
M  V30 8897 C 837.82 0.621549 3.43421 0
M  V30 8898 C 839.168 0.588504 4.20502 0
M  V30 8899 O 840.192 0.560632 3.5176 0
M  V30 8900 O 839.051 0.61107 5.43073 0
M  V30 8901 H 836.145 0.0570586 0.825029 0
M  V30 8902 H 838.691 0.847693 1.47011 0
M  V30 8903 H 837.463 1.65979 3.54354 0
M  V30 8904 H 837.086 0.000197027 3.976 0
M  V30 8905 N 838.083 -1.48885 0.516809 0
M  V30 8906 C 839.03 -2.29408 -0.253125 0
M  V30 8907 C 840 -1.36533 -0.945935 0
M  V30 8908 O 841.185 -1.65495 -0.949527 0
M  V30 8909 C 838.325 -3.19592 -1.30211 0
M  V30 8910 C 837.438 -4.27535 -0.61948 0
M  V30 8911 C 836.573 -5.04916 -1.65026 0
M  V30 8912 C 835.612 -6.04677 -0.950368 0
M  V30 8913 N 834.749 -6.75164 -1.92608 0
M  V30 8914 H 839.589 -2.94738 0.439744 0
M  V30 8915 H 837.126 -1.45311 0.2287 0
M  V30 8916 H 839.084 -3.70267 -1.92245 0
M  V30 8917 H 837.714 -2.56213 -1.96353 0
M  V30 8918 H 836.766 -3.80228 0.114505 0
M  V30 8919 H 838.078 -4.98752 -0.0693016 0
M  V30 8920 H 837.232 -5.59539 -2.34523 0
M  V30 8921 H 835.971 -4.33508 -2.23432 0
M  V30 8922 H 834.976 -5.4927 -0.241252 0
M  V30 8923 H 836.201 -6.78077 -0.372599 0
M  V30 8924 H 834.147 -6.06517 -2.49946 0
M  V30 8925 H 834.064 -7.4241 -1.42699 0
M  V30 8926 H 835.332 -7.34384 -2.61345 0
M  V30 8927 N 839.561 -0.251338 -1.55583 0
M  V30 8928 C 840.807 0.37272 -1.99346 0
M  V30 8929 C 841.14 1.57266 -1.13934 0
M  V30 8930 O 840.415 1.9343 -0.20377 0
M  V30 8931 C 840.698 0.778245 -3.5159 0
M  V30 8932 C 840.551 -0.427394 -4.47765 0
M  V30 8933 C 841.87 1.62358 -4.09057 0
M  V30 8934 H 838.989 0.134002 -0.724715 0
M  V30 8935 H 841.631 -0.353536 -1.86682 0
M  V30 8936 H 839.781 1.39704 -3.62512 0
M  V30 8937 H 841.453 -1.06586 -4.48818 0
M  V30 8938 H 839.696 -1.06972 -4.20404 0
M  V30 8939 H 840.367 -0.10025 -5.51909 0
M  V30 8940 H 842.843 1.1012 -4.01264 0
M  V30 8941 H 841.719 1.87617 -5.1584 0
M  V30 8942 H 841.98 2.59688 -3.57791 0
M  V30 8943 N 841.039 1.57585 0.0217189 0
M  V30 8944 C 841.989 2.03506 1.02807 0
M  V30 8945 C 842.973 0.925716 1.31603 0
M  V30 8946 O 844.165 1.18958 1.31065 0
M  V30 8947 C 841.294 2.52407 2.32693 0
M  V30 8948 C 840.38 3.70176 2.06955 0
M  V30 8949 N 840.771 4.82641 1.513 0
M  V30 8950 C 839.069 3.77691 2.37204 0
M  V30 8951 C 839.77 5.64218 1.41536 0
M  V30 8952 N 838.746 5.09557 1.89348 0
M  V30 8953 H 842.548 2.87878 0.591899 0
M  V30 8954 H 840.062 1.60793 0.227875 0
M  V30 8955 H 842.059 2.83569 3.05605 0
M  V30 8956 H 840.719 1.69444 2.76982 0
M  V30 8957 H 841.73 5.03931 1.19472 0
M  V30 8958 H 838.407 3.05542 2.84517 0
M  V30 8959 H 839.797 6.64576 0.989333 0
M  V30 8960 N 842.517 -0.29412 1.54831 0
M  V30 8961 C 843.745 -1.04724 1.78439 0
M  V30 8962 C 844.16 -1.80695 0.547239 0
M  V30 8963 O 843.517 -1.75989 -0.483141 0
M  V30 8964 C 843.568 -2.02242 2.99634 0
M  V30 8965 O 843.289 -1.29352 4.18568 0
M  V30 8966 C 844.79 -2.89537 3.35683 0
M  V30 8967 H 842.01 -0.310285 0.594949 0
M  V30 8968 H 844.554 -0.331306 2.01798 0
M  V30 8969 H 842.709 -2.69328 2.78462 0
M  V30 8970 H 843.123 -1.94901 4.86943 0
M  V30 8971 H 844.597 -3.538 4.23709 0
M  V30 8972 H 845.074 -3.58201 2.54143 0
M  V30 8973 H 845.68 -2.27973 3.59038 0
M  V30 8974 N 843.995 -1.47404 -0.557645 0
M  V30 8975 C 845.241 -1.54235 -1.31679 0
M  V30 8976 C 845.574 -0.203782 -1.93128 0
M  V30 8977 O 844.849 0.787536 -1.77843 0
M  V30 8978 C 845.132 -2.66003 -2.42723 0
M  V30 8979 C 844.985 -4.09475 -1.86145 0
M  V30 8980 C 846.304 -2.73685 -3.44652 0
M  V30 8981 H 843.423 -0.561466 -0.477415 0
M  V30 8982 H 846.065 -1.79459 -0.624067 0
M  V30 8983 H 844.215 -2.44627 -3.01811 0
M  V30 8984 H 845.887 -4.42213 -1.31321 0
M  V30 8985 H 844.13 -4.17774 -1.16823 0
M  V30 8986 H 844.801 -4.83451 -2.66418 0
M  V30 8987 H 847.277 -2.92968 -2.95481 0
M  V30 8988 H 846.153 -3.53665 -4.19777 0
M  V30 8989 H 846.414 -1.80726 -4.03473 0
M  V30 8990 N 845.473 0.80434 -1.35529 0
M  V30 8991 C 846.719 1.56385 -1.29118 0
M  V30 8992 C 847.052 1.9374 0.133536 0
M  V30 8993 O 846.327 1.6153 1.08344 0
M  V30 8994 C 846.61 2.85097 -2.19981 0
M  V30 8995 C 846.463 2.54204 -3.7108 0
M  V30 8996 C 847.782 3.86817 -2.09907 0
M  V30 8997 H 844.901 0.567382 -0.470368 0
M  V30 8998 H 847.543 0.925235 -1.6595 0
M  V30 8999 H 845.693 3.39594 -1.88701 0
M  V30 9000 H 847.365 2.05872 -4.12813 0
M  V30 9001 H 845.608 1.87364 -3.91251 0
M  V30 9002 H 846.279 3.46068 -4.30048 0
M  V30 9003 H 848.755 3.41725 -2.37409 0
M  V30 9004 H 847.631 4.7465 -2.75678 0
M  V30 9005 H 847.892 4.28663 -1.08171 0
M  V30 9006 N 846.951 1.19563 1.02676 0
M  V30 9007 C 847.914 0.937182 2.09164 0
M  V30 9008 C 848.914 -0.0831927 1.60585 0
M  V30 9009 O 850.104 0.15178 1.73538 0
M  V30 9010 C 847.236 0.408912 3.38439 0
M  V30 9011 H 848.429 1.88164 2.33526 0
M  V30 9012 H 845.982 1.00959 1.19319 0
M  V30 9013 H 846.717 -0.541497 3.19747 0
M  V30 9014 H 846.502 1.14464 3.7502 0
M  V30 9015 H 847.992 0.247242 4.16867 0
M  V30 9016 N 848.429 -1.21819 0.999893 0
M  V30 9017 C 849.654 -1.95298 0.698094 0
M  V30 9018 C 850.079 -1.73273 -0.731982 0
M  V30 9019 O 849.437 -1.01634 -1.50134 0
M  V30 9020 C 849.485 -3.45922 1.01834 0
M  V30 9021 O 848.589 -4.12223 0.120801 0
M  V30 9022 H 847.93 -0.610729 0.260588 0
M  V30 9023 H 850.46 -1.5472 1.33876 0
M  V30 9024 H 850.47 -3.96471 0.963074 0
M  V30 9025 H 849.145 -3.61278 2.06037 0
M  V30 9026 H 847.722 -3.72177 0.232153 0
M  V30 9027 N 849.908 -0.773975 -1.37286 0
M  V30 9028 C 850.856 -0.149581 -2.32119 0
M  V30 9029 C 851.85 0.682457 -1.55045 0
M  V30 9030 O 853.056 0.579269 -1.70424 0
M  V30 9031 H 849.431 -0.0295857 -0.751418 0
M  V30 9032 H 851.402 -0.965117 -2.82362 0
M  V30 9033 C 850.151 0.713409 -3.40302 0
M  V30 9034 H 849.474 0.0825416 -3.99715 0
M  V30 9035 H 850.914 1.11723 -4.09016 0
M  V30 9036 C 849.373 1.86498 -2.80571 0
M  V30 9037 O 849.903 2.9606 -2.71498 0
M  V30 9038 N 848.109 1.66629 -2.38082 0
M  V30 9039 H 847.656 0.775145 -2.45661 0
M  V30 9040 H 847.614 2.43845 -1.98461 0
M  V30 9041 N 851.386 1.48609 -0.524698 0
M  V30 9042 C 852.334 2.31205 0.254398 0
M  V30 9043 C 853.328 1.40894 0.940491 0
M  V30 9044 O 854.534 1.57827 0.865478 0
M  V30 9045 H 850.909 0.745199 0.100907 0
M  V30 9046 H 852.88 2.94804 -0.461876 0
M  V30 9047 C 851.629 3.2282 1.2916 0
M  V30 9048 H 850.952 3.92255 0.773074 0
M  V30 9049 H 852.392 3.83508 1.80825 0
M  V30 9050 C 850.851 2.4406 2.32242 0
M  V30 9051 O 851.381 2.16163 3.3858 0
M  V30 9052 N 849.587 2.05651 2.05319 0
M  V30 9053 H 849.134 2.28539 1.18861 0
M  V30 9054 H 849.092 1.53265 2.74513 0
M  V30 9055 N 852.864 0.259585 1.55447 0
M  V30 9056 C 854.112 -0.360893 1.98852 0
M  V30 9057 C 854.433 -1.57535 1.14924 0
M  V30 9058 O 853.703 -1.94485 0.235025 0
M  V30 9059 H 852.283 -0.136332 0.734454 0
M  V30 9060 H 854.945 0.361319 1.91522 0
M  V30 9061 H 854.041 -0.661388 3.05012 0
M  V30 9062 N 854.342 -1.57594 -0.0133615 0
M  V30 9063 C 855.567 -1.94649 -0.715996 0
M  V30 9064 C 855.992 -0.860786 -1.67249 0
M  V30 9065 O 855.35 0.182228 -1.80382 0
M  V30 9066 C 855.398 -3.30789 -1.43566 0
M  V30 9067 O 854.502 -3.24148 -2.54955 0
M  V30 9068 H 853.843 -0.635801 -0.191449 0
M  V30 9069 H 856.373 -2.04569 0.0358478 0
M  V30 9070 H 856.383 -3.66045 -1.80208 0
M  V30 9071 H 855.058 -4.09367 -0.734263 0
M  V30 9072 H 853.635 -3.00548 -2.20739 0
M  V30 9073 N 855.82 0.285905 -1.54985 0
M  V30 9074 C 857.066 1.02071 -1.75241 0
M  V30 9075 C 857.399 1.864 -0.544842 0
M  V30 9076 O 856.674 1.89034 0.457844 0
M  V30 9077 C 856.957 1.91409 -3.05016 0
M  V30 9078 C 856.81 1.10158 -4.36102 0
M  V30 9079 C 858.129 2.90335 -3.30747 0
M  V30 9080 H 855.248 0.369663 -0.637588 0
M  V30 9081 H 857.89 0.294114 -1.8771 0
M  V30 9082 H 856.04 2.53362 -2.94517 0
M  V30 9083 H 857.712 0.503756 -4.58541 0
M  V30 9084 H 855.955 0.404675 -4.31908 0
M  V30 9085 H 856.626 1.75956 -5.23205 0
M  V30 9086 H 859.102 2.38514 -3.40955 0
M  V30 9087 H 857.978 3.49997 -4.2284 0
M  V30 9088 H 858.239 3.64787 -2.49765 0
M  V30 9089 N 857.298 1.47698 0.54982 0
M  V30 9090 C 858.545 1.54702 1.30665 0
M  V30 9091 C 858.873 0.212418 1.93337 0
M  V30 9092 O 858.128 -0.79543 1.78805 0
M  V30 9093 C 858.427 2.61903 2.4319 0
M  V30 9094 C 858.093 4.04953 1.98302 0
M  V30 9095 C 856.755 4.43893 1.85776 0
M  V30 9096 C 859.107 4.94682 1.64133 0
M  V30 9097 C 856.435 5.70387 1.37388 0
M  V30 9098 C 858.787 6.21646 1.17214 0
M  V30 9099 C 857.451 6.5946 1.0329 0
M  V30 9100 H 856.721 0.566096 0.478139 0
M  V30 9101 H 859.368 1.8133 0.615767 0
M  V30 9102 H 857.673 2.2906 3.17866 0
M  V30 9103 H 859.37 2.64543 3.0136 0
M  V30 9104 H 855.96 3.74191 2.08995 0
M  V30 9105 H 860.144 4.65291 1.72679 0
M  V30 9106 H 855.4 5.98427 1.25278 0
M  V30 9107 H 859.574 6.90581 0.898391 0
M  V30 9108 H 857.201 7.57367 0.655735 0
M  V30 9109 N 858.776 -0.797141 1.35954 0
M  V30 9110 C 860.001 -1.59097 1.33053 0
M  V30 9111 C 860.426 -1.87897 -0.0874592 0
M  V30 9112 O 859.784 -1.47291 -1.05712 0
M  V30 9113 C 859.832 -2.89346 2.152 0
M  V30 9114 O 858.936 -3.826 1.5392 0
M  V30 9115 H 858.277 -0.482895 0.45575 0
M  V30 9116 H 860.807 -0.988633 1.79129 0
M  V30 9117 H 860.817 -3.38686 2.27499 0
M  V30 9118 H 859.492 -2.6771 3.18283 0
M  V30 9119 H 858.069 -3.41174 1.50516 0
M  V30 9120 N 860.254 -1.20106 -1.0204 0
M  V30 9121 C 861.5 -1.01039 -1.75838 0
M  V30 9122 C 861.833 0.456819 -1.88751 0
M  V30 9123 O 861.108 1.33919 -1.41053 0
M  V30 9124 C 861.391 -1.69009 -3.17975 0
M  V30 9125 C 861.244 -3.2315 -3.1288 0
M  V30 9126 C 862.563 -1.42005 -4.16561 0
M  V30 9127 H 859.682 -0.368465 -0.638281 0
M  V30 9128 H 862.324 -1.48066 -1.19064 0
M  V30 9129 H 860.474 -1.29026 -3.66449 0
M  V30 9130 H 862.146 -3.72402 -2.72239 0
M  V30 9131 H 860.389 -3.54253 -2.50374 0
M  V30 9132 H 861.06 -3.65862 -4.13339 0
M  V30 9133 H 863.536 -1.76685 -3.76725 0
M  V30 9134 H 862.412 -1.92101 -5.14187 0
M  V30 9135 H 862.673 -0.346884 -4.40737 0
M  V30 9136 N 861.732 1.21287 -1.00634 0
M  V30 9137 C 862.642 2.27388 -0.577226 0
M  V30 9138 C 863.658 1.69791 0.380399 0
M  V30 9139 O 864.834 1.99918 0.2439 0
M  V30 9140 C 861.899 3.46588 0.0880532 0
M  V30 9141 C 860.96 4.19453 -0.914222 0
M  V30 9142 C 860.193 5.32962 -0.280596 0
M  V30 9143 O 860.416 5.62895 0.922265 0
M  V30 9144 O 859.35 5.93666 -0.992196 0
M  V30 9145 H 863.176 2.66289 -1.46028 0
M  V30 9146 H 860.761 1.2771 -0.775283 0
M  V30 9147 H 862.643 4.18881 0.460094 0
M  V30 9148 H 861.318 3.09585 0.945461 0
M  V30 9149 H 860.225 3.49376 -1.33744 0
M  V30 9150 H 861.558 4.6037 -1.74126 0
M  V30 9151 N 863.21 0.781244 1.36873 0
M  V30 9152 C 864.456 0.350407 1.9975 0
M  V30 9153 C 864.789 -1.07293 1.6187 0
M  V30 9154 O 864.064 -1.73983 0.869491 0
M  V30 9155 C 864.347 0.504834 3.56544 0
M  V30 9156 C 864.2 1.97127 4.04303 0
M  V30 9157 C 865.519 -0.0851272 4.40018 0
M  V30 9158 H 862.638 0.128794 0.725659 0
M  V30 9159 H 865.28 0.98606 1.6241 0
M  V30 9160 H 863.43 -0.0363006 3.88483 0
M  V30 9161 H 865.102 2.57284 3.82887 0
M  V30 9162 H 863.345 2.47676 3.56145 0
M  V30 9163 H 864.016 2.03033 5.13305 0
M  V30 9164 H 866.492 0.376704 4.14391 0
M  V30 9165 H 865.368 0.0530015 5.48874 0
M  V30 9166 H 865.629 -1.17642 4.2616 0
M  V30 9167 N 864.689 -1.48329 0.532571 0
M  V30 9168 C 865.966 -1.95492 -0.0650985 0
M  V30 9169 C 866.346 -1.47485 -1.51034 0
M  V30 9170 O 865.694 -0.702516 -2.17433 0
M  V30 9171 C 865.904 -3.48957 0.0548341 0
M  V30 9172 C 867.252 -4.24475 -0.103115 0
M  V30 9173 O 868.276 -3.56195 -0.0188343 0
M  V30 9174 O 867.135 -5.45781 -0.280164 0
M  V30 9175 H 864.229 -0.823327 -0.0778603 0
M  V30 9176 H 866.775 -1.58839 0.597353 0
M  V30 9177 H 865.547 -3.76628 1.06148 0
M  V30 9178 H 865.17 -3.92311 -0.64635 0
M  V30 9179 N 866.167 -0.267825 -1.55308 0
M  V30 9180 C 867.415 0.350343 -1.9904 0
M  V30 9181 C 867.736 1.56924 -1.15758 0
M  V30 9182 O 867.006 1.94358 -0.245336 0
M  V30 9183 H 865.586 0.132435 -0.735167 0
M  V30 9184 H 868.248 -0.371471 -1.91327 0
M  V30 9185 H 867.344 0.645203 -3.05358 0
M  V30 9186 N 867.645 1.57599 0.00500368 0
M  V30 9187 C 868.87 1.95026 0.705663 0
M  V30 9188 C 869.295 0.869643 1.6679 0
M  V30 9189 O 868.653 -0.172659 1.80476 0
M  V30 9190 C 868.701 3.31545 1.4181 0
M  V30 9191 O 867.805 3.25495 2.53232 0
M  V30 9192 H 867.146 0.636808 0.188074 0
M  V30 9193 H 869.676 2.04547 -0.046696 0
M  V30 9194 H 869.686 3.66996 1.78265 0
M  V30 9195 H 868.361 4.09751 0.712543 0
M  V30 9196 H 866.938 3.01714 2.19142 0
M  V30 9197 N 869.123 -0.277682 1.55134 0
M  V30 9198 C 870.07 -1.34313 1.87693 0
M  V30 9199 C 871.04 -1.49298 0.727973 0
M  V30 9200 O 872.225 -1.6378 0.978807 0
M  V30 9201 C 869.365 -2.69922 2.15026 0
M  V30 9202 C 868.478 -2.63197 3.42565 0
M  V30 9203 C 867.613 -3.90955 3.59622 0
M  V30 9204 C 866.652 -3.78722 4.8087 0
M  V30 9205 N 865.789 -4.98303 4.94609 0
M  V30 9206 H 870.629 -1.05847 2.78569 0
M  V30 9207 H 868.166 -0.511469 1.37922 0
M  V30 9208 H 870.124 -3.48817 2.28872 0
M  V30 9209 H 868.754 -2.966 1.2739 0
M  V30 9210 H 867.806 -1.76038 3.37216 0
M  V30 9211 H 869.118 -2.50056 4.31594 0
M  V30 9212 H 868.272 -4.78291 3.7326 0
M  V30 9213 H 867.011 -4.06957 2.6877 0
M  V30 9214 H 866.016 -2.89769 4.67241 0
M  V30 9215 H 867.241 -3.64242 5.73153 0
M  V30 9216 H 865.187 -5.14725 4.06687 0
M  V30 9217 H 865.104 -4.87675 5.77676 0
M  V30 9218 H 866.372 -5.87225 5.12628 0
M  V30 9219 N 870.601 -1.47988 -0.541979 0
M  V30 9220 C 871.531 -1.64503 -1.65713 0
M  V30 9221 C 872.512 -0.494116 -1.62765 0
M  V30 9222 O 873.697 -0.725256 -1.80149 0
M  V30 9223 C 870.827 -1.67337 -3.04328 0
M  V30 9224 C 869.781 -2.81809 -3.2213 0
M  V30 9225 C 869.107 -2.69724 -4.61685 0
M  V30 9226 C 870.407 -4.23241 -3.06046 0
M  V30 9227 H 872.101 -2.5786 -1.52147 0
M  V30 9228 H 869.647 -1.24094 -0.730529 0
M  V30 9229 H 871.6 -1.77481 -3.82202 0
M  V30 9230 H 870.324 -0.705514 -3.18889 0
M  V30 9231 H 868.983 -2.71201 -2.46669 0
M  V30 9232 H 868.631 -1.70934 -4.73065 0
M  V30 9233 H 868.331 -3.4653 -4.74543 0
M  V30 9234 H 869.855 -2.81818 -5.41674 0
M  V30 9235 H 871.269 -4.34746 -3.73723 0
M  V30 9236 H 869.666 -5.00952 -3.30405 0
M  V30 9237 H 870.736 -4.40543 -2.02609 0
M  V30 9238 N 872.079 0.78992 -1.36375 0
M  V30 9239 C 873.027 1.92394 -1.30719 0
M  V30 9240 C 874.021 1.68226 -0.199076 0
M  V30 9241 O 875.227 1.76239 -0.366051 0
M  V30 9242 H 871.602 0.632382 -0.406936 0
M  V30 9243 H 873.573 1.94282 -2.26488 0
M  V30 9244 C 872.322 3.2941 -1.11284 0
M  V30 9245 H 871.645 3.48573 -1.95798 0
M  V30 9246 H 873.085 4.09111 -1.11373 0
M  V30 9247 C 871.544 3.36405 0.182543 0
M  V30 9248 O 872.074 3.84206 1.17255 0
M  V30 9249 N 870.28 2.89712 0.227046 0
M  V30 9250 H 869.827 2.51004 -0.579217 0
M  V30 9251 H 869.785 2.94773 1.09344 0
M  V30 9252 N 873.557 1.20646 1.01402 0
M  V30 9253 C 874.803 1.0197 1.753 0
M  V30 9254 C 875.136 -0.446803 1.8899 0
M  V30 9255 O 874.411 -1.33169 1.41762 0
M  V30 9256 C 874.694 1.70693 3.17074 0
M  V30 9257 C 874.547 3.24805 3.11162 0
M  V30 9258 C 875.866 1.44212 4.15802 0
M  V30 9259 H 872.985 0.371844 0.636318 0
M  V30 9260 H 875.627 1.48696 1.18277 0
M  V30 9261 H 873.777 1.30968 3.65759 0
M  V30 9262 H 875.449 3.73841 2.70261 0
M  V30 9263 H 873.692 3.55576 2.48492 0
M  V30 9264 H 874.363 3.68049 4.11393 0
M  V30 9265 H 876.839 1.7868 3.75783 0
M  V30 9266 H 875.715 1.94825 5.13161 0
M  V30 9267 H 875.976 0.370252 4.40547 0
M  V30 9268 N 875.035 -1.20752 1.01276 0
M  V30 9269 C 876.263 -1.94006 0.718976 0
M  V30 9270 C 876.678 -1.74544 -0.719711 0
M  V30 9271 O 876.035 -1.05697 -1.48776 0
M  V30 9272 C 876.086 -3.46208 1.04031 0
M  V30 9273 O 875.807 -3.65031 2.42248 0
M  V30 9274 C 877.308 -4.36614 0.767032 0
M  V30 9275 H 874.528 -0.616743 0.264327 0
M  V30 9276 H 877.072 -1.53352 1.3529 0
M  V30 9277 H 875.227 -3.84756 0.451852 0
M  V30 9278 H 875.641 -4.59054 2.53712 0
M  V30 9279 H 877.115 -5.42076 1.04198 0
M  V30 9280 H 877.592 -4.38182 -0.298851 0
M  V30 9281 H 878.198 -4.03723 1.33746 0
M  V30 9282 N 876.513 -0.788492 -1.36457 0
M  V30 9283 C 877.738 -0.371224 -2.04051 0
M  V30 9284 C 878.163 1.004 -1.59064 0
M  V30 9285 O 877.521 1.64663 -0.758679 0
M  V30 9286 C 877.569 -0.442275 -3.57877 0
M  V30 9287 O 876.673 0.55113 -4.08701 0
M  V30 9288 H 876.014 -0.157808 -0.644975 0
M  V30 9289 H 878.544 -1.06935 -1.74431 0
M  V30 9290 H 878.554 -0.305548 -4.06854 0
M  V30 9291 H 877.229 -1.44547 -3.89973 0
M  V30 9292 H 875.806 0.37614 -3.70998 0
M  V30 9293 N 877.991 1.48044 -0.54043 0
M  V30 9294 C 879.219 2.06895 -0.0145153 0
M  V30 9295 C 879.634 1.39552 1.27164 0
M  V30 9296 O 878.991 0.486454 1.75897 0
M  V30 9297 C 879.042 3.60934 0.202278 0
M  V30 9298 O 878.763 4.25749 -1.03293 0
M  V30 9299 C 880.264 4.36607 0.767387 0
M  V30 9300 H 877.484 0.66991 -0.0382368 0
M  V30 9301 H 880.028 1.90288 -0.749057 0
M  V30 9302 H 878.183 3.77111 0.886897 0
M  V30 9303 H 878.597 5.18048 -0.820167 0
M  V30 9304 H 880.071 5.45126 0.86845 0
M  V30 9305 H 880.548 4.01745 1.77477 0
M  V30 9306 H 881.154 4.25133 0.119002 0
M  V30 9307 N 879.47 0.276058 1.55163 0
M  V30 9308 C 880.716 -0.333945 2.0064 0
M  V30 9309 C 881.071 -1.53414 1.16111 0
M  V30 9310 O 880.364 -1.90293 0.22341 0
M  V30 9311 C 880.558 -0.765744 3.491 0
M  V30 9312 C 880.387 0.391068 4.47996 0
M  V30 9313 C 879.157 0.875151 4.97664 0
M  V30 9314 C 881.355 1.22786 4.99428 0
M  V30 9315 N 879.337 2.00133 5.80362 0
M  V30 9316 C 880.708 2.20192 5.79582 0
M  V30 9317 C 882.763 1.26109 4.81665 0
M  V30 9318 C 881.466 3.20667 6.43868 0
M  V30 9319 C 883.492 2.2543 5.4675 0
M  V30 9320 C 882.854 3.21568 6.26716 0
M  V30 9321 H 878.953 -0.087345 0.777107 0
M  V30 9322 H 881.537 0.400294 1.90541 0
M  V30 9323 H 879.708 -1.46921 3.5954 0
M  V30 9324 H 881.44 -1.35316 3.81407 0
M  V30 9325 H 878.195 0.454297 4.71416 0
M  V30 9326 H 878.619 2.56806 6.26402 0
M  V30 9327 H 883.261 0.531622 4.19444 0
M  V30 9328 H 880.979 3.94547 7.05236 0
M  V30 9329 H 884.565 2.28744 5.34946 0
M  V30 9330 H 883.445 3.97164 6.76188 0
M  V30 9331 N 880.948 -1.576 0.00335426 0
M  V30 9332 C 881.896 -2.09759 -1.00517 0
M  V30 9333 C 882.89 -1.01833 -1.35375 0
M  V30 9334 O 884.096 -1.20294 -1.339 0
M  V30 9335 H 880.471 -0.669821 -0.341825 0
M  V30 9336 H 882.442 -2.93478 -0.539718 0
M  V30 9337 C 881.191 -2.6189 -2.28711 0
M  V30 9338 H 880.514 -3.44571 -2.02758 0
M  V30 9339 H 881.954 -3.02061 -2.97548 0
M  V30 9340 C 880.413 -1.53455 -2.99922 0
M  V30 9341 O 880.943 -0.919402 -3.91037 0
M  V30 9342 N 879.149 -1.2612 -2.61806 0
M  V30 9343 H 878.696 -1.76329 -1.87792 0
M  V30 9344 H 878.654 -0.537872 -3.09765 0
M  V30 9345 N 882.426 0.269451 -1.5528 0
M  V30 9346 C 883.356 1.33729 -1.91413 0
M  V30 9347 C 884.337 1.51348 -0.776391 0
M  V30 9348 O 885.522 1.64332 -1.03482 0
M  V30 9349 C 882.652 2.69618 -2.18914 0
M  V30 9350 C 881.606 2.66725 -3.34726 0
M  V30 9351 C 880.932 4.06199 -3.47716 0
M  V30 9352 C 882.232 2.25684 -4.71025 0
M  V30 9353 H 883.926 1.03736 -2.80854 0
M  V30 9354 H 881.472 0.497579 -1.3513 0
M  V30 9355 H 883.425 3.44436 -2.42779 0
M  V30 9356 H 882.149 3.01201 -1.26275 0
M  V30 9357 H 880.808 1.94365 -3.10834 0
M  V30 9358 H 880.456 4.3501 -2.52537 0
M  V30 9359 H 880.156 4.05157 -4.25583 0
M  V30 9360 H 881.68 4.8275 -3.73877 0
M  V30 9361 H 883.094 2.90225 -4.94411 0
M  V30 9362 H 881.491 2.35797 -5.51833 0
M  V30 9363 H 882.561 1.20819 -4.69607 0
M  V30 9364 N 883.904 1.48273 0.534124 0
M  V30 9365 C 884.867 1.6201 1.62127 0
M  V30 9366 C 885.867 0.493653 1.53035 0
M  V30 9367 O 887.057 0.759337 1.56779 0
M  V30 9368 C 884.189 1.5864 3.01739 0
M  V30 9369 H 885.382 2.58944 1.51288 0
M  V30 9370 H 882.935 1.36808 0.755861 0
M  V30 9371 H 883.67 0.631685 3.18088 0
M  V30 9372 H 883.455 2.40415 3.09747 0
M  V30 9373 H 884.945 1.71438 3.80787 0
M  V30 9374 N 885.382 -0.782676 1.36792 0
M  V30 9375 C 886.607 -1.57676 1.34733 0
M  V30 9376 C 887.032 -1.87979 -0.0675253 0
M  V30 9377 O 886.39 -1.48404 -1.04144 0
M  V30 9378 C 886.438 -2.87047 2.18257 0
M  V30 9379 O 885.542 -3.80946 1.57969 0
M  V30 9380 H 884.883 -0.478034 0.460846 0
M  V30 9381 H 887.413 -0.969578 1.80168 0
M  V30 9382 H 887.423 -3.36254 2.31079 0
M  V30 9383 H 886.098 -2.64319 3.21104 0
M  V30 9384 H 884.675 -3.39558 1.54126 0
M  V30 9385 N 886.86 -1.21182 -1.00761 0
M  V30 9386 C 888.271 -1.02652 -1.55947 0
M  V30 9387 C 888.622 0.414466 -1.91772 0
M  V30 9388 O 887.747 1.29727 -1.73204 0
M  V30 9389 C 888.342 -1.85713 -2.83366 0
M  V30 9390 C 886.901 -1.71523 -3.35048 0
M  V30 9391 C 886.048 -1.83087 -2.08265 0
M  V30 9392 H 888.999 -1.35242 -0.830379 0
M  V30 9393 H 889.02 -1.36583 -3.55141 0
M  V30 9394 H 888.532 -2.90584 -2.5726 0
M  V30 9395 H 886.633 -0.693257 -3.66094 0
M  V30 9396 H 886.746 -2.53333 -4.06644 0
M  V30 9397 H 885.11 -1.26367 -2.21141 0
M  V30 9398 H 885.893 -2.8946 -1.84575 0
M  V30 9399 N 888.338 1.20213 -1.01915 0
M  V30 9400 C 889.268 2.25336 -0.612023 0
M  V30 9401 C 890.249 1.65933 0.374186 0
M  V30 9402 O 891.434 1.92464 0.259053 0
M  V30 9403 C 888.564 3.47267 0.047904 0
M  V30 9404 C 887.518 4.1928 -0.859557 0
M  V30 9405 C 886.844 5.3466 -0.0652655 0
M  V30 9406 C 888.144 4.75143 -2.1688 0
M  V30 9407 H 889.838 2.59645 -1.49079 0
M  V30 9408 H 887.384 1.24808 -0.718263 0
M  V30 9409 H 889.337 4.19991 0.344294 0
M  V30 9410 H 888.061 3.12129 0.961404 0
M  V30 9411 H 886.72 3.48425 -1.13999 0
M  V30 9412 H 886.368 4.95767 0.849964 0
M  V30 9413 H 886.068 5.83772 -0.669618 0
M  V30 9414 H 887.592 6.10187 0.224612 0
M  V30 9415 H 889.006 5.39672 -1.9346 0
M  V30 9416 H 887.403 5.34702 -2.72422 0
M  V30 9417 H 888.473 3.93744 -2.83008 0
M  V30 9418 N 889.816 0.795718 1.36037 0
M  V30 9419 C 890.746 0.212803 2.32528 0
M  V30 9420 C 891.727 -0.655716 1.56953 0
M  V30 9421 O 892.912 -0.588238 1.85077 0
M  V30 9422 C 890.042 -0.648189 3.41198 0
M  V30 9423 C 888.996 0.120948 4.27829 0
M  V30 9424 C 888.322 -0.861044 5.27722 0
M  V30 9425 C 889.622 1.31375 5.05508 0
M  V30 9426 H 891.316 1.01893 2.81528 0
M  V30 9427 H 888.862 0.491422 1.35355 0
M  V30 9428 H 890.815 -1.06597 4.07695 0
M  V30 9429 H 889.539 -1.48709 2.9078 0
M  V30 9430 H 888.198 0.519777 3.62897 0
M  V30 9431 H 887.846 -1.69515 4.73575 0
M  V30 9432 H 887.546 -0.350808 5.86552 0
M  V30 9433 H 889.07 -1.27726 5.97092 0
M  V30 9434 H 890.484 0.971406 5.6501 0
M  V30 9435 H 888.881 1.75772 5.73781 0
M  V30 9436 H 889.951 2.10593 4.36782 0
M  V30 9437 N 891.294 -1.47756 0.548274 0
M  V30 9438 C 892.519 -2.07387 0.023475 0
M  V30 9439 C 892.944 -1.39956 -1.25674 0
M  V30 9440 O 892.302 -0.471543 -1.7506 0
M  V30 9441 C 892.35 -3.60224 -0.164669 0
M  V30 9442 O 891.454 -3.93653 -1.22928 0
M  V30 9443 H 890.795 -0.662312 0.0473156 0
M  V30 9444 H 893.325 -1.89905 0.761409 0
M  V30 9445 H 893.335 -4.06211 -0.38166 0
M  V30 9446 H 892.01 -4.08702 0.770425 0
M  V30 9447 H 890.587 -3.59422 -0.993495 0
M  V30 9448 N 892.772 -0.284283 -1.55015 0
M  V30 9449 C 894.018 0.330352 -2.00091 0
M  V30 9450 C 894.351 1.54814 -1.17244 0
M  V30 9451 O 893.626 1.92954 -0.244753 0
M  V30 9452 C 893.909 0.703492 -3.53161 0
M  V30 9453 C 893.762 -0.522275 -4.46758 0
M  V30 9454 C 895.081 1.53645 -4.12409 0
M  V30 9455 H 892.2 0.118599 -0.727395 0
M  V30 9456 H 894.842 -0.393054 -1.8589 0
M  V30 9457 H 892.992 1.31983 -3.65394 0
M  V30 9458 H 894.664 -1.16082 -4.46456 0
M  V30 9459 H 892.907 -1.15865 -4.1804 0
M  V30 9460 H 893.578 -0.217295 -5.51572 0
M  V30 9461 H 896.054 1.01583 -4.0351 0
M  V30 9462 H 894.93 1.76633 -5.19704 0
M  V30 9463 H 895.191 2.5204 -3.63219 0
M  V30 9464 N 894.251 1.57596 -0.0117121 0
M  V30 9465 C 895.476 1.95764 0.684938 0
M  V30 9466 C 895.901 0.887285 1.65858 0
M  V30 9467 O 895.259 -0.153508 1.80649 0
M  V30 9468 C 895.307 3.33031 1.38285 0
M  V30 9469 O 894.411 3.28163 2.49765 0
M  V30 9470 H 893.752 0.638767 0.181309 0
M  V30 9471 H 896.282 2.04486 -0.0683883 0
M  V30 9472 H 896.292 3.68866 1.74362 0
M  V30 9473 H 894.967 4.10483 0.669043 0
M  V30 9474 H 893.544 3.04021 2.15929 0
M  V30 9475 N 895.729 -0.261212 1.5542 0
M  V30 9476 C 896.975 -0.992699 1.76843 0
M  V30 9477 C 897.308 -1.8551 0.574428 0
M  V30 9478 O 896.583 -1.89739 -0.427713 0
M  V30 9479 C 896.866 -1.86532 3.08022 0
M  V30 9480 C 896.719 -1.03206 4.378 0
M  V30 9481 C 898.038 -2.85036 3.35324 0
M  V30 9482 H 895.157 -0.359473 0.643388 0
M  V30 9483 H 897.799 -0.264214 1.88154 0
M  V30 9484 H 895.949 -2.48644 2.9851 0
M  V30 9485 H 897.621 -0.430743 4.59285 0
M  V30 9486 H 895.864 -0.335911 4.32497 0
M  V30 9487 H 896.535 -1.6761 5.25938 0
M  V30 9488 H 899.011 -2.3306 3.44706 0
M  V30 9489 H 897.887 -3.43226 4.28354 0
M  V30 9490 H 898.148 -3.60768 2.55537 0
M  V30 9491 N 897.207 -1.48554 -0.526253 0
M  V30 9492 C 898.484 -1.47252 -1.28748 0
M  V30 9493 C 898.864 -0.186245 -2.10277 0
M  V30 9494 O 898.212 0.831954 -2.12816 0
M  V30 9495 C 898.422 -2.73672 -2.16575 0
M  V30 9496 C 899.77 -3.22151 -2.76593 0
M  V30 9497 O 900.794 -2.74614 -2.2686 0
M  V30 9498 O 899.653 -4.04877 -3.67066 0
M  V30 9499 H 896.747 -0.588242 -0.581292 0
M  V30 9500 H 899.293 -1.60792 -0.5426 0
M  V30 9501 H 898.065 -3.58798 -1.56139 0
M  V30 9502 H 897.688 -2.6287 -2.98304 0
M  V30 9503 N 898.685 0.775411 -1.37205 0
M  V30 9504 C 899.933 1.53081 -1.3195 0
M  V30 9505 C 900.254 1.9476 0.0966864 0
M  V30 9506 O 899.524 1.66019 1.03993 0
M  V30 9507 H 898.104 0.567762 -0.485444 0
M  V30 9508 H 900.766 0.92309 -1.71654 0
M  V30 9509 H 899.862 2.4319 -1.95614 0
M  V30 9510 N 900.163 1.21714 1.00117 0
M  V30 9511 C 901.391 1.06278 1.77518 0
M  V30 9512 C 901.806 -0.387193 1.84787 0
M  V30 9513 O 901.163 -1.26854 1.31203 0
M  V30 9514 C 901.214 1.65795 3.21239 0
M  V30 9515 O 900.935 3.05119 3.14378 0
M  V30 9516 C 902.436 1.55521 4.15124 0
M  V30 9517 H 899.656 0.373013 0.557765 0
M  V30 9518 H 902.2 1.61133 1.25922 0
M  V30 9519 H 900.355 1.15022 3.69931 0
M  V30 9520 H 900.769 3.33643 4.04701 0
M  V30 9521 H 902.243 2.01902 5.13751 0
M  V30 9522 H 902.72 0.510307 4.36225 0
M  V30 9523 H 903.326 2.0556 3.72324 0
M  V30 9524 N 901.641 -1.19671 1.02551 0
M  V30 9525 C 902.573 -2.22215 0.561517 0
M  V30 9526 C 903.586 -1.58751 -0.360821 0
M  V30 9527 O 904.775 -1.77802 -0.157749 0
M  V30 9528 C 901.875 -3.383 -0.201494 0
M  V30 9529 C 901.048 -4.3135 0.724952 0
M  V30 9530 C 900.107 -5.26199 0.00794334 0
M  V30 9531 O 899.133 -5.65665 0.633398 0
M  V30 9532 N 900.335 -5.66573 -1.26394 0
M  V30 9533 H 903.1 -2.6265 1.44343 0
M  V30 9534 H 900.661 -1.34303 0.904122 0
M  V30 9535 H 902.653 -3.98764 -0.690625 0
M  V30 9536 H 901.223 -2.96683 -0.98479 0
M  V30 9537 H 900.443 -3.6872 1.39423 0
M  V30 9538 H 901.731 -4.90433 1.35472 0
M  V30 9539 H 901.129 -5.36538 -1.79287 0
M  V30 9540 H 899.686 -6.29304 -1.69763 0
M  V30 9541 N 903.119 -0.802921 -1.35613 0
M  V30 9542 C 904.535 -0.486214 -1.52014 0
M  V30 9543 C 904.735 0.993219 -1.75321 0
M  V30 9544 O 903.791 1.77835 -1.79251 0
M  V30 9545 C 905.104 -1.32839 -2.69767 0
M  V30 9546 C 906.652 -1.32346 -2.83643 0
M  V30 9547 C 907.127 -2.14967 -4.04417 0
M  V30 9548 N 908.618 -2.12484 -4.11588 0
M  V30 9549 C 909.353 -2.73173 -5.04147 0
M  V30 9550 N 908.849 -3.42774 -6.02061 0
M  V30 9551 N 910.642 -2.62834 -4.96865 0
M  V30 9552 H 902.793 -1.76109 -1.18741 0
M  V30 9553 H 905.056 -0.74936 -0.580658 0
M  V30 9554 H 904.762 -2.37813 -2.5911 0
M  V30 9555 H 904.636 -0.979058 -3.64272 0
M  V30 9556 H 907.023 -0.281586 -2.93753 0
M  V30 9557 H 907.104 -1.71264 -1.90006 0
M  V30 9558 H 906.748 -3.19193 -3.95068 0
M  V30 9559 H 906.678 -1.73411 -4.97228 0
M  V30 9560 H 909.169 -1.61839 -3.41492 0
M  V30 9561 H 909.482 -3.86378 -6.69277 0
M  V30 9562 H 907.827 -3.46878 -6.02246 0
M  V30 9563 H 911.018 -2.08049 -4.19325 0
M  V30 9564 H 911.191 -3.10421 -5.68808 0
M  V30 9565 N 904.597 1.47463 -0.556102 0
M  V30 9566 C 905.825 2.06868 -0.0364585 0
M  V30 9567 C 906.24 1.40893 1.25677 0
M  V30 9568 O 905.597 0.505083 1.75371 0
M  V30 9569 C 905.648 3.61128 0.163984 0
M  V30 9570 O 905.369 4.24629 -1.07803 0
M  V30 9571 C 906.87 4.37397 0.721036 0
M  V30 9572 H 904.09 0.669466 -0.0453399 0
M  V30 9573 H 906.634 1.89482 -0.769198 0
M  V30 9574 H 904.789 3.78031 0.84685 0
M  V30 9575 H 905.203 5.17149 -0.875067 0
M  V30 9576 H 906.677 5.46016 0.810584 0
M  V30 9577 H 907.154 4.03604 1.73206 0
M  V30 9578 H 907.76 4.25236 0.073904 0
M  V30 9579 N 906.075 0.2925 1.54862 0
M  V30 9580 C 907.321 -0.319736 2.00264 0
M  V30 9581 C 907.654 -1.5419 1.18064 0
M  V30 9582 O 906.929 -1.92821 0.254983 0
M  V30 9583 C 907.212 -0.684753 3.5353 0
M  V30 9584 C 907.065 0.545961 4.46474 0
M  V30 9585 C 908.384 -1.51456 4.13218 0
M  V30 9586 H 905.503 -0.11474 0.728014 0
M  V30 9587 H 908.145 0.402907 1.85679 0
M  V30 9588 H 906.295 -1.30044 3.66089 0
M  V30 9589 H 907.967 1.18448 4.45834 0
M  V30 9590 H 906.21 1.1808 4.1742 0
M  V30 9591 H 906.881 0.246544 5.51449 0
M  V30 9592 H 909.357 -0.994421 4.04043 0
M  V30 9593 H 908.233 -1.73875 5.20633 0
M  V30 9594 H 908.494 -2.5011 3.64551 0
M  V30 9595 N 907.553 -1.57587 0.0200696 0
M  V30 9596 C 908.485 -2.06555 -0.993359 0
M  V30 9597 C 909.498 -0.987227 -1.29451 0
M  V30 9598 O 910.687 -1.26361 -1.26075 0
M  V30 9599 C 907.787 -2.4675 -2.3231 0
M  V30 9600 C 906.96 -3.77554 -2.20843 0
M  V30 9601 C 906.019 -4.04397 -3.36674 0
M  V30 9602 O 905.045 -4.7478 -3.13963 0
M  V30 9603 N 906.247 -3.53861 -4.60176 0
M  V30 9604 H 909.012 -2.9412 -0.575617 0
M  V30 9605 H 906.573 -1.61038 -0.166889 0
M  V30 9606 H 908.565 -2.61806 -3.08609 0
M  V30 9607 H 907.135 -1.64598 -2.65756 0
M  V30 9608 H 906.355 -3.72382 -1.29327 0
M  V30 9609 H 907.643 -4.63271 -2.10375 0
M  V30 9610 H 907.041 -2.96904 -4.81523 0
M  V30 9611 H 905.598 -3.74213 -5.33674 0
M  V30 9612 N 909.032 0.252966 -1.55557 0
M  V30 9613 C 910.272 0.989276 -1.78865 0
M  V30 9614 C 910.636 1.82755 -0.588615 0
M  V30 9615 O 911.837 2.59516 -0.700347 0
M  V30 9616 C 910.108 1.83203 -3.06874 0
M  V30 9617 S 911.667 2.62826 -3.5138 0
M  V30 9618 H 908.485 0.332863 -0.62827 0
M  V30 9619 H 911.087 0.257716 -1.93794 0
M  V30 9620 H 909.791 1.20579 -3.92287 0
M  V30 9621 H 909.322 2.60644 -2.94666 0
M  V30 9622 H 911.337 3.85648 -3.12234 0
M  V30 9623 N 910.51 1.48831 0.518367 0
M  V30 9624 C 911.44 1.67119 1.63075 0
M  V30 9625 C 912.421 0.519948 1.61958 0
M  V30 9626 O 913.606 0.753824 1.78972 0
M  V30 9627 C 910.736 1.72158 3.01627 0
M  V30 9628 C 909.69 2.86898 3.17606 0
M  V30 9629 C 909.016 2.77035 4.57335 0
M  V30 9630 C 910.316 4.28057 2.99274 0
M  V30 9631 H 912.01 2.60248 1.48025 0
M  V30 9632 H 909.556 1.2524 0.710694 0
M  V30 9633 H 911.509 1.83539 3.7933 0
M  V30 9634 H 910.233 0.756157 3.17726 0
M  V30 9635 H 908.892 2.75091 2.42323 0
M  V30 9636 H 908.54 1.78438 4.70286 0
M  V30 9637 H 908.24 3.54036 4.6897 0
M  V30 9638 H 909.764 2.904 5.37122 0
M  V30 9639 H 911.178 4.40636 3.6676 0
M  V30 9640 H 909.575 5.06145 3.22393 0
M  V30 9641 H 910.645 4.4371 1.95574 0
M  V30 9642 N 911.988 -0.768124 1.37614 0
M  V30 9643 C 913.213 -1.56239 1.36397 0
M  V30 9644 C 913.638 -1.8804 -0.0475839 0
M  V30 9645 O 912.996 -1.495 -1.02564 0
M  V30 9646 C 913.044 -2.84716 2.21289 0
M  V30 9647 O 912.148 -3.79249 1.62001 0
M  V30 9648 H 911.489 -0.473119 0.465891 0
M  V30 9649 H 914.019 -0.950415 1.81186 0
M  V30 9650 H 914.029 -3.33784 2.34632 0
M  V30 9651 H 912.704 -2.60899 3.2389 0
M  V30 9652 H 911.281 -3.37904 1.57719 0
M  V30 9653 N 913.466 -1.22244 -0.994698 0
M  V30 9654 C 914.882 -0.982006 -1.25813 0
M  V30 9655 C 915.082 0.325488 -1.98854 0
M  V30 9656 O 914.138 1.04857 -2.29698 0
M  V30 9657 C 915.451 -2.1795 -2.07167 0
M  V30 9658 C 916.999 -2.22287 -2.20358 0
M  V30 9659 C 917.474 -3.41583 -3.05098 0
M  V30 9660 N 918.965 -3.41734 -3.12686 0
M  V30 9661 C 919.7 -4.30692 -3.78539 0
M  V30 9662 N 919.196 -5.29865 -4.46335 0
M  V30 9663 N 920.989 -4.18473 -3.75283 0
M  V30 9664 H 913.14 -2.0631 -0.504963 0
M  V30 9665 H 915.403 -0.90395 -0.285618 0
M  V30 9666 H 915.109 -3.12758 -1.60858 0
M  V30 9667 H 914.983 -2.17862 -3.07922 0
M  V30 9668 H 917.37 -1.28028 -2.65881 0
M  V30 9669 H 917.451 -2.26414 -1.19039 0
M  V30 9670 H 917.095 -4.36141 -2.60275 0
M  V30 9671 H 917.025 -3.34695 -4.06555 0
M  V30 9672 H 919.516 -2.69969 -2.64433 0
M  V30 9673 H 919.829 -5.94027 -4.9432 0
M  V30 9674 H 918.174 -5.3378 -4.45089 0
M  V30 9675 H 921.365 -3.40249 -3.21478 0
M  V30 9676 H 921.538 -4.88007 -4.26326 0
M  V30 9677 N 914.944 1.19125 -1.03184 0
M  V30 9678 C 915.854 2.26112 -0.625329 0
M  V30 9679 C 916.87 1.7056 0.344298 0
M  V30 9680 O 918.046 2.0039 0.20144 0
M  V30 9681 C 915.111 3.46697 0.0145169 0
M  V30 9682 C 914.172 4.17419 -1.00299 0
M  V30 9683 C 913.405 5.32247 -0.393581 0
M  V30 9684 O 913.628 5.64724 0.802659 0
M  V30 9685 O 912.562 5.91428 -1.1179 0
M  V30 9686 H 916.388 2.63131 -1.51643 0
M  V30 9687 H 913.973 1.26036 -0.802197 0
M  V30 9688 H 915.855 4.19762 0.371139 0
M  V30 9689 H 914.53 3.11521 0.879581 0
M  V30 9690 H 913.437 3.4646 -1.41125 0
M  V30 9691 H 914.77 4.56573 -1.83852 0
M  V30 9692 N 916.422 0.810101 1.35185 0
M  V30 9693 C 917.385 0.22852 2.28058 0
M  V30 9694 C 918.385 -0.586168 1.49735 0
M  V30 9695 O 919.575 -0.40414 1.69447 0
M  V30 9696 C 916.707 -0.681041 3.34028 0
M  V30 9697 H 917.9 1.04768 2.81005 0
M  V30 9698 H 915.453 0.58101 1.451 0
M  V30 9699 H 916.188 -1.52375 2.86273 0
M  V30 9700 H 915.973 -0.0985276 3.91976 0
M  V30 9701 H 917.463 -1.08217 4.03335 0
M  V30 9702 N 917.9 -1.47166 0.563914 0
M  V30 9703 C 919.148 -2.02056 0.0422873 0
M  V30 9704 C 919.469 -1.43992 -1.31497 0
M  V30 9705 O 918.739 -0.617578 -1.85911 0
M  V30 9706 H 917.319 -0.746893 0.0126427 0
M  V30 9707 H 919.981 -1.80492 0.735441 0
M  V30 9708 H 919.077 -3.12073 -0.0408044 0
M  V30 9709 N 919.378 -0.300708 -1.54705 0
M  V30 9710 C 920.626 0.308044 -1.99739 0
M  V30 9711 C 920.947 1.54433 -1.19061 0
M  V30 9712 O 920.217 1.93794 -0.286507 0
M  V30 9713 H 918.797 0.116811 -0.73781 0
M  V30 9714 H 921.459 -0.41197 -1.90496 0
M  V30 9715 H 920.555 0.580287 -3.06658 0
M  V30 9716 N 920.856 1.57574 -0.0284266 0
M  V30 9717 C 921.804 2.11332 0.971675 0
M  V30 9718 C 922.798 1.03974 1.33738 0
M  V30 9719 O 924.004 1.22409 1.31969 0
M  V30 9720 H 920.379 0.675174 0.331125 0
M  V30 9721 H 922.35 2.943 0.49296 0
M  V30 9722 C 921.099 2.65496 2.24516 0
M  V30 9723 H 920.422 3.47753 1.9725 0
M  V30 9724 H 921.862 3.06757 2.92705 0
M  V30 9725 C 920.321 1.58207 2.97443 0
M  V30 9726 O 920.851 0.981496 3.89525 0
M  V30 9727 N 919.057 1.30269 2.59766 0
M  V30 9728 H 918.604 1.79294 1.84963 0
M  V30 9729 H 918.562 0.587085 3.0887 0
M  V30 9730 N 922.334 -0.244713 1.55689 0
M  V30 9731 C 923.267 -1.32946 1.85474 0
M  V30 9732 C 924.245 -1.46279 0.710021 0
M  V30 9733 O 925.429 -1.62459 0.956004 0
M  V30 9734 C 922.556 -2.7027 2.04137 0
M  V30 9735 C 921.602 -2.74075 3.2678 0
M  V30 9736 S 922.435 -2.30465 4.8337 0
M  V30 9737 C 923.591 -3.69709 5.05041 0
M  V30 9738 H 923.824 -1.07482 2.77191 0
M  V30 9739 H 921.357 -0.445807 1.47824 0
M  V30 9740 H 923.315 -3.4934 2.15574 0
M  V30 9741 H 921.976 -2.9297 1.13259 0
M  V30 9742 H 921.169 -3.74932 3.36812 0
M  V30 9743 H 920.771 -2.03051 3.1408 0
M  V30 9744 H 923.063 -4.65222 4.92518 0
M  V30 9745 H 924.006 -3.6461 6.07014 0
M  V30 9746 H 924.414 -3.62323 4.32877 0
M  V30 9747 N 923.813 -1.49104 -0.510467 0
M  V30 9748 C 925.038 -1.62068 -1.29417 0
M  V30 9749 C 925.463 -0.288432 -1.85875 0
M  V30 9750 O 924.821 0.742667 -1.65391 0
M  V30 9751 C 924.869 -2.68506 -2.40701 0
M  V30 9752 O 923.973 -2.27021 -3.4429 0
M  V30 9753 H 923.314 -0.542778 -0.382476 0
M  V30 9754 H 925.844 -1.95228 -0.612154 0
M  V30 9755 H 925.854 -2.90383 -2.86604 0
M  V30 9756 H 924.529 -3.65216 -1.98973 0
M  V30 9757 H 923.106 -2.15436 -3.04371 0
M  V30 9758 N 925.291 0.760815 -1.38019 0
M  V30 9759 C 926.54 1.51506 -1.3315 0
M  V30 9760 C 926.853 1.95444 0.0782124 0
M  V30 9761 O 928.059 2.70352 0.249418 0
M  V30 9762 C 926.515 2.73636 -2.33776 0
M  V30 9763 C 926.123 2.36753 -3.80332 0
M  V30 9764 C 927.867 3.51548 -2.37937 0
M  V30 9765 C 925.774 3.55451 -4.72661 0
M  V30 9766 H 924.704 0.568844 -0.494907 0
M  V30 9767 H 927.355 0.832343 -1.63537 0
M  V30 9768 H 925.737 3.43852 -1.96422 0
M  V30 9769 H 926.911 1.7425 -4.26584 0
M  V30 9770 H 925.226 1.71991 -3.7922 0
M  V30 9771 H 927.823 4.39791 -3.04119 0
M  V30 9772 H 928.166 3.9219 -1.39617 0
M  V30 9773 H 928.699 2.88339 -2.74054 0
M  V30 9774 H 925.438 3.19882 -5.7215 0
M  V30 9775 H 924.958 4.17022 -4.31107 0
M  V30 9776 H 926.637 4.22125 -4.90326 0
M  V30 9777 N 926.769 1.22769 0.988202 0
M  V30 9778 C 927.701 0.959757 2.08138 0
M  V30 9779 C 928.714 -0.0633787 1.62677 0
M  V30 9780 O 929.903 0.171203 1.77677 0
M  V30 9781 C 927.003 0.422724 3.36253 0
M  V30 9782 C 926.176 1.50419 4.10722 0
M  V30 9783 C 925.235 0.973407 5.17118 0
M  V30 9784 O 924.261 1.66066 5.44436 0
M  V30 9785 N 925.463 -0.202787 5.80146 0
M  V30 9786 H 928.228 1.9009 2.31702 0
M  V30 9787 H 925.789 1.13522 1.15431 0
M  V30 9788 H 927.781 0.0528514 4.04665 0
M  V30 9789 H 926.351 -0.423642 3.09716 0
M  V30 9790 H 925.571 2.04718 3.36874 0
M  V30 9791 H 926.859 2.23169 4.57245 0
M  V30 9792 H 926.257 -0.777856 5.60327 0
M  V30 9793 H 924.814 -0.513998 6.4977 0
M  V30 9794 N 928.247 -1.18576 1.03814 0
M  V30 9795 C 929.494 -1.88493 0.740036 0
M  V30 9796 C 929.822 -1.80198 -0.732056 0
M  V30 9797 O 929.077 -1.19509 -1.54971 0
M  V30 9798 C 929.376 -3.38448 1.14837 0
M  V30 9799 C 929.042 -3.66947 2.62031 0
M  V30 9800 C 927.704 -3.74435 3.02244 0
M  V30 9801 C 930.056 -3.79534 3.57217 0
M  V30 9802 C 927.384 -3.91986 4.36536 0
M  V30 9803 C 929.736 -3.986 4.91223 0
M  V30 9804 C 928.4 -4.04323 5.31111 0
M  V30 9805 H 927.67 -0.689746 0.270798 0
M  V30 9806 H 930.317 -1.40364 1.3027 0
M  V30 9807 H 928.622 -3.88539 0.504472 0
M  V30 9808 H 930.319 -3.90882 0.89511 0
M  V30 9809 H 926.909 -3.61734 2.29883 0
M  V30 9810 H 931.093 -3.73083 3.27296 0
M  V30 9811 H 926.349 -3.9466 4.66962 0
M  V30 9812 H 930.523 -4.07281 5.64885 0
M  V30 9813 H 928.15 -4.17676 6.35178 0
M  V30 9814 N 929.725 -0.817259 -1.34754 0
M  V30 9815 C 930.655 -0.249769 -2.3216 0
M  V30 9816 C 931.636 0.630663 -1.57977 0
M  V30 9817 O 932.821 0.558719 -1.85989 0
M  V30 9818 C 929.951 0.593825 -3.42186 0
M  V30 9819 C 928.905 -0.188997 -4.27583 0
M  V30 9820 C 928.231 0.776979 -5.29025 0
M  V30 9821 C 929.531 -1.39401 -5.03354 0
M  V30 9822 H 931.225 -1.06359 -2.79872 0
M  V30 9823 H 928.771 -0.512894 -1.34556 0
M  V30 9824 H 930.724 1.00097 -4.09339 0
M  V30 9825 H 929.448 1.44064 -2.93109 0
M  V30 9826 H 928.107 -0.577445 -3.62024 0
M  V30 9827 H 927.755 1.61959 -4.76212 0
M  V30 9828 H 927.455 0.257448 -5.87036 0
M  V30 9829 H 928.979 1.18211 -5.99048 0
M  V30 9830 H 930.393 -1.06117 -5.63393 0
M  V30 9831 H 928.79 -1.84878 -5.70912 0
M  V30 9832 H 929.86 -2.17515 -4.33377 0
M  V30 9833 N 931.203 1.46865 -0.571711 0
M  V30 9834 C 932.451 2.0203 -0.0530022 0
M  V30 9835 C 932.772 1.44687 1.30731 0
M  V30 9836 O 932.042 0.627429 1.85581 0
M  V30 9837 H 930.622 0.746815 -0.0166035 0
M  V30 9838 H 933.284 1.80099 -0.745003 0
M  V30 9839 H 932.38 3.12091 0.0242538 0
M  V30 9840 N 932.681 0.308908 1.54543 0
M  V30 9841 C 933.909 -0.300418 2.04707 0
M  V30 9842 C 934.324 -1.46915 1.18581 0
M  V30 9843 O 933.681 -1.81251 0.213186 0
M  V30 9844 C 933.732 -0.749038 3.53655 0
M  V30 9845 O 933.453 0.373181 4.36508 0
M  V30 9846 C 934.954 -1.4227 4.1985 0
M  V30 9847 H 932.174 -0.0641267 0.667929 0
M  V30 9848 H 934.718 0.450839 1.99469 0
M  V30 9849 H 932.873 -1.4503 3.59228 0
M  V30 9850 H 933.287 0.0224752 5.24495 0
M  V30 9851 H 934.761 -1.68768 5.25568 0
M  V30 9852 H 935.238 -2.36531 3.70067 0
M  V30 9853 H 935.844 -0.764404 4.18374 0
M  V30 9854 N 934.159 -1.57557 0.0367827 0
M  V30 9855 C 935.405 -1.92399 -0.641133 0
M  V30 9856 C 935.738 -0.914191 -1.71336 0
M  V30 9857 O 935.013 0.0619616 -1.94401 0
M  V30 9858 C 935.296 -3.37689 -1.25052 0
M  V30 9859 C 935.149 -4.4941 -0.187326 0
M  V30 9860 C 936.468 -3.8309 -2.16634 0
M  V30 9861 H 933.587 -0.699666 -0.231597 0
M  V30 9862 H 936.229 -1.89759 0.0956083 0
M  V30 9863 H 934.379 -3.40069 -1.87843 0
M  V30 9864 H 936.051 -4.59161 0.443736 0
M  V30 9865 H 934.294 -4.31065 0.486313 0
M  V30 9866 H 934.965 -5.48119 -0.653459 0
M  V30 9867 H 937.441 -3.82494 -1.63821 0
M  V30 9868 H 936.317 -4.85429 -2.56222 0
M  V30 9869 H 936.578 -3.19028 -3.06062 0
M  V30 9870 N 935.637 0.236453 -1.55816 0
M  V30 9871 C 936.867 0.978873 -1.81939 0
M  V30 9872 C 937.275 1.79041 -0.611647 0
M  V30 9873 O 936.618 1.78616 0.429172 0
M  V30 9874 C 936.68 1.9569 -3.01572 0
M  V30 9875 C 936.344 1.33131 -4.37178 0
M  V30 9876 C 937.341 0.728585 -5.1477 0
M  V30 9877 C 935.026 1.34755 -4.83887 0
M  V30 9878 C 937.02 0.150427 -6.37222 0
M  V30 9879 C 934.707 0.765539 -6.06286 0
M  V30 9880 C 935.705 0.168017 -6.82793 0
M  V30 9881 O 935.393 -0.404976 -8.02879 0
M  V30 9882 H 935.125 0.293186 -0.609113 0
M  V30 9883 H 937.679 0.261384 -2.0373 0
M  V30 9884 H 935.909 2.71298 -2.75562 0
M  V30 9885 H 937.598 2.56362 -3.14695 0
M  V30 9886 H 938.364 0.708477 -4.79797 0
M  V30 9887 H 934.243 1.80202 -4.24321 0
M  V30 9888 H 937.787 -0.316586 -6.96881 0
M  V30 9889 H 933.684 0.78301 -6.40733 0
M  V30 9890 H 934.452 -0.29785 -8.17958 0
M  V30 9891 N 937.115 1.49373 0.502552 0
M  V30 9892 C 938.062 1.65927 1.60427 0
M  V30 9893 C 939.032 0.500768 1.58371 0
M  V30 9894 O 940.217 0.727606 1.76382 0
M  V30 9895 C 937.357 1.73043 2.9858 0
M  V30 9896 C 936.47 3.00187 3.10663 0
M  V30 9897 C 935.605 2.98292 4.3954 0
M  V30 9898 C 934.644 4.20022 4.4525 0
M  V30 9899 N 933.781 4.16046 5.65553 0
M  V30 9900 H 938.621 2.59998 1.45619 0
M  V30 9901 H 936.158 1.28912 0.708519 0
M  V30 9902 H 938.116 1.7515 3.78653 0
M  V30 9903 H 936.746 0.824397 3.12095 0
M  V30 9904 H 935.798 3.07699 2.23663 0
M  V30 9905 H 937.11 3.9018 3.10742 0
M  V30 9906 H 936.264 2.98953 5.27932 0
M  V30 9907 H 935.003 2.06075 4.42023 0
M  V30 9908 H 934.008 4.19607 3.5526 0
M  V30 9909 H 935.233 5.13431 4.44484 0
M  V30 9910 H 933.179 3.26665 5.68881 0
M  V30 9911 H 933.096 4.99773 5.67242 0
M  V30 9912 H 934.364 4.20807 6.56156 0
M  V30 9913 N 938.594 -0.753485 1.38421 0
M  V30 9914 C 939.84 -1.51485 1.34834 0
M  V30 9915 C 940.173 -1.94102 -0.0615381 0
M  V30 9916 O 939.448 -1.65439 -1.02274 0
M  V30 9917 C 939.731 -2.76736 2.30411 0
M  V30 9918 C 939.584 -2.40256 3.80259 0
M  V30 9919 C 940.903 -3.7876 2.24119 0
M  V30 9920 H 938.022 -0.549534 0.491102 0
M  V30 9921 H 940.664 -0.863006 1.6927 0
M  V30 9922 H 938.814 -3.32357 2.01175 0
M  V30 9923 H 940.486 -1.90409 4.20169 0
M  V30 9924 H 938.729 -1.72714 3.97935 0
M  V30 9925 H 939.4 -3.29869 4.42595 0
M  V30 9926 H 941.876 -3.32679 2.49928 0
M  V30 9927 H 940.752 -4.64092 2.93104 0
M  V30 9928 H 941.013 -4.24352 1.24006 0
M  V30 9929 N 940.072 -1.23292 -0.981677 0
M  V30 9930 C 941.02 -1.0104 -2.09508 0
M  V30 9931 C 942.014 0.0501977 -1.69326 0
M  V30 9932 O 943.22 -0.103197 -1.79704 0
M  V30 9933 H 939.595 -0.309629 -0.685298 0
M  V30 9934 H 941.566 -1.95493 -2.25444 0
M  V30 9935 C 940.315 -0.616885 -3.42184 0
M  V30 9936 H 939.638 -1.4247 -3.73554 0
M  V30 9937 H 941.078 -0.500688 -4.21033 0
M  V30 9938 C 939.537 0.674721 -3.30074 0
M  V30 9939 O 940.067 1.72421 -3.62814 0
M  V30 9940 N 938.273 0.650151 -2.83234 0
M  V30 9941 H 937.82 -0.204225 -2.56789 0
M  V30 9942 H 937.778 1.51458 -2.75514 0
M  V30 9943 N 941.55 1.18024 -1.04442 0
M  V30 9944 C 942.799 1.8743 -0.745185 0
M  V30 9945 C 943.112 1.81459 0.730206 0
M  V30 9946 O 944.318 2.46263 1.1431 0
M  V30 9947 C 942.774 3.36266 -1.28271 0
M  V30 9948 C 942.382 3.50757 -2.787 0
M  V30 9949 C 944.126 4.11048 -1.06018 0
M  V30 9950 C 942.033 4.93573 -3.25791 0
M  V30 9951 H 940.963 0.702038 -0.27506 0
M  V30 9952 H 943.614 1.33333 -1.26073 0
M  V30 9953 H 941.996 3.89853 -0.695002 0
M  V30 9954 H 943.17 3.07423 -3.43261 0
M  V30 9955 H 941.485 2.89385 -2.99408 0
M  V30 9956 H 944.082 5.16395 -1.38711 0
M  V30 9957 H 944.425 4.163 0.00241716 0
M  V30 9958 H 944.958 3.63644 -1.61269 0
M  V30 9959 H 941.697 4.93491 -4.31447 0
M  V30 9960 H 941.217 5.37607 -2.65968 0
M  V30 9961 H 942.896 5.62307 -3.20031 0
M  V30 9962 N 943.028 0.824394 1.34319 0
M  V30 9963 C 943.958 0.262077 2.32025 0
M  V30 9964 C 944.939 -0.622277 1.58309 0
M  V30 9965 O 946.124 -0.548848 1.86283 0
M  V30 9966 C 943.254 -0.57567 3.42496 0
M  V30 9967 C 942.208 0.21167 4.27476 0
M  V30 9968 C 941.534 -0.748913 5.29429 0
M  V30 9969 C 942.834 1.42068 5.02607 0
M  V30 9970 H 944.528 1.07842 2.79304 0
M  V30 9971 H 942.074 0.520022 1.34282 0
M  V30 9972 H 944.027 -0.979251 4.09864 0
M  V30 9973 H 942.751 -1.42508 2.93869 0
M  V30 9974 H 941.41 0.596636 3.61712 0
M  V30 9975 H 941.058 -1.59432 4.77064 0
M  V30 9976 H 940.758 -0.226313 5.87164 0
M  V30 9977 H 942.282 -1.15032 5.99667 0
M  V30 9978 H 943.696 1.09103 5.62823 0
M  V30 9979 H 942.093 1.87903 5.69923 0
M  V30 9980 H 943.163 2.1981 4.32217 0
M  V30 9981 N 944.506 -1.46559 0.579492 0
M  V30 9982 C 945.734 -2.06784 0.0693648 0
M  V30 9983 C 946.149 -1.42875 -1.23419 0
M  V30 9984 O 945.506 -0.532919 -1.74546 0
M  V30 9985 C 945.557 -3.61343 -0.106511 0
M  V30 9986 O 945.278 -4.22861 1.14545 0
M  V30 9987 C 946.779 -4.38489 -0.651359 0
M  V30 9988 H 943.999 -0.66866 0.0559848 0
M  V30 9989 H 946.543 -1.88235 0.799245 0
M  V30 9990 H 944.698 -3.7933 -0.786601 0
M  V30 9991 H 945.112 -5.15691 0.95723 0
M  V30 9992 H 946.586 -5.47237 -0.723615 0
M  V30 9993 H 947.063 -4.06309 -1.66763 0
M  V30 9994 H 947.669 -4.253 -0.0062433 0
M  V30 9995 N 945.984 -0.3171 -1.54377 0
M  V30 9996 C 947.4 0.035766 -1.5956 0
M  V30 9997 C 947.6 1.51038 -1.33378 0
M  V30 9998 O 946.656 2.26546 -1.11505 0
M  V30 9999 C 947.969 -0.376652 -2.98332 0
M  V30 10000 C 949.517 -0.326765 -3.1129 0
M  V30 10001 C 949.992 -0.714247 -4.52396 0
M  V30 10002 N 951.483 -0.667402 -4.58367 0
M  V30 10003 C 952.218 -0.939494 -5.65651 0
M  V30 10004 N 951.714 -1.27839 -6.80903 0
M  V30 10005 N 953.507 -0.865484 -5.55397 0
M  V30 10006 H 945.658 -1.27794 -1.69654 0
M  V30 10007 H 947.921 -0.5192 -0.79318 0
M  V30 10008 H 947.627 -1.40381 -3.22469 0
M  V30 10009 H 947.501 0.261611 -3.76292 0
M  V30 10010 H 949.888 0.69117 -2.86892 0
M  V30 10011 H 949.969 -0.999873 -2.35449 0
M  V30 10012 H 949.613 -1.73007 -4.77526 0
M  V30 10013 H 949.543 -0.0188962 -5.26597 0
M  V30 10014 H 952.034 -0.417062 -3.75592 0
M  V30 10015 H 952.347 -1.47155 -7.5866 0
M  V30 10016 H 950.692 -1.31658 -6.82416 0
M  V30 10017 H 953.883 -0.600265 -4.64235 0
M  V30 10018 H 954.056 -1.0809 -6.38921 0
M  V30 10019 N 947.462 1.57535 -0.0451378 0
M  V30 10020 C 948.392 2.14208 0.929372 0
M  V30 10021 C 949.373 1.06221 1.32858 0
M  V30 10022 O 950.558 1.34132 1.40436 0
M  V30 10023 C 947.688 2.68217 2.20629 0
M  V30 10024 C 946.642 3.81134 1.94734 0
M  V30 10025 C 945.968 4.21636 3.28828 0
M  V30 10026 C 947.268 5.06531 1.27374 0
M  V30 10027 H 948.962 2.95886 0.457348 0
M  V30 10028 H 946.508 1.42332 0.218544 0
M  V30 10029 H 948.461 3.06502 2.89196 0
M  V30 10030 H 947.185 1.83722 2.70026 0
M  V30 10031 H 945.844 3.43312 1.28579 0
M  V30 10032 H 945.492 3.34099 3.76014 0
M  V30 10033 H 945.192 4.97736 3.12302 0
M  V30 10034 H 946.716 4.62516 3.98637 0
M  V30 10035 H 948.13 5.423 1.85967 0
M  V30 10036 H 946.527 5.87735 1.21194 0
M  V30 10037 H 947.597 4.84261 0.248913 0
M  V30 10038 N 948.94 -0.228186 1.55939 0
M  V30 10039 C 949.903 -1.26621 1.91049 0
M  V30 10040 C 950.903 -1.40141 0.788491 0
M  V30 10041 O 952.093 -1.3852 1.05631 0
M  V30 10042 C 949.225 -2.64108 2.15545 0
M  V30 10043 H 950.418 -0.966978 2.83883 0
M  V30 10044 H 947.971 -0.468313 1.49119 0
M  V30 10045 H 948.706 -2.99141 1.25241 0
M  V30 10046 H 948.491 -2.55673 2.97277 0
M  V30 10047 H 949.981 -3.39025 2.43827 0
M  V30 10048 N 950.418 -1.49637 -0.494624 0
M  V30 10049 C 951.381 -1.66252 -1.57775 0
M  V30 10050 C 952.381 -0.534054 -1.51672 0
M  V30 10051 O 953.571 -0.800637 -1.54711 0
M  V30 10052 C 950.703 -1.66584 -2.97426 0
M  V30 10053 H 951.896 -2.62864 -1.4437 0
M  V30 10054 H 949.449 -1.38764 -0.719323 0
M  V30 10055 H 950.184 -0.715798 -3.16302 0
M  V30 10056 H 949.969 -2.48543 -3.03264 0
M  V30 10057 H 951.459 -1.81474 -3.76108 0
M  V30 10058 N 951.896 0.746133 -1.38819 0
M  V30 10059 C 952.806 1.89063 -1.38897 0
M  V30 10060 C 953.822 1.71648 -0.28513 0
M  V30 10061 O 954.998 1.94443 -0.524783 0
M  V30 10062 C 952.063 3.24523 -1.22007 0
M  V30 10063 C 951.124 3.54411 -2.42263 0
M  V30 10064 C 950.357 4.83408 -2.26169 0
M  V30 10065 O 950.58 5.56325 -1.25931 0
M  V30 10066 O 949.514 5.12943 -3.14918 0
M  V30 10067 H 953.34 1.91951 -2.35347 0
M  V30 10068 H 950.925 0.892433 -1.19816 0
M  V30 10069 H 952.807 4.05496 -1.14677 0
M  V30 10070 H 951.482 3.2243 -0.286455 0
M  V30 10071 H 950.389 2.73569 -2.55168 0
M  V30 10072 H 951.722 3.61273 -3.3428 0
M  V30 10073 N 953.375 1.23811 0.975125 0
M  V30 10074 C 954.305 1.04846 2.08638 0
M  V30 10075 C 955.286 -0.0362859 1.70061 0
M  V30 10076 O 956.471 0.12937 1.93769 0
M  V30 10077 C 953.601 0.644534 3.41267 0
M  V30 10078 C 952.555 1.67722 3.93768 0
M  V30 10079 C 951.881 1.12857 5.22654 0
M  V30 10080 C 953.181 3.07147 4.22443 0
M  V30 10081 H 954.875 1.97795 2.24761 0
M  V30 10082 H 952.421 0.952397 1.08006 0
M  V30 10083 H 954.374 0.498887 4.18436 0
M  V30 10084 H 953.098 -0.320641 3.25022 0
M  V30 10085 H 951.757 1.81095 3.18748 0
M  V30 10086 H 951.405 0.154227 5.02764 0
M  V30 10087 H 951.105 1.81862 5.58749 0
M  V30 10088 H 952.629 0.994891 6.0244 0
M  V30 10089 H 954.043 2.97045 4.90344 0
M  V30 10090 H 952.44 3.73437 4.6975 0
M  V30 10091 H 953.51 3.55743 3.29507 0
M  V30 10092 N 954.853 -1.17469 1.05066 0
M  V30 10093 C 955.801 -2.23495 0.644418 0
M  V30 10094 C 956.795 -1.66081 -0.333685 0
M  V30 10095 O 958.001 -1.78887 -0.199886 0
M  V30 10096 H 954.376 -0.727546 0.190214 0
M  V30 10097 H 956.347 -2.55058 1.5488 0
M  V30 10098 C 955.096 -3.47684 0.0338051 0
M  V30 10099 H 954.419 -3.92167 0.777513 0
M  V30 10100 H 955.859 -4.23464 -0.213086 0
M  V30 10101 C 954.318 -3.14067 -1.21915 0
M  V30 10102 O 954.848 -3.28728 -2.3087 0
M  V30 10103 N 953.054 -2.68304 -1.11631 0
M  V30 10104 H 952.601 -2.56574 -0.229673 0
M  V30 10105 H 952.559 -2.46184 -1.95553 0
M  V30 10106 N 956.331 -0.831506 -1.3388 0
M  V30 10107 C 957.278 -0.257449 -2.2936 0
M  V30 10108 C 958.248 0.622604 -1.5399 0
M  V30 10109 O 959.433 0.562432 -1.82322 0
M  V30 10110 C 956.573 0.567587 -3.404 0
M  V30 10111 C 955.686 -0.335666 -4.30694 0
M  V30 10112 C 954.821 0.499762 -5.28844 0
M  V30 10113 C 953.86 -0.402343 -6.10776 0
M  V30 10114 N 952.997 0.39452 -7.00991 0
M  V30 10115 H 957.837 -1.077 -2.77857 0
M  V30 10116 H 955.374 -0.542589 -1.36727 0
M  V30 10117 H 957.332 1.06133 -4.03474 0
M  V30 10118 H 955.962 1.35217 -2.93115 0
M  V30 10119 H 955.014 -0.94768 -3.68406 0
M  V30 10120 H 956.326 -1.02896 -4.88072 0
M  V30 10121 H 955.48 1.05763 -5.9741 0
M  V30 10122 H 954.219 1.22652 -4.72025 0
M  V30 10123 H 953.224 -0.972288 -5.41135 0
M  V30 10124 H 954.449 -1.12735 -6.69677 0
M  V30 10125 H 952.395 1.1048 -6.4663 0
M  V30 10126 H 952.312 -0.240209 -7.55618 0
M  V30 10127 H 953.58 0.934867 -7.73874 0
M  V30 10128 N 957.809 1.4625 -0.587256 0
M  V30 10129 C 959.056 2.02363 -0.0745746 0
M  V30 10130 C 959.384 1.4582 1.28712 0
M  V30 10131 O 958.639 0.614922 1.85788 0
M  V30 10132 C 958.938 3.57382 0.036328 0
M  V30 10133 C 958.604 4.32985 -1.25837 0
M  V30 10134 C 957.266 4.53358 -1.61306 0
M  V30 10135 C 959.618 4.76361 -2.11494 0
M  V30 10136 C 956.946 5.14361 -2.82223 0
M  V30 10137 C 959.298 5.38699 -3.31641 0
M  V30 10138 C 957.962 5.57299 -3.67388 0
M  V30 10139 H 957.232 0.740497 -0.0272888 0
M  V30 10140 H 959.879 1.75565 -0.764804 0
M  V30 10141 H 958.184 3.83342 0.809712 0
M  V30 10142 H 959.881 3.9848 0.448838 0
M  V30 10143 H 956.471 4.17427 -0.972251 0
M  V30 10144 H 960.655 4.60372 -1.85394 0
M  V30 10145 H 955.911 5.26952 -3.10051 0
M  V30 10146 H 960.085 5.71267 -3.9828 0
M  V30 10147 H 957.712 6.04338 -4.61173 0
M  V30 10148 N 959.287 0.325282 1.54207 0
M  V30 10149 C 960.22 -0.582485 2.20641 0
M  V30 10150 C 961.198 -1.11441 1.18405 0
M  V30 10151 O 962.382 -1.17809 1.4715 0
M  V30 10152 C 959.509 -1.79944 2.86946 0
M  V30 10153 C 958.555 -1.39861 4.02916 0
M  V30 10154 S 959.388 -0.433859 5.3374 0
M  V30 10155 C 960.544 -1.65806 6.03539 0
M  V30 10156 H 960.777 -0.0181601 2.97294 0
M  V30 10157 H 958.31 0.109365 1.54012 0
M  V30 10158 H 960.268 -2.4977 3.25769 0
M  V30 10159 H 958.929 -2.33495 2.10092 0
M  V30 10160 H 958.122 -2.30547 4.48179 0
M  V30 10161 H 957.724 -0.780036 3.65775 0
M  V30 10162 H 960.016 -2.59524 6.25822 0
M  V30 10163 H 960.959 -1.24756 6.97023 0
M  V30 10164 H 961.367 -1.84581 5.3347 0
M  V30 10165 N 960.765 -1.57509 0.0534917 0
M  V30 10166 C 961.695 -2.14698 -0.917999 0
M  V30 10167 C 962.676 -1.06924 -1.32292 0
M  V30 10168 O 963.861 -1.34875 -1.39723 0
M  V30 10169 C 960.991 -2.69383 -2.19203 0
M  V30 10170 C 959.945 -3.82161 -1.9271 0
M  V30 10171 C 959.271 -4.23373 -3.26587 0
M  V30 10172 C 960.571 -5.07199 -1.24686 0
M  V30 10173 H 962.265 -2.96125 -0.44165 0
M  V30 10174 H 959.811 -1.42446 -0.210993 0
M  V30 10175 H 961.764 -3.08031 -2.87567 0
M  V30 10176 H 960.488 -1.85151 -2.69048 0
M  V30 10177 H 959.147 -3.43989 -1.26757 0
M  V30 10178 H 958.795 -3.36089 -3.74237 0
M  V30 10179 H 958.495 -4.99385 -3.09658 0
M  V30 10180 H 960.019 -4.64623 -3.96178 0
M  V30 10181 H 961.433 -5.43279 -1.83088 0
M  V30 10182 H 959.83 -5.88369 -1.18076 0
M  V30 10183 H 960.9 -4.84386 -0.223227 0
M  V30 10184 N 962.243 0.219913 -1.56058 0
M  V30 10185 C 963.153 1.29349 -1.95719 0
M  V30 10186 C 964.169 1.5119 -0.861248 0
M  V30 10187 O 965.345 1.64289 -1.16495 0
M  V30 10188 C 962.41 2.6229 -2.26726 0
M  V30 10189 C 961.471 2.48738 -3.49897 0
M  V30 10190 C 960.704 3.75339 -3.79416 0
M  V30 10191 O 960.927 4.78427 -3.10586 0
M  V30 10192 O 959.861 3.72352 -4.72903 0
M  V30 10193 H 963.687 0.986979 -2.87215 0
M  V30 10194 H 961.272 0.42291 -1.43289 0
M  V30 10195 H 963.154 3.408 -2.47857 0
M  V30 10196 H 961.829 2.92619 -1.38404 0
M  V30 10197 H 960.736 1.68422 -3.34043 0
M  V30 10198 H 962.069 2.23347 -4.38608 0
M  V30 10199 N 963.721 1.49897 0.486681 0
M  V30 10200 C 964.668 1.67619 1.58658 0
M  V30 10201 C 965.638 0.517537 1.57831 0
M  V30 10202 O 966.823 0.746272 1.756 0
M  V30 10203 C 963.963 1.762 2.96728 0
M  V30 10204 C 963.076 3.03465 3.07462 0
M  V30 10205 C 962.211 3.02937 4.36351 0
M  V30 10206 C 961.25 4.24721 4.4077 0
M  V30 10207 N 960.387 4.22021 5.61108 0
M  V30 10208 H 965.227 2.61528 1.42853 0
M  V30 10209 H 962.764 1.29657 0.694807 0
M  V30 10210 H 964.722 1.79156 3.76774 0
M  V30 10211 H 963.352 0.857452 3.11203 0
M  V30 10212 H 962.404 3.10054 2.20387 0
M  V30 10213 H 963.716 3.93454 3.06586 0
M  V30 10214 H 962.87 3.04536 5.24731 0
M  V30 10215 H 961.609 2.10751 4.39813 0
M  V30 10216 H 960.614 4.23352 3.5079 0
M  V30 10217 H 961.839 5.18116 4.39013 0
M  V30 10218 H 959.785 3.3268 5.65385 0
M  V30 10219 H 959.702 5.05761 5.61909 0
M  V30 10220 H 960.97 4.27743 6.51656 0
M  V30 10221 N 965.199 -0.738761 1.39212 0
M  V30 10222 C 966.445 -1.50046 1.36433 0
M  V30 10223 C 966.778 -1.94157 -0.0409474 0
M  V30 10224 O 966.053 -1.66515 -1.00514 0
M  V30 10225 C 966.336 -2.74277 2.33333 0
M  V30 10226 C 966.189 -2.36209 3.82786 0
M  V30 10227 C 967.508 -3.76361 2.28123 0
M  V30 10228 H 964.627 -0.544294 0.496903 0
M  V30 10229 H 967.269 -0.845005 1.70175 0
M  V30 10230 H 965.419 -3.30204 2.04689 0
M  V30 10231 H 967.091 -1.85942 4.22165 0
M  V30 10232 H 965.334 -1.68483 3.99745 0
M  V30 10233 H 966.005 -3.25156 4.46069 0
M  V30 10234 H 968.481 -3.30009 2.53443 0
M  V30 10235 H 967.357 -4.60957 2.9801 0
M  V30 10236 H 967.618 -4.23013 1.28499 0
M  V30 10237 N 966.677 -1.24326 -0.968545 0
M  V30 10238 C 967.905 -1.10947 -1.74638 0
M  V30 10239 C 968.32 0.338064 -1.85749 0
M  V30 10240 O 967.677 1.23331 -1.3452 0
M  V30 10241 C 967.728 -1.74254 -3.1673 0
M  V30 10242 O 967.449 -3.13347 -3.06178 0
M  V30 10243 C 968.95 -1.66473 -4.10855 0
M  V30 10244 H 966.17 -0.38767 -0.547679 0
M  V30 10245 H 968.714 -1.64415 -1.21605 0
M  V30 10246 H 966.869 -1.2479 -3.66751 0
M  V30 10247 H 967.283 -3.44255 -3.95713 0
M  V30 10248 H 968.757 -2.15452 -5.08217 0
M  V30 10249 H 969.234 -0.625785 -4.34719 0
M  V30 10250 H 969.84 -2.15359 -3.66743 0
M  V30 10251 N 968.156 1.1691 -1.05688 0
M  V30 10252 C 969.066 2.24735 -0.67315 0
M  V30 10253 C 970.082 1.71252 0.308043 0
M  V30 10254 O 971.258 2.00772 0.158889 0
M  V30 10255 C 968.323 3.4665 -0.059026 0
M  V30 10256 C 967.384 4.15198 -1.0913 0
M  V30 10257 C 966.617 5.31292 -0.50639 0
M  V30 10258 O 966.84 5.663 0.682692 0
M  V30 10259 O 965.774 5.88923 -1.2431 0
M  V30 10260 H 969.6 2.59855 -1.57191 0
M  V30 10261 H 967.185 1.24306 -0.828751 0
M  V30 10262 H 969.067 4.20455 0.282018 0
M  V30 10263 H 967.742 3.13316 0.813304 0
M  V30 10264 H 966.649 3.43389 -1.48442 0
M  V30 10265 H 967.982 4.52571 -1.93495 0
M  V30 10266 N 969.634 0.838594 1.33437 0
M  V30 10267 C 970.911 0.356112 1.92331 0
M  V30 10268 C 971.291 -1.1585 1.76471 0
M  V30 10269 O 970.639 -1.97281 1.15293 0
M  V30 10270 C 970.849 0.802715 3.39643 0
M  V30 10271 C 972.197 0.810575 4.16791 0
M  V30 10272 O 973.221 0.746304 3.48294 0
M  V30 10273 O 972.08 0.898082 5.3907 0
M  V30 10274 H 969.174 0.100711 0.820845 0
M  V30 10275 H 971.72 0.924428 1.42311 0
M  V30 10276 H 970.492 1.84529 3.45057 0
M  V30 10277 H 970.115 0.210956 3.9704 0
M  V30 10278 N 971.112 -1.45937 0.595003 0
M  V30 10279 C 972.34 -2.06698 0.091293 0
M  V30 10280 C 972.755 -1.44176 -1.21897 0
M  V30 10281 O 972.112 -0.551402 -1.73971 0
M  V30 10282 C 972.163 -3.61436 -0.0681801 0
M  V30 10283 O 971.884 -4.21622 1.19023 0
M  V30 10284 C 973.385 -4.39155 -0.604814 0
M  V30 10285 H 970.605 -0.668029 0.0630737 0
M  V30 10286 H 973.149 -1.87376 0.819165 0
M  V30 10287 H 971.304 -3.80143 -0.746324 0
M  V30 10288 H 971.718 -5.14647 1.01187 0
M  V30 10289 H 973.192 -5.47973 -0.665532 0
M  V30 10290 H 973.669 -4.08055 -1.62444 0
M  V30 10291 H 974.275 -4.25282 0.0388658 0
M  V30 10292 N 972.59 -0.333456 -1.54032 0
M  V30 10293 C 973.815 0.270517 -2.05628 0
M  V30 10294 C 974.24 1.44231 -1.20744 0
M  V30 10295 O 973.598 1.79975 -0.218822 0
M  V30 10296 C 973.646 0.673251 -3.54259 0
M  V30 10297 O 972.75 1.77448 -3.72271 0
M  V30 10298 H 972.091 0.0469753 -0.662336 0
M  V30 10299 H 974.621 -0.484739 -1.98775 0
M  V30 10300 H 974.631 0.953194 -3.96709 0
M  V30 10301 H 973.306 -0.183747 -4.15494 0
M  V30 10302 H 971.883 1.49259 -3.41725 0
M  V30 10303 N 974.068 1.57479 -0.061844 0
M  V30 10304 C 975.293 1.97843 0.622311 0
M  V30 10305 C 975.718 0.939602 1.62951 0
M  V30 10306 O 975.076 -0.095958 1.81046 0
M  V30 10307 C 975.124 3.37262 1.2762 0
M  V30 10308 O 974.228 3.35943 2.39199 0
M  V30 10309 H 973.569 0.644212 0.160896 0
M  V30 10310 H 976.099 2.04165 -0.133409 0
M  V30 10311 H 976.109 3.74226 1.62539 0
M  V30 10312 H 974.784 4.12404 0.538112 0
M  V30 10313 H 973.361 3.10737 2.06148 0
M  V30 10314 N 975.546 -0.211634 1.56173 0
M  V30 10315 C 976.792 -0.935935 1.79911 0
M  V30 10316 C 977.125 -1.83589 0.633155 0
M  V30 10317 O 976.4 -1.91004 -0.367132 0
M  V30 10318 C 976.683 -1.76638 3.13801 0
M  V30 10319 C 976.536 -0.892259 4.40861 0
M  V30 10320 C 977.855 -2.74224 3.44223 0
M  V30 10321 H 974.974 -0.338822 0.654499 0
M  V30 10322 H 977.616 -0.20422 1.88899 0
M  V30 10323 H 975.766 -2.39021 3.0627 0
M  V30 10324 H 977.438 -0.284407 4.60422 0
M  V30 10325 H 975.681 -0.198145 4.33347 0
M  V30 10326 H 976.352 -1.50793 5.31004 0
M  V30 10327 H 978.828 -2.21975 3.51946 0
M  V30 10328 H 977.704 -3.29424 4.39057 0
M  V30 10329 H 977.965 -3.52455 2.66885 0
M  V30 10330 N 977.024 -1.50153 -0.478725 0
M  V30 10331 C 977.954 -1.71384 -1.58587 0
M  V30 10332 C 978.935 -0.562705 -1.60523 0
M  V30 10333 O 980.12 -0.80101 -1.76911 0
M  V30 10334 C 977.25 -1.80094 -2.96957 0
M  V30 10335 C 976.204 -2.95218 -3.09888 0
M  V30 10336 C 975.53 -2.89063 -4.49829 0
M  V30 10337 C 976.83 -4.35841 -2.8782 0
M  V30 10338 H 978.524 -2.64081 -1.41073 0
M  V30 10339 H 976.07 -1.27081 -0.677239 0
M  V30 10340 H 978.023 -1.93531 -3.74331 0
M  V30 10341 H 976.747 -0.840131 -3.1561 0
M  V30 10342 H 975.406 -2.81419 -2.34944 0
M  V30 10343 H 975.054 -1.90844 -4.6539 0
M  V30 10344 H 974.754 -3.66345 -4.59418 0
M  V30 10345 H 976.278 -3.04539 -5.29234 0
M  V30 10346 H 977.692 -4.50205 -3.54948 0
M  V30 10347 H 976.089 -5.14515 -3.0886 0
M  V30 10348 H 977.159 -4.48739 -1.83742 0
M  V30 10349 N 978.502 0.731368 -1.39602 0
M  V30 10350 C 979.918 1.03739 -1.21286 0
M  V30 10351 C 980.118 2.01353 -0.0769875 0
M  V30 10352 O 979.174 2.45978 0.570193 0
M  V30 10353 C 980.487 1.59621 -2.54837 0
M  V30 10354 C 982.035 1.71683 -2.61713 0
M  V30 10355 C 982.51 2.30973 -3.95494 0
M  V30 10356 N 984.001 2.38378 -3.97153 0
M  V30 10357 C 984.736 2.852 -4.97442 0
M  V30 10358 N 984.232 3.31891 -6.08129 0
M  V30 10359 N 986.025 2.84441 -4.84819 0
M  V30 10360 H 978.176 0.0840456 -2.12234 0
M  V30 10361 H 980.439 0.0999038 -0.942721 0
M  V30 10362 H 980.145 0.953608 -3.38525 0
M  V30 10363 H 980.019 2.58375 -2.74813 0
M  V30 10364 H 982.406 2.35064 -1.78406 0
M  V30 10365 H 982.487 0.715714 -2.45583 0
M  V30 10366 H 982.131 1.68219 -4.79234 0
M  V30 10367 H 982.061 3.31769 -4.08946 0
M  V30 10368 H 984.552 2.05382 -3.17217 0
M  V30 10369 H 984.865 3.66138 -6.8056 0
M  V30 10370 H 983.21 3.2989 -6.11717 0
M  V30 10371 H 986.401 2.4729 -3.97448 0
M  V30 10372 H 986.574 3.20616 -5.63124 0
M  V30 10373 N 979.98 1.24838 0.961938 0
M  V30 10374 C 981.205 1.11967 1.7458 0
M  V30 10375 C 981.63 -0.323287 1.85301 0
M  V30 10376 O 980.988 -1.23412 1.32812 0
M  V30 10377 C 981.036 1.77066 3.14134 0
M  V30 10378 O 980.14 1.04534 3.98932 0
M  V30 10379 H 979.481 0.391338 0.536424 0
M  V30 10380 H 982.011 1.65259 1.20626 0
M  V30 10381 H 982.021 1.83056 3.64629 0
M  V30 10382 H 980.696 2.82052 3.05646 0
M  V30 10383 H 979.273 1.06372 3.57407 0
M  V30 10384 N 981.458 -1.16348 1.06306 0
M  V30 10385 C 982.869 -1.68491 0.80422 0
M  V30 10386 C 983.22 -1.84327 -0.672159 0
M  V30 10387 O 982.345 -1.53892 -1.52139 0
M  V30 10388 C 982.94 -3.06048 1.45328 0
M  V30 10389 C 981.499 -3.55311 1.24221 0
M  V30 10390 C 980.646 -2.31291 1.5297 0
M  V30 10391 H 983.597 -1.00708 1.22652 0
M  V30 10392 H 983.618 -3.70451 0.868674 0
M  V30 10393 H 983.13 -2.9449 2.52779 0
M  V30 10394 H 981.231 -3.72128 0.187447 0
M  V30 10395 H 981.344 -4.37397 1.95502 0
M  V30 10396 H 979.708 -2.3631 0.950241 0
M  V30 10397 H 980.491 -2.22331 2.6158 0
M  V30 10398 N 982.937 -0.845659 -1.3299 0
M  V30 10399 C 983.87 -0.228695 -2.27051 0
M  V30 10400 C 984.848 0.62812 -1.49978 0
M  V30 10401 O 986.032 0.586897 -1.79131 0
M  V30 10402 C 983.159 0.678251 -3.31839 0
M  V30 10403 C 982.205 -0.103994 -4.26373 0
M  V30 10404 S 983.038 -1.46642 -5.1503 0
M  V30 10405 C 984.194 -0.564953 -6.23345 0
M  V30 10406 H 984.427 -1.02609 -2.79032 0
M  V30 10407 H 981.96 -0.642786 -1.40384 0
M  V30 10408 H 983.918 1.1959 -3.92694 0
M  V30 10409 H 982.579 1.44937 -2.78661 0
M  V30 10410 H 981.772 0.586406 -5.00577 0
M  V30 10411 H 981.374 -0.552927 -3.6989 0
M  V30 10412 H 983.666 0.234466 -6.77094 0
M  V30 10413 H 984.609 -1.27736 -6.96483 0
M  V30 10414 H 985.017 -0.143286 -5.64318 0
M  V30 10415 N 984.415 1.45619 -0.602734 0
M  V30 10416 C 985.826 1.85814 -0.181636 0
M  V30 10417 C 986.177 1.5037 1.26029 0
M  V30 10418 O 985.302 0.928068 1.95489 0
M  V30 10419 C 985.897 3.37258 -0.322866 0
M  V30 10420 C 984.456 3.76375 0.043504 0
M  V30 10421 C 983.603 2.69585 -0.649561 0
M  V30 10422 H 986.554 1.36489 -0.809721 0
M  V30 10423 H 986.575 3.77874 0.446279 0
M  V30 10424 H 986.087 3.63024 -1.37241 0
M  V30 10425 H 984.188 3.56226 1.09241 0
M  V30 10426 H 984.301 4.77843 -0.346765 0
M  V30 10427 H 982.665 2.54549 -0.087706 0
M  V30 10428 H 983.448 2.98188 -1.70115 0
M  V30 10429 N 985.893 0.34162 1.53853 0
M  V30 10430 C 987.141 -0.254979 2.00485 0
M  V30 10431 C 987.462 -1.51222 1.23114 0
M  V30 10432 O 986.732 -1.92966 0.337787 0
M  V30 10433 H 985.312 -0.0972084 0.740648 0
M  V30 10434 H 987.974 0.462332 1.89337 0
M  V30 10435 H 987.07 -0.498778 3.08089 0
M  V30 10436 N 987.371 -1.57444 0.0701946 0
M  V30 10437 C 988.617 -1.93716 -0.600178 0
M  V30 10438 C 988.95 -0.950329 -1.69359 0
M  V30 10439 O 988.225 0.0207123 -1.94489 0
M  V30 10440 C 988.508 -3.40266 -1.17861 0
M  V30 10441 C 988.361 -4.49706 -0.0919575 0
M  V30 10442 C 989.68 -3.87599 -2.08459 0
M  V30 10443 H 986.799 -0.704421 -0.216704 0
M  V30 10444 H 989.441 -1.89514 0.135838 0
M  V30 10445 H 987.591 -3.43977 -1.80587 0
M  V30 10446 H 989.263 -4.58116 0.541031 0
M  V30 10447 H 987.506 -4.29937 0.577639 0
M  V30 10448 H 988.177 -5.49381 -0.537048 0
M  V30 10449 H 990.653 -3.85883 -1.5567 0
M  V30 10450 H 989.529 -4.90755 -2.45867 0
M  V30 10451 H 989.79 -3.25448 -2.99226 0
M  V30 10452 N 988.849 0.203349 -1.56283 0
M  V30 10453 C 990.095 0.926381 -1.80405 0
M  V30 10454 C 990.428 1.8325 -0.642883 0
M  V30 10455 O 989.703 1.91196 0.356998 0
M  V30 10456 C 989.986 1.74972 -3.14733 0
M  V30 10457 C 989.839 0.868866 -4.41328 0
M  V30 10458 C 991.158 2.72394 -3.45672 0
M  V30 10459 H 988.277 0.335346 -0.656286 0
M  V30 10460 H 990.919 0.1942 -1.89005 0
M  V30 10461 H 989.069 2.37394 -3.07533 0
M  V30 10462 H 990.741 0.259986 -4.60567 0
M  V30 10463 H 988.984 0.175161 -4.33446 0
M  V30 10464 H 989.655 1.47975 -5.31796 0
M  V30 10465 H 992.131 2.20105 -3.53119 0
M  V30 10466 H 991.007 3.27091 -4.40798 0
M  V30 10467 H 991.268 3.51035 -2.6875 0
M  V30 10468 N 990.327 1.50405 0.470755 0
M  V30 10469 C 991.573 1.6165 1.22462 0
M  V30 10470 C 991.906 0.316034 1.91611 0
M  V30 10471 O 991.181 -0.682509 1.82132 0
M  V30 10472 C 991.464 2.79702 2.26801 0
M  V30 10473 C 991.317 4.19631 1.61955 0
M  V30 10474 C 992.636 2.93313 3.28109 0
M  V30 10475 H 989.755 0.588345 0.443868 0
M  V30 10476 H 992.397 1.82792 0.518376 0
M  V30 10477 H 990.547 2.61807 2.87036 0
M  V30 10478 H 992.219 4.49117 1.05316 0
M  V30 10479 H 990.462 4.23874 0.922674 0
M  V30 10480 H 991.133 4.98162 2.37779 0
M  V30 10481 H 993.609 3.09697 2.77897 0
M  V30 10482 H 992.485 3.77537 3.98443 0
M  V30 10483 H 992.746 2.03942 3.9225 0
M  V30 10484 N 991.805 -0.723954 1.39988 0
M  V30 10485 C 992.768 -1.81973 1.3935 0
M  V30 10486 C 993.768 -1.58187 0.288702 0
M  V30 10487 O 994.958 -1.65383 0.547181 0
M  V30 10488 C 992.09 -3.19937 1.177 0
M  V30 10489 H 993.283 -1.83939 2.36868 0
M  V30 10490 H 990.836 -0.928742 1.25714 0
M  V30 10491 H 991.571 -3.23625 0.209093 0
M  V30 10492 H 991.356 -3.386 1.97719 0
M  V30 10493 H 992.846 -3.99981 1.20022 0
M  V30 10494 N 993.283 -1.25346 -0.955304 0
M  V30 10495 C 994.529 -1.10218 -1.70235 0
M  V30 10496 C 994.862 0.356124 -1.90907 0
M  V30 10497 O 994.137 1.26253 -1.47954 0
M  V30 10498 C 994.42 -1.85627 -3.08569 0
M  V30 10499 C 994.273 -3.39281 -2.95311 0
M  V30 10500 C 995.592 -1.63886 -4.08448 0
M  V30 10501 H 992.711 -0.401781 -0.617852 0
M  V30 10502 H 995.353 -1.5417 -1.11048 0
M  V30 10503 H 993.503 -1.48269 -3.59094 0
M  V30 10504 H 995.175 -3.8631 -2.52116 0
M  V30 10505 H 993.418 -3.67027 -2.31244 0
M  V30 10506 H 994.089 -3.87258 -3.93364 0
M  V30 10507 H 996.565 -1.96406 -3.6683 0
M  V30 10508 H 995.441 -2.19087 -5.03281 0
M  V30 10509 H 995.702 -0.580021 -4.38279 0
M  V30 10510 N 994.761 1.15782 -1.06922 0
M  V30 10511 C 995.986 1.90896 -0.810771 0
M  V30 10512 C 996.411 1.77246 0.629714 0
M  V30 10513 O 995.769 1.10215 1.43953 0
M  V30 10514 C 995.817 3.39397 -1.21829 0
M  V30 10515 O 994.921 4.10818 -0.360934 0
M  V30 10516 H 994.262 0.594497 -0.295752 0
M  V30 10517 H 996.792 1.46652 -1.42669 0
M  V30 10518 H 996.802 3.90181 -1.19259 0
M  V30 10519 H 995.477 3.4865 -2.2675 0
M  V30 10520 H 994.054 3.7019 -0.448748 0
M  V30 10521 N 996.239 0.8527 1.3254 0
M  V30 10522 C 997.485 0.455798 1.97612 0
M  V30 10523 C 997.818 -0.985616 1.6733 0
M  V30 10524 O 997.093 -1.69129 0.960493 0
M  V30 10525 C 997.376 0.69312 3.53366 0
M  V30 10526 C 997.229 2.18281 3.93285 0
M  V30 10527 C 998.548 0.148236 4.3985 0
M  V30 10528 H 995.667 0.167078 0.717812 0
M  V30 10529 H 998.309 1.07076 1.56954 0
M  V30 10530 H 996.459 0.169677 3.88129 0
M  V30 10531 H 998.131 2.77218 3.68711 0
M  V30 10532 H 996.374 2.66206 3.42515 0
M  V30 10533 H 997.045 2.29957 5.01821 0
M  V30 10534 H 999.521 0.595834 4.11812 0
M  V30 10535 H 998.397 0.343873 5.47822 0
M  V30 10536 H 998.658 -0.948872 4.31797 0
M  V30 10537 N 997.718 -1.45297 0.610449 0
M  V30 10538 C 998.665 -2.30553 -0.106718 0
M  V30 10539 C 999.635 -1.42272 -0.85719 0
M  V30 10540 O 1000.82 -1.71199 -0.842357 0
M  V30 10541 C 997.96 -3.27226 -1.09623 0
M  V30 10542 C 997.073 -4.3061 -0.346329 0
M  V30 10543 C 996.208 -5.14389 -1.32581 0
M  V30 10544 C 995.247 -6.09497 -0.563892 0
M  V30 10545 N 994.384 -6.86047 -1.4928 0
M  V30 10546 H 999.224 -2.91344 0.626296 0
M  V30 10547 H 996.761 -1.43563 0.32065 0
M  V30 10548 H 998.719 -3.81744 -1.68308 0
M  V30 10549 H 997.349 -2.68182 -1.79662 0
M  V30 10550 H 996.401 -3.7873 0.356084 0
M  V30 10551 H 997.713 -4.98183 0.248026 0
M  V30 10552 H 996.867 -5.73321 -1.98464 0
M  V30 10553 H 995.606 -4.4684 -1.9541 0
M  V30 10554 H 994.611 -5.49693 0.108551 0
M  V30 10555 H 995.836 -6.79074 0.0593872 0
M  V30 10556 H 993.782 -6.21185 -2.10868 0
M  V30 10557 H 993.699 -7.49983 -0.951953 0
M  V30 10558 H 994.967 -7.49518 -2.14112 0
M  V30 10559 N 999.196 -0.349774 -1.5367 0
M  V30 10560 C 1000.61 0.132815 -1.86227 0
M  V30 10561 C 1000.96 1.49479 -1.27084 0
M  V30 10562 O 1000.08 2.08292 -0.58679 0
M  V30 10563 C 1000.68 0.247775 -3.37893 0
M  V30 10564 C 999.237 0.674603 -3.70305 0
M  V30 10565 C 998.384 -0.187869 -2.76663 0
M  V30 10566 H 1001.33 -0.569148 -1.48143 0
M  V30 10567 H 1001.36 1.07418 -3.65023 0
M  V30 10568 H 1000.87 -0.743635 -3.80909 0
M  V30 10569 H 998.969 1.67481 -3.32837 0
M  V30 10570 H 999.082 0.460177 -4.76885 0
M  V30 10571 H 997.446 0.340779 -2.5241 0
M  V30 10572 H 998.229 -1.17653 -3.2251 0
M  V30 10573 N 1000.67 1.57404 -0.0785433 0
M  V30 10574 C 1001.92 1.93361 0.58786 0
M  V30 10575 C 1002.24 0.959856 1.6974 0
M  V30 10576 O 1001.51 0.0091173 1.95898 0
M  V30 10577 H 1000.09 0.713825 0.220141 0
M  V30 10578 H 1002.75 1.94411 -0.137986 0
M  V30 10579 H 1001.85 2.95346 1.00881 0
M  V30 10580 N 1002.15 -0.195058 1.56388 0
M  V30 10581 C 1003.43 -0.941335 1.71459 0
M  V30 10582 C 1003.81 -2.01375 0.633336 0
M  V30 10583 O 1003.16 -2.25715 -0.35567 0
M  V30 10584 C 1003.37 -1.52772 3.13786 0
M  V30 10585 C 1004.71 -2.00983 3.7402 0
M  V30 10586 O 1005.74 -1.62614 3.16915 0
M  V30 10587 O 1004.6 -2.71586 4.7424 0
M  V30 10588 H 1001.69 -0.441451 0.699321 0
M  V30 10589 H 1004.24 -0.184752 1.68691 0
M  V30 10590 H 1003.01 -0.754699 3.83953 0
M  V30 10591 H 1002.63 -2.34914 3.20782 0
M  V30 10592 N 1003.63 -1.50653 -0.462772 0
M  V30 10593 C 1004.59 -1.69561 -1.54213 0
M  V30 10594 C 1005.59 -0.566106 -1.50505 0
M  V30 10595 O 1006.78 -0.833273 -1.52978 0
M  V30 10596 C 1003.91 -1.72856 -2.93826 0
M  V30 10597 H 1005.11 -2.65867 -1.38761 0
M  V30 10598 H 1002.66 -1.40259 -0.689728 0
M  V30 10599 H 1003.4 -0.78273 -3.14712 0
M  V30 10600 H 1003.18 -2.54919 -2.97924 0
M  V30 10601 H 1004.67 -1.89411 -3.72174 0
M  V30 10602 N 1005.11 0.71652 -1.4037 0
M  V30 10603 C 1006.35 1.47857 -1.38803 0
M  V30 10604 C 1006.69 1.94197 0.0100536 0
M  V30 10605 O 1005.96 1.68093 0.978521 0
M  V30 10606 C 1006.25 2.7053 -2.37667 0
M  V30 10607 C 1006.1 2.3009 -3.86496 0
M  V30 10608 C 1007.42 3.72684 -2.34082 0
M  V30 10609 H 1004.54 0.53632 -0.505499 0
M  V30 10610 H 1007.18 0.817824 -1.71498 0
M  V30 10611 H 1005.33 3.26906 -2.09916 0
M  V30 10612 H 1007 1.79202 -4.2507 0
M  V30 10613 H 1005.24 1.62102 -4.02375 0
M  V30 10614 H 1005.91 3.18018 -4.51186 0
M  V30 10615 H 1008.39 3.25935 -2.58661 0
M  V30 10616 H 1007.27 4.56157 -3.05306 0
M  V30 10617 H 1007.53 4.20916 -1.35213 0
M  V30 10618 N 1006.59 1.25851 0.948643 0
M  V30 10619 C 1007.55 1.0683 2.0278 0
M  V30 10620 C 1008.55 0.0191016 1.60789 0
M  V30 10621 O 1009.74 0.261836 1.72221 0
M  V30 10622 C 1006.87 0.623318 3.35153 0
M  V30 10623 H 1008.06 2.02635 2.21086 0
M  V30 10624 H 1005.62 1.08343 1.12657 0
M  V30 10625 H 1006.35 -0.337053 3.22544 0
M  V30 10626 H 1006.14 1.38082 3.66982 0
M  V30 10627 H 1007.63 0.511854 4.14451 0
M  V30 10628 N 1008.06 -1.15214 1.07534 0
M  V30 10629 C 1008.97 -2.23636 0.708818 0
M  V30 10630 C 1009.99 -1.7172 -0.280759 0
M  V30 10631 O 1011.17 -2.01 -0.126927 0
M  V30 10632 C 1008.23 -3.46512 0.114167 0
M  V30 10633 C 1007.29 -4.13409 1.15722 0
M  V30 10634 C 1006.53 -5.30419 0.59085 0
M  V30 10635 O 1006.75 -5.67314 -0.592512 0
M  V30 10636 O 1005.68 -5.86871 1.33663 0
M  V30 10637 H 1009.51 -2.57322 1.61305 0
M  V30 10638 H 1007.09 -1.22972 0.848422 0
M  V30 10639 H 1008.98 -4.20851 -0.215091 0
M  V30 10640 H 1007.65 -3.1457 -0.763356 0
M  V30 10641 H 1006.56 -3.40984 1.53886 0
M  V30 10642 H 1007.89 -4.49435 2.00671 0
M  V30 10643 N 1009.54 -0.859717 -1.32086 0
M  V30 10644 C 1010.79 -0.464662 -1.96686 0
M  V30 10645 C 1011.11 0.98412 -1.68345 0
M  V30 10646 O 1010.38 1.68847 -0.993361 0
M  V30 10647 H 1008.96 -0.168838 -0.727669 0
M  V30 10648 H 1011.62 -1.09726 -1.61079 0
M  V30 10649 H 1010.72 -0.613904 -3.06003 0
M  V30 10650 N 1011.02 1.44971 -0.618145 0
M  V30 10651 C 1011.95 2.28815 0.132751 0
M  V30 10652 C 1012.97 1.40551 0.821535 0
M  V30 10653 O 1014.15 1.64827 0.685155 0
M  V30 10654 C 1011.25 3.1658 1.20955 0
M  V30 10655 C 1010.43 4.33184 0.605821 0
M  V30 10656 C 1009.49 5.0208 1.57488 0
M  V30 10657 O 1008.51 5.58528 1.09706 0
M  V30 10658 N 1009.71 5.02335 2.9093 0
M  V30 10659 H 1012.48 2.939 -0.58674 0
M  V30 10660 H 1010.04 1.55276 -0.458375 0
M  V30 10661 H 1012.03 3.59535 1.85787 0
M  V30 10662 H 1010.6 2.53333 1.83143 0
M  V30 10663 H 1009.82 3.93581 -0.220827 0
M  V30 10664 H 1011.11 5.08471 0.182883 0
M  V30 10665 H 1010.51 4.57783 3.32342 0
M  V30 10666 H 1009.07 5.49119 3.51157 0
M  V30 10667 N 1012.5 0.357919 1.53482 0
M  V30 10668 C 1013.41 -0.500273 2.29204 0
M  V30 10669 C 1014.42 -1.09936 1.3487 0
M  V30 10670 O 1015.6 -1.11195 1.67921 0
M  V30 10671 C 1012.67 -1.62828 3.06085 0
M  V30 10672 C 1011.73 -1.05751 4.16071 0
M  V30 10673 C 1010.96 -2.13176 4.89277 0
M  V30 10674 O 1011.18 -3.34153 4.62274 0
M  V30 10675 O 1010.12 -1.76663 5.7539 0
M  V30 10676 H 1013.94 0.115696 3.0348 0
M  V30 10677 H 1011.53 0.122527 1.48897 0
M  V30 10678 H 1013.41 -2.28427 3.54117 0
M  V30 10679 H 1012.08 -2.22979 2.34653 0
M  V30 10680 H 1010.99 -0.365642 3.72309 0
M  V30 10681 H 1012.32 -0.500661 4.89647 0
M  V30 10682 N 1013.98 -1.5736 0.0868897 0
M  V30 10683 C 1015.23 -1.93229 -0.578387 0
M  V30 10684 C 1015.54 -0.970127 -1.69847 0
M  V30 10685 O 1016.74 -1.22222 -2.42434 0
M  V30 10686 C 1015.2 -3.43307 -1.0802 0
M  V30 10687 C 1014.81 -4.47999 0.00968135 0
M  V30 10688 C 1016.55 -3.88151 -1.71868 0
M  V30 10689 C 1014.46 -5.89223 -0.507029 0
M  V30 10690 H 1013.39 -0.721245 -0.219823 0
M  V30 10691 H 1016.04 -1.82787 0.161566 0
M  V30 10692 H 1014.42 -3.48873 -1.87359 0
M  V30 10693 H 1015.6 -4.54067 0.784865 0
M  V30 10694 H 1013.91 -4.12714 0.552845 0
M  V30 10695 H 1016.51 -4.91056 -2.11585 0
M  V30 10696 H 1016.85 -3.26347 -2.58464 0
M  V30 10697 H 1017.38 -3.85252 -0.991259 0
M  V30 10698 H 1014.12 -6.54708 0.322121 0
M  V30 10699 H 1013.64 -5.86643 -1.2494 0
M  V30 10700 H 1015.32 -6.39556 -0.978628 0
M  V30 10701 N 1015.45 0.186762 -1.56489 0
M  V30 10702 C 1016.69 0.912523 -1.829 0
M  V30 10703 C 1017.06 1.80094 -0.665598 0
M  V30 10704 O 1018.26 2.56312 -0.809787 0
M  V30 10705 C 1016.53 1.70022 -3.14368 0
M  V30 10706 S 1018.09 2.47686 -3.62211 0
M  V30 10707 H 1014.91 0.305916 -0.641823 0
M  V30 10708 H 1017.51 0.175289 -1.94713 0
M  V30 10709 H 1016.21 1.03832 -3.97048 0
M  V30 10710 H 1015.74 2.47912 -3.05456 0
M  V30 10711 H 1017.76 3.72058 -3.28309 0
M  V30 10712 N 1016.93 1.50896 0.454776 0
M  V30 10713 C 1018.18 1.6294 1.20741 0
M  V30 10714 C 1018.51 0.336339 1.91265 0
M  V30 10715 O 1017.79 -0.663153 1.82846 0
M  V30 10716 C 1018.07 2.82092 2.23822 0
M  V30 10717 C 1017.92 4.21326 1.57495 0
M  V30 10718 C 1019.24 2.96777 3.24979 0
M  V30 10719 H 1016.36 0.59302 0.437603 0
M  V30 10720 H 1019 1.83331 0.498959 0
M  V30 10721 H 1017.15 2.64837 2.84243 0
M  V30 10722 H 1018.82 4.50209 1.00546 0
M  V30 10723 H 1017.07 4.24829 0.877664 0
M  V30 10724 H 1017.74 5.00656 2.32482 0
M  V30 10725 H 1020.21 3.12627 2.74597 0
M  V30 10726 H 1019.09 3.81742 3.94416 0
M  V30 10727 H 1019.35 2.08091 3.90065 0
M  V30 10728 N 1018.41 -0.709066 1.40748 0
M  V30 10729 C 1019.66 -1.4646 1.38681 0
M  V30 10730 C 1019.97 -1.95599 -0.0056209 0
M  V30 10731 O 1021.18 -2.71091 -0.148907 0
M  V30 10732 C 1019.63 -2.64771 2.43771 0
M  V30 10733 C 1019.24 -2.22474 3.88856 0
M  V30 10734 C 1020.99 -3.42475 2.50821 0
M  V30 10735 C 1018.89 -3.37663 4.85528 0
M  V30 10736 H 1017.82 -0.550084 0.515678 0
M  V30 10737 H 1020.47 -0.771074 1.66513 0
M  V30 10738 H 1018.86 -3.36325 2.09048 0
M  V30 10739 H 1020.03 -1.58297 4.32757 0
M  V30 10740 H 1018.35 -1.57798 3.85342 0
M  V30 10741 H 1020.94 -4.28201 3.20232 0
M  V30 10742 H 1021.29 -3.86738 1.54076 0
M  V30 10743 H 1021.82 -2.77969 2.84567 0
M  V30 10744 H 1018.56 -2.98426 5.83628 0
M  V30 10745 H 1018.08 -4.00734 4.46287 0
M  V30 10746 H 1019.76 -4.03636 5.05655 0
M  V30 10747 N 1019.89 -1.26353 -0.941956 0
M  V30 10748 C 1020.8 -1.09618 -2.07415 0
M  V30 10749 C 1021.82 -0.0298963 -1.73974 0
M  V30 10750 O 1022.99 -0.233466 -2.00042 0
M  V30 10751 C 1020.06 -0.73013 -3.38925 0
M  V30 10752 C 1019.12 -1.87574 -3.86153 0
M  V30 10753 C 1018.35 -1.52706 -5.11387 0
M  V30 10754 O 1018.57 -0.428438 -5.68789 0
M  V30 10755 O 1017.51 -2.36154 -5.53638 0
M  V30 10756 H 1021.33 -2.04598 -2.2444 0
M  V30 10757 H 1018.92 -1.05407 -1.05876 0
M  V30 10758 H 1020.8 -0.538684 -4.17943 0
M  V30 10759 H 1019.48 0.190282 -3.2314 0
M  V30 10760 H 1018.38 -2.12214 -3.08084 0
M  V30 10761 H 1019.72 -2.77585 -4.06457 0
M  V30 10762 N 1021.37 1.14642 -1.08144 0
M  V30 10763 C 1022.33 2.17834 -0.712799 0
M  V30 10764 C 1023.33 1.58828 0.251041 0
M  V30 10765 O 1024.52 1.74173 0.0309381 0
M  V30 10766 C 1021.65 3.4086 -0.0519477 0
M  V30 10767 H 1022.85 2.51961 -1.62653 0
M  V30 10768 H 1020.4 1.29243 -0.878971 0
M  V30 10769 H 1021.13 3.12311 0.873636 0
M  V30 10770 H 1020.92 3.84952 -0.745286 0
M  V30 10771 H 1022.41 4.17163 0.191031 0
M  V30 10772 N 1022.85 0.866709 1.31628 0
M  V30 10773 C 1023.78 0.264788 2.26659 0
M  V30 10774 C 1024.76 -0.604181 1.50958 0
M  V30 10775 O 1025.94 -0.558324 1.80042 0
M  V30 10776 C 1023.07 -0.625373 3.32877 0
M  V30 10777 C 1022.11 0.171813 4.26154 0
M  V30 10778 S 1022.95 1.54818 5.12632 0
M  V30 10779 C 1024.1 0.66405 6.22367 0
M  V30 10780 H 1024.34 1.07036 2.77364 0
M  V30 10781 H 1021.87 0.665038 1.39343 0
M  V30 10782 H 1023.83 -1.13327 3.94547 0
M  V30 10783 H 1022.49 -1.40486 2.80932 0
M  V30 10784 H 1021.68 -0.506694 5.01447 0
M  V30 10785 H 1021.28 0.611704 3.68964 0
M  V30 10786 H 1023.57 -0.126717 6.77381 0
M  V30 10787 H 1024.52 1.388 6.94363 0
M  V30 10788 H 1024.93 0.233046 5.64019 0
M  V30 10789 N 1024.32 -1.44642 0.625825 0
M  V30 10790 C 1025.27 -2.30653 -0.082259 0
M  V30 10791 C 1026.24 -1.43174 -0.842052 0
M  V30 10792 O 1027.43 -1.72082 -0.824151 0
M  V30 10793 C 1024.57 -3.2837 -1.06146 0
M  V30 10794 C 1023.68 -4.30953 -0.300638 0
M  V30 10795 C 1022.81 -5.15766 -1.27118 0
M  V30 10796 C 1021.85 -6.10061 -0.499215 0
M  V30 10797 N 1020.99 -6.87591 -1.41995 0
M  V30 10798 H 1025.83 -2.90664 0.657161 0
M  V30 10799 H 1023.37 -1.43215 0.335859 0
M  V30 10800 H 1025.32 -3.83507 -1.6425 0
M  V30 10801 H 1023.95 -2.70072 -1.76807 0
M  V30 10802 H 1023.01 -3.78331 0.396234 0
M  V30 10803 H 1024.32 -4.97892 0.300851 0
M  V30 10804 H 1023.47 -5.75394 -1.92372 0
M  V30 10805 H 1022.21 -4.48888 -1.9066 0
M  V30 10806 H 1021.22 -5.49547 0.166848 0
M  V30 10807 H 1022.44 -6.78973 0.131409 0
M  V30 10808 H 1020.39 -6.23387 -2.04267 0
M  V30 10809 H 1020.3 -7.5095 -0.872354 0
M  V30 10810 H 1021.57 -7.51746 -2.0615 0
M  V30 10811 N 1025.8 -0.366053 -1.5329 0
M  V30 10812 C 1026.73 0.523781 -2.22108 0
M  V30 10813 C 1027.71 1.08262 -1.21318 0
M  V30 10814 O 1028.9 1.13866 -1.50222 0
M  V30 10815 C 1026.02 1.72273 -2.91616 0
M  V30 10816 C 1025.07 1.29129 -4.06482 0
M  V30 10817 S 1025.9 0.292195 -5.34702 0
M  V30 10818 C 1027.06 1.49746 -6.07723 0
M  V30 10819 H 1027.29 -0.0606687 -2.97238 0
M  V30 10820 H 1024.82 -0.15016 -1.53668 0
M  V30 10821 H 1026.78 2.41045 -3.32277 0
M  V30 10822 H 1025.44 2.27843 -2.16209 0
M  V30 10823 H 1024.64 2.18583 -4.54134 0
M  V30 10824 H 1024.24 0.682783 -3.67715 0
M  V30 10825 H 1026.53 2.4284 -6.32483 0
M  V30 10826 H 1027.47 1.06232 -7.00086 0
M  V30 10827 H 1027.88 1.70373 -5.38176 0
M  V30 10828 N 1027.28 1.57312 -0.0952337 0
M  V30 10829 C 1028.21 2.11059 0.893678 0
M  V30 10830 C 1029.22 1.04787 1.24594 0
M  V30 10831 O 1030.41 1.32233 1.19903 0
M  V30 10832 C 1027.51 2.57552 2.20272 0
M  V30 10833 C 1026.69 3.87661 2.02578 0
M  V30 10834 C 1025.75 4.2 3.16996 0
M  V30 10835 O 1024.77 4.89219 2.90953 0
M  V30 10836 N 1025.97 3.75414 4.42769 0
M  V30 10837 H 1028.74 2.96532 0.434632 0
M  V30 10838 H 1026.3 1.6165 0.0898661 0
M  V30 10839 H 1028.29 2.76232 2.95766 0
M  V30 10840 H 1026.86 1.7709 2.576 0
M  V30 10841 H 1026.08 3.78128 1.11413 0
M  V30 10842 H 1027.37 4.7278 1.88032 0
M  V30 10843 H 1026.77 3.1954 4.66809 0
M  V30 10844 H 1025.32 3.99249 5.15212 0
M  V30 10845 N 1028.76 -0.17846 1.56586 0
M  V30 10846 C 1029.71 -1.24042 1.96765 0
M  V30 10847 C 1030.7 -1.46218 0.855375 0
M  V30 10848 O 1031.91 -1.46882 1.04046 0
M  V30 10849 H 1028.28 -0.416807 0.62592 0
M  V30 10850 H 1030.25 -0.874644 2.85294 0
M  V30 10851 C 1029 -2.57394 2.3376 0
M  V30 10852 H 1028.32 -2.41151 3.18883 0
M  V30 10853 H 1029.76 -3.30405 2.65723 0
M  V30 10854 C 1028.22 -3.15621 1.17835 0
M  V30 10855 O 1028.75 -3.99032 0.462202 0
M  V30 10856 N 1026.96 -2.74606 0.950783 0
M  V30 10857 H 1026.51 -2.06878 1.5349 0
M  V30 10858 H 1026.46 -3.13902 0.176967 0
M  V30 10859 N 1030.24 -1.51135 -0.446768 0
M  V30 10860 C 1031.46 -1.67411 -1.22427 0
M  V30 10861 C 1031.89 -0.367009 -1.84485 0
M  V30 10862 O 1031.24 0.67185 -1.68392 0
M  V30 10863 C 1031.29 -2.78473 -2.29096 0
M  V30 10864 O 1030.4 -2.41419 -3.34351 0
M  V30 10865 H 1029.74 -0.558512 -0.359111 0
M  V30 10866 H 1032.27 -1.97648 -0.5288 0
M  V30 10867 H 1032.28 -3.02277 -2.7403 0
M  V30 10868 H 1030.95 -3.73326 -1.83304 0
M  V30 10869 H 1029.53 -2.28152 -2.9496 0
M  V30 10870 N 1031.71 0.701592 -1.41122 0
M  V30 10871 C 1032.65 1.8257 -1.36907 0
M  V30 10872 C 1033.62 1.6086 -0.237245 0
M  V30 10873 O 1034.81 1.83688 -0.423182 0
M  V30 10874 C 1031.94 3.19149 -1.13408 0
M  V30 10875 C 1030.98 3.59661 -2.29229 0
M  V30 10876 S 1031.81 3.65161 -3.91685 0
M  V30 10877 C 1032.97 5.04477 -3.70478 0
M  V30 10878 H 1033.2 1.85867 -2.32036 0
M  V30 10879 H 1030.74 0.869726 -1.27574 0
M  V30 10880 H 1032.69 3.97998 -1.00537 0
M  V30 10881 H 1031.36 3.13468 -0.199099 0
M  V30 10882 H 1030.55 4.58866 -2.08466 0
M  V30 10883 H 1030.15 2.88105 -2.38477 0
M  V30 10884 H 1032.44 5.91803 -3.29811 0
M  V30 10885 H 1033.39 5.3028 -4.69264 0
M  V30 10886 H 1033.79 4.75731 -3.03876 0
M  V30 10887 N 1033.19 1.2685 0.935242 0
M  V30 10888 C 1034.42 1.15538 1.71635 0
M  V30 10889 C 1034.83 -0.288698 1.8658 0
M  V30 10890 O 1034.19 -1.19721 1.37743 0
M  V30 10891 C 1034.24 1.8259 3.11999 0
M  V30 10892 O 1033.96 3.21355 2.97763 0
M  V30 10893 C 1035.46 1.77307 4.06297 0
M  V30 10894 H 1032.68 0.402055 0.537208 0
M  V30 10895 H 1035.23 1.67582 1.17203 0
M  V30 10896 H 1033.38 1.3447 3.63313 0
M  V30 10897 H 1033.8 3.54626 3.86446 0
M  V30 10898 H 1035.27 2.28851 5.02326 0
M  V30 10899 H 1035.75 0.740823 4.32907 0
M  V30 10900 H 1036.35 2.25007 3.60904 0
M  V30 10901 N 1034.67 -1.14067 1.0875 0
M  V30 10902 C 1035.63 -2.17453 0.724341 0
M  V30 10903 C 1036.63 -1.58959 -0.242614 0
M  V30 10904 O 1037.82 -1.74186 -0.0217008 0
M  V30 10905 C 1034.96 -3.40828 0.0700236 0
M  V30 10906 H 1036.15 -2.51094 1.63987 0
M  V30 10907 H 1033.7 -1.28775 0.885813 0
M  V30 10908 H 1034.44 -3.1277 -0.857061 0
M  V30 10909 H 1034.22 -3.84551 0.76569 0
M  V30 10910 H 1035.71 -4.17258 -0.168905 0
M  V30 10911 N 1036.15 -0.873678 -1.31166 0
M  V30 10912 C 1037.4 -0.485497 -1.96182 0
M  V30 10913 C 1037.72 0.96621 -1.69379 0
M  V30 10914 O 1036.99 1.67783 -1.01121 0
M  V30 10915 H 1035.57 -0.176547 -0.725838 0
M  V30 10916 H 1038.23 -1.11428 -1.59906 0
M  V30 10917 H 1037.33 -0.646325 -3.05334 0
M  V30 10918 N 1037.63 1.44308 -0.633487 0
M  V30 10919 C 1038.57 2.30694 0.0700257 0
M  V30 10920 C 1039.54 1.43618 0.834447 0
M  V30 10921 O 1040.73 1.72517 0.815014 0
M  V30 10922 C 1037.87 3.28929 1.04403 0
M  V30 10923 C 1036.98 4.31106 0.277779 0
M  V30 10924 C 1036.12 5.16433 1.24381 0
M  V30 10925 C 1035.16 6.10317 0.466855 0
M  V30 10926 N 1034.29 6.88335 1.38347 0
M  V30 10927 H 1039.13 2.90311 -0.672567 0
M  V30 10928 H 1036.67 1.43034 -0.343449 0
M  V30 10929 H 1038.63 3.84373 1.62214 0
M  V30 10930 H 1037.26 2.71006 1.75372 0
M  V30 10931 H 1036.31 3.78115 -0.416292 0
M  V30 10932 H 1037.62 4.97725 -0.327251 0
M  V30 10933 H 1036.78 5.76406 1.89318 0
M  V30 10934 H 1035.51 4.49893 1.88276 0
M  V30 10935 H 1034.52 5.49451 -0.195989 0
M  V30 10936 H 1035.74 6.78894 -0.167414 0
M  V30 10937 H 1033.69 6.24461 2.00959 0
M  V30 10938 H 1033.61 7.51402 0.832517 0
M  V30 10939 H 1034.88 7.52829 2.0216 0
M  V30 10940 N 1039.1 0.374177 1.53094 0
M  V30 10941 C 1040.33 -0.213325 2.05797 0
M  V30 10942 C 1040.75 -1.41753 1.24706 0
M  V30 10943 O 1040.1 -1.80183 0.289868 0
M  V30 10944 C 1040.16 -0.598367 3.56513 0
M  V30 10945 O 1039.88 0.557983 4.34532 0
M  V30 10946 C 1041.38 -1.24334 4.25507 0
M  V30 10947 H 1038.6 -0.0357398 0.670048 0
M  V30 10948 H 1041.14 0.535035 1.97377 0
M  V30 10949 H 1039.3 -1.29663 3.65056 0
M  V30 10950 H 1039.71 0.244911 5.23928 0
M  V30 10951 H 1041.18 -1.46325 5.32253 0
M  V30 10952 H 1041.66 -2.20622 3.79766 0
M  V30 10953 H 1042.27 -0.586269 4.2124 0
M  V30 10954 N 1040.58 -1.57259 0.103575 0
M  V30 10955 C 1041.83 -1.94272 -0.557024 0
M  V30 10956 C 1042.15 -0.986739 -1.68192 0
M  V30 10957 O 1041.42 -0.0402818 -1.95859 0
M  V30 10958 H 1040 -0.717237 -0.208757 0
M  V30 10959 H 1042.66 -1.94167 0.168898 0
M  V30 10960 H 1041.76 -2.96914 -0.961691 0
M  V30 10961 N 1042.06 0.170153 -1.56679 0
M  V30 10962 C 1043.29 0.902134 -1.86197 0
M  V30 10963 C 1043.7 1.75775 -0.689098 0
M  V30 10964 O 1043.06 1.79271 0.341763 0
M  V30 10965 C 1043.11 1.77792 -3.14757 0
M  V30 10966 O 1042.83 0.956817 -4.27524 0
M  V30 10967 C 1044.33 2.61947 -3.57629 0
M  V30 10968 H 1041.55 0.262026 -0.617724 0
M  V30 10969 H 1044.1 0.169899 -2.03793 0
M  V30 10970 H 1042.25 2.46348 -2.98984 0
M  V30 10971 H 1042.67 1.5559 -5.00891 0
M  V30 10972 H 1044.14 3.19011 -4.50484 0
M  V30 10973 H 1044.62 3.36873 -2.81803 0
M  V30 10974 H 1045.22 1.98721 -3.76019 0
M  V30 10975 N 1043.54 1.5137 0.438746 0
M  V30 10976 C 1044.78 1.64211 1.19006 0
M  V30 10977 C 1045.12 0.356607 1.90898 0
M  V30 10978 O 1044.39 -0.643722 1.83539 0
M  V30 10979 C 1044.68 2.8445 2.20817 0
M  V30 10980 C 1044.53 4.22972 1.53018 0
M  V30 10981 C 1045.85 3.00207 3.21813 0
M  V30 10982 H 1042.97 0.597628 0.431288 0
M  V30 10983 H 1045.61 1.8385 0.479487 0
M  V30 10984 H 1043.76 2.67836 2.81418 0
M  V30 10985 H 1045.43 4.5125 0.957654 0
M  V30 10986 H 1043.67 4.25736 0.832556 0
M  V30 10987 H 1044.34 5.03094 2.27158 0
M  V30 10988 H 1046.82 3.15522 2.71266 0
M  V30 10989 H 1045.7 3.85904 3.90345 0
M  V30 10990 H 1045.96 2.12216 3.87836 0
M  V30 10991 N 1045.02 -0.694098 1.41492 0
M  V30 10992 C 1045.96 -1.80801 1.43456 0
M  V30 10993 C 1046.93 -1.63571 0.288757 0
M  V30 10994 O 1048.12 -1.844 0.490017 0
M  V30 10995 C 1045.26 -3.18694 1.32394 0
M  V30 10996 C 1044.37 -3.47346 2.56855 0
M  V30 10997 C 1043.51 -4.74862 2.38075 0
M  V30 10998 C 1042.55 -4.96486 3.58005 0
M  V30 10999 N 1041.68 -6.15229 3.38287 0
M  V30 11000 H 1046.52 -1.78457 2.38657 0
M  V30 11001 H 1044.06 -0.871455 1.18508 0
M  V30 11002 H 1046.02 -3.98352 1.23982 0
M  V30 11003 H 1044.65 -3.20211 0.407999 0
M  V30 11004 H 1043.7 -2.62083 2.75711 0
M  V30 11005 H 1045.01 -3.59226 3.4606 0
M  V30 11006 H 1044.17 -5.62577 2.27139 0
M  V30 11007 H 1042.9 -4.6523 1.46329 0
M  V30 11008 H 1041.91 -4.07219 3.69395 0
M  V30 11009 H 1043.13 -5.07976 4.50708 0
M  V30 11010 H 1041.08 -6.06807 2.49242 0
M  V30 11011 H 1041 -6.27883 4.21069 0
M  V30 11012 H 1042.27 -7.05674 3.31126 0
M  V30 11013 N 1046.49 -1.27344 -0.928501 0
M  V30 11014 C 1047.72 -1.16557 -1.7155 0
M  V30 11015 C 1048.14 0.274044 -1.86093 0
M  V30 11016 O 1047.5 1.19847 -1.36038 0
M  V30 11017 C 1047.55 -1.85332 -3.09329 0
M  V30 11018 O 1046.65 -1.15074 -3.9602 0
M  V30 11019 H 1046 -0.405423 -0.525859 0
M  V30 11020 H 1048.53 -1.68399 -1.16202 0
M  V30 11021 H 1048.54 -1.92659 -3.59648 0
M  V30 11022 H 1047.21 -2.90056 -2.98061 0
M  V30 11023 H 1045.79 -1.1581 -3.54461 0
M  V30 11024 N 1047.97 1.13488 -1.09353 0
M  V30 11025 C 1049.22 1.85022 -0.830354 0
M  V30 11026 C 1049.55 1.83266 0.64242 0
M  V30 11027 O 1048.83 1.27024 1.47293 0
M  V30 11028 C 1049.11 3.33218 -1.36521 0
M  V30 11029 C 1048.96 3.43491 -2.90404 0
M  V30 11030 C 1050.28 4.28626 -0.998381 0
M  V30 11031 H 1047.4 0.671786 -0.303105 0
M  V30 11032 H 1050.04 1.33211 -1.3548 0
M  V30 11033 H 1048.19 3.77471 -0.919117 0
M  V30 11034 H 1049.86 3.07954 -3.43456 0
M  V30 11035 H 1048.11 2.84391 -3.27573 0
M  V30 11036 H 1048.78 4.47702 -3.22905 0
M  V30 11037 H 1051.25 3.9244 -1.38311 0
M  V30 11038 H 1050.13 5.30754 -1.39968 0
M  V30 11039 H 1050.39 4.42001 0.093517 0
M  V30 11040 N 1049.45 0.880621 1.30701 0
M  V30 11041 C 1050.4 0.315679 2.25804 0
M  V30 11042 C 1051.39 -0.553382 1.51084 0
M  V30 11043 O 1052.58 -0.398518 1.72455 0
M  V30 11044 C 1049.71 -0.472586 3.40032 0
M  V30 11045 C 1048.79 0.410318 4.2211 0
M  V30 11046 N 1049.18 1.50876 4.82773 0
M  V30 11047 C 1047.48 0.20465 4.4553 0
M  V30 11048 C 1048.18 2.05409 5.44226 0
M  V30 11049 N 1047.16 1.34964 5.26579 0
M  V30 11050 H 1050.96 1.15505 2.70251 0
M  V30 11051 H 1048.47 0.729547 1.45091 0
M  V30 11052 H 1050.47 -0.893918 4.07204 0
M  V30 11053 H 1049.13 -1.30945 2.97125 0
M  V30 11054 H 1050.14 1.89163 4.82118 0
M  V30 11055 H 1046.82 -0.595398 4.13233 0
M  V30 11056 H 1048.21 2.97627 6.02385 0
M  V30 11057 N 1050.93 -1.4397 0.641131 0
M  V30 11058 C 1052.17 -2.03826 0.153071 0
M  V30 11059 C 1052.53 -1.4941 -1.20585 0
M  V30 11060 O 1053.73 -2.00832 -1.78661 0
M  V30 11061 C 1052.01 -3.57085 0.149914 0
M  V30 11062 S 1053.56 -4.37956 -0.272065 0
M  V30 11063 H 1050.38 -0.70793 0.0659981 0
M  V30 11064 H 1052.98 -1.76211 0.846761 0
M  V30 11065 H 1051.69 -3.94194 1.14188 0
M  V30 11066 H 1051.22 -3.89326 -0.564703 0
M  V30 11067 H 1053.23 -4.72542 -1.5139 0
M  V30 11068 N 1052.41 -0.382291 -1.52893 0
M  V30 11069 C 1053.34 0.491199 -2.23875 0
M  V30 11070 C 1054.35 1.03249 -1.25871 0
M  V30 11071 O 1055.54 0.936016 -1.5199 0
M  V30 11072 C 1052.64 1.6927 -2.936 0
M  V30 11073 C 1051.81 1.28 -4.18252 0
M  V30 11074 C 1050.87 2.34541 -4.71038 0
M  V30 11075 O 1049.9 1.96239 -5.34302 0
M  V30 11076 N 1051.1 3.6636 -4.50289 0
M  V30 11077 H 1053.87 -0.116897 -2.99472 0
M  V30 11078 H 1051.43 -0.208296 -1.60554 0
M  V30 11079 H 1053.42 2.40054 -3.25816 0
M  V30 11080 H 1051.99 2.20729 -2.21354 0
M  V30 11081 H 1051.21 0.40133 -3.92152 0
M  V30 11082 H 1052.5 0.98082 -4.99257 0
M  V30 11083 H 1051.9 4.00245 -3.99775 0
M  V30 11084 H 1050.45 4.332 -4.87013 0
M  V30 11085 N 1053.89 1.57202 -0.111913 0
M  V30 11086 C 1054.85 2.13778 0.826534 0
M  V30 11087 C 1055.85 1.07097 1.19945 0
M  V30 11088 O 1057.04 1.32906 1.12613 0
M  V30 11089 C 1054.17 2.6722 2.11675 0
M  V30 11090 H 1055.36 2.98023 0.334975 0
M  V30 11091 H 1052.92 1.55696 0.137256 0
M  V30 11092 H 1053.65 1.86542 2.65278 0
M  V30 11093 H 1053.44 3.45235 1.8589 0
M  V30 11094 H 1054.93 3.10926 2.78774 0
M  V30 11095 N 1055.36 -0.161842 1.56767 0
M  V30 11096 C 1056.61 -0.875192 1.82167 0
M  V30 11097 C 1056.93 -1.82367 0.690444 0
M  V30 11098 O 1056.2 -1.93756 -0.289023 0
M  V30 11099 H 1054.78 -0.326178 0.672024 0
M  V30 11100 H 1057.44 -0.159392 1.94247 0
M  V30 11101 H 1056.54 -1.44639 2.76561 0
M  V30 11102 N 1056.84 -1.516 -0.430713 0
M  V30 11103 C 1058.12 -1.55142 -1.19123 0
M  V30 11104 C 1058.5 -0.319596 -2.08667 0
M  V30 11105 O 1057.85 0.694927 -2.17676 0
M  V30 11106 C 1058.06 -2.86891 -1.98732 0
M  V30 11107 C 1059.4 -3.39089 -2.55546 0
M  V30 11108 O 1060.43 -2.88486 -2.08936 0
M  V30 11109 O 1059.29 -4.27401 -3.40574 0
M  V30 11110 H 1056.38 -0.624019 -0.542705 0
M  V30 11111 H 1058.93 -1.63917 -0.439244 0
M  V30 11112 H 1057.7 -3.68002 -1.33005 0
M  V30 11113 H 1057.32 -2.81309 -2.80982 0
M  V30 11114 N 1058.32 0.686584 -1.41858 0
M  V30 11115 C 1059.55 1.47519 -1.45072 0
M  V30 11116 C 1059.96 1.88709 -0.0585868 0
M  V30 11117 O 1059.32 1.57373 0.924116 0
M  V30 11118 C 1059.37 2.73195 -2.36742 0
M  V30 11119 O 1059.09 2.33736 -3.70539 0
M  V30 11120 C 1060.59 3.66861 -2.48854 0
M  V30 11121 H 1057.81 0.454307 -0.493808 0
M  V30 11122 H 1060.36 0.844612 -1.86243 0
M  V30 11123 H 1058.51 3.32468 -1.98856 0
M  V30 11124 H 1058.93 3.14809 -4.19518 0
M  V30 11125 H 1060.4 4.51801 -3.17143 0
M  V30 11126 H 1060.88 4.11961 -1.52265 0
M  V30 11127 H 1061.48 3.13486 -2.87414 0
M  V30 11128 N 1059.8 1.27835 0.921735 0
M  V30 11129 C 1061.04 1.14692 1.67253 0
M  V30 11130 C 1061.38 -0.305384 1.91784 0
M  V30 11131 O 1060.65 -1.22286 1.51249 0
M  V30 11132 C 1060.93 1.93743 3.03539 0
M  V30 11133 C 1060.79 3.46991 2.86212 0
M  V30 11134 C 1062.11 1.74658 4.03959 0
M  V30 11135 H 1059.23 0.418021 0.606983 0
M  V30 11136 H 1061.87 1.5706 1.06922 0
M  V30 11137 H 1060.02 1.57738 3.55037 0
M  V30 11138 H 1061.69 3.92858 2.41785 0
M  V30 11139 H 1059.93 3.73029 2.21432 0
M  V30 11140 H 1060.6 3.97551 3.82958 0
M  V30 11141 H 1063.08 2.06063 3.61493 0
M  V30 11142 H 1061.96 2.32353 4.97296 0
M  V30 11143 H 1062.22 0.696019 4.36587 0
M  V30 11144 N 1061.28 -1.12907 1.09954 0
M  V30 11145 C 1062.52 -1.83941 0.837255 0
M  V30 11146 C 1062.84 -1.84234 -0.638984 0
M  V30 11147 O 1062.11 -1.30193 -1.46378 0
M  V30 11148 H 1060.69 -0.681115 0.306743 0
M  V30 11149 H 1063.36 -1.36743 1.38879 0
M  V30 11150 H 1062.45 -2.88289 1.19565 0
M  V30 11151 N 1062.75 -0.88754 -1.30232 0
M  V30 11152 C 1063.66 -0.360333 -2.31816 0
M  V30 11153 C 1064.68 0.538741 -1.6545 0
M  V30 11154 O 1065.86 0.431246 -1.96729 0
M  V30 11155 C 1062.92 0.414336 -3.44215 0
M  V30 11156 C 1061.98 -0.514799 -4.26202 0
M  V30 11157 C 1061.21 0.222994 -5.33234 0
M  V30 11158 O 1061.44 1.44871 -5.51696 0
M  V30 11159 O 1060.37 -0.428221 -6.00375 0
M  V30 11160 H 1064.2 -1.20279 -2.78867 0
M  V30 11161 H 1061.78 -0.651459 -1.34448 0
M  V30 11162 H 1063.66 0.852859 -4.12679 0
M  V30 11163 H 1062.34 1.23305 -2.99295 0
M  V30 11164 H 1061.25 -1.00219 -3.60426 0
M  V30 11165 H 1062.58 -1.29959 -4.74733 0
M  V30 11166 N 1064.23 1.43628 -0.648757 0
M  V30 11167 C 1065.48 2.01465 -0.16002 0
M  V30 11168 C 1065.8 1.51413 1.22878 0
M  V30 11169 O 1065.07 0.724919 1.81994 0
M  V30 11170 H 1063.65 0.744885 -0.0561672 0
M  V30 11171 H 1066.31 1.75897 -0.839422 0
M  V30 11172 H 1065.41 3.1178 -0.141213 0
M  V30 11173 N 1065.71 0.390394 1.52688 0
M  V30 11174 C 1066.99 -0.249068 1.94008 0
M  V30 11175 C 1067.37 -1.64263 1.32593 0
M  V30 11176 O 1066.72 -2.23086 0.494448 0
M  V30 11177 C 1066.93 -0.274318 3.4792 0
M  V30 11178 C 1068.27 -0.502743 4.21613 0
M  V30 11179 O 1069.3 -0.35448 3.54432 0
M  V30 11180 O 1068.16 -0.79334 5.40711 0
M  V30 11181 H 1065.25 -0.155116 0.812323 0
M  V30 11182 H 1067.8 0.44498 1.63762 0
M  V30 11183 H 1066.57 0.701766 3.84956 0
M  V30 11184 H 1066.19 -1.01324 3.84473 0
M  V30 11185 N 1067.19 -1.57141 0.120249 0
M  V30 11186 C 1068.12 -2.18398 -0.826112 0
M  V30 11187 C 1069.1 -1.12439 -1.27638 0
M  V30 11188 O 1070.28 -1.40679 -1.33877 0
M  V30 11189 C 1067.41 -2.78438 -2.0758 0
M  V30 11190 C 1066.37 -3.89991 -1.76327 0
M  V30 11191 C 1065.69 -4.36844 -3.08336 0
M  V30 11192 C 1066.99 -5.12031 -1.03062 0
M  V30 11193 H 1068.69 -2.97731 -0.315656 0
M  V30 11194 H 1066.23 -1.43213 -0.150387 0
M  V30 11195 H 1068.19 -3.19951 -2.74243 0
M  V30 11196 H 1066.91 -1.96396 -2.60953 0
M  V30 11197 H 1065.57 -3.49055 -1.12053 0
M  V30 11198 H 1065.22 -3.51659 -3.59646 0
M  V30 11199 H 1064.92 -5.1207 -2.88199 0
M  V30 11200 H 1066.44 -4.81009 -3.76116 0
M  V30 11201 H 1067.86 -5.50555 -1.59881 0
M  V30 11202 H 1066.25 -5.92848 -0.930146 0
M  V30 11203 H 1067.32 -4.84897 -0.017582 0
M  V30 11204 N 1068.67 0.153526 -1.5685 0
M  V30 11205 C 1069.6 1.19162 -2.00805 0
M  V30 11206 C 1070.58 1.45172 -0.886518 0
M  V30 11207 O 1071.76 1.56203 -1.15387 0
M  V30 11208 C 1068.89 2.52637 -2.38311 0
M  V30 11209 C 1067.85 2.41161 -3.53589 0
M  V30 11210 C 1067.17 3.79287 -3.76889 0
M  V30 11211 C 1068.47 1.90122 -4.86468 0
M  V30 11212 H 1070.17 0.82617 -2.87776 0
M  V30 11213 H 1067.71 0.395972 -1.38449 0
M  V30 11214 H 1069.67 3.25478 -2.6766 0
M  V30 11215 H 1068.39 2.91005 -1.4827 0
M  V30 11216 H 1067.05 1.70772 -3.24395 0
M  V30 11217 H 1066.7 4.15079 -2.84109 0
M  V30 11218 H 1066.4 3.72472 -4.54465 0
M  V30 11219 H 1067.92 4.53687 -4.08657 0
M  V30 11220 H 1069.33 2.52752 -5.14577 0
M  V30 11221 H 1067.73 1.94214 -5.67804 0
M  V30 11222 H 1068.8 0.856517 -4.77275 0
M  V30 11223 N 1070.14 1.51827 0.422667 0
M  V30 11224 C 1071.39 1.65464 1.17258 0
M  V30 11225 C 1071.72 0.376834 1.90509 0
M  V30 11226 O 1071 -0.624219 1.84211 0
M  V30 11227 C 1071.28 2.86776 2.17788 0
M  V30 11228 C 1071.13 4.24571 1.48523 0
M  V30 11229 C 1072.45 3.03603 3.18611 0
M  V30 11230 H 1069.57 0.602169 0.424925 0
M  V30 11231 H 1072.21 1.84349 0.45996 0
M  V30 11232 H 1070.36 2.70806 2.78561 0
M  V30 11233 H 1072.04 4.5224 0.909739 0
M  V30 11234 H 1070.28 4.26595 0.787354 0
M  V30 11235 H 1070.95 5.05475 2.2181 0
M  V30 11236 H 1073.43 3.18381 2.67904 0
M  V30 11237 H 1072.3 3.90022 3.8623 0
M  V30 11238 H 1072.56 2.16318 3.85563 0
M  V30 11239 N 1071.62 -0.679052 1.4222 0
M  V30 11240 C 1072.53 -1.82221 1.47759 0
M  V30 11241 C 1073.55 -1.70092 0.3667 0
M  V30 11242 O 1074.72 -1.91718 0.616957 0
M  V30 11243 C 1071.79 -3.18332 1.37351 0
M  V30 11244 C 1070.85 -3.42449 2.58896 0
M  V30 11245 C 1070.08 -4.72067 2.48976 0
M  V30 11246 O 1070.31 -5.49683 1.5233 0
M  V30 11247 O 1069.24 -4.97333 3.39033 0
M  V30 11248 H 1073.07 -1.80504 2.44238 0
M  V30 11249 H 1070.65 -0.834251 1.23938 0
M  V30 11250 H 1072.53 -3.99563 1.33893 0
M  V30 11251 H 1071.21 -3.20696 0.439965 0
M  V30 11252 H 1070.12 -2.61083 2.6793 0
M  V30 11253 H 1071.45 -3.44912 3.51136 0
M  V30 11254 N 1073.1 -1.28322 -0.914942 0
M  V30 11255 C 1074.03 -1.14681 -2.03398 0
M  V30 11256 C 1075.01 -0.0448939 -1.70041 0
M  V30 11257 O 1076.2 -0.221672 -1.92931 0
M  V30 11258 C 1073.33 -0.806623 -3.37803 0
M  V30 11259 C 1072.28 -1.86318 -3.85318 0
M  V30 11260 C 1071.61 -1.37665 -5.16674 0
M  V30 11261 C 1072.91 -3.26953 -4.07307 0
M  V30 11262 H 1074.6 -2.08293 -2.15068 0
M  V30 11263 H 1072.15 -1.00284 -1.03339 0
M  V30 11264 H 1074.1 -0.69796 -4.1558 0
M  V30 11265 H 1072.82 0.165203 -3.26182 0
M  V30 11266 H 1071.48 -1.96096 -3.09745 0
M  V30 11267 H 1071.13 -0.393927 -5.01455 0
M  V30 11268 H 1070.83 -2.08313 -5.49435 0
M  V30 11269 H 1072.35 -1.28119 -5.97007 0
M  V30 11270 H 1073.77 -3.20102 -4.75613 0
M  V30 11271 H 1072.17 -3.95424 -4.51398 0
M  V30 11272 H 1073.24 -3.71059 -3.12159 0
M  V30 11273 N 1074.58 1.12322 -1.10551 0
M  V30 11274 C 1075.49 2.21678 -0.767862 0
M  V30 11275 C 1076.5 1.72404 0.235132 0
M  V30 11276 O 1077.68 2.01266 0.0735912 0
M  V30 11277 C 1074.75 3.46087 -0.205999 0
M  V30 11278 C 1073.81 4.10195 -1.26642 0
M  V30 11279 C 1073.04 5.28666 -0.731274 0
M  V30 11280 O 1073.26 5.68686 0.44189 0
M  V30 11281 O 1072.2 5.83121 -1.49176 0
M  V30 11282 H 1076.02 2.52955 -1.6807 0
M  V30 11283 H 1073.61 1.2068 -0.880728 0
M  V30 11284 H 1075.49 4.21273 0.103435 0
M  V30 11285 H 1074.16 3.16484 0.679685 0
M  V30 11286 H 1073.07 3.36784 -1.62873 0
M  V30 11287 H 1074.4 4.43957 -2.12516 0
M  V30 11288 O 1076.1 1.02707 1.24633 0
M  V30 11289 H 1076.79 0.69186 1.80923 0
M  V30 END ATOM
M  V30 BEGIN BOND
M  V30 END BOND
M  V30 END CTAB
M  END
$$$$
