drugbank_target|P46926 Glucosamine-6-phosphate isomerase 1 (DB02379; DB02445; DB03951)
 OpenBabel12092119563D

  0  0  0     0  0            999 V3000
M  V30 BEGIN CTAB
M  V30 COUNTS 4589 4647 0 0 0
M  V30 BEGIN ATOM
M  V30 1 H -0.908 1.98254 -0.117106 0
M  V30 2 N 0 1.576 0 0
M  V30 3 C 0.933 2.03868 1.02534 0
M  V30 4 C 1.911 0.928543 1.3348 0
M  V30 5 O 3.095 1.19667 1.45644 0
M  V30 6 C 0.222 2.43627 2.35294 0
M  V30 7 C -0.732 3.65373 2.2001 0
M  V30 8 S 0.101 5.13292 1.52614 0
M  V30 9 C 1.257 5.56322 2.86805 0
M  V30 10 H 1.49 2.90518 0.631377 0
M  V30 11 H -0.977 1.52953 0.210867 0
M  V30 12 H 0.981 2.67203 3.11629 0
M  V30 13 H -0.358 1.57376 2.7183 0
M  V30 14 H -1.165 3.90944 3.18086 0
M  V30 15 H -1.563 3.418 1.51819 0
M  V30 16 H 0.729 5.58782 3.83104 0
M  V30 17 H 1.672 6.56266 2.65933 0
M  V30 18 H 2.08 4.83886 2.90714 0
M  V30 19 N 1.4781 -0.272755 1.55222 0
M  V30 20 C 2.4251 -1.33716 1.88119 0
M  V30 21 C 3.3951 -1.49066 0.73271 0
M  V30 22 O 4.5801 -1.63469 0.984002 0
M  V30 23 C 1.7201 -2.69238 2.15882 0
M  V30 24 C 0.8331 -2.62108 3.43399 0
M  V30 25 C -0.0319 -3.89811 3.60861 0
M  V30 26 C -0.9929 -3.77193 4.8207 0
M  V30 27 N -1.8559 -4.9673 4.96189 0
M  V30 28 H 2.9841 -1.04962 2.78903 0
M  V30 29 H 0.5211 -0.507088 1.38083 0
M  V30 30 H 2.4791 -3.48089 2.29978 0
M  V30 31 H 1.1091 -2.96194 1.28331 0
M  V30 32 H 0.1611 -1.74967 3.37773 0
M  V30 33 H 1.4731 -2.48685 4.32386 0
M  V30 34 H 0.6271 -4.77103 3.74777 0
M  V30 35 H -0.6339 -4.06102 2.7006 0
M  V30 36 H -1.6289 -2.88284 4.68159 0
M  V30 37 H -0.4039 -3.62421 5.74307 0
M  V30 38 H -2.4579 -5.13431 4.08319 0
M  V30 39 H -2.5409 -4.85839 5.79221 0
M  V30 40 H -1.2729 -5.85594 5.1449 0
M  V30 41 N 2.9562 -1.48159 -0.537278 0
M  V30 42 C 3.8862 -1.65029 -1.6519 0
M  V30 43 C 4.8672 -0.499281 -1.62607 0
M  V30 44 O 6.0522 -0.730972 -1.79918 0
M  V30 45 C 3.1822 -1.68303 -3.03795 0
M  V30 46 C 2.1362 -2.8283 -3.21234 0
M  V30 47 C 1.4622 -2.71189 -4.60826 0
M  V30 48 C 2.7622 -4.24211 -3.04701 0
M  V30 49 H 4.4562 -2.58341 -1.51328 0
M  V30 50 H 2.0022 -1.24325 -0.726585 0
M  V30 51 H 3.9552 -1.78693 -3.81637 0
M  V30 52 H 2.6792 -0.715635 -3.18663 0
M  V30 53 H 1.3382 -2.71983 -2.45807 0
M  V30 54 H 0.9862 -1.72435 -4.7252 0
M  V30 55 H 0.6862 -3.48035 -4.7344 0
M  V30 56 H 2.2102 -2.83537 -5.40777 0
M  V30 57 H 3.6242 -4.3593 -3.72341 0
M  V30 58 H 2.0212 -5.01998 -3.28813 0
M  V30 59 H 3.0912 -4.41184 -2.01209 0
M  V30 60 N 4.4343 0.785586 -1.36625 0
M  V30 61 C 5.6833 1.53883 -1.30396 0
M  V30 62 C 5.9963 1.95271 0.113452 0
M  V30 63 O 7.2023 2.69858 0.298142 0
M  V30 64 C 5.6583 2.77808 -2.28802 0
M  V30 65 C 5.2663 2.43574 -3.75999 0
M  V30 66 C 7.0103 3.55783 -2.31558 0
M  V30 67 C 4.9173 3.63919 -4.66173 0
M  V30 68 H 3.8473 0.577678 -0.484566 0
M  V30 69 H 6.4983 0.861705 -1.62009 0
M  V30 70 H 4.8803 3.47339 -1.90188 0
M  V30 71 H 6.0543 1.81916 -4.23371 0
M  V30 72 H 4.3693 1.78803 -3.76056 0
M  V30 73 H 6.9663 4.45205 -2.96137 0
M  V30 74 H 7.3093 3.94644 -1.3252 0
M  V30 75 H 7.8423 2.93235 -2.68809 0
M  V30 76 H 4.5813 3.3015 -5.66287 0
M  V30 77 H 4.1013 4.2473 -4.23515 0
M  V30 78 H 5.7803 4.30901 -4.82632 0
M  V30 79 N 5.9124 1.20967 1.01018 0
M  V30 80 C 7.1614 1.01796 1.74128 0
M  V30 81 C 7.4744 -0.449691 1.90361 0
M  V30 82 O 8.6804 -0.76068 2.60626 0
M  V30 83 C 7.1364 1.7727 3.13215 0
M  V30 84 C 6.7444 3.28171 3.04972 0
M  V30 85 C 8.4884 1.66489 3.90489 0
M  V30 86 C 6.3954 3.96156 4.39107 0
M  V30 87 H 5.3254 0.377276 0.652824 0
M  V30 88 H 7.9764 1.44651 1.12909 0
M  V30 89 H 6.3584 1.27205 3.75013 0
M  V30 90 H 7.5324 3.85499 2.52443 0
M  V30 91 H 5.8474 3.39437 2.41188 0
M  V30 92 H 8.4444 2.14617 4.89738 0
M  V30 93 H 8.7874 0.6222 4.11624 0
M  V30 94 H 9.3204 2.14003 3.35332 0
M  V30 95 H 6.0594 5.00604 4.23174 0
M  V30 96 H 5.5794 3.43617 4.91617 0
M  V30 97 H 7.2584 4.00774 5.07926 0
M  V30 98 N 7.3905 -1.2043 1.01659 0
M  V30 99 C 8.3205 -2.25466 0.607226 0
M  V30 100 C 9.3015 -1.65853 -0.377716 0
M  V30 101 O 10.4865 -1.92409 -0.263149 0
M  V30 102 C 7.6165 -3.47256 -0.0552949 0
M  V30 103 C 6.5705 -4.19462 0.850632 0
M  V30 104 C 5.8965 -5.34673 0.0538859 0
M  V30 105 C 7.1965 -4.75603 2.15868 0
M  V30 106 H 8.8905 -2.59962 1.48526 0
M  V30 107 H 6.4365 -1.2496 0.715605 0
M  V30 108 H 8.3895 -4.19917 -0.353233 0
M  V30 109 H 7.1135 -3.11924 -0.968045 0
M  V30 110 H 5.7725 -3.48667 1.13257 0
M  V30 111 H 5.4205 -4.95585 -0.860514 0
M  V30 112 H 5.1205 -5.83913 0.657192 0
M  V30 113 H 6.6445 -6.10138 -0.237598 0
M  V30 114 H 8.0585 -5.40083 1.92311 0
M  V30 115 H 6.4555 -5.3528 2.71284 0
M  V30 116 H 7.5255 -3.94346 2.82169 0
M  V30 117 N 8.8686 -0.792821 -1.36206 0
M  V30 118 C 9.7786 -0.194808 -2.3379 0
M  V30 119 C 10.7946 0.654869 -1.61206 0
M  V30 120 O 11.9706 0.569856 -1.9317 0
M  V30 121 C 9.0356 0.657721 -3.40404 0
M  V30 122 C 8.0966 -0.210849 -4.28782 0
M  V30 123 C 7.3296 0.601086 -5.30304 0
M  V30 124 O 7.5526 1.83682 -5.40016 0
M  V30 125 O 6.4866 -0.000808277 -6.019 0
M  V30 126 H 10.3126 -1.00172 -2.86704 0
M  V30 127 H 7.8976 -0.554341 -1.38735 0
M  V30 128 H 9.7796 1.14375 -4.05581 0
M  V30 129 H 8.4546 1.44247 -2.89784 0
M  V30 130 H 7.3616 -0.743714 -3.66633 0
M  V30 131 H 8.6946 -0.959195 -4.82763 0
M  V30 132 N 10.3467 1.47872 -0.545128 0
M  V30 133 C 11.2967 2.26842 0.229456 0
M  V30 134 C 12.2807 1.33626 0.896267 0
M  V30 135 O 13.4727 1.58063 0.79657 0
M  V30 136 C 10.6017 3.19089 1.26638 0
M  V30 137 C 9.6877 4.19783 0.603598 0
M  V30 138 N 10.0787 5.0479 -0.319405 0
M  V30 139 C 8.3767 4.3765 0.858989 0
M  V30 140 C 9.0777 5.77433 -0.703241 0
M  V30 141 N 8.0537 5.43566 -0.0608309 0
M  V30 142 H 11.8557 2.89947 -0.480391 0
M  V30 143 H 9.3697 1.58263 -0.364209 0
M  V30 144 H 11.3667 3.74337 1.83515 0
M  V30 145 H 10.0267 2.5754 1.97745 0
M  V30 146 H 11.0377 5.13244 -0.692889 0
M  V30 147 H 7.7147 3.87281 1.55948 0
M  V30 148 H 9.1047 6.55824 -1.46098 0
M  V30 149 N 11.8248 0.280983 1.55075 0
M  V30 150 C 13.0548 -0.336804 2.03836 0
M  V30 151 C 13.4628 -1.49577 1.15859 0
M  V30 152 O 12.8058 -1.82888 0.172503 0
M  V30 153 C 12.8678 -0.874616 3.48699 0
M  V30 154 C 12.5318 0.156478 4.56732 0
M  V30 155 C 13.5288 0.978032 5.10618 0
M  V30 156 C 11.2138 0.292409 5.01448 0
M  V30 157 C 13.2078 1.92165 6.07743 0
M  V30 158 C 10.8948 1.23949 5.98398 0
M  V30 159 C 11.8928 2.05261 6.51427 0
M  V30 160 O 11.5808 2.98367 7.4648 0
M  V30 161 H 11.3128 -0.0800885 0.671239 0
M  V30 162 H 13.8668 0.412589 2.01213 0
M  V30 163 H 12.0968 -1.67418 3.4858 0
M  V30 164 H 13.7858 -1.40612 3.80766 0
M  V30 165 H 14.5518 0.883782 4.7688 0
M  V30 166 H 10.4308 -0.330498 4.59814 0
M  V30 167 H 13.9748 2.55672 6.49059 0
M  V30 168 H 9.8718 1.33454 6.31554 0
M  V30 169 H 10.6398 2.93116 7.64215 0
M  V30 170 N 13.3029 -1.57598 0.00835791 0
M  V30 171 C 14.5279 -1.95617 -0.689103 0
M  V30 172 C 14.9529 -0.883753 -1.66046 0
M  V30 173 O 14.3109 0.157352 -1.80616 0
M  V30 174 C 14.3589 -3.32736 -1.38994 0
M  V30 175 O 13.4629 -3.27631 -2.50463 0
M  V30 176 H 12.8039 -0.638379 -0.182668 0
M  V30 177 H 15.3339 -2.045 0.064036 0
M  V30 178 H 15.3439 -3.68494 -1.75147 0
M  V30 179 H 14.0189 -4.1034 -0.677778 0
M  V30 180 H 12.5959 -3.03561 -2.16576 0
M  V30 181 N 14.781 0.264519 -1.55364 0
M  V30 182 C 15.713 1.34965 -1.85248 0
M  V30 183 C 16.726 1.45136 -0.737525 0
M  V30 184 O 17.915 1.46801 -1.01547 0
M  V30 185 C 15.015 2.73008 -2.00797 0
M  V30 186 C 14.188 2.85324 -3.31525 0
M  V30 187 C 13.247 4.04097 -3.37034 0
M  V30 188 O 12.273 3.94455 -4.10358 0
M  V30 189 N 13.475 5.16458 -2.65049 0
M  V30 190 H 16.24 1.09672 -2.78913 0
M  V30 191 H 13.801 0.454635 -1.55386 0
M  V30 192 H 15.793 3.50772 -2.01844 0
M  V30 193 H 14.363 2.91087 -1.1396 0
M  V30 194 H 13.583 1.94377 -3.42945 0
M  V30 195 H 14.871 2.9049 -4.17724 0
M  V30 196 H 14.269 5.27181 -2.05175 0
M  V30 197 H 12.826 5.92422 -2.71809 0
M  V30 198 N 16.2591 1.48442 0.529413 0
M  V30 199 C 17.2221 1.62524 1.61612 0
M  V30 200 C 18.2221 0.498509 1.52877 0
M  V30 201 O 19.4121 0.76431 1.56537 0
M  V30 202 C 16.5441 1.59597 3.01233 0
M  V30 203 H 17.7371 2.59423 1.50465 0
M  V30 204 H 15.2901 1.37047 0.751514 0
M  V30 205 H 16.0251 0.641781 3.17886 0
M  V30 206 H 15.8101 2.41397 3.08982 0
M  V30 207 H 17.3001 1.72646 3.80241 0
M  V30 208 N 17.7372 -0.778329 1.37039 0
M  V30 209 C 18.9622 -1.57248 1.35233 0
M  V30 210 C 19.3872 -1.87999 -0.0615568 0
M  V30 211 O 18.7452 -1.48734 -1.03672 0
M  V30 212 C 18.7932 -2.86353 2.19167 0
M  V30 213 O 17.8972 -3.80442 1.59178 0
M  V30 214 H 17.2382 -0.476569 0.462362 0
M  V30 215 H 19.7682 -0.963853 1.80474 0
M  V30 216 H 19.7782 -3.35519 2.32145 0
M  V30 217 H 18.4532 -2.63299 3.21942 0
M  V30 218 H 17.0302 -3.39067 1.55203 0
M  V30 219 N 19.2153 -1.21501 -1.00376 0
M  V30 220 C 20.1253 -0.991447 -2.12621 0
M  V30 221 C 21.1413 0.0568446 -1.73907 0
M  V30 222 O 22.3173 -0.13348 -2.00957 0
M  V30 223 C 19.3823 -0.560312 -3.42142 0
M  V30 224 C 18.4433 -1.68096 -3.95022 0
M  V30 225 C 17.6763 -1.2703 -5.18362 0
M  V30 226 O 17.8993 -0.144438 -5.70217 0
M  V30 227 O 16.8333 -2.08269 -5.64719 0
M  V30 228 H 20.6593 -1.93158 -2.34358 0
M  V30 229 H 18.2443 -0.999999 -1.10997 0
M  V30 230 H 20.1263 -0.329724 -4.20108 0
M  V30 231 H 18.8013 0.351089 -3.2179 0
M  V30 232 H 17.7083 -1.96597 -3.18278 0
M  V30 233 H 19.0413 -2.56983 -4.19786 0
M  V30 234 N 20.6934 1.19889 -1.02296 0
M  V30 235 C 21.9394 1.89973 -0.726759 0
M  V30 236 C 22.2944 1.7776 0.73614 0
M  V30 237 O 21.5874 1.15523 1.52856 0
M  V30 238 C 21.7814 3.39883 -1.10518 0
M  V30 239 C 21.6104 3.66684 -2.60332 0
M  V30 240 C 20.3804 3.85045 -3.27213 0
M  V30 241 C 22.5784 3.68727 -3.58532 0
M  V30 242 N 20.5604 3.99422 -4.66192 0
M  V30 243 C 21.9314 3.88604 -4.83101 0
M  V30 244 C 23.9864 3.51722 -3.52414 0
M  V30 245 C 22.6894 3.9324 -6.02292 0
M  V30 246 C 24.7154 3.57632 -4.71013 0
M  V30 247 C 24.0774 3.77988 -5.94394 0
M  V30 248 H 20.1764 0.714551 -0.317712 0
M  V30 249 H 22.7604 1.44123 -1.30907 0
M  V30 250 H 20.9314 3.8447 -0.551142 0
M  V30 251 H 22.6634 3.97464 -0.761853 0
M  V30 252 H 19.4184 3.83689 -2.77632 0
M  V30 253 H 19.8424 4.10473 -5.38368 0
M  V30 254 H 24.4844 3.34945 -2.58015 0
M  V30 255 H 22.2024 4.08811 -6.97065 0
M  V30 256 H 25.7884 3.45773 -4.67902 0
M  V30 257 H 24.6684 3.82428 -6.8463 0
M  V30 258 N 22.1715 0.800033 1.35784 0
M  V30 259 C 23.1345 0.211565 2.28221 0
M  V30 260 C 24.1345 -0.59728 1.49296 0
M  V30 261 O 25.3245 -0.416721 1.69142 0
M  V30 262 C 22.4565 -0.705846 3.33513 0
M  V30 263 H 23.6495 1.02677 2.81776 0
M  V30 264 H 21.2025 0.570211 1.45528 0
M  V30 265 H 21.9375 -1.54498 2.85133 0
M  V30 266 H 21.7225 -0.127655 3.91892 0
M  V30 267 H 23.2125 -1.11211 4.02519 0
M  V30 268 N 23.6496 -1.47581 0.552962 0
M  V30 269 C 24.6126 -2.28439 -0.186605 0
M  V30 270 C 25.6126 -1.36706 -0.84665 0
M  V30 271 O 26.8026 -1.59378 -0.703164 0
M  V30 272 C 23.9346 -3.16264 -1.2724 0
M  V30 273 H 25.1276 -2.95294 0.523609 0
M  V30 274 H 22.6806 -1.532 0.309745 0
M  V30 275 H 23.4156 -2.54091 -2.01514 0
M  V30 276 H 23.2006 -3.83769 -0.803968 0
M  V30 277 H 24.6906 -3.77198 -1.79196 0
M  V30 278 N 25.1277 -0.289203 -1.54924 0
M  V30 279 C 26.0747 0.592115 -2.23075 0
M  V30 280 C 27.0447 1.13881 -1.20915 0
M  V30 281 O 28.2297 1.18551 -1.495 0
M  V30 282 C 25.3697 1.76376 -2.96623 0
M  V30 283 C 24.4827 1.24959 -4.13533 0
M  V30 284 C 23.6177 2.38416 -4.74691 0
M  V30 285 C 22.6567 1.84072 -5.83767 0
M  V30 286 N 21.7937 2.91057 -6.38929 0
M  V30 287 H 26.6337 0.00432038 -2.98 0
M  V30 288 H 24.1707 -0.00963529 -1.47097 0
M  V30 289 H 26.1287 2.45268 -3.3749 0
M  V30 290 H 24.7587 2.32337 -2.24097 0
M  V30 291 H 23.8107 0.453307 -3.77689 0
M  V30 292 H 25.1227 0.811662 -4.92152 0
M  V30 293 H 24.2767 3.15276 -5.18349 0
M  V30 294 H 23.0157 2.8553 -3.95378 0
M  V30 295 H 22.0207 1.05697 -5.39545 0
M  V30 296 H 23.2457 1.37877 -6.64956 0
M  V30 297 H 21.1917 3.37526 -5.62505 0
M  V30 298 H 21.1087 2.51724 -7.12861 0
M  V30 299 H 22.3767 3.6785 -6.87246 0
M  V30 300 N 26.6058 1.57591 -0.0167156 0
M  V30 301 C 27.8358 1.95292 0.674149 0
M  V30 302 C 28.2438 0.891097 1.66901 0
M  V30 303 O 27.5868 -0.136908 1.83189 0
M  V30 304 C 27.6488 3.29072 1.44747 0
M  V30 305 C 27.3128 4.52879 0.612331 0
M  V30 306 C 28.3098 5.1979 -0.107126 0
M  V30 307 C 25.9948 4.99242 0.553381 0
M  V30 308 C 27.9888 6.31375 -0.874339 0
M  V30 309 C 25.6758 6.10713 -0.217546 0
M  V30 310 C 26.6738 6.76637 -0.930123 0
M  V30 311 O 26.3618 7.85969 -1.68844 0
M  V30 312 H 26.0938 0.648275 0.191615 0
M  V30 313 H 28.6478 2.05284 -0.0690148 0
M  V30 314 H 26.8778 3.15535 2.2355 0
M  V30 315 H 28.5668 3.51764 2.02526 0
M  V30 316 H 29.3328 4.84948 -0.0708392 0
M  V30 317 H 25.2118 4.47744 1.09757 0
M  V30 318 H 28.7558 6.82764 -1.43106 0
M  V30 319 H 24.6528 6.44994 -0.255593 0
M  V30 320 H 25.4208 8.02571 -1.6069 0
M  V30 321 N 28.0839 -0.256276 1.55502 0
M  V30 322 C 29.3329 -0.983486 1.76098 0
M  V30 323 C 29.6459 -1.86837 0.578896 0
M  V30 324 O 30.8519 -2.63163 0.667648 0
M  V30 325 C 29.3079 -1.79868 3.1173 0
M  V30 326 C 28.9159 -0.961648 4.37557 0
M  V30 327 C 30.6599 -2.51919 3.41668 0
M  V30 328 C 28.5669 -1.77219 5.64223 0
M  V30 329 H 27.4969 -0.370936 0.656447 0
M  V30 330 H 30.1479 -0.238492 1.81944 0
M  V30 331 H 28.5299 -2.58527 2.99966 0
M  V30 332 H 29.7039 -0.218048 4.60284 0
M  V30 333 H 28.0189 -0.354913 4.14885 0
M  V30 334 H 30.6159 -3.12998 4.33516 0
M  V30 335 H 30.9589 -3.23059 2.62562 0
M  V30 336 H 31.4919 -1.80278 3.54605 0
M  V30 337 H 28.2309 -1.10471 6.46124 0
M  V30 338 H 27.7509 -2.49132 5.45613 0
M  V30 339 H 29.4299 -2.34169 6.03137 0
M  V30 340 N 29.562 -1.4872 -0.521534 0
M  V30 341 C 30.978 -1.35028 -0.850855 0
M  V30 342 C 31.178 -0.367712 -1.98116 0
M  V30 343 O 30.234 0.208037 -2.51642 0
M  V30 344 C 31.547 -2.75263 -1.21041 0
M  V30 345 C 33.095 -2.83813 -1.31981 0
M  V30 346 C 33.57 -4.24769 -1.71276 0
M  V30 347 N 35.061 -4.27482 -1.78363 0
M  V30 348 C 35.796 -5.33494 -2.1017 0
M  V30 349 N 35.292 -6.49775 -2.40343 0
M  V30 350 N 37.085 -5.20894 -2.11248 0
M  V30 351 H 29.236 -2.11214 0.22413 0
M  V30 352 H 31.499 -0.947252 0.0376439 0
M  V30 353 H 31.205 -3.48765 -0.453415 0
M  V30 354 H 31.079 -3.09327 -2.15863 0
M  V30 355 H 33.466 -2.10561 -2.06756 0
M  V30 356 H 33.547 -2.53358 -0.352596 0
M  V30 357 H 33.191 -4.9854 -0.970588 0
M  V30 358 H 33.121 -4.52673 -2.69062 0
M  V30 359 H 35.612 -3.43611 -1.57288 0
M  V30 360 H 35.925 -7.26402 -2.63743 0
M  V30 361 H 34.27 -6.53035 -2.37844 0
M  V30 362 H 37.461 -4.29065 -1.87139 0
M  V30 363 H 37.634 -6.03612 -2.35704 0
M  V30 364 N 31.0401 0.771051 -1.3745 0
M  V30 365 C 31.9881 1.90574 -1.33358 0
M  V30 366 C 32.9821 1.67936 -0.22224 0
M  V30 367 O 34.1881 1.75717 -0.390304 0
M  V30 368 H 30.5631 0.626714 -0.415612 0
M  V30 369 H 32.5341 1.91142 -2.29144 0
M  V30 370 C 31.2831 3.27845 -1.15813 0
M  V30 371 H 30.6061 3.45842 -2.00583 0
M  V30 372 H 32.0461 4.07538 -1.17 0
M  V30 373 C 30.5051 3.36625 0.136165 0
M  V30 374 O 31.0351 3.85785 1.11949 0
M  V30 375 N 29.2411 2.89997 0.187099 0
M  V30 376 H 28.7881 2.50182 -0.613753 0
M  V30 377 H 28.7461 2.96252 1.05272 0
M  V30 378 N 32.5182 1.22032 0.997298 0
M  V30 379 C 33.9342 0.979326 1.26021 0
M  V30 380 C 34.1342 -0.32972 1.98784 0
M  V30 381 O 33.1902 -1.05345 2.29475 0
M  V30 382 C 34.5032 2.17509 2.07631 0
M  V30 383 C 36.0512 2.21817 2.2083 0
M  V30 384 C 36.5262 3.40933 3.05825 0
M  V30 385 N 38.0172 3.41067 3.13412 0
M  V30 386 C 38.7522 4.29885 3.79455 0
M  V30 387 N 38.2482 5.28914 4.47462 0
M  V30 388 N 40.0412 4.17673 3.76173 0
M  V30 389 H 32.1922 2.06202 0.509352 0
M  V30 390 H 34.4552 0.90334 0.287541 0
M  V30 391 H 34.1612 3.12415 1.61524 0
M  V30 392 H 34.0352 2.17206 3.08385 0
M  V30 393 H 36.4222 1.27462 2.66153 0
M  V30 394 H 36.5032 2.2616 1.1952 0
M  V30 395 H 36.1472 4.35586 2.61203 0
M  V30 396 H 36.0772 3.33829 4.07266 0
M  V30 397 H 38.5682 2.69406 2.65007 0
M  V30 398 H 38.8812 5.92973 4.95583 0
M  V30 399 H 37.2262 5.32831 4.46224 0
M  V30 400 H 40.4172 3.39564 3.22202 0
M  V30 401 H 40.5902 4.87098 4.27363 0
M  V30 402 N 33.9963 -1.19345 1.0293 0
M  V30 403 C 35.2453 -1.88363 0.721256 0
M  V30 404 C 35.5583 -1.80514 -0.753254 0
M  V30 405 O 36.7643 -2.44788 -1.17436 0
M  V30 406 C 35.2203 -3.37872 1.23978 0
M  V30 407 C 34.8283 -3.54278 2.74211 0
M  V30 408 C 36.5723 -4.12365 1.00775 0
M  V30 409 C 34.4793 -4.97682 3.19479 0
M  V30 410 H 33.4093 -0.705484 0.266098 0
M  V30 411 H 36.0603 -1.34928 1.24365 0
M  V30 412 H 34.4423 -3.90707 0.6453 0
M  V30 413 H 35.6163 -3.11769 3.39318 0
M  V30 414 H 33.9313 -2.93174 2.95699 0
M  V30 415 H 36.5283 -5.18119 1.32123 0
M  V30 416 H 36.8713 -4.16263 -0.0554308 0
M  V30 417 H 37.4043 -3.65668 1.56625 0
M  V30 418 H 34.1433 -4.98945 4.25128 0
M  V30 419 H 33.6633 -5.4095 2.591 0
M  V30 420 H 35.3423 -5.66337 3.12845 0
M  V30 421 N 35.4744 -0.807222 -1.35358 0
M  V30 422 C 36.7234 -0.384376 -1.98004 0
M  V30 423 C 37.0364 1.0543 -1.64754 0
M  V30 424 O 38.2424 1.58029 -2.20769 0
M  V30 425 C 36.6984 -0.636326 -3.5423 0
M  V30 426 C 36.3064 -2.08759 -3.96388 0
M  V30 427 C 38.0504 -0.278869 -4.23583 0
M  V30 428 C 35.9574 -2.28525 -5.45463 0
M  V30 429 H 34.8874 -0.139986 -0.740891 0
M  V30 430 H 37.5384 -0.991369 -1.54415 0
M  V30 431 H 35.9204 0.0406256 -3.95979 0
M  V30 432 H 37.0944 -2.8024 -3.6579 0
M  V30 433 H 35.4094 -2.40497 -3.39926 0
M  V30 434 H 38.0064 -0.404599 -5.33167 0
M  V30 435 H 38.3494 0.775012 -4.09022 0
M  V30 436 H 38.8824 -0.909764 -3.87257 0
M  V30 437 H 35.6214 -3.32361 -5.64992 0
M  V30 438 H 35.1414 -1.61569 -5.77629 0
M  V30 439 H 36.8204 -2.10109 -6.11934 0
M  V30 440 N 36.9525 1.47285 -0.560781 0
M  V30 441 C 37.8845 2.28118 0.222438 0
M  V30 442 C 38.8975 1.37219 0.876056 0
M  V30 443 O 40.0865 1.62011 0.749307 0
M  V30 444 C 37.1865 3.1159 1.33285 0
M  V30 445 C 36.3595 4.30473 0.77534 0
M  V30 446 C 35.4185 4.95513 1.77069 0
M  V30 447 O 34.4445 5.53792 1.31539 0
M  V30 448 N 35.6465 4.90531 3.10418 0
M  V30 449 H 38.4115 2.95976 -0.470958 0
M  V30 450 H 35.9725 1.56955 -0.39709 0
M  V30 451 H 37.9645 3.51967 1.99752 0
M  V30 452 H 36.5345 2.45951 1.92943 0
M  V30 453 H 35.7545 3.94144 -0.0662113 0
M  V30 454 H 37.0425 5.07362 0.382272 0
M  V30 455 H 36.4405 4.44389 3.5005 0
M  V30 456 H 34.9975 5.34917 3.72434 0
M  V30 457 N 38.4306 0.297415 1.54768 0
M  V30 458 C 39.6776 -0.312913 2.00068 0
M  V30 459 C 40.0056 -1.54171 1.18582 0
M  V30 460 O 39.2606 -1.94108 0.249133 0
M  V30 461 C 39.5596 -0.717561 3.50123 0
M  V30 462 C 39.2256 0.409095 4.4904 0
M  V30 463 C 37.8876 0.718399 4.75807 0
M  V30 464 C 40.2396 1.16717 5.07963 0
M  V30 465 C 37.5676 1.78896 5.5876 0
M  V30 466 C 39.9196 2.22762 5.92081 0
M  V30 467 C 38.5836 2.54303 6.1716 0
M  V30 468 H 37.8536 -0.114503 0.7321 0
M  V30 469 H 40.5006 0.415767 1.86932 0
M  V30 470 H 38.8056 -1.52627 3.60849 0
M  V30 471 H 40.5026 -1.20091 3.82595 0
M  V30 472 H 37.0926 0.157918 4.28309 0
M  V30 473 H 41.2766 0.941466 4.87289 0
M  V30 474 H 36.5326 2.0381 5.7643 0
M  V30 475 H 40.7066 2.81962 6.36765 0
M  V30 476 H 38.3336 3.3739 6.81229 0
M  V30 477 N 39.9087 -1.5758 0.0250728 0
M  V30 478 C 40.8567 -2.11125 -0.97617 0
M  V30 479 C 41.8507 -1.03689 -1.33959 0
M  V30 480 O 43.0567 -1.22128 -1.3223 0
M  V30 481 H 39.4317 -0.674468 -0.332561 0
M  V30 482 H 41.4027 -2.94194 -0.499223 0
M  V30 483 C 40.1517 -2.65017 -2.2508 0
M  V30 484 H 39.4747 -3.47333 -1.9799 0
M  V30 485 H 40.9147 -3.06133 -2.93357 0
M  V30 486 C 39.3737 -1.57574 -2.97779 0
M  V30 487 O 39.9037 -0.973203 -3.89733 0
M  V30 488 N 38.1097 -1.29716 -2.60043 0
M  V30 489 H 37.6567 -1.789 -1.85345 0
M  V30 490 H 37.6147 -0.58051 -3.08994 0
M  V30 491 N 41.3868 0.248026 -1.55636 0
M  V30 492 C 42.7978 0.817177 -1.67866 0
M  V30 493 C 43.1488 1.86069 -0.622322 0
M  V30 494 O 42.2738 2.15157 0.231618 0
M  V30 495 C 42.8688 1.489 -3.04326 0
M  V30 496 C 41.4278 2.00587 -3.185 0
M  V30 497 C 40.5748 0.856573 -2.63739 0
M  V30 498 H 43.5258 0.0238579 -1.58682 0
M  V30 499 H 43.5468 2.35698 -2.98708 0
M  V30 500 H 43.0588 0.729279 -3.81186 0
M  V30 501 H 41.1598 2.79443 -2.4646 0
M  V30 502 H 41.2728 2.20402 -4.25393 0
M  V30 503 H 39.6368 1.25678 -2.21534 0
M  V30 504 H 40.4198 0.109953 -3.43124 0
M  V30 505 N 42.8649 1.48995 0.513639 0
M  V30 506 C 44.1129 1.57531 1.26604 0
M  V30 507 C 44.4339 0.258236 1.93283 0
M  V30 508 O 43.7039 -0.721502 1.8213 0
M  V30 509 H 42.2839 0.580387 0.470276 0
M  V30 510 H 44.9459 1.85552 0.596373 0
M  V30 511 H 44.0419 2.36486 2.03669 0
M  V30 512 N 44.343 -0.763751 1.37857 0
M  V30 513 C 45.754 -1.3405 1.29952 0
M  V30 514 C 46.105 -1.96138 -0.0492898 0
M  V30 515 O 45.23 -1.94372 -0.951239 0
M  V30 516 C 45.825 -2.43729 2.35333 0
M  V30 517 C 44.384 -2.97151 2.31037 0
M  V30 518 C 43.531 -1.70438 2.18738 0
M  V30 519 H 46.482 -0.563396 1.48363 0
M  V30 520 H 46.503 -3.23412 2.00462 0
M  V30 521 H 46.015 -1.9851 3.33489 0
M  V30 522 H 44.116 -3.46724 1.3643 0
M  V30 523 H 44.229 -3.52221 3.24772 0
M  V30 524 H 42.593 -1.93673 1.65418 0
M  V30 525 H 43.376 -1.27312 3.18821 0
M  V30 526 N 45.8211 -1.22559 -0.990812 0
M  V30 527 C 46.7311 -1.01394 -2.11557 0
M  V30 528 C 47.7471 0.0383962 -1.73958 0
M  V30 529 O 48.9231 -0.154787 -2.00804 0
M  V30 530 C 45.9881 -0.596569 -3.41529 0
M  V30 531 C 45.0491 -1.72276 -3.93217 0
M  V30 532 C 44.2821 -1.32521 -5.16985 0
M  V30 533 O 44.5051 -0.204909 -5.70032 0
M  V30 534 O 43.4391 -2.14247 -5.62478 0
M  V30 535 H 47.2651 -1.95633 -2.32296 0
M  V30 536 H 44.8501 -1.01172 -1.0993 0
M  V30 537 H 46.7321 -0.374263 -4.19735 0
M  V30 538 H 45.4071 0.316939 -3.22145 0
M  V30 539 H 44.3141 -1.99961 -3.16174 0
M  V30 540 H 45.6471 -2.61421 -4.17037 0
M  V30 541 N 47.2992 1.18797 -1.03562 0
M  V30 542 C 48.2462 2.22253 -0.622259 0
M  V30 543 C 49.2162 1.61987 0.36736 0
M  V30 544 O 50.4012 1.88986 0.262492 0
M  V30 545 C 47.5412 3.45097 0.0138462 0
M  V30 546 C 46.6542 4.19722 -1.02263 0
M  V30 547 C 45.7892 5.30009 -0.355573 0
M  V30 548 C 44.8282 5.96399 -1.37749 0
M  V30 549 N 43.9652 6.98234 -0.735766 0
M  V30 550 H 48.8052 2.56968 -1.50903 0
M  V30 551 H 46.3422 1.26245 -0.755017 0
M  V30 552 H 48.3002 4.15279 0.399948 0
M  V30 553 H 46.9302 3.11018 0.864158 0
M  V30 554 H 45.9822 3.48418 -1.52673 0
M  V30 555 H 47.2942 4.65227 -1.79903 0
M  V30 556 H 46.4482 6.0664 0.0850095 0
M  V30 557 H 45.1872 4.85592 0.452967 0
M  V30 558 H 44.1922 5.18512 -1.82826 0
M  V30 559 H 45.4172 6.42899 -2.18764 0
M  V30 560 H 43.3632 6.55979 0.0525597 0
M  V30 561 H 43.2802 7.41965 -1.44995 0
M  V30 562 H 44.5482 7.78845 -0.31941 0
M  V30 563 N 48.7773 0.814389 1.34928 0
M  V30 564 C 50.0073 0.41054 2.0248 0
M  V30 565 C 50.4153 -0.985625 1.61499 0
M  V30 566 O 49.7583 -1.64781 0.811976 0
M  V30 567 C 49.8203 0.423384 3.56998 0
M  V30 568 C 49.4843 1.77141 4.21272 0
M  V30 569 C 50.4813 2.73093 4.42398 0
M  V30 570 C 48.1663 2.05755 4.58225 0
M  V30 571 C 50.1603 3.95838 4.9959 0
M  V30 572 C 47.8473 3.28762 5.1513 0
M  V30 573 C 48.8453 4.23621 5.35755 0
M  V30 574 O 48.5333 5.44456 5.91458 0
M  V30 575 H 48.2653 0.163997 0.655806 0
M  V30 576 H 50.8193 1.10155 1.73364 0
M  V30 577 H 49.0493 -0.324276 3.85338 0
M  V30 578 H 50.7383 0.0407683 4.0588 0
M  V30 579 H 51.5043 2.5228 4.14222 0
M  V30 580 H 47.3833 1.32727 4.4148 0
M  V30 581 H 50.9273 4.69891 5.15605 0
M  V30 582 H 46.8243 3.49443 5.42734 0
M  V30 583 H 47.5923 5.4586 6.09901 0
M  V30 584 N 50.2554 -1.46986 0.568584 0
M  V30 585 C 51.5024 -2.02441 0.0487986 0
M  V30 586 C 51.8304 -1.44169 -1.30559 0
M  V30 587 O 51.0854 -0.591213 -1.86556 0
M  V30 588 C 51.3844 -3.57306 -0.081836 0
M  V30 589 C 51.0504 -4.34552 1.20313 0
M  V30 590 C 49.7124 -4.55376 1.5552 0
M  V30 591 C 52.0644 -4.79016 2.05411 0
M  V30 592 C 49.3924 -5.17913 2.7565 0
M  V30 593 C 51.7444 -5.42879 3.24754 0
M  V30 594 C 50.4084 -5.61933 3.60261 0
M  V30 595 H 49.6784 -0.740785 0.0178567 0
M  V30 596 H 52.3254 -1.76525 0.742384 0
M  V30 597 H 50.6304 -3.8228 -0.858463 0
M  V30 598 H 52.3274 -3.97876 -0.499546 0
M  V30 599 H 48.9174 -4.18631 0.919014 0
M  V30 600 H 53.1014 -4.62696 1.79516 0
M  V30 601 H 48.3574 -5.30858 3.03315 0
M  V30 602 H 52.5314 -5.76293 3.90973 0
M  V30 603 H 50.1584 -6.10161 4.53439 0
M  V30 604 N 51.7335 -0.305618 -1.54608 0
M  V30 605 C 52.9615 0.304775 -2.04643 0
M  V30 606 C 53.3765 1.47167 -1.18268 0
M  V30 607 O 52.7335 1.81296 -0.209328 0
M  V30 608 C 52.7845 0.756564 -3.53495 0
M  V30 609 O 52.5055 -0.36389 -4.36586 0
M  V30 610 C 54.0065 1.43163 -4.19546 0
M  V30 611 H 51.2265 0.0655481 -0.667791 0
M  V30 612 H 53.7705 -0.446592 -1.99564 0
M  V30 613 H 51.9255 1.45794 -3.58919 0
M  V30 614 H 52.3395 -0.0113121 -5.24499 0
M  V30 615 H 53.8135 1.69886 -5.25207 0
M  V30 616 H 54.2905 2.37318 -3.69563 0
M  V30 617 H 54.8965 0.773307 -4.18211 0
M  V30 618 N 53.2116 1.57565 -0.0334293 0
M  V30 619 C 54.1416 2.13511 0.945265 0
M  V30 620 C 55.1226 1.05231 1.33643 0
M  V30 621 O 56.3076 1.33084 1.41429 0
M  V30 622 C 53.4376 2.6657 2.22616 0
M  V30 623 C 52.3916 3.79676 1.97561 0
M  V30 624 C 51.7176 4.1918 3.31952 0
M  V30 625 C 53.0176 5.0557 1.31135 0
M  V30 626 H 54.7116 2.95538 0.479325 0
M  V30 627 H 52.2576 1.42166 0.229115 0
M  V30 628 H 54.2106 3.04344 2.91466 0
M  V30 629 H 52.9346 1.8171 2.71384 0
M  V30 630 H 51.5936 3.42347 1.31127 0
M  V30 631 H 51.2416 3.31296 3.78487 0
M  V30 632 H 50.9416 4.95402 3.15992 0
M  V30 633 H 52.4656 4.59541 4.02063 0
M  V30 634 H 53.8796 5.40903 1.89992 0
M  V30 635 H 52.2766 5.86818 1.25559 0
M  V30 636 H 53.3466 4.84062 0.284894 0
M  V30 637 N 54.6897 -0.239769 1.55765 0
M  V30 638 C 55.9377 -0.964892 1.77579 0
M  V30 639 C 56.2587 -1.85582 0.598699 0
M  V30 640 O 55.5287 -1.92075 -0.385226 0
M  V30 641 H 54.1087 -0.359265 0.654933 0
M  V30 642 H 56.7707 -0.256001 1.93211 0
M  V30 643 H 55.8667 -1.58243 2.69009 0
M  V30 644 N 56.1678 -1.49265 -0.50573 0
M  V30 645 C 57.0978 -1.68495 -1.61653 0
M  V30 646 C 58.0788 -0.53366 -1.61512 0
M  V30 647 O 59.2638 -0.76897 -1.78327 0
M  V30 648 C 56.3938 -1.74709 -3.00157 0
M  V30 649 C 55.3478 -2.89581 -3.15162 0
M  V30 650 C 54.6738 -2.80903 -4.5497 0
M  V30 651 C 55.9738 -4.30578 -2.95634 0
M  V30 652 H 57.6678 -2.61493 -1.45814 0
M  V30 653 H 55.2138 -1.25838 -0.70005 0
M  V30 654 H 57.1668 -1.86748 -3.77761 0
M  V30 655 H 55.8908 -0.783067 -3.17074 0
M  V30 656 H 54.5498 -2.77136 -2.39982 0
M  V30 657 H 54.1978 -1.82419 -4.68756 0
M  V30 658 H 53.8978 -3.57999 -4.65951 0
M  V30 659 H 55.4218 -2.94944 -5.34641 0
M  V30 660 H 56.8358 -4.4373 -3.63011 0
M  V30 661 H 55.2328 -5.0886 -3.18091 0
M  V30 662 H 56.3028 -4.45352 -1.91806 0
M  V30 663 N 57.6459 0.756429 -1.3826 0
M  V30 664 C 59.0569 1.33359 -1.30661 0
M  V30 665 C 59.4079 1.96161 0.0388875 0
M  V30 666 O 58.5329 1.94874 0.940918 0
M  V30 667 C 59.1279 2.42477 -2.36622 0
M  V30 668 C 57.6869 2.95922 -2.3261 0
M  V30 669 C 56.8339 1.69275 -2.19639 0
M  V30 670 H 59.7849 0.55552 -1.4866 0
M  V30 671 H 59.8059 3.22345 -2.02174 0
M  V30 672 H 59.3179 1.96739 -3.34538 0
M  V30 673 H 57.4189 3.45996 -1.38267 0
M  V30 674 H 57.5319 3.50494 -3.26636 0
M  V30 675 H 55.8959 1.92793 -1.66442 0
M  V30 676 H 56.6789 1.25619 -3.19491 0
M  V30 677 N 59.124 1.23083 0.984299 0
M  V30 678 C 60.352 1.08714 1.76037 0
M  V30 679 C 60.767 -0.361691 1.85303 0
M  V30 680 O 60.124 -1.25034 1.32939 0
M  V30 681 C 60.175 1.70206 3.18923 0
M  V30 682 O 59.896 3.09423 3.10144 0
M  V30 683 C 61.397 1.61227 4.12941 0
M  V30 684 H 58.617 0.380664 0.552572 0
M  V30 685 H 61.161 1.62853 1.23689 0
M  V30 686 H 59.316 1.20109 3.6831 0
M  V30 687 H 59.73 3.39188 4.00065 0
M  V30 688 H 61.204 2.08962 5.10919 0
M  V30 689 H 61.681 0.570375 4.35481 0
M  V30 690 H 62.287 2.10671 3.69456 0
M  V30 691 N 60.6021 -1.18246 1.0419 0
M  V30 692 C 61.8501 -1.87886 0.744543 0
M  V30 693 C 62.1711 -1.8082 -0.730006 0
M  V30 694 O 61.4411 -1.22736 -1.52685 0
M  V30 695 H 60.0211 -0.695556 0.272417 0
M  V30 696 H 62.6831 -1.43494 1.31892 0
M  V30 697 H 61.7791 -2.9389 1.05049 0
M  V30 698 N 62.0802 -0.821533 -1.34494 0
M  V30 699 C 63.3052 -0.420873 -2.03085 0
M  V30 700 C 63.7302 0.964915 -1.61465 0
M  V30 701 O 63.0882 1.62763 -0.798607 0
M  V30 702 C 63.1362 -0.529414 -3.56693 0
M  V30 703 O 62.2402 0.451302 -4.09923 0
M  V30 704 H 61.5812 -0.173489 -0.640935 0
M  V30 705 H 64.1112 -1.11157 -1.71771 0
M  V30 706 H 64.1212 -0.404671 -4.05988 0
M  V30 707 H 62.7962 -1.54014 -3.86332 0
M  V30 708 H 61.3732 0.285558 -3.71805 0
M  V30 709 N 63.5583 1.46682 -0.576371 0
M  V30 710 C 64.7863 2.06798 -0.0649635 0
M  V30 711 C 65.2013 1.42612 1.23723 0
M  V30 712 O 64.5583 0.529203 1.74659 0
M  V30 713 C 64.6093 3.6132 0.114202 0
M  V30 714 O 64.3303 4.23104 -1.13644 0
M  V30 715 C 65.8313 4.38349 0.66069 0
M  V30 716 H 63.0513 0.668778 -0.0545616 0
M  V30 717 H 65.5953 1.88404 -0.795237 0
M  V30 718 H 63.7503 3.79162 0.794673 0
M  V30 719 H 64.1643 5.15894 -0.946253 0
M  V30 720 H 65.6383 5.47081 0.73526 0
M  V30 721 H 66.1153 4.05953 1.67627 0
M  V30 722 H 66.7213 4.25297 0.0152951 0
M  V30 723 N 65.0364 0.313813 1.54444 0
M  V30 724 C 66.4474 -0.176243 1.85866 0
M  V30 725 C 66.7984 -1.52405 1.23561 0
M  V30 726 O 65.9234 -2.09605 0.538016 0
M  V30 727 C 66.5184 -0.32657 3.37222 0
M  V30 728 C 65.0774 -0.760846 3.6863 0
M  V30 729 C 64.2244 0.123247 2.77026 0
M  V30 730 H 67.1754 0.534418 1.49431 0
M  V30 731 H 67.1964 -1.15908 3.62416 0
M  V30 732 H 66.7084 0.654531 3.82541 0
M  V30 733 H 64.8094 -1.75204 3.28838 0
M  V30 734 H 64.9224 -0.571353 4.75681 0
M  V30 735 H 63.2864 -0.399597 2.51546 0
M  V30 736 H 64.0694 1.10094 3.25168 0
M  V30 737 N 66.5145 -1.57545 0.0417849 0
M  V30 738 C 67.4445 -2.14009 -0.933929 0
M  V30 739 C 68.4255 -1.05938 -1.33083 0
M  V30 740 O 69.6105 -1.33833 -1.40721 0
M  V30 741 C 66.7405 -2.67747 -2.21199 0
M  V30 742 C 65.6945 -3.80718 -1.95544 0
M  V30 743 C 65.0205 -4.20935 -3.29724 0
M  V30 744 C 66.3205 -5.06258 -1.28452 0
M  V30 745 H 68.0145 -2.95788 -0.463645 0
M  V30 746 H 65.5605 -1.42285 -0.221573 0
M  V30 747 H 67.5135 -3.05886 -2.89848 0
M  V30 748 H 66.2375 -1.83147 -2.70416 0
M  V30 749 H 64.8965 -3.43037 -1.2931 0
M  V30 750 H 64.5445 -3.33298 -3.76724 0
M  V30 751 H 64.2445 -4.9707 -3.13361 0
M  V30 752 H 65.7685 -4.61666 -3.9962 0
M  V30 753 H 67.1825 -5.41903 -1.8712 0
M  V30 754 H 65.5795 -5.87475 -1.22445 0
M  V30 755 H 66.6495 -4.84207 -0.259219 0
M  V30 756 N 67.9926 0.231505 -1.5589 0
M  V30 757 C 69.2406 0.955461 -1.78088 0
M  V30 758 C 69.5616 1.85262 -0.608533 0
M  V30 759 O 68.8316 1.92277 0.375035 0
M  V30 760 H 67.4116 0.355787 -0.656829 0
M  V30 761 H 70.0736 0.245751 -1.93344 0
M  V30 762 H 69.1696 1.56814 -2.69844 0
M  V30 763 N 69.4707 1.49531 0.497807 0
M  V30 764 C 70.7107 1.60799 1.26187 0
M  V30 765 C 71.0747 0.289627 1.89803 0
M  V30 766 O 72.2757 0.277512 2.67364 0
M  V30 767 C 70.5467 2.73729 2.29798 0
M  V30 768 S 72.1057 3.04968 3.155 0
M  V30 769 H 68.9237 0.567145 0.428798 0
M  V30 770 H 71.5257 1.87204 0.563477 0
M  V30 771 H 70.2297 3.68036 1.81597 0
M  V30 772 H 69.7607 2.49328 3.04301 0
M  V30 773 H 71.7757 2.46735 4.30507 0
M  V30 774 N 70.9488 -0.749086 1.3866 0
M  V30 775 C 72.1788 -1.53611 1.38157 0
M  V30 776 C 72.5868 -1.89177 -0.0293595 0
M  V30 777 O 71.9298 -1.53606 -1.00752 0
M  V30 778 C 71.9918 -2.86087 2.17702 0
M  V30 779 C 71.6558 -2.73034 3.66472 0
M  V30 780 C 72.6528 -2.42526 4.59866 0
M  V30 781 C 70.3378 -2.90345 4.09884 0
M  V30 782 C 72.3318 -2.29492 5.94653 0
M  V30 783 C 70.0188 -2.7693 5.4475 0
M  V30 784 C 71.0168 -2.46547 6.36949 0
M  V30 785 O 70.7048 -2.33199 7.69333 0
M  V30 786 H 70.4368 -0.481773 0.474205 0
M  V30 787 H 72.9908 -0.934465 1.82912 0
M  V30 788 H 71.2208 -3.48458 1.67672 0
M  V30 789 H 72.9098 -3.47625 2.09551 0
M  V30 790 H 73.6758 -2.28816 4.27631 0
M  V30 791 H 69.5548 -3.1299 3.38464 0
M  V30 792 H 73.0988 -2.05698 6.66584 0
M  V30 793 H 68.9958 -2.90215 5.76581 0
M  V30 794 H 69.7638 -2.48376 7.79905 0
M  V30 795 N 72.4269 -1.23603 -0.977757 0
M  V30 796 C 73.3739 -1.01954 -2.07061 0
M  V30 797 C 74.3439 0.0638697 -1.65977 0
M  V30 798 O 75.5289 -0.0887624 -1.90593 0
M  V30 799 C 72.6689 -0.619658 -3.39491 0
M  V30 800 C 71.7819 -1.77547 -3.93829 0
M  V30 801 C 70.9169 -1.32212 -5.14484 0
M  V30 802 C 69.9559 -2.44852 -5.60994 0
M  V30 803 N 69.0929 -2.00456 -6.72876 0
M  V30 804 H 73.9329 -1.95495 -2.24913 0
M  V30 805 H 71.4699 -0.973861 -1.10247 0
M  V30 806 H 73.4279 -0.368898 -4.15566 0
M  V30 807 H 72.0579 0.278752 -3.21594 0
M  V30 808 H 71.1099 -2.14016 -3.14486 0
M  V30 809 H 72.4219 -2.62219 -4.24314 0
M  V30 810 H 71.5759 -1.02965 -5.97899 0
M  V30 811 H 70.3149 -0.445808 -4.85658 0
M  V30 812 H 69.3199 -2.74871 -4.76157 0
M  V30 813 H 70.5449 -3.33024 -5.91837 0
M  V30 814 H 68.4909 -1.15208 -6.45804 0
M  V30 815 H 68.4079 -2.78687 -7.02759 0
M  V30 816 H 69.6759 -1.7432 -7.59758 0
M  V30 817 N 73.905 1.17692 -1.04816 0
M  V30 818 C 74.852 2.21581 -0.645797 0
M  V30 819 C 75.822 1.62367 0.350159 0
M  V30 820 O 77.007 1.89254 0.242433 0
M  V30 821 C 74.147 3.45092 -0.0227568 0
M  V30 822 C 73.26 4.18613 -1.06709 0
M  V30 823 C 72.395 5.29602 -0.411767 0
M  V30 824 C 71.434 5.94904 -1.44067 0
M  V30 825 N 70.571 6.97414 -0.809781 0
M  V30 826 H 75.411 2.55353 -1.5362 0
M  V30 827 H 72.948 1.25438 -0.768364 0
M  V30 828 H 74.906 4.15679 0.35588 0
M  V30 829 H 73.536 3.11917 0.831122 0
M  V30 830 H 72.588 3.46779 -1.5636 0
M  V30 831 H 73.9 4.63293 -1.84827 0
M  V30 832 H 73.054 6.06696 0.0206623 0
M  V30 833 H 71.793 4.86045 0.401438 0
M  V30 834 H 70.798 5.16544 -1.88316 0
M  V30 835 H 72.023 6.40542 -2.25571 0
M  V30 836 H 69.969 6.55998 -0.0170186 0
M  V30 837 H 69.886 7.40386 -1.52856 0
M  V30 838 H 71.154 7.78463 -0.401999 0
M  V30 839 N 75.3831 0.828654 1.34056 0
M  V30 840 C 76.3131 0.269443 2.3194 0
M  V30 841 C 77.2941 -0.617247 1.58506 0
M  V30 842 O 78.4791 -0.542931 1.86456 0
M  V30 843 C 75.6091 -0.564793 3.42677 0
M  V30 844 C 74.5631 0.225241 4.27407 0
M  V30 845 C 73.8891 -0.7321 5.29664 0
M  V30 846 C 75.1891 1.43663 5.02154 0
M  V30 847 H 76.8831 1.08728 2.7896 0
M  V30 848 H 74.4291 0.524283 1.34117 0
M  V30 849 H 76.3821 -0.966233 4.10173 0
M  V30 850 H 75.1061 -1.41574 2.9432 0
M  V30 851 H 73.7651 0.608117 3.61521 0
M  V30 852 H 73.4131 -1.57916 4.77568 0
M  V30 853 H 73.1131 -0.20767 5.87233 0
M  V30 854 H 74.6371 -1.13128 6.00029 0
M  V30 855 H 76.0511 1.1089 5.62473 0
M  V30 856 H 74.4481 1.89711 5.69324 0
M  V30 857 H 75.5181 2.21181 4.31517 0
M  V30 858 N 76.8612 -1.46375 0.584142 0
M  V30 859 C 78.1102 -2.01585 0.0679741 0
M  V30 860 C 78.4232 -1.46109 -1.30045 0
M  V30 861 O 79.6292 -1.93148 -1.90804 0
M  V30 862 C 78.0852 -3.5983 0.0709207 0
M  V30 863 C 77.6932 -4.24303 1.43775 0
M  V30 864 C 79.4372 -4.22693 -0.391228 0
M  V30 865 C 77.3442 -5.74631 1.39834 0
M  V30 866 H 76.2742 -0.753689 0.0216421 0
M  V30 867 H 78.9252 -1.68093 0.736001 0
M  V30 868 H 77.3072 -3.90405 -0.663299 0
M  V30 869 H 78.4812 -4.05335 2.19181 0
M  V30 870 H 76.7962 -3.73539 1.84004 0
M  V30 871 H 79.3932 -5.3289 -0.439524 0
M  V30 872 H 79.7362 -3.91728 -1.40906 0
M  V30 873 H 80.2692 -3.96749 0.288974 0
M  V30 874 H 77.0082 -6.10258 2.39303 0
M  V30 875 H 76.5282 -5.95858 0.686505 0
M  V30 876 H 78.2072 -6.37375 1.11187 0
M  V30 877 N 78.3393 -0.321999 -1.54275 0
M  V30 878 C 79.2493 0.553631 -2.27974 0
M  V30 879 C 80.2653 1.13054 -1.32268 0
M  V30 880 O 81.4413 1.15084 -1.6528 0
M  V30 881 C 78.5063 1.69927 -3.02201 0
M  V30 882 C 77.5673 1.15433 -4.1349 0
M  V30 883 C 76.8003 2.24537 -4.84168 0
M  V30 884 O 77.0233 3.44852 -4.5435 0
M  V30 885 O 75.9573 1.90044 -5.7111 0
M  V30 886 H 79.7833 -0.0448345 -3.03667 0
M  V30 887 H 77.3683 -0.0877418 -1.49142 0
M  V30 888 H 79.2503 2.3663 -3.48689 0
M  V30 889 H 77.9253 2.28395 -2.29385 0
M  V30 890 H 76.8323 0.452436 -3.71354 0
M  V30 891 H 78.1653 0.614805 -4.88345 0
M  V30 892 N 79.8174 1.5752 -0.0501392 0
M  V30 893 C 81.0474 1.96678 0.632573 0
M  V30 894 C 81.4554 0.926298 1.64974 0
M  V30 895 O 80.7984 -0.09802 1.83438 0
M  V30 896 C 80.8604 3.32068 1.37735 0
M  V30 897 C 80.5244 4.54076 0.516131 0
M  V30 898 C 81.5214 5.19445 -0.217357 0
M  V30 899 C 79.2064 5.00304 0.44736 0
M  V30 900 C 81.2004 6.29378 -1.00807 0
M  V30 901 C 78.8874 6.10114 -0.347038 0
M  V30 902 C 79.8854 6.74512 -1.07344 0
M  V30 903 O 79.5734 7.82211 -1.85477 0
M  V30 904 H 79.3054 0.652193 0.177821 0
M  V30 905 H 81.8594 2.05091 -0.112543 0
M  V30 906 H 80.0894 3.20206 2.16807 0
M  V30 907 H 81.7784 3.55981 1.95019 0
M  V30 908 H 82.5444 4.84689 -0.173688 0
M  V30 909 H 78.4234 4.49971 1.00235 0
M  V30 910 H 81.9674 6.79575 -1.57556 0
M  V30 911 H 77.8644 6.44307 -0.392349 0
M  V30 912 H 78.6324 7.98982 -1.77678 0
M  V30 913 N 81.2955 -0.223234 1.56011 0
M  V30 914 C 82.5255 -0.963413 1.82762 0
M  V30 915 C 82.9335 -1.78516 0.626804 0
M  V30 916 O 82.2765 -1.78974 -0.414014 0
M  V30 917 C 82.3385 -1.93126 3.0322 0
M  V30 918 C 82.0025 -1.2942 4.38291 0
M  V30 919 C 82.9995 -0.684916 5.15369 0
M  V30 920 C 80.6845 -1.30647 4.85012 0
M  V30 921 C 82.6785 -0.0963971 6.37327 0
M  V30 922 C 80.3655 -0.71411 6.06913 0
M  V30 923 C 81.3635 -0.110123 6.82911 0
M  V30 924 O 81.0515 0.47303 8.02507 0
M  V30 925 H 80.7835 -0.288011 0.611576 0
M  V30 926 H 83.3375 -0.244103 2.03944 0
M  V30 927 H 81.5675 -2.68952 2.77852 0
M  V30 928 H 83.2565 -2.53685 3.16857 0
M  V30 929 H 84.0225 -0.667774 4.80381 0
M  V30 930 H 79.9015 -1.76598 4.25833 0
M  V30 931 H 83.4455 0.375657 6.96588 0
M  V30 932 H 79.3425 -0.728659 6.41374 0
M  V30 933 H 80.1105 0.367186 8.17676 0
M  V30 934 N 82.7736 -1.49793 -0.48987 0
M  V30 935 C 83.7206 -1.67281 -1.59014 0
M  V30 936 C 84.6906 -0.514177 -1.57941 0
M  V30 937 O 85.8756 -0.742533 -1.75759 0
M  V30 938 C 83.0156 -1.75569 -2.97102 0
M  V30 939 C 82.1286 -3.0281 -3.08107 0
M  V30 940 C 81.2636 -3.02008 -4.36995 0
M  V30 941 C 80.3026 -4.23782 -4.41673 0
M  V30 942 N 79.4396 -4.20826 -5.62005 0
M  V30 943 H 84.2796 -2.61224 -1.43409 0
M  V30 944 H 81.8166 -1.29508 -0.697565 0
M  V30 945 H 83.7746 -1.78354 -3.77155 0
M  V30 946 H 82.4046 -0.850827 -3.11385 0
M  V30 947 H 81.4566 -3.09584 -2.21047 0
M  V30 948 H 82.7686 -3.92801 -3.07423 0
M  V30 949 H 81.9226 -3.03418 -5.25378 0
M  V30 950 H 80.6616 -2.09815 -4.4026 0
M  V30 951 H 79.6666 -4.22604 -3.5169 0
M  V30 952 H 80.8916 -5.17181 -4.40115 0
M  V30 953 H 78.8376 -3.31476 -5.66091 0
M  V30 954 H 78.7546 -5.04564 -5.62984 0
M  V30 955 H 80.0226 -4.26355 -6.52565 0
M  V30 956 N 84.2517 0.741722 -1.39055 0
M  V30 957 C 85.1997 1.87702 -1.3737 0
M  V30 958 C 86.1937 1.67427 -0.257812 0
M  V30 959 O 87.3997 1.7485 -0.427489 0
M  V30 960 H 83.7747 0.617757 -0.428812 0
M  V30 961 H 85.7457 1.86239 -2.33147 0
M  V30 962 C 84.4947 3.25315 -1.22741 0
M  V30 963 H 83.8177 3.41509 -2.07873 0
M  V30 964 H 85.2577 4.04964 -1.25618 0
M  V30 965 C 83.7167 3.36838 0.0647316 0
M  V30 966 O 84.2467 3.88073 1.03741 0
M  V30 967 N 82.4527 2.90329 0.125544 0
M  V30 968 H 81.9997 2.48823 -0.666682 0
M  V30 969 H 81.9577 2.98418 0.989639 0
M  V30 970 N 85.7298 1.2412 0.971189 0
M  V30 971 C 86.9778 1.07668 1.71032 0
M  V30 972 C 87.2988 -0.385797 1.91146 0
M  V30 973 O 86.5688 -1.27569 1.4867 0
M  V30 974 H 85.1488 0.395429 0.633755 0
M  V30 975 H 87.8108 1.55984 1.16855 0
M  V30 976 H 86.9068 1.57195 2.69622 0
M  V30 977 N 87.2079 -1.17134 1.05439 0
M  V30 978 C 88.4849 -1.83411 0.679699 0
M  V30 979 C 88.8649 -1.9368 -0.839726 0
M  V30 980 O 88.2129 -1.47325 -1.74664 0
M  V30 981 C 88.4229 -3.20918 1.37159 0
M  V30 982 C 89.7709 -3.96796 1.51123 0
M  V30 983 O 90.7949 -3.30406 1.3308 0
M  V30 984 O 89.6539 -5.15778 1.80651 0
M  V30 985 H 86.7479 -0.79154 0.239569 0
M  V30 986 H 89.2939 -1.24411 1.15413 0
M  V30 987 H 88.0659 -3.08428 2.40807 0
M  V30 988 H 87.6889 -3.87587 0.886674 0
M  V30 989 N 88.686 -0.835752 -1.33615 0
M  V30 990 C 89.616 -0.281739 -2.31794 0
M  V30 991 C 90.597 0.608833 -1.58831 0
M  V30 992 O 91.782 0.533035 -1.86741 0
M  V30 993 C 88.912 0.546612 -3.42971 0
M  V30 994 C 87.866 -0.247904 -4.27281 0
M  V30 995 C 87.192 0.704001 -5.30045 0
M  V30 996 C 88.492 -1.46324 -5.01385 0
M  V30 997 H 90.186 -1.10206 -2.78379 0
M  V30 998 H 87.732 -0.531388 -1.33837 0
M  V30 999 H 89.685 0.944467 -4.1068 0
M  V30 1000 H 88.409 1.40011 -2.95067 0
M  V30 1001 H 87.068 -0.627281 -3.61194 0
M  V30 1002 H 86.716 1.55381 -4.78399 0
M  V30 1003 H 86.416 0.176524 -5.87335 0
M  V30 1004 H 87.94 1.09944 -6.0062 0
M  V30 1005 H 89.354 -1.13871 -5.61877 0
M  V30 1006 H 87.751 -1.92728 -5.6831 0
M  V30 1007 H 88.821 -2.23467 -4.30338 0
M  V30 1008 N 90.1641 1.46063 -0.591896 0
M  V30 1009 C 91.3891 2.07226 -0.0850314 0
M  V30 1010 C 91.8141 1.43625 1.21463 0
M  V30 1011 O 91.1721 0.523305 1.73583 0
M  V30 1012 C 91.2201 3.60554 0.0576567 0
M  V30 1013 O 90.3241 3.97128 1.11188 0
M  V30 1014 H 89.6651 0.660615 -0.0669568 0
M  V30 1015 H 92.1951 1.8756 -0.81745 0
M  V30 1016 H 92.2051 4.07165 0.2609 0
M  V30 1017 H 90.8801 4.06235 -0.891416 0
M  V30 1018 H 89.4571 3.62213 0.886356 0
M  V30 1019 N 91.6422 0.330177 1.54103 0
M  V30 1020 C 92.8892 -0.270405 2.00686 0
M  V30 1021 C 93.2172 -1.51621 1.21825 0
M  V30 1022 O 92.4722 -1.93536 0.29025 0
M  V30 1023 C 92.7712 -0.643134 3.51566 0
M  V30 1024 C 92.4372 0.504251 4.48072 0
M  V30 1025 C 91.0992 0.819163 4.74176 0
M  V30 1026 C 93.4512 1.27465 5.05373 0
M  V30 1027 C 90.7792 1.90708 5.5484 0
M  V30 1028 C 93.1312 2.35271 5.87223 0
M  V30 1029 C 91.7952 2.67336 6.11627 0
M  V30 1030 H 91.0652 -0.0989482 0.734364 0
M  V30 1031 H 93.7122 0.455324 1.86008 0
M  V30 1032 H 92.0172 -1.44938 3.64006 0
M  V30 1033 H 93.7142 -1.11949 3.85056 0
M  V30 1034 H 90.3042 0.248733 4.27878 0
M  V30 1035 H 94.4882 1.04462 4.85182 0
M  V30 1036 H 89.7442 2.15991 5.71977 0
M  V30 1037 H 93.9182 2.95405 6.30641 0
M  V30 1038 H 91.5452 3.51763 6.73919 0
M  V30 1039 N 93.1203 -1.57491 0.0584922 0
M  V30 1040 C 94.0673 -2.11958 -0.913376 0
M  V30 1041 C 95.0373 -1.02875 -1.30407 0
M  V30 1042 O 96.2223 -1.30464 -1.39226 0
M  V30 1043 C 93.3623 -2.67497 -2.18035 0
M  V30 1044 C 92.4753 -3.90691 -1.84349 0
M  V30 1045 C 91.6103 -4.3452 -3.05559 0
M  V30 1046 C 90.6493 -5.50395 -2.67827 0
M  V30 1047 N 89.7863 -5.89244 -3.81754 0
M  V30 1048 H 94.6263 -2.94704 -0.442017 0
M  V30 1049 H 92.1633 -1.45643 -0.206545 0
M  V30 1050 H 94.1213 -2.978 -2.92183 0
M  V30 1051 H 92.7513 -1.87537 -2.62735 0
M  V30 1052 H 91.8033 -3.66934 -1.00319 0
M  V30 1053 H 93.1153 -4.7489 -1.5258 0
M  V30 1054 H 92.2693 -4.66414 -3.87998 0
M  V30 1055 H 91.0083 -3.49147 -3.40511 0
M  V30 1056 H 90.0133 -5.18165 -1.83806 0
M  V30 1057 H 91.2383 -6.3749 -2.34059 0
M  V30 1058 H 89.1843 -5.06823 -4.16493 0
M  V30 1059 H 89.1013 -6.68151 -3.53708 0
M  V30 1060 H 90.3693 -6.25756 -4.64811 0
M  V30 1061 N 94.5984 0.214957 -1.56127 0
M  V30 1062 C 95.8284 0.953707 -1.8327 0
M  V30 1063 C 96.2364 1.78181 -0.636262 0
M  V30 1064 O 95.5794 1.79191 0.404516 0
M  V30 1065 C 95.6414 1.91516 -3.0424 0
M  V30 1066 C 95.3054 1.27094 -4.38972 0
M  V30 1067 C 96.3024 0.657575 -5.15725 0
M  V30 1068 C 93.9874 1.28073 -4.85698 0
M  V30 1069 C 95.9814 0.0625968 -6.37369 0
M  V30 1070 C 93.6684 0.681914 -6.07283 0
M  V30 1071 C 94.6664 0.0739046 -6.8296 0
M  V30 1072 O 94.3544 -0.515582 -8.02245 0
M  V30 1073 H 94.0864 0.284764 -0.613095 0
M  V30 1074 H 96.6404 0.233283 -2.04071 0
M  V30 1075 H 94.8704 2.67475 -2.79274 0
M  V30 1076 H 96.5594 2.52001 -3.18198 0
M  V30 1077 H 97.3254 0.642288 -4.80728 0
M  V30 1078 H 93.2044 1.74337 -4.26764 0
M  V30 1079 H 96.7484 -0.412593 -6.96379 0
M  V30 1080 H 92.6454 0.694636 -6.41752 0
M  V30 1081 H 93.4134 -0.410544 -8.1747 0
M  V30 1082 N 96.0765 1.50051 0.48192 0
M  V30 1083 C 97.3225 1.60736 1.2366 0
M  V30 1084 C 97.6555 0.301786 1.91841 0
M  V30 1085 O 96.9305 -0.696025 1.8162 0
M  V30 1086 C 97.2135 2.78009 2.28874 0
M  V30 1087 C 97.0665 4.18416 1.65069 0
M  V30 1088 C 98.3855 2.90867 3.30279 0
M  V30 1089 H 95.5045 0.585031 0.448228 0
M  V30 1090 H 98.1465 1.82402 0.531946 0
M  V30 1091 H 96.2965 2.59667 2.88973 0
M  V30 1092 H 97.9685 4.48322 1.0865 0
M  V30 1093 H 96.2115 4.23177 0.954148 0
M  V30 1094 H 96.8825 4.96381 2.41474 0
M  V30 1095 H 99.3585 3.07623 2.80191 0
M  V30 1096 H 98.2345 3.74566 4.01238 0
M  V30 1097 H 98.4955 2.01021 3.93755 0
M  V30 1098 N 97.5546 -0.734337 1.39446 0
M  V30 1099 C 98.5016 -1.84835 1.38219 0
M  V30 1100 C 99.4716 -1.64331 0.24179 0
M  V30 1101 O 100.657 -1.85728 0.437002 0
M  V30 1102 C 97.7966 -3.22355 1.23212 0
M  V30 1103 C 96.9096 -3.5456 2.46801 0
M  V30 1104 C 96.0446 -4.81485 2.24377 0
M  V30 1105 C 95.0836 -5.06536 3.43639 0
M  V30 1106 N 94.2206 -6.24665 3.20528 0
M  V30 1107 H 99.0606 -1.85219 2.33448 0
M  V30 1108 H 96.5976 -0.905039 1.15963 0
M  V30 1109 H 98.5556 -4.0174 1.12522 0
M  V30 1110 H 97.1856 -3.21248 0.316121 0
M  V30 1111 H 96.2376 -2.69872 2.68092 0
M  V30 1112 H 97.5496 -3.6899 3.3563 0
M  V30 1113 H 96.7036 -5.68852 2.10933 0
M  V30 1114 H 95.4426 -4.6923 1.32944 0
M  V30 1115 H 94.4476 -4.17632 3.5758 0
M  V30 1116 H 95.6726 -5.20676 4.35974 0
M  V30 1117 H 93.6186 -6.13696 2.3176 0
M  V30 1118 H 93.5356 -6.39685 4.02913 0
M  V30 1119 H 94.8036 -7.14868 3.10779 0
M  V30 1120 N 99.0327 -1.24633 -0.964593 0
M  V30 1121 C 100.261 -1.11501 -1.74285 0
M  V30 1122 C 100.676 0.332165 -1.85855 0
M  V30 1123 O 100.033 1.22903 -1.34911 0
M  V30 1124 C 100.084 -1.75258 -3.16175 0
M  V30 1125 O 99.8047 -3.14318 -3.05182 0
M  V30 1126 C 101.306 -1.67776 -4.10324 0
M  V30 1127 H 98.5257 -0.389407 -0.546446 0
M  V30 1128 H 101.07 -1.64801 -1.21083 0
M  V30 1129 H 99.2247 -1.25954 -3.66353 0
M  V30 1130 H 99.6387 -3.4551 -3.94618 0
M  V30 1131 H 101.113 -2.17064 -5.0753 0
M  V30 1132 H 101.59 -0.639584 -4.34518 0
M  V30 1133 H 102.196 -2.16522 -3.66058 0
M  V30 1134 N 100.511 1.16574 -1.06058 0
M  V30 1135 C 101.758 1.87047 -0.775873 0
M  V30 1136 C 102.086 1.81562 0.697534 0
M  V30 1137 O 101.341 1.22445 1.52662 0
M  V30 1138 C 101.64 3.36195 -1.21275 0
M  V30 1139 C 101.306 3.6188 -2.68986 0
M  V30 1140 C 99.9678 3.68599 -3.09335 0
M  V30 1141 C 102.32 3.72648 -3.64394 0
M  V30 1142 C 99.6478 3.83584 -4.43937 0
M  V30 1143 C 102 3.89154 -4.98741 0
M  V30 1144 C 100.664 3.94114 -5.3873 0
M  V30 1145 H 99.9338 0.684452 -0.283912 0
M  V30 1146 H 102.581 1.37853 -1.32925 0
M  V30 1147 H 100.886 3.87505 -0.578528 0
M  V30 1148 H 102.583 3.89103 -0.969542 0
M  V30 1149 H 99.1728 3.57281 -2.36744 0
M  V30 1150 H 103.357 3.66769 -3.34356 0
M  V30 1151 H 98.6128 3.85677 -4.74409 0
M  V30 1152 H 102.787 3.96427 -5.72554 0
M  V30 1153 H 100.414 4.05478 -6.43033 0
M  V30 1154 N 101.989 0.842826 1.3317 0
M  V30 1155 C 102.937 0.267495 2.31057 0
M  V30 1156 C 103.931 -0.602682 1.58316 0
M  V30 1157 O 105.137 -0.491803 1.73151 0
M  V30 1158 H 101.512 0.0677813 0.748939 0
M  V30 1159 H 103.483 1.10754 2.77085 0
M  V30 1160 C 102.232 -0.539331 3.43492 0
M  V30 1161 H 101.555 0.12095 3.99617 0
M  V30 1162 H 102.995 -0.90767 4.14171 0
M  V30 1163 C 101.454 -1.71981 2.89697 0
M  V30 1164 O 101.984 -2.81862 2.86211 0
M  V30 1165 N 100.19 -1.54299 2.46252 0
M  V30 1166 H 99.7369 -0.649143 2.49287 0
M  V30 1167 H 99.6949 -2.33431 2.10612 0
M  V30 1168 N 103.467 -1.45747 0.599634 0
M  V30 1169 C 104.4 -2.27547 -0.172552 0
M  V30 1170 C 105.378 -1.36657 -0.881116 0
M  V30 1171 O 106.562 -1.66081 -0.891595 0
M  V30 1172 C 103.689 -3.14829 -1.24903 0
M  V30 1173 C 102.735 -4.21603 -0.644465 0
M  V30 1174 S 103.568 -5.32754 0.541606 0
M  V30 1175 C 104.724 -6.23604 -0.535656 0
M  V30 1176 H 104.957 -2.92691 0.521468 0
M  V30 1177 H 102.49 -1.49473 0.386947 0
M  V30 1178 H 104.448 -3.65675 -1.86527 0
M  V30 1179 H 103.109 -2.48965 -1.91508 0
M  V30 1180 H 102.302 -4.82566 -1.45417 0
M  V30 1181 H 101.904 -3.73857 -0.103534 0
M  V30 1182 H 104.196 -6.62519 -1.41686 0
M  V30 1183 H 105.139 -7.0809 0.0376246 0
M  V30 1184 H 105.547 -5.58103 -0.84741 0
M  V30 1185 N 104.945 -0.338344 -1.53925 0
M  V30 1186 C 106.222 0.314774 -1.93051 0
M  V30 1187 C 106.602 1.68669 -1.26941 0
M  V30 1188 O 105.95 2.24636 -0.418445 0
M  V30 1189 C 106.16 0.392249 -3.46789 0
M  V30 1190 C 107.508 0.645554 -4.19664 0
M  V30 1191 O 108.532 0.474575 -3.53024 0
M  V30 1192 O 107.391 0.976408 -5.37707 0
M  V30 1193 H 104.485 0.182598 -0.80659 0
M  V30 1194 H 107.031 -0.389141 -1.65178 0
M  V30 1195 H 105.803 -0.570702 -3.87116 0
M  V30 1196 H 105.426 1.14316 -3.80812 0
M  V30 1197 N 106.423 1.57458 -0.0668435 0
M  V30 1198 C 107.333 2.15937 0.916975 0
M  V30 1199 C 108.349 1.12123 1.33058 0
M  V30 1200 O 109.525 1.44366 1.40429 0
M  V30 1201 C 106.59 2.70547 2.16807 0
M  V30 1202 C 105.651 3.89215 1.81135 0
M  V30 1203 C 104.884 4.41211 3.0028 0
M  V30 1204 O 105.107 3.92225 4.14144 0
M  V30 1205 O 104.041 5.32605 2.80384 0
M  V30 1206 H 107.867 3.00354 0.449561 0
M  V30 1207 H 105.452 1.48584 0.155949 0
M  V30 1208 H 107.334 3.0557 2.90181 0
M  V30 1209 H 106.009 1.89192 2.62656 0
M  V30 1210 H 104.916 3.59054 1.05028 0
M  V30 1211 H 106.249 4.71848 1.40073 0
M  V30 1212 N 107.901 -0.206675 1.56239 0
M  V30 1213 C 109.131 -0.943975 1.83773 0
M  V30 1214 C 109.539 -1.77841 0.645703 0
M  V30 1215 O 108.882 -1.79403 -0.395008 0
M  V30 1216 C 108.944 -1.899 3.05251 0
M  V30 1217 C 108.608 -1.24764 4.39639 0
M  V30 1218 C 109.605 -0.630216 5.16066 0
M  V30 1219 C 107.29 -1.25496 4.8637 0
M  V30 1220 C 109.284 -0.0287946 6.37393 0
M  V30 1221 C 106.971 -0.649698 6.07637 0
M  V30 1222 C 107.969 -0.0376845 6.8299 0
M  V30 1223 O 107.657 0.55812 8.0196 0
M  V30 1224 H 107.389 -0.281508 0.614597 0
M  V30 1225 H 109.943 -0.222458 2.04192 0
M  V30 1226 H 108.173 -2.6599 2.80689 0
M  V30 1227 H 109.862 -2.5031 3.1953 0
M  V30 1228 H 110.628 -0.616785 4.81062 0
M  V30 1229 H 106.507 -1.72072 4.27683 0
M  V30 1230 H 110.051 0.449518 6.9615 0
M  V30 1231 H 105.948 -0.660592 6.42111 0
M  V30 1232 H 106.716 0.453891 8.17241 0
M  V30 1233 N 109.379 -1.50304 -0.473955 0
M  V30 1234 C 110.625 -1.61389 -1.22806 0
M  V30 1235 C 110.958 -0.311955 -1.91678 0
M  V30 1236 O 110.233 0.686384 -1.81986 0
M  V30 1237 C 110.516 -2.79219 -2.27396 0
M  V30 1238 C 110.369 -4.19286 -1.62848 0
M  V30 1239 C 111.688 -2.92614 -3.28732 0
M  V30 1240 H 108.807 -0.587399 -0.445119 0
M  V30 1241 H 111.449 -1.82681 -0.522265 0
M  V30 1242 H 109.599 -2.61195 -2.87592 0
M  V30 1243 H 111.271 -4.48892 -1.06271 0
M  V30 1244 H 109.514 -4.23677 -0.931693 0
M  V30 1245 H 110.185 -4.97655 -2.38838 0
M  V30 1246 H 112.661 -3.09105 -2.78556 0
M  V30 1247 H 111.537 -3.76688 -3.99246 0
M  V30 1248 H 111.798 -2.03107 -3.92683 0
M  V30 1249 N 110.857 0.726932 -1.39834 0
M  V30 1250 C 112.105 1.4837 -1.37225 0
M  V30 1251 C 112.426 1.94979 0.0284857 0
M  V30 1252 O 111.696 1.69555 0.981213 0
M  V30 1253 H 110.276 0.55043 -0.505011 0
M  V30 1254 H 112.938 0.862468 -1.74778 0
M  V30 1255 H 112.034 2.36198 -2.04003 0
M  V30 1256 N 112.336 1.25143 0.95797 0
M  V30 1257 C 113.266 1.07711 2.07173 0
M  V30 1258 C 114.247 -0.0128462 1.70095 0
M  V30 1259 O 115.432 0.156061 1.93572 0
M  V30 1260 C 112.562 0.691503 3.40346 0
M  V30 1261 C 111.516 1.73132 3.9142 0
M  V30 1262 C 110.842 1.20049 5.21049 0
M  V30 1263 C 112.142 3.1294 4.1817 0
M  V30 1264 H 113.836 2.00873 2.22014 0
M  V30 1265 H 111.382 0.967191 1.06684 0
M  V30 1266 H 113.335 0.556505 4.17709 0
M  V30 1267 H 112.059 -0.275819 3.25433 0
M  V30 1268 H 110.718 1.8547 3.16222 0
M  V30 1269 H 110.366 0.223499 5.02503 0
M  V30 1270 H 110.066 1.89545 5.56189 0
M  V30 1271 H 111.59 1.07782 6.01012 0
M  V30 1272 H 113.004 3.03775 4.86203 0
M  V30 1273 H 111.401 3.79875 4.64559 0
M  V30 1274 H 112.471 3.6025 3.24573 0
M  V30 1275 N 113.814 -1.1601 1.06675 0
M  V30 1276 C 115.225 -1.68235 0.809565 0
M  V30 1277 C 115.576 -1.8454 -0.666303 0
M  V30 1278 O 114.701 -1.54374 -1.5165 0
M  V30 1279 C 115.296 -3.05585 1.46299 0
M  V30 1280 C 113.855 -3.54915 1.25349 0
M  V30 1281 C 113.002 -2.30804 1.53703 0
M  V30 1282 H 115.953 -1.00318 1.22971 0
M  V30 1283 H 115.974 -3.70174 0.880431 0
M  V30 1284 H 115.486 -2.93686 2.53713 0
M  V30 1285 H 113.587 -3.72067 0.199261 0
M  V30 1286 H 113.7 -4.36774 1.9689 0
M  V30 1287 H 112.064 -2.36007 0.957739 0
M  V30 1288 H 112.847 -2.21499 2.62284 0
M  V30 1289 N 115.292 -0.849877 -1.32721 0
M  V30 1290 C 116.708 -0.539102 -1.50219 0
M  V30 1291 C 116.908 0.931271 -1.78689 0
M  V30 1292 O 115.964 1.71455 -1.85363 0
M  V30 1293 C 117.277 -1.42196 -2.64954 0
M  V30 1294 C 118.825 -1.42189 -2.78839 0
M  V30 1295 C 119.3 -2.28985 -3.96648 0
M  V30 1296 N 120.791 -2.26754 -4.03902 0
M  V30 1297 C 121.526 -2.90644 -4.94281 0
M  V30 1298 N 121.022 -3.63629 -5.897 0
M  V30 1299 N 122.815 -2.80057 -4.87365 0
M  V30 1300 H 114.966 -1.80156 -1.12506 0
M  V30 1301 H 117.229 -0.769217 -0.554085 0
M  V30 1302 H 116.935 -2.46733 -2.50631 0
M  V30 1303 H 116.809 -1.10591 -3.60624 0
M  V30 1304 H 119.196 -0.38419 -2.92588 0
M  V30 1305 H 119.277 -1.77807 -1.83898 0
M  V30 1306 H 118.921 -3.32819 -3.83658 0
M  V30 1307 H 118.851 -1.90702 -4.90857 0
M  V30 1308 H 121.342 -1.73688 -3.3562 0
M  V30 1309 H 121.655 -4.09558 -6.55349 0
M  V30 1310 H 120 -3.67737 -5.89741 0
M  V30 1311 H 123.191 -2.22593 -4.11789 0
M  V30 1312 H 123.364 -3.30132 -5.57599 0
M  V30 1313 N 116.77 1.45427 -0.607355 0
M  V30 1314 C 118.047 1.9557 -0.0344566 0
M  V30 1315 C 118.427 1.54979 1.43334 0
M  V30 1316 O 117.775 0.812241 2.13576 0
M  V30 1317 C 117.985 3.48226 -0.232321 0
M  V30 1318 C 119.333 4.2445 -0.113001 0
M  V30 1319 O 120.357 3.55829 -0.162431 0
M  V30 1320 O 119.216 5.465 0.00209442 0
M  V30 1321 H 116.31 0.826222 0.0358667 0
M  V30 1322 H 118.856 1.55594 -0.6774 0
M  V30 1323 H 117.628 3.70739 -1.25174 0
M  V30 1324 H 117.251 3.95092 0.445896 0
M  V30 1325 N 118.248 0.346503 1.53744 0
M  V30 1326 C 119.198 -0.524953 2.21874 0
M  V30 1327 C 120.182 -1.06376 1.20718 0
M  V30 1328 O 121.374 -0.996972 1.46251 0
M  V30 1329 C 118.503 -1.6739 2.99726 0
M  V30 1330 C 117.589 -1.14888 4.08242 0
M  V30 1331 N 117.98 -0.345329 5.0462 0
M  V30 1332 C 116.278 -1.4255 4.22606 0
M  V30 1333 C 116.979 -0.0600706 5.81669 0
M  V30 1334 N 115.955 -0.65252 5.39669 0
M  V30 1335 H 119.757 0.0960091 2.93743 0
M  V30 1336 H 117.271 0.15352 1.61673 0
M  V30 1337 H 119.268 -2.3102 3.47038 0
M  V30 1338 H 117.928 -2.29811 2.29384 0
M  V30 1339 H 118.939 0.0138439 5.17898 0
M  V30 1340 H 115.616 -2.05389 3.63486 0
M  V30 1341 H 117.006 0.588321 6.69319 0
M  V30 1342 N 119.726 -1.57421 0.075193 0
M  V30 1343 C 121.137 -1.81021 -0.456964 0
M  V30 1344 C 121.488 -0.98936 -1.69429 0
M  V30 1345 O 120.613 -0.212865 -2.15351 0
M  V30 1346 C 121.208 -3.28329 -0.83581 0
M  V30 1347 C 119.767 -3.52764 -1.31281 0
M  V30 1348 C 118.914 -2.75676 -0.299648 0
M  V30 1349 H 121.865 -1.55822 0.300856 0
M  V30 1350 H 121.886 -3.40564 -1.69696 0
M  V30 1351 H 121.398 -3.88046 0.0649238 0
M  V30 1352 H 119.499 -2.98355 -2.23193 0
M  V30 1353 H 119.612 -4.61451 -1.28839 0
M  V30 1354 H 117.976 -2.42538 -0.777641 0
M  V30 1355 H 118.759 -3.38132 0.593417 0
M  V30 1356 N 121.204 0.198386 -1.56346 0
M  V30 1357 C 122.114 1.2664 -1.97483 0
M  V30 1358 C 123.13 1.49989 -0.882002 0
M  V30 1359 O 124.306 1.62668 -1.18748 0
M  V30 1360 C 121.371 2.59141 -2.30319 0
M  V30 1361 C 120.432 2.43892 -3.53292 0
M  V30 1362 C 119.665 3.70074 -3.84553 0
M  V30 1363 O 119.888 4.74101 -3.1715 0
M  V30 1364 O 118.822 3.658 -4.7799 0
M  V30 1365 H 122.648 0.947304 -2.88548 0
M  V30 1366 H 120.233 0.403123 -1.43859 0
M  V30 1367 H 122.115 3.37352 -2.5253 0
M  V30 1368 H 120.79 2.90684 -1.42423 0
M  V30 1369 H 119.697 1.63803 -3.36332 0
M  V30 1370 H 121.03 2.17282 -4.41644 0
M  V30 1371 N 122.682 1.50554 0.465978 0
M  V30 1372 C 123.907 1.65838 1.24549 0
M  V30 1373 C 124.332 0.343486 1.84937 0
M  V30 1374 O 123.69 -0.69324 1.67523 0
M  V30 1375 C 123.738 2.75533 2.32624 0
M  V30 1376 O 122.842 2.37142 3.37398 0
M  V30 1377 H 122.183 0.553893 0.366194 0
M  V30 1378 H 124.713 1.96959 0.553927 0
M  V30 1379 H 124.723 2.98763 2.77857 0
M  V30 1380 H 123.398 3.70962 1.88043 0
M  V30 1381 H 121.975 2.24377 2.97841 0
M  V30 1382 N 124.16 -0.719506 1.40217 0
M  V30 1383 C 125.39 -1.50646 1.41384 0
M  V30 1384 C 125.798 -1.89197 0.0107743 0
M  V30 1385 O 125.141 -1.55709 -0.974708 0
M  V30 1386 C 125.203 -2.81405 2.23722 0
M  V30 1387 C 124.867 -2.65199 3.72181 0
M  V30 1388 C 125.864 -2.32717 4.64907 0
M  V30 1389 C 123.549 -2.81586 4.1595 0
M  V30 1390 C 125.543 -2.16827 5.99387 0
M  V30 1391 C 123.23 -2.65313 5.50502 0
M  V30 1392 C 124.228 -2.32981 6.42035 0
M  V30 1393 O 123.916 -2.16827 7.74107 0
M  V30 1394 H 123.648 -0.471606 0.484318 0
M  V30 1395 H 126.202 -0.895456 1.84853 0
M  V30 1396 H 124.432 -3.44823 1.75026 0
M  V30 1397 H 126.121 -3.43102 2.16878 0
M  V30 1398 H 126.887 -2.19694 4.32388 0
M  V30 1399 H 122.766 -3.0574 3.45027 0
M  V30 1400 H 126.31 -1.91513 6.70797 0
M  V30 1401 H 122.207 -2.7792 5.82607 0
M  V30 1402 H 122.975 -2.31778 7.84998 0
M  V30 1403 N 125.638 -1.25649 -0.95132 0
M  V30 1404 C 126.588 -1.03004 -2.03406 0
M  V30 1405 C 127.572 0.034187 -1.60864 0
M  V30 1406 O 128.764 -0.181549 -1.76066 0
M  V30 1407 C 125.893 -0.654255 -3.37008 0
M  V30 1408 C 124.979 -1.75542 -3.86065 0
M  V30 1409 N 125.37 -2.99113 -4.07879 0
M  V30 1410 C 123.668 -1.63669 -4.14884 0
M  V30 1411 C 124.369 -3.70611 -4.48356 0
M  V30 1412 N 123.345 -2.98247 -4.54477 0
M  V30 1413 H 127.147 -1.96813 -2.1827 0
M  V30 1414 H 124.661 -1.16017 -1.13639 0
M  V30 1415 H 126.658 -0.473206 -4.14206 0
M  V30 1416 H 125.318 0.276468 -3.23521 0
M  V30 1417 H 126.329 -3.35124 -3.94857 0
M  V30 1418 H 123.006 -0.775161 -4.10241 0
M  V30 1419 H 124.396 -4.76695 -4.73509 0
M  V30 1420 N 127.117 1.15442 -1.07289 0
M  V30 1421 C 128.342 1.90638 -0.816828 0
M  V30 1422 C 128.767 1.77445 0.624083 0
M  V30 1423 O 128.125 1.10671 1.43602 0
M  V30 1424 C 128.173 3.39008 -1.22906 0
M  V30 1425 O 127.277 4.10701 -0.373975 0
M  V30 1426 H 126.618 0.593555 -0.297638 0
M  V30 1427 H 129.148 1.46198 -1.43134 0
M  V30 1428 H 129.158 3.89801 -1.20497 0
M  V30 1429 H 127.833 3.47929 -2.27856 0
M  V30 1430 H 126.41 3.70046 -0.460499 0
M  V30 1431 N 128.595 0.856903 1.32268 0
M  V30 1432 C 129.842 0.461386 1.97174 0
M  V30 1433 C 130.17 -0.983491 1.67803 0
M  V30 1434 O 129.425 -1.70541 0.959903 0
M  V30 1435 C 129.724 0.649919 3.51441 0
M  V30 1436 C 129.39 2.0656 4.00804 0
M  V30 1437 C 128.052 2.45279 4.13995 0
M  V30 1438 C 130.404 2.98947 4.26943 0
M  V30 1439 C 127.732 3.75653 4.50668 0
M  V30 1440 C 130.084 4.28822 4.65075 0
M  V30 1441 C 128.748 4.67472 4.76472 0
M  V30 1442 H 128.018 0.168833 0.72151 0
M  V30 1443 H 130.665 1.08739 1.57633 0
M  V30 1444 H 128.97 -0.0593018 3.91755 0
M  V30 1445 H 130.667 0.32391 3.9969 0
M  V30 1446 H 127.257 1.75495 3.91024 0
M  V30 1447 H 131.441 2.70265 4.16258 0
M  V30 1448 H 126.697 4.05379 4.57688 0
M  V30 1449 H 130.871 5.0047 4.84255 0
M  V30 1450 H 128.498 5.68539 5.04646 0
M  V30 1451 N 130.073 -1.45103 0.615059 0
M  V30 1452 C 131.006 -2.27717 -0.148408 0
M  V30 1453 C 131.984 -1.37584 -0.866572 0
M  V30 1454 O 133.168 -1.67017 -0.87393 0
M  V30 1455 C 130.295 -3.16136 -1.21557 0
M  V30 1456 C 129.341 -4.22263 -0.599712 0
M  V30 1457 S 130.174 -5.3215 0.598081 0
M  V30 1458 C 131.33 -6.24137 -0.469484 0
M  V30 1459 H 131.563 -2.92121 0.552483 0
M  V30 1460 H 129.096 -1.49054 0.402778 0
M  V30 1461 H 131.054 -3.67633 -1.82638 0
M  V30 1462 H 129.715 -2.50982 -1.88857 0
M  V30 1463 H 128.908 -4.84081 -1.4029 0
M  V30 1464 H 128.51 -3.73945 -0.063876 0
M  V30 1465 H 130.802 -6.63984 -1.34652 0
M  V30 1466 H 131.745 -7.0801 0.112725 0
M  V30 1467 H 132.153 -5.58971 -0.788168 0
M  V30 1468 N 131.551 -0.354651 -1.53558 0
M  V30 1469 C 132.797 0.231422 -2.02079 0
M  V30 1470 C 133.152 1.47308 -1.23767 0
M  V30 1471 O 132.445 1.8891 -0.319947 0
M  V30 1472 C 132.639 0.587121 -3.52545 0
M  V30 1473 C 132.468 -0.618513 -4.45426 0
M  V30 1474 C 131.238 -1.12724 -4.92566 0
M  V30 1475 C 133.436 -1.48039 -4.92533 0
M  V30 1476 N 131.418 -2.29404 -5.69427 0
M  V30 1477 C 132.789 -2.49397 -5.67628 0
M  V30 1478 C 134.844 -1.50454 -4.74624 0
M  V30 1479 C 133.547 -3.53013 -6.26717 0
M  V30 1480 C 135.573 -2.52958 -5.34571 0
M  V30 1481 C 134.935 -3.5304 -6.09543 0
M  V30 1482 H 131.034 0.0476909 -0.780544 0
M  V30 1483 H 133.618 -0.496727 -1.88257 0
M  V30 1484 H 131.789 1.28436 -3.6655 0
M  V30 1485 H 133.521 1.15734 -3.87799 0
M  V30 1486 H 130.276 -0.693577 -4.68494 0
M  V30 1487 H 130.7 -2.88347 -6.12524 0
M  V30 1488 H 135.342 -0.744356 -4.16196 0
M  V30 1489 H 133.06 -4.2992 -6.84247 0
M  V30 1490 H 136.646 -2.55667 -5.22614 0
M  V30 1491 H 135.526 -4.31056 -6.55103 0
M  V30 1492 N 133.029 1.57378 -0.0835403 0
M  V30 1493 C 133.977 2.14602 0.89714 0
M  V30 1494 C 134.971 1.08589 1.30018 0
M  V30 1495 O 136.177 1.26952 1.27606 0
M  V30 1496 H 132.552 0.686346 0.3073 0
M  V30 1497 H 134.523 2.95845 0.38969 0
M  V30 1498 C 133.272 2.73188 2.15089 0
M  V30 1499 H 132.595 3.54442 1.84962 0
M  V30 1500 H 134.035 3.1681 2.81793 0
M  V30 1501 C 132.494 1.68517 2.91725 0
M  V30 1502 O 133.024 1.11718 3.85852 0
M  V30 1503 N 131.23 1.39277 2.55049 0
M  V30 1504 H 130.777 1.85655 1.78577 0
M  V30 1505 H 130.735 0.694791 3.06627 0
M  V30 1506 N 134.507 -0.190092 1.56449 0
M  V30 1507 C 135.455 -1.25501 1.95837 0
M  V30 1508 C 136.449 -1.4685 0.844485 0
M  V30 1509 O 137.655 -1.47651 1.02952 0
M  V30 1510 H 134.03 -0.421447 0.622805 0
M  V30 1511 H 136.001 -0.895821 2.84636 0
M  V30 1512 C 134.75 -2.59124 2.31841 0
M  V30 1513 H 134.073 -2.43514 3.17082 0
M  V30 1514 H 135.513 -3.32371 2.6326 0
M  V30 1515 C 133.972 -3.16488 1.15486 0
M  V30 1516 O 134.502 -3.99365 0.432535 0
M  V30 1517 N 132.708 -2.75305 0.930349 0
M  V30 1518 H 132.255 -2.08013 1.51948 0
M  V30 1519 H 132.213 -3.14024 0.153634 0
M  V30 1520 N 135.985 -1.50799 -0.457987 0
M  V30 1521 C 137.232 -1.62442 -1.20908 0
M  V30 1522 C 137.56 -0.330865 -1.91665 0
M  V30 1523 O 136.815 0.68401 -1.83357 0
M  V30 1524 C 137.114 -2.76358 -2.2663 0
M  V30 1525 C 136.78 -4.16378 -1.73033 0
M  V30 1526 C 135.442 -4.54473 -1.58138 0
M  V30 1527 C 137.794 -5.03836 -1.33413 0
M  V30 1528 C 135.122 -5.77754 -1.02065 0
M  V30 1529 C 137.474 -6.27676 -0.78778 0
M  V30 1530 C 136.138 -6.64562 -0.625561 0
M  V30 1531 H 135.408 -0.594417 -0.442435 0
M  V30 1532 H 138.055 -1.84772 -0.503136 0
M  V30 1533 H 136.36 -2.48167 -3.03184 0
M  V30 1534 H 138.057 -2.82568 -2.84528 0
M  V30 1535 H 134.647 -3.86331 -1.85598 0
M  V30 1536 H 138.831 -4.75026 -1.4375 0
M  V30 1537 H 134.087 -6.04997 -0.882547 0
M  V30 1538 H 138.261 -6.94797 -0.472177 0
M  V30 1539 H 135.888 -7.59965 -0.188926 0
M  V30 1540 N 137.463 0.71206 -1.40597 0
M  V30 1541 C 138.71 1.47197 -1.39065 0
M  V30 1542 C 139.038 1.94499 0.00583891 0
M  V30 1543 O 138.293 1.68752 0.99102 0
M  V30 1544 C 138.592 2.71039 -2.32965 0
M  V30 1545 C 138.258 2.42484 -3.80148 0
M  V30 1546 C 136.92 2.34406 -4.20247 0
M  V30 1547 C 139.272 2.18598 -4.73143 0
M  V30 1548 C 136.6 2.00516 -5.51371 0
M  V30 1549 C 138.952 1.8622 -6.0457 0
M  V30 1550 C 137.616 1.76626 -6.43708 0
M  V30 1551 H 136.886 0.538634 -0.508876 0
M  V30 1552 H 139.533 0.815325 -1.73276 0
M  V30 1553 H 137.838 3.41558 -1.91951 0
M  V30 1554 H 139.535 3.29138 -2.29061 0
M  V30 1555 H 136.125 2.49659 -3.4838 0
M  V30 1556 H 140.309 2.23793 -4.42979 0
M  V30 1557 H 135.565 1.91628 -5.80593 0
M  V30 1558 H 139.739 1.66752 -6.76141 0
M  V30 1559 H 137.366 1.50133 -7.45228 0
M  V30 1560 N 138.941 1.26152 0.944643 0
M  V30 1561 C 139.888 1.07408 2.04285 0
M  V30 1562 C 140.858 -0.0198413 1.66088 0
M  V30 1563 O 142.043 0.139264 1.90291 0
M  V30 1564 C 139.183 0.70945 3.37729 0
M  V30 1565 C 138.296 1.87926 3.88983 0
M  V30 1566 C 137.431 1.45807 5.10797 0
M  V30 1567 C 136.47 2.5964 5.54305 0
M  V30 1568 N 135.607 2.18226 6.67324 0
M  V30 1569 H 140.447 2.01389 2.1965 0
M  V30 1570 H 137.984 1.00275 1.07626 0
M  V30 1571 H 139.942 0.478948 4.14442 0
M  V30 1572 H 138.572 -0.193389 3.2222 0
M  V30 1573 H 137.624 2.22279 3.08701 0
M  V30 1574 H 138.936 2.73377 4.17213 0
M  V30 1575 H 138.09 1.18781 5.94959 0
M  V30 1576 H 136.829 0.574414 4.84305 0
M  V30 1577 H 135.834 2.87399 4.68702 0
M  V30 1578 H 137.059 3.48599 5.828 0
M  V30 1579 H 135.005 1.3229 6.42523 0
M  V30 1580 H 134.922 2.97221 6.95123 0
M  V30 1581 H 136.19 1.94403 7.54869 0
M  V30 1582 N 140.419 -1.14872 1.07899 0
M  V30 1583 C 141.369 -2.17809 0.674027 0
M  V30 1584 C 142.353 -1.58008 -0.303699 0
M  V30 1585 O 143.545 -1.76616 -0.11654 0
M  V30 1586 C 140.674 -3.43208 0.0793318 0
M  V30 1587 C 139.76 -4.10051 1.08253 0
M  V30 1588 N 140.151 -4.52296 2.2641 0
M  V30 1589 C 138.449 -4.36469 0.917124 0
M  V30 1590 C 139.15 -5.04199 2.901 0
M  V30 1591 N 138.126 -4.98088 2.17736 0
M  V30 1592 H 141.928 -2.48207 1.57386 0
M  V30 1593 H 139.442 -1.315 0.952976 0
M  V30 1594 H 141.439 -4.16272 -0.228719 0
M  V30 1595 H 140.099 -3.14291 -0.815551 0
M  V30 1596 H 141.11 -4.45504 2.64096 0
M  V30 1597 H 137.787 -4.17432 0.0756078 0
M  V30 1598 H 139.177 -5.46802 3.90458 0
M  V30 1599 N 141.898 -0.863906 -1.31812 0
M  V30 1600 C 143.147 -0.46801 -1.96195 0
M  V30 1601 C 143.46 0.983474 -1.69077 0
M  V30 1602 O 144.666 1.48523 -2.27273 0
M  V30 1603 C 143.122 -0.785995 -3.51212 0
M  V30 1604 C 142.73 -2.25383 -3.87178 0
M  V30 1605 C 144.474 -0.458274 -4.22019 0
M  V30 1606 C 142.381 -2.51455 -5.3528 0
M  V30 1607 H 141.311 -0.171283 -0.734287 0
M  V30 1608 H 143.962 -1.05597 -1.50072 0
M  V30 1609 H 142.344 -0.127359 -3.95795 0
M  V30 1610 H 143.518 -2.95502 -3.53575 0
M  V30 1611 H 141.833 -2.54698 -3.2942 0
M  V30 1612 H 144.43 -0.630369 -5.30971 0
M  V30 1613 H 144.773 0.600834 -4.11941 0
M  V30 1614 H 145.306 -1.07319 -3.8305 0
M  V30 1615 H 142.045 -3.56025 -5.50387 0
M  V30 1616 H 141.565 -1.85923 -5.70257 0
M  V30 1617 H 143.244 -2.35874 -6.02472 0
M  V30 1618 N 143.376 1.44774 -0.622745 0
M  V30 1619 C 144.653 1.95522 -0.0551974 0
M  V30 1620 C 145.033 1.5649 1.41683 0
M  V30 1621 O 144.381 0.834848 2.12703 0
M  V30 1622 C 144.591 3.4796 -0.269242 0
M  V30 1623 C 145.939 4.24306 -0.158014 0
M  V30 1624 O 146.963 3.55637 -0.200162 0
M  V30 1625 O 145.822 5.46471 -0.0558693 0
M  V30 1626 H 142.916 0.826556 0.0271015 0
M  V30 1627 H 145.462 1.54866 -0.693864 0
M  V30 1628 H 144.234 3.6939 -1.29099 0
M  V30 1629 H 143.857 3.95543 0.403966 0
M  V30 1630 N 144.854 0.36279 1.53368 0
M  V30 1631 C 146.103 -0.22888 2.00397 0
M  V30 1632 C 146.416 -1.50096 1.25421 0
M  V30 1633 O 147.622 -2.17106 1.63025 0
M  V30 1634 C 146.078 -0.458417 3.56969 0
M  V30 1635 C 145.686 0.798877 4.4082 0
M  V30 1636 C 147.43 -1.00789 4.12361 0
M  V30 1637 C 145.337 0.539078 5.88938 0
M  V30 1638 H 144.267 -0.089305 0.748693 0
M  V30 1639 H 146.918 0.481099 1.77081 0
M  V30 1640 H 145.3 -1.22959 3.76427 0
M  V30 1641 H 146.474 1.57262 4.33134 0
M  V30 1642 H 144.789 1.27137 3.96516 0
M  V30 1643 H 147.386 -1.21754 5.20653 0
M  V30 1644 H 147.729 -1.9692 3.66781 0
M  V30 1645 H 148.262 -0.296961 3.9669 0
M  V30 1646 H 145.001 1.47064 6.3879 0
M  V30 1647 H 144.521 -0.196222 5.99479 0
M  V30 1648 H 146.2 0.163542 6.46793 0
M  V30 1649 N 146.332 -1.57332 0.0918853 0
M  V30 1650 C 147.282 -2.10385 -0.87876 0
M  V30 1651 C 148.266 -1.01814 -1.24591 0
M  V30 1652 O 149.458 -1.28093 -1.22152 0
M  V30 1653 C 146.587 -2.68517 -2.13901 0
M  V30 1654 C 145.673 -3.84126 -1.79744 0
M  V30 1655 N 146.064 -4.92288 -1.1613 0
M  V30 1656 C 144.362 -3.93801 -2.09373 0
M  V30 1657 C 145.063 -5.7295 -1.00513 0
M  V30 1658 N 144.039 -5.21876 -1.5214 0
M  V30 1659 H 147.841 -2.91395 -0.38293 0
M  V30 1660 H 145.355 -1.62017 -0.111423 0
M  V30 1661 H 147.352 -3.04852 -2.84378 0
M  V30 1662 H 146.012 -1.88961 -2.64053 0
M  V30 1663 H 147.023 -5.1123 -0.828504 0
M  V30 1664 H 143.7 -3.25249 -2.61762 0
M  V30 1665 H 145.09 -6.69978 -0.507902 0
M  V30 1666 N 147.81 0.181792 -1.56548 0
M  V30 1667 C 149.221 0.745244 -1.71181 0
M  V30 1668 C 149.572 1.83262 -0.70068 0
M  V30 1669 O 148.697 2.15946 0.140154 0
M  V30 1670 C 149.292 1.35859 -3.10367 0
M  V30 1671 C 147.851 1.86898 -3.2672 0
M  V30 1672 C 146.998 0.743942 -2.67134 0
M  V30 1673 H 149.949 -0.0434661 -1.5864 0
M  V30 1674 H 149.97 2.22817 -3.08436 0
M  V30 1675 H 149.482 0.566948 -3.83937 0
M  V30 1676 H 147.583 2.68738 -2.5809 0
M  V30 1677 H 147.696 2.02162 -4.34359 0
M  V30 1678 H 146.06 1.16169 -2.26665 0
M  V30 1679 H 146.843 -0.035676 -3.43281 0
M  V30 1680 N 149.288 1.51039 0.449983 0
M  V30 1681 C 150.198 1.74261 1.57067 0
M  V30 1682 C 151.214 0.626363 1.62335 0
M  V30 1683 O 152.39 0.907162 1.79812 0
M  V30 1684 C 149.455 1.85114 2.93144 0
M  V30 1685 C 148.516 3.0893 2.98095 0
M  V30 1686 C 147.749 3.19256 4.27681 0
M  V30 1687 O 147.972 2.35835 5.19363 0
M  V30 1688 O 146.906 4.12144 4.38658 0
M  V30 1689 H 150.732 2.69303 1.40391 0
M  V30 1690 H 148.317 1.35389 0.631688 0
M  V30 1691 H 150.199 1.94311 3.73926 0
M  V30 1692 H 148.874 0.932588 3.09975 0
M  V30 1693 H 147.781 3.0522 2.16314 0
M  V30 1694 H 149.114 4.00433 2.86206 0
M  V30 1695 N 150.766 -0.704594 1.40972 0
M  V30 1696 C 151.714 -1.83994 1.42299 0
M  V30 1697 C 152.708 -1.66684 0.302111 0
M  V30 1698 O 153.914 -1.73655 0.473697 0
M  V30 1699 H 150.289 -0.606171 0.44504 0
M  V30 1700 H 152.26 -1.79992 2.38003 0
M  V30 1701 C 151.009 -3.21946 1.31323 0
M  V30 1702 H 150.332 -3.35878 2.16855 0
M  V30 1703 H 151.772 -4.01491 1.36311 0
M  V30 1704 C 150.231 -3.36891 0.0245977 0
M  V30 1705 O 150.761 -3.90687 -0.934153 0
M  V30 1706 N 148.967 -2.90559 -0.0485243 0
M  V30 1707 H 148.514 -2.46968 0.732419 0
M  V30 1708 H 148.472 -3.00937 -0.910171 0
M  V30 1709 N 152.244 -1.26651 -0.937939 0
M  V30 1710 C 153.472 -1.15173 -1.7188 0
M  V30 1711 C 153.887 0.292668 -1.86518 0
M  V30 1712 O 153.244 1.20014 -1.37488 0
M  V30 1713 C 153.295 -1.81925 -3.12387 0
M  V30 1714 O 153.016 -3.2072 -2.98446 0
M  V30 1715 C 154.517 -1.76442 -4.06673 0
M  V30 1716 H 151.737 -0.400911 -0.538063 0
M  V30 1717 H 154.281 -1.67332 -1.1756 0
M  V30 1718 H 152.436 -1.33696 -3.63599 0
M  V30 1719 H 152.85 -3.53802 -3.872 0
M  V30 1720 H 154.324 -2.27781 -5.02812 0
M  V30 1721 H 154.801 -0.731608 -4.33064 0
M  V30 1722 H 155.407 -2.24238 -3.61382 0
M  V30 1723 N 153.722 1.14298 -1.08507 0
M  V30 1724 C 154.672 2.17449 -0.685569 0
M  V30 1725 C 155.656 1.58167 0.295315 0
M  V30 1726 O 156.848 1.76675 0.107172 0
M  V30 1727 C 153.977 3.43161 -0.0975318 0
M  V30 1728 C 153.063 4.09471 -1.10426 0
M  V30 1729 N 153.454 4.51089 -2.28806 0
M  V30 1730 C 151.752 4.35976 -0.940258 0
M  V30 1731 C 152.453 5.02654 -2.9277 0
M  V30 1732 N 151.429 4.96927 -2.20374 0
M  V30 1733 H 155.231 2.47369 -1.587 0
M  V30 1734 H 152.745 1.30992 -0.959936 0
M  V30 1735 H 154.742 4.16388 0.20664 0
M  V30 1736 H 153.402 3.14719 0.798872 0
M  V30 1737 H 154.413 4.44097 -2.66455 0
M  V30 1738 H 151.09 4.17386 -0.0977441 0
M  V30 1739 H 152.48 5.44723 -3.93352 0
M  V30 1740 N 155.201 0.870884 1.31352 0
M  V30 1741 C 156.45 0.478408 1.95944 0
M  V30 1742 C 156.763 -0.974493 1.69597 0
M  V30 1743 O 157.969 -1.47316 2.28058 0
M  V30 1744 C 156.425 0.804609 3.50791 0
M  V30 1745 C 156.033 2.27433 3.85977 0
M  V30 1746 C 157.777 0.480648 4.2177 0
M  V30 1747 C 155.684 2.5429 5.33939 0
M  V30 1748 H 154.614 0.175175 0.733369 0
M  V30 1749 H 157.265 1.06391 1.4951 0
M  V30 1750 H 155.647 0.148347 3.95722 0
M  V30 1751 H 156.821 2.97373 3.52002 0
M  V30 1752 H 155.136 2.56442 3.28065 0
M  V30 1753 H 157.733 0.658519 5.30629 0
M  V30 1754 H 158.076 -0.578979 4.12254 0
M  V30 1755 H 158.609 1.09349 3.82476 0
M  V30 1756 H 155.348 3.58939 5.48491 0
M  V30 1757 H 154.868 1.88945 5.69263 0
M  V30 1758 H 156.547 2.39066 6.01212 0
M  V30 1759 N 156.679 -1.44442 0.630414 0
M  V30 1760 C 157.609 -2.33418 -0.0618083 0
M  V30 1761 C 158.59 -1.48165 -0.835541 0
M  V30 1762 O 159.775 -1.76886 -0.801564 0
M  V30 1763 C 156.905 -3.31222 -1.04449 0
M  V30 1764 C 155.859 -4.26288 -0.382436 0
M  V30 1765 C 155.185 -5.13954 -1.47497 0
M  V30 1766 C 156.485 -5.1744 0.710865 0
M  V30 1767 H 158.179 -2.91548 0.681184 0
M  V30 1768 H 155.725 -1.40191 0.329026 0
M  V30 1769 H 157.678 -3.92351 -1.53748 0
M  V30 1770 H 156.402 -2.71299 -1.81836 0
M  V30 1771 H 155.061 -3.6649 0.0899054 0
M  V30 1772 H 154.709 -4.50385 -2.2397 0
M  V30 1773 H 154.409 -5.7837 -1.03737 0
M  V30 1774 H 155.933 -5.77955 -1.96979 0
M  V30 1775 H 157.347 -5.72509 0.300996 0
M  V30 1776 H 155.744 -5.90455 1.07156 0
M  V30 1777 H 156.814 -4.58496 1.57829 0
M  V30 1778 N 158.157 -0.370918 -1.53173 0
M  V30 1779 C 159.434 0.273754 -1.93675 0
M  V30 1780 C 159.814 1.65938 -1.3049 0
M  V30 1781 O 159.162 2.23698 -0.465999 0
M  V30 1782 C 159.372 0.318602 -3.47543 0
M  V30 1783 C 160.72 0.556392 -4.20939 0
M  V30 1784 O 161.744 0.399587 -3.53952 0
M  V30 1785 O 160.603 0.862133 -5.39657 0
M  V30 1786 H 157.697 0.165448 -0.810281 0
M  V30 1787 H 160.243 -0.42409 -1.64315 0
M  V30 1788 H 159.015 -0.652687 -3.85818 0
M  V30 1789 H 158.638 1.06212 -3.83151 0
M  V30 1790 N 159.635 1.57281 -0.100228 0
M  V30 1791 C 160.883 1.94153 0.561157 0
M  V30 1792 C 161.204 0.983157 1.68401 0
M  V30 1793 O 160.474 0.0361132 1.95867 0
M  V30 1794 H 159.054 0.716791 0.210283 0
M  V30 1795 H 161.716 1.94202 -0.164765 0
M  V30 1796 H 160.812 2.96709 0.968008 0
M  V30 1797 N 161.113 -0.173488 1.56642 0
M  V30 1798 C 162.061 -1.23417 1.97157 0
M  V30 1799 C 163.055 -1.45946 0.860013 0
M  V30 1800 O 164.261 -1.46551 1.04512 0
M  V30 1801 H 160.636 -0.414818 0.62724 0
M  V30 1802 H 162.607 -0.865582 2.8557 0
M  V30 1803 C 161.356 -2.5665 2.34576 0
M  V30 1804 H 160.679 -2.40137 3.19647 0
M  V30 1805 H 162.119 -3.2956 2.6677 0
M  V30 1806 C 160.578 -3.15245 1.18836 0
M  V30 1807 O 161.108 -3.98883 0.474869 0
M  V30 1808 N 159.314 -2.74303 0.959497 0
M  V30 1809 H 158.861 -2.0639 1.54146 0
M  V30 1810 H 158.819 -3.13844 0.186932 0
M  V30 1811 N 162.591 -1.51276 -0.441967 0
M  V30 1812 C 163.554 -1.7167 -1.51862 0
M  V30 1813 C 164.554 -0.586793 -1.49711 0
M  V30 1814 O 165.744 -0.854276 -1.51815 0
M  V30 1815 C 162.876 -1.76889 -2.91416 0
M  V30 1816 H 164.069 -2.67754 -1.35084 0
M  V30 1817 H 161.622 -1.41196 -0.670333 0
M  V30 1818 H 162.357 -0.826026 -3.13604 0
M  V30 1819 H 162.142 -2.59001 -2.94382 0
M  V30 1820 H 163.632 -1.94522 -3.69528 0
M  V30 1821 N 164.069 0.697108 -1.41344 0
M  V30 1822 C 165.315 1.4593 -1.40827 0
M  V30 1823 C 165.648 1.94193 -0.0167098 0
M  V30 1824 O 164.923 1.69425 0.955263 0
M  V30 1825 C 165.206 2.67229 -2.41373 0
M  V30 1826 C 165.059 2.24741 -3.8963 0
M  V30 1827 C 166.378 3.69423 -2.39196 0
M  V30 1828 H 163.497 0.529303 -0.512842 0
M  V30 1829 H 166.139 0.794112 -1.72609 0
M  V30 1830 H 164.289 3.23982 -2.14401 0
M  V30 1831 H 165.961 1.73327 -4.27499 0
M  V30 1832 H 164.204 1.56542 -4.0457 0
M  V30 1833 H 164.875 3.1177 -4.55525 0
M  V30 1834 H 167.351 3.2234 -2.63128 0
M  V30 1835 H 166.227 4.51907 -3.11563 0
M  V30 1836 H 166.488 4.19012 -1.41001 0
M  V30 1837 N 165.547 1.27147 0.931209 0
M  V30 1838 C 166.824 1.0401 1.65654 0
M  V30 1839 C 167.204 -0.426297 2.06751 0
M  V30 1840 O 166.552 -1.40879 1.79904 0
M  V30 1841 C 166.762 1.99834 2.86125 0
M  V30 1842 C 168.11 2.29007 3.57549 0
M  V30 1843 O 169.134 1.97779 2.96246 0
M  V30 1844 O 167.993 2.82222 4.67989 0
M  V30 1845 H 165.087 0.396239 0.725895 0
M  V30 1846 H 167.633 1.38397 0.982056 0
M  V30 1847 H 166.405 2.98744 2.52721 0
M  V30 1848 H 166.028 1.65987 3.61295 0
M  V30 1849 N 167.025 -1.13721 1.09112 0
M  V30 1850 C 167.955 -2.21148 0.749385 0
M  V30 1851 C 168.936 -1.6792 -0.271475 0
M  V30 1852 O 170.121 -1.93693 -0.140251 0
M  V30 1853 C 167.251 -3.46905 0.165659 0
M  V30 1854 C 166.205 -4.13203 1.11567 0
M  V30 1855 C 165.531 -5.33248 0.393809 0
M  V30 1856 C 166.831 -4.60912 2.45678 0
M  V30 1857 H 168.525 -2.4999 1.64758 0
M  V30 1858 H 166.071 -1.20156 0.793626 0
M  V30 1859 H 168.024 -4.21313 -0.085466 0
M  V30 1860 H 166.748 -3.17449 -0.767714 0
M  V30 1861 H 165.407 -3.40758 1.35202 0
M  V30 1862 H 165.055 -5.00054 -0.543599 0
M  V30 1863 H 164.755 -5.78552 1.02721 0
M  V30 1864 H 166.279 -6.10413 0.150908 0
M  V30 1865 H 167.693 -5.26759 2.26269 0
M  V30 1866 H 166.09 -5.16944 3.04776 0
M  V30 1867 H 167.16 -3.75603 3.06677 0
M  V30 1868 N 168.503 -0.877838 -1.30888 0
M  V30 1869 C 169.435 -0.296607 -2.27273 0
M  V30 1870 C 170.448 0.544799 -1.53414 0
M  V30 1871 O 171.637 0.365511 -1.74718 0
M  V30 1872 C 168.737 0.597481 -3.33592 0
M  V30 1873 C 167.91 -0.213251 -4.3688 0
M  V30 1874 C 166.969 0.610208 -5.2265 0
M  V30 1875 O 165.995 0.035441 -5.69189 0
M  V30 1876 N 167.197 1.92071 -5.47804 0
M  V30 1877 H 169.962 -1.12492 -2.77787 0
M  V30 1878 H 167.523 -0.740105 -1.43993 0
M  V30 1879 H 169.515 1.15425 -3.87891 0
M  V30 1880 H 168.085 1.32647 -2.83061 0
M  V30 1881 H 167.305 -0.951466 -3.82545 0
M  V30 1882 H 168.593 -0.769262 -5.02951 0
M  V30 1883 H 167.991 2.4107 -5.11763 0
M  V30 1884 H 166.548 2.42508 -6.05007 0
M  V30 1885 N 169.982 1.44106 -0.638065 0
M  V30 1886 C 170.945 2.29138 0.0531013 0
M  V30 1887 C 171.945 1.41409 0.765506 0
M  V30 1888 O 173.135 1.63206 0.609046 0
M  V30 1889 C 170.267 3.23144 1.08584 0
M  V30 1890 H 171.46 2.91739 -0.694883 0
M  V30 1891 H 169.013 1.51134 -0.398538 0
M  V30 1892 H 169.748 2.65408 1.86357 0
M  V30 1893 H 169.533 3.87804 0.578852 0
M  V30 1894 H 171.023 3.87004 1.56899 0
M  V30 1895 N 171.46 0.379036 1.52974 0
M  V30 1896 C 172.37 -0.468639 2.29872 0
M  V30 1897 C 173.386 -1.08067 1.36373 0
M  V30 1898 O 174.562 -1.08871 1.69438 0
M  V30 1899 C 171.627 -1.58594 3.083 0
M  V30 1900 C 170.688 -1.00007 4.17489 0
M  V30 1901 C 169.921 -2.06413 4.92168 0
M  V30 1902 O 170.144 -3.27751 4.66835 0
M  V30 1903 O 169.078 -1.68717 5.7777 0
M  V30 1904 H 172.904 0.157508 3.03291 0
M  V30 1905 H 170.489 0.143035 1.48714 0
M  V30 1906 H 172.371 -2.23525 3.57232 0
M  V30 1907 H 171.046 -2.19724 2.37703 0
M  V30 1908 H 169.953 -0.314299 3.72777 0
M  V30 1909 H 171.286 -0.433135 4.90291 0
M  V30 1910 N 172.938 -1.57226 0.108567 0
M  V30 1911 C 174.178 -1.96717 -0.555155 0
M  V30 1912 C 174.542 -0.990003 -1.64508 0
M  V30 1913 O 175.743 -1.2739 -2.36696 0
M  V30 1914 C 174.014 -3.40575 -1.08367 0
M  V30 1915 S 175.573 -4.02072 -1.75737 0
M  V30 1916 H 172.391 -0.687638 -0.180762 0
M  V30 1917 H 174.993 -1.94563 0.191172 0
M  V30 1918 H 173.697 -4.0945 -0.279092 0
M  V30 1919 H 173.228 -3.46356 -1.86551 0
M  V30 1920 H 175.243 -3.91977 -3.04251 0
M  V30 1921 N 174.416 0.165178 -1.56732 0
M  V30 1922 C 175.693 0.908443 -1.73224 0
M  V30 1923 C 176.073 2.0013 -0.67165 0
M  V30 1924 O 175.421 2.26353 0.31253 0
M  V30 1925 C 175.631 1.46756 -3.16644 0
M  V30 1926 C 176.979 1.93809 -3.77787 0
M  V30 1927 O 178.003 1.56537 -3.1996 0
M  V30 1928 O 176.862 2.62486 -4.79336 0
M  V30 1929 H 173.956 0.428025 -0.707618 0
M  V30 1930 H 176.502 0.152526 -1.69013 0
M  V30 1931 H 175.274 0.68129 -3.85323 0
M  V30 1932 H 174.897 2.28749 -3.25207 0
M  V30 1933 N 175.894 1.51508 0.433938 0
M  V30 1934 C 176.857 1.72473 1.50949 0
M  V30 1935 C 177.857 0.594725 1.49398 0
M  V30 1936 O 179.047 0.862315 1.5136 0
M  V30 1937 C 176.179 1.78431 2.90474 0
M  V30 1938 H 177.372 2.68467 1.33662 0
M  V30 1939 H 174.925 1.41549 0.662836 0
M  V30 1940 H 175.66 0.842645 3.13161 0
M  V30 1941 H 175.445 2.60558 2.93005 0
M  V30 1942 H 176.935 1.96479 3.68491 0
M  V30 1943 N 177.372 -0.689602 1.41712 0
M  V30 1944 C 178.619 -1.44966 1.4139 0
M  V30 1945 C 178.947 -1.94484 0.025105 0
M  V30 1946 O 178.202 -1.70307 -0.964048 0
M  V30 1947 C 178.501 -2.67298 2.37247 0
M  V30 1948 C 178.167 -2.36405 3.83958 0
M  V30 1949 C 176.829 -2.27691 4.23923 0
M  V30 1950 C 179.181 -2.11043 4.76561 0
M  V30 1951 C 176.509 -1.91719 5.54492 0
M  V30 1952 C 178.861 -1.76578 6.07456 0
M  V30 1953 C 177.525 -1.66363 6.46436 0
M  V30 1954 H 176.795 -0.53047 0.517381 0
M  V30 1955 H 179.442 -0.787655 1.74552 0
M  V30 1956 H 177.747 -3.38461 1.9736 0
M  V30 1957 H 179.444 -3.25452 2.34269 0
M  V30 1958 H 176.034 -2.44085 3.52308 0
M  V30 1959 H 180.218 -2.16717 4.46483 0
M  V30 1960 H 175.474 -1.82367 5.83568 0
M  V30 1961 H 179.648 -1.55974 6.78708 0
M  V30 1962 H 177.275 -1.38258 7.47522 0
M  V30 1963 N 178.85 -1.27639 -0.924453 0
M  V30 1964 C 179.76 -1.12466 -2.05885 0
M  V30 1965 C 180.776 -0.053869 -1.73917 0
M  V30 1966 O 181.952 -0.261012 -1.99702 0
M  V30 1967 C 179.017 -0.776768 -3.37886 0
M  V30 1968 C 178.078 -1.92878 -3.83532 0
M  V30 1969 C 177.311 -1.59739 -5.09234 0
M  V30 1970 O 177.534 -0.506782 -5.68144 0
M  V30 1971 O 176.468 -2.43761 -5.50331 0
M  V30 1972 H 180.294 -2.07671 -2.21599 0
M  V30 1973 H 177.879 -1.06857 -1.04413 0
M  V30 1974 H 179.761 -0.596229 -4.17161 0
M  V30 1975 H 178.436 0.145732 -3.23372 0
M  V30 1976 H 177.343 -2.1644 -3.0513 0
M  V30 1977 H 178.676 -2.8316 -4.02593 0
M  V30 1978 N 180.328 1.1314 -1.09713 0
M  V30 1979 C 181.238 2.22242 -0.751367 0
M  V30 1980 C 182.254 1.72224 0.247938 0
M  V30 1981 O 183.43 2.01205 0.0885463 0
M  V30 1982 C 180.495 3.46231 -0.180274 0
M  V30 1983 C 179.556 4.11125 -1.2359 0
M  V30 1984 C 178.789 5.29195 -0.691966 0
M  V30 1985 O 179.012 5.68342 0.48414 0
M  V30 1986 O 177.946 5.84214 -1.44838 0
M  V30 1987 H 181.772 2.54197 -1.66186 0
M  V30 1988 H 179.357 1.21331 -0.871735 0
M  V30 1989 H 181.239 4.21185 0.134739 0
M  V30 1990 H 179.914 3.1597 0.703185 0
M  V30 1991 H 178.821 3.37985 -1.60366 0
M  V30 1992 H 180.154 4.45524 -2.09211 0
M  V30 1993 N 181.806 0.884767 1.30421 0
M  V30 1994 C 182.753 0.349642 2.28136 0
M  V30 1995 C 183.723 -0.560061 1.56373 0
M  V30 1996 O 184.908 -0.488524 1.8444 0
M  V30 1997 C 182.048 -0.42999 3.42411 0
M  V30 1998 C 181.161 0.508907 4.28992 0
M  V30 1999 C 180.296 -0.286301 5.30428 0
M  V30 2000 C 179.335 0.648079 6.08659 0
M  V30 2001 N 178.472 -0.111792 7.02011 0
M  V30 2002 H 183.312 1.18807 2.73293 0
M  V30 2003 H 180.849 0.597231 1.3443 0
M  V30 2004 H 182.807 -0.897923 4.07423 0
M  V30 2005 H 181.437 -1.23299 2.98324 0
M  V30 2006 H 180.489 1.09533 3.64289 0
M  V30 2007 H 181.801 1.22475 4.8353 0
M  V30 2008 H 180.955 -0.816098 6.01186 0
M  V30 2009 H 179.694 -1.03536 4.76583 0
M  V30 2010 H 178.699 1.18951 5.36778 0
M  V30 2011 H 179.924 1.39623 6.64592 0
M  V30 2012 H 177.87 -0.843395 6.50556 0
M  V30 2013 H 177.787 0.544429 7.54037 0
M  V30 2014 H 179.055 -0.622339 7.77012 0
M  V30 2015 N 183.284 -1.43765 0.645699 0
M  V30 2016 C 184.533 -2.01116 0.153412 0
M  V30 2017 C 184.846 -1.51493 -1.23731 0
M  V30 2018 O 186.052 -2.01067 -1.8244 0
M  V30 2019 C 184.508 -3.59206 0.223473 0
M  V30 2020 C 184.116 -4.17823 1.61642 0
M  V30 2021 C 185.86 -4.23972 -0.211597 0
M  V30 2022 C 183.767 -5.68183 1.64081 0
M  V30 2023 H 182.697 -0.752093 0.0535891 0
M  V30 2024 H 185.348 -1.6482 0.806633 0
M  V30 2025 H 183.73 -3.92867 -0.497118 0
M  V30 2026 H 184.904 -3.95674 2.36176 0
M  V30 2027 H 183.219 -3.65399 1.99681 0
M  V30 2028 H 185.816 -5.34275 -0.213112 0
M  V30 2029 H 186.159 -3.97352 -1.24165 0
M  V30 2030 H 186.692 -3.95166 0.456988 0
M  V30 2031 H 183.431 -5.99559 2.64971 0
M  V30 2032 H 182.951 -5.9241 0.938611 0
M  V30 2033 H 184.63 -6.32085 1.3812 0
M  V30 2034 N 184.763 -0.387143 -1.52771 0
M  V30 2035 C 185.71 0.449048 -2.26389 0
M  V30 2036 C 186.68 1.05961 -1.27912 0
M  V30 2037 O 187.865 1.08804 -1.56737 0
M  V30 2038 C 185.005 1.57155 -3.0724 0
M  V30 2039 C 184.118 0.984066 -4.20643 0
M  V30 2040 C 183.253 2.07745 -4.88892 0
M  V30 2041 C 182.292 1.46574 -5.94292 0
M  V30 2042 N 181.429 2.49834 -6.56146 0
M  V30 2043 H 186.269 -0.185205 -2.97424 0
M  V30 2044 H 183.806 -0.103164 -1.46738 0
M  V30 2045 H 185.764 2.23309 -3.52405 0
M  V30 2046 H 184.394 2.17615 -2.38419 0
M  V30 2047 H 183.446 0.212193 -3.79808 0
M  V30 2048 H 184.758 0.497029 -4.96318 0
M  V30 2049 H 183.912 2.81673 -5.3735 0
M  V30 2050 H 182.651 2.59807 -4.12737 0
M  V30 2051 H 181.656 0.711696 -5.45174 0
M  V30 2052 H 182.881 0.953088 -6.72379 0
M  V30 2053 H 180.827 3.0107 -5.82832 0
M  V30 2054 H 180.744 2.05879 -7.27427 0
M  V30 2055 H 182.012 3.23399 -7.09249 0
M  V30 2056 N 186.241 1.57166 -0.116904 0
M  V30 2057 C 187.204 2.14039 0.819742 0
M  V30 2058 C 188.204 1.07477 1.19605 0
M  V30 2059 O 189.394 1.33263 1.1219 0
M  V30 2060 C 186.526 2.67891 2.10826 0
M  V30 2061 H 187.719 2.98128 0.325511 0
M  V30 2062 H 185.272 1.55739 0.132312 0
M  V30 2063 H 186.007 1.87384 2.64685 0
M  V30 2064 H 185.792 3.45823 1.84793 0
M  V30 2065 H 187.282 3.11809 2.77785 0
M  V30 2066 N 187.719 -0.156864 1.56817 0
M  V30 2067 C 188.682 -1.17781 1.96622 0
M  V30 2068 C 189.682 -1.36401 0.851555 0
M  V30 2069 O 190.872 -1.33561 1.11836 0
M  V30 2070 C 188.004 -2.54008 2.27361 0
M  V30 2071 H 189.197 -0.836564 2.87996 0
M  V30 2072 H 186.75 -0.39985 1.51099 0
M  V30 2073 H 187.485 -2.9312 1.38748 0
M  V30 2074 H 187.27 -2.41856 3.08623 0
M  V30 2075 H 188.76 -3.27558 2.59029 0
M  V30 2076 N 189.197 -1.51736 -0.425897 0
M  V30 2077 C 190.445 -1.64644 -1.17204 0
M  V30 2078 C 190.766 -0.370486 -1.91448 0
M  V30 2079 O 190.036 0.614088 -1.86026 0
M  V30 2080 H 188.616 -0.606819 -0.435638 0
M  V30 2081 H 191.278 -1.88713 -0.487177 0
M  V30 2082 H 190.374 -2.47958 -1.89534 0
M  V30 2083 N 190.675 0.682077 -1.42076 0
M  V30 2084 C 191.923 1.4393 -1.41876 0
M  V30 2085 C 192.244 1.94971 -0.0335599 0
M  V30 2086 O 191.514 1.72591 0.926773 0
M  V30 2087 H 190.094 0.534085 -0.522267 0
M  V30 2088 H 192.756 0.806427 -1.77434 0
M  V30 2089 H 191.852 2.29588 -2.11414 0
M  V30 2090 N 192.153 1.28127 0.917671 0
M  V30 2091 C 193.402 1.14432 1.66097 0
M  V30 2092 C 193.715 -0.307247 1.93172 0
M  V30 2093 O 194.921 -0.565259 2.65551 0
M  V30 2094 C 193.377 2.00015 2.99202 0
M  V30 2095 C 192.985 3.49889 2.79789 0
M  V30 2096 C 194.729 1.94996 3.77064 0
M  V30 2097 C 192.636 4.27636 4.08511 0
M  V30 2098 H 191.566 0.424662 0.62304 0
M  V30 2099 H 194.217 1.52628 1.01868 0
M  V30 2100 H 192.599 1.54672 3.64544 0
M  V30 2101 H 193.773 4.03162 2.23152 0
M  V30 2102 H 192.088 3.56392 2.15345 0
M  V30 2103 H 194.685 2.50354 4.72469 0
M  V30 2104 H 195.028 0.925819 4.05875 0
M  V30 2105 H 195.561 2.38287 3.18534 0
M  V30 2106 H 192.3 5.30615 3.84874 0
M  V30 2107 H 191.82 3.79137 4.64774 0
M  V30 2108 H 193.499 4.37346 4.76799 0
M  V30 2109 N 193.631 -1.12557 1.10312 0
M  V30 2110 C 194.541 -2.21841 0.763142 0
M  V30 2111 C 195.557 -1.72354 -0.238801 0
M  V30 2112 O 196.733 -2.01249 -0.0778746 0
M  V30 2113 C 193.798 -3.46131 0.198632 0
M  V30 2114 C 192.859 -4.10464 1.25769 0
M  V30 2115 C 192.092 -5.28821 0.72002 0
M  V30 2116 O 192.315 -5.6859 -0.453993 0
M  V30 2117 O 191.249 -5.83437 1.47935 0
M  V30 2118 H 195.075 -2.53312 1.67532 0
M  V30 2119 H 192.66 -1.20867 0.878157 0
M  V30 2120 H 194.542 -4.2125 -0.112401 0
M  V30 2121 H 193.217 -3.16338 -0.686419 0
M  V30 2122 H 192.124 -3.3713 1.62156 0
M  V30 2123 H 193.457 -4.44408 2.11571 0
M  V30 2124 N 195.109 -0.891671 -1.2995 0
M  V30 2125 C 196.039 -0.379797 -2.30391 0
M  V30 2126 C 197.02 0.540919 -1.6127 0
M  V30 2127 O 198.205 0.453352 -1.88834 0
M  V30 2128 C 195.335 0.400654 -3.44981 0
M  V30 2129 C 194.289 -0.428905 -4.25846 0
M  V30 2130 C 193.615 0.478557 -5.32554 0
M  V30 2131 C 194.915 -1.67458 -4.94727 0
M  V30 2132 H 196.609 -1.21914 -2.73454 0
M  V30 2133 H 194.155 -0.587675 -1.31462 0
M  V30 2134 H 196.108 0.769434 -4.14316 0
M  V30 2135 H 194.832 1.27371 -3.0074 0
M  V30 2136 H 193.491 -0.779911 -3.58208 0
M  V30 2137 H 193.139 1.34951 -4.84559 0
M  V30 2138 H 192.839 -0.0727433 -5.87555 0
M  V30 2139 H 194.363 0.843705 -6.04743 0
M  V30 2140 H 195.777 -1.376 -5.56542 0
M  V30 2141 H 194.174 -2.16659 -5.59624 0
M  V30 2142 H 195.244 -2.41518 -4.20473 0
M  V30 2143 N 196.587 1.43421 -0.653314 0
M  V30 2144 C 197.834 2.01812 -0.166745 0
M  V30 2145 C 198.162 1.51535 1.21931 0
M  V30 2146 O 197.417 0.698975 1.82792 0
M  V30 2147 C 197.716 3.57176 -0.126623 0
M  V30 2148 C 197.382 4.26798 -1.45444 0
M  V30 2149 C 196.044 4.45534 -1.81805 0
M  V30 2150 C 198.396 4.66225 -2.32989 0
M  V30 2151 C 195.724 5.00961 -3.05377 0
M  V30 2152 C 198.076 5.23021 -3.55853 0
M  V30 2153 C 196.74 5.39973 -3.9241 0
M  V30 2154 H 196.01 0.738484 -0.0610162 0
M  V30 2155 H 198.657 1.71896 -0.84404 0
M  V30 2156 H 196.962 3.86634 0.634123 0
M  V30 2157 H 198.659 4.00112 0.266723 0
M  V30 2158 H 195.249 4.12561 -1.16153 0
M  V30 2159 H 199.433 4.51443 -2.06187 0
M  V30 2160 H 194.689 5.12271 -3.3375 0
M  V30 2161 H 198.863 5.52518 -4.23907 0
M  V30 2162 H 196.49 5.82687 -4.88242 0
M  V30 2163 N 198.065 0.39524 1.52563 0
M  V30 2164 C 199.311 -0.185318 2.01952 0
M  V30 2165 C 199.644 -1.45964 1.28095 0
M  V30 2166 O 198.919 -1.90689 0.38315 0
M  V30 2167 C 199.202 -0.447193 3.57312 0
M  V30 2168 C 199.055 0.842828 4.41833 0
M  V30 2169 C 200.374 -1.23529 4.22408 0
M  V30 2170 H 197.493 -0.0658788 0.73405 0
M  V30 2171 H 200.135 0.525975 1.82575 0
M  V30 2172 H 198.285 -1.05312 3.73954 0
M  V30 2173 H 199.957 1.4795 4.36931 0
M  V30 2174 H 198.2 1.45686 4.08605 0
M  V30 2175 H 198.871 0.614165 5.48573 0
M  V30 2176 H 201.347 -0.722445 4.0978 0
M  V30 2177 H 200.223 -1.38727 5.3108 0
M  V30 2178 H 200.484 -2.25213 3.80436 0
M  V30 2179 N 199.544 -1.57102 0.125237 0
M  V30 2180 C 200.792 -1.95021 -0.530198 0
M  V30 2181 C 201.113 -1.00982 -1.66816 0
M  V30 2182 O 200.383 -0.0672693 -1.95784 0
M  V30 2183 H 198.963 -0.720046 -0.198853 0
M  V30 2184 H 201.625 -1.93916 0.19564 0
M  V30 2185 H 200.721 -2.98211 -0.920681 0
M  V30 2186 N 201.022 0.148545 -1.56898 0
M  V30 2187 C 202.27 0.859717 -1.82902 0
M  V30 2188 C 202.591 1.81775 -0.70588 0
M  V30 2189 O 201.861 1.93994 0.272586 0
M  V30 2190 H 200.441 0.320469 -0.674766 0
M  V30 2191 H 203.103 0.142918 -1.94375 0
M  V30 2192 H 202.199 1.4229 -2.77777 0
M  V30 2193 N 202.5 1.5196 0.417844 0
M  V30 2194 C 203.749 1.6482 1.16264 0
M  V30 2195 C 204.062 0.379886 1.91876 0
M  V30 2196 O 205.268 0.388154 2.68711 0
M  V30 2197 C 203.724 2.91161 2.1155 0
M  V30 2198 C 203.332 4.25068 1.41495 0
M  V30 2199 C 205.076 3.13383 2.86341 0
M  V30 2200 C 202.983 5.42541 2.35379 0
M  V30 2201 H 201.913 0.613954 0.437694 0
M  V30 2202 H 204.564 1.78442 0.427871 0
M  V30 2203 H 202.946 2.71218 2.88543 0
M  V30 2204 H 204.12 4.55463 0.699263 0
M  V30 2205 H 202.435 4.0888 0.787792 0
M  V30 2206 H 205.032 3.98324 3.5671 0
M  V30 2207 H 205.375 2.27256 3.48798 0
M  V30 2208 H 205.908 3.33757 2.1645 0
M  V30 2209 H 202.647 6.30987 1.77582 0
M  V30 2210 H 202.167 5.16497 3.04945 0
M  V30 2211 H 203.846 5.75272 2.96093 0
M  V30 2212 N 203.978 -0.674533 1.42435 0
M  V30 2213 C 205.226 -1.43175 1.42637 0
M  V30 2214 C 205.547 -1.94951 0.0438992 0
M  V30 2215 O 204.817 -1.7308 -0.917607 0
M  V30 2216 H 203.397 -0.531307 0.525092 0
M  V30 2217 H 206.059 -0.797006 1.77859 0
M  V30 2218 H 205.155 -2.28463 2.12629 0
M  V30 2219 N 205.456 -1.28612 -0.910864 0
M  V30 2220 C 206.867 -1.14406 -1.47541 0
M  V30 2221 C 207.218 0.264901 -1.94403 0
M  V30 2222 O 206.343 1.15942 -1.82719 0
M  V30 2223 C 206.938 -2.07073 -2.68153 0
M  V30 2224 C 205.497 -1.96923 -3.20778 0
M  V30 2225 C 204.644 -1.98646 -1.93481 0
M  V30 2226 H 207.595 -1.41259 -0.723291 0
M  V30 2227 H 207.616 -1.63642 -3.43514 0
M  V30 2228 H 207.128 -3.09611 -2.34015 0
M  V30 2229 H 205.229 -0.97433 -3.59635 0
M  V30 2230 H 205.342 -2.84026 -3.85832 0
M  V30 2231 H 203.706 -1.43093 -2.10705 0
M  V30 2232 H 204.489 -3.02868 -1.61634 0
M  V30 2233 N 206.934 1.1197 -1.10907 0
M  V30 2234 C 208.211 1.79959 -0.766432 0
M  V30 2235 C 208.591 1.97466 0.746363 0
M  V30 2236 O 207.939 1.55491 1.67436 0
M  V30 2237 C 208.149 3.14009 -1.52314 0
M  V30 2238 C 209.497 3.89134 -1.69883 0
M  V30 2239 O 210.521 3.2368 -1.48692 0
M  V30 2240 O 209.38 5.06572 -2.05054 0
M  V30 2241 H 206.474 0.779208 -0.277062 0
M  V30 2242 H 209.02 1.18762 -1.21217 0
M  V30 2243 H 207.792 2.96587 -2.55249 0
M  V30 2244 H 207.415 3.82915 -1.07059 0
M  V30 2245 N 208.412 0.89855 1.29475 0
M  V30 2246 C 209.66 0.522847 1.9522 0
M  V30 2247 C 209.981 -0.93371 1.71192 0
M  V30 2248 O 209.251 -1.65823 1.04305 0
M  V30 2249 H 207.831 0.190366 0.722336 0
M  V30 2250 H 210.493 1.14459 1.5775 0
M  V30 2251 H 209.589 0.704476 3.04045 0
M  V30 2252 N 209.89 -1.43072 0.660911 0
M  V30 2253 C 210.84 -2.27948 -0.04847 0
M  V30 2254 C 211.824 -1.40325 -0.787246 0
M  V30 2255 O 213.016 -1.63893 -0.668446 0
M  V30 2256 C 210.145 -3.28143 -1.00881 0
M  V30 2257 C 209.231 -4.23252 -0.268108 0
M  V30 2258 N 209.622 -5.00656 0.719528 0
M  V30 2259 C 207.92 -4.43092 -0.508493 0
M  V30 2260 C 208.621 -5.70019 1.15988 0
M  V30 2261 N 207.597 -5.41364 0.492584 0
M  V30 2262 H 211.399 -2.85213 0.709279 0
M  V30 2263 H 208.913 -1.54869 0.488822 0
M  V30 2264 H 210.91 -3.87736 -1.53188 0
M  V30 2265 H 209.57 -2.7244 -1.76654 0
M  V30 2266 H 210.581 -5.06115 1.09855 0
M  V30 2267 H 207.258 -3.98449 -1.24679 0
M  V30 2268 H 208.648 -6.4214 1.97751 0
M  V30 2269 N 211.368 -0.403325 -1.52352 0
M  V30 2270 C 212.617 0.175668 -2.00934 0
M  V30 2271 C 212.93 1.46718 -1.29356 0
M  V30 2272 O 214.136 2.12708 -1.68724 0
M  V30 2273 C 212.592 0.363612 -3.58058 0
M  V30 2274 C 212.2 -0.915472 -4.38547 0
M  V30 2275 C 213.944 0.89821 -4.14888 0
M  V30 2276 C 211.851 -0.695035 -5.87302 0
M  V30 2277 H 210.781 0.0694234 -0.750797 0
M  V30 2278 H 213.432 -0.527879 -1.75743 0
M  V30 2279 H 211.814 1.12935 -3.79555 0
M  V30 2280 H 212.988 -1.68691 -4.28812 0
M  V30 2281 H 211.303 -1.37606 -3.93006 0
M  V30 2282 H 213.9 1.07907 -5.23699 0
M  V30 2283 H 214.243 1.87126 -3.71873 0
M  V30 2284 H 214.776 0.191681 -3.97338 0
M  V30 2285 H 211.515 -1.63948 -6.34666 0
M  V30 2286 H 211.035 0.0372116 -5.99788 0
M  V30 2287 H 212.714 -0.33497 -6.46132 0
M  V30 2288 N 212.846 1.57033 -0.133567 0
M  V30 2289 C 213.809 2.14897 0.796995 0
M  V30 2290 C 214.809 1.0874 1.18458 0
M  V30 2291 O 215.999 1.34446 1.1077 0
M  V30 2292 C 213.131 2.70112 2.07973 0
M  V30 2293 H 214.324 2.98457 0.293873 0
M  V30 2294 H 211.877 1.55871 0.115787 0
M  V30 2295 H 212.612 1.9018 2.62682 0
M  V30 2296 H 212.397 3.47764 1.81115 0
M  V30 2297 H 213.887 3.14738 2.74462 0
M  V30 2298 N 214.325 -0.140222 1.56975 0
M  V30 2299 C 215.572 -0.851687 1.83719 0
M  V30 2300 C 215.9 -1.80862 0.715485 0
M  V30 2301 O 215.155 -1.93464 -0.294956 0
M  V30 2302 C 215.454 -1.65386 3.16832 0
M  V30 2303 C 215.12 -0.843112 4.42947 0
M  V30 2304 C 213.782 -0.619464 4.77196 0
M  V30 2305 C 216.134 -0.276582 5.20466 0
M  V30 2306 C 213.462 0.181312 5.8642 0
M  V30 2307 C 215.814 0.51127 6.30531 0
M  V30 2308 C 214.478 0.745432 6.63325 0
M  V30 2309 H 213.748 -0.311654 0.672274 0
M  V30 2310 H 216.395 -0.115006 1.91154 0
M  V30 2311 H 214.7 -2.46084 3.04877 0
M  V30 2312 H 216.397 -2.20793 3.34741 0
M  V30 2313 H 212.987 -1.0275 4.16101 0
M  V30 2314 H 217.171 -0.436632 4.94376 0
M  V30 2315 H 212.427 0.372165 6.10266 0
M  V30 2316 H 216.601 0.957354 6.89788 0
M  V30 2317 H 214.228 1.36778 7.47794 0
M  V30 2318 N 215.803 -1.52179 -0.40978 0
M  V30 2319 C 216.751 -1.76086 -1.51975 0
M  V30 2320 C 217.745 -0.627964 -1.57331 0
M  V30 2321 O 218.951 -0.809993 -1.60745 0
M  V30 2322 H 215.326 -0.556829 -0.505416 0
M  V30 2323 H 217.297 -2.69077 -1.28996 0
M  V30 2324 C 216.046 -1.92799 -2.8935 0
M  V30 2325 H 215.369 -2.79392 -2.85972 0
M  V30 2326 H 216.809 -2.13527 -3.66309 0
M  V30 2327 C 215.268 -0.694923 -3.29655 0
M  V30 2328 O 215.798 0.13751 -4.01465 0
M  V30 2329 N 214.004 -0.53101 -2.85707 0
M  V30 2330 H 213.551 -1.20952 -2.27439 0
M  V30 2331 H 213.509 0.292718 -3.13034 0
M  V30 2332 N 217.281 0.66697 -1.42791 0
M  V30 2333 C 218.191 1.80962 -1.49299 0
M  V30 2334 C 219.207 1.69775 -0.381108 0
M  V30 2335 O 220.383 1.91188 -0.633188 0
M  V30 2336 C 217.448 3.17156 -1.40045 0
M  V30 2337 C 216.509 3.40242 -2.6179 0
M  V30 2338 C 215.742 4.69939 -2.52969 0
M  V30 2339 O 215.965 5.48372 -1.56985 0
M  V30 2340 O 214.899 4.94441 -3.43237 0
M  V30 2341 H 218.725 1.78427 -2.45759 0
M  V30 2342 H 216.31 0.823713 -1.24641 0
M  V30 2343 H 218.192 3.98413 -1.37276 0
M  V30 2344 H 216.867 3.20312 -0.467138 0
M  V30 2345 H 215.774 2.58802 -2.70134 0
M  V30 2346 H 217.107 3.41923 -3.54047 0
M  V30 2347 N 218.759 1.29093 0.90403 0
M  V30 2348 C 220.17 1.15186 1.46932 0
M  V30 2349 C 220.521 -0.254587 1.94541 0
M  V30 2350 O 219.646 -1.14972 1.83332 0
M  V30 2351 C 220.241 2.08492 2.67051 0
M  V30 2352 C 218.8 1.98621 3.19729 0
M  V30 2353 C 217.947 1.9967 1.92425 0
M  V30 2354 H 220.898 1.41641 0.715789 0
M  V30 2355 H 220.919 1.65461 3.42641 0
M  V30 2356 H 220.431 3.10847 2.3237 0
M  V30 2357 H 218.532 0.993389 3.59114 0
M  V30 2358 H 218.645 2.86068 3.8432 0
M  V30 2359 H 217.009 1.44208 2.09943 0
M  V30 2360 H 217.792 3.03721 1.60026 0
M  V30 2361 N 220.237 -1.11381 1.11499 0
M  V30 2362 C 221.485 -1.8277 0.862524 0
M  V30 2363 C 221.806 -1.85097 -0.613534 0
M  V30 2364 O 221.076 -1.32198 -1.4457 0
M  V30 2365 H 219.656 -0.676823 0.316101 0
M  V30 2366 H 222.318 -1.34816 1.4075 0
M  V30 2367 H 221.414 -2.86614 1.23527 0
M  V30 2368 N 221.715 -0.905404 -1.28997 0
M  V30 2369 C 222.94 -0.549175 -1.99997 0
M  V30 2370 C 223.365 0.860276 -1.67275 0
M  V30 2371 O 222.723 1.57355 -0.900502 0
M  V30 2372 C 222.771 -0.755185 -3.52604 0
M  V30 2373 O 221.875 0.189692 -4.11964 0
M  V30 2374 H 221.216 -0.213899 -0.628604 0
M  V30 2375 H 223.746 -1.21856 -1.64354 0
M  V30 2376 H 223.756 -0.662045 -4.02593 0
M  V30 2377 H 222.431 -1.78271 -3.75755 0
M  V30 2378 H 221.008 0.0485257 -3.72868 0
M  V30 2379 N 223.193 1.4272 -0.668489 0
M  V30 2380 C 224.418 2.06484 -0.194758 0
M  V30 2381 C 224.843 1.49862 1.13679 0
M  V30 2382 O 224.201 0.614582 1.70565 0
M  V30 2383 C 224.249 3.60353 -0.133546 0
M  V30 2384 O 223.353 4.02464 0.899806 0
M  V30 2385 H 222.694 0.656137 -0.10188 0
M  V30 2386 H 225.224 1.82964 -0.915722 0
M  V30 2387 H 225.234 4.07976 0.0447041 0
M  V30 2388 H 223.909 4.00938 -1.1055 0
M  V30 2389 H 222.486 3.66402 0.693109 0
M  V30 2390 N 224.671 0.411399 1.52136 0
M  V30 2391 C 225.601 -0.404015 2.29978 0
M  V30 2392 C 226.582 -1.04412 1.34284 0
M  V30 2393 O 227.767 -1.0527 1.63192 0
M  V30 2394 C 224.897 -1.5197 3.12286 0
M  V30 2395 C 223.851 -1.00448 4.16046 0
M  V30 2396 C 223.177 -2.21393 4.86712 0
M  V30 2397 C 224.477 -0.0569336 5.22269 0
M  V30 2398 H 226.171 0.245529 2.98392 0
M  V30 2399 H 223.717 0.119525 1.43503 0
M  V30 2400 H 225.67 -2.09715 3.6551 0
M  V30 2401 H 224.394 -2.19716 2.41646 0
M  V30 2402 H 223.053 -0.449421 3.63835 0
M  V30 2403 H 222.701 -2.87699 4.12599 0
M  V30 2404 H 222.401 -1.87571 5.56858 0
M  V30 2405 H 223.925 -2.7974 5.4275 0
M  V30 2406 H 225.339 -0.54325 5.7072 0
M  V30 2407 H 223.736 0.192594 5.99791 0
M  V30 2408 H 224.806 0.887663 4.76706 0
M  V30 2409 N 226.149 -1.5696 0.141893 0
M  V30 2410 C 227.395 -1.9625 -0.511248 0
M  V30 2411 C 227.728 -1.02654 -1.64851 0
M  V30 2412 O 227.003 -0.0679676 -1.94381 0
M  V30 2413 C 227.286 -3.45285 -1.02227 0
M  V30 2414 C 227.139 -4.49658 0.113138 0
M  V30 2415 C 228.458 -3.96698 -1.90574 0
M  V30 2416 H 225.577 -0.713567 -0.184367 0
M  V30 2417 H 228.219 -1.88698 0.222087 0
M  V30 2418 H 226.369 -3.51852 -1.64719 0
M  V30 2419 H 228.041 -4.55174 0.749302 0
M  V30 2420 H 226.284 -4.26857 0.773026 0
M  V30 2421 H 226.955 -5.51258 -0.286053 0
M  V30 2422 H 229.431 -3.92578 -1.37918 0
M  V30 2423 H 228.307 -5.01453 -2.2324 0
M  V30 2424 H 228.568 -3.3875 -2.84079 0
M  V30 2425 N 227.627 0.131896 -1.57047 0
M  V30 2426 C 228.852 0.860418 -1.8871 0
M  V30 2427 C 229.277 1.73251 -0.73251 0
M  V30 2428 O 228.635 1.785 0.317429 0
M  V30 2429 C 228.683 1.68047 -3.19049 0
M  V30 2430 O 227.787 2.7862 -3.04047 0
M  V30 2431 H 227.128 0.238743 -0.619595 0
M  V30 2432 H 229.658 0.118169 -2.04258 0
M  V30 2433 H 229.668 2.07238 -3.51449 0
M  V30 2434 H 228.343 1.04018 -4.02682 0
M  V30 2435 H 226.92 2.42726 -2.83088 0
M  V30 2436 N 229.106 1.52395 0.401703 0
M  V30 2437 C 230.522 1.41363 0.740864 0
M  V30 2438 C 230.722 0.523982 1.94568 0
M  V30 2439 O 229.778 -0.00741204 2.52499 0
M  V30 2440 C 231.091 2.84011 0.987847 0
M  V30 2441 C 232.639 2.93404 1.09011 0
M  V30 2442 C 233.114 4.37036 1.3698 0
M  V30 2443 N 234.605 4.40304 1.43829 0
M  V30 2444 C 235.34 5.48508 1.67112 0
M  V30 2445 N 234.836 6.66819 1.87949 0
M  V30 2446 N 236.629 5.36034 1.69187 0
M  V30 2447 H 228.78 2.08765 -0.391262 0
M  V30 2448 H 231.043 0.941265 -0.112798 0
M  V30 2449 H 230.749 3.51265 0.174835 0
M  V30 2450 H 230.623 3.25502 1.906 0
M  V30 2451 H 233.01 2.26325 1.8937 0
M  V30 2452 H 233.091 2.55359 0.15015 0
M  V30 2453 H 232.735 5.04676 0.571353 0
M  V30 2454 H 232.665 4.72623 2.3224 0
M  V30 2455 H 235.156 3.55024 1.29486 0
M  V30 2456 H 235.469 7.45063 2.05185 0
M  V30 2457 H 233.814 6.6987 1.85199 0
M  V30 2458 H 237.005 4.42579 1.52451 0
M  V30 2459 H 237.178 6.20434 1.86993 0
M  V30 2460 N 230.584 -0.659388 1.43143 0
M  V30 2461 C 231.812 -1.44723 1.47861 0
M  V30 2462 C 232.227 -1.88563 0.0945886 0
M  V30 2463 O 231.584 -1.59108 -0.893915 0
M  V30 2464 C 231.635 -2.68627 2.41913 0
M  V30 2465 O 231.356 -2.26623 3.74932 0
M  V30 2466 C 232.857 -3.62045 2.55809 0
M  V30 2467 H 230.077 -0.444801 0.502387 0
M  V30 2468 H 232.621 -0.808916 1.87821 0
M  V30 2469 H 230.776 -3.28613 2.05164 0
M  V30 2470 H 231.19 -3.06745 4.2545 0
M  V30 2471 H 232.664 -4.45666 3.25708 0
M  V30 2472 H 233.141 -4.08981 1.60099 0
M  V30 2473 H 233.747 -3.07944 2.93344 0
M  V30 2474 N 232.062 -1.29571 -0.897171 0
M  V30 2475 C 233.478 -1.07637 -1.17841 0
M  V30 2476 C 233.678 0.170713 -2.00776 0
M  V30 2477 O 232.734 0.867768 -2.3712 0
M  V30 2478 C 234.047 -2.3332 -1.8969 0
M  V30 2479 C 235.595 -2.38664 -2.02505 0
M  V30 2480 C 236.07 -3.64157 -2.77765 0
M  V30 2481 N 237.561 -3.64894 -2.85318 0
M  V30 2482 C 238.296 -4.58679 -3.44094 0
M  V30 2483 N 237.792 -5.62799 -4.04017 0
M  V30 2484 N 239.585 -4.46245 -3.41793 0
M  V30 2485 H 231.736 -2.09598 -0.343883 0
M  V30 2486 H 233.999 -0.923333 -0.214848 0
M  V30 2487 H 233.705 -3.24262 -1.36187 0
M  V30 2488 H 233.579 -2.41025 -2.9015 0
M  V30 2489 H 235.966 -1.48208 -2.55183 0
M  V30 2490 H 236.047 -2.34943 -1.01171 0
M  V30 2491 H 235.691 -4.54965 -2.25763 0
M  V30 2492 H 235.621 -3.65137 -3.7945 0
M  V30 2493 H 238.112 -2.89613 -2.42761 0
M  V30 2494 H 238.425 -6.3048 -4.46895 0
M  V30 2495 H 236.77 -5.66605 -4.02472 0
M  V30 2496 H 239.961 -3.64094 -2.94199 0
M  V30 2497 H 240.134 -5.19518 -3.87304 0
M  V30 2498 N 233.54 1.10788 -1.12088 0
M  V30 2499 C 234.786 1.82942 -0.875226 0
M  V30 2500 C 235.119 1.84779 0.597538 0
M  V30 2501 O 234.394 1.30578 1.44152 0
M  V30 2502 C 234.677 3.29789 -1.44606 0
M  V30 2503 C 234.53 3.36307 -2.98693 0
M  V30 2504 C 235.849 4.26064 -1.10261 0
M  V30 2505 H 232.968 0.664195 -0.319397 0
M  V30 2506 H 235.61 1.29867 -1.38689 0
M  V30 2507 H 233.76 3.75118 -1.01089 0
M  V30 2508 H 235.432 2.99487 -3.50864 0
M  V30 2509 H 233.675 2.76318 -3.34411 0
M  V30 2510 H 234.346 4.39694 -3.33726 0
M  V30 2511 H 236.822 3.88951 -1.4784 0
M  V30 2512 H 235.698 5.27183 -1.52869 0
M  V30 2513 H 235.959 4.42098 -0.0142953 0
M  V30 2514 N 235.018 0.912232 1.28515 0
M  V30 2515 C 235.965 0.397954 2.27343 0
M  V30 2516 C 236.935 -0.526766 1.57526 0
M  V30 2517 O 238.12 -0.449292 1.85435 0
M  V30 2518 C 235.26 -0.357263 3.43246 0
M  V30 2519 C 234.373 0.599788 4.27816 0
M  V30 2520 C 233.508 -0.173725 5.30916 0
M  V30 2521 C 232.547 0.777039 6.07148 0
M  V30 2522 N 231.684 0.0371398 7.0209 0
M  V30 2523 H 236.524 1.24577 2.70711 0
M  V30 2524 H 234.061 0.625612 1.33133 0
M  V30 2525 H 236.019 -0.8113 4.09236 0
M  V30 2526 H 234.649 -1.16943 3.00872 0
M  V30 2527 H 233.701 1.17235 3.61884 0
M  V30 2528 H 235.013 1.32704 4.80823 0
M  V30 2529 H 234.167 -0.688394 6.02782 0
M  V30 2530 H 232.906 -0.934041 4.78672 0
M  V30 2531 H 231.911 1.3031 5.34134 0
M  V30 2532 H 233.136 1.53689 6.61481 0
M  V30 2533 H 231.082 -0.705213 6.52198 0
M  V30 2534 H 230.999 0.704249 7.52713 0
M  V30 2535 H 232.267 -0.457383 7.78157 0
M  V30 2536 N 236.496 -1.42363 0.676048 0
M  V30 2537 C 237.724 -2.05859 0.207268 0
M  V30 2538 C 238.139 -1.50796 -1.13605 0
M  V30 2539 O 237.496 -0.648265 -1.70598 0
M  V30 2540 C 237.547 -3.61248 0.134975 0
M  V30 2541 O 237.268 -4.1427 1.42521 0
M  V30 2542 C 238.769 -4.41859 -0.357151 0
M  V30 2543 H 235.989 -0.663431 0.100503 0
M  V30 2544 H 238.533 -1.82479 0.923136 0
M  V30 2545 H 236.688 -3.83735 -0.531588 0
M  V30 2546 H 237.102 -5.0815 1.29939 0
M  V30 2547 H 238.576 -5.50847 -0.356641 0
M  V30 2548 H 239.053 -4.16536 -1.39264 0
M  V30 2549 H 239.659 -4.24392 0.27772 0
M  V30 2550 N 237.974 -0.419461 -1.51915 0
M  V30 2551 C 238.904 0.391813 -2.30189 0
M  V30 2552 C 239.885 1.03699 -1.34836 0
M  V30 2553 O 241.07 1.04403 -1.63748 0
M  V30 2554 C 238.2 1.50312 -3.13087 0
M  V30 2555 C 237.154 0.9824 -4.16573 0
M  V30 2556 C 236.48 2.18809 -4.8788 0
M  V30 2557 C 237.78 0.0292356 -5.22292 0
M  V30 2558 H 239.474 -0.26135 -2.98257 0
M  V30 2559 H 237.02 -0.127134 -1.43438 0
M  V30 2560 H 238.973 2.07773 -3.66617 0
M  V30 2561 H 237.697 2.18431 -2.42807 0
M  V30 2562 H 236.356 0.430119 -3.64068 0
M  V30 2563 H 236.004 2.85507 -4.14119 0
M  V30 2564 H 235.704 1.84615 -5.57845 0
M  V30 2565 H 237.228 2.76858 -5.44226 0
M  V30 2566 H 238.642 0.512976 -5.71 0
M  V30 2567 H 237.039 -0.2244 -5.9968 0
M  V30 2568 H 238.109 -0.912931 -4.76228 0
M  V30 2569 N 239.452 1.56882 -0.150215 0
M  V30 2570 C 240.415 2.1573 0.774157 0
M  V30 2571 C 241.415 1.0999 1.17298 0
M  V30 2572 O 242.605 1.35613 1.09338 0
M  V30 2573 C 239.737 2.72302 2.05096 0
M  V30 2574 H 240.93 2.98752 0.262201 0
M  V30 2575 H 238.483 1.55985 0.099248 0
M  V30 2576 H 239.218 1.92956 2.6065 0
M  V30 2577 H 239.003 3.49665 1.77416 0
M  V30 2578 H 240.493 3.17632 2.71109 0
M  V30 2579 N 240.93 -0.123565 1.57115 0
M  V30 2580 C 241.863 -1.18202 1.95201 0
M  V30 2581 C 242.841 -1.40349 0.821031 0
M  V30 2582 O 244.025 -1.54578 1.07879 0
M  V30 2583 C 241.152 -2.53671 2.24429 0
M  V30 2584 C 240.198 -2.4798 3.46999 0
M  V30 2585 S 241.031 -1.92389 4.99747 0
M  V30 2586 C 242.187 -3.2954 5.32123 0
M  V30 2587 H 242.42 -0.857212 2.84674 0
M  V30 2588 H 239.953 -0.33014 1.50829 0
M  V30 2589 H 241.911 -3.3162 2.41947 0
M  V30 2590 H 240.572 -2.83332 1.35579 0
M  V30 2591 H 239.765 -3.47758 3.64801 0
M  V30 2592 H 239.367 -1.7815 3.28844 0
M  V30 2593 H 241.659 -4.25736 5.27025 0
M  V30 2594 H 242.602 -3.16569 6.33395 0
M  V30 2595 H 243.01 -3.27758 4.59603 0
M  V30 2596 N 242.408 -1.52605 -0.393616 0
M  V30 2597 C 243.685 -1.58001 -1.15304 0
M  V30 2598 C 244.065 -0.370385 -2.07825 0
M  V30 2599 O 243.413 0.641638 -2.19306 0
M  V30 2600 C 243.623 -2.91652 -1.91677 0
M  V30 2601 C 244.971 -3.4522 -2.47201 0
M  V30 2602 O 245.995 -2.93495 -2.01839 0
M  V30 2603 O 244.854 -4.35579 -3.3005 0
M  V30 2604 H 241.948 -0.637068 -0.527327 0
M  V30 2605 H 244.494 -1.64939 -0.399141 0
M  V30 2606 H 243.266 -3.71136 -1.23992 0
M  V30 2607 H 242.889 -2.88077 -2.74039 0
M  V30 2608 N 243.887 0.651787 -1.4349 0
M  V30 2609 C 245.115 1.43937 -1.48626 0
M  V30 2610 C 245.53 1.8851 -0.104587 0
M  V30 2611 O 244.887 1.5958 0.885464 0
M  V30 2612 C 244.938 2.6734 -2.43334 0
M  V30 2613 O 244.659 2.24631 -3.76128 0
M  V30 2614 C 246.16 3.60683 -2.57726 0
M  V30 2615 H 243.38 0.44213 -0.504739 0
M  V30 2616 H 245.924 0.798944 -1.88248 0
M  V30 2617 H 244.079 3.2752 -2.06904 0
M  V30 2618 H 244.493 3.04485 -4.2707 0
M  V30 2619 H 245.967 4.43933 -3.28067 0
M  V30 2620 H 246.444 4.08126 -1.62265 0
M  V30 2621 H 247.05 3.06384 -2.94973 0
M  V30 2622 N 245.365 1.30045 0.890287 0
M  V30 2623 C 246.614 1.17929 1.63633 0
M  V30 2624 C 246.927 -0.266204 1.9378 0
M  V30 2625 O 248.133 -0.508804 2.6669 0
M  V30 2626 C 246.589 2.06317 2.94892 0
M  V30 2627 C 246.197 3.55745 2.72305 0
M  V30 2628 C 247.941 2.0295 3.72843 0
M  V30 2629 C 245.848 4.36205 3.99348 0
M  V30 2630 H 244.778 0.437782 0.613892 0
M  V30 2631 H 247.429 1.54754 0.986075 0
M  V30 2632 H 245.811 1.6237 3.61182 0
M  V30 2633 H 246.985 4.07805 2.1455 0
M  V30 2634 H 245.3 3.6088 2.07737 0
M  V30 2635 H 247.897 2.60319 4.67053 0
M  V30 2636 H 248.24 1.0117 4.0382 0
M  V30 2637 H 248.773 2.4499 3.13408 0
M  V30 2638 H 245.512 5.38659 3.73533 0
M  V30 2639 H 245.032 3.8891 4.56628 0
M  V30 2640 H 246.711 4.47362 4.67415 0
M  V30 2641 N 246.843 -1.10192 1.12674 0
M  V30 2642 C 247.773 -2.18652 0.819362 0
M  V30 2643 C 248.754 -1.68698 -0.217915 0
M  V30 2644 O 249.939 -1.94041 -0.0785581 0
M  V30 2645 C 247.069 -3.46202 0.27594 0
M  V30 2646 C 246.023 -4.09444 1.24656 0
M  V30 2647 C 245.349 -5.31725 0.563258 0
M  V30 2648 C 246.649 -4.52863 2.60217 0
M  V30 2649 H 248.343 -2.44622 1.72628 0
M  V30 2650 H 245.889 -1.17571 0.831451 0
M  V30 2651 H 247.842 -4.21372 0.0486149 0
M  V30 2652 H 246.566 -3.1973 -0.666331 0
M  V30 2653 H 245.225 -3.36284 1.45974 0
M  V30 2654 H 244.873 -5.0153 -0.384235 0
M  V30 2655 H 244.573 -5.74991 1.21075 0
M  V30 2656 H 246.097 -6.09624 0.34503 0
M  V30 2657 H 247.511 -5.19294 2.42913 0
M  V30 2658 H 245.908 -5.06986 3.21068 0
M  V30 2659 H 246.978 -3.65656 3.18471 0
M  V30 2660 N 248.321 -0.919034 -1.28029 0
M  V30 2661 C 249.284 -0.416182 -2.2539 0
M  V30 2662 C 250.284 0.460438 -1.54067 0
M  V30 2663 O 251.474 0.262744 -1.72207 0
M  V30 2664 C 248.606 0.402707 -3.38513 0
M  V30 2665 H 249.799 -1.27629 -2.71387 0
M  V30 2666 H 247.352 -0.698919 -1.39803 0
M  V30 2667 H 248.087 1.282 -2.97885 0
M  V30 2668 H 247.872 -0.225698 -3.9145 0
M  V30 2669 H 249.362 0.745191 -4.10897 0
M  V30 2670 N 249.799 1.42003 -0.683588 0
M  V30 2671 C 250.747 2.326 0.000815408 0
M  V30 2672 C 251.741 1.50308 0.781278 0
M  V30 2673 O 252.947 1.66322 0.688251 0
M  V30 2674 H 249.322 0.751758 0.0190616 0
M  V30 2675 H 251.293 2.88011 -0.780528 0
M  V30 2676 C 250.042 3.34978 0.93195 0
M  V30 2677 H 249.365 3.98345 0.340817 0
M  V30 2678 H 250.805 4.00936 1.37936 0
M  V30 2679 C 249.264 2.67925 2.04249 0
M  V30 2680 O 249.794 2.51788 3.12995 0
M  V30 2681 N 248 2.2681 1.81675 0
M  V30 2682 H 247.547 2.40135 0.932363 0
M  V30 2683 H 247.505 1.8228 2.56167 0
M  V30 2684 N 251.277 0.427512 1.51691 0
M  V30 2685 C 252.24 -0.377132 2.26076 0
M  V30 2686 C 253.24 -0.958089 1.29141 0
M  V30 2687 O 254.43 -0.83408 1.52934 0
M  V30 2688 C 251.562 -1.53262 3.04506 0
M  V30 2689 H 252.755 0.27464 2.9864 0
M  V30 2690 H 250.308 0.180445 1.55255 0
M  V30 2691 H 251.043 -2.22072 2.36335 0
M  V30 2692 H 250.828 -1.12232 3.75694 0
M  V30 2693 H 252.318 -2.10135 3.60878 0
M  V30 2694 N 252.755 -1.56801 0.158532 0
M  V30 2695 C 254.171 -1.5837 -0.197774 0
M  V30 2696 C 254.371 -1.17334 -1.63814 0
M  V30 2697 O 253.427 -0.878988 -2.36707 0
M  V30 2698 C 254.74 -3.00615 0.0714459 0
M  V30 2699 C 256.288 -3.12999 0.00864533 0
M  V30 2700 C 256.763 -4.57313 0.250685 0
M  V30 2701 N 258.254 -4.62777 0.198014 0
M  V30 2702 C 258.989 -5.72271 0.359642 0
M  V30 2703 N 258.485 -6.90371 0.579625 0
M  V30 2704 N 260.278 -5.61318 0.296438 0
M  V30 2705 H 252.429 -1.81765 1.09887 0
M  V30 2706 H 254.692 -0.841849 0.435884 0
M  V30 2707 H 254.398 -3.35068 1.06874 0
M  V30 2708 H 254.272 -3.71683 -0.642757 0
M  V30 2709 H 256.659 -2.7838 -0.979217 0
M  V30 2710 H 256.74 -2.44393 0.755359 0
M  V30 2711 H 256.384 -4.92639 1.2357 0
M  V30 2712 H 256.314 -5.24061 -0.516489 0
M  V30 2713 H 258.805 -3.77885 0.0331115 0
M  V30 2714 H 259.118 -7.69689 0.69275 0
M  V30 2715 H 257.463 -6.92264 0.616087 0
M  V30 2716 H 260.654 -4.67932 0.125258 0
M  V30 2717 H 260.827 -6.46599 0.425831 0
M  V30 2718 N 254.233 0.115231 -1.57178 0
M  V30 2719 C 255.48 0.822351 -1.8505 0
M  V30 2720 C 255.808 1.79701 -0.744168 0
M  V30 2721 O 255.063 1.93909 0.26414 0
M  V30 2722 C 255.362 1.60324 -3.19423 0
M  V30 2723 C 255.028 0.772536 -4.44233 0
M  V30 2724 C 253.69 0.543468 -4.78121 0
M  V30 2725 C 256.042 0.193746 -5.2084 0
M  V30 2726 C 253.37 -0.274583 -5.86057 0
M  V30 2727 C 255.722 -0.611517 -6.29637 0
M  V30 2728 C 254.386 -0.850867 -6.62055 0
M  V30 2729 H 253.656 0.30092 -0.677147 0
M  V30 2730 H 256.303 0.0845802 -1.91313 0
M  V30 2731 H 254.608 2.41203 -3.08753 0
M  V30 2732 H 256.305 2.1544 -3.38211 0
M  V30 2733 H 252.895 0.96117 -4.17683 0
M  V30 2734 H 257.079 0.357926 -4.95008 0
M  V30 2735 H 252.335 -0.469206 -6.09597 0
M  V30 2736 H 256.509 -1.06697 -6.88178 0
M  V30 2737 H 254.136 -1.48657 -7.45523 0
M  V30 2738 N 255.711 1.52812 0.385517 0
M  V30 2739 C 256.958 1.68026 1.1302 0
M  V30 2740 C 257.286 0.421934 1.89868 0
M  V30 2741 O 256.541 -0.595749 1.86412 0
M  V30 2742 C 256.84 2.86856 2.13187 0
M  V30 2743 C 256.506 4.24159 1.5297 0
M  V30 2744 C 255.168 4.61501 1.36274 0
M  V30 2745 C 257.52 5.09627 1.09223 0
M  V30 2746 C 254.848 5.81966 0.743837 0
M  V30 2747 C 257.2 6.30719 0.487411 0
M  V30 2748 C 255.864 6.6679 0.307777 0
M  V30 2749 H 255.134 0.614849 0.413571 0
M  V30 2750 H 257.781 1.86962 0.414405 0
M  V30 2751 H 256.086 2.6235 2.90998 0
M  V30 2752 H 257.783 2.95821 2.70722 0
M  V30 2753 H 254.373 3.94746 1.66954 0
M  V30 2754 H 258.557 4.81343 1.20922 0
M  V30 2755 H 253.813 6.08519 0.592891 0
M  V30 2756 H 257.987 6.96259 0.140143 0
M  V30 2757 H 255.614 7.60001 -0.173879 0
M  V30 2758 N 257.189 -0.644168 1.43834 0
M  V30 2759 C 258.466 -1.40188 1.36406 0
M  V30 2760 C 258.846 -2.11094 0.0163124 0
M  V30 2761 O 258.194 -2.05426 -1.00062 0
M  V30 2762 C 258.404 -2.3791 2.55343 0
M  V30 2763 C 259.752 -3.01637 2.98832 0
M  V30 2764 O 260.776 -2.48237 2.55455 0
M  V30 2765 O 259.635 -3.98477 3.74003 0
M  V30 2766 H 256.729 -0.626773 0.539523 0
M  V30 2767 H 259.275 -0.670317 1.559 0
M  V30 2768 H 258.047 -1.84525 3.4506 0
M  V30 2769 H 257.67 -3.18503 2.37995 0
M  V30 2770 N 258.668 -1.30515 -0.883378 0
M  V30 2771 C 259.916 -1.19194 -1.63209 0
M  V30 2772 C 260.237 0.253205 -1.93349 0
M  V30 2773 O 259.507 1.17025 -1.57105 0
M  V30 2774 H 258.087 -0.438148 -0.605009 0
M  V30 2775 H 260.749 -1.63663 -1.05832 0
M  V30 2776 H 259.845 -1.75396 -2.58153 0
M  V30 2777 N 260.146 1.09593 -1.13257 0
M  V30 2778 C 261.056 2.19739 -0.821691 0
M  V30 2779 C 262.072 1.72926 0.19302 0
M  V30 2780 O 263.248 2.01385 0.0244895 0
M  V30 2781 C 260.313 3.45482 -0.290333 0
M  V30 2782 C 259.374 4.06985 -1.36607 0
M  V30 2783 C 258.607 5.26726 -0.859975 0
M  V30 2784 O 258.83 5.69594 0.303082 0
M  V30 2785 O 257.764 5.7931 -1.63351 0
M  V30 2786 H 261.59 2.48781 -1.74189 0
M  V30 2787 H 259.175 1.18496 -0.909894 0
M  V30 2788 H 261.057 4.214 0.000674022 0
M  V30 2789 H 259.732 3.18047 0.602306 0
M  V30 2790 H 258.639 3.32712 -1.71037 0
M  V30 2791 H 259.972 4.38643 -2.23279 0
M  V30 2792 N 261.624 0.925811 1.2754 0
M  V30 2793 C 262.554 0.440748 2.29303 0
M  V30 2794 C 263.535 -0.497971 1.62648 0
M  V30 2795 O 264.72 -0.403126 1.8997 0
M  V30 2796 C 261.85 -0.309048 3.45922 0
M  V30 2797 C 260.804 0.54166 4.24559 0
M  V30 2798 C 260.13 -0.337191 5.33636 0
M  V30 2799 C 261.43 1.80516 4.90114 0
M  V30 2800 H 263.124 1.29121 2.70126 0
M  V30 2801 H 260.67 0.622323 1.29858 0
M  V30 2802 H 262.623 -0.659315 4.1621 0
M  V30 2803 H 261.347 -1.19352 3.04011 0
M  V30 2804 H 260.006 0.874609 3.56014 0
M  V30 2805 H 259.654 -1.22056 4.87966 0
M  V30 2806 H 259.354 0.228497 5.87156 0
M  V30 2807 H 260.878 -0.683072 6.06767 0
M  V30 2808 H 262.292 1.52307 5.52698 0
M  V30 2809 H 260.689 2.3142 5.53683 0
M  V30 2810 H 261.759 2.52581 4.13921 0
M  V30 2811 N 263.102 -1.41638 0.69111 0
M  V30 2812 C 264.33 -2.05628 0.22909 0
M  V30 2813 C 264.745 -1.51992 -1.11999 0
M  V30 2814 O 264.102 -0.666322 -1.69901 0
M  V30 2815 C 264.153 -3.61084 0.173283 0
M  V30 2816 O 263.874 -4.12735 1.46907 0
M  V30 2817 C 265.375 -4.42213 -0.310266 0
M  V30 2818 H 262.595 -0.662327 0.107534 0
M  V30 2819 H 265.139 -1.81489 0.942438 0
M  V30 2820 H 263.294 -3.84278 -0.490858 0
M  V30 2821 H 263.708 -5.06743 1.35322 0
M  V30 2822 H 265.182 -5.51194 -0.298196 0
M  V30 2823 H 265.659 -4.1799 -1.34838 0
M  V30 2824 H 266.265 -4.24074 0.322716 0
M  V30 2825 N 264.58 -0.43555 -1.51462 0
M  V30 2826 C 265.527 0.376797 -2.27703 0
M  V30 2827 C 266.497 1.01838 -1.31219 0
M  V30 2828 O 267.682 1.03762 -1.60119 0
M  V30 2829 C 264.822 1.47301 -3.12084 0
M  V30 2830 C 263.935 0.849744 -4.2356 0
M  V30 2831 C 263.07 1.92086 -4.95254 0
M  V30 2832 C 262.109 1.27593 -5.98654 0
M  V30 2833 N 261.246 2.28833 -6.63762 0
M  V30 2834 H 266.086 -0.279734 -2.96684 0
M  V30 2835 H 263.623 -0.149795 -1.46335 0
M  V30 2836 H 265.581 2.11984 -3.59331 0
M  V30 2837 H 264.211 2.0992 -2.45221 0
M  V30 2838 H 263.263 0.0912529 -3.80291 0
M  V30 2839 H 264.575 0.338878 -4.97648 0
M  V30 2840 H 263.729 2.64435 -5.46039 0
M  V30 2841 H 262.468 2.46545 -4.20793 0
M  V30 2842 H 261.473 0.537893 -5.47162 0
M  V30 2843 H 262.698 0.738693 -6.7507 0
M  V30 2844 H 260.644 2.82375 -5.92115 0
M  V30 2845 H 260.561 1.82632 -7.33608 0
M  V30 2846 H 261.829 3.00671 -7.19178 0
M  V30 2847 N 266.058 1.56714 -0.166846 0
M  V30 2848 C 267.304 1.97039 0.479962 0
M  V30 2849 C 267.637 1.05264 1.63197 0
M  V30 2850 O 266.912 0.0988833 1.94248 0
M  V30 2851 C 267.195 3.46867 0.967212 0
M  V30 2852 C 267.048 4.49421 -0.18466 0
M  V30 2853 C 268.367 3.9968 1.84238 0
M  V30 2854 H 265.486 0.71641 0.172992 0
M  V30 2855 H 268.128 1.8832 -0.252079 0
M  V30 2856 H 266.278 3.54428 1.59101 0
M  V30 2857 H 267.95 4.53924 -0.821621 0
M  V30 2858 H 266.193 4.25573 -0.840837 0
M  V30 2859 H 266.864 5.51644 0.198317 0
M  V30 2860 H 269.34 3.94723 1.31655 0
M  V30 2861 H 268.216 5.04941 2.15234 0
M  V30 2862 H 268.477 3.43226 2.78654 0
M  V30 2863 N 267.536 -0.106894 1.57237 0
M  V30 2864 C 268.947 -0.662723 1.74542 0
M  V30 2865 C 269.298 -1.7971 0.787319 0
M  V30 2866 O 268.423 -2.16368 -0.0369636 0
M  V30 2867 C 269.018 -1.20896 3.16496 0
M  V30 2868 C 267.577 -1.71096 3.35266 0
M  V30 2869 C 266.724 -0.615642 2.7038 0
M  V30 2870 H 269.675 0.119106 1.58252 0
M  V30 2871 H 269.696 -2.07847 3.18716 0
M  V30 2872 H 269.208 -0.383122 3.86204 0
M  V30 2873 H 267.309 -2.56119 2.70618 0
M  V30 2874 H 267.422 -1.81208 4.43509 0
M  V30 2875 H 265.786 -1.05222 2.31949 0
M  V30 2876 H 266.569 0.199419 3.4272 0
M  V30 2877 N 269.014 -1.53014 -0.377408 0
M  V30 2878 C 270.242 -1.72515 -1.14219 0
M  V30 2879 C 270.657 -0.448735 -1.8339 0
M  V30 2880 O 270.014 0.577592 -1.73119 0
M  V30 2881 C 270.065 -2.8826 -2.18148 0
M  V30 2882 O 269.786 -4.10962 -1.51795 0
M  V30 2883 C 271.287 -3.19536 -3.07264 0
M  V30 2884 H 268.507 -0.577301 -0.342001 0
M  V30 2885 H 271.051 -1.99712 -0.439935 0
M  V30 2886 H 269.206 -2.63492 -2.83991 0
M  V30 2887 H 269.62 -4.75693 -2.20945 0
M  V30 2888 H 271.094 -4.03959 -3.76193 0
M  V30 2889 H 271.571 -2.34403 -3.71419 0
M  V30 2890 H 272.177 -3.46186 -2.47053 0
M  V30 2891 N 270.492 0.636531 -1.44174 0
M  V30 2892 C 271.425 1.76139 -1.45087 0
M  V30 2893 C 272.403 1.59611 -0.310326 0
M  V30 2894 O 273.587 1.81568 -0.506477 0
M  V30 2895 C 270.714 3.13648 -1.27839 0
M  V30 2896 C 269.76 3.48838 -2.45386 0
M  V30 2897 S 270.593 3.46927 -4.07924 0
M  V30 2898 C 271.749 4.87064 -3.9309 0
M  V30 2899 H 271.982 1.75096 -2.40268 0
M  V30 2900 H 269.515 0.810666 -1.31406 0
M  V30 2901 H 271.473 3.93002 -1.18575 0
M  V30 2902 H 270.134 3.12235 -0.341787 0
M  V30 2903 H 269.327 4.48886 -2.29167 0
M  V30 2904 H 268.929 2.76935 -2.51362 0
M  V30 2905 H 271.221 5.76153 -3.56446 0
M  V30 2906 H 272.164 5.08337 -4.92949 0
M  V30 2907 H 272.572 4.61384 -3.25246 0
M  V30 2908 N 271.97 1.30982 0.876444 0
M  V30 2909 C 272.933 1.18054 1.96459 0
M  V30 2910 C 273.933 0.109399 1.60427 0
M  V30 2911 O 275.123 0.358173 1.70478 0
M  V30 2912 C 272.255 0.810616 3.31122 0
M  V30 2913 H 273.448 2.14735 2.09354 0
M  V30 2914 H 271.001 1.145 1.06392 0
M  V30 2915 H 271.736 -0.155322 3.23928 0
M  V30 2916 H 271.521 1.58481 3.58645 0
M  V30 2917 H 273.011 0.743876 4.10921 0
M  V30 2918 N 273.449 -1.08991 1.13837 0
M  V30 2919 C 274.379 -2.17771 0.842507 0
M  V30 2920 C 275.36 -1.6892 -0.20001 0
M  V30 2921 O 276.545 -1.94113 -0.0579731 0
M  V30 2922 C 273.675 -3.4589 0.312644 0
M  V30 2923 C 272.629 -4.08099 1.28992 0
M  V30 2924 C 271.955 -5.31098 0.619623 0
M  V30 2925 C 273.255 -4.50077 2.65005 0
M  V30 2926 H 274.949 -2.42777 1.75213 0
M  V30 2927 H 272.495 -1.16682 0.843875 0
M  V30 2928 H 274.448 -4.21297 0.0933043 0
M  V30 2929 H 273.172 -3.20419 -0.632382 0
M  V30 2930 H 271.831 -3.34717 1.49533 0
M  V30 2931 H 271.479 -5.0191 -0.33102 0
M  V30 2932 H 271.179 -5.73674 1.27167 0
M  V30 2933 H 272.703 -6.09224 0.409669 0
M  V30 2934 H 274.117 -5.16688 2.48407 0
M  V30 2935 H 272.514 -5.03553 3.26427 0
M  V30 2936 H 273.584 -3.62257 3.22332 0
M  V30 2937 N 274.927 -0.932562 -1.27047 0
M  V30 2938 C 276.155 -0.592031 -1.98249 0
M  V30 2939 C 276.57 0.831062 -1.69525 0
M  V30 2940 O 275.927 1.55299 -0.958561 0
M  V30 2941 C 275.978 -0.814279 -3.5221 0
M  V30 2942 O 275.699 -2.18139 -3.7993 0
M  V30 2943 C 277.2 -0.483121 -4.4066 0
M  V30 2944 H 274.42 -0.223896 -0.632544 0
M  V30 2945 H 276.964 -1.25091 -1.61779 0
M  V30 2946 H 275.119 -0.20213 -3.86872 0
M  V30 2947 H 275.533 -2.235 -4.74498 0
M  V30 2948 H 277.007 -0.689298 -5.47679 0
M  V30 2949 H 277.484 0.581546 -4.35333 0
M  V30 2950 H 278.09 -1.07362 -4.11526 0
M  V30 2951 N 276.405 1.4127 -0.698611 0
M  V30 2952 C 277.651 2.01478 -0.231207 0
M  V30 2953 C 277.984 1.55215 1.16713 0
M  V30 2954 O 277.259 0.764672 1.78838 0
M  V30 2955 C 277.542 3.58912 -0.292281 0
M  V30 2956 C 277.395 4.15293 -1.72778 0
M  V30 2957 C 278.714 4.38736 0.346194 0
M  V30 2958 H 275.833 0.732025 -0.0854878 0
M  V30 2959 H 278.475 1.67977 -0.887906 0
M  V30 2960 H 276.625 3.87582 0.26686 0
M  V30 2961 H 278.297 3.97486 -2.341 0
M  V30 2962 H 276.54 3.7022 -2.26096 0
M  V30 2963 H 277.211 5.24452 -1.72202 0
M  V30 2964 H 279.687 4.15897 -0.130035 0
M  V30 2965 H 278.563 5.48221 0.272932 0
M  V30 2966 H 278.824 4.18425 1.42734 0
M  V30 2967 N 277.883 0.443576 1.51229 0
M  V30 2968 C 279.131 -0.120557 2.0174 0
M  V30 2969 C 279.452 -1.42665 1.32935 0
M  V30 2970 O 278.722 -1.9028 0.465866 0
M  V30 2971 H 277.302 -0.0475426 0.745486 0
M  V30 2972 H 279.964 0.587711 1.85828 0
M  V30 2973 H 279.06 -0.291972 3.10731 0
M  V30 2974 N 279.361 -1.56624 0.175154 0
M  V30 2975 C 280.607 -1.9729 -0.469506 0
M  V30 2976 C 280.94 -1.06128 -1.62636 0
M  V30 2977 O 280.215 -0.109183 -1.94193 0
M  V30 2978 C 280.498 -3.47375 -0.948804 0
M  V30 2979 C 280.351 -4.49317 0.208491 0
M  V30 2980 C 281.67 -4.00652 -1.82116 0
M  V30 2981 H 278.789 -0.717317 -0.16919 0
M  V30 2982 H 281.431 -1.88184 0.262062 0
M  V30 2983 H 279.581 -3.55267 -1.57219 0
M  V30 2984 H 281.253 -4.53482 0.845682 0
M  V30 2985 H 279.496 -4.25121 0.863395 0
M  V30 2986 H 280.167 -5.51741 -0.169059 0
M  V30 2987 H 282.643 -3.95416 -1.2956 0
M  V30 2988 H 281.519 -5.06075 -2.12554 0
M  V30 2989 H 281.78 -3.44699 -2.7683 0
M  V30 2990 N 280.839 0.0985539 -1.57292 0
M  V30 2991 C 282.087 0.801092 -1.85545 0
M  V30 2992 C 282.408 1.79438 -0.763353 0
M  V30 2993 O 281.678 1.94763 0.21073 0
M  V30 2994 H 280.258 0.29884 -0.684619 0
M  V30 2995 H 282.92 0.0810064 -1.94732 0
M  V30 2996 H 282.016 1.3338 -2.82163 0
M  V30 2997 N 282.317 1.53212 0.369288 0
M  V30 2998 C 283.545 1.73119 1.13303 0
M  V30 2999 C 283.96 0.458455 1.83149 0
M  V30 3000 O 283.317 -0.568403 1.73423 0
M  V30 3001 C 283.368 2.89413 2.16616 0
M  V30 3002 O 283.089 4.11761 1.49614 0
M  V30 3003 C 284.59 3.21161 3.05566 0
M  V30 3004 H 281.81 0.579107 0.338934 0
M  V30 3005 H 284.354 1.99942 0.429338 0
M  V30 3006 H 282.509 2.64994 2.82589 0
M  V30 3007 H 282.923 4.76858 2.18419 0
M  V30 3008 H 284.397 4.05949 3.74045 0
M  V30 3009 H 284.874 2.36369 3.70171 0
M  V30 3010 H 285.48 3.47492 2.45213 0
M  V30 3011 N 283.795 -0.628877 1.44509 0
M  V30 3012 C 285.041 -1.39045 1.47629 0
M  V30 3013 C 285.374 -1.93892 0.109343 0
M  V30 3014 O 284.649 -1.7379 -0.87334 0
M  V30 3015 C 284.932 -2.55408 2.53848 0
M  V30 3016 C 284.785 -2.05896 3.99909 0
M  V30 3017 C 286.104 -3.5759 2.56549 0
M  V30 3018 H 283.223 -0.504232 0.537512 0
M  V30 3019 H 285.865 -0.710854 1.76201 0
M  V30 3020 H 284.015 -3.13384 2.29615 0
M  V30 3021 H 285.687 -1.52734 4.35282 0
M  V30 3022 H 283.93 -1.37061 4.11578 0
M  V30 3023 H 284.601 -2.89681 4.69882 0
M  V30 3024 H 287.077 -3.09419 2.78207 0
M  V30 3025 H 285.953 -4.36527 3.32769 0
M  V30 3026 H 286.214 -4.11808 1.60832 0
M  V30 3027 N 285.273 -1.31445 -0.869486 0
M  V30 3028 C 286.206 -1.13465 -1.97992 0
M  V30 3029 C 287.184 -0.0380291 -1.62556 0
M  V30 3030 O 288.368 -0.194544 -1.87493 0
M  V30 3031 C 285.495 -0.733822 -3.30655 0
M  V30 3032 C 284.541 -1.83356 -3.85075 0
M  V30 3033 S 285.374 -3.43909 -4.10472 0
M  V30 3034 C 286.53 -3.05763 -5.46132 0
M  V30 3035 H 286.763 -2.07471 -2.1294 0
M  V30 3036 H 284.296 -1.15936 -1.01972 0
M  V30 3037 H 286.254 -0.509306 -4.07328 0
M  V30 3038 H 284.915 0.187123 -3.13542 0
M  V30 3039 H 284.108 -1.50574 -4.80982 0
M  V30 3040 H 283.71 -2.01315 -3.15195 0
M  V30 3041 H 286.002 -2.54686 -6.27807 0
M  V30 3042 H 286.945 -4.00635 -5.83864 0
M  V30 3043 H 287.353 -2.43192 -5.09429 0
M  V30 3044 N 286.751 1.08385 -1.14413 0
M  V30 3045 C 288.028 1.77429 -0.823297 0
M  V30 3046 C 288.408 1.9974 0.683163 0
M  V30 3047 O 287.756 1.60739 1.62405 0
M  V30 3048 C 287.966 3.09004 -1.62227 0
M  V30 3049 C 289.314 3.83532 -1.82177 0
M  V30 3050 O 290.338 3.18786 -1.58915 0
M  V30 3051 O 289.197 4.99792 -2.21067 0
M  V30 3052 H 286.291 0.769999 -0.301712 0
M  V30 3053 H 288.837 1.14846 -1.24934 0
M  V30 3054 H 287.609 2.88316 -2.64555 0
M  V30 3055 H 287.232 3.79316 -1.19187 0
M  V30 3056 N 288.23 0.939286 1.26551 0
M  V30 3057 C 289.193 0.451987 2.24699 0
M  V30 3058 C 290.193 -0.435869 1.5478 0
M  V30 3059 O 291.383 -0.235314 1.72603 0
M  V30 3060 C 288.515 -0.348801 3.39111 0
M  V30 3061 H 289.708 1.3193 2.69322 0
M  V30 3062 H 287.261 0.721072 1.38673 0
M  V30 3063 H 287.996 -1.23444 2.99887 0
M  V30 3064 H 287.781 0.287945 3.91041 0
M  V30 3065 H 289.271 -0.679726 4.12031 0
M  V30 3066 N 289.708 -1.40897 0.706093 0
M  V30 3067 C 291.124 -1.55042 0.37869 0
M  V30 3068 C 291.324 -1.67944 -1.11342 0
M  V30 3069 O 290.38 -1.66372 -1.89938 0
M  V30 3070 C 291.693 -2.78398 1.13643 0
M  V30 3071 C 293.241 -2.92206 1.12181 0
M  V30 3072 C 293.716 -4.18463 1.86152 0
M  V30 3073 N 295.207 -4.25443 1.83173 0
M  V30 3074 C 295.942 -5.2202 2.37239 0
M  V30 3075 N 295.438 -6.24563 2.99821 0
M  V30 3076 N 297.231 -5.14033 2.27435 0
M  V30 3077 H 289.382 -1.30769 1.67372 0
M  V30 3078 H 291.645 -0.631653 0.706907 0
M  V30 3079 H 291.351 -2.7511 2.19106 0
M  V30 3080 H 291.225 -3.70228 0.721853 0
M  V30 3081 H 293.612 -2.95004 0.0754171 0
M  V30 3082 H 293.693 -2.01521 1.57554 0
M  V30 3083 H 293.337 -4.16427 2.90776 0
M  V30 3084 H 293.267 -5.08141 1.38206 0
M  V30 3085 H 295.758 -3.51976 1.37556 0
M  V30 3086 H 296.071 -6.94665 3.38616 0
M  V30 3087 H 294.416 -6.25035 3.03902 0
M  V30 3088 H 297.607 -4.3285 1.78208 0
M  V30 3089 H 297.78 -5.89129 2.69873 0
M  V30 3090 N 291.186 -0.45159 -1.50991 0
M  V30 3091 C 292.096 0.358431 -2.31846 0
M  V30 3092 C 293.112 1.01438 -1.41373 0
M  V30 3093 O 294.288 1.00663 -1.74439 0
M  V30 3094 C 291.353 1.43704 -3.15515 0
M  V30 3095 C 290.414 0.799742 -4.21785 0
M  V30 3096 C 289.647 1.82696 -5.01456 0
M  V30 3097 O 289.87 3.05105 -4.81941 0
M  V30 3098 O 288.804 1.40958 -5.85162 0
M  V30 3099 H 292.63 -0.302032 -3.02194 0
M  V30 3100 H 290.215 -0.213825 -1.47862 0
M  V30 3101 H 292.097 2.06227 -3.67489 0
M  V30 3102 H 290.772 2.08133 -2.47916 0
M  V30 3103 H 289.679 0.136084 -3.73852 0
M  V30 3104 H 291.012 0.198718 -4.91799 0
M  V30 3105 N 292.664 1.56529 -0.183458 0
M  V30 3106 C 293.91 1.97537 0.459036 0
M  V30 3107 C 294.243 1.06989 1.62071 0
M  V30 3108 O 293.518 0.11948 1.94133 0
M  V30 3109 C 293.801 3.47874 0.930368 0
M  V30 3110 C 293.654 4.492 -0.232317 0
M  V30 3111 C 294.973 4.01612 1.79989 0
M  V30 3112 H 292.092 0.718204 0.165383 0
M  V30 3113 H 294.734 1.88042 -0.272038 0
M  V30 3114 H 292.884 3.56095 1.55333 0
M  V30 3115 H 294.556 4.53027 -0.86972 0
M  V30 3116 H 292.799 4.24657 -0.885928 0
M  V30 3117 H 293.47 5.51823 0.139796 0
M  V30 3118 H 295.946 3.96097 1.27461 0
M  V30 3119 H 294.822 5.07195 2.09867 0
M  V30 3120 H 295.083 3.46163 2.74998 0
M  V30 3121 N 294.142 -0.090211 1.57342 0
M  V30 3122 C 295.075 -1.14035 1.97664 0
M  V30 3123 C 296.053 -1.38576 0.850616 0
M  V30 3124 O 297.237 -1.52255 1.11134 0
M  V30 3125 C 294.364 -2.48854 2.2976 0
M  V30 3126 C 293.41 -2.40564 3.52181 0
M  V30 3127 S 294.243 -1.81745 5.03715 0
M  V30 3128 C 295.399 -3.18178 5.38993 0
M  V30 3129 H 295.632 -0.796636 2.86428 0
M  V30 3130 H 293.165 -0.298072 1.51496 0
M  V30 3131 H 295.123 -3.26413 2.48927 0
M  V30 3132 H 293.784 -2.80393 1.41558 0
M  V30 3133 H 292.977 -3.39942 3.72096 0
M  V30 3134 H 292.579 -1.71135 3.32549 0
M  V30 3135 H 294.871 -4.14461 5.35937 0
M  V30 3136 H 295.814 -3.03062 6.39968 0
M  V30 3137 H 296.222 -3.17935 4.66452 0
M  V30 3138 N 295.62 -1.53406 -0.361157 0
M  V30 3139 C 296.869 -1.69022 -1.10066 0
M  V30 3140 C 297.182 -0.450838 -1.90333 0
M  V30 3141 O 298.388 -0.487617 -2.67085 0
M  V30 3142 C 296.844 -2.98812 -2.00598 0
M  V30 3143 C 296.452 -4.30027 -1.25621 0
M  V30 3144 C 298.196 -3.23795 -2.74513 0
M  V30 3145 C 296.103 -5.50903 -2.1508 0
M  V30 3146 H 295.033 -0.629776 -0.414606 0
M  V30 3147 H 297.684 -1.79907 -0.361348 0
M  V30 3148 H 296.066 -2.8174 -2.78278 0
M  V30 3149 H 297.24 -4.57745 -0.529739 0
M  V30 3150 H 295.555 -4.11522 -0.635496 0
M  V30 3151 H 298.152 -4.11289 -3.41681 0
M  V30 3152 H 298.495 -2.40045 -3.40123 0
M  V30 3153 H 299.028 -3.41561 -2.03914 0
M  V30 3154 H 295.767 -6.37143 -1.54041 0
M  V30 3155 H 295.287 -5.27459 -2.85565 0
M  V30 3156 H 296.966 -5.85865 -2.74538 0
M  V30 3157 N 297.098 0.621204 -1.44841 0
M  V30 3158 C 298.028 1.74366 -1.55303 0
M  V30 3159 C 299.009 1.65199 -0.405385 0
M  V30 3160 O 300.194 1.83807 -0.626787 0
M  V30 3161 C 297.324 3.12931 -1.50637 0
M  V30 3162 C 296.278 3.36896 -2.63979 0
M  V30 3163 C 295.604 4.75594 -2.44366 0
M  V30 3164 C 296.904 3.28483 -4.06074 0
M  V30 3165 H 298.598 1.65867 -2.49256 0
M  V30 3166 H 296.144 0.796558 -1.19962 0
M  V30 3167 H 298.097 3.9124 -1.56555 0
M  V30 3168 H 296.821 3.22237 -0.532057 0
M  V30 3169 H 295.48 2.60972 -2.57467 0
M  V30 3170 H 295.128 4.81616 -1.45105 0
M  V30 3171 H 294.828 4.92586 -3.20364 0
M  V30 3172 H 296.352 5.5612 -2.52117 0
M  V30 3173 H 297.766 3.96684 -4.13902 0
M  V30 3174 H 296.163 3.57008 -4.82354 0
M  V30 3175 H 297.233 2.26133 -4.28943 0
M  V30 3176 N 298.576 1.31904 0.862503 0
M  V30 3177 C 299.825 1.21373 1.61094 0
M  V30 3178 C 300.138 -0.22504 1.94301 0
M  V30 3179 O 301.344 -0.452121 2.67709 0
M  V30 3180 C 299.8 2.12525 2.9045 0
M  V30 3181 C 299.408 3.61441 2.64697 0
M  V30 3182 C 301.152 2.10813 3.68454 0
M  V30 3183 C 299.059 4.44578 3.90006 0
M  V30 3184 H 297.989 0.450705 0.604468 0
M  V30 3185 H 300.64 1.56811 0.953027 0
M  V30 3186 H 299.022 1.69994 3.57656 0
M  V30 3187 H 300.196 4.12264 2.05851 0
M  V30 3188 H 298.511 3.65205 2.00036 0
M  V30 3189 H 301.108 2.70167 4.61426 0
M  V30 3190 H 301.451 1.09713 4.01583 0
M  V30 3191 H 301.984 2.51583 3.08141 0
M  V30 3192 H 298.723 5.46461 3.62023 0
M  V30 3193 H 298.243 3.98508 4.48276 0
M  V30 3194 H 299.922 4.57176 4.5782 0
M  V30 3195 N 300.054 -1.07777 1.14986 0
M  V30 3196 C 301.282 -1.84018 0.945773 0
M  V30 3197 C 301.697 -1.81897 -0.505863 0
M  V30 3198 O 301.054 -1.22726 -1.35072 0
M  V30 3199 C 301.105 -3.31287 1.44677 0
M  V30 3200 O 300.826 -3.33449 2.84154 0
M  V30 3201 C 302.327 -4.24311 1.28355 0
M  V30 3202 H 299.547 -0.580716 0.336169 0
M  V30 3203 H 302.091 -1.36077 1.52654 0
M  V30 3204 H 300.246 -3.76594 0.908625 0
M  V30 3205 H 300.66 -4.25427 3.06777 0
M  V30 3206 H 302.134 -5.2573 1.68261 0
M  V30 3207 H 302.611 -4.38612 0.227184 0
M  V30 3208 H 303.217 -3.84836 1.81056 0
M  V30 3209 N 301.532 -0.945985 -1.26051 0
M  V30 3210 C 302.78 -0.594941 -1.93145 0
M  V30 3211 C 303.101 0.86953 -1.7454 0
M  V30 3212 O 302.371 1.61838 -1.10387 0
M  V30 3213 H 300.951 -0.217044 -0.714773 0
M  V30 3214 H 303.613 -1.20235 -1.53393 0
M  V30 3215 H 302.709 -0.816835 -3.01221 0
M  V30 3216 N 303.011 1.40521 -0.713556 0
M  V30 3217 C 303.974 2.29098 -0.0684347 0
M  V30 3218 C 304.974 1.45268 0.689472 0
M  V30 3219 O 306.164 1.66205 0.521677 0
M  V30 3220 C 303.296 3.28446 0.913024 0
M  V30 3221 H 304.489 2.87645 -0.84855 0
M  V30 3222 H 302.042 1.48809 -0.47809 0
M  V30 3223 H 302.777 2.74913 1.72027 0
M  V30 3224 H 302.562 3.90327 0.372472 0
M  V30 3225 H 304.052 3.94777 1.36165 0
M  V30 3226 N 304.489 0.459591 1.5075 0
M  V30 3227 C 305.439 -0.358926 2.25157 0
M  V30 3228 C 306.423 -0.971285 1.28276 0
M  V30 3229 O 307.615 -0.885739 1.53244 0
M  V30 3230 C 304.744 -1.44695 3.11317 0
M  V30 3231 C 303.83 -0.842894 4.15639 0
M  V30 3232 N 304.221 0.0299373 5.05791 0
M  V30 3233 C 302.519 -1.10809 4.32015 0
M  V30 3234 C 303.22 0.371563 5.80512 0
M  V30 3235 N 302.196 -0.250409 5.43023 0
M  V30 3236 H 305.998 0.313636 2.92222 0
M  V30 3237 H 303.512 0.273021 1.60089 0
M  V30 3238 H 305.509 -2.04641 3.63218 0
M  V30 3239 H 304.169 -2.12162 2.45799 0
M  V30 3240 H 305.18 0.39797 5.16369 0
M  V30 3241 H 301.857 -1.7786 3.77719 0
M  V30 3242 H 303.247 1.08319 6.63111 0
M  V30 3243 N 305.967 -1.56429 0.191757 0
M  V30 3244 C 306.914 -2.18936 -0.730454 0
M  V30 3245 C 307.884 -1.13557 -1.21219 0
M  V30 3246 O 309.069 -1.41794 -1.27668 0
M  V30 3247 C 306.209 -2.85013 -1.9458 0
M  V30 3248 C 305.322 -4.04909 -1.50574 0
M  V30 3249 C 304.457 -4.58853 -2.67634 0
M  V30 3250 C 303.496 -5.71114 -2.20217 0
M  V30 3251 N 302.633 -6.19478 -3.30442 0
M  V30 3252 H 307.473 -2.97389 -0.190664 0
M  V30 3253 H 305.01 -1.46869 -0.0823694 0
M  V30 3254 H 306.968 -3.21492 -2.65893 0
M  V30 3255 H 305.598 -2.09129 -2.45896 0
M  V30 3256 H 304.65 -3.74115 -0.688605 0
M  V30 3257 H 305.962 -4.86113 -1.11784 0
M  V30 3258 H 305.116 -4.97619 -3.47074 0
M  V30 3259 H 303.855 -3.76749 -3.09696 0
M  V30 3260 H 302.86 -5.31879 -1.3923 0
M  V30 3261 H 304.085 -6.55033 -1.79189 0
M  V30 3262 H 302.031 -5.40297 -3.72041 0
M  V30 3263 H 301.948 -6.95725 -2.9581 0
M  V30 3264 H 303.216 -6.62898 -4.10106 0
M  V30 3265 N 307.445 0.0818655 -1.57387 0
M  V30 3266 C 308.408 1.08265 -2.02018 0
M  V30 3267 C 309.408 1.32183 -0.915664 0
M  V30 3268 O 310.598 1.28073 -1.18081 0
M  V30 3269 C 307.73 2.42871 -2.39221 0
M  V30 3270 H 308.923 0.698204 -2.91659 0
M  V30 3271 H 306.476 0.327303 -1.52835 0
M  V30 3272 H 307.211 2.86167 -1.52575 0
M  V30 3273 H 306.996 2.26855 -3.19811 0
M  V30 3274 H 308.486 3.14826 -2.74362 0
M  V30 3275 N 308.923 1.53595 0.353017 0
M  V30 3276 C 310.17 1.70385 1.09431 0
M  V30 3277 C 310.498 0.462113 1.88931 0
M  V30 3278 O 309.753 -0.556074 1.87633 0
M  V30 3279 C 310.052 2.91313 2.07054 0
M  V30 3280 C 309.718 4.27308 1.43939 0
M  V30 3281 C 308.38 4.64287 1.26454 0
M  V30 3282 C 310.732 5.11829 0.983883 0
M  V30 3283 C 308.06 5.83412 0.620226 0
M  V30 3284 C 310.412 6.31611 0.353516 0
M  V30 3285 C 309.076 6.67293 0.166272 0
M  V30 3286 H 308.346 0.623484 0.400436 0
M  V30 3287 H 310.993 1.87799 0.374655 0
M  V30 3288 H 309.298 2.68463 2.85368 0
M  V30 3289 H 310.995 3.01497 2.64387 0
M  V30 3290 H 307.585 3.98198 1.58543 0
M  V30 3291 H 311.769 4.838 1.10685 0
M  V30 3292 H 307.025 6.09639 0.463681 0
M  V30 3293 H 311.199 6.964 -0.00757555 0
M  V30 3294 H 308.826 7.59461 -0.335047 0
M  V30 3295 N 310.401 -0.613514 1.45168 0
M  V30 3296 C 311.364 -1.7065 1.53007 0
M  V30 3297 C 312.364 -1.5548 0.410184 0
M  V30 3298 O 313.554 -1.60656 0.673455 0
M  V30 3299 C 310.686 -3.09875 1.42093 0
M  V30 3300 H 311.879 -1.65068 2.50385 0
M  V30 3301 H 309.432 -0.828728 1.32521 0
M  V30 3302 H 310.167 -3.21039 0.458769 0
M  V30 3303 H 309.952 -3.22293 2.23315 0
M  V30 3304 H 311.442 -3.895 1.50598 0
M  V30 3305 N 311.879 -1.3236 -0.855495 0
M  V30 3306 C 312.809 -1.23833 -1.97958 0
M  V30 3307 C 313.79 -0.122361 -1.69659 0
M  V30 3308 O 314.975 -0.30939 -1.9172 0
M  V30 3309 C 312.105 -0.959772 -3.33775 0
M  V30 3310 C 311.059 -2.03689 -3.76424 0
M  V30 3311 C 310.385 -1.61075 -5.09862 0
M  V30 3312 C 311.685 -3.4518 -3.9198 0
M  V30 3313 H 313.379 -2.1788 -2.0535 0
M  V30 3314 H 310.925 -1.04891 -0.986605 0
M  V30 3315 H 312.878 -0.886678 -4.11966 0
M  V30 3316 H 311.602 0.0163404 -3.26596 0
M  V30 3317 H 310.261 -2.10012 -3.00484 0
M  V30 3318 H 309.909 -0.622107 -4.99138 0
M  V30 3319 H 309.609 -2.33143 -5.39368 0
M  V30 3320 H 311.133 -1.55201 -5.90546 0
M  V30 3321 H 312.547 -3.4145 -4.60526 0
M  V30 3322 H 310.944 -4.1559 -4.32903 0
M  V30 3323 H 312.014 -3.84903 -2.94919 0
M  V30 3324 N 313.357 1.07166 -1.15556 0
M  V30 3325 C 314.587 1.83248 -0.954133 0
M  V30 3326 C 314.995 1.82449 0.500911 0
M  V30 3327 O 314.338 1.23575 1.35923 0
M  V30 3328 C 314.4 3.31393 -1.39351 0
M  V30 3329 C 314.064 3.5591 -2.86666 0
M  V30 3330 C 315.061 3.49695 -3.8472 0
M  V30 3331 C 312.746 3.83515 -3.24379 0
M  V30 3332 C 314.74 3.70737 -5.18491 0
M  V30 3333 C 312.427 4.04209 -4.58321 0
M  V30 3334 C 313.425 3.97815 -5.55186 0
M  V30 3335 O 313.113 4.17954 -6.86709 0
M  V30 3336 H 312.845 0.584941 -0.338851 0
M  V30 3337 H 315.399 1.36169 -1.53777 0
M  V30 3338 H 313.629 3.79292 -0.75329 0
M  V30 3339 H 315.318 3.88945 -1.16089 0
M  V30 3340 H 316.084 3.28368 -3.56931 0
M  V30 3341 H 311.963 3.87605 -2.49567 0
M  V30 3342 H 315.507 3.65663 -5.94085 0
M  V30 3343 H 311.404 4.25023 -4.85825 0
M  V30 3344 H 312.172 4.35291 -6.93155 0
M  V30 3345 N 314.835 0.952656 1.25548 0
M  V30 3346 C 315.782 0.47008 2.25962 0
M  V30 3347 C 316.752 -0.476384 1.59122 0
M  V30 3348 O 317.937 -0.39007 1.8677 0
M  V30 3349 C 315.077 -0.247881 3.44209 0
M  V30 3350 C 314.19 0.735591 4.25691 0
M  V30 3351 C 313.325 -0.0047306 5.312 0
M  V30 3352 C 312.364 0.969805 6.04368 0
M  V30 3353 N 311.501 0.260486 7.01617 0
M  V30 3354 H 316.341 1.33126 2.66611 0
M  V30 3355 H 313.878 0.66765 1.31076 0
M  V30 3356 H 315.836 -0.680695 4.1161 0
M  V30 3357 H 314.466 -1.07312 3.0444 0
M  V30 3358 H 313.518 1.28689 3.57971 0
M  V30 3359 H 314.83 1.47934 4.76358 0
M  V30 3360 H 313.984 -0.496275 6.04667 0
M  V30 3361 H 312.723 -0.781282 4.81401 0
M  V30 3362 H 311.728 1.47237 5.29718 0
M  V30 3363 H 312.953 1.74655 6.56256 0
M  V30 3364 H 310.899 -0.497364 6.54112 0
M  V30 3365 H 310.816 0.943362 7.50091 0
M  V30 3366 H 312.084 -0.209587 7.79218 0
M  V30 3367 N 316.313 -1.40141 0.720998 0
M  V30 3368 C 317.276 -2.29058 0.0805834 0
M  V30 3369 C 318.276 -1.45632 -0.681758 0
M  V30 3370 O 319.466 -1.6648 -0.512856 0
M  V30 3371 C 316.598 -3.28925 -0.895593 0
M  V30 3372 H 317.791 -2.87191 0.863793 0
M  V30 3373 H 315.344 -1.48553 0.485975 0
M  V30 3374 H 316.079 -2.75822 -1.70566 0
M  V30 3375 H 315.864 -3.90519 -0.351766 0
M  V30 3376 H 317.354 -3.95494 -1.34069 0
M  V30 3377 N 317.792 -0.46758 -1.50504 0
M  V30 3378 C 319.041 0.0902868 -2.01498 0
M  V30 3379 C 319.354 1.411 -1.35463 0
M  V30 3380 O 320.56 2.0536 -1.77594 0
M  V30 3381 C 319.016 0.21142 -3.59278 0
M  V30 3382 C 318.624 -1.10065 -4.34269 0
M  V30 3383 C 320.368 0.721433 -4.18325 0
M  V30 3384 C 318.275 -0.943505 -5.83825 0
M  V30 3385 H 317.205 0.037517 -0.753066 0
M  V30 3386 H 319.856 -0.601943 -1.73346 0
M  V30 3387 H 318.238 0.967352 -3.84003 0
M  V30 3388 H 319.412 -1.86726 -4.21272 0
M  V30 3389 H 317.727 -1.5415 -3.86816 0
M  V30 3390 H 320.324 0.85598 -5.27804 0
M  V30 3391 H 320.667 1.71186 -3.79475 0
M  V30 3392 H 321.2 0.0229843 -3.97793 0
M  V30 3393 H 317.939 -1.90719 -6.27141 0
M  V30 3394 H 317.459 -0.217213 -5.99407 0
M  V30 3395 H 319.138 -0.608715 -6.4413 0
M  V30 3396 N 319.27 1.56325 -0.20005 0
M  V30 3397 C 320.18 2.22931 0.730668 0
M  V30 3398 C 321.196 1.22997 1.23076 0
M  V30 3399 O 322.372 1.55748 1.27689 0
M  V30 3400 C 319.437 2.87948 1.93098 0
M  V30 3401 C 318.498 4.03166 1.47497 0
M  V30 3402 C 317.731 4.65073 2.61807 0
M  V30 3403 O 317.954 4.25913 3.79413 0
M  V30 3404 O 316.888 5.54452 2.34237 0
M  V30 3405 H 320.714 3.03084 0.193391 0
M  V30 3406 H 318.299 1.49371 0.0294621 0
M  V30 3407 H 320.181 3.29063 2.6324 0
M  V30 3408 H 318.856 2.10771 2.45677 0
M  V30 3409 H 317.763 3.66664 0.742201 0
M  V30 3410 H 319.096 4.82022 0.995796 0
M  V30 3411 N 320.748 -0.0735177 1.57428 0
M  V30 3412 C 321.658 -1.10547 2.06922 0
M  V30 3413 C 322.674 -1.42506 0.998402 0
M  V30 3414 O 323.85 -1.52717 1.31299 0
M  V30 3415 C 320.915 -2.40019 2.50184 0
M  V30 3416 C 319.976 -2.15046 3.71556 0
M  V30 3417 C 319.209 -3.38345 4.12745 0
M  V30 3418 O 319.432 -4.47399 3.53822 0
M  V30 3419 O 318.366 -3.2666 5.05546 0
M  V30 3420 H 322.192 -0.715013 2.95163 0
M  V30 3421 H 319.777 -0.287531 1.46607 0
M  V30 3422 H 321.659 -3.16218 2.78539 0
M  V30 3423 H 320.334 -2.78447 1.65072 0
M  V30 3424 H 319.241 -1.36558 3.48285 0
M  V30 3425 H 320.574 -1.81499 4.57514 0
M  V30 3426 N 322.226 -1.5378 -0.344866 0
M  V30 3427 C 323.474 -1.70625 -1.08311 0
M  V30 3428 C 323.795 -0.471447 -1.89215 0
M  V30 3429 O 323.065 0.514616 -1.8902 0
M  V30 3430 H 321.645 -0.629058 -0.402859 0
M  V30 3431 H 324.307 -1.9103 -0.386459 0
M  V30 3432 H 323.403 -2.57656 -1.76124 0
M  V30 3433 N 323.704 0.605807 -1.45491 0
M  V30 3434 C 324.95 1.36679 -1.49823 0
M  V30 3435 C 325.283 1.93693 -0.140175 0
M  V30 3436 O 324.558 1.75158 0.845581 0
M  V30 3437 C 324.841 2.51337 -2.57879 0
M  V30 3438 C 324.694 1.99508 -4.03134 0
M  V30 3439 C 326.013 3.53463 -2.62205 0
M  V30 3440 H 323.132 0.495617 -0.545466 0
M  V30 3441 H 325.774 0.682732 -1.7731 0
M  V30 3442 H 323.924 3.09691 -2.34571 0
M  V30 3443 H 325.596 1.45789 -4.37656 0
M  V30 3444 H 323.839 1.30496 -4.13707 0
M  V30 3445 H 324.51 2.82169 -4.74431 0
M  V30 3446 H 326.986 3.04953 -2.83095 0
M  V30 3447 H 325.862 4.31178 -3.39672 0
M  V30 3448 H 326.123 4.09197 -1.67363 0
M  V30 3449 N 325.182 1.32811 0.848464 0
M  V30 3450 C 326.13 1.22231 1.97895 0
M  V30 3451 C 327.124 0.125749 1.68933 0
M  V30 3452 O 328.33 0.289083 1.77663 0
M  V30 3453 H 324.705 0.379058 0.649476 0
M  V30 3454 H 326.676 2.17828 2.03945 0
M  V30 3455 C 325.425 0.968572 3.33937 0
M  V30 3456 H 324.748 1.80458 3.56756 0
M  V30 3457 H 326.188 0.934808 4.13567 0
M  V30 3458 C 324.647 -0.328628 3.35293 0
M  V30 3459 O 325.177 -1.33848 3.78745 0
M  V30 3460 N 323.383 -0.352788 2.88451 0
M  V30 3461 H 322.93 0.469541 2.53285 0
M  V30 3462 H 322.888 -1.22057 2.89741 0
M  V30 3463 N 326.66 -1.06551 1.16123 0
M  V30 3464 C 327.61 -2.12209 0.833736 0
M  V30 3465 C 328.594 -1.59825 -0.185656 0
M  V30 3466 O 329.786 -1.76994 0.0147906 0
M  V30 3467 C 326.915 -3.41674 0.333697 0
M  V30 3468 C 326.001 -4.00892 1.38372 0
M  V30 3469 N 326.392 -4.34256 2.59337 0
M  V30 3470 C 324.69 -4.28463 1.23836 0
M  V30 3471 C 325.391 -4.81291 3.26701 0
M  V30 3472 N 324.367 -4.80565 2.54083 0
M  V30 3473 H 328.169 -2.35849 1.75364 0
M  V30 3474 H 325.683 -1.24068 1.04789 0
M  V30 3475 H 327.68 -4.16822 0.0806918 0
M  V30 3476 H 326.34 -3.19475 -0.58017 0
M  V30 3477 H 327.351 -4.24687 2.96415 0
M  V30 3478 H 324.028 -4.15721 0.38504 0
M  V30 3479 H 325.418 -5.16332 4.29943 0
M  V30 3480 N 328.138 -0.959301 -1.25041 0
M  V30 3481 C 329.071 -0.427418 -2.24161 0
M  V30 3482 C 330.049 0.493837 -1.54919 0
M  V30 3483 O 331.233 0.427144 -1.83597 0
M  V30 3484 C 328.36 0.383893 -3.36517 0
M  V30 3485 C 327.406 -0.478431 -4.23808 0
M  V30 3486 S 328.239 -1.91353 -5.00144 0
M  V30 3487 C 329.395 -1.11077 -6.15965 0
M  V30 3488 H 329.628 -1.26743 -2.6893 0
M  V30 3489 H 327.161 -0.763714 -1.34189 0
M  V30 3490 H 329.119 0.846039 -4.01687 0
M  V30 3491 H 327.78 1.19878 -2.90324 0
M  V30 3492 H 326.973 0.14406 -5.03794 0
M  V30 3493 H 326.575 -0.87597 -3.63597 0
M  V30 3494 H 328.867 -0.361699 -6.76534 0
M  V30 3495 H 329.81 -1.88472 -6.82557 0
M  V30 3496 H 330.218 -0.638843 -5.60873 0
M  V30 3497 N 329.616 1.39756 -0.72842 0
M  V30 3498 C 330.862 2.01425 -0.282761 0
M  V30 3499 C 331.217 1.56754 1.11561 0
M  V30 3500 O 330.51 0.783482 1.74849 0
M  V30 3501 C 330.704 3.56002 -0.315776 0
M  V30 3502 C 330.533 4.1568 -1.71582 0
M  V30 3503 C 329.303 4.48555 -2.32651 0
M  V30 3504 C 331.501 4.39667 -2.66829 0
M  V30 3505 N 329.483 4.93698 -3.64877 0
M  V30 3506 C 330.854 4.86942 -3.8378 0
M  V30 3507 C 332.909 4.21724 -2.64675 0
M  V30 3508 C 331.612 5.18158 -4.98904 0
M  V30 3509 C 333.638 4.54049 -3.78937 0
M  V30 3510 C 333 5.01525 -4.94623 0
M  V30 3511 H 329.099 0.76756 -0.149583 0
M  V30 3512 H 331.683 1.69784 -0.952976 0
M  V30 3513 H 329.854 3.87046 0.324057 0
M  V30 3514 H 331.586 4.0443 0.147808 0
M  V30 3515 H 328.341 4.36128 -1.84633 0
M  V30 3516 H 328.765 5.20635 -4.32744 0
M  V30 3517 H 333.407 3.84228 -1.76433 0
M  V30 3518 H 331.125 5.54562 -5.87781 0
M  V30 3519 H 334.711 4.41795 -3.78561 0
M  V30 3520 H 333.591 5.26065 -5.81572 0
M  V30 3521 N 331.094 0.475555 1.50254 0
M  V30 3522 C 332.322 -0.0754493 2.06762 0
M  V30 3523 C 332.737 -1.33111 1.33891 0
M  V30 3524 O 332.094 -1.77846 0.40952 0
M  V30 3525 C 332.145 -0.359008 3.59713 0
M  V30 3526 O 331.866 0.846851 4.29837 0
M  V30 3527 C 333.367 -0.956484 4.32858 0
M  V30 3528 H 330.587 0.00907525 0.670939 0
M  V30 3529 H 333.131 0.665618 1.93364 0
M  V30 3530 H 331.286 -1.05001 3.72899 0
M  V30 3531 H 331.7 0.594162 5.21124 0
M  V30 3532 H 333.174 -1.10463 5.40834 0
M  V30 3533 H 333.651 -1.94775 3.93649 0
M  V30 3534 H 334.257 -0.303723 4.24214 0
M  V30 3535 N 332.573 -1.56217 0.208337 0
M  V30 3536 C 333.819 -1.98242 -0.427552 0
M  V30 3537 C 334.152 -1.09554 -1.60348 0
M  V30 3538 O 333.427 -0.15035 -1.93918 0
M  V30 3539 C 333.71 -3.4931 -0.874907 0
M  V30 3540 C 333.563 -4.48773 0.303751 0
M  V30 3541 C 334.882 -4.04424 -1.73577 0
M  V30 3542 H 332.001 -0.720744 -0.153936 0
M  V30 3543 H 334.643 -1.87586 0.30192 0
M  V30 3544 H 332.793 -3.58522 -1.49648 0
M  V30 3545 H 334.465 -4.51586 0.941682 0
M  V30 3546 H 332.708 -4.23194 0.953375 0
M  V30 3547 H 333.379 -5.51976 -0.0519883 0
M  V30 3548 H 335.855 -3.98075 -1.21143 0
M  V30 3549 H 334.731 -5.1047 -2.01771 0
M  V30 3550 H 334.992 -3.50494 -2.69456 0
M  V30 3551 N 334.051 0.0651679 -1.57465 0
M  V30 3552 C 335.276 0.779605 -1.9219 0
M  V30 3553 C 335.701 1.69988 -0.805333 0
M  V30 3554 O 335.059 1.79685 0.241435 0
M  V30 3555 C 335.107 1.54364 -3.2589 0
M  V30 3556 O 334.211 2.65474 -3.1559 0
M  V30 3557 H 333.552 0.212249 -0.629163 0
M  V30 3558 H 336.082 0.0314294 -2.04576 0
M  V30 3559 H 336.092 1.92146 -3.59922 0
M  V30 3560 H 334.767 0.868457 -4.06732 0
M  V30 3561 H 333.344 2.30501 -2.93128 0
M  V30 3562 N 335.529 1.53961 0.336706 0
M  V30 3563 C 336.492 1.81724 1.39675 0
M  V30 3564 C 337.492 0.688532 1.45313 0
M  V30 3565 O 338.682 0.956829 1.45569 0
M  V30 3566 C 335.814 1.96543 2.78538 0
M  V30 3567 H 337.007 2.76424 1.16318 0
M  V30 3568 H 334.56 1.45478 0.571474 0
M  V30 3569 H 335.295 1.0401 3.07168 0
M  V30 3570 H 335.08 2.78665 2.75841 0
M  V30 3571 H 336.57 2.19516 3.5525 0
M  V30 3572 N 337.007 -0.598083 1.45811 0
M  V30 3573 C 338.254 -1.35681 1.50323 0
M  V30 3574 C 338.582 -1.9393 0.148739 0
M  V30 3575 O 337.837 -1.76094 -0.853787 0
M  V30 3576 C 338.136 -2.51669 2.53766 0
M  V30 3577 C 337.802 -2.11508 3.98215 0
M  V30 3578 C 336.464 -2.0027 4.37545 0
M  V30 3579 C 338.816 -1.80308 4.89018 0
M  V30 3580 C 336.144 -1.56067 5.65562 0
M  V30 3581 C 338.496 -1.37589 6.17456 0
M  V30 3582 C 337.16 -1.24916 6.55708 0
M  V30 3583 H 336.43 -0.496492 0.550069 0
M  V30 3584 H 339.077 -0.675052 1.79207 0
M  V30 3585 H 337.382 -3.25225 2.18486 0
M  V30 3586 H 339.079 -3.09895 2.54492 0
M  V30 3587 H 335.669 -2.21185 3.67117 0
M  V30 3588 H 339.853 -1.87884 4.59362 0
M  V30 3589 H 335.109 -1.44886 5.93985 0
M  V30 3590 H 339.283 -1.12495 6.87254 0
M  V30 3591 H 336.91 -0.904386 7.54801 0
M  V30 3592 N 338.485 -1.33259 -0.841409 0
M  V30 3593 C 339.417 -1.19136 -1.95804 0
M  V30 3594 C 340.43 -0.122965 -1.62335 0
M  V30 3595 O 341.619 -0.373154 -1.74556 0
M  V30 3596 C 338.719 -0.804268 -3.29218 0
M  V30 3597 C 337.892 -1.96376 -3.90839 0
M  V30 3598 C 336.951 -1.55806 -5.02604 0
M  V30 3599 O 335.977 -2.27203 -5.21888 0
M  V30 3600 N 337.179 -0.461609 -5.78662 0
M  V30 3601 H 339.944 -2.15326 -2.08458 0
M  V30 3602 H 337.505 -1.25971 -1.017 0
M  V30 3603 H 339.497 -0.51501 -4.0141 0
M  V30 3604 H 338.067 0.0668809 -3.12528 0
M  V30 3605 H 337.287 -2.41879 -3.11269 0
M  V30 3606 H 338.575 -2.73966 -4.28742 0
M  V30 3607 H 337.973 0.132343 -5.65545 0
M  V30 3608 H 336.53 -0.232013 -6.51387 0
M  V30 3609 N 339.963 1.05934 -1.16686 0
M  V30 3610 C 340.895 2.13468 -0.834503 0
M  V30 3611 C 341.908 1.62013 0.15984 0
M  V30 3612 O 343.097 1.7838 -0.0654228 0
M  V30 3613 C 340.197 3.3817 -0.222361 0
M  V30 3614 C 339.37 4.18928 -1.25771 0
M  V30 3615 C 338.429 5.21985 -0.664703 0
M  V30 3616 O 337.455 5.53334 -1.33453 0
M  V30 3617 N 338.657 5.77919 0.546834 0
M  V30 3618 H 341.422 2.42578 -1.75999 0
M  V30 3619 H 338.983 1.21967 -1.06469 0
M  V30 3620 H 340.975 4.04266 0.187472 0
M  V30 3621 H 339.545 3.06655 0.606758 0
M  V30 3622 H 338.765 3.48433 -1.84358 0
M  V30 3623 H 340.053 4.69687 -1.95631 0
M  V30 3624 H 339.451 5.54721 1.10912 0
M  V30 3625 H 338.008 6.45573 0.898829 0
M  V30 3626 N 341.441 0.965919 1.2453 0
M  V30 3627 C 342.391 0.465731 2.23193 0
M  V30 3628 C 343.375 -0.451277 1.54442 0
M  V30 3629 O 344.567 -0.282489 1.74731 0
M  V30 3630 C 341.696 -0.244511 3.42428 0
M  V30 3631 C 340.782 0.691222 4.18429 0
M  V30 3632 N 341.173 1.82771 4.71623 0
M  V30 3633 C 339.471 0.501649 4.4317 0
M  V30 3634 C 340.172 2.41285 5.29298 0
M  V30 3635 N 339.148 1.69819 5.16394 0
M  V30 3636 H 342.95 1.33291 2.61937 0
M  V30 3637 H 340.464 0.824789 1.39896 0
M  V30 3638 H 342.461 -0.620056 4.12263 0
M  V30 3639 H 341.121 -1.10815 3.05205 0
M  V30 3640 H 342.132 2.20929 4.68413 0
M  V30 3641 H 338.809 -0.318177 4.16286 0
M  V30 3642 H 340.199 3.37181 5.8117 0
M  V30 3643 N 342.919 -1.39368 0.735821 0
M  V30 3644 C 344.33 -1.83313 0.354015 0
M  V30 3645 C 344.681 -1.61461 -1.11466 0
M  V30 3646 O 343.806 -1.10621 -1.85989 0
M  V30 3647 C 344.401 -3.32781 0.635769 0
M  V30 3648 C 342.96 -3.75142 0.307448 0
M  V30 3649 C 342.107 -2.62358 0.897974 0
M  V30 3650 H 345.058 -1.28349 0.933398 0
M  V30 3651 H 345.079 -3.80388 -0.0921773 0
M  V30 3652 H 344.591 -3.48654 1.70476 0
M  V30 3653 H 342.692 -3.64857 -0.755674 0
M  V30 3654 H 342.805 -4.72532 0.790583 0
M  V30 3655 H 341.169 -2.52624 0.324551 0
M  V30 3656 H 341.952 -2.81036 1.97164 0
M  V30 3657 N 344.397 -0.483516 -1.5 0
M  V30 3658 C 345.813 -0.138404 -1.58999 0
M  V30 3659 C 346.013 1.35597 -1.4905 0
M  V30 3660 O 345.069 2.13039 -1.35539 0
M  V30 3661 C 346.382 -0.699658 -2.92447 0
M  V30 3662 C 347.93 -0.664195 -3.05872 0
M  V30 3663 C 348.405 -1.20321 -4.41913 0
M  V30 3664 N 349.896 -1.16315 -4.48358 0
M  V30 3665 C 350.631 -1.55058 -5.52037 0
M  V30 3666 N 350.127 -2.01311 -6.62907 0
M  V30 3667 N 351.92 -1.46584 -5.42651 0
M  V30 3668 H 344.071 -1.45529 -1.5471 0
M  V30 3669 H 346.334 -0.60258 -0.731848 0
M  V30 3670 H 346.04 -1.747 -3.05242 0
M  V30 3671 H 345.914 -0.150194 -3.76901 0
M  V30 3672 H 348.301 0.374272 -2.92717 0
M  V30 3673 H 348.382 -1.25061 -2.23144 0
M  V30 3674 H 348.026 -2.24037 -4.55818 0
M  V30 3675 H 347.956 -0.592896 -5.23252 0
M  V30 3676 H 350.447 -0.824058 -3.68806 0
M  V30 3677 H 350.76 -2.2899 -7.38095 0
M  V30 3678 H 349.105 -2.05273 -6.63994 0
M  V30 3679 H 352.296 -1.10281 -4.54924 0
M  V30 3680 H 352.469 -1.77103 -6.23329 0
M  V30 3681 N 345.875 1.56104 -0.216619 0
M  V30 3682 C 347.103 2.02563 0.421413 0
M  V30 3683 C 347.518 1.0965 1.53695 0
M  V30 3684 O 346.875 0.10521 1.82196 0
M  V30 3685 C 346.926 3.48584 0.957665 0
M  V30 3686 O 346.647 4.37953 -0.113389 0
M  V30 3687 C 348.148 4.10664 1.66943 0
M  V30 3688 H 345.368 0.662944 0.103665 0
M  V30 3689 H 347.912 2.01793 -0.331629 0
M  V30 3690 H 346.067 3.49985 1.661 0
M  V30 3691 H 346.481 5.23704 0.288932 0
M  V30 3692 H 347.955 5.14622 1.99671 0
M  V30 3693 H 348.432 3.55373 2.58083 0
M  V30 3694 H 349.038 4.13098 1.01142 0
M  V30 3695 N 347.353 -0.0568162 1.57498 0
M  V30 3696 C 348.599 -0.75422 1.88253 0
M  V30 3697 C 348.932 -1.76461 0.810865 0
M  V30 3698 O 348.207 -1.93691 -0.177259 0
M  V30 3699 C 348.49 -1.44878 3.2967 0
M  V30 3700 C 348.343 -0.453789 4.47505 0
M  V30 3701 C 349.662 -2.38994 3.69554 0
M  V30 3702 H 346.781 -0.272724 0.684683 0
M  V30 3703 H 349.423 -0.0172113 1.89992 0
M  V30 3704 H 347.573 -2.077 3.28318 0
M  V30 3705 H 349.245 0.170371 4.60985 0
M  V30 3706 H 347.488 0.229552 4.33192 0
M  V30 3707 H 348.159 -0.977699 5.43273 0
M  V30 3708 H 350.635 -1.86239 3.72095 0
M  V30 3709 H 349.511 -2.84587 4.69363 0
M  V30 3710 H 349.772 -3.24461 3.00296 0
M  V30 3711 N 348.832 -1.54138 -0.328536 0
M  V30 3712 C 350.079 -1.72105 -1.06706 0
M  V30 3713 C 350.407 -0.492111 -1.88171 0
M  V30 3714 O 349.662 0.526153 -1.88494 0
M  V30 3715 C 349.961 -2.9457 -2.02393 0
M  V30 3716 C 349.627 -4.29544 -1.37122 0
M  V30 3717 C 348.289 -4.6624 -1.19052 0
M  V30 3718 C 350.641 -5.1333 -0.902331 0
M  V30 3719 C 347.969 -5.84325 -0.527331 0
M  V30 3720 C 350.321 -6.32094 -0.252988 0
M  V30 3721 C 348.985 -6.67473 -0.0600901 0
M  V30 3722 H 348.255 -0.629775 -0.390466 0
M  V30 3723 H 350.902 -1.88372 -0.34473 0
M  V30 3724 H 349.207 -2.72969 -2.81061 0
M  V30 3725 H 350.904 -3.05665 -2.59557 0
M  V30 3726 H 347.494 -4.0067 -1.52188 0
M  V30 3727 H 351.678 -4.855 -1.02974 0
M  V30 3728 H 346.934 -6.103 -0.366634 0
M  V30 3729 H 351.108 -6.96299 0.118366 0
M  V30 3730 H 348.735 -7.58832 0.455828 0
M  V30 3731 N 350.31 0.590341 -1.46126 0
M  V30 3732 C 351.556 1.35082 -1.51264 0
M  V30 3733 C 351.889 1.93534 -0.160711 0
M  V30 3734 O 351.164 1.76045 0.826956 0
M  V30 3735 C 351.447 2.48588 -2.6053 0
M  V30 3736 C 351.3 1.95221 -4.05227 0
M  V30 3737 C 352.619 3.50662 -2.6594 0
M  V30 3738 H 349.738 0.489803 -0.550692 0
M  V30 3739 H 352.38 0.663887 -1.78024 0
M  V30 3740 H 350.53 3.07186 -2.37843 0
M  V30 3741 H 352.202 1.41139 -4.39178 0
M  V30 3742 H 350.445 1.26101 -4.15068 0
M  V30 3743 H 351.116 2.77121 -4.77397 0
M  V30 3744 H 353.592 3.01934 -2.86313 0
M  V30 3745 H 352.468 4.27551 -3.44226 0
M  V30 3746 H 352.729 4.07399 -1.71694 0
M  V30 3747 N 351.788 1.33704 0.83433 0
M  V30 3748 C 353.028 1.26754 1.60352 0
M  V30 3749 C 353.392 -0.163182 1.91305 0
M  V30 3750 O 354.593 -0.3567 2.66423 0
M  V30 3751 C 352.864 2.12262 2.8754 0
M  V30 3752 S 354.423 2.22549 3.78176 0
M  V30 3753 H 351.241 0.450879 0.549753 0
M  V30 3754 H 353.843 1.68788 0.986444 0
M  V30 3755 H 352.547 3.15238 2.62779 0
M  V30 3756 H 352.078 1.71082 3.54252 0
M  V30 3757 H 354.093 1.3899 4.76336 0
M  V30 3758 N 353.266 -1.05314 1.17247 0
M  V30 3759 C 354.543 -1.75184 0.87005 0
M  V30 3760 C 354.923 -2.01481 -0.629965 0
M  V30 3761 O 354.271 -1.64988 -1.58086 0
M  V30 3762 C 354.481 -3.04594 1.70363 0
M  V30 3763 C 355.829 -3.78567 1.92281 0
M  V30 3764 O 356.853 -3.14461 1.67311 0
M  V30 3765 O 355.712 -4.93755 2.3424 0
M  V30 3766 H 352.806 -0.761729 0.322021 0
M  V30 3767 H 355.352 -1.11493 1.27935 0
M  V30 3768 H 354.124 -2.81201 2.72106 0
M  V30 3769 H 353.747 -3.76022 1.29202 0
M  V30 3770 N 354.744 -0.972509 -1.24016 0
M  V30 3771 C 355.654 -0.5143 -2.28893 0
M  V30 3772 C 356.67 0.427078 -1.68677 0
M  V30 3773 O 357.846 0.298939 -1.99169 0
M  V30 3774 C 354.911 0.183598 -3.46214 0
M  V30 3775 C 353.972 -0.798202 -4.21814 0
M  V30 3776 C 353.205 -0.133514 -5.33533 0
M  V30 3777 O 353.428 1.07714 -5.60137 0
M  V30 3778 O 352.362 -0.828103 -5.96176 0
M  V30 3779 H 356.188 -1.38629 -2.70214 0
M  V30 3780 H 353.773 -0.739769 -1.29799 0
M  V30 3781 H 355.655 0.575433 -4.17453 0
M  V30 3782 H 354.33 1.03048 -3.0686 0
M  V30 3783 H 353.237 -1.24059 -3.52931 0
M  V30 3784 H 354.57 -1.61364 -4.64997 0
M  V30 3785 N 356.222 1.38976 -0.743202 0
M  V30 3786 C 357.499 1.94351 -0.220705 0
M  V30 3787 C 357.879 1.67935 1.2791 0
M  V30 3788 O 357.227 1.01211 2.04862 0
M  V30 3789 C 357.437 3.44426 -0.563171 0
M  V30 3790 C 358.785 4.2144 -0.517046 0
M  V30 3791 O 359.809 3.52661 -0.500846 0
M  V30 3792 O 358.668 5.44032 -0.518806 0
M  V30 3793 H 355.762 0.825879 -0.043047 0
M  V30 3794 H 358.308 1.48429 -0.822618 0
M  V30 3795 H 357.08 3.5712 -1.59941 0
M  V30 3796 H 356.703 3.97543 0.0672883 0
M  V30 3797 N 357.7 0.491464 1.49741 0
M  V30 3798 C 358.663 -0.280906 2.27472 0
M  V30 3799 C 359.663 -0.902454 1.33088 0
M  V30 3800 O 360.853 -0.768465 1.56334 0
M  V30 3801 C 357.985 -1.40209 3.10732 0
M  V30 3802 H 359.178 0.401056 2.97206 0
M  V30 3803 H 356.731 0.246131 1.5435 0
M  V30 3804 H 357.466 -2.11849 2.45541 0
M  V30 3805 H 357.251 -0.961969 3.80117 0
M  V30 3806 H 358.741 -1.9464 3.69466 0
M  V30 3807 N 359.178 -1.55987 0.224894 0
M  V30 3808 C 360.406 -2.02784 -0.410665 0
M  V30 3809 C 360.821 -1.10464 -1.53112 0
M  V30 3810 O 360.178 -0.114871 -1.82138 0
M  V30 3811 C 360.229 -3.49087 -0.939165 0
M  V30 3812 O 359.95 -4.37887 0.136614 0
M  V30 3813 C 361.451 -4.11543 -1.64763 0
M  V30 3814 H 358.671 -0.663484 -0.100148 0
M  V30 3815 H 361.215 -2.01614 0.342326 0
M  V30 3816 H 359.37 -3.50861 -1.64242 0
M  V30 3817 H 359.784 -5.23849 -0.261155 0
M  V30 3818 H 361.258 -5.15673 -1.96939 0
M  V30 3819 H 361.735 -3.56736 -2.56195 0
M  V30 3820 H 362.341 -4.13629 -0.989503 0
M  V30 3821 N 360.656 0.0484629 -1.57525 0
M  V30 3822 C 361.586 1.0549 -2.08313 0
M  V30 3823 C 362.567 1.38929 -0.981463 0
M  V30 3824 O 363.752 1.48151 -1.25558 0
M  V30 3825 C 360.882 2.36162 -2.54646 0
M  V30 3826 C 359.836 2.17016 -3.68901 0
M  V30 3827 C 359.162 3.53278 -4.01371 0
M  V30 3828 C 360.462 1.57219 -4.98076 0
M  V30 3829 H 362.156 0.632195 -2.92649 0
M  V30 3830 H 359.702 0.302654 -1.40784 0
M  V30 3831 H 361.655 3.06882 -2.88793 0
M  V30 3832 H 360.379 2.80456 -1.67368 0
M  V30 3833 H 359.038 1.48733 -3.35073 0
M  V30 3834 H 358.686 3.95185 -3.11188 0
M  V30 3835 H 358.386 3.41299 -4.78318 0
M  V30 3836 H 359.91 4.25391 -4.38035 0
M  V30 3837 H 361.324 2.17832 -5.30304 0
M  V30 3838 H 359.721 1.55871 -5.79503 0
M  V30 3839 H 360.791 0.535956 -4.81929 0
M  V30 3840 N 362.134 1.5431 0.320358 0
M  V30 3841 C 363.044 1.86946 1.41734 0
M  V30 3842 C 364.06 0.761689 1.56443 0
M  V30 3843 O 365.236 1.05629 1.71477 0
M  V30 3844 C 362.301 2.09293 2.76401 0
M  V30 3845 C 361.362 3.33082 2.70841 0
M  V30 3846 C 360.595 3.54353 3.99086 0
M  V30 3847 O 360.818 2.79002 4.97508 0
M  V30 3848 O 359.752 4.47838 4.0215 0
M  V30 3849 H 363.578 2.80232 1.17062 0
M  V30 3850 H 361.163 1.40255 0.514673 0
M  V30 3851 H 363.045 2.25303 3.56113 0
M  V30 3852 H 361.72 1.19194 3.00956 0
M  V30 3853 H 360.627 3.22454 1.89668 0
M  V30 3854 H 361.96 4.23249 2.5124 0
M  V30 3855 N 363.613 -0.582584 1.46437 0
M  V30 3856 C 364.543 -1.70187 1.59871 0
M  V30 3857 C 365.524 -1.64066 0.449042 0
M  V30 3858 O 366.709 -1.82081 0.6753 0
M  V30 3859 C 363.839 -3.08827 1.58881 0
M  V30 3860 C 362.793 -3.29779 2.72819 0
M  V30 3861 C 362.119 -4.68947 2.5689 0
M  V30 3862 C 363.419 -3.17601 4.1464 0
M  V30 3863 H 365.113 -1.592 2.53566 0
M  V30 3864 H 362.659 -0.764472 1.22032 0
M  V30 3865 H 364.612 -3.86951 1.66873 0
M  V30 3866 H 363.336 -3.20713 0.617306 0
M  V30 3867 H 361.995 -2.54054 2.64296 0
M  V30 3868 H 361.643 -4.77599 1.57823 0
M  V30 3869 H 361.343 -4.83919 3.33312 0
M  V30 3870 H 362.867 -5.4924 2.66773 0
M  V30 3871 H 364.281 -3.8557 4.24274 0
M  V30 3872 H 362.678 -3.44094 4.9165 0
M  V30 3873 H 363.748 -2.14681 4.34788 0
M  V30 3874 N 365.091 -1.34144 -0.827227 0
M  V30 3875 C 366.038 -1.25364 -1.93785 0
M  V30 3876 C 367.008 -0.129774 -1.65592 0
M  V30 3877 O 368.193 -0.310024 -1.88264 0
M  V30 3878 C 365.333 -1.01064 -3.2997 0
M  V30 3879 C 364.446 -2.22185 -3.70484 0
M  V30 3880 C 363.581 -1.91203 -4.95595 0
M  V30 3881 C 362.62 -3.08491 -5.28677 0
M  V30 3882 N 361.757 -2.77421 -6.44967 0
M  V30 3883 H 366.597 -2.20347 -2.00627 0
M  V30 3884 H 364.134 -1.09558 -0.981608 0
M  V30 3885 H 366.092 -0.850139 -4.08446 0
M  V30 3886 H 364.722 -0.0975026 -3.22653 0
M  V30 3887 H 363.774 -2.4917 -2.87434 0
M  V30 3888 H 365.086 -3.0983 -3.90905 0
M  V30 3889 H 364.24 -1.71864 -5.81848 0
M  V30 3890 H 362.979 -1.00812 -4.77167 0
M  V30 3891 H 361.984 -3.28431 -4.40923 0
M  V30 3892 H 363.209 -3.99655 -5.49047 0
M  V30 3893 H 361.155 -1.89601 -6.28003 0
M  V30 3894 H 361.072 -3.58598 -6.6554 0
M  V30 3895 H 362.34 -2.61577 -7.34301 0
M  V30 3896 N 366.569 1.04691 -1.17803 0
M  V30 3897 C 367.815 1.78045 -0.970969 0
M  V30 3898 C 368.148 1.87686 0.498751 0
M  V30 3899 O 367.423 1.38035 1.37027 0
M  V30 3900 C 367.706 3.2166 -1.61884 0
M  V30 3901 C 367.559 3.20001 -3.161 0
M  V30 3902 C 368.878 4.1962 -1.3269 0
M  V30 3903 H 365.997 0.64633 -0.354155 0
M  V30 3904 H 368.639 1.22333 -1.45378 0
M  V30 3905 H 366.789 3.69232 -1.20831 0
M  V30 3906 H 368.461 2.80467 -3.66246 0
M  V30 3907 H 366.704 2.58203 -3.48588 0
M  V30 3908 H 367.375 4.21386 -3.56564 0
M  V30 3909 H 369.851 3.80567 -1.68249 0
M  V30 3910 H 368.727 5.18339 -1.80599 0
M  V30 3911 H 368.988 4.414 -0.248622 0
M  V30 3912 N 368.047 0.979072 1.23499 0
M  V30 3913 C 368.994 0.517904 2.24914 0
M  V30 3914 C 369.964 -0.442525 1.60097 0
M  V30 3915 O 371.149 -0.350365 1.87556 0
M  V30 3916 C 368.289 -0.174813 3.44657 0
M  V30 3917 C 367.402 0.825721 4.24035 0
M  V30 3918 C 366.537 0.107946 5.3109 0
M  V30 3919 C 365.576 1.09778 6.02175 0
M  V30 3920 N 364.713 0.40925 7.00906 0
M  V30 3921 H 369.553 1.38751 2.63727 0
M  V30 3922 H 367.09 0.695303 1.2963 0
M  V30 3923 H 369.048 -0.593233 4.12961 0
M  V30 3924 H 367.678 -1.0083 3.06648 0
M  V30 3925 H 366.73 1.36253 3.55161 0
M  V30 3926 H 368.042 1.58005 4.73113 0
M  V30 3927 H 367.196 -0.367904 6.05583 0
M  V30 3928 H 365.935 -0.678994 4.8295 0
M  V30 3929 H 364.94 1.5844 5.26476 0
M  V30 3930 H 366.165 1.88536 6.52404 0
M  V30 3931 H 364.111 -0.358506 6.5502 0
M  V30 3932 H 364.028 1.10226 7.47921 0
M  V30 3933 H 365.296 -0.0442557 7.79487 0
M  V30 3934 N 369.525 -1.3858 0.750561 0
M  V30 3935 C 370.753 -2.04471 0.316098 0
M  V30 3936 C 371.168 -1.56606 -1.05452 0
M  V30 3937 O 370.525 -0.737784 -1.66922 0
M  V30 3938 C 370.576 -3.60025 0.326275 0
M  V30 3939 O 370.297 -4.06133 1.6428 0
M  V30 3940 C 371.798 -4.43131 -0.122429 0
M  V30 3941 H 369.018 -0.65717 0.135528 0
M  V30 3942 H 371.562 -1.77329 1.01857 0
M  V30 3943 H 369.717 -3.86014 -0.327431 0
M  V30 3944 H 370.131 -5.00547 1.56693 0
M  V30 3945 H 371.605 -5.51963 -0.0641473 0
M  V30 3946 H 372.082 -4.23333 -1.16988 0
M  V30 3947 H 372.688 -4.22323 0.50229 0
M  V30 3948 N 371.003 -0.499398 -1.49478 0
M  V30 3949 C 372.249 0.0457576 -2.02748 0
M  V30 3950 C 372.582 1.36793 -1.37846 0
M  V30 3951 O 371.857 1.87596 -0.513601 0
M  V30 3952 C 372.14 0.199986 -3.59544 0
M  V30 3953 C 371.993 -1.1452 -4.34977 0
M  V30 3954 C 373.312 0.94137 -4.29914 0
M  V30 3955 H 370.431 0.0151552 -0.736844 0
M  V30 3956 H 373.073 -0.650498 -1.78518 0
M  V30 3957 H 371.223 0.793007 -3.8032 0
M  V30 3958 H 372.895 -1.77697 -4.25701 0
M  V30 3959 H 371.138 -1.73488 -3.97598 0
M  V30 3960 H 371.809 -0.990607 -5.43039 0
M  V30 3961 H 374.285 0.43844 -4.13784 0
M  V30 3962 H 373.161 1.01812 -5.39375 0
M  V30 3963 H 373.422 1.98471 -3.95046 0
M  V30 3964 N 372.481 1.55866 -0.233164 0
M  V30 3965 C 373.428 2.20796 0.67215 0
M  V30 3966 C 374.398 1.16731 1.18166 0
M  V30 3967 O 375.583 1.45129 1.23864 0
M  V30 3968 C 372.723 2.90072 1.86955 0
M  V30 3969 C 371.836 4.08759 1.39786 0
M  V30 3970 C 370.971 4.65787 2.55374 0
M  V30 3971 C 370.01 5.76752 2.04998 0
M  V30 3972 N 369.147 6.28021 3.13901 0
M  V30 3973 H 373.987 2.9779 0.111749 0
M  V30 3974 H 371.524 1.47036 0.0434007 0
M  V30 3975 H 373.482 3.28428 2.57276 0
M  V30 3976 H 372.112 2.15575 2.40265 0
M  V30 3977 H 371.164 3.7581 0.589173 0
M  V30 3978 H 372.476 4.88906 0.98856 0
M  V30 3979 H 371.63 5.06646 3.33758 0
M  V30 3980 H 370.369 3.84828 2.99598 0
M  V30 3981 H 369.374 5.35383 1.25079 0
M  V30 3982 H 370.599 6.59553 1.61759 0
M  V30 3983 H 368.545 5.49971 3.57586 0
M  V30 3984 H 368.462 7.03323 2.7726 0
M  V30 3985 H 369.73 6.73538 3.92386 0
M  V30 3986 N 373.959 -0.0401083 1.57549 0
M  V30 3987 C 375.189 -0.744115 1.92734 0
M  V30 3988 C 375.597 -1.70005 0.830348 0
M  V30 3989 O 374.94 -1.82576 -0.20286 0
M  V30 3990 C 375.002 -1.56516 3.2364 0
M  V30 3991 C 374.666 -0.7752 4.50377 0
M  V30 3992 C 375.663 -0.0803326 5.19838 0
M  V30 3993 C 373.348 -0.733002 4.96923 0
M  V30 3994 C 375.342 0.646154 6.34116 0
M  V30 3995 C 373.029 -0.00276321 6.111 0
M  V30 3996 C 374.027 0.685585 6.7955 0
M  V30 3997 O 373.715 1.40399 7.91545 0
M  V30 3998 H 373.447 -0.214861 0.640945 0
M  V30 3999 H 376.001 -0.00503675 2.05399 0
M  V30 4000 H 374.231 -2.3478 3.07271 0
M  V30 4001 H 375.92 -2.15076 3.44234 0
M  V30 4002 H 376.686 -0.104035 4.84888 0
M  V30 4003 H 372.565 -1.25827 4.43496 0
M  V30 4004 H 376.109 1.18398 6.87479 0
M  V30 4005 H 372.006 0.0229012 6.45496 0
M  V30 4006 H 372.774 1.31653 8.07843 0
M  V30 4007 N 375.437 -1.54477 -0.31217 0
M  V30 4008 C 376.684 -1.73227 -1.04875 0
M  V30 4009 C 377.012 -0.512042 -1.87639 0
M  V30 4010 O 376.267 0.506131 -1.89042 0
M  V30 4011 C 376.566 -2.967 -1.99258 0
M  V30 4012 C 376.232 -4.30974 -1.32559 0
M  V30 4013 C 374.894 -4.67477 -1.141 0
M  V30 4014 C 377.246 -5.14258 -0.847835 0
M  V30 4015 C 374.574 -5.84852 -0.465326 0
M  V30 4016 C 376.926 -6.32327 -0.185931 0
M  V30 4017 C 375.59 -6.67499 0.0107077 0
M  V30 4018 H 374.86 -0.633881 -0.383765 0
M  V30 4019 H 377.507 -1.88727 -0.324731 0
M  V30 4020 H 375.812 -2.75935 -2.7815 0
M  V30 4021 H 377.509 -3.08401 -2.563 0
M  V30 4022 H 374.099 -4.02262 -1.4793 0
M  V30 4023 H 378.283 -4.86565 -0.978192 0
M  V30 4024 H 373.539 -6.10654 -0.301883 0
M  V30 4025 H 377.713 -6.96135 0.192211 0
M  V30 4026 H 375.34 -7.58306 0.536287 0
M  V30 4027 N 376.915 0.57481 -1.46744 0
M  V30 4028 C 377.862 1.68329 -1.57905 0
M  V30 4029 C 378.832 1.60625 -0.422927 0
M  V30 4030 O 380.017 1.79721 -0.640711 0
M  V30 4031 C 377.157 3.06665 -1.58274 0
M  V30 4032 C 376.27 3.24935 -2.84678 0
M  V30 4033 C 375.405 4.53566 -2.76499 0
M  V30 4034 C 374.444 4.65207 -3.97806 0
M  V30 4035 N 373.581 5.85172 -3.87967 0
M  V30 4036 H 378.421 1.58127 -2.52587 0
M  V30 4037 H 375.958 0.770552 -1.25303 0
M  V30 4038 H 377.916 3.86745 -1.56473 0
M  V30 4039 H 376.546 3.15745 -0.671194 0
M  V30 4040 H 375.598 2.38405 -2.96424 0
M  V30 4041 H 376.91 3.29403 -3.7456 0
M  V30 4042 H 376.064 5.41885 -2.72848 0
M  V30 4043 H 374.803 4.51548 -1.8427 0
M  V30 4044 H 373.808 3.75304 -4.0178 0
M  V30 4045 H 375.033 4.68997 -4.9114 0
M  V30 4046 H 372.979 5.84137 -2.98529 0
M  V30 4047 H 372.896 5.90943 -4.71511 0
M  V30 4048 H 374.164 6.759 -3.88303 0
M  V30 4049 N 378.394 1.34581 0.820102 0
M  V30 4050 C 379.642 1.26845 1.57336 0
M  V30 4051 C 379.963 -0.160667 1.94337 0
M  V30 4052 O 379.233 -1.09396 1.6251 0
M  V30 4053 H 377.813 0.466514 0.583415 0
M  V30 4054 H 380.475 1.68526 0.979027 0
M  V30 4055 H 379.571 1.87513 2.4949 0
M  V30 4056 N 379.872 -1.04064 1.18357 0
M  V30 4057 C 380.802 -2.14001 0.934113 0
M  V30 4058 C 381.783 -1.69616 -0.128186 0
M  V30 4059 O 382.968 -1.94185 0.0244093 0
M  V30 4060 C 380.098 -3.44253 0.459066 0
M  V30 4061 C 379.052 -4.02261 1.46185 0
M  V30 4062 C 378.378 -5.27992 0.844322 0
M  V30 4063 C 379.678 -4.38432 2.83856 0
M  V30 4064 H 381.372 -2.35127 1.85352 0
M  V30 4065 H 378.918 -1.12998 0.892604 0
M  V30 4066 H 380.871 -4.20522 0.271907 0
M  V30 4067 H 379.595 -3.22813 -0.495912 0
M  V30 4068 H 378.254 -3.28074 1.63595 0
M  V30 4069 H 377.902 -5.02862 -0.117845 0
M  V30 4070 H 377.602 -5.67765 1.51384 0
M  V30 4071 H 379.126 -6.06938 0.667693 0
M  V30 4072 H 380.54 -5.05688 2.70098 0
M  V30 4073 H 378.937 -4.89254 3.47491 0
M  V30 4074 H 380.007 -3.4826 3.37406 0
M  V30 4075 N 381.35 -0.985608 -1.22978 0
M  V30 4076 C 382.283 -0.47487 -2.23204 0
M  V30 4077 C 383.261 0.460865 -1.55932 0
M  V30 4078 O 384.445 0.388105 -1.84461 0
M  V30 4079 C 381.572 0.312427 -3.37256 0
M  V30 4080 C 380.618 -0.568219 -4.22698 0
M  V30 4081 S 381.451 -2.01919 -4.95973 0
M  V30 4082 C 382.607 -1.24118 -6.1347 0
M  V30 4083 H 382.84 -1.32419 -2.66181 0
M  V30 4084 H 380.373 -0.792005 -1.32539 0
M  V30 4085 H 382.331 0.760645 -4.03391 0
M  V30 4086 H 380.992 1.13693 -2.92801 0
M  V30 4087 H 380.185 0.0371657 -5.03986 0
M  V30 4088 H 379.787 -0.952897 -3.61657 0
M  V30 4089 H 382.079 -0.505121 -6.75614 0
M  V30 4090 H 383.022 -2.02907 -6.78406 0
M  V30 4091 H 383.43 -0.757669 -5.59392 0
M  V30 4092 N 382.828 1.3818 -0.7579 0
M  V30 4093 C 383.758 2.33027 -0.148597 0
M  V30 4094 C 384.739 1.55085 0.69875 0
M  V30 4095 O 385.924 1.83384 0.639053 0
M  V30 4096 C 383.054 3.3928 0.742034 0
M  V30 4097 C 382.008 4.28 -0.00291946 0
M  V30 4098 C 381.334 5.25146 1.00625 0
M  V30 4099 C 382.634 5.08938 -1.17385 0
M  V30 4100 H 384.328 2.84231 -0.940909 0
M  V30 4101 H 381.874 1.36659 -0.453908 0
M  V30 4102 H 383.827 4.046 1.17799 0
M  V30 4103 H 382.551 2.86569 1.56671 0
M  V30 4104 H 381.21 3.64192 -0.419504 0
M  V30 4105 H 380.858 4.68721 1.8251 0
M  V30 4106 H 380.558 5.85361 0.512428 0
M  V30 4107 H 382.082 5.93342 1.44143 0
M  V30 4108 H 383.496 5.67474 -0.815224 0
M  V30 4109 H 381.893 5.7841 -1.59882 0
M  V30 4110 H 382.963 4.42424 -1.98468 0
M  V30 4111 N 384.306 0.507319 1.49211 0
M  V30 4112 C 385.552 -0.0350047 2.0277 0
M  V30 4113 C 385.885 -1.3606 1.38569 0
M  V30 4114 O 385.16 -1.87321 0.523542 0
M  V30 4115 C 385.443 -0.180916 3.59645 0
M  V30 4116 C 385.296 1.16825 4.34364 0
M  V30 4117 C 386.615 -0.918558 4.30407 0
M  V30 4118 H 383.734 -0.0112473 0.736914 0
M  V30 4119 H 386.376 0.659956 1.7817 0
M  V30 4120 H 384.526 -0.772826 3.80736 0
M  V30 4121 H 386.198 1.79952 4.24753 0
M  V30 4122 H 384.441 1.75594 3.96673 0
M  V30 4123 H 385.112 1.01939 5.42506 0
M  V30 4124 H 387.588 -0.41649 4.1401 0
M  V30 4125 H 386.464 -0.989505 5.39907 0
M  V30 4126 H 386.725 -1.96373 3.96093 0
M  V30 4127 N 385.784 -1.5574 0.241426 0
M  V30 4128 C 386.734 -2.17803 -0.674233 0
M  V30 4129 C 387.718 -1.13225 -1.14319 0
M  V30 4130 O 388.91 -1.39153 -1.09387 0
M  V30 4131 C 386.039 -2.87682 -1.87333 0
M  V30 4132 C 385.125 -3.99509 -1.42313 0
M  V30 4133 N 385.516 -5.01115 -0.686798 0
M  V30 4134 C 383.814 -4.11964 -1.70885 0
M  V30 4135 C 384.515 -5.79922 -0.454456 0
M  V30 4136 N 383.491 -5.34001 -1.01705 0
M  V30 4137 H 387.293 -2.93718 -0.103447 0
M  V30 4138 H 384.807 -1.62342 0.0435095 0
M  V30 4139 H 386.804 -3.3057 -2.54026 0
M  V30 4140 H 385.464 -2.13269 -2.4484 0
M  V30 4141 H 386.475 -5.16799 -0.337459 0
M  V30 4142 H 383.152 -3.48718 -2.2957 0
M  V30 4143 H 384.542 -6.71768 0.132992 0
M  V30 4144 N 387.262 0.0317525 -1.57568 0
M  V30 4145 C 388.21 1.05165 -2.07468 0
M  V30 4146 C 389.204 1.3761 -0.98792 0
M  V30 4147 O 390.41 1.36546 -1.17282 0
M  V30 4148 H 386.785 0.35666 -0.66204 0
M  V30 4149 H 388.756 0.604958 -2.92203 0
M  V30 4150 C 387.505 2.34488 -2.56731 0
M  V30 4151 H 386.828 2.10383 -3.39969 0
M  V30 4152 H 388.268 3.04203 -2.95358 0
M  V30 4153 C 386.727 3.03266 -1.46736 0
M  V30 4154 O 387.257 3.92988 -0.832069 0
M  V30 4155 N 385.463 2.6455 -1.20256 0
M  V30 4156 H 385.01 1.91674 -1.72102 0
M  V30 4157 H 384.968 3.10886 -0.468737 0
M  V30 4158 N 388.74 1.54641 0.303973 0
M  V30 4159 C 389.687 1.85386 1.37479 0
M  V30 4160 C 390.657 0.702528 1.50512 0
M  V30 4161 O 391.842 0.950867 1.65418 0
M  V30 4162 C 388.982 2.10413 2.73533 0
M  V30 4163 C 388.095 3.38049 2.68974 0
M  V30 4164 C 387.23 3.52934 3.97002 0
M  V30 4165 C 386.269 4.74373 3.86829 0
M  V30 4166 N 385.406 4.8608 5.06627 0
M  V30 4167 H 390.246 2.76732 1.1056 0
M  V30 4168 H 387.783 1.37034 0.534805 0
M  V30 4169 H 389.741 2.22919 3.52652 0
M  V30 4170 H 388.371 1.22338 2.98719 0
M  V30 4171 H 387.423 3.3418 1.81736 0
M  V30 4172 H 388.735 4.27288 2.57346 0
M  V30 4173 H 387.889 3.65088 4.84557 0
M  V30 4174 H 386.628 2.61824 4.1146 0
M  V30 4175 H 385.633 4.62255 2.97658 0
M  V30 4176 H 386.858 5.66888 3.73918 0
M  V30 4177 H 384.804 3.97891 5.21554 0
M  V30 4178 H 384.721 5.69315 4.9741 0
M  V30 4179 H 385.989 5.02587 5.95841 0
M  V30 4180 N 390.218 -0.567019 1.47046 0
M  V30 4181 C 391.148 -1.68482 1.61667 0
M  V30 4182 C 392.129 -1.6358 0.466418 0
M  V30 4183 O 393.314 -1.81354 0.694574 0
M  V30 4184 C 390.444 -3.07124 1.62148 0
M  V30 4185 C 389.398 -3.26867 2.76301 0
M  V30 4186 C 388.724 -4.66196 2.61849 0
M  V30 4187 C 390.024 -3.13186 4.17986 0
M  V30 4188 H 391.718 -1.56502 2.5524 0
M  V30 4189 H 389.264 -0.751486 1.22836 0
M  V30 4190 H 391.217 -3.8516 1.70968 0
M  V30 4191 H 389.941 -3.2004 0.651287 0
M  V30 4192 H 388.6 -2.51237 2.66975 0
M  V30 4193 H 388.248 -4.75898 1.62879 0
M  V30 4194 H 387.948 -4.80356 3.38425 0
M  V30 4195 H 389.472 -5.46379 2.72584 0
M  V30 4196 H 390.886 -3.81049 4.2834 0
M  V30 4197 H 389.283 -3.3886 4.95272 0
M  V30 4198 H 390.353 -2.10057 4.3704 0
M  V30 4199 N 391.696 -1.35014 -0.812953 0
M  V30 4200 C 392.942 -1.2812 -1.57204 0
M  V30 4201 C 393.275 0.145869 -1.93651 0
M  V30 4202 O 392.55 1.0937 -1.60836 0
M  V30 4203 C 392.833 -2.18162 -2.86492 0
M  V30 4204 C 392.686 -3.69454 -2.56561 0
M  V30 4205 C 394.005 -2.07439 -3.88145 0
M  V30 4206 H 391.124 -0.466746 -0.570366 0
M  V30 4207 H 393.766 -1.65357 -0.935783 0
M  V30 4208 H 391.916 -1.86535 -3.40789 0
M  V30 4209 H 393.588 -4.11493 -2.08497 0
M  V30 4210 H 391.831 -3.9005 -1.89851 0
M  V30 4211 H 392.502 -4.27835 -3.48799 0
M  V30 4212 H 394.978 -2.35228 -3.4323 0
M  V30 4213 H 393.854 -2.7265 -4.76396 0
M  V30 4214 H 394.115 -1.05439 -4.29343 0
M  V30 4215 N 393.175 1.03435 -1.18907 0
M  V30 4216 C 394.452 1.73778 -0.89781 0
M  V30 4217 C 394.832 2.02458 0.597832 0
M  V30 4218 O 394.18 1.67482 1.55441 0
M  V30 4219 C 394.39 3.01845 -1.75187 0
M  V30 4220 C 395.738 3.7546 -1.9828 0
M  V30 4221 O 396.762 3.11759 -1.72293 0
M  V30 4222 O 395.621 4.89966 -2.42065 0
M  V30 4223 H 392.715 0.75651 -0.334098 0
M  V30 4224 H 395.261 1.09444 -1.29693 0
M  V30 4225 H 394.033 2.76836 -2.76545 0
M  V30 4226 H 393.656 3.73919 -1.35167 0
M  V30 4227 N 394.653 0.992116 1.22453 0
M  V30 4228 C 396.064 0.702776 1.72968 0
M  V30 4229 C 396.415 -0.780399 1.80012 0
M  V30 4230 O 395.54 -1.61007 1.44589 0
M  V30 4231 C 396.135 1.26903 3.14135 0
M  V30 4232 C 394.694 1.02909 3.62059 0
M  V30 4233 C 393.841 1.38969 2.39964 0
M  V30 4234 H 396.792 1.16457 1.07812 0
M  V30 4235 H 396.813 0.647223 3.74955 0
M  V30 4236 H 396.325 2.34851 3.08977 0
M  V30 4237 H 394.426 -0.0337979 3.72585 0
M  V30 4238 H 394.539 1.69191 4.48231 0
M  V30 4239 H 392.903 0.808279 2.41535 0
M  V30 4240 H 393.686 2.4792 2.37467 0
M  V30 4241 N 396.131 -1.37776 0.765217 0
M  V30 4242 C 397.061 -2.32945 0.160953 0
M  V30 4243 C 398.042 -1.55454 -0.690516 0
M  V30 4244 O 399.227 -1.83721 -0.629318 0
M  V30 4245 C 396.357 -3.39669 -0.724031 0
M  V30 4246 C 395.311 -4.27992 0.0256173 0
M  V30 4247 C 394.637 -5.25673 -0.978383 0
M  V30 4248 C 395.937 -5.08309 1.20082 0
M  V30 4249 H 397.631 -2.83728 0.955969 0
M  V30 4250 H 395.177 -1.36416 0.461149 0
M  V30 4251 H 397.13 -4.05219 -1.15652 0
M  V30 4252 H 395.854 -2.87396 -1.5515 0
M  V30 4253 H 394.513 -3.63964 0.438812 0
M  V30 4254 H 394.161 -4.69682 -1.80022 0
M  V30 4255 H 393.861 -5.85625 -0.481378 0
M  V30 4256 H 395.385 -5.94098 -1.40995 0
M  V30 4257 H 396.799 -5.67034 0.845307 0
M  V30 4258 H 395.196 -5.77554 1.62947 0
M  V30 4259 H 396.266 -4.41365 2.00811 0
M  V30 4260 N 397.609 -0.515225 -1.4894 0
M  V30 4261 C 398.839 0.0205735 -2.0659 0
M  V30 4262 C 399.247 1.30064 -1.37405 0
M  V30 4263 O 398.59 1.78087 -0.450632 0
M  V30 4264 C 398.652 0.330124 -3.57981 0
M  V30 4265 C 398.316 -0.854295 -4.48944 0
M  V30 4266 C 399.313 -1.7487 -4.89609 0
M  V30 4267 C 396.998 -1.05712 -4.9105 0
M  V30 4268 C 398.992 -2.82996 -5.71132 0
M  V30 4269 C 396.679 -2.14154 -5.72347 0
M  V30 4270 C 397.677 -3.0263 -6.12294 0
M  V30 4271 O 397.365 -4.09198 -6.91962 0
M  V30 4272 H 397.097 -0.0236833 -0.675585 0
M  V30 4273 H 399.651 -0.715956 -1.92518 0
M  V30 4274 H 397.881 1.12044 -3.70112 0
M  V30 4275 H 399.57 0.806233 -3.97812 0
M  V30 4276 H 400.336 -1.60388 -4.57712 0
M  V30 4277 H 396.215 -0.377788 -4.59449 0
M  V30 4278 H 399.759 -3.52083 -6.02232 0
M  V30 4279 H 395.656 -2.28626 -6.03656 0
M  V30 4280 H 396.424 -4.06726 -7.10293 0
M  V30 4281 N 399.087 1.5561 -0.249682 0
M  V30 4282 C 400.312 2.03865 0.381305 0
M  V30 4283 C 400.737 1.12769 1.50548 0
M  V30 4284 O 400.095 0.121189 1.80895 0
M  V30 4285 C 400.143 3.50101 0.863816 0
M  V30 4286 O 399.247 3.62132 1.97318 0
M  V30 4287 H 398.588 0.658827 0.0827194 0
M  V30 4288 H 401.118 2.01105 -0.376552 0
M  V30 4289 H 401.128 3.90975 1.1663 0
M  V30 4290 H 399.803 4.1588 0.0411816 0
M  V30 4291 H 398.38 3.33155 1.67517 0
M  V30 4292 N 400.565 -0.0233959 1.57583 0
M  V30 4293 C 401.814 -0.712133 1.8871 0
M  V30 4294 C 402.127 -1.76217 0.848944 0
M  V30 4295 O 403.333 -2.50389 1.04964 0
M  V30 4296 C 401.789 -1.3177 3.3491 0
M  V30 4297 C 401.397 -0.303715 4.46969 0
M  V30 4298 C 403.141 -1.98598 3.75179 0
M  V30 4299 C 401.048 -0.917945 5.84233 0
M  V30 4300 H 399.978 -0.269735 0.704101 0
M  V30 4301 H 402.629 0.0333114 1.8347 0
M  V30 4302 H 401.011 -2.11304 3.34913 0
M  V30 4303 H 402.185 0.465325 4.58445 0
M  V30 4304 H 400.5 0.2628 4.1557 0
M  V30 4305 H 403.097 -2.45416 4.75053 0
M  V30 4306 H 403.44 -2.80659 3.07468 0
M  V30 4307 H 403.973 -1.25831 3.77374 0
M  V30 4308 H 400.712 -0.136633 6.55358 0
M  V30 4309 H 400.232 -1.65669 5.76467 0
M  V30 4310 H 401.911 -1.4236 6.31144 0
M  V30 4311 N 402.043 -1.548 -0.295768 0
M  V30 4312 C 402.99 -1.86113 -1.36494 0
M  V30 4313 C 403.96 -0.7105 -1.50137 0
M  V30 4314 O 405.145 -0.959626 -1.64912 0
M  V30 4315 C 402.285 -2.11861 -2.72413 0
M  V30 4316 C 401.398 -3.39471 -2.67177 0
M  V30 4317 C 400.533 -3.55035 -3.95125 0
M  V30 4318 C 399.572 -4.76418 -3.84308 0
M  V30 4319 N 398.709 -4.8876 -5.04042 0
M  V30 4320 H 403.549 -2.77314 -1.09091 0
M  V30 4321 H 401.086 -1.37315 -0.52753 0
M  V30 4322 H 403.044 -2.24786 -3.51464 0
M  V30 4323 H 401.674 -1.2392 -2.98066 0
M  V30 4324 H 400.726 -3.35139 -1.79962 0
M  V30 4325 H 402.038 -4.28646 -2.55076 0
M  V30 4326 H 401.192 -3.67653 -4.82614 0
M  V30 4327 H 399.931 -2.64002 -4.10066 0
M  V30 4328 H 398.936 -4.63827 -2.95202 0
M  V30 4329 H 400.161 -5.68863 -3.70906 0
M  V30 4330 H 398.107 -4.00652 -5.19436 0
M  V30 4331 H 398.024 -5.71945 -4.94384 0
M  V30 4332 H 399.292 -5.0574 -5.93167 0
M  V30 4333 N 403.521 0.559213 -1.47345 0
M  V30 4334 C 404.431 1.69388 -1.62311 0
M  V30 4335 C 405.447 1.6648 -0.505993 0
M  V30 4336 O 406.623 1.85964 -0.773262 0
M  V30 4337 C 403.688 3.05894 -1.63185 0
M  V30 4338 C 402.749 3.19885 -2.86307 0
M  V30 4339 C 401.982 4.49879 -2.87131 0
M  V30 4340 O 402.205 5.35217 -1.97229 0
M  V30 4341 O 401.139 4.67618 -3.78968 0
M  V30 4342 H 404.965 1.59706 -2.58317 0
M  V30 4343 H 402.55 0.728989 -1.30407 0
M  V30 4344 H 404.432 3.87133 -1.66451 0
M  V30 4345 H 403.107 3.15964 -0.70345 0
M  V30 4346 H 402.014 2.38052 -2.88587 0
M  V30 4347 H 403.347 3.14718 -3.78435 0
M  V30 4348 N 404.999 1.35443 0.805782 0
M  V30 4349 C 405.946 1.28431 1.91766 0
M  V30 4350 C 406.916 0.156102 1.65365 0
M  V30 4351 O 408.101 0.339936 1.87747 0
M  V30 4352 C 405.241 1.06301 3.2832 0
M  V30 4353 C 404.354 2.2805 3.66902 0
M  V30 4354 C 403.489 1.99064 4.92491 0
M  V30 4355 C 402.528 3.16863 5.23703 0
M  V30 4356 N 401.665 2.87647 6.40471 0
M  V30 4357 H 406.505 2.23511 1.97096 0
M  V30 4358 H 404.042 1.11105 0.964054 0
M  V30 4359 H 406 0.915012 4.07042 0
M  V30 4360 H 404.63 0.148822 3.22457 0
M  V30 4361 H 403.682 2.53711 2.83434 0
M  V30 4362 H 404.994 3.1601 3.85927 0
M  V30 4363 H 404.148 1.81099 5.7904 0
M  V30 4364 H 402.887 1.0839 4.75503 0
M  V30 4365 H 401.892 3.35404 4.35642 0
M  V30 4366 H 403.117 4.08339 5.4262 0
M  V30 4367 H 401.063 1.99568 6.24907 0
M  V30 4368 H 400.98 3.69141 6.59751 0
M  V30 4369 H 402.248 2.73226 7.30047 0
M  V30 4370 N 406.477 -1.02803 1.19454 0
M  V30 4371 C 407.387 -2.14575 0.948408 0
M  V30 4372 C 408.403 -1.73757 -0.091871 0
M  V30 4373 O 409.579 -2.01185 0.0929654 0
M  V30 4374 C 406.644 -3.43202 0.491265 0
M  V30 4375 C 405.705 -3.98328 1.60103 0
M  V30 4376 C 404.938 -5.20816 1.16561 0
M  V30 4377 O 405.161 -5.70392 0.0295238 0
M  V30 4378 O 404.095 -5.68801 1.96849 0
M  V30 4379 H 407.921 -2.38202 1.88397 0
M  V30 4380 H 405.506 -1.12989 0.977433 0
M  V30 4381 H 407.388 -4.20687 0.245015 0
M  V30 4382 H 406.063 -3.21018 -0.415851 0
M  V30 4383 H 404.97 -3.22174 1.90144 0
M  V30 4384 H 406.303 -4.24879 2.48473 0
M  V30 4385 N 407.956 -0.998596 -1.21925 0
M  V30 4386 C 409.184 -0.696286 -1.94832 0
M  V30 4387 C 409.599 0.740032 -1.73692 0
M  V30 4388 O 408.956 1.5 -1.03953 0
M  V30 4389 C 409.007 -0.999833 -3.47398 0
M  V30 4390 O 408.728 -2.37972 -3.67833 0
M  V30 4391 C 410.229 -0.716025 -4.37479 0
M  V30 4392 H 407.449 -0.257111 -0.619786 0
M  V30 4393 H 409.993 -1.33491 -1.54921 0
M  V30 4394 H 408.148 -0.406918 -3.85257 0
M  V30 4395 H 408.562 -2.48338 -4.61983 0
M  V30 4396 H 410.036 -0.978642 -5.43256 0
M  V30 4397 H 410.513 0.349968 -4.37803 0
M  V30 4398 H 411.119 -1.29025 -4.05256 0
M  V30 4399 N 409.434 1.37368 -0.772513 0
M  V30 4400 C 410.344 2.34053 -0.160081 0
M  V30 4401 C 411.36 1.60216 0.678728 0
M  V30 4402 O 412.536 1.92303 0.59847 0
M  V30 4403 C 409.601 3.3939 0.708182 0
M  V30 4404 C 408.662 4.29048 -0.147172 0
M  V30 4405 C 407.895 5.29354 0.679744 0
M  V30 4406 O 408.118 5.3723 1.91678 0
M  V30 4407 O 407.052 6.01835 0.0885444 0
M  V30 4408 H 410.878 2.88159 -0.959053 0
M  V30 4409 H 408.463 1.39543 -0.533685 0
M  V30 4410 H 410.345 4.03839 1.20384 0
M  V30 4411 H 409.02 2.8761 1.48533 0
M  V30 4412 H 407.927 3.67697 -0.689205 0
M  V30 4413 H 409.26 4.84134 -0.887423 0
M  V30 4414 N 410.912 0.523116 1.48665 0
M  V30 4415 C 411.859 -0.243398 2.29513 0
M  V30 4416 C 412.829 -0.940139 1.36933 0
M  V30 4417 O 414.014 -0.942503 1.65896 0
M  V30 4418 C 411.154 -1.28855 3.20141 0
M  V30 4419 C 410.267 -0.60135 4.27794 0
M  V30 4420 C 409.402 -1.62884 5.05611 0
M  V30 4421 C 408.441 -0.924726 6.05075 0
M  V30 4422 N 407.578 -1.89744 6.75975 0
M  V30 4423 H 412.418 0.452234 2.94549 0
M  V30 4424 H 409.955 0.234858 1.45213 0
M  V30 4425 H 411.913 -1.90674 3.71079 0
M  V30 4426 H 410.543 -1.95266 2.57043 0
M  V30 4427 H 409.595 0.130623 3.80176 0
M  V30 4428 H 410.907 -0.0481585 4.98777 0
M  V30 4429 H 410.061 -2.32149 5.60528 0
M  V30 4430 H 408.8 -2.21592 4.34452 0
M  V30 4431 H 407.805 -0.217966 5.49368 0
M  V30 4432 H 409.03 -0.343851 6.78229 0
M  V30 4433 H 406.976 -2.47373 6.07571 0
M  V30 4434 H 406.893 -1.3955 7.43009 0
M  V30 4435 H 408.161 -2.58229 7.35485 0
M  V30 4436 N 412.39 -1.55475 0.257931 0
M  V30 4437 C 413.615 -2.04064 -0.370488 0
M  V30 4438 C 414.04 -1.13565 -1.49948 0
M  V30 4439 O 413.398 -0.130781 -1.80828 0
M  V30 4440 C 413.446 -3.50554 -0.845237 0
M  V30 4441 O 412.55 -3.63173 -1.95394 0
M  V30 4442 H 411.891 -0.659257 -0.0792243 0
M  V30 4443 H 414.421 -2.00903 0.387212 0
M  V30 4444 H 414.431 -3.91588 -1.14555 0
M  V30 4445 H 413.106 -4.15896 -0.0191259 0
M  V30 4446 H 411.683 -3.34039 -1.65748 0
M  V30 4447 N 413.868 0.0150385 -1.57593 0
M  V30 4448 C 414.8 1.03912 -2.04291 0
M  V30 4449 C 415.813 1.31618 -0.958146 0
M  V30 4450 O 417.002 1.28859 -1.23522 0
M  V30 4451 C 414.102 2.37749 -2.41514 0
M  V30 4452 C 413.275 2.29198 -3.72541 0
M  V30 4453 C 412.334 3.45598 -3.96797 0
M  V30 4454 O 411.36 3.24461 -4.67668 0
M  V30 4455 N 412.562 4.67945 -3.43523 0
M  V30 4456 H 415.327 0.64099 -2.92765 0
M  V30 4457 H 412.888 0.20272 -1.60626 0
M  V30 4458 H 414.88 3.14364 -2.54867 0
M  V30 4459 H 413.45 2.69357 -1.58637 0
M  V30 4460 H 412.67 1.3759 -3.69408 0
M  V30 4461 H 413.958 2.20642 -4.5847 0
M  V30 4462 H 413.356 4.88017 -2.86104 0
M  V30 4463 H 411.913 5.41878 -3.62232 0
M  V30 4464 N 415.346 1.54954 0.287554 0
M  V30 4465 C 416.571 1.79209 1.04397 0
M  V30 4466 C 416.996 0.556431 1.79682 0
M  V30 4467 O 416.354 -0.493518 1.74454 0
M  V30 4468 C 416.402 3.00739 1.98969 0
M  V30 4469 O 415.506 2.74805 3.075 0
M  V30 4470 H 414.847 0.592755 0.299227 0
M  V30 4471 H 417.377 2.02068 0.320886 0
M  V30 4472 H 417.387 3.29077 2.4119 0
M  V30 4473 H 416.062 3.90329 1.43582 0
M  V30 4474 H 414.639 2.57523 2.69697 0
M  V30 4475 N 416.824 -0.551391 1.4764 0
M  V30 4476 C 418.049 -1.33837 1.58437 0
M  V30 4477 C 418.474 -1.866 0.237063 0
M  V30 4478 O 417.832 -1.6328 -0.787994 0
M  V30 4479 C 417.88 -2.48014 2.61766 0
M  V30 4480 O 416.984 -3.50419 2.1744 0
M  V30 4481 H 416.325 -0.397299 0.532024 0
M  V30 4482 H 418.855 -0.665759 1.93465 0
M  V30 4483 H 418.865 -2.94503 2.82369 0
M  V30 4484 H 417.54 -2.08969 3.5959 0
M  V30 4485 H 416.117 -3.10196 2.06961 0
M  V30 4486 N 418.302 -1.35869 -0.798587 0
M  V30 4487 C 419.249 -1.29446 -1.91082 0
M  V30 4488 C 420.219 -0.16487 -1.6528 0
M  V30 4489 O 421.404 -0.349888 -1.87564 0
M  V30 4490 C 418.544 -1.0804 -3.27752 0
M  V30 4491 C 417.657 -2.29993 -3.65687 0
M  V30 4492 C 416.792 -2.01673 -4.91428 0
M  V30 4493 C 415.831 -3.19636 -5.22015 0
M  V30 4494 N 414.968 -2.91039 -6.38937 0
M  V30 4495 H 419.808 -2.24553 -1.95907 0
M  V30 4496 H 417.345 -1.11615 -0.958148 0
M  V30 4497 H 419.303 -0.936586 -4.06551 0
M  V30 4498 H 417.933 -0.16592 -3.22373 0
M  V30 4499 H 416.985 -2.55211 -2.82085 0
M  V30 4500 H 418.297 -3.18052 -3.84245 0
M  V30 4501 H 417.451 -1.84168 -5.78072 0
M  V30 4502 H 416.19 -1.10911 -4.74921 0
M  V30 4503 H 415.195 -3.37709 -4.33858 0
M  V30 4504 H 416.42 -4.11211 -5.40447 0
M  V30 4505 H 414.366 -2.0288 -6.2384 0
M  V30 4506 H 414.283 -3.72635 -6.57784 0
M  V30 4507 H 415.551 -2.77093 -7.28587 0
M  V30 4508 N 419.78 1.02168 -1.19998 0
M  V30 4509 C 420.727 2.10601 -0.944228 0
M  V30 4510 C 421.697 1.65639 0.123664 0
M  V30 4511 O 422.882 1.9079 -0.0199941 0
M  V30 4512 C 420.022 3.41504 -0.496865 0
M  V30 4513 C 419.135 3.99973 -1.63234 0
M  V30 4514 C 418.27 5.18915 -1.13579 0
M  V30 4515 C 417.309 5.69456 -2.24468 0
M  V30 4516 N 416.446 6.79665 -1.76068 0
M  V30 4517 H 421.286 2.31814 -1.8726 0
M  V30 4518 H 418.823 1.13686 -0.933483 0
M  V30 4519 H 420.781 4.16626 -0.218843 0
M  V30 4520 H 419.411 3.2038 0.394508 0
M  V30 4521 H 418.463 3.21997 -2.0254 0
M  V30 4522 H 419.775 4.33492 -2.46752 0
M  V30 4523 H 418.929 6.01222 -0.813429 0
M  V30 4524 H 417.668 4.8695 -0.270434 0
M  V30 4525 H 416.673 4.85757 -2.57526 0
M  V30 4526 H 417.898 6.03459 -3.11472 0
M  V30 4527 H 415.844 6.49538 -0.918516 0
M  V30 4528 H 415.761 7.12349 -2.5317 0
M  V30 4529 H 417.029 7.65549 -1.46817 0
M  V30 4530 N 421.258 1.00505 1.21394 0
M  V30 4531 C 422.669 0.721082 1.72213 0
M  V30 4532 C 423.02 -0.761263 1.80829 0
M  V30 4533 O 422.145 -1.59464 1.46288 0
M  V30 4534 C 422.74 1.30228 3.12772 0
M  V30 4535 C 421.299 1.06743 3.60947 0
M  V30 4536 C 420.446 1.41507 2.38477 0
M  V30 4537 H 423.397 1.17594 1.06571 0
M  V30 4538 H 423.418 0.686955 3.74247 0
M  V30 4539 H 422.93 2.38115 3.06468 0
M  V30 4540 H 421.031 0.00572162 3.726 0
M  V30 4541 H 421.144 1.73936 4.46411 0
M  V30 4542 H 419.508 0.833852 2.40664 0
M  V30 4543 H 420.291 2.50424 2.34824 0
M  V30 4544 N 422.737 -1.36956 0.779787 0
M  V30 4545 C 423.967 -2.03459 0.358877 0
M  V30 4546 C 424.375 -1.58939 -1.02641 0
M  V30 4547 O 423.718 -0.769777 -1.66794 0
M  V30 4548 C 423.78 -3.5796 0.332393 0
M  V30 4549 C 423.444 -4.25644 1.66362 0
M  V30 4550 C 424.441 -4.49205 2.61746 0
M  V30 4551 C 422.126 -4.63313 1.94027 0
M  V30 4552 C 424.12 -5.09503 3.82996 0
M  V30 4553 C 421.807 -5.2333 3.15546 0
M  V30 4554 C 422.805 -5.46363 4.0985 0
M  V30 4555 O 422.493 -6.05122 5.29228 0
M  V30 4556 H 422.225 -0.659767 0.147254 0
M  V30 4557 H 424.779 -1.76111 1.05708 0
M  V30 4558 H 423.009 -3.84388 -0.422237 0
M  V30 4559 H 424.698 -4.05852 -0.0625389 0
M  V30 4560 H 425.464 -4.20508 2.41657 0
M  V30 4561 H 421.343 -4.44715 1.21448 0
M  V30 4562 H 424.887 -5.27397 4.56617 0
M  V30 4563 H 420.784 -5.51451 3.35517 0
M  V30 4564 H 421.552 -6.23595 5.30161 0
M  V30 4565 N 424.215 -0.530993 -1.48385 0
M  V30 4566 C 425.44 0.000729535 -2.074 0
M  V30 4567 C 425.865 1.27298 -1.3848 0
M  V30 4568 O 425.223 1.75599 -0.451081 0
M  V30 4569 C 425.271 0.206697 -3.60007 0
M  V30 4570 O 424.375 1.27514 -3.92191 0
M  V30 4571 H 423.716 -0.039583 -0.662819 0
M  V30 4572 H 426.246 -0.739194 -1.9078 0
M  V30 4573 H 426.256 0.42904 -4.05738 0
M  V30 4574 H 424.931 -0.722675 -4.09573 0
M  V30 4575 H 423.508 1.03537 -3.58238 0
M  V30 4576 N 425.693 1.55336 -0.266172 0
M  V30 4577 C 426.97 1.91372 0.404486 0
M  V30 4578 C 427.35 1.18935 1.74407 0
M  V30 4579 O 426.698 0.3132 2.26343 0
M  V30 4580 C 426.908 3.44581 0.553593 0
M  V30 4581 C 428.256 4.16196 0.840618 0
M  V30 4582 O 429.28 3.50426 0.638739 0
M  V30 4583 O 428.139 5.32567 1.22618 0
M  V30 4584 H 425.233 0.797194 0.220025 0
M  V30 4585 H 427.779 1.66813 -0.311664 0
M  V30 4586 H 426.551 3.89357 -0.389498 0
M  V30 4587 H 426.174 3.75065 1.31955 0
M  V30 4588 O 427.21 0.131478 1.60964 0
M  V30 4589 H 427.901 -0.465131 1.88033 0
M  V30 END ATOM
M  V30 BEGIN BOND
M  V30 END BOND
M  V30 END CTAB
M  END
$$$$
