drugbank_target|Q9UN88 Gamma-aminobutyric acid receptor subunit theta (DB00186; DB00189; DB00228; DB00231; DB00237; DB00241; DB00252; DB00292; DB00306; DB00312; DB00349; DB00371; DB00402; DB00404; DB00463; DB00475; DB00543; DB00546; DB00555; DB00603; DB00628; DB00659; DB00683; DB00690; DB00753; DB00794; DB00801; DB00818; DB00829; DB00842; DB00897; DB01028; DB01043; DB01068; DB01107; DB01159; DB01189; DB01205; DB01215; DB01236; DB01437; DB01489; DB01511; DB01544; DB01545; DB01553; DB01558; DB01559; DB01587; DB01588; DB01589; DB01594; DB01595; DB01708; DB01956; DB09017; DB09118; DB09166; DB11582; DB11859; DB11901; DB12404; DB12537; DB13335; DB13437; DB13643; DB13837; DB13872; DB14028; DB14672; DB14715; DB14719; DB15489)
 OpenBabel12092120353D

  0  0  0     0  0            999 V3000
M  V30 BEGIN CTAB
M  V30 COUNTS 10006 10142 0 0 0
M  V30 BEGIN ATOM
M  V30 1 H -0.908 1.98254 -0.117106 0
M  V30 2 N 0 1.576 0 0
M  V30 3 C 0.933 2.03868 1.02534 0
M  V30 4 C 1.911 0.928543 1.3348 0
M  V30 5 O 3.095 1.19667 1.45644 0
M  V30 6 C 0.222 2.43627 2.35294 0
M  V30 7 C -0.732 3.65373 2.2001 0
M  V30 8 S 0.101 5.13292 1.52614 0
M  V30 9 C 1.257 5.56322 2.86805 0
M  V30 10 H 1.49 2.90518 0.631377 0
M  V30 11 H -0.977 1.52953 0.210867 0
M  V30 12 H 0.981 2.67203 3.11629 0
M  V30 13 H -0.358 1.57376 2.7183 0
M  V30 14 H -1.165 3.90944 3.18086 0
M  V30 15 H -1.563 3.418 1.51819 0
M  V30 16 H 0.729 5.58782 3.83104 0
M  V30 17 H 1.672 6.56266 2.65933 0
M  V30 18 H 2.08 4.83886 2.90714 0
M  V30 19 N 1.4781 -0.272755 1.55222 0
M  V30 20 C 2.7261 -1.00234 1.75492 0
M  V30 21 C 3.0471 -1.8681 0.5592 0
M  V30 22 O 2.3171 -1.91215 -0.425882 0
M  V30 23 H 0.8971 -0.373076 0.647166 0
M  V30 24 H 3.5591 -0.296926 1.92625 0
M  V30 25 H 2.6551 -1.63913 2.65592 0
M  V30 26 N 2.9562 -1.48159 -0.537278 0
M  V30 27 C 4.2052 -1.5506 -1.28993 0
M  V30 28 C 4.5182 -0.226211 -1.94288 0
M  V30 29 O 5.7242 -0.173395 -2.70946 0
M  V30 30 C 4.1802 -2.73429 -2.34018 0
M  V30 31 C 3.7882 -4.1248 -1.74825 0
M  V30 32 C 5.5322 -2.89638 -3.10339 0
M  V30 33 C 3.4392 -5.22121 -2.77747 0
M  V30 34 H 2.3692 -0.577231 -0.485098 0
M  V30 35 H 5.0202 -1.74478 -0.568317 0
M  V30 36 H 3.4022 -2.47431 -3.09182 0
M  V30 37 H 4.5762 -4.48466 -1.05899 0
M  V30 38 H 2.8912 -4.01327 -1.11022 0
M  V30 39 H 5.4882 -3.68718 -3.87235 0
M  V30 40 H 5.8312 -1.9882 -3.65754 0
M  V30 41 H 6.3642 -3.15502 -2.42288 0
M  V30 42 H 3.1032 -6.1488 -2.27161 0
M  V30 43 H 2.6232 -4.90631 -3.45024 0
M  V30 44 H 4.3022 -5.49924 -3.4087 0
M  V30 45 N 4.4343 0.785586 -1.36625 0
M  V30 46 C 5.8503 1.08419 -1.17122 0
M  V30 47 C 6.0503 2.015 0.00208491 0
M  V30 48 O 5.1063 2.43551 0.666278 0
M  V30 49 C 6.4193 1.69498 -2.48377 0
M  V30 50 C 7.9673 1.81821 -2.54775 0
M  V30 51 C 8.4423 2.46315 -3.86126 0
M  V30 52 N 9.9333 2.53779 -3.87492 0
M  V30 53 C 10.6683 3.045 -4.85868 0
M  V30 54 N 10.1643 3.55499 -5.94637 0
M  V30 55 N 11.9573 3.03247 -4.73284 0
M  V30 56 H 4.1083 0.167264 -2.1174 0
M  V30 57 H 6.3713 0.13682 -0.938075 0
M  V30 58 H 6.0773 1.08571 -3.34522 0
M  V30 59 H 5.9513 2.6896 -2.64462 0
M  V30 60 H 8.3383 2.41884 -1.69045 0
M  V30 61 H 8.4193 0.811532 -2.42586 0
M  V30 62 H 8.0633 1.86895 -4.72263 0
M  V30 63 H 7.9933 3.47561 -3.95612 0
M  V30 64 H 10.4843 2.17672 -3.08913 0
M  V30 65 H 10.7973 3.92562 -6.65669 0
M  V30 66 H 9.1423 3.5364 -5.98301 0
M  V30 67 H 12.3333 2.62696 -3.87438 0
M  V30 68 H 12.5063 3.42467 -5.50109 0
M  V30 69 N 5.9124 1.20967 1.01018 0
M  V30 70 C 7.1604 1.02172 1.74371 0
M  V30 71 C 7.4814 -0.446414 1.89821 0
M  V30 72 O 6.7514 -1.32234 1.44537 0
M  V30 73 H 5.3314 0.375066 0.646014 0
M  V30 74 H 7.9934 1.52187 1.21758 0
M  V30 75 H 7.0894 1.48538 2.74487 0
M  V30 76 N 7.3905 -1.2043 1.01659 0
M  V30 77 C 8.3235 -2.21924 0.531521 0
M  V30 78 C 9.3015 -1.57054 -0.421032 0
M  V30 79 O 10.4855 -1.85389 -0.341035 0
M  V30 80 C 7.6125 -3.37942 -0.226496 0
M  V30 81 C 6.6585 -4.21115 0.67561 0
M  V30 82 S 7.4915 -4.90674 2.14475 0
M  V30 83 C 8.6475 -6.10113 1.3969 0
M  V30 84 H 8.8805 -2.62725 1.3915 0
M  V30 85 H 6.4135 -1.30481 0.825479 0
M  V30 86 H 8.3715 -4.05196 -0.657738 0
M  V30 87 H 7.0325 -2.956 -1.06205 0
M  V30 88 H 6.2255 -5.03918 0.091108 0
M  V30 89 H 5.8275 -3.59115 1.04463 0
M  V30 90 H 8.1195 -6.7411 0.676897 0
M  V30 91 H 9.0625 -6.73022 2.20107 0
M  V30 92 H 9.4705 -5.57283 0.899786 0
M  V30 93 N 8.8686 -0.792821 -1.36206 0
M  V30 94 C 9.7986 -0.207853 -2.32573 0
M  V30 95 C 10.7796 0.659055 -1.56813 0
M  V30 96 O 11.9646 0.592176 -1.84951 0
M  V30 97 C 9.0946 0.655449 -3.41059 0
M  V30 98 C 8.0486 -0.111842 -4.27854 0
M  V30 99 C 7.3746 0.872274 -5.27537 0
M  V30 100 C 8.6746 -1.30299 -5.05786 0
M  V30 101 H 10.3686 -1.01294 -2.81744 0
M  V30 102 H 7.9146 -0.48854 -1.3546 0
M  V30 103 H 9.8676 1.07464 -4.07467 0
M  V30 104 H 8.5916 1.49328 -2.90463 0
M  V30 105 H 7.2506 -0.512053 -3.63006 0
M  V30 106 H 6.8986 1.70523 -4.73214 0
M  V30 107 H 6.5986 0.363291 -5.86476 0
M  V30 108 H 8.1226 1.28996 -5.96818 0
M  V30 109 H 9.5366 -0.959379 -5.65216 0
M  V30 110 H 7.9336 -1.7455 -5.74154 0
M  V30 111 H 9.0036 -2.09663 -4.37229 0
M  V30 112 N 10.3467 1.47872 -0.545128 0
M  V30 113 C 11.7627 1.5829 -0.204032 0
M  V30 114 C 11.9627 1.54529 1.29317 0
M  V30 115 O 11.0187 1.44232 2.07252 0
M  V30 116 C 12.3317 2.89304 -0.819987 0
M  V30 117 C 13.8797 3.02864 -0.790105 0
M  V30 118 C 14.3547 4.3656 -1.38491 0
M  V30 119 N 15.8457 4.43165 -1.34755 0
M  V30 120 C 16.5807 5.45153 -1.77753 0
M  V30 121 N 16.0767 6.54016 -2.2855 0
M  V30 122 N 17.8697 5.36125 -1.68897 0
M  V30 123 H 10.0207 1.4856 -1.51802 0
M  V30 124 H 12.2837 0.706305 -0.632327 0
M  V30 125 H 11.9897 2.97757 -1.87173 0
M  V30 126 H 11.8637 3.75957 -0.305915 0
M  V30 127 H 14.2507 2.94014 0.252913 0
M  V30 128 H 14.3317 2.17782 -1.34181 0
M  V30 129 H 13.9757 4.46164 -2.42693 0
M  V30 130 H 13.9057 5.20353 -0.808754 0
M  V30 131 H 16.3967 3.65083 -0.975855 0
M  V30 132 H 16.7097 7.27994 -2.59314 0
M  V30 133 H 15.0547 6.54938 -2.32553 0
M  V30 134 H 18.2457 4.49975 -1.28998 0
M  V30 135 H 18.4187 6.15472 -2.02726 0
M  V30 136 N 11.8248 0.280983 1.55075 0
M  V30 137 C 12.7878 -0.590896 2.21452 0
M  V30 138 C 13.7878 -1.07682 1.19421 0
M  V30 139 O 14.9778 -0.97605 1.44288 0
M  V30 140 C 12.1098 -1.81587 2.88511 0
M  V30 141 H 13.3028 -0.0112554 2.99898 0
M  V30 142 H 10.8558 0.0316438 1.56268 0
M  V30 143 H 11.5908 -2.43587 2.14093 0
M  V30 144 H 11.3758 -1.4753 3.63287 0
M  V30 145 H 12.8658 -2.43575 3.39206 0
M  V30 146 N 13.3029 -1.57598 0.00835791 0
M  V30 147 C 14.2659 -2.07884 -0.965242 0
M  V30 148 C 15.2659 -0.989825 -1.26725 0
M  V30 149 O 16.4559 -1.25218 -1.21104 0
M  V30 150 C 13.5879 -2.52731 -2.28779 0
M  V30 151 H 14.7809 -2.95178 -0.530112 0
M  V30 152 H 12.3339 -1.54458 -0.239283 0
M  V30 153 H 13.0689 -1.68705 -2.76964 0
M  V30 154 H 12.8539 -3.32272 -2.08177 0
M  V30 155 H 14.3439 -2.91933 -2.98605 0
M  V30 156 N 14.781 0.264519 -1.55364 0
M  V30 157 C 16.027 0.99646 -1.76631 0
M  V30 158 C 16.36 1.85632 -0.570478 0
M  V30 159 O 15.635 1.89647 0.43175 0
M  V30 160 C 15.918 1.87187 -3.07625 0
M  V30 161 C 15.771 1.04138 -4.37579 0
M  V30 162 C 17.09 2.85749 -3.34717 0
M  V30 163 H 14.209 0.360841 -0.642622 0
M  V30 164 H 16.851 0.268218 -1.88097 0
M  V30 165 H 15.001 2.49279 -2.9798 0
M  V30 166 H 16.673 0.440517 -4.59192 0
M  V30 167 H 14.916 0.345115 -4.32425 0
M  V30 168 H 15.587 1.68729 -5.2558 0
M  V30 169 H 18.063 2.33793 -3.4421 0
M  V30 170 H 16.939 3.44136 -4.27623 0
M  V30 171 H 17.2 3.61311 -2.54768 0
M  V30 172 N 16.2591 1.48442 0.529413 0
M  V30 173 C 17.5081 1.55742 1.28169 0
M  V30 174 C 17.8211 0.236511 1.94165 0
M  V30 175 O 19.0271 0.187761 2.7085 0
M  V30 176 C 17.4831 2.74667 2.32564 0
M  V30 177 C 17.0911 4.13402 1.72636 0
M  V30 178 C 18.8351 2.9128 3.08798 0
M  V30 179 C 16.7421 5.23587 2.74975 0
M  V30 180 H 15.6721 0.579796 0.48203 0
M  V30 181 H 18.3231 1.74776 0.559056 0
M  V30 182 H 16.7051 2.49067 3.07866 0
M  V30 183 H 17.8791 4.49022 1.03519 0
M  V30 184 H 16.1941 4.0191 1.08892 0
M  V30 185 H 18.7911 3.70767 3.85274 0
M  V30 186 H 19.1341 2.00757 3.64695 0
M  V30 187 H 19.6671 3.16782 2.40611 0
M  V30 188 H 16.4061 6.16076 2.23897 0
M  V30 189 H 15.9261 4.92454 3.42417 0
M  V30 190 H 17.6051 5.51724 3.37949 0
M  V30 191 N 17.7372 -0.778329 1.37039 0
M  V30 192 C 18.6672 -1.90546 1.34962 0
M  V30 193 C 19.6482 -1.68681 0.219274 0
M  V30 194 O 20.8332 -1.89634 0.418624 0
M  V30 195 C 17.9632 -3.27734 1.14925 0
M  V30 196 C 16.9172 -3.64147 2.24902 0
M  V30 197 C 16.2432 -4.99806 1.89996 0
M  V30 198 C 17.5432 -3.71579 3.67051 0
M  V30 199 H 19.2372 -1.92541 2.29277 0
M  V30 200 H 16.7832 -0.924948 1.10366 0
M  V30 201 H 18.7362 -4.06215 1.12104 0
M  V30 202 H 17.4602 -3.26154 0.170631 0
M  V30 203 H 16.1192 -2.8797 2.26868 0
M  V30 204 H 15.7672 -4.94759 0.906796 0
M  V30 205 H 15.4672 -5.25139 2.63634 0
M  V30 206 H 16.9912 -5.80694 1.88749 0
M  V30 207 H 18.4052 -4.40227 3.67251 0
M  V30 208 H 16.8022 -4.08405 4.39688 0
M  V30 209 H 17.8722 -2.72404 4.01154 0
M  V30 210 N 19.2153 -1.21501 -1.00376 0
M  V30 211 C 20.1453 -0.999478 -2.11028 0
M  V30 212 C 21.1263 0.0759671 -1.6993 0
M  V30 213 O 22.3113 -0.0841106 -1.94018 0
M  V30 214 C 19.4413 -0.564709 -3.42678 0
M  V30 215 C 18.3953 -1.58486 -3.97576 0
M  V30 216 C 17.7213 -1.00628 -5.25146 0
M  V30 217 C 19.0213 -2.97204 -4.29496 0
M  V30 218 H 20.7153 -1.92495 -2.29317 0
M  V30 219 H 18.2613 -0.92693 -1.102 0
M  V30 220 H 20.2143 -0.401091 -4.19487 0
M  V30 221 H 18.9383 0.396411 -3.24185 0
M  V30 222 H 17.5973 -1.73606 -3.22888 0
M  V30 223 H 17.2453 -0.0368439 -5.02987 0
M  V30 224 H 16.9453 -1.68771 -5.62841 0
M  V30 225 H 18.4693 -0.854015 -6.04598 0
M  V30 226 H 19.8833 -2.8552 -4.97143 0
M  V30 227 H 18.2803 -3.62372 -4.78338 0
M  V30 228 H 19.3503 -3.47956 -3.3772 0
M  V30 229 N 20.6934 1.19889 -1.02296 0
M  V30 230 C 21.6234 2.25141 -0.619174 0
M  V30 231 C 22.6044 1.66051 0.368915 0
M  V30 232 O 23.7894 1.92546 0.252941 0
M  V30 233 C 20.9194 3.4728 0.0368783 0
M  V30 234 C 19.8734 4.19005 -0.872865 0
M  V30 235 C 19.1994 5.34637 -0.0822402 0
M  V30 236 C 20.4994 4.74452 -2.18387 0
M  V30 237 H 22.1934 2.59171 -1.49903 0
M  V30 238 H 19.7394 1.24579 -0.722222 0
M  V30 239 H 21.6924 4.20098 0.330958 0
M  V30 240 H 20.4164 3.12433 0.95149 0
M  V30 241 H 19.0754 3.48061 -1.15105 0
M  V30 242 H 18.7234 4.96034 0.83422 0
M  V30 243 H 18.4234 5.83557 -0.688149 0
M  V30 244 H 19.9474 6.10255 0.205238 0
M  V30 245 H 21.3614 5.39055 -1.95172 0
M  V30 246 H 19.7584 5.33834 -2.74119 0
M  V30 247 H 20.8284 3.92844 -2.84257 0
M  V30 248 N 22.1715 0.800033 1.35784 0
M  V30 249 C 23.4205 0.37387 1.98205 0
M  V30 250 C 23.7335 -1.06302 1.64193 0
M  V30 251 O 24.9395 -1.59198 2.19928 0
M  V30 252 C 23.3955 0.617532 3.54562 0
M  V30 253 C 23.0035 2.06654 3.9749 0
M  V30 254 C 24.7475 0.256401 4.23725 0
M  V30 255 C 22.6545 2.2563 5.46667 0
M  V30 256 H 21.5845 0.136055 0.741623 0
M  V30 257 H 24.2355 0.983166 1.54939 0
M  V30 258 H 22.6175 -0.0616248 3.95952 0
M  V30 259 H 23.7915 2.78296 3.67271 0
M  V30 260 H 22.1065 2.38691 3.41197 0
M  V30 261 H 24.7035 0.376318 5.33374 0
M  V30 262 H 25.0465 -0.796692 4.08606 0
M  V30 263 H 25.5795 0.889214 3.87734 0
M  V30 264 H 22.3185 3.2936 5.66747 0
M  V30 265 H 21.8385 1.58504 5.78478 0
M  V30 266 H 23.5175 2.06861 6.1304 0
M  V30 267 N 23.6496 -1.47581 0.552962 0
M  V30 268 C 25.0656 -1.5818 0.212424 0
M  V30 269 C 25.2656 -1.55213 -1.28496 0
M  V30 270 O 24.3216 -1.45329 -2.06484 0
M  V30 271 C 25.6346 -2.88865 0.835318 0
M  V30 272 C 27.1826 -3.0244 0.806156 0
M  V30 273 C 27.6576 -4.35819 1.40804 0
M  V30 274 N 29.1486 -4.42444 1.37103 0
M  V30 275 C 29.8836 -5.44202 1.80641 0
M  V30 276 N 29.3796 -6.52795 2.32015 0
M  V30 277 N 31.1726 -5.35222 1.71738 0
M  V30 278 H 23.3236 -1.47753 1.52587 0
M  V30 279 H 25.5866 -0.702941 0.636064 0
M  V30 280 H 25.2926 -2.9676 1.88749 0
M  V30 281 H 25.1666 -3.7579 0.325848 0
M  V30 282 H 27.5536 -2.94144 -0.237317 0
M  V30 283 H 27.6346 -2.17068 1.35334 0
M  V30 284 H 27.2786 -4.44871 2.45056 0
M  V30 285 H 27.2086 -5.19916 0.836338 0
M  V30 286 H 29.6996 -3.6456 0.995202 0
M  V30 287 H 30.0126 -7.26609 2.63171 0
M  V30 288 H 28.3576 -6.53696 2.36023 0
M  V30 289 H 31.5486 -4.49284 1.31382 0
M  V30 290 H 31.7216 -6.14389 2.05987 0
M  V30 291 N 25.1277 -0.289203 -1.54924 0
M  V30 292 C 26.3557 0.326463 -2.04308 0
M  V30 293 C 26.7707 1.48413 -1.16701 0
M  V30 294 O 26.1277 1.81507 -0.190087 0
M  V30 295 C 26.1787 0.794014 -3.52672 0
M  V30 296 O 25.8997 -0.317564 -4.36948 0
M  V30 297 C 27.4007 1.47605 -4.18004 0
M  V30 298 H 24.6207 0.0726272 -0.667058 0
M  V30 299 H 27.1647 -0.425401 -2.00026 0
M  V30 300 H 25.3197 1.49593 -3.57352 0
M  V30 301 H 25.7337 0.0443186 -5.24481 0
M  V30 302 H 27.2077 1.75447 -5.23376 0
M  V30 303 H 27.6847 2.41224 -3.67025 0
M  V30 304 H 28.2907 0.81762 -4.17367 0
M  V30 305 N 26.6058 1.57591 -0.0167156 0
M  V30 306 C 27.8518 1.92399 0.659861 0
M  V30 307 C 28.2068 0.892561 1.70444 0
M  V30 308 O 27.4998 -0.0930755 1.91374 0
M  V30 309 C 27.6938 3.3172 1.33029 0
M  V30 310 C 27.5228 4.48319 0.352174 0
M  V30 311 C 26.2928 5.05281 -0.0434883 0
M  V30 312 C 28.4908 5.12831 -0.388474 0
M  V30 313 N 26.4728 6.05399 -1.01807 0
M  V30 314 C 27.8438 6.07934 -1.2172 0
M  V30 315 C 29.8988 4.95858 -0.450513 0
M  V30 316 C 28.6018 6.87891 -2.10235 0
M  V30 317 C 30.6278 5.76413 -1.32295 0
M  V30 318 C 29.9898 6.71123 -2.13948 0
M  V30 319 H 26.0888 0.752106 0.21415 0
M  V30 320 H 28.6728 1.94532 -0.0809846 0
M  V30 321 H 26.8438 3.3043 2.04134 0
M  V30 322 H 28.5758 3.5391 1.9629 0
M  V30 323 H 25.3308 4.7246 0.328384 0
M  V30 324 H 25.7548 6.60145 -1.50123 0
M  V30 325 H 30.3968 4.22472 0.166512 0
M  V30 326 H 28.1148 7.60591 -2.72997 0
M  V30 327 H 31.7008 5.65317 -1.37508 0
M  V30 328 H 30.5808 7.3237 -2.80364 0
M  V30 329 N 28.0839 -0.256276 1.55502 0
M  V30 330 C 29.0139 -1.32102 1.92539 0
M  V30 331 C 29.9949 -1.50684 0.789194 0
M  V30 332 O 31.1799 -1.63449 1.04872 0
M  V30 333 C 28.3099 -2.67752 2.21192 0
M  V30 334 C 27.2639 -2.63878 3.36975 0
M  V30 335 C 26.5899 -4.03236 3.51147 0
M  V30 336 C 27.8899 -2.21682 4.72921 0
M  V30 337 H 29.5839 -1.01351 2.81724 0
M  V30 338 H 27.1299 -0.486105 1.35547 0
M  V30 339 H 29.0829 -3.42365 2.45691 0
M  V30 340 H 27.8069 -3.0012 1.28824 0
M  V30 341 H 26.4659 -1.91722 3.12471 0
M  V30 342 H 26.1139 -4.32854 2.56216 0
M  V30 343 H 25.8139 -4.01535 4.29003 0
M  V30 344 H 27.3379 -4.79563 3.77957 0
M  V30 345 H 28.7519 -2.86023 4.96854 0
M  V30 346 H 27.1489 -2.3111 5.53812 0
M  V30 347 H 28.2189 -1.16833 4.70615 0
M  V30 348 N 29.562 -1.4872 -0.521534 0
M  V30 349 C 30.525 -1.63379 -1.60748 0
M  V30 350 C 31.525 -0.50661 -1.52611 0
M  V30 351 O 32.715 -0.772601 -1.5613 0
M  V30 352 C 29.847 -1.61192 -3.00383 0
M  V30 353 H 31.04 -2.60217 -1.49087 0
M  V30 354 H 28.593 -1.37444 -0.744235 0
M  V30 355 H 29.328 -0.65863 -3.17541 0
M  V30 356 H 29.113 -2.43032 -3.07698 0
M  V30 357 H 30.603 -1.7466 -3.7932 0
M  V30 358 N 31.0401 0.771051 -1.3745 0
M  V30 359 C 31.9501 1.91538 -1.35464 0
M  V30 360 C 32.9661 1.72134 -0.254123 0
M  V30 361 O 34.1421 1.95358 -0.489626 0
M  V30 362 C 31.2071 3.26671 -1.16134 0
M  V30 363 C 30.2681 3.58723 -2.35831 0
M  V30 364 C 29.5011 4.87409 -2.17413 0
M  V30 365 O 29.7241 5.58506 -1.15876 0
M  V30 366 O 28.6581 5.18539 -3.05615 0
M  V30 367 H 32.4841 1.96165 -2.31847 0
M  V30 368 H 30.0691 0.9139 -1.18187 0
M  V30 369 H 31.9511 4.07499 -1.07345 0
M  V30 370 H 30.6261 3.22894 -0.228251 0
M  V30 371 H 29.5331 2.78127 -2.50192 0
M  V30 372 H 30.8661 3.67243 -3.27709 0
M  V30 373 N 32.5182 1.22032 0.997298 0
M  V30 374 C 33.7662 1.04016 1.73278 0
M  V30 375 C 34.0872 -0.426255 1.90284 0
M  V30 376 O 33.3572 -1.30694 1.45931 0
M  V30 377 H 31.9372 0.381897 0.642 0
M  V30 378 H 34.5992 1.5347 1.20137 0
M  V30 379 H 33.6952 1.51441 2.72896 0
M  V30 380 N 33.9963 -1.19345 1.0293 0
M  V30 381 C 34.9443 -2.24621 0.604001 0
M  V30 382 C 35.9383 -1.65452 -0.363587 0
M  V30 383 O 37.1443 -1.78497 -0.23212 0
M  V30 384 H 33.5193 -0.730858 0.177061 0
M  V30 385 H 35.4903 -2.5781 1.50255 0
M  V30 386 C 34.2393 -3.47688 -0.0289127 0
M  V30 387 H 33.5623 -3.93505 0.706651 0
M  V30 388 H 35.0023 -4.23011 -0.289432 0
M  V30 389 C 33.4613 -3.11817 -1.2756 0
M  V30 390 O 33.9913 -3.2451 -2.36762 0
M  V30 391 N 32.1973 -2.66246 -1.16453 0
M  V30 392 H 31.7443 -2.56118 -0.275914 0
M  V30 393 H 31.7023 -2.42617 -1.99961 0
M  V30 394 N 35.4744 -0.807222 -1.35358 0
M  V30 395 C 36.7044 -0.399796 -2.02695 0
M  V30 396 C 37.1124 0.994176 -1.60974 0
M  V30 397 O 36.4554 1.65209 -0.803226 0
M  V30 398 C 36.5174 -0.404445 -3.57218 0
M  V30 399 C 36.1814 -1.74904 -4.22206 0
M  V30 400 C 37.1784 -2.70743 -4.4384 0
M  V30 401 C 34.8634 -2.03322 -4.5931 0
M  V30 402 C 36.8574 -3.93183 -5.01683 0
M  V30 403 C 34.5444 -3.26026 -5.16866 0
M  V30 404 C 35.5424 -4.20774 -5.37994 0
M  V30 405 O 35.2304 -5.41312 -5.94337 0
M  V30 406 H 34.9624 -0.160517 -0.656666 0
M  V30 407 H 37.5164 -1.09235 -1.73945 0
M  V30 408 H 35.7464 0.344707 -3.85161 0
M  V30 409 H 37.4354 -0.0192429 -4.05895 0
M  V30 410 H 38.2014 -2.5008 -4.15554 0
M  V30 411 H 34.0804 -1.30384 -4.42178 0
M  V30 412 H 37.6244 -4.6715 -5.1809 0
M  V30 413 H 33.5214 -3.46559 -5.44579 0
M  V30 414 H 34.2894 -5.42618 -6.12787 0
M  V30 415 N 36.9525 1.47285 -0.560781 0
M  V30 416 C 38.3635 1.86258 -0.128343 0
M  V30 417 C 38.7145 1.46699 1.30284 0
M  V30 418 O 37.8395 0.871698 1.98067 0
M  V30 419 C 38.4345 3.38044 -0.22614 0
M  V30 420 C 36.9935 3.76096 0.151283 0
M  V30 421 C 36.1405 2.71335 -0.572084 0
M  V30 422 H 39.0915 1.38752 -0.770297 0
M  V30 423 H 39.1125 3.76441 0.554322 0
M  V30 424 H 38.6245 3.66806 -1.26788 0
M  V30 425 H 36.7255 3.52951 1.19399 0
M  V30 426 H 36.8385 4.78641 -0.209765 0
M  V30 427 H 35.2025 2.54696 -0.0147653 0
M  V30 428 H 35.9855 3.02938 -1.61504 0
M  V30 429 N 38.4306 0.297415 1.54768 0
M  V30 430 C 39.6556 -0.318435 2.04941 0
M  V30 431 C 40.0806 -1.4701 1.17345 0
M  V30 432 O 39.4386 -1.80436 0.176758 0
M  V30 433 C 39.4866 -0.755749 3.52592 0
M  V30 434 O 38.5906 -1.86088 3.68028 0
M  V30 435 H 37.9316 -0.062421 0.661059 0
M  V30 436 H 40.4616 0.438215 1.99852 0
M  V30 437 H 40.4716 -1.04552 3.94376 0
M  V30 438 H 39.1466 0.0867233 4.1581 0
M  V30 439 H 37.7236 -1.57193 3.38149 0
M  V30 440 N 39.9087 -1.5758 0.0250728 0
M  V30 441 C 41.3197 -1.79476 -0.514323 0
M  V30 442 C 41.6707 -0.934956 -1.72491 0
M  V30 443 O 40.7957 -0.144245 -2.15919 0
M  V30 444 C 41.3907 -3.25503 -0.939842 0
M  V30 445 C 39.9497 -3.48408 -1.42438 0
M  V30 446 C 39.0967 -2.74583 -0.387201 0
M  V30 447 H 42.0477 -1.567 0.25113 0
M  V30 448 H 42.0687 -3.34992 -1.80445 0
M  V30 449 H 41.5807 -3.88056 -0.0585628 0
M  V30 450 H 39.6817 -2.91103 -2.32572 0
M  V30 451 H 39.7947 -4.57119 -1.43455 0
M  V30 452 H 38.1587 -2.39942 -0.854409 0
M  V30 453 H 38.9417 -3.39849 0.485543 0
M  V30 454 N 41.3868 0.248026 -1.55636 0
M  V30 455 C 42.6358 0.974134 -1.76617 0
M  V30 456 C 42.9488 1.86528 -0.588796 0
M  V30 457 O 44.1548 2.62805 -0.681594 0
M  V30 458 C 42.6108 1.78213 -3.12679 0
M  V30 459 C 42.2188 0.93843 -4.38061 0
M  V30 460 C 43.9628 2.50104 -3.42999 0
M  V30 461 C 41.8698 1.74225 -5.65155 0
M  V30 462 H 40.7998 0.36745 -0.658405 0
M  V30 463 H 43.4508 0.22884 -1.82067 0
M  V30 464 H 41.8328 2.56933 -3.01333 0
M  V30 465 H 43.0068 0.193635 -4.60393 0
M  V30 466 H 41.3218 0.332905 -4.15067 0
M  V30 467 H 43.9188 3.10694 -4.3517 0
M  V30 468 H 44.2618 3.21662 -2.64271 0
M  V30 469 H 44.7948 1.78395 -3.55556 0
M  V30 470 H 41.5338 1.07043 -6.46701 0
M  V30 471 H 41.0538 2.46235 -5.46926 0
M  V30 472 H 42.7328 2.30967 -6.0437 0
M  V30 473 N 42.8649 1.48995 0.513639 0
M  V30 474 C 44.2759 1.5119 1.09537 0
M  V30 475 C 44.6269 0.290906 1.94031 0
M  V30 476 O 43.7519 -0.60049 2.07902 0
M  V30 477 C 44.3469 2.73964 1.99322 0
M  V30 478 C 42.9059 2.78978 2.52682 0
M  V30 479 C 42.0529 2.44934 1.30009 0
M  V30 480 H 45.0039 1.55875 0.298125 0
M  V30 481 H 45.0249 2.53409 2.83838 0
M  V30 482 H 44.5369 3.62813 1.37799 0
M  V30 483 H 42.6379 1.94378 3.1788 0
M  V30 484 H 42.7509 3.8083 2.90698 0
M  V30 485 H 41.1149 1.9644 1.62122 0
M  V30 486 H 41.8979 3.36043 0.702131 0
M  V30 487 N 44.343 -0.763751 1.37857 0
M  V30 488 C 45.29 -1.87726 1.34267 0
M  V30 489 C 46.26 -1.64807 0.206879 0
M  V30 490 O 47.445 -1.86613 0.397508 0
M  V30 491 C 44.585 -3.24896 1.16346 0
M  V30 492 C 43.698 -3.59716 2.39225 0
M  V30 493 C 42.833 -4.86137 2.14114 0
M  V30 494 C 41.872 -5.13711 3.32817 0
M  V30 495 N 41.009 -6.31323 3.07206 0
M  V30 496 H 45.849 -1.90129 2.29466 0
M  V30 497 H 43.386 -0.929433 1.14017 0
M  V30 498 H 45.344 -4.04036 1.03975 0
M  V30 499 H 43.974 -3.21847 0.247909 0
M  V30 500 H 43.026 -2.75498 2.62307 0
M  V30 501 H 44.338 -3.76027 3.27728 0
M  V30 502 H 43.492 -5.73198 1.9882 0
M  V30 503 H 42.231 -4.71945 1.22961 0
M  V30 504 H 41.236 -4.25123 3.48641 0
M  V30 505 H 42.461 -5.29807 4.24832 0
M  V30 506 H 40.407 -6.18474 2.1869 0
M  V30 507 H 40.324 -6.48087 3.89254 0
M  V30 508 H 41.592 -7.213 2.95546 0
M  V30 509 N 45.8211 -1.22559 -0.990812 0
M  V30 510 C 47.0681 -1.05141 -1.73065 0
M  V30 511 C 47.3961 0.413191 -1.9006 0
M  V30 512 O 46.6511 1.32257 -1.44245 0
M  V30 513 C 46.9501 -1.71011 -3.13831 0
M  V30 514 C 46.6161 -3.20911 -3.16745 0
M  V30 515 C 45.2781 -3.61812 -3.17247 0
M  V30 516 C 47.6301 -4.16846 -3.12872 0
M  V30 517 C 44.9581 -4.97127 -3.1158 0
M  V30 518 C 47.3101 -5.5214 -3.08746 0
M  V30 519 C 45.9741 -5.92419 -3.07565 0
M  V30 520 H 45.2441 -0.384738 -0.633291 0
M  V30 521 H 47.8911 -1.5235 -1.16025 0
M  V30 522 H 46.1961 -1.16133 -3.74193 0
M  V30 523 H 47.8931 -1.55023 -3.69823 0
M  V30 524 H 44.4831 -2.88344 -3.17105 0
M  V30 525 H 48.6671 -3.86263 -3.11632 0
M  V30 526 H 43.9231 -5.27562 -3.09012 0
M  V30 527 H 48.0971 -6.26201 -3.04705 0
M  V30 528 H 45.7241 -6.97236 -3.02929 0
M  V30 529 N 47.2992 1.18797 -1.03562 0
M  V30 530 C 48.2492 2.20161 -0.592724 0
M  V30 531 C 49.2332 1.56772 0.362133 0
M  V30 532 O 50.4252 1.76062 0.182009 0
M  V30 533 C 47.5542 3.43266 0.0481024 0
M  V30 534 C 46.6402 4.13786 -0.9296 0
M  V30 535 N 47.0312 4.60388 -2.09467 0
M  V30 536 C 45.3292 4.39572 -0.754499 0
M  V30 537 C 46.0302 5.14619 -2.71187 0
M  V30 538 N 45.0062 5.05826 -1.991 0
M  V30 539 H 48.8082 2.53877 -1.48066 0
M  V30 540 H 46.3222 1.34946 -0.903514 0
M  V30 541 H 48.3192 4.15136 0.383058 0
M  V30 542 H 46.9792 3.11048 0.931636 0
M  V30 543 H 47.9902 4.54999 -2.47379 0
M  V30 544 H 44.6672 4.17425 0.0793713 0
M  V30 545 H 46.0572 5.60917 -3.69895 0
M  V30 546 N 48.7773 0.814389 1.34928 0
M  V30 547 C 50.0243 0.398423 1.98542 0
M  V30 548 C 50.3523 -1.03638 1.64589 0
M  V30 549 O 49.6073 -1.73509 0.90516 0
M  V30 550 C 49.9063 0.537781 3.53331 0
M  V30 551 C 49.5723 1.93704 4.07172 0
M  V30 552 C 48.2343 2.31984 4.21589 0
M  V30 553 C 50.5863 2.85213 4.36237 0
M  V30 554 C 47.9143 3.61125 4.62391 0
M  V30 555 C 50.2663 4.13809 4.78482 0
M  V30 556 C 48.9303 4.52077 4.91104 0
M  V30 557 H 48.2003 0.145793 0.726516 0
M  V30 558 H 50.8473 1.03669 1.61012 0
M  V30 559 H 49.1523 -0.183906 3.91368 0
M  V30 560 H 50.8493 0.196588 4.00518 0
M  V30 561 H 47.4393 1.62966 3.96409 0
M  V30 562 H 51.6233 2.56885 4.24645 0
M  V30 563 H 46.8793 3.90612 4.70353 0
M  V30 564 H 51.0533 4.84811 4.99932 0
M  V30 565 H 48.6803 5.52196 5.22478 0
M  V30 566 N 50.2554 -1.46986 0.568584 0
M  V30 567 C 51.1654 -2.33942 -0.17555 0
M  V30 568 C 52.1814 -1.48891 -0.90041 0
M  V30 569 O 53.3574 -1.81794 -0.86676 0
M  V30 570 C 50.4224 -3.25811 -1.18524 0
M  V30 571 C 49.4834 -4.26757 -0.466582 0
M  V30 572 C 48.7164 -5.14236 -1.42817 0
M  V30 573 O 48.9394 -5.04379 -2.66379 0
M  V30 574 O 47.8734 -5.94412 -0.946453 0
M  V30 575 H 51.6994 -2.98896 0.538036 0
M  V30 576 H 49.2844 -1.4573 0.329097 0
M  V30 577 H 51.1664 -3.82527 -1.76779 0
M  V30 578 H 49.8414 -2.63471 -1.88055 0
M  V30 579 H 48.7484 -3.73769 0.157451 0
M  V30 580 H 50.0814 -4.91843 0.187485 0
M  V30 581 N 51.7335 -0.305618 -1.54608 0
M  V30 582 C 52.9805 0.302298 -2.00231 0
M  V30 583 C 53.3085 1.5354 -1.19398 0
M  V30 584 O 52.5635 1.93973 -0.259423 0
M  V30 585 C 52.8625 0.698983 -3.50498 0
M  V30 586 C 52.5285 -0.432903 -4.48817 0
M  V30 587 C 51.1905 -0.743622 -4.75419 0
M  V30 588 C 53.5425 -1.19409 -5.07337 0
M  V30 589 C 50.8705 -1.81857 -5.57804 0
M  V30 590 C 53.2225 -2.25899 -5.90891 0
M  V30 591 C 51.8865 -2.57572 -6.15803 0
M  V30 592 H 51.1565 0.110619 -0.732697 0
M  V30 593 H 53.8035 -0.425674 -1.86709 0
M  V30 594 H 52.1085 1.50711 -3.61654 0
M  V30 595 H 53.8055 1.1806 -3.83227 0
M  V30 596 H 50.3955 -0.18063 -4.28219 0
M  V30 597 H 54.5795 -0.967295 -4.86782 0
M  V30 598 H 49.8355 -2.06864 -5.75341 0
M  V30 599 H 54.0095 -2.85335 -6.35261 0
M  V30 600 H 51.6365 -3.40998 -6.7943 0
M  V30 601 N 53.2116 1.57565 -0.0334293 0
M  V30 602 C 54.4366 1.96689 0.657895 0
M  V30 603 C 54.8616 0.910057 1.64619 0
M  V30 604 O 54.2196 -0.128598 1.80843 0
M  V30 605 C 54.2676 3.34905 1.33683 0
M  V30 606 O 53.3716 3.31574 2.45219 0
M  V30 607 H 52.7126 0.641205 0.172489 0
M  V30 608 H 55.2426 2.04372 -0.0965621 0
M  V30 609 H 55.2526 3.71234 1.69262 0
M  V30 610 H 53.9276 4.11366 0.612411 0
M  V30 611 H 52.5046 3.06968 2.11719 0
M  V30 612 N 54.6897 -0.239769 1.55765 0
M  V30 613 C 55.9147 -0.988373 1.82335 0
M  V30 614 C 56.3397 -1.77886 0.611421 0
M  V30 615 O 55.6977 -1.75889 -0.439639 0
M  V30 616 C 55.7457 -1.89627 3.06715 0
M  V30 617 O 54.8497 -2.98904 2.84131 0
M  V30 618 H 54.1907 -0.280858 0.601677 0
M  V30 619 H 56.7207 -0.258597 2.02959 0
M  V30 620 H 56.7307 -2.30957 3.36338 0
M  V30 621 H 55.4057 -1.31511 3.9456 0
M  V30 622 H 53.9827 -2.61651 2.65694 0
M  V30 623 N 56.1678 -1.49265 -0.50573 0
M  V30 624 C 57.1308 -1.65075 -1.59006 0
M  V30 625 C 58.1308 -0.522768 -1.52065 0
M  V30 626 O 59.3208 -0.789117 -1.55302 0
M  V30 627 C 56.4528 -1.64369 -2.98656 0
M  V30 628 H 57.6458 -2.61784 -1.46319 0
M  V30 629 H 55.1988 -1.38226 -0.729616 0
M  V30 630 H 55.9338 -0.692272 -3.16825 0
M  V30 631 H 55.7188 -2.46282 -3.05103 0
M  V30 632 H 57.2088 -1.78674 -3.77446 0
M  V30 633 N 57.6459 0.756429 -1.3826 0
M  V30 634 C 58.8919 1.51772 -1.34511 0
M  V30 635 C 59.2249 1.94089 0.0656691 0
M  V30 636 O 58.4999 1.65221 1.02626 0
M  V30 637 C 58.7829 2.77226 -2.29821 0
M  V30 638 C 58.6359 2.41065 -3.79747 0
M  V30 639 C 59.9549 3.79236 -2.23312 0
M  V30 640 H 57.0739 0.550578 -0.489931 0
M  V30 641 H 59.7159 0.866607 -1.69086 0
M  V30 642 H 57.8659 3.32784 -2.00467 0
M  V30 643 H 59.5379 1.91303 -4.19763 0
M  V30 644 H 57.7809 1.7356 -3.97567 0
M  V30 645 H 58.4519 3.3081 -4.41892 0
M  V30 646 H 60.9279 3.3321 -2.49219 0
M  V30 647 H 59.8039 4.64714 -2.92116 0
M  V30 648 H 60.0649 4.24615 -1.23102 0
M  V30 649 N 59.124 1.23083 0.984299 0
M  V30 650 C 60.535 1.05609 1.5396 0
M  V30 651 C 60.886 -0.377793 1.92528 0
M  V30 652 O 60.011 -1.26398 1.75649 0
M  V30 653 C 60.606 1.91087 2.7977 0
M  V30 654 C 59.165 1.77885 3.31713 0
M  V30 655 C 58.312 1.87028 2.04733 0
M  V30 656 H 61.263 1.36802 0.804419 0
M  V30 657 H 61.284 1.43336 3.5247 0
M  V30 658 H 60.796 2.9544 2.51668 0
M  V30 659 H 58.897 0.762995 3.64704 0
M  V30 660 H 59.01 2.61047 4.01735 0
M  V30 661 H 57.374 1.30565 2.18689 0
M  V30 662 H 58.157 2.92929 1.79017 0
M  V30 663 N 60.6021 -1.18246 1.0419 0
M  V30 664 C 61.5121 -2.25574 0.644476 0
M  V30 665 C 62.5281 -1.70845 -0.329826 0
M  V30 666 O 63.7041 -2.00554 -0.184443 0
M  V30 667 C 60.7691 -3.46697 0.014877 0
M  V30 668 C 59.8301 -4.16554 1.03834 0
M  V30 669 C 59.0631 -5.31894 0.438692 0
M  V30 670 O 59.2861 -5.65385 -0.754752 0
M  V30 671 O 58.2201 -5.90459 1.168 0
M  V30 672 H 62.0461 -2.61836 1.53869 0
M  V30 673 H 59.6311 -1.25352 0.812854 0
M  V30 674 H 61.5131 -4.20062 -0.335538 0
M  V30 675 H 60.1881 -3.12255 -0.853138 0
M  V30 676 H 59.0951 -3.45251 1.44057 0
M  V30 677 H 60.4281 -4.54998 1.87716 0
M  V30 678 N 62.0802 -0.821533 -1.34494 0
M  V30 679 C 63.3262 -0.409552 -1.98622 0
M  V30 680 C 63.6592 1.0244 -1.64984 0
M  V30 681 O 62.9342 1.71325 -0.920758 0
M  V30 682 C 63.2172 -0.610458 -3.54888 0
M  V30 683 C 63.0702 -2.09043 -3.98273 0
M  V30 684 C 64.3892 -0.0455379 -4.40076 0
M  V30 685 H 61.5082 -0.15028 -0.721516 0
M  V30 686 H 64.1502 -1.03384 -1.59411 0
M  V30 687 H 62.3002 -0.079044 -3.8842 0
M  V30 688 H 63.9722 -2.68537 -3.75081 0
M  V30 689 H 62.2152 -2.58139 -3.48635 0
M  V30 690 H 62.8862 -2.18182 -5.07051 0
M  V30 691 H 65.3622 -0.499557 -4.1309 0
M  V30 692 H 64.2382 -0.215922 -5.48475 0
M  V30 693 H 64.4992 1.04939 -4.29465 0
M  V30 694 N 63.5583 1.46682 -0.576371 0
M  V30 695 C 64.8043 2.02712 -0.0596221 0
M  V30 696 C 65.1373 1.44765 1.29448 0
M  V30 697 O 64.4123 0.610355 1.84675 0
M  V30 698 C 64.6953 3.60098 0.0129503 0
M  V30 699 C 64.5483 4.28441 -1.3696 0
M  V30 700 C 65.8673 4.34224 0.71678 0
M  V30 701 H 62.9863 0.736637 -0.0231407 0
M  V30 702 H 65.6283 1.74898 -0.742351 0
M  V30 703 H 63.7783 3.83926 0.594378 0
M  V30 704 H 65.4503 4.15896 -1.9957 0
M  V30 705 H 63.6933 3.8805 -1.93907 0
M  V30 706 H 64.3643 5.3716 -1.27135 0
M  V30 707 H 66.8403 4.15503 0.222908 0
M  V30 708 H 65.7163 5.43936 0.73657 0
M  V30 709 H 65.9773 4.04823 1.77682 0
M  V30 710 N 65.0364 0.313813 1.54444 0
M  V30 711 C 65.9664 -0.549454 2.26943 0
M  V30 712 C 66.9474 -1.12741 1.27372 0
M  V30 713 O 68.1324 -1.15436 1.56167 0
M  V30 714 C 65.2624 -1.71523 3.01989 0
M  V30 715 C 64.2164 -1.26703 4.08816 0
M  V30 716 C 63.5424 -2.51898 4.71647 0
M  V30 717 C 64.8424 -0.388962 5.2085 0
M  V30 718 H 66.5364 0.0552661 2.99349 0
M  V30 719 H 64.0824 0.0280207 1.43973 0
M  V30 720 H 66.0354 -2.32535 3.51433 0
M  V30 721 H 64.7594 -2.34639 2.27183 0
M  V30 722 H 63.4184 -0.679896 3.6024 0
M  V30 723 H 63.0664 -3.13356 3.93468 0
M  V30 724 H 62.7664 -2.22605 5.43802 0
M  V30 725 H 64.2904 -3.1369 5.23861 0
M  V30 726 H 65.7044 -0.905107 5.6611 0
M  V30 727 H 64.1014 -0.18924 5.99802 0
M  V30 728 H 65.1714 0.582699 4.81386 0
M  V30 729 N 66.5145 -1.57545 0.0417849 0
M  V30 730 C 67.4625 -2.12148 -0.953723 0
M  V30 731 C 68.4565 -1.05104 -1.32852 0
M  V30 732 O 69.6625 -1.23524 -1.30927 0
M  V30 733 H 66.0375 -0.677957 -0.325389 0
M  V30 734 H 68.0085 -2.94707 -0.467991 0
M  V30 735 C 66.7575 -2.6739 -2.22257 0
M  V30 736 H 66.0805 -3.49413 -1.94295 0
M  V30 737 H 67.5205 -3.09227 -2.90094 0
M  V30 738 C 65.9795 -1.60723 -2.96091 0
M  V30 739 O 66.5095 -1.01449 -3.88679 0
M  V30 740 N 64.7155 -1.32466 -2.58652 0
M  V30 741 H 64.2625 -1.80856 -1.83437 0
M  V30 742 H 64.2205 -0.61325 -3.08361 0
M  V30 743 N 67.9926 0.231505 -1.5589 0
M  V30 744 C 68.9226 1.29022 -1.94617 0
M  V30 745 C 69.9036 1.4941 -0.813067 0
M  V30 746 O 71.0886 1.6176 -1.07459 0
M  V30 747 C 68.2186 2.64199 -2.25424 0
M  V30 748 C 67.1726 2.58484 -3.41131 0
M  V30 749 C 66.4986 3.97599 -3.57518 0
M  V30 750 C 67.7986 2.1413 -4.76388 0
M  V30 751 H 69.4926 0.968563 -2.83301 0
M  V30 752 H 67.0386 0.464479 -1.36303 0
M  V30 753 H 68.9916 3.38413 -2.51107 0
M  V30 754 H 67.7156 2.98032 -1.33583 0
M  V30 755 H 66.3746 1.86727 -3.15481 0
M  V30 756 H 66.0226 4.28723 -2.6307 0
M  V30 757 H 65.7226 3.94659 -4.35337 0
M  V30 758 H 67.2466 4.7349 -3.85538 0
M  V30 759 H 68.6606 2.78083 -5.01341 0
M  V30 760 H 67.0576 2.2227 -5.57419 0
M  V30 761 H 68.1276 1.09331 -4.72414 0
M  V30 762 N 69.4707 1.49531 0.497807 0
M  V30 763 C 70.7177 1.59179 1.25173 0
M  V30 764 C 71.0457 0.279932 1.92475 0
M  V30 765 O 70.3007 -0.732383 1.81479 0
M  V30 766 C 70.5997 2.70252 2.33878 0
M  V30 767 C 70.2657 4.11644 1.84012 0
M  V30 768 C 68.9277 4.50121 1.70132 0
M  V30 769 C 71.2797 5.00121 1.46725 0
M  V30 770 C 68.6077 5.74845 1.17348 0
M  V30 771 C 70.9597 6.25366 0.95392 0
M  V30 772 C 69.6237 6.6267 0.801538 0
M  V30 773 H 68.8937 0.582478 0.45804 0
M  V30 774 H 71.5407 1.83373 0.551948 0
M  V30 775 H 69.8457 2.40041 3.09657 0
M  V30 776 H 71.5427 2.74925 2.9192 0
M  V30 777 H 68.1327 3.81274 1.95775 0
M  V30 778 H 72.3167 4.71048 1.56294 0
M  V30 779 H 67.5727 6.02444 1.04264 0
M  V30 780 H 71.7467 6.93301 0.656225 0
M  V30 781 H 69.3737 7.59197 0.390351 0
M  V30 782 N 70.9488 -0.749086 1.3866 0
M  V30 783 C 71.8968 -1.88428 1.36373 0
M  V30 784 C 72.8908 -1.67561 0.248929 0
M  V30 785 O 74.0968 -1.75074 0.41821 0
M  V30 786 H 70.4718 -0.620023 0.42553 0
M  V30 787 H 72.4428 -1.87473 2.32156 0
M  V30 788 C 71.1918 -3.25961 1.21014 0
M  V30 789 H 70.5148 -3.42607 2.06059 0
M  V30 790 H 71.9548 -4.05625 1.23469 0
M  V30 791 C 70.4138 -3.36799 -0.0825941 0
M  V30 792 O 70.9438 -3.87517 -1.05797 0
M  V30 793 N 69.1498 -2.90258 -0.140939 0
M  V30 794 H 68.6968 -2.49174 0.653477 0
M  V30 795 H 68.6548 -2.97889 -1.00545 0
M  V30 796 N 72.4269 -1.23603 -0.977757 0
M  V30 797 C 73.6669 -1.08148 -1.73446 0
M  V30 798 C 74.0309 0.374785 -1.88307 0
M  V30 799 O 75.2319 0.650588 -2.60808 0
M  V30 800 C 73.5029 -1.78991 -3.0935 0
M  V30 801 S 75.0619 -1.79141 -4.00567 0
M  V30 802 H 71.8799 -0.386987 -0.596458 0
M  V30 803 H 74.4819 -1.5678 -1.16792 0
M  V30 804 H 73.1859 -2.8408 -2.96187 0
M  V30 805 H 72.7169 -1.30651 -3.71071 0
M  V30 806 H 74.7319 -0.851892 -4.88833 0
M  V30 807 N 73.905 1.17692 -1.04816 0
M  V30 808 C 74.852 2.21581 -0.645797 0
M  V30 809 C 75.822 1.62367 0.350159 0
M  V30 810 O 77.007 1.89254 0.242433 0
M  V30 811 C 74.147 3.45092 -0.0227568 0
M  V30 812 C 73.26 4.18613 -1.06709 0
M  V30 813 C 72.395 5.29602 -0.411767 0
M  V30 814 C 71.434 5.94904 -1.44067 0
M  V30 815 N 70.571 6.97414 -0.809781 0
M  V30 816 H 75.411 2.55353 -1.5362 0
M  V30 817 H 72.948 1.25438 -0.768364 0
M  V30 818 H 74.906 4.15679 0.35588 0
M  V30 819 H 73.536 3.11917 0.831122 0
M  V30 820 H 72.588 3.46779 -1.5636 0
M  V30 821 H 73.9 4.63293 -1.84827 0
M  V30 822 H 73.054 6.06696 0.0206623 0
M  V30 823 H 71.793 4.86045 0.401438 0
M  V30 824 H 70.798 5.16544 -1.88316 0
M  V30 825 H 72.023 6.40542 -2.25571 0
M  V30 826 H 69.969 6.55998 -0.0170186 0
M  V30 827 H 69.886 7.40386 -1.52856 0
M  V30 828 H 71.154 7.78463 -0.401999 0
M  V30 829 N 75.3831 0.828654 1.34056 0
M  V30 830 C 76.3311 0.242973 2.31327 0
M  V30 831 C 77.3251 -0.61944 1.57668 0
M  V30 832 O 78.5311 -0.51014 1.7262 0
M  V30 833 H 74.9061 0.059834 0.749616 0
M  V30 834 H 76.8771 1.07809 2.78244 0
M  V30 835 C 75.6261 -0.575733 3.429 0
M  V30 836 H 74.9491 0.0785582 3.99723 0
M  V30 837 H 76.3891 -0.951547 4.13185 0
M  V30 838 C 74.8481 -1.75044 2.87856 0
M  V30 839 O 75.3781 -2.84882 2.83205 0
M  V30 840 N 73.5841 -1.56903 2.44602 0
M  V30 841 H 73.1311 -0.675547 2.48584 0
M  V30 842 H 73.0891 -2.35652 2.08124 0
M  V30 843 N 76.8612 -1.46375 0.584142 0
M  V30 844 C 78.1012 -2.0427 0.0729695 0
M  V30 845 C 78.4652 -1.44563 -1.26355 0
M  V30 846 O 79.6662 -1.93667 -1.86405 0
M  V30 847 C 77.9372 -3.57399 0.00967464 0
M  V30 848 S 79.4962 -4.36551 -0.443714 0
M  V30 849 H 76.3142 -0.709975 0.0381673 0
M  V30 850 H 78.9162 -1.79398 0.776962 0
M  V30 851 H 77.6202 -3.98372 0.986319 0
M  V30 852 H 77.1512 -3.8681 -0.717044 0
M  V30 853 H 79.1662 -4.66237 -1.69816 0
M  V30 854 N 78.3393 -0.321999 -1.54275 0
M  V30 855 C 79.3023 0.531975 -2.22941 0
M  V30 856 C 80.3023 1.04478 -1.22234 0
M  V30 857 O 81.4923 0.937452 -1.46825 0
M  V30 858 C 78.6243 1.73874 -2.93224 0
M  V30 859 H 79.8173 -0.0682612 -2.99822 0
M  V30 860 H 77.3703 -0.0730644 -1.56129 0
M  V30 861 H 78.1053 2.37825 -2.20476 0
M  V30 862 H 77.8903 1.37847 -3.6707 0
M  V30 863 H 79.3803 2.34496 -3.45545 0
M  V30 864 N 79.8174 1.5752 -0.0501392 0
M  V30 865 C 80.7654 2.12651 0.942459 0
M  V30 866 C 81.7594 1.05807 1.32292 0
M  V30 867 O 82.9654 1.24217 1.3027 0
M  V30 868 H 79.3404 0.679673 0.321789 0
M  V30 869 H 81.3114 2.94951 0.452356 0
M  V30 870 C 80.0604 2.68565 2.20836 0
M  V30 871 H 79.3834 3.50439 1.92439 0
M  V30 872 H 80.8234 3.10761 2.8845 0
M  V30 873 C 79.2824 1.62291 2.95234 0
M  V30 874 O 79.8124 1.03508 3.88135 0
M  V30 875 N 78.0184 1.33836 2.57946 0
M  V30 876 H 77.5654 1.81826 1.82475 0
M  V30 877 H 77.5234 0.629595 3.08032 0
M  V30 878 N 81.2955 -0.223234 1.56011 0
M  V30 879 C 82.2055 -1.29766 1.95443 0
M  V30 880 C 83.2215 -1.51373 0.858028 0
M  V30 881 O 84.3975 -1.64536 1.16146 0
M  V30 882 C 81.4625 -2.62772 2.26167 0
M  V30 883 C 80.5235 -2.49482 3.49367 0
M  V30 884 C 79.7565 -3.76145 3.78616 0
M  V30 885 O 79.9795 -4.79087 3.09568 0
M  V30 886 O 78.9135 -3.73358 4.72109 0
M  V30 887 H 82.7395 -0.99309 2.87004 0
M  V30 888 H 80.3245 -0.425958 1.43199 0
M  V30 889 H 82.2065 -3.41327 2.47131 0
M  V30 890 H 80.8815 -2.92913 1.37781 0
M  V30 891 H 79.7885 -1.69133 3.33684 0
M  V30 892 H 81.1215 -2.2428 4.38131 0
M  V30 893 N 82.7736 -1.49793 -0.48987 0
M  V30 894 C 83.7366 -1.66752 -1.57246 0
M  V30 895 C 84.7366 -0.538867 -1.51502 0
M  V30 896 O 85.9266 -0.805545 -1.54456 0
M  V30 897 C 83.0586 -1.67528 -2.96896 0
M  V30 898 H 84.2516 -2.63321 -1.43534 0
M  V30 899 H 81.8046 -1.38992 -0.714914 0
M  V30 900 H 82.5396 -0.725837 -3.16073 0
M  V30 901 H 82.3246 -2.49504 -3.02473 0
M  V30 902 H 83.8146 -1.82667 -3.7553 0
M  V30 903 N 84.2517 0.741722 -1.39055 0
M  V30 904 C 85.4977 1.50336 -1.36113 0
M  V30 905 C 85.8307 1.94148 0.0450796 0
M  V30 906 O 85.1057 1.66301 1.00868 0
M  V30 907 C 85.3887 2.74773 -2.32749 0
M  V30 908 C 85.2417 2.37023 -3.82283 0
M  V30 909 C 86.5607 3.76846 -2.27322 0
M  V30 910 H 83.6797 0.545351 -0.495743 0
M  V30 911 H 86.3217 0.848624 -1.69995 0
M  V30 912 H 84.4717 3.30639 -2.03986 0
M  V30 913 H 86.1437 1.8684 -4.21768 0
M  V30 914 H 84.3867 1.69334 -3.99385 0
M  V30 915 H 85.0577 3.26104 -4.45376 0
M  V30 916 H 87.5337 3.30548 -2.5274 0
M  V30 917 H 86.4097 4.6159 -2.97028 0
M  V30 918 H 86.6707 4.23286 -1.27599 0
M  V30 919 N 85.7298 1.2412 0.971189 0
M  V30 920 C 86.9758 1.08041 1.71625 0
M  V30 921 C 87.3088 -0.380407 1.90438 0
M  V30 922 O 86.5838 -1.28127 1.46334 0
M  V30 923 C 86.8668 1.81682 3.10908 0
M  V30 924 C 86.7198 3.35493 2.99608 0
M  V30 925 C 88.0388 1.58671 4.10501 0
M  V30 926 H 85.1578 0.39388 0.622919 0
M  V30 927 H 87.7998 1.52743 1.13003 0
M  V30 928 H 85.9498 1.43684 3.60953 0
M  V30 929 H 87.6218 3.83068 2.57015 0
M  V30 930 H 85.8648 3.64052 2.35899 0
M  V30 931 H 86.5358 3.82217 3.98264 0
M  V30 932 H 89.0118 1.91719 3.69301 0
M  V30 933 H 87.8878 2.1266 5.06031 0
M  V30 934 H 88.1488 0.524161 4.38982 0
M  V30 935 N 87.2079 -1.17134 1.05439 0
M  V30 936 C 88.1399 -2.2078 0.615539 0
M  V30 937 C 89.1529 -1.59584 -0.322001 0
M  V30 938 O 90.3419 -1.78133 -0.114344 0
M  V30 939 C 87.4419 -3.38691 -0.118938 0
M  V30 940 C 86.6149 -4.29454 0.829924 0
M  V30 941 C 85.6739 -5.26024 0.136258 0
M  V30 942 O 84.6999 -5.63952 0.77115 0
M  V30 943 N 85.9019 -5.69487 -1.1254 0
M  V30 944 H 88.6669 -2.59052 1.50705 0
M  V30 945 H 86.2279 -1.32058 0.936603 0
M  V30 946 H 88.2199 -4.00329 -0.593179 0
M  V30 947 H 86.7899 -2.98996 -0.91215 0
M  V30 948 H 86.0099 -3.65211 1.48373 0
M  V30 949 H 87.2979 -4.86984 1.47392 0
M  V30 950 H 86.6959 -5.4075 -1.6615 0
M  V30 951 H 85.2529 -6.33257 -1.54366 0
M  V30 952 N 88.686 -0.835752 -1.33615 0
M  V30 953 C 89.633 -0.26473 -2.29277 0
M  V30 954 C 90.603 0.617712 -1.54187 0
M  V30 955 O 91.788 0.556641 -1.825 0
M  V30 956 C 88.928 0.556777 -3.40579 0
M  V30 957 C 88.041 -0.349339 -4.30585 0
M  V30 958 C 87.176 0.482969 -5.29 0
M  V30 959 C 86.215 -0.421732 -6.10645 0
M  V30 960 N 85.352 0.372262 -7.01112 0
M  V30 961 H 90.192 -1.08582 -2.77514 0
M  V30 962 H 87.729 -0.546927 -1.36554 0
M  V30 963 H 89.687 1.04852 -4.03809 0
M  V30 964 H 88.317 1.34286 -2.93542 0
M  V30 965 H 87.369 -0.959372 -3.68104 0
M  V30 966 H 88.681 -1.04445 -4.87742 0
M  V30 967 H 87.835 1.03866 -5.97743 0
M  V30 968 H 86.574 1.21153 -4.72412 0
M  V30 969 H 85.579 -0.989464 -5.40823 0
M  V30 970 H 86.804 -1.14861 -6.69316 0
M  V30 971 H 84.75 1.08426 -6.46977 0
M  V30 972 H 84.667 -0.264198 -7.55538 0
M  V30 973 H 85.935 0.910293 -7.74167 0
M  V30 974 N 90.1641 1.46063 -0.591896 0
M  V30 975 C 91.4131 2.01547 -0.0786637 0
M  V30 976 C 91.7261 1.46796 1.29268 0
M  V30 977 O 92.9321 1.94157 1.89777 0
M  V30 978 C 91.3881 3.59787 -0.0900024 0
M  V30 979 C 90.9961 4.23534 -1.46023 0
M  V30 980 C 92.7401 4.22895 0.368806 0
M  V30 981 C 90.6471 5.73881 -1.4288 0
M  V30 982 H 89.5771 0.753564 -0.0256388 0
M  V30 983 H 92.2281 1.677 -0.744905 0
M  V30 984 H 90.6101 3.90752 0.642586 0
M  V30 985 H 91.7841 4.04167 -2.21328 0
M  V30 986 H 90.0991 3.72558 -1.85982 0
M  V30 987 H 92.6961 5.33116 0.411258 0
M  V30 988 H 93.0391 3.9247 1.38827 0
M  V30 989 H 93.5721 3.9659 -0.31001 0
M  V30 990 H 90.3111 6.0898 -2.42536 0
M  V30 991 H 89.8311 5.95486 -0.718095 0
M  V30 992 H 91.5101 6.36776 -1.14565 0
M  V30 993 N 91.6422 0.330177 1.54103 0
M  V30 994 C 92.5722 -0.525353 2.27513 0
M  V30 995 C 93.5532 -1.11383 1.2856 0
M  V30 996 O 94.7382 -1.13773 1.57383 0
M  V30 997 C 91.8682 -1.6831 3.03791 0
M  V30 998 C 90.8222 -1.2236 4.10137 0
M  V30 999 C 90.1482 -2.46882 4.74293 0
M  V30 1000 C 91.4482 -0.333697 5.21233 0
M  V30 1001 H 93.1422 0.087013 2.99274 0
M  V30 1002 H 90.6882 0.0432893 1.43935 0
M  V30 1003 H 92.6412 -2.28795 3.5388 0
M  V30 1004 H 91.3652 -2.32216 2.29659 0
M  V30 1005 H 90.0242 -0.64165 3.60941 0
M  V30 1006 H 89.6722 -3.09165 3.96769 0
M  V30 1007 H 89.3722 -2.16825 5.46133 0
M  V30 1008 H 90.8962 -3.08117 5.27159 0
M  V30 1009 H 92.3102 -0.845013 5.67038 0
M  V30 1010 H 90.7072 -0.125612 5.99969 0
M  V30 1011 H 91.7772 0.633724 4.80741 0
M  V30 1012 N 93.1203 -1.57491 0.0584922 0
M  V30 1013 C 94.3973 -1.84346 -0.653918 0
M  V30 1014 C 94.7773 -0.948355 -1.88599 0
M  V30 1015 O 94.1253 -0.0112403 -2.28497 0
M  V30 1016 C 94.3353 -3.34239 -1.00425 0
M  V30 1017 C 95.6833 -4.01431 -1.38342 0
M  V30 1018 O 96.7073 -3.38907 -1.09637 0
M  V30 1019 O 95.5663 -5.11683 -1.91943 0
M  V30 1020 H 92.6603 -0.761112 -0.323478 0
M  V30 1021 H 95.2063 -1.6947 0.0884125 0
M  V30 1022 H 93.9783 -3.91089 -0.128625 0
M  V30 1023 H 93.6013 -3.54329 -1.80378 0
M  V30 1024 N 94.5984 0.214957 -1.56127 0
M  V30 1025 C 96.0144 0.564948 -1.49267 0
M  V30 1026 C 96.2144 1.86827 -0.754838 0
M  V30 1027 O 95.2704 2.50745 -0.297198 0
M  V30 1028 C 96.5834 0.638071 -2.93852 0
M  V30 1029 C 98.1314 0.728253 -3.0441 0
M  V30 1030 C 98.6064 0.832663 -4.50367 0
M  V30 1031 N 100.097 0.896712 -4.54437 0
M  V30 1032 C 100.832 0.997324 -5.6466 0
M  V30 1033 N 100.328 1.06147 -6.8462 0
M  V30 1034 N 102.121 1.03297 -5.52527 0
M  V30 1035 H 94.2724 -0.640211 -2.02522 0
M  V30 1036 H 96.5354 -0.225507 -0.920788 0
M  V30 1037 H 96.2414 -0.250126 -3.50809 0
M  V30 1038 H 96.1154 1.49947 -3.46115 0
M  V30 1039 H 98.5024 1.60689 -2.47514 0
M  V30 1040 H 98.5834 -0.158952 -2.55306 0
M  V30 1041 H 98.2274 -0.0415417 -5.07883 0
M  V30 1042 H 98.1574 1.73538 -4.97184 0
M  V30 1043 H 100.648 0.857188 -3.6805 0
M  V30 1044 H 100.961 1.1382 -7.64372 0
M  V30 1045 H 99.3064 1.03049 -6.87318 0
M  V30 1046 H 102.497 0.979558 -4.57736 0
M  V30 1047 H 102.67 1.10793 -6.38458 0
M  V30 1048 N 96.0765 1.50051 0.48192 0
M  V30 1049 C 97.3225 1.60736 1.2366 0
M  V30 1050 C 97.6555 0.301786 1.91841 0
M  V30 1051 O 96.9305 -0.696025 1.8162 0
M  V30 1052 C 97.2135 2.78009 2.28874 0
M  V30 1053 C 97.0665 4.18416 1.65069 0
M  V30 1054 C 98.3855 2.90867 3.30279 0
M  V30 1055 H 95.5045 0.585031 0.448228 0
M  V30 1056 H 98.1465 1.82402 0.531946 0
M  V30 1057 H 96.2965 2.59667 2.88973 0
M  V30 1058 H 97.9685 4.48322 1.0865 0
M  V30 1059 H 96.2115 4.23177 0.954148 0
M  V30 1060 H 96.8825 4.96381 2.41474 0
M  V30 1061 H 99.3585 3.07623 2.80191 0
M  V30 1062 H 98.2345 3.74566 4.01238 0
M  V30 1063 H 98.4955 2.01021 3.93755 0
M  V30 1064 N 97.5546 -0.734337 1.39446 0
M  V30 1065 C 98.4846 -1.86155 1.40955 0
M  V30 1066 C 99.4656 -1.67898 0.272827 0
M  V30 1067 O 100.651 -1.88207 0.478743 0
M  V30 1068 C 97.7806 -3.23912 1.25294 0
M  V30 1069 C 96.7346 -3.56808 2.36373 0
M  V30 1070 C 96.0606 -4.93508 2.058 0
M  V30 1071 C 97.3606 -3.59713 3.78687 0
M  V30 1072 H 99.0546 -1.8515 2.35287 0
M  V30 1073 H 96.6006 -0.889367 1.13253 0
M  V30 1074 H 98.5536 -4.02443 1.2497 0
M  V30 1075 H 97.2776 -3.25446 0.274308 0
M  V30 1076 H 95.9366 -2.80606 2.35914 0
M  V30 1077 H 95.5846 -4.91623 1.06374 0
M  V30 1078 H 95.2846 -5.16486 2.80208 0
M  V30 1079 H 96.8086 -5.74396 2.07128 0
M  V30 1080 H 98.2226 -4.2832 3.81071 0
M  V30 1081 H 96.6196 -3.94209 4.52459 0
M  V30 1082 H 97.6896 -2.59504 4.09617 0
M  V30 1083 N 99.0327 -1.24633 -0.964593 0
M  V30 1084 C 100.258 -1.11596 -1.74818 0
M  V30 1085 C 100.683 0.32723 -1.85232 0
M  V30 1086 O 100.041 1.23695 -1.32549 0
M  V30 1087 C 100.089 -1.76397 -3.1451 0
M  V30 1088 O 99.1927 -1.03685 -3.99153 0
M  V30 1089 H 98.5337 -0.390196 -0.537255 0
M  V30 1090 H 101.064 -1.65002 -1.20977 0
M  V30 1091 H 101.074 -1.8228 -3.65018 0
M  V30 1092 H 99.7487 -2.81401 -3.06246 0
M  V30 1093 H 98.3257 -1.05611 -3.57632 0
M  V30 1094 N 100.511 1.16574 -1.06058 0
M  V30 1095 C 101.927 1.3904 -0.783585 0
M  V30 1096 C 102.127 1.91784 0.618145 0
M  V30 1097 O 101.183 2.11511 1.37911 0
M  V30 1098 C 102.496 2.37329 -1.84649 0
M  V30 1099 C 104.044 2.51018 -1.86973 0
M  V30 1100 C 104.519 3.52588 -2.92311 0
M  V30 1101 N 106.01 3.60113 -2.91329 0
M  V30 1102 C 106.745 4.38486 -3.69482 0
M  V30 1103 N 106.241 5.20302 -4.57447 0
M  V30 1104 N 108.034 4.33446 -3.57885 0
M  V30 1105 H 100.185 0.806725 -1.96483 0
M  V30 1106 H 102.448 0.417117 -0.851303 0
M  V30 1107 H 102.154 2.05663 -2.85299 0
M  V30 1108 H 102.028 3.36946 -1.6955 0
M  V30 1109 H 104.415 2.81989 -0.869827 0
M  V30 1110 H 104.496 1.51445 -2.0615 0
M  V30 1111 H 104.14 3.22354 -3.92492 0
M  V30 1112 H 104.07 4.51886 -2.70383 0
M  V30 1113 H 106.561 3.01707 -2.27555 0
M  V30 1114 H 106.874 5.77311 -5.13743 0
M  V30 1115 H 105.219 5.19653 -4.61503 0
M  V30 1116 H 108.41 3.68586 -2.88551 0
M  V30 1117 H 108.583 4.94279 -4.19037 0
M  V30 1118 N 101.989 0.842826 1.3317 0
M  V30 1119 C 103.219 0.453397 2.01564 0
M  V30 1120 C 103.627 -0.951147 1.63554 0
M  V30 1121 O 102.97 -1.63021 0.846746 0
M  V30 1122 C 103.032 0.499013 3.5602 0
M  V30 1123 C 102.696 1.86037 4.1742 0
M  V30 1124 C 103.693 2.82416 4.36506 0
M  V30 1125 C 101.378 2.15428 4.53757 0
M  V30 1126 C 103.372 4.06346 4.91082 0
M  V30 1127 C 101.059 3.39615 5.0804 0
M  V30 1128 C 102.057 4.3489 5.26649 0
M  V30 1129 O 101.745 5.5688 5.79776 0
M  V30 1130 H 101.477 0.177871 0.652179 0
M  V30 1131 H 104.031 1.13808 1.70988 0
M  V30 1132 H 102.261 -0.242467 3.85939 0
M  V30 1133 H 103.95 0.126852 4.05702 0
M  V30 1134 H 104.716 2.6101 4.08777 0
M  V30 1135 H 100.595 1.42061 4.38565 0
M  V30 1136 H 104.139 4.80722 5.05522 0
M  V30 1137 H 100.036 3.60876 5.352 0
M  V30 1138 H 100.804 5.58674 5.98185 0
M  V30 1139 N 103.467 -1.45747 0.599634 0
M  V30 1140 C 104.744 -1.95585 0.0240846 0
M  V30 1141 C 105.124 -1.54217 -1.44154 0
M  V30 1142 O 104.472 -0.800903 -2.14004 0
M  V30 1143 C 104.682 -3.48344 0.21385 0
M  V30 1144 C 106.03 -4.24504 0.0904902 0
M  V30 1145 O 107.054 -3.55911 0.143558 0
M  V30 1146 O 105.913 -5.46491 -0.0310766 0
M  V30 1147 H 103.007 -0.82602 -0.0402478 0
M  V30 1148 H 105.553 -1.55951 0.669139 0
M  V30 1149 H 104.325 -3.71397 1.23206 0
M  V30 1150 H 103.948 -3.9485 -0.466842 0
M  V30 1151 N 104.945 -0.338344 -1.53925 0
M  V30 1152 C 106.191 0.260143 -2.01125 0
M  V30 1153 C 106.524 1.50617 -1.22589 0
M  V30 1154 O 105.799 1.91979 -0.312113 0
M  V30 1155 C 106.082 0.579499 -3.55407 0
M  V30 1156 C 105.935 -0.678264 -4.44657 0
M  V30 1157 C 107.254 1.39122 -4.17532 0
M  V30 1158 H 104.373 0.0930772 -0.731099 0
M  V30 1159 H 107.015 -0.457852 -1.84401 0
M  V30 1160 H 105.165 1.19118 -3.69788 0
M  V30 1161 H 106.837 -1.31631 -4.42121 0
M  V30 1162 H 105.08 -1.3042 -4.13731 0
M  V30 1163 H 105.751 -0.410143 -5.50474 0
M  V30 1164 H 108.227 0.874035 -4.06817 0
M  V30 1165 H 107.103 1.58342 -5.25565 0
M  V30 1166 H 107.364 2.39178 -3.71815 0
M  V30 1167 N 106.423 1.57458 -0.0668435 0
M  V30 1168 C 107.839 1.56947 0.289772 0
M  V30 1169 C 108.039 1.07584 1.70376 0
M  V30 1170 O 107.095 0.739486 2.41429 0
M  V30 1171 C 108.408 3.0052 0.103943 0
M  V30 1172 C 109.956 3.12517 0.173857 0
M  V30 1173 C 110.431 4.57997 0.0163682 0
M  V30 1174 N 111.922 4.63144 0.0721352 0
M  V30 1175 C 112.657 5.73394 -0.0253794 0
M  V30 1176 N 112.153 6.92576 -0.176133 0
M  V30 1177 N 113.946 5.62091 0.0313305 0
M  V30 1178 H 106.097 1.87863 -0.991027 0
M  V30 1179 H 108.36 0.86583 -0.38606 0
M  V30 1180 H 108.066 3.40729 -0.871572 0
M  V30 1181 H 107.94 3.67304 0.858366 0
M  V30 1182 H 110.327 2.72197 1.13985 0
M  V30 1183 H 110.408 2.48381 -0.611586 0
M  V30 1184 H 110.052 4.99005 -0.946374 0
M  V30 1185 H 109.982 5.20158 0.821153 0
M  V30 1186 H 112.473 3.77436 0.187263 0
M  V30 1187 H 112.786 7.72418 -0.242821 0
M  V30 1188 H 111.131 6.94678 -0.211429 0
M  V30 1189 H 114.322 4.67867 0.147773 0
M  V30 1190 H 114.495 6.47982 -0.048121 0
M  V30 1191 N 107.901 -0.206675 1.56239 0
M  V30 1192 C 108.831 -1.25909 1.96645 0
M  V30 1193 C 109.812 -1.48097 0.836734 0
M  V30 1194 O 110.997 -1.6003 1.10019 0
M  V30 1195 C 108.127 -2.6058 2.29599 0
M  V30 1196 C 107.081 -2.53024 3.452 0
M  V30 1197 C 106.407 -3.91861 3.63798 0
M  V30 1198 C 107.707 -2.06524 4.79734 0
M  V30 1199 H 109.401 -0.923369 2.84806 0
M  V30 1200 H 106.947 -0.442735 1.37025 0
M  V30 1201 H 108.9 -3.34375 2.56459 0
M  V30 1202 H 107.624 -2.95869 1.38307 0
M  V30 1203 H 106.283 -1.81684 3.18412 0
M  V30 1204 H 105.931 -4.24483 2.69857 0
M  V30 1205 H 105.631 -3.87683 4.4156 0
M  V30 1206 H 107.155 -4.67296 3.93022 0
M  V30 1207 H 108.569 -2.70072 5.05702 0
M  V30 1208 H 106.966 -2.13374 5.60885 0
M  V30 1209 H 108.036 -1.01802 4.74093 0
M  V30 1210 N 109.379 -1.50304 -0.473955 0
M  V30 1211 C 110.795 -1.37667 -0.807466 0
M  V30 1212 C 110.995 -0.430555 -1.96846 0
M  V30 1213 O 110.051 0.127874 -2.52176 0
M  V30 1214 C 111.364 -2.78974 -1.12223 0
M  V30 1215 C 112.912 -2.87868 -1.22885 0
M  V30 1216 C 113.387 -4.30003 -1.57676 0
M  V30 1217 N 114.878 -4.3294 -1.64673 0
M  V30 1218 C 115.613 -5.3991 -1.93091 0
M  V30 1219 N 115.109 -6.57092 -2.1955 0
M  V30 1220 N 116.902 -5.27351 -1.94569 0
M  V30 1221 H 109.053 -2.10394 0.291212 0
M  V30 1222 H 111.316 -0.945575 0.0677609 0
M  V30 1223 H 111.022 -3.50031 -0.342229 0
M  V30 1224 H 110.896 -3.16038 -2.05913 0
M  V30 1225 H 113.283 -2.17032 -1.99953 0
M  V30 1226 H 113.364 -2.54352 -0.271814 0
M  V30 1227 H 113.008 -5.01375 -0.81149 0
M  V30 1228 H 112.938 -4.61004 -2.54525 0
M  V30 1229 H 115.429 -3.48441 -1.46277 0
M  V30 1230 H 115.742 -7.34425 -2.405 0
M  V30 1231 H 114.087 -6.60272 -2.16948 0
M  V30 1232 H 117.278 -4.34801 -1.73394 0
M  V30 1233 H 117.451 -6.10805 -2.16381 0
M  V30 1234 N 110.857 0.726932 -1.39834 0
M  V30 1235 C 112.268 1.30558 -1.3346 0
M  V30 1236 C 112.619 1.962 -0.00273003 0
M  V30 1237 O 111.744 1.96826 0.899371 0
M  V30 1238 C 112.339 2.37404 -2.41713 0
M  V30 1239 C 110.898 2.90921 -2.38835 0
M  V30 1240 C 110.045 1.64578 -2.2318 0
M  V30 1241 H 112.996 0.523862 -1.49804 0
M  V30 1242 H 113.017 3.17984 -2.08966 0
M  V30 1243 H 112.529 1.89599 -3.38635 0
M  V30 1244 H 110.63 3.42985 -1.45575 0
M  V30 1245 H 110.743 3.43487 -3.33997 0
M  V30 1246 H 109.107 1.89219 -1.70494 0
M  V30 1247 H 109.89 1.18814 -3.22084 0
M  V30 1248 N 112.336 1.25143 0.95797 0
M  V30 1249 C 113.284 1.05019 2.07542 0
M  V30 1250 C 114.278 -0.0178751 1.69391 0
M  V30 1251 O 115.484 0.137472 1.79474 0
M  V30 1252 H 111.859 0.32265 0.679265 0
M  V30 1253 H 113.83 1.99759 2.21673 0
M  V30 1254 C 112.579 0.682074 3.40944 0
M  V30 1255 H 111.902 1.49573 3.70767 0
M  V30 1256 H 113.342 0.580945 4.20001 0
M  V30 1257 C 111.801 -0.611608 3.31302 0
M  V30 1258 O 112.331 -1.65465 3.66038 0
M  V30 1259 N 110.537 -0.595982 2.84423 0
M  V30 1260 H 110.084 0.253192 2.56353 0
M  V30 1261 H 110.042 -1.46173 2.78354 0
M  V30 1262 N 113.814 -1.1601 1.06675 0
M  V30 1263 C 115.061 -1.86633 0.785781 0
M  V30 1264 C 115.389 -1.81929 -0.687896 0
M  V30 1265 O 114.644 -1.23253 -1.52011 0
M  V30 1266 C 114.943 -3.35547 1.23057 0
M  V30 1267 C 114.609 -3.60448 2.70902 0
M  V30 1268 C 113.271 -3.66954 3.11285 0
M  V30 1269 C 115.623 -3.7071 3.66365 0
M  V30 1270 C 112.951 -3.81225 4.45965 0
M  V30 1271 C 115.303 -3.86503 5.00797 0
M  V30 1272 C 113.967 -3.91252 5.40813 0
M  V30 1273 H 113.237 -0.682937 0.287538 0
M  V30 1274 H 115.884 -1.37146 1.33654 0
M  V30 1275 H 114.189 -3.87193 0.59907 0
M  V30 1276 H 115.886 -3.88583 0.990163 0
M  V30 1277 H 112.476 -3.56021 2.38636 0
M  V30 1278 H 116.66 -3.64991 3.36296 0
M  V30 1279 H 111.916 -3.83155 4.76447 0
M  V30 1280 H 116.09 -3.93385 5.74649 0
M  V30 1281 H 113.717 -4.02062 6.45174 0
M  V30 1282 N 115.292 -0.849877 -1.32721 0
M  V30 1283 C 116.54 -0.450032 -1.97026 0
M  V30 1284 C 116.861 0.996604 -1.67609 0
M  V30 1285 O 116.131 1.6958 -0.980786 0
M  V30 1286 H 114.711 -0.163426 -0.728904 0
M  V30 1287 H 117.373 -1.08526 -1.6189 0
M  V30 1288 H 116.469 -0.591146 -3.0645 0
M  V30 1289 N 116.77 1.45427 -0.607355 0
M  V30 1290 C 118.018 2.01841 -0.102253 0
M  V30 1291 C 118.339 1.47832 1.27164 0
M  V30 1292 O 117.609 0.672497 1.83995 0
M  V30 1293 H 116.189 0.746188 -0.0348101 0
M  V30 1294 H 118.851 1.78229 -0.7887 0
M  V30 1295 H 117.947 3.12057 -0.0518585 0
M  V30 1296 N 118.248 0.346503 1.53744 0
M  V30 1297 C 119.211 -0.496439 2.23759 0
M  V30 1298 C 120.211 -1.0252 1.2388 0
M  V30 1299 O 121.401 -0.913974 1.48297 0
M  V30 1300 C 118.533 -1.69187 2.95954 0
M  V30 1301 H 119.726 0.115952 2.99676 0
M  V30 1302 H 117.279 0.0978939 1.55993 0
M  V30 1303 H 118.014 -2.34288 2.24231 0
M  V30 1304 H 117.799 -1.31989 3.69217 0
M  V30 1305 H 119.289 -2.28969 3.49232 0
M  V30 1306 N 119.726 -1.57421 0.075193 0
M  V30 1307 C 121.137 -1.81021 -0.456964 0
M  V30 1308 C 121.488 -0.98936 -1.69429 0
M  V30 1309 O 120.613 -0.212865 -2.15351 0
M  V30 1310 C 121.208 -3.28329 -0.83581 0
M  V30 1311 C 119.767 -3.52764 -1.31281 0
M  V30 1312 C 118.914 -2.75676 -0.299648 0
M  V30 1313 H 121.865 -1.55822 0.300856 0
M  V30 1314 H 121.886 -3.40564 -1.69696 0
M  V30 1315 H 121.398 -3.88046 0.0649238 0
M  V30 1316 H 119.499 -2.98355 -2.23193 0
M  V30 1317 H 119.612 -4.61451 -1.28839 0
M  V30 1318 H 117.976 -2.42538 -0.777641 0
M  V30 1319 H 118.759 -3.38132 0.593417 0
M  V30 1320 N 121.204 0.198386 -1.56346 0
M  V30 1321 C 122.45 0.920648 -1.80698 0
M  V30 1322 C 122.783 1.83045 -0.648697 0
M  V30 1323 O 122.058 1.91308 0.350925 0
M  V30 1324 C 122.341 1.73971 -3.15287 0
M  V30 1325 C 122.194 0.85485 -4.41602 0
M  V30 1326 C 123.513 2.71296 -3.46535 0
M  V30 1327 H 120.632 0.333261 -0.657348 0
M  V30 1328 H 123.274 0.188198 -1.89066 0
M  V30 1329 H 121.424 2.36416 -3.08285 0
M  V30 1330 H 123.096 0.245362 -4.60647 0
M  V30 1331 H 121.339 0.161398 -4.335 0
M  V30 1332 H 122.01 1.46286 -5.32264 0
M  V30 1333 H 124.486 2.18983 -3.53816 0
M  V30 1334 H 123.362 3.2569 -4.41834 0
M  V30 1335 H 123.623 3.5018 -2.69864 0
M  V30 1336 N 122.682 1.50554 0.465978 0
M  V30 1337 C 124.093 1.54599 1.04671 0
M  V30 1338 C 124.444 0.352488 1.93008 0
M  V30 1339 O 123.569 -0.534044 2.09707 0
M  V30 1340 C 124.164 2.80166 1.90505 0
M  V30 1341 C 122.723 2.86876 2.43678 0
M  V30 1342 C 121.87 2.48947 1.22151 0
M  V30 1343 H 124.821 1.56744 0.248384 0
M  V30 1344 H 124.842 2.62311 2.75633 0
M  V30 1345 H 124.354 3.67013 1.26186 0
M  V30 1346 H 122.455 2.04393 3.11536 0
M  V30 1347 H 122.568 3.89885 2.78436 0
M  V30 1348 H 120.932 2.01498 1.5579 0
M  V30 1349 H 121.715 3.38107 0.594866 0
M  V30 1350 N 124.16 -0.719506 1.40217 0
M  V30 1351 C 125.406 -1.48152 1.38488 0
M  V30 1352 C 125.739 -1.94195 -0.0141867 0
M  V30 1353 O 125.014 -1.67884 -0.982096 0
M  V30 1354 C 125.297 -2.71035 2.37091 0
M  V30 1355 C 125.15 -2.30912 3.86005 0
M  V30 1356 C 126.469 -3.73182 2.33288 0
M  V30 1357 H 123.588 -0.537395 0.504357 0
M  V30 1358 H 126.23 -0.821472 1.71324 0
M  V30 1359 H 124.38 -3.27352 2.0922 0
M  V30 1360 H 126.052 -1.80107 4.24687 0
M  V30 1361 H 124.295 -1.62958 4.02029 0
M  V30 1362 H 124.966 -3.18978 4.50508 0
M  V30 1363 H 127.442 -3.26485 2.57966 0
M  V30 1364 H 126.318 -4.56806 3.04334 0
M  V30 1365 H 126.579 -4.21202 1.34317 0
M  V30 1366 N 125.638 -1.25649 -0.95132 0
M  V30 1367 C 127.054 -1.02542 -1.223 0
M  V30 1368 C 127.254 0.255715 -1.99871 0
M  V30 1369 O 126.31 0.967558 -2.33226 0
M  V30 1370 C 127.623 -2.25065 -1.99415 0
M  V30 1371 C 129.171 -2.29861 -2.12446 0
M  V30 1372 C 129.646 -3.52048 -2.92961 0
M  V30 1373 N 131.137 -3.52465 -3.00538 0
M  V30 1374 C 131.872 -4.43672 -3.63239 0
M  V30 1375 N 131.368 -5.45157 -4.27523 0
M  V30 1376 N 133.161 -4.31346 -3.60412 0
M  V30 1377 H 125.312 -2.07951 -0.432471 0
M  V30 1378 H 127.575 -0.91339 -0.253816 0
M  V30 1379 H 127.281 -3.18194 -1.49817 0
M  V30 1380 H 127.155 -2.28502 -3.00111 0
M  V30 1381 H 129.542 -1.37252 -2.61239 0
M  V30 1382 H 129.623 -2.3044 -1.11044 0
M  V30 1383 H 129.267 -4.44981 -2.44856 0
M  V30 1384 H 129.197 -3.48715 -3.94596 0
M  V30 1385 H 131.688 -2.79056 -2.54826 0
M  V30 1386 H 132.001 -6.10958 -4.73234 0
M  V30 1387 H 130.346 -5.49025 -4.26141 0
M  V30 1388 H 133.537 -3.51288 -3.09377 0
M  V30 1389 H 133.71 -5.02624 -4.0899 0
M  V30 1390 N 127.117 1.15442 -1.07289 0
M  V30 1391 C 128.366 1.85557 -0.790669 0
M  V30 1392 C 128.679 1.83186 0.685739 0
M  V30 1393 O 129.885 2.48977 1.0827 0
M  V30 1394 C 128.341 3.33038 -1.36433 0
M  V30 1395 C 127.949 3.43856 -2.8717 0
M  V30 1396 C 129.693 4.0834 -1.1601 0
M  V30 1397 C 127.6 4.85482 -3.3773 0
M  V30 1398 H 126.53 0.695122 -0.292098 0
M  V30 1399 H 129.181 1.30219 -1.29287 0
M  V30 1400 H 127.563 3.88043 -0.789864 0
M  V30 1401 H 128.737 2.98961 -3.50655 0
M  V30 1402 H 127.052 2.81998 -3.06376 0
M  V30 1403 H 129.649 5.12859 -1.51262 0
M  V30 1404 H 129.992 4.16182 -0.0991007 0
M  V30 1405 H 130.525 3.59603 -1.70089 0
M  V30 1406 H 127.264 4.82823 -4.43353 0
M  V30 1407 H 126.784 5.30961 -2.78999 0
M  V30 1408 H 128.463 5.54335 -3.33648 0
M  V30 1409 N 128.595 0.856903 1.32268 0
M  V30 1410 C 129.82 0.474569 2.01897 0
M  V30 1411 C 130.245 -0.921766 1.63967 0
M  V30 1412 O 129.603 -1.60589 0.84148 0
M  V30 1413 C 129.651 0.623799 3.55164 0
M  V30 1414 O 128.755 -0.342459 4.10976 0
M  V30 1415 H 128.096 0.190422 0.63611 0
M  V30 1416 H 130.626 1.15672 1.68764 0
M  V30 1417 H 130.636 0.512169 4.04773 0
M  V30 1418 H 129.311 1.64202 3.82113 0
M  V30 1419 H 127.888 -0.18688 3.72431 0
M  V30 1420 N 130.073 -1.45103 0.615059 0
M  V30 1421 C 131.322 -2.01396 0.110718 0
M  V30 1422 C 131.635 -1.48834 -1.26916 0
M  V30 1423 O 132.841 -1.97152 -1.86664 0
M  V30 1424 C 131.297 -3.59599 0.14723 0
M  V30 1425 C 130.905 -4.21158 1.52743 0
M  V30 1426 C 132.649 -4.23428 -0.30148 0
M  V30 1427 C 130.556 -5.71535 1.51992 0
M  V30 1428 H 129.486 -0.753061 0.0376241 0
M  V30 1429 H 132.137 -1.66494 0.77149 0
M  V30 1430 H 130.519 -3.91724 -0.580339 0
M  V30 1431 H 131.693 -4.00594 2.2773 0
M  V30 1432 H 130.008 -3.69552 1.91886 0
M  V30 1433 H 132.605 -5.33703 -0.326392 0
M  V30 1434 H 132.948 -3.94629 -1.32565 0
M  V30 1435 H 133.481 -3.96047 0.373065 0
M  V30 1436 H 130.22 -6.05044 2.52193 0
M  V30 1437 H 129.74 -5.94268 0.81274 0
M  V30 1438 H 131.419 -6.34873 1.24681 0
M  V30 1439 N 131.551 -0.354651 -1.53558 0
M  V30 1440 C 132.781 0.239167 -2.05211 0
M  V30 1441 C 133.189 1.43879 -1.22863 0
M  V30 1442 O 132.532 1.81857 -0.259565 0
M  V30 1443 C 132.594 0.707251 -3.52474 0
M  V30 1444 C 132.258 -0.374212 -4.55465 0
M  V30 1445 C 133.255 -1.22054 -5.0537 0
M  V30 1446 C 130.94 -0.531323 -4.99482 0
M  V30 1447 C 132.934 -2.20942 -5.97882 0
M  V30 1448 C 130.621 -1.52358 -5.91802 0
M  V30 1449 C 131.619 -2.36108 -6.40892 0
M  V30 1450 O 131.307 -3.33643 -7.31394 0
M  V30 1451 H 131.039 0.0479716 -0.674296 0
M  V30 1452 H 133.593 -0.508121 -1.99016 0
M  V30 1453 H 131.823 1.50596 -3.56171 0
M  V30 1454 H 133.512 1.22285 -3.87042 0
M  V30 1455 H 134.278 -1.1103 -4.7212 0
M  V30 1456 H 130.157 0.110738 -4.60867 0
M  V30 1457 H 133.701 -2.86348 -6.36121 0
M  V30 1458 H 129.598 -1.63434 -6.24467 0
M  V30 1459 H 130.366 -3.29244 -7.4936 0
M  V30 1460 N 133.029 1.57378 -0.0835403 0
M  V30 1461 C 134.275 1.94217 0.583733 0
M  V30 1462 C 134.608 0.964653 1.68547 0
M  V30 1463 O 133.883 -0.00422258 1.945 0
M  V30 1464 C 134.166 3.41253 1.14972 0
M  V30 1465 C 134.019 4.49768 0.0538277 0
M  V30 1466 C 135.338 3.89352 2.05166 0
M  V30 1467 H 132.457 0.706233 0.210724 0
M  V30 1468 H 135.099 1.89392 -0.1519 0
M  V30 1469 H 133.249 3.45496 1.77665 0
M  V30 1470 H 134.921 4.57641 -0.579851 0
M  V30 1471 H 133.164 4.29432 -0.614068 0
M  V30 1472 H 133.835 5.49817 0.490452 0
M  V30 1473 H 136.311 3.87189 1.52393 0
M  V30 1474 H 135.187 4.92822 2.41698 0
M  V30 1475 H 135.448 3.27973 2.96456 0
M  V30 1476 N 134.507 -0.190092 1.56449 0
M  V30 1477 C 135.735 -0.925772 1.85033 0
M  V30 1478 C 136.15 -1.76638 0.666658 0
M  V30 1479 O 135.507 -1.78822 -0.364565 0
M  V30 1480 C 135.558 -1.81786 3.12468 0
M  V30 1481 O 135.279 -1.01118 4.26271 0
M  V30 1482 C 136.78 -2.6648 3.54265 0
M  V30 1483 H 134 -0.269872 0.614337 0
M  V30 1484 H 136.544 -0.195837 2.0356 0
M  V30 1485 H 134.699 -2.50136 2.95822 0
M  V30 1486 H 135.113 -1.61956 4.98869 0
M  V30 1487 H 136.587 -3.24722 4.46385 0
M  V30 1488 H 137.064 -3.40434 2.77491 0
M  V30 1489 H 137.67 -2.03493 3.73458 0
M  V30 1490 N 135.985 -1.50799 -0.457987 0
M  V30 1491 C 137.21 -1.66496 -1.23668 0
M  V30 1492 C 137.635 -0.353288 -1.84752 0
M  V30 1493 O 136.993 0.684346 -1.67888 0
M  V30 1494 C 137.041 -2.76763 -2.3116 0
M  V30 1495 O 136.145 -2.38928 -3.36136 0
M  V30 1496 H 135.486 -0.555828 -0.363252 0
M  V30 1497 H 138.016 -1.9725 -0.543474 0
M  V30 1498 H 138.026 -3.00232 -2.76269 0
M  V30 1499 H 136.701 -3.71954 -1.86073 0
M  V30 1500 H 135.278 -2.25953 -2.96647 0
M  V30 1501 N 137.463 0.71206 -1.40597 0
M  V30 1502 C 138.712 1.46754 -1.38369 0
M  V30 1503 C 139.025 1.95598 0.0097839 0
M  V30 1504 O 140.231 2.71059 0.154677 0
M  V30 1505 C 138.687 2.65289 -2.43207 0
M  V30 1506 C 138.295 2.23301 -3.88382 0
M  V30 1507 C 140.039 3.43008 -2.50091 0
M  V30 1508 C 137.946 3.38696 -4.84808 0
M  V30 1509 H 136.876 0.55118 -0.514506 0
M  V30 1510 H 139.527 0.774616 -1.66349 0
M  V30 1511 H 137.909 3.36769 -2.08332 0
M  V30 1512 H 139.083 1.59218 -4.32419 0
M  V30 1513 H 137.398 1.58618 -3.85006 0
M  V30 1514 H 139.995 4.28881 -3.1932 0
M  V30 1515 H 140.338 3.87065 -1.53253 0
M  V30 1516 H 140.871 2.78574 -2.83974 0
M  V30 1517 H 137.61 2.99668 -5.82992 0
M  V30 1518 H 137.13 4.01683 -4.45433 0
M  V30 1519 H 138.809 4.04712 -5.04794 0
M  V30 1520 N 138.941 1.26152 0.944643 0
M  V30 1521 C 139.851 1.09176 2.07648 0
M  V30 1522 C 140.867 0.0261935 1.7398 0
M  V30 1523 O 142.043 0.229208 2.00091 0
M  V30 1524 C 139.108 0.722915 3.39079 0
M  V30 1525 C 138.169 1.86752 3.86552 0
M  V30 1526 C 137.402 1.51617 5.11711 0
M  V30 1527 O 137.625 0.416331 5.68879 0
M  V30 1528 O 136.559 2.34975 5.54139 0
M  V30 1529 H 140.385 2.0412 2.24875 0
M  V30 1530 H 137.97 1.05182 1.061 0
M  V30 1531 H 139.852 0.529787 4.18056 0
M  V30 1532 H 138.527 -0.197159 3.23099 0
M  V30 1533 H 137.434 2.11558 3.08535 0
M  V30 1534 H 138.767 2.76719 4.07047 0
M  V30 1535 N 140.419 -1.14872 1.07899 0
M  V30 1536 C 141.351 -2.19425 0.662231 0
M  V30 1537 C 142.364 -1.60231 -0.288079 0
M  V30 1538 O 143.553 -1.78336 -0.076534 0
M  V30 1539 C 140.653 -3.38867 -0.0470695 0
M  V30 1540 C 139.826 -4.27597 0.920831 0
M  V30 1541 C 138.885 -5.25616 0.247805 0
M  V30 1542 O 137.911 -5.62189 0.890599 0
M  V30 1543 N 139.113 -5.71746 -1.00435 0
M  V30 1544 H 141.878 -2.55797 1.56166 0
M  V30 1545 H 139.439 -1.30042 0.964404 0
M  V30 1546 H 141.431 -4.01497 -0.50813 0
M  V30 1547 H 140.001 -3.00864 -0.848523 0
M  V30 1548 H 139.221 -3.61982 1.56087 0
M  V30 1549 H 140.509 -4.83748 1.57688 0
M  V30 1550 H 139.907 -5.44153 -1.54642 0
M  V30 1551 H 138.464 -6.36389 -1.40899 0
M  V30 1552 N 141.898 -0.863906 -1.31812 0
M  V30 1553 C 143.147 -0.46801 -1.96195 0
M  V30 1554 C 143.46 0.983474 -1.69077 0
M  V30 1555 O 144.666 1.48523 -2.27273 0
M  V30 1556 C 143.122 -0.785995 -3.51212 0
M  V30 1557 C 142.73 -2.25383 -3.87178 0
M  V30 1558 C 144.474 -0.458274 -4.22019 0
M  V30 1559 C 142.381 -2.51455 -5.3528 0
M  V30 1560 H 141.311 -0.171283 -0.734287 0
M  V30 1561 H 143.962 -1.05597 -1.50072 0
M  V30 1562 H 142.344 -0.127359 -3.95795 0
M  V30 1563 H 143.518 -2.95502 -3.53575 0
M  V30 1564 H 141.833 -2.54698 -3.2942 0
M  V30 1565 H 144.43 -0.630369 -5.30971 0
M  V30 1566 H 144.773 0.600834 -4.11941 0
M  V30 1567 H 145.306 -1.07319 -3.8305 0
M  V30 1568 H 142.045 -3.56025 -5.50387 0
M  V30 1569 H 141.565 -1.85923 -5.70257 0
M  V30 1570 H 143.244 -2.35874 -6.02472 0
M  V30 1571 N 143.376 1.44774 -0.622745 0
M  V30 1572 C 144.601 2.06999 -0.128968 0
M  V30 1573 C 145.026 1.4617 1.1839 0
M  V30 1574 O 144.384 0.560007 1.72434 0
M  V30 1575 C 144.432 3.60595 -0.0188351 0
M  V30 1576 O 143.536 3.99398 1.02739 0
M  V30 1577 H 142.877 0.659047 -0.0809544 0
M  V30 1578 H 145.407 1.85784 -0.85705 0
M  V30 1579 H 145.417 4.07627 0.174476 0
M  V30 1580 H 144.092 4.04252 -0.977384 0
M  V30 1581 H 142.669 3.64011 0.809326 0
M  V30 1582 N 144.854 0.36279 1.53368 0
M  V30 1583 C 145.764 -0.492994 2.29362 0
M  V30 1584 C 146.78 -1.09507 1.35219 0
M  V30 1585 O 147.956 -1.10662 1.68273 0
M  V30 1586 C 145.021 -1.61855 3.066 0
M  V30 1587 C 144.082 -1.04429 4.16405 0
M  V30 1588 C 143.315 -2.11621 4.89951 0
M  V30 1589 O 143.538 -3.32684 4.63333 0
M  V30 1590 O 142.472 -1.74835 5.75948 0
M  V30 1591 H 146.298 0.125331 3.03441 0
M  V30 1592 H 143.883 0.127253 1.48857 0
M  V30 1593 H 145.765 -2.27302 3.54841 0
M  V30 1594 H 144.44 -2.22233 2.3536 0
M  V30 1595 H 143.347 -0.353819 3.72423 0
M  V30 1596 H 144.68 -0.485113 4.89804 0
M  V30 1597 N 146.332 -1.57332 0.0918853 0
M  V30 1598 C 147.265 -2.09499 -0.904735 0
M  V30 1599 C 148.243 -1.00479 -1.27839 0
M  V30 1600 O 149.427 -1.27954 -1.38419 0
M  V30 1601 C 146.554 -2.56931 -2.2069 0
M  V30 1602 C 145.6 -3.77579 -1.98334 0
M  V30 1603 S 146.433 -5.21317 -1.22428 0
M  V30 1604 C 147.589 -5.72097 -2.53882 0
M  V30 1605 H 147.822 -2.93705 -0.460922 0
M  V30 1606 H 145.355 -1.53923 -0.121332 0
M  V30 1607 H 147.313 -2.84917 -2.95521 0
M  V30 1608 H 145.974 -1.72956 -2.62192 0
M  V30 1609 H 145.167 -4.08824 -2.94752 0
M  V30 1610 H 144.769 -3.5007 -1.31633 0
M  V30 1611 H 147.061 -5.80168 -3.49874 0
M  V30 1612 H 148.004 -6.70654 -2.27219 0
M  V30 1613 H 148.412 -5.00012 -2.62007 0
M  V30 1614 N 147.81 0.181792 -1.56548 0
M  V30 1615 C 148.758 1.24461 -1.965 0
M  V30 1616 C 149.752 1.464 -0.852261 0
M  V30 1617 O 150.958 1.47103 -1.03733 0
M  V30 1618 H 147.333 0.418138 -0.625031 0
M  V30 1619 H 149.304 0.880714 -2.85107 0
M  V30 1620 C 148.053 2.57891 -2.33212 0
M  V30 1621 H 147.376 2.41829 -3.18369 0
M  V30 1622 H 148.816 3.3097 -2.65019 0
M  V30 1623 C 147.275 3.15871 -1.17163 0
M  V30 1624 O 147.805 3.9913 -0.453708 0
M  V30 1625 N 146.011 2.74808 -0.944936 0
M  V30 1626 H 145.558 2.07205 -1.53049 0
M  V30 1627 H 145.516 3.13939 -0.170286 0
M  V30 1628 N 149.288 1.51039 0.449983 0
M  V30 1629 C 150.221 1.66105 1.56474 0
M  V30 1630 C 151.199 0.508776 1.54435 0
M  V30 1631 O 152.383 0.731005 1.73749 0
M  V30 1632 C 149.51 1.66304 2.9506 0
M  V30 1633 C 148.556 2.87346 3.15174 0
M  V30 1634 S 149.389 4.4835 2.92818 0
M  V30 1635 C 150.545 4.51274 4.33708 0
M  V30 1636 H 150.778 2.60397 1.43459 0
M  V30 1637 H 148.311 1.40565 0.638805 0
M  V30 1638 H 150.269 1.67103 3.74949 0
M  V30 1639 H 148.93 0.732108 3.05449 0
M  V30 1640 H 148.123 2.83849 4.16468 0
M  V30 1641 H 147.725 2.84223 2.43091 0
M  V30 1642 H 150.017 4.26136 5.26701 0
M  V30 1643 H 150.96 5.53017 4.42242 0
M  V30 1644 H 151.368 3.80738 4.16772 0
M  V30 1645 N 150.766 -0.704594 1.40972 0
M  V30 1646 C 152.043 -1.45847 1.30338 0
M  V30 1647 C 152.423 -2.10973 -0.0732344 0
M  V30 1648 O 151.771 -2.00997 -1.08685 0
M  V30 1649 C 151.981 -2.48525 2.45023 0
M  V30 1650 C 153.329 -3.1404 2.8577 0
M  V30 1651 O 154.353 -2.58848 2.44696 0
M  V30 1652 O 153.212 -4.13981 3.56766 0
M  V30 1653 H 150.306 -0.649092 0.512454 0
M  V30 1654 H 152.852 -0.735836 1.52917 0
M  V30 1655 H 151.624 -1.98994 3.36923 0
M  V30 1656 H 151.247 -3.2831 2.24272 0
M  V30 1657 N 152.244 -1.26651 -0.937939 0
M  V30 1658 C 153.474 -1.15006 -1.71631 0
M  V30 1659 C 153.882 0.297026 -1.86854 0
M  V30 1660 O 153.225 1.21493 -1.37786 0
M  V30 1661 C 153.287 -1.74984 -3.14039 0
M  V30 1662 C 152.951 -3.24103 -3.2219 0
M  V30 1663 C 153.948 -4.20877 -3.05219 0
M  V30 1664 C 151.633 -3.64625 -3.45476 0
M  V30 1665 C 153.627 -5.56151 -3.11408 0
M  V30 1666 C 151.314 -5.00032 -3.513 0
M  V30 1667 C 152.312 -5.95604 -3.34282 0
M  V30 1668 O 152 -7.28545 -3.3982 0
M  V30 1669 H 151.732 -0.401183 -0.544085 0
M  V30 1670 H 154.286 -1.67832 -1.18413 0
M  V30 1671 H 152.516 -1.16624 -3.68695 0
M  V30 1672 H 154.205 -1.58199 -3.73802 0
M  V30 1673 H 154.971 -3.90908 -2.87081 0
M  V30 1674 H 150.85 -2.90718 -3.57777 0
M  V30 1675 H 154.394 -6.30727 -2.98043 0
M  V30 1676 H 150.291 -5.29659 -3.68959 0
M  V30 1677 H 151.059 -7.3686 -3.56343 0
M  V30 1678 N 153.722 1.14298 -1.08507 0
M  V30 1679 C 154.95 1.89219 -0.836876 0
M  V30 1680 C 155.365 1.78638 0.611054 0
M  V30 1681 O 154.722 1.14643 1.41998 0
M  V30 1682 C 154.773 3.39158 -1.25116 0
M  V30 1683 O 154.494 3.49449 -2.64229 0
M  V30 1684 C 155.995 4.31073 -1.03398 0
M  V30 1685 H 153.215 0.599328 -0.301739 0
M  V30 1686 H 155.759 1.44746 -1.44461 0
M  V30 1687 H 153.914 3.81251 -0.687514 0
M  V30 1688 H 154.328 4.42589 -2.81452 0
M  V30 1689 H 155.802 5.34646 -1.37323 0
M  V30 1690 H 156.279 4.3919 0.0289259 0
M  V30 1691 H 156.885 3.94738 -1.58311 0
M  V30 1692 N 155.201 0.870884 1.31352 0
M  V30 1693 C 156.45 0.478408 1.95944 0
M  V30 1694 C 156.763 -0.974493 1.69597 0
M  V30 1695 O 157.969 -1.47316 2.28058 0
M  V30 1696 C 156.425 0.804609 3.50791 0
M  V30 1697 C 156.033 2.27433 3.85977 0
M  V30 1698 C 157.777 0.480648 4.2177 0
M  V30 1699 C 155.684 2.5429 5.33939 0
M  V30 1700 H 154.614 0.175175 0.733369 0
M  V30 1701 H 157.265 1.06391 1.4951 0
M  V30 1702 H 155.647 0.148347 3.95722 0
M  V30 1703 H 156.821 2.97373 3.52002 0
M  V30 1704 H 155.136 2.56442 3.28065 0
M  V30 1705 H 157.733 0.658519 5.30629 0
M  V30 1706 H 158.076 -0.578979 4.12254 0
M  V30 1707 H 158.609 1.09349 3.82476 0
M  V30 1708 H 155.348 3.58939 5.48491 0
M  V30 1709 H 154.868 1.88945 5.69263 0
M  V30 1710 H 156.547 2.39066 6.01212 0
M  V30 1711 N 156.679 -1.44442 0.630414 0
M  V30 1712 C 157.907 -2.06414 0.141671 0
M  V30 1713 C 158.322 -1.47105 -1.18345 0
M  V30 1714 O 157.679 -0.593662 -1.72574 0
M  V30 1715 C 157.73 -3.61494 0.0199784 0
M  V30 1716 O 157.451 -4.18594 1.29269 0
M  V30 1717 C 158.952 -4.40499 -0.497544 0
M  V30 1718 H 156.172 -0.666292 0.0793452 0
M  V30 1719 H 158.716 -1.85323 0.864614 0
M  V30 1720 H 156.871 -3.8185 -0.653402 0
M  V30 1721 H 157.285 -5.12026 1.13707 0
M  V30 1722 H 158.759 -5.49433 -0.531708 0
M  V30 1723 H 159.236 -4.11895 -1.52445 0
M  V30 1724 H 159.842 -4.25061 0.142562 0
M  V30 1725 N 158.157 -0.370918 -1.53173 0
M  V30 1726 C 159.09 0.516727 -2.22273 0
M  V30 1727 C 160.068 1.07877 -1.21661 0
M  V30 1728 O 161.252 1.13389 -1.50583 0
M  V30 1729 C 158.379 1.71346 -2.92161 0
M  V30 1730 C 157.425 1.27838 -4.0689 0
M  V30 1731 S 158.258 0.275217 -5.34792 0
M  V30 1732 C 159.414 1.47816 -6.08195 0
M  V30 1733 H 159.647 -0.0701054 -2.97217 0
M  V30 1734 H 157.18 -0.155038 -1.5362 0
M  V30 1735 H 159.138 2.39988 -3.3304 0
M  V30 1736 H 157.799 2.27156 -2.16931 0
M  V30 1737 H 156.992 2.17141 -4.54825 0
M  V30 1738 H 156.594 0.671105 -3.6793 0
M  V30 1739 H 158.886 2.40831 -6.33251 0
M  V30 1740 H 159.829 1.04008 -7.0042 0
M  V30 1741 H 160.237 1.68663 -5.38714 0
M  V30 1742 N 159.635 1.57281 -0.100228 0
M  V30 1743 C 160.882 1.94537 0.562268 0
M  V30 1744 C 161.21 0.982315 1.67871 0
M  V30 1745 O 160.465 0.00280936 1.957 0
M  V30 1746 C 160.764 3.38305 1.15259 0
M  V30 1747 C 160.43 4.50618 0.159409 0
M  V30 1748 C 159.092 4.81066 -0.113741 0
M  V30 1749 C 161.444 5.18615 -0.518461 0
M  V30 1750 C 158.772 5.76835 -1.07137 0
M  V30 1751 C 161.124 6.15412 -1.46459 0
M  V30 1752 C 159.788 6.44262 -1.74592 0
M  V30 1753 H 159.058 0.711863 0.205748 0
M  V30 1754 H 161.705 1.90679 -0.17715 0
M  V30 1755 H 160.01 3.38766 1.96836 0
M  V30 1756 H 161.707 3.64435 1.67297 0
M  V30 1757 H 158.297 4.2689 0.382491 0
M  V30 1758 H 162.481 4.95264 -0.320581 0
M  V30 1759 H 157.737 5.975 -1.29628 0
M  V30 1760 H 161.911 6.67194 -1.99564 0
M  V30 1761 H 159.538 7.1828 -2.48953 0
M  V30 1762 N 161.113 -0.173488 1.56642 0
M  V30 1763 C 162.36 -0.890465 1.81871 0
M  V30 1764 C 162.688 -1.82339 0.67696 0
M  V30 1765 O 161.943 -1.92795 -0.335926 0
M  V30 1766 C 162.242 -1.72069 3.13252 0
M  V30 1767 C 161.908 -0.936878 4.41059 0
M  V30 1768 C 160.57 -0.720545 4.75775 0
M  V30 1769 C 162.922 -0.386919 5.19762 0
M  V30 1770 C 160.25 0.0568829 5.86672 0
M  V30 1771 C 162.602 0.37741 6.31473 0
M  V30 1772 C 161.266 0.604563 6.64757 0
M  V30 1773 H 160.536 -0.325844 0.665512 0
M  V30 1774 H 163.183 -0.155527 1.90867 0
M  V30 1775 H 161.488 -2.52496 2.99588 0
M  V30 1776 H 163.185 -2.27844 3.29982 0
M  V30 1777 H 159.775 -1.11553 4.13828 0
M  V30 1778 H 163.959 -0.541398 4.93338 0
M  V30 1779 H 159.215 0.242635 6.10918 0
M  V30 1780 H 163.389 0.810825 6.91664 0
M  V30 1781 H 161.016 1.20885 7.50527 0
M  V30 1782 N 162.591 -1.51276 -0.441967 0
M  V30 1783 C 163.541 -1.6864 -1.53442 0
M  V30 1784 C 164.525 -0.540444 -1.51552 0
M  V30 1785 O 165.717 -0.796157 -1.58083 0
M  V30 1786 C 162.846 -1.8106 -2.91672 0
M  V30 1787 C 161.932 -3.01424 -2.98336 0
M  V30 1788 N 162.323 -4.2467 -2.74752 0
M  V30 1789 C 160.621 -3.00584 -3.29493 0
M  V30 1790 C 161.322 -5.05891 -2.87139 0
M  V30 1791 N 160.298 -4.40442 -3.18609 0
M  V30 1792 H 164.1 -2.61598 -1.33954 0
M  V30 1793 H 161.614 -1.4886 -0.6492 0
M  V30 1794 H 163.611 -1.91609 -3.70259 0
M  V30 1795 H 162.271 -0.892795 -3.12185 0
M  V30 1796 H 163.282 -4.53691 -2.49769 0
M  V30 1797 H 159.959 -2.18417 -3.55809 0
M  V30 1798 H 161.349 -6.13983 -2.72899 0
M  V30 1799 N 164.069 0.697108 -1.41344 0
M  V30 1800 C 165.001 1.8224 -1.39001 0
M  V30 1801 C 166.014 1.60152 -0.292428 0
M  V30 1802 O 167.203 1.69684 -0.554048 0
M  V30 1803 C 164.303 3.18976 -1.14489 0
M  V30 1804 C 163.476 3.68105 -2.36258 0
M  V30 1805 C 162.535 4.83506 -2.07625 0
M  V30 1806 O 161.561 4.95201 -2.8065 0
M  V30 1807 N 162.763 5.70637 -1.06555 0
M  V30 1808 H 165.528 1.84742 -2.35988 0
M  V30 1809 H 163.089 0.87937 -1.35936 0
M  V30 1810 H 165.081 3.93801 -0.932885 0
M  V30 1811 H 163.651 3.11508 -0.261043 0
M  V30 1812 H 162.871 2.84204 -2.7317 0
M  V30 1813 H 164.159 3.97667 -3.17393 0
M  V30 1814 H 163.557 5.63817 -0.461125 0
M  V30 1815 H 162.114 6.45368 -0.913444 0
M  V30 1816 N 165.547 1.27147 0.931209 0
M  V30 1817 C 166.775 1.16082 1.71267 0
M  V30 1818 C 167.19 -0.282772 1.8667 0
M  V30 1819 O 166.547 -1.19283 1.38122 0
M  V30 1820 C 166.598 1.8358 3.11417 0
M  V30 1821 O 166.319 3.22299 2.96741 0
M  V30 1822 C 167.82 1.78597 4.05732 0
M  V30 1823 H 165.04 0.403758 0.535929 0
M  V30 1824 H 167.584 1.67953 1.16671 0
M  V30 1825 H 165.739 1.35623 3.62885 0
M  V30 1826 H 166.153 3.55851 3.85319 0
M  V30 1827 H 167.627 2.30444 5.01597 0
M  V30 1828 H 168.104 0.754564 4.3267 0
M  V30 1829 H 168.71 2.26152 3.60188 0
M  V30 1830 N 167.025 -1.13721 1.09112 0
M  V30 1831 C 168.271 -1.85413 0.836283 0
M  V30 1832 C 168.626 -1.8175 -0.631249 0
M  V30 1833 O 167.919 -1.24238 -1.45861 0
M  V30 1834 C 168.113 -3.32861 1.30146 0
M  V30 1835 C 167.942 -3.50882 2.81268 0
M  V30 1836 C 166.712 -3.65312 3.49106 0
M  V30 1837 C 168.91 -3.47196 3.7942 0
M  V30 1838 N 166.892 -3.71563 4.88686 0
M  V30 1839 C 168.263 -3.59777 5.04936 0
M  V30 1840 C 170.318 -3.30577 3.72321 0
M  V30 1841 C 169.021 -3.57455 6.24194 0
M  V30 1842 C 171.047 -3.29562 4.91063 0
M  V30 1843 C 170.409 -3.42691 6.15421 0
M  V30 1844 H 166.508 -0.694812 0.358832 0
M  V30 1845 H 169.092 -1.36246 1.39087 0
M  V30 1846 H 167.263 -3.80602 0.774361 0
M  V30 1847 H 168.995 -3.92346 0.99229 0
M  V30 1848 H 165.75 -3.6685 2.9953 0
M  V30 1849 H 166.174 -3.78387 5.61384 0
M  V30 1850 H 170.816 -3.19332 2.77105 0
M  V30 1851 H 168.534 -3.67475 7.19714 0
M  V30 1852 H 172.12 -3.17905 4.87266 0
M  V30 1853 H 171 -3.41862 7.05762 0
M  V30 1854 N 168.503 -0.877838 -1.30888 0
M  V30 1855 C 169.45 -0.337538 -2.28318 0
M  V30 1856 C 170.42 0.568346 -1.56074 0
M  V30 1857 O 171.605 0.498298 -1.84178 0
M  V30 1858 C 168.745 0.448142 -3.42178 0
M  V30 1859 C 167.858 -0.48615 -4.29256 0
M  V30 1860 C 166.993 0.314427 -5.30269 0
M  V30 1861 C 166.032 -0.615791 -6.08995 0
M  V30 1862 N 165.169 0.14902 -7.01942 0
M  V30 1863 H 170.009 -1.17356 -2.73919 0
M  V30 1864 H 167.546 -0.590094 -1.34745 0
M  V30 1865 H 169.504 0.919517 -4.06941 0
M  V30 1866 H 168.134 1.24879 -2.97666 0
M  V30 1867 H 167.186 -1.076 -3.64865 0
M  V30 1868 H 168.498 -1.19909 -4.84173 0
M  V30 1869 H 167.652 0.847969 -6.00745 0
M  V30 1870 H 166.391 1.06062 -4.76027 0
M  V30 1871 H 165.396 -1.16102 -5.37401 0
M  V30 1872 H 166.621 -1.36097 -6.65323 0
M  V30 1873 H 164.567 0.877884 -6.50099 0
M  V30 1874 H 164.484 -0.504433 -7.54315 0
M  V30 1875 H 165.752 0.663537 -7.76671 0
M  V30 1876 N 169.982 1.44106 -0.638065 0
M  V30 1877 C 171.259 1.95453 -0.0759321 0
M  V30 1878 C 171.639 1.57984 1.40015 0
M  V30 1879 O 170.987 0.857361 2.11806 0
M  V30 1880 C 171.197 3.47655 -0.306132 0
M  V30 1881 C 172.545 4.24114 -0.203008 0
M  V30 1882 O 173.569 3.55405 -0.237871 0
M  V30 1883 O 172.428 5.46381 -0.113827 0
M  V30 1884 H 169.522 0.826797 0.0183332 0
M  V30 1885 H 172.068 1.54122 -0.710251 0
M  V30 1886 H 170.84 3.68 -1.3301 0
M  V30 1887 H 170.463 3.95949 0.361991 0
M  V30 1888 N 171.46 0.379036 1.52974 0
M  V30 1889 C 172.685 -0.209353 2.06341 0
M  V30 1890 C 173.11 -1.40583 1.24972 0
M  V30 1891 O 172.468 -1.79246 0.272155 0
M  V30 1892 C 172.516 -0.567786 3.56102 0
M  V30 1893 O 171.62 -1.66318 3.77375 0
M  V30 1894 H 170.961 -0.0272919 0.663439 0
M  V30 1895 H 173.491 0.543536 1.97248 0
M  V30 1896 H 173.501 -0.835003 3.99364 0
M  V30 1897 H 172.176 0.307013 4.14765 0
M  V30 1898 H 170.753 -1.39048 3.46006 0
M  V30 1899 N 172.938 -1.57226 0.108567 0
M  V30 1900 C 174.354 -1.5766 -0.248058 0
M  V30 1901 C 174.554 -1.12063 -1.67464 0
M  V30 1902 O 173.61 -0.803236 -2.39383 0
M  V30 1903 C 174.923 -3.0069 -0.0242287 0
M  V30 1904 C 176.471 -3.12868 -0.0909372 0
M  V30 1905 C 176.946 -4.57879 0.105067 0
M  V30 1906 N 178.437 -4.63172 0.0506846 0
M  V30 1907 C 179.172 -5.73126 0.177396 0
M  V30 1908 N 178.668 -6.91866 0.359696 0
M  V30 1909 N 180.461 -5.61977 0.117709 0
M  V30 1910 H 172.612 -1.85169 1.04049 0
M  V30 1911 H 174.875 -0.85529 0.40888 0
M  V30 1912 H 174.581 -3.38299 0.961604 0
M  V30 1913 H 174.455 -3.6945 -0.76068 0
M  V30 1914 H 176.842 -2.75124 -1.06729 0
M  V30 1915 H 176.923 -2.46672 0.677225 0
M  V30 1916 H 176.567 -4.96321 1.07834 0
M  V30 1917 H 176.497 -5.22153 -0.682954 0
M  V30 1918 H 178.988 -3.778 -0.0871266 0
M  V30 1919 H 179.301 -7.71503 0.447529 0
M  V30 1920 H 177.646 -6.93874 0.395536 0
M  V30 1921 H 180.837 -4.68094 -0.0236741 0
M  V30 1922 H 181.01 -6.47627 0.219905 0
M  V30 1923 N 174.416 0.165178 -1.56732 0
M  V30 1924 C 175.346 1.20651 -1.99914 0
M  V30 1925 C 176.327 1.45827 -0.875705 0
M  V30 1926 O 177.512 1.57057 -1.14223 0
M  V30 1927 C 174.642 2.54401 -2.36427 0
M  V30 1928 C 173.596 2.43782 -3.51787 0
M  V30 1929 C 172.922 3.82078 -3.7406 0
M  V30 1930 C 174.222 1.93732 -4.85041 0
M  V30 1931 H 175.916 0.847534 -2.87154 0
M  V30 1932 H 173.462 0.40625 -1.38151 0
M  V30 1933 H 175.415 3.27458 -2.65234 0
M  V30 1934 H 174.139 2.92098 -1.46103 0
M  V30 1935 H 172.798 1.73178 -3.23117 0
M  V30 1936 H 172.446 4.17179 -2.81017 0
M  V30 1937 H 172.146 3.7584 -4.51684 0
M  V30 1938 H 173.67 4.56712 -4.05274 0
M  V30 1939 H 175.084 2.56569 -5.12684 0
M  V30 1940 H 173.481 1.98428 -5.66345 0
M  V30 1941 H 174.551 0.891962 -4.76626 0
M  V30 1942 N 175.894 1.51508 0.433938 0
M  V30 1943 C 176.857 1.72473 1.50949 0
M  V30 1944 C 177.857 0.594725 1.49398 0
M  V30 1945 O 179.047 0.862315 1.5136 0
M  V30 1946 C 176.179 1.78431 2.90474 0
M  V30 1947 H 177.372 2.68467 1.33662 0
M  V30 1948 H 174.925 1.41549 0.662836 0
M  V30 1949 H 175.66 0.842645 3.13161 0
M  V30 1950 H 175.445 2.60558 2.93005 0
M  V30 1951 H 176.935 1.96479 3.68491 0
M  V30 1952 N 177.372 -0.689602 1.41712 0
M  V30 1953 C 178.602 -1.47613 1.44548 0
M  V30 1954 C 179.01 -1.89132 0.0509034 0
M  V30 1955 O 178.353 -1.57741 -0.94146 0
M  V30 1956 C 178.415 -2.76596 2.2964 0
M  V30 1957 C 178.079 -2.57245 3.77722 0
M  V30 1958 C 179.076 -2.22804 4.69739 0
M  V30 1959 C 176.761 -2.727 4.2183 0
M  V30 1960 C 178.755 -2.04064 6.03851 0
M  V30 1961 C 176.442 -2.53576 5.56006 0
M  V30 1962 C 177.44 -2.1931 6.46832 0
M  V30 1963 O 177.128 -2.00359 7.78532 0
M  V30 1964 H 176.86 -0.461227 0.494212 0
M  V30 1965 H 179.414 -0.856045 1.86711 0
M  V30 1966 H 177.644 -3.41033 1.82301 0
M  V30 1967 H 179.333 -3.38424 2.24107 0
M  V30 1968 H 180.099 -2.10473 4.36951 0
M  V30 1969 H 175.978 -2.98353 3.51435 0
M  V30 1970 H 179.522 -1.77241 6.74708 0
M  V30 1971 H 175.419 -2.65499 5.88371 0
M  V30 1972 H 176.187 -2.15075 7.89737 0
M  V30 1973 N 178.85 -1.27639 -0.924453 0
M  V30 1974 C 180.08 -1.16819 -1.70402 0
M  V30 1975 C 180.488 0.277191 -1.87158 0
M  V30 1976 O 179.831 1.20025 -1.39067 0
M  V30 1977 C 179.893 -1.78305 -3.12166 0
M  V30 1978 C 179.557 -3.27502 -3.18734 0
M  V30 1979 C 180.554 -4.2409 -3.00738 0
M  V30 1980 C 178.239 -3.68269 -3.4159 0
M  V30 1981 C 180.233 -5.59422 -3.05492 0
M  V30 1982 C 177.92 -5.0373 -3.45977 0
M  V30 1983 C 178.918 -5.99116 -3.27946 0
M  V30 1984 O 178.606 -7.32108 -3.32074 0
M  V30 1985 H 178.338 -0.406931 -0.539799 0
M  V30 1986 H 180.892 -1.69078 -1.16626 0
M  V30 1987 H 179.122 -1.20528 -3.67437 0
M  V30 1988 H 180.811 -1.62154 -3.72103 0
M  V30 1989 H 181.577 -3.93931 -2.82919 0
M  V30 1990 H 177.456 -2.94496 -3.54673 0
M  V30 1991 H 181 -6.33852 -2.91337 0
M  V30 1992 H 176.897 -5.33543 -3.63321 0
M  V30 1993 H 177.665 -7.40598 -3.48507 0
M  V30 1994 N 180.328 1.1314 -1.09713 0
M  V30 1995 C 181.238 2.22242 -0.751367 0
M  V30 1996 C 182.254 1.72224 0.247938 0
M  V30 1997 O 183.43 2.01205 0.0885463 0
M  V30 1998 C 180.495 3.46231 -0.180274 0
M  V30 1999 C 179.556 4.11125 -1.2359 0
M  V30 2000 C 178.789 5.29195 -0.691966 0
M  V30 2001 O 179.012 5.68342 0.48414 0
M  V30 2002 O 177.946 5.84214 -1.44838 0
M  V30 2003 H 181.772 2.54197 -1.66186 0
M  V30 2004 H 179.357 1.21331 -0.871735 0
M  V30 2005 H 181.239 4.21185 0.134739 0
M  V30 2006 H 179.914 3.1597 0.703185 0
M  V30 2007 H 178.821 3.37985 -1.60366 0
M  V30 2008 H 180.154 4.45524 -2.09211 0
M  V30 2009 N 181.806 0.884767 1.30421 0
M  V30 2010 C 183.034 0.518044 2.0031 0
M  V30 2011 C 183.449 -0.893408 1.66324 0
M  V30 2012 O 182.806 -1.5875 0.900262 0
M  V30 2013 C 182.857 0.682997 3.54989 0
M  V30 2014 O 182.578 2.03888 3.87764 0
M  V30 2015 C 184.079 0.31924 4.42149 0
M  V30 2016 H 181.299 0.200265 0.640418 0
M  V30 2017 H 183.843 1.19001 1.6631 0
M  V30 2018 H 181.998 0.0584052 3.87356 0
M  V30 2019 H 182.412 2.05735 4.82466 0
M  V30 2020 H 183.886 0.485555 5.4986 0
M  V30 2021 H 184.363 -0.742717 4.32875 0
M  V30 2022 H 184.969 0.920147 4.15227 0
M  V30 2023 N 183.284 -1.43765 0.645699 0
M  V30 2024 C 184.512 -2.06253 0.163556 0
M  V30 2025 C 184.927 -1.48352 -1.16778 0
M  V30 2026 O 184.284 -0.611932 -1.71935 0
M  V30 2027 C 184.335 -3.61453 0.0583186 0
M  V30 2028 O 184.056 -4.172 1.33702 0
M  V30 2029 C 185.557 -4.41002 -0.450795 0
M  V30 2030 H 182.777 -0.665413 0.0864077 0
M  V30 2031 H 185.321 -1.84396 0.884222 0
M  V30 2032 H 183.476 -3.82522 -0.612865 0
M  V30 2033 H 183.89 -5.10791 1.19131 0
M  V30 2034 H 185.364 -5.49966 -0.473403 0
M  V30 2035 H 185.841 -4.13488 -1.48068 0
M  V30 2036 H 186.447 -4.24886 0.187637 0
M  V30 2037 N 184.763 -0.387143 -1.52771 0
M  V30 2038 C 185.693 0.440551 -2.29306 0
M  V30 2039 C 186.674 1.06535 -1.32606 0
M  V30 2040 O 187.859 1.07853 -1.61497 0
M  V30 2041 C 184.989 1.56919 -3.09829 0
M  V30 2042 C 183.943 1.07054 -4.14395 0
M  V30 2043 C 183.269 2.29109 -4.83129 0
M  V30 2044 C 184.569 0.140015 -5.22112 0
M  V30 2045 H 186.263 -0.198026 -2.98744 0
M  V30 2046 H 183.809 -0.09668 -1.43675 0
M  V30 2047 H 185.762 2.15503 -3.62128 0
M  V30 2048 H 184.486 2.23532 -2.3812 0
M  V30 2049 H 183.145 0.507247 -3.63074 0
M  V30 2050 H 182.793 2.94227 -4.0797 0
M  V30 2051 H 182.493 1.96406 -5.53804 0
M  V30 2052 H 184.017 2.88339 -5.38231 0
M  V30 2053 H 185.431 0.633978 -5.69784 0
M  V30 2054 H 183.828 -0.0971485 -6.00021 0
M  V30 2055 H 184.898 -0.811711 -4.78058 0
M  V30 2056 N 186.241 1.57166 -0.116904 0
M  V30 2057 C 187.189 2.16457 0.851418 0
M  V30 2058 C 188.183 1.11323 1.27686 0
M  V30 2059 O 189.389 1.2963 1.24884 0
M  V30 2060 H 185.764 0.69271 0.292672 0
M  V30 2061 H 187.735 2.96605 0.32685 0
M  V30 2062 C 186.484 2.77689 2.09246 0
M  V30 2063 H 185.807 3.58285 1.77402 0
M  V30 2064 H 187.247 3.22716 2.7501 0
M  V30 2065 C 185.706 1.74667 2.88085 0
M  V30 2066 O 186.236 1.19877 3.83396 0
M  V30 2067 N 184.442 1.44656 2.52038 0
M  V30 2068 H 183.989 1.89402 1.74599 0
M  V30 2069 H 183.947 0.759675 3.05084 0
M  V30 2070 N 187.719 -0.156864 1.56817 0
M  V30 2071 C 188.649 -1.19589 2.00551 0
M  V30 2072 C 189.63 -1.4536 0.883426 0
M  V30 2073 O 190.815 -1.56449 1.15054 0
M  V30 2074 C 187.945 -2.53143 2.37773 0
M  V30 2075 C 186.899 -2.41913 3.53075 0
M  V30 2076 C 186.225 -3.80088 3.76081 0
M  V30 2077 C 187.525 -1.91157 4.86062 0
M  V30 2078 H 189.219 -0.832293 2.87599 0
M  V30 2079 H 186.765 -0.398918 1.38364 0
M  V30 2080 H 188.718 -3.26047 2.66967 0
M  V30 2081 H 187.442 -2.91319 1.4765 0
M  V30 2082 H 186.101 -1.71462 3.24031 0
M  V30 2083 H 185.749 -4.15683 2.83225 0
M  V30 2084 H 185.449 -3.73439 4.53671 0
M  V30 2085 H 186.973 -4.54556 4.0769 0
M  V30 2086 H 188.387 -2.53846 5.14038 0
M  V30 2087 H 186.784 -1.95422 5.67389 0
M  V30 2088 H 187.854 -0.866673 4.77092 0
M  V30 2089 N 189.197 -1.51736 -0.425897 0
M  V30 2090 C 190.425 -1.68794 -1.1965 0
M  V30 2091 C 190.84 -0.390164 -1.84725 0
M  V30 2092 O 190.197 0.632376 -1.71194 0
M  V30 2093 C 190.248 -2.81174 -2.27208 0
M  V30 2094 O 189.969 -4.05925 -1.64793 0
M  V30 2095 C 191.47 -3.09599 -3.17275 0
M  V30 2096 H 188.69 -0.566128 -0.360194 0
M  V30 2097 H 191.234 -1.98211 -0.503249 0
M  V30 2098 H 189.389 -2.54324 -2.9223 0
M  V30 2099 H 189.803 -4.68423 -2.35967 0
M  V30 2100 H 191.277 -3.91786 -3.88854 0
M  V30 2101 H 191.754 -2.22468 -3.78688 0
M  V30 2102 H 192.36 -3.38151 -2.57941 0
M  V30 2103 N 190.675 0.682077 -1.42076 0
M  V30 2104 C 191.605 1.80796 -1.47767 0
M  V30 2105 C 192.586 1.6677 -0.334954 0
M  V30 2106 O 193.771 1.863 -0.548264 0
M  V30 2107 C 190.901 3.19038 -1.37229 0
M  V30 2108 C 189.855 3.47789 -2.49453 0
M  V30 2109 C 189.181 4.8553 -2.23975 0
M  V30 2110 C 190.481 3.45411 -3.91776 0
M  V30 2111 H 192.175 1.7629 -2.41997 0
M  V30 2112 H 189.721 0.846721 -1.16476 0
M  V30 2113 H 191.674 3.97528 -1.39821 0
M  V30 2114 H 190.398 3.24204 -0.394907 0
M  V30 2115 H 189.057 2.71657 -2.46166 0
M  V30 2116 H 188.705 4.87337 -1.24547 0
M  V30 2117 H 188.405 5.0573 -2.99184 0
M  V30 2118 H 189.929 5.66312 -2.28304 0
M  V30 2119 H 191.343 4.13882 -3.96705 0
M  V30 2120 H 189.74 3.77145 -4.66778 0
M  V30 2121 H 190.81 2.44122 -4.18966 0
M  V30 2122 N 192.153 1.28127 0.917671 0
M  V30 2123 C 193.43 1.05761 1.64542 0
M  V30 2124 C 193.81 -0.404344 2.07191 0
M  V30 2125 O 193.158 -1.38963 1.81388 0
M  V30 2126 C 193.368 2.02857 2.83989 0
M  V30 2127 C 194.716 2.32786 3.551 0
M  V30 2128 O 195.74 2.0091 2.94132 0
M  V30 2129 O 194.599 2.87169 4.64969 0
M  V30 2130 H 191.693 0.403916 0.721652 0
M  V30 2131 H 194.239 1.39431 0.967322 0
M  V30 2132 H 193.011 3.01407 2.49538 0
M  V30 2133 H 192.634 1.69809 3.59514 0
M  V30 2134 N 193.631 -1.12557 1.10312 0
M  V30 2135 C 194.861 -1.87592 0.865617 0
M  V30 2136 C 195.269 -1.79851 -0.587389 0
M  V30 2137 O 194.612 -1.16949 -1.41664 0
M  V30 2138 C 194.674 -3.37665 1.23381 0
M  V30 2139 C 194.338 -3.69181 2.69359 0
M  V30 2140 C 195.335 -3.67652 3.67597 0
M  V30 2141 C 193.02 -3.98555 3.05711 0
M  V30 2142 C 195.014 -3.95053 5.00212 0
M  V30 2143 C 192.701 -4.25616 4.38514 0
M  V30 2144 C 193.699 -4.23851 5.35574 0
M  V30 2145 O 193.387 -4.50242 6.65986 0
M  V30 2146 H 193.119 -0.600442 0.310557 0
M  V30 2147 H 195.673 -1.4335 1.47105 0
M  V30 2148 H 193.903 -3.82454 0.571467 0
M  V30 2149 H 195.592 -3.94041 0.973994 0
M  V30 2150 H 196.358 -3.45024 3.40857 0
M  V30 2151 H 192.237 -3.99071 2.30789 0
M  V30 2152 H 195.781 -3.93591 5.75962 0
M  V30 2153 H 191.678 -4.47718 4.64994 0
M  V30 2154 H 192.446 -4.67867 6.71597 0
M  V30 2155 N 195.109 -0.891671 -1.2995 0
M  V30 2156 C 196.525 -0.58662 -1.48428 0
M  V30 2157 C 196.725 0.873951 -1.81561 0
M  V30 2158 O 195.781 1.65471 -1.90724 0
M  V30 2159 C 197.094 -1.50553 -2.60296 0
M  V30 2160 C 198.642 -1.50988 -2.74175 0
M  V30 2161 C 199.117 -2.41488 -3.89163 0
M  V30 2162 N 200.608 -2.39489 -3.96483 0
M  V30 2163 C 201.343 -3.06223 -4.84784 0
M  V30 2164 N 200.839 -3.82206 -5.77833 0
M  V30 2165 N 202.632 -2.95421 -4.78208 0
M  V30 2166 H 194.783 -1.83644 -1.06718 0
M  V30 2167 H 197.046 -0.786455 -0.529332 0
M  V30 2168 H 196.752 -2.54581 -2.42654 0
M  V30 2169 H 196.626 -1.22008 -3.56923 0
M  V30 2170 H 199.013 -0.47708 -2.91218 0
M  V30 2171 H 199.094 -1.83567 -1.78148 0
M  V30 2172 H 198.738 -3.44857 -3.72876 0
M  V30 2173 H 198.668 -2.06222 -4.84541 0
M  V30 2174 H 201.159 -1.84278 -3.29924 0
M  V30 2175 H 201.472 -4.302 -6.41988 0
M  V30 2176 H 199.817 -3.86313 -5.77743 0
M  V30 2177 H 203.008 -2.35581 -4.04499 0
M  V30 2178 H 203.181 -3.47704 -5.46814 0
M  V30 2179 N 196.587 1.43421 -0.653314 0
M  V30 2180 C 197.52 2.2803 0.0879804 0
M  V30 2181 C 198.498 1.39833 0.82979 0
M  V30 2182 O 199.682 1.69275 0.829341 0
M  V30 2183 C 196.809 3.19247 1.13132 0
M  V30 2184 C 195.855 4.23704 0.487546 0
M  V30 2185 S 196.688 5.30377 -0.738961 0
M  V30 2186 C 197.844 6.25162 0.30384 0
M  V30 2187 H 198.077 2.90554 -0.629739 0
M  V30 2188 H 195.61 1.47934 -0.442156 0
M  V30 2189 H 197.568 3.72346 1.72827 0
M  V30 2190 H 196.229 2.55901 1.82136 0
M  V30 2191 H 195.422 4.87631 1.27407 0
M  V30 2192 H 195.024 3.73983 -0.0352915 0
M  V30 2193 H 197.316 6.67321 1.17 0
M  V30 2194 H 198.259 7.07463 -0.300402 0
M  V30 2195 H 198.667 5.60864 0.63969 0
M  V30 2196 N 198.065 0.39524 1.52563 0
M  V30 2197 C 199.015 -0.4541 2.23432 0
M  V30 2198 C 199.999 -1.02482 1.24042 0
M  V30 2199 O 201.191 -0.949938 1.49349 0
M  V30 2200 C 198.32 -1.57769 3.049 0
M  V30 2201 C 197.406 -1.01842 4.1169 0
M  V30 2202 N 197.797 -0.184613 5.05463 0
M  V30 2203 C 196.095 -1.29033 4.26927 0
M  V30 2204 C 196.796 0.125013 5.81566 0
M  V30 2205 N 195.772 -0.480498 5.41472 0
M  V30 2206 H 199.574 0.189413 2.93289 0
M  V30 2207 H 197.088 0.204877 1.61102 0
M  V30 2208 H 199.085 -2.19862 3.54212 0
M  V30 2209 H 197.745 -2.22397 2.36579 0
M  V30 2210 H 198.756 0.178602 5.17592 0
M  V30 2211 H 195.433 -1.93721 3.69836 0
M  V30 2212 H 196.823 0.800962 6.67109 0
M  V30 2213 N 199.544 -1.57102 0.125237 0
M  V30 2214 C 200.454 -2.19191 -0.8362 0
M  V30 2215 C 201.47 -1.16985 -1.28805 0
M  V30 2216 O 202.646 -1.49479 -1.34974 0
M  V30 2217 C 199.711 -2.78407 -2.06617 0
M  V30 2218 C 198.772 -3.9567 -1.66565 0
M  V30 2219 C 198.005 -4.52052 -2.83698 0
M  V30 2220 O 198.228 -4.07326 -3.99302 0
M  V30 2221 O 197.162 -5.42645 -2.60423 0
M  V30 2222 H 200.988 -3.01816 -0.337776 0
M  V30 2223 H 198.573 -1.4906 -0.100695 0
M  V30 2224 H 200.455 -3.16129 -2.7864 0
M  V30 2225 H 199.13 -1.9881 -2.55453 0
M  V30 2226 H 198.037 -3.62705 -0.916296 0
M  V30 2227 H 199.37 -4.76722 -1.22464 0
M  V30 2228 N 201.022 0.148545 -1.56898 0
M  V30 2229 C 201.969 1.18345 -1.98149 0
M  V30 2230 C 202.939 1.42772 -0.848848 0
M  V30 2231 O 204.124 1.55132 -1.11079 0
M  V30 2232 C 201.264 2.51231 -2.36594 0
M  V30 2233 C 200.377 2.33991 -3.63142 0
M  V30 2234 C 199.512 3.59902 -3.90697 0
M  V30 2235 C 198.551 3.37692 -5.1052 0
M  V30 2236 N 197.688 4.5573 -5.34092 0
M  V30 2237 H 202.528 0.82467 -2.86362 0
M  V30 2238 H 200.065 0.395756 -1.41676 0
M  V30 2239 H 202.023 3.28713 -2.56912 0
M  V30 2240 H 200.653 2.85059 -1.51463 0
M  V30 2241 H 199.705 1.47572 -3.50609 0
M  V30 2242 H 201.017 2.13539 -4.5078 0
M  V30 2243 H 200.171 4.45813 -4.11505 0
M  V30 2244 H 198.91 3.83357 -3.01477 0
M  V30 2245 H 197.915 2.5017 -4.89587 0
M  V30 2246 H 199.14 3.15637 -6.0129 0
M  V30 2247 H 197.086 4.79361 -4.47827 0
M  V30 2248 H 197.003 4.38274 -6.15996 0
M  V30 2249 H 198.271 5.42858 -5.59397 0
M  V30 2250 N 202.5 1.5196 0.417844 0
M  V30 2251 C 203.43 1.77634 1.51554 0
M  V30 2252 C 204.411 0.626918 1.58126 0
M  V30 2253 O 205.596 0.871632 1.7354 0
M  V30 2254 C 202.726 1.91911 2.8946 0
M  V30 2255 C 201.68 3.07463 2.97743 0
M  V30 2256 C 201.006 3.06951 4.37819 0
M  V30 2257 C 202.306 4.47082 2.70027 0
M  V30 2258 H 204 2.6955 1.3032 0
M  V30 2259 H 201.546 1.29706 0.625492 0
M  V30 2260 H 203.499 2.08455 3.6623 0
M  V30 2261 H 202.223 0.966598 3.11969 0
M  V30 2262 H 200.882 2.90656 2.23416 0
M  V30 2263 H 200.53 2.09438 4.57323 0
M  V30 2264 H 200.23 3.84556 4.44286 0
M  V30 2265 H 201.754 3.25613 5.16535 0
M  V30 2266 H 203.168 4.6414 3.36522 0
M  V30 2267 H 201.565 5.2654 2.87881 0
M  V30 2268 H 202.635 4.55777 1.65514 0
M  V30 2269 N 203.978 -0.674533 1.42435 0
M  V30 2270 C 205.224 -1.43521 1.4413 0
M  V30 2271 C 205.579 -1.92316 0.0567773 0
M  V30 2272 O 204.872 -1.68008 -0.921076 0
M  V30 2273 C 205.066 -2.64767 2.40069 0
M  V30 2274 C 204.895 -2.27836 3.87713 0
M  V30 2275 C 203.665 -2.17183 4.56245 0
M  V30 2276 C 205.863 -1.89466 4.78129 0
M  V30 2277 N 203.845 -1.73358 5.88915 0
M  V30 2278 C 205.216 -1.56561 5.99907 0
M  V30 2279 C 207.271 -1.7646 4.65582 0
M  V30 2280 C 205.974 -1.11957 7.10534 0
M  V30 2281 C 208 -1.3326 5.76191 0
M  V30 2282 C 207.362 -1.0128 6.97081 0
M  V30 2283 H 203.461 -0.521656 0.582579 0
M  V30 2284 H 206.045 -0.778381 1.78464 0
M  V30 2285 H 204.216 -3.28139 2.07796 0
M  V30 2286 H 205.948 -3.3136 2.32342 0
M  V30 2287 H 202.703 -2.3626 4.10461 0
M  V30 2288 H 203.127 -1.53867 6.59283 0
M  V30 2289 H 207.769 -1.99831 3.72595 0
M  V30 2290 H 205.487 -0.873318 8.03367 0
M  V30 2291 H 209.073 -1.23717 5.68494 0
M  V30 2292 H 207.953 -0.683597 7.81215 0
M  V30 2293 N 205.456 -1.28612 -0.910864 0
M  V30 2294 C 206.702 -1.16106 -1.66274 0
M  V30 2295 C 207.035 0.289113 -1.92036 0
M  V30 2296 O 206.31 1.21 -1.52281 0
M  V30 2297 C 206.593 -1.96309 -3.01885 0
M  V30 2298 C 206.446 -3.49405 -2.8326 0
M  V30 2299 C 207.765 -1.78076 -4.02463 0
M  V30 2300 H 204.884 -0.423152 -0.603417 0
M  V30 2301 H 207.526 -1.57961 -1.05586 0
M  V30 2302 H 205.676 -1.60742 -3.53687 0
M  V30 2303 H 207.348 -3.94894 -2.38446 0
M  V30 2304 H 205.591 -3.74893 -2.18261 0
M  V30 2305 H 206.262 -4.00784 -3.79574 0
M  V30 2306 H 208.738 -2.0912 -3.59733 0
M  V30 2307 H 207.614 -2.36561 -4.95308 0
M  V30 2308 H 207.875 -0.733008 -4.35981 0
M  V30 2309 N 206.934 1.1197 -1.10907 0
M  V30 2310 C 208.345 1.65114 -0.871446 0
M  V30 2311 C 208.696 1.86885 0.597353 0
M  V30 2312 O 207.821 1.59896 1.45816 0
M  V30 2313 C 208.416 2.99944 -1.5754 0
M  V30 2314 C 206.975 3.50018 -1.38435 0
M  V30 2315 C 206.122 2.24941 -1.62164 0
M  V30 2316 H 209.073 0.956851 -1.2661 0
M  V30 2317 H 209.094 3.66651 -1.01721 0
M  V30 2318 H 208.606 2.84067 -2.64438 0
M  V30 2319 H 206.707 3.71071 -0.337214 0
M  V30 2320 H 206.82 4.29165 -2.12965 0
M  V30 2321 H 205.184 2.3229 -1.04467 0
M  V30 2322 H 205.967 2.11612 -2.70324 0
M  V30 2323 N 208.412 0.89855 1.29475 0
M  V30 2324 C 209.689 0.443416 1.90508 0
M  V30 2325 C 210.069 -1.07685 1.81569 0
M  V30 2326 O 209.417 -1.9182 1.24166 0
M  V30 2327 C 209.627 0.956708 3.35631 0
M  V30 2328 C 210.975 0.999728 4.12663 0
M  V30 2329 O 211.999 0.904299 3.4453 0
M  V30 2330 O 210.858 1.14289 5.34416 0
M  V30 2331 H 207.952 0.138025 0.815401 0
M  V30 2332 H 210.498 0.98834 1.37949 0
M  V30 2333 H 209.27 2.00067 3.36287 0
M  V30 2334 H 208.893 0.391728 3.95666 0
M  V30 2335 N 209.89 -1.43072 0.660911 0
M  V30 2336 C 211.13 -2.03596 0.181146 0
M  V30 2337 C 211.494 -1.51057 -1.18515 0
M  V30 2338 O 212.695 -2.03275 -1.75877 0
M  V30 2339 C 210.966 -3.56845 0.19911 0
M  V30 2340 S 212.525 -4.38289 -0.211684 0
M  V30 2341 H 209.343 -0.706954 0.0757479 0
M  V30 2342 H 211.945 -1.75027 0.870965 0
M  V30 2343 H 210.649 -3.92583 1.1961 0
M  V30 2344 H 210.18 -3.90067 -0.510996 0
M  V30 2345 H 212.195 -4.74583 -1.44863 0
M  V30 2346 N 211.368 -0.403325 -1.52352 0
M  V30 2347 C 212.598 0.17376 -2.05868 0
M  V30 2348 C 213.006 1.39898 -1.27378 0
M  V30 2349 O 212.349 1.80939 -0.31729 0
M  V30 2350 C 212.411 0.594756 -3.54546 0
M  V30 2351 C 212.075 -0.518926 -4.54044 0
M  V30 2352 C 213.072 -1.3807 -5.01231 0
M  V30 2353 C 210.757 -0.689961 -4.97539 0
M  V30 2354 C 212.751 -2.39852 -5.90551 0
M  V30 2355 C 210.438 -1.71109 -5.86656 0
M  V30 2356 C 211.436 -2.56378 -6.33056 0
M  V30 2357 O 211.124 -3.56743 -7.20409 0
M  V30 2358 H 210.856 0.0264951 -0.675481 0
M  V30 2359 H 213.41 -0.571179 -1.97299 0
M  V30 2360 H 211.64 1.39189 -3.60782 0
M  V30 2361 H 213.329 1.0991 -3.90736 0
M  V30 2362 H 214.095 -1.25994 -4.68349 0
M  V30 2363 H 209.974 -0.035939 -4.60986 0
M  V30 2364 H 213.518 -3.06441 -6.26689 0
M  V30 2365 H 209.415 -1.83218 -6.18952 0
M  V30 2366 H 210.183 -3.52918 -7.38506 0
M  V30 2367 N 212.846 1.57033 -0.133567 0
M  V30 2368 C 214.093 1.95686 0.520877 0
M  V30 2369 C 214.421 1.0177 1.6575 0
M  V30 2370 O 213.676 0.0443195 1.9565 0
M  V30 2371 C 213.975 3.40674 1.08057 0
M  V30 2372 C 213.641 4.50855 0.0637899 0
M  V30 2373 C 212.303 4.80716 -0.215757 0
M  V30 2374 C 214.655 5.17398 -0.62835 0
M  V30 2375 C 211.983 5.74433 -1.19348 0
M  V30 2376 C 214.335 6.12167 -1.5948 0
M  V30 2377 C 212.999 6.40414 -1.88218 0
M  V30 2378 H 212.269 0.716067 0.190602 0
M  V30 2379 H 214.916 1.9026 -0.217556 0
M  V30 2380 H 213.221 3.42865 1.89606 0
M  V30 2381 H 214.918 3.67902 1.59529 0
M  V30 2382 H 211.508 4.27605 0.291855 0
M  V30 2383 H 215.692 4.94472 -0.425562 0
M  V30 2384 H 210.948 5.94616 -1.42272 0
M  V30 2385 H 215.122 6.6281 -2.13671 0
M  V30 2386 H 212.749 7.12838 -2.64133 0
M  V30 2387 N 214.325 -0.140222 1.56975 0
M  V30 2388 C 215.255 -1.17456 2.01808 0
M  V30 2389 C 216.236 -1.44415 0.898794 0
M  V30 2390 O 217.421 -1.5522 1.16707 0
M  V30 2391 C 214.551 -2.50607 2.40444 0
M  V30 2392 C 213.505 -2.38155 3.55621 0
M  V30 2393 C 212.831 -3.76078 3.80091 0
M  V30 2394 C 214.131 -1.85991 4.88062 0
M  V30 2395 H 215.825 -0.801743 2.88466 0
M  V30 2396 H 213.371 -0.38422 1.38779 0
M  V30 2397 H 215.324 -3.23197 2.7041 0
M  V30 2398 H 214.048 -2.89737 1.50732 0
M  V30 2399 H 212.707 -1.68016 3.25832 0
M  V30 2400 H 212.355 -4.12656 2.87618 0
M  V30 2401 H 212.055 -3.68606 4.57606 0
M  V30 2402 H 213.579 -4.50206 4.12488 0
M  V30 2403 H 214.993 -2.4838 5.16701 0
M  V30 2404 H 213.39 -1.89393 5.6943 0
M  V30 2405 H 214.46 -0.816023 4.77984 0
M  V30 2406 N 215.803 -1.52179 -0.40978 0
M  V30 2407 C 216.751 -1.76086 -1.51975 0
M  V30 2408 C 217.745 -0.627964 -1.57331 0
M  V30 2409 O 218.951 -0.809993 -1.60745 0
M  V30 2410 H 215.326 -0.556829 -0.505416 0
M  V30 2411 H 217.297 -2.69077 -1.28996 0
M  V30 2412 C 216.046 -1.92799 -2.8935 0
M  V30 2413 H 215.369 -2.79392 -2.85972 0
M  V30 2414 H 216.809 -2.13527 -3.66309 0
M  V30 2415 C 215.268 -0.694923 -3.29655 0
M  V30 2416 O 215.798 0.13751 -4.01465 0
M  V30 2417 N 214.004 -0.53101 -2.85707 0
M  V30 2418 H 213.551 -1.20952 -2.27439 0
M  V30 2419 H 213.509 0.292718 -3.13034 0
M  V30 2420 N 217.281 0.66697 -1.42791 0
M  V30 2421 C 218.506 1.46004 -1.47301 0
M  V30 2422 C 218.931 1.87894 -0.0880317 0
M  V30 2423 O 218.289 1.56502 0.915253 0
M  V30 2424 C 218.337 2.68031 -2.41229 0
M  V30 2425 O 217.441 3.6659 -1.88906 0
M  V30 2426 H 216.782 0.43832 -0.49877 0
M  V30 2427 H 219.312 0.817391 -1.87563 0
M  V30 2428 H 219.322 3.1601 -2.58073 0
M  V30 2429 H 217.997 2.36883 -3.41847 0
M  V30 2430 H 216.574 3.25661 -1.81656 0
M  V30 2431 N 218.759 1.29093 0.90403 0
M  V30 2432 C 219.706 1.13853 2.00764 0
M  V30 2433 C 220.676 0.0330084 1.66067 0
M  V30 2434 O 221.861 0.199733 1.89752 0
M  V30 2435 C 219.001 0.816537 3.35301 0
M  V30 2436 C 218.114 2.00206 3.82807 0
M  V30 2437 C 217.249 1.61983 5.059 0
M  V30 2438 C 216.288 2.77143 5.45764 0
M  V30 2439 N 215.425 2.39346 6.60044 0
M  V30 2440 H 220.265 2.08276 2.13132 0
M  V30 2441 H 217.802 1.03648 1.04381 0
M  V30 2442 H 219.76 0.610557 4.12708 0
M  V30 2443 H 218.39 -0.090779 3.22672 0
M  V30 2444 H 217.442 2.31988 3.01473 0
M  V30 2445 H 218.754 2.86512 4.08304 0
M  V30 2446 H 217.908 1.37649 5.90879 0
M  V30 2447 H 216.647 0.728202 4.82233 0
M  V30 2448 H 215.652 3.02165 4.59322 0
M  V30 2449 H 216.877 3.66964 5.71414 0
M  V30 2450 H 214.823 1.52665 6.37989 0
M  V30 2451 H 214.74 3.19185 6.85315 0
M  V30 2452 H 216.008 2.1832 7.48303 0
M  V30 2453 N 220.237 -1.11381 1.11499 0
M  V30 2454 C 221.514 -1.7955 0.775965 0
M  V30 2455 C 221.894 -1.97859 -0.73588 0
M  V30 2456 O 221.242 -1.56376 -1.66609 0
M  V30 2457 C 221.452 -3.13196 1.53977 0
M  V30 2458 C 222.8 -3.88227 1.71944 0
M  V30 2459 O 223.824 -3.22887 1.50407 0
M  V30 2460 O 222.683 -5.05477 2.07738 0
M  V30 2461 H 219.777 -0.777728 0.28119 0
M  V30 2462 H 222.323 -1.18118 1.21845 0
M  V30 2463 H 221.095 -2.95229 2.56818 0
M  V30 2464 H 220.718 -3.82342 1.09088 0
M  V30 2465 N 221.715 -0.905404 -1.28997 0
M  V30 2466 C 222.678 -0.392253 -2.25819 0
M  V30 2467 C 223.678 0.476753 -1.5357 0
M  V30 2468 O 224.868 0.280994 -1.71919 0
M  V30 2469 C 222 0.438588 -3.38067 0
M  V30 2470 H 223.193 -1.24743 -2.72725 0
M  V30 2471 H 220.746 -0.684051 -1.40536 0
M  V30 2472 H 221.481 1.31352 -2.96508 0
M  V30 2473 H 221.266 -0.184167 -3.91667 0
M  V30 2474 H 222.756 0.78873 -4.10084 0
M  V30 2475 N 223.193 1.4272 -0.668489 0
M  V30 2476 C 224.44 2.01624 -0.18814 0
M  V30 2477 C 224.768 1.5282 1.20317 0
M  V30 2478 O 224.023 0.718323 1.8204 0
M  V30 2479 C 224.322 3.57021 -0.164499 0
M  V30 2480 C 223.988 4.25232 -1.49962 0
M  V30 2481 C 222.65 4.4358 -1.8652 0
M  V30 2482 C 225.002 4.63727 -2.37921 0
M  V30 2483 C 222.33 4.97694 -3.10674 0
M  V30 2484 C 224.682 5.19218 -3.6138 0
M  V30 2485 C 223.346 5.3578 -3.98115 0
M  V30 2486 H 222.616 0.737795 -0.0688454 0
M  V30 2487 H 225.263 1.70991 -0.862225 0
M  V30 2488 H 223.568 3.87285 0.593079 0
M  V30 2489 H 225.265 4.00372 0.224271 0
M  V30 2490 H 221.855 4.11306 -1.20522 0
M  V30 2491 H 226.039 4.4923 -2.10964 0
M  V30 2492 H 221.295 5.08702 -3.39164 0
M  V30 2493 H 225.469 5.4799 -4.29743 0
M  V30 2494 H 223.096 5.77475 -4.94395 0
M  V30 2495 N 224.671 0.411399 1.52136 0
M  V30 2496 C 225.917 -0.163888 2.02137 0
M  V30 2497 C 226.25 -1.44597 1.29636 0
M  V30 2498 O 225.525 -1.90272 0.403353 0
M  V30 2499 C 225.808 -0.40927 3.57767 0
M  V30 2500 C 225.661 0.889643 4.40914 0
M  V30 2501 C 226.98 -1.19042 4.23694 0
M  V30 2502 H 224.099 -0.0580896 0.734707 0
M  V30 2503 H 226.741 0.54531 1.82007 0
M  V30 2504 H 224.891 -1.0134 3.7505 0
M  V30 2505 H 226.563 1.52575 4.35337 0
M  V30 2506 H 224.806 1.50011 4.07037 0
M  V30 2507 H 225.477 0.672314 5.4789 0
M  V30 2508 H 227.953 -0.678942 4.10524 0
M  V30 2509 H 226.829 -1.33086 5.32522 0
M  V30 2510 H 227.09 -2.21166 3.82803 0
M  V30 2511 N 226.149 -1.5696 0.141893 0
M  V30 2512 C 227.099 -2.13074 -0.811383 0
M  V30 2513 C 228.083 -1.05726 -1.21288 0
M  V30 2514 O 229.275 -1.31914 -1.18015 0
M  V30 2515 C 226.404 -2.75186 -2.0525 0
M  V30 2516 C 225.49 -3.8965 -1.67432 0
M  V30 2517 N 225.881 -4.95733 -1.0041 0
M  V30 2518 C 224.179 -4.00262 -1.96739 0
M  V30 2519 C 224.88 -5.75858 -0.822345 0
M  V30 2520 N 223.856 -5.26452 -1.3546 0
M  V30 2521 H 227.658 -2.92465 -0.290031 0
M  V30 2522 H 225.172 -1.6229 -0.0598218 0
M  V30 2523 H 227.169 -3.13745 -2.74535 0
M  V30 2524 H 225.829 -1.97266 -2.57907 0
M  V30 2525 H 226.84 -5.13607 -0.665441 0
M  V30 2526 H 223.517 -3.33412 -2.51282 0
M  V30 2527 H 224.907 -6.71254 -0.294496 0
M  V30 2528 N 227.627 0.131896 -1.57047 0
M  V30 2529 C 228.904 0.871495 -1.75112 0
M  V30 2530 C 229.284 1.9866 -0.713949 0
M  V30 2531 O 228.632 2.26965 0.264447 0
M  V30 2532 C 228.842 1.40007 -3.19686 0
M  V30 2533 C 230.19 1.85752 -3.81813 0
M  V30 2534 O 231.214 1.49715 -3.23209 0
M  V30 2535 O 230.073 2.5226 -4.84796 0
M  V30 2536 H 227.167 0.412919 -0.716538 0
M  V30 2537 H 229.713 0.116641 -1.69299 0
M  V30 2538 H 228.485 0.599404 -3.86682 0
M  V30 2539 H 228.108 2.218 -3.29986 0
M  V30 2540 N 229.106 1.52395 0.401703 0
M  V30 2541 C 230.352 1.67065 1.14966 0
M  V30 2542 C 230.685 0.403052 1.89971 0
M  V30 2543 O 229.96 -0.598774 1.85054 0
M  V30 2544 C 230.243 2.8975 2.13815 0
M  V30 2545 C 230.096 4.26578 1.42658 0
M  V30 2546 C 231.415 3.07965 3.14397 0
M  V30 2547 H 228.534 0.607968 0.416587 0
M  V30 2548 H 231.176 1.84965 0.434511 0
M  V30 2549 H 229.326 2.74619 2.74803 0
M  V30 2550 H 230.998 4.53451 0.847329 0
M  V30 2551 H 229.241 4.27639 0.72849 0
M  V30 2552 H 229.912 5.08483 2.14823 0
M  V30 2553 H 232.388 3.22043 2.63491 0
M  V30 2554 H 231.264 3.95308 3.80819 0
M  V30 2555 H 231.525 2.21611 3.82545 0
M  V30 2556 N 230.584 -0.659388 1.43143 0
M  V30 2557 C 231.812 -1.44723 1.47861 0
M  V30 2558 C 232.227 -1.88563 0.0945886 0
M  V30 2559 O 231.584 -1.59108 -0.893915 0
M  V30 2560 C 231.635 -2.68627 2.41913 0
M  V30 2561 O 231.356 -2.26623 3.74932 0
M  V30 2562 C 232.857 -3.62045 2.55809 0
M  V30 2563 H 230.077 -0.444801 0.502387 0
M  V30 2564 H 232.621 -0.808916 1.87821 0
M  V30 2565 H 230.776 -3.28613 2.05164 0
M  V30 2566 H 231.19 -3.06745 4.2545 0
M  V30 2567 H 232.664 -4.45666 3.25708 0
M  V30 2568 H 233.141 -4.08981 1.60099 0
M  V30 2569 H 233.747 -3.07944 2.93344 0
M  V30 2570 N 232.062 -1.29571 -0.897171 0
M  V30 2571 C 233.308 -1.17863 -1.65034 0
M  V30 2572 C 233.641 0.268729 -1.92332 0
M  V30 2573 O 232.916 1.19378 -1.53555 0
M  V30 2574 C 233.199 -1.995 -2.99786 0
M  V30 2575 C 233.052 -3.5239 -2.79538 0
M  V30 2576 C 234.371 -1.82335 -4.00552 0
M  V30 2577 H 231.49 -0.429528 -0.598895 0
M  V30 2578 H 234.132 -1.59072 -1.03905 0
M  V30 2579 H 232.282 -1.64485 -3.51962 0
M  V30 2580 H 233.954 -3.97401 -2.34244 0
M  V30 2581 H 232.197 -3.77187 -2.14273 0
M  V30 2582 H 232.868 -4.04787 -3.75302 0
M  V30 2583 H 235.344 -2.12924 -3.57495 0
M  V30 2584 H 234.22 -2.41801 -4.92771 0
M  V30 2585 H 234.481 -0.779209 -4.35179 0
M  V30 2586 N 233.54 1.10788 -1.12088 0
M  V30 2587 C 234.45 2.20599 -0.798338 0
M  V30 2588 C 235.466 1.72712 0.21135 0
M  V30 2589 O 236.642 2.01348 0.0458477 0
M  V30 2590 C 233.707 3.45771 -0.253674 0
M  V30 2591 C 232.768 4.08411 -1.32283 0
M  V30 2592 C 232.001 5.27608 -0.80406 0
M  V30 2593 O 232.224 5.69241 0.363478 0
M  V30 2594 O 231.158 5.8101 -1.57198 0
M  V30 2595 H 234.984 2.50614 -1.7154 0
M  V30 2596 H 232.569 1.19454 -0.897275 0
M  V30 2597 H 234.451 4.21376 0.0453691 0
M  V30 2598 H 233.126 3.1739 0.636005 0
M  V30 2599 H 232.033 3.34507 -1.67499 0
M  V30 2600 H 233.366 4.40986 -2.18614 0
M  V30 2601 N 235.018 0.912232 1.28515 0
M  V30 2602 C 235.966 0.389597 2.29314 0
M  V30 2603 C 236.96 -0.517915 1.61289 0
M  V30 2604 O 238.166 -0.399328 1.75515 0
M  V30 2605 H 234.541 0.107386 0.744293 0
M  V30 2606 H 236.512 1.25286 2.70825 0
M  V30 2607 C 235.261 -0.356496 3.45868 0
M  V30 2608 H 234.584 0.332608 3.98414 0
M  V30 2609 H 236.024 -0.686851 4.184 0
M  V30 2610 C 234.483 -1.56383 2.98406 0
M  V30 2611 O 235.013 -2.66294 3.00749 0
M  V30 2612 N 233.219 -1.41029 2.54085 0
M  V30 2613 H 232.766 -0.516089 2.52377 0
M  V30 2614 H 232.724 -2.21939 2.22689 0
M  V30 2615 N 236.496 -1.42363 0.676048 0
M  V30 2616 C 237.912 -1.55811 0.345718 0
M  V30 2617 C 238.112 -1.65544 -1.14879 0
M  V30 2618 O 237.168 -1.62306 -1.93424 0
M  V30 2619 C 238.481 -2.80746 1.07713 0
M  V30 2620 C 240.029 -2.9452 1.05958 0
M  V30 2621 C 240.504 -4.22318 1.77233 0
M  V30 2622 N 241.995 -4.29233 1.74108 0
M  V30 2623 C 242.73 -5.26935 2.26113 0
M  V30 2624 N 242.226 -6.30783 2.86505 0
M  V30 2625 N 244.019 -5.18741 2.1648 0
M  V30 2626 H 236.17 -1.34289 1.6456 0
M  V30 2627 H 238.433 -0.646506 0.69335 0
M  V30 2628 H 238.139 -2.79696 2.13221 0
M  V30 2629 H 238.013 -3.71676 0.64316 0
M  V30 2630 H 240.4 -2.95097 0.0128255 0
M  V30 2631 H 240.481 -2.04817 1.53244 0
M  V30 2632 H 240.125 -4.22502 2.81877 0
M  V30 2633 H 240.055 -5.10958 1.27396 0
M  V30 2634 H 242.546 -3.54814 1.30059 0
M  V30 2635 H 242.859 -7.01691 3.23805 0
M  V30 2636 H 241.204 -6.31341 2.90575 0
M  V30 2637 H 244.395 -4.36533 1.68987 0
M  V30 2638 H 244.568 -5.94721 2.57316 0
M  V30 2639 N 237.974 -0.419461 -1.51915 0
M  V30 2640 C 239.22 0.153166 -2.02221 0
M  V30 2641 C 239.553 1.43907 -1.30401 0
M  V30 2642 O 238.828 1.90055 -0.413438 0
M  V30 2643 C 239.111 0.390291 -3.57979 0
M  V30 2644 C 238.964 -0.913014 -4.40436 0
M  V30 2645 C 240.283 1.16794 -4.2432 0
M  V30 2646 H 237.402 0.0541924 -0.735005 0
M  V30 2647 H 240.044 -0.554955 -1.81715 0
M  V30 2648 H 238.194 0.993491 -3.75582 0
M  V30 2649 H 239.866 -1.54882 -4.34522 0
M  V30 2650 H 238.109 -1.52168 -4.06236 0
M  V30 2651 H 238.78 -0.701361 -5.47526 0
M  V30 2652 H 241.256 0.657161 -4.10878 0
M  V30 2653 H 240.132 1.3026 -5.3322 0
M  V30 2654 H 240.393 2.19132 -3.83971 0
M  V30 2655 N 239.452 1.56882 -0.150215 0
M  V30 2656 C 240.699 1.96228 0.500093 0
M  V30 2657 C 241.027 1.03522 1.64661 0
M  V30 2658 O 240.282 0.0650683 1.95592 0
M  V30 2659 C 240.581 3.41801 1.04437 0
M  V30 2660 C 240.247 4.50897 0.0159671 0
M  V30 2661 C 238.909 4.8046 -0.266731 0
M  V30 2662 C 241.261 5.16703 -0.683192 0
M  V30 2663 C 238.589 5.73135 -1.25434 0
M  V30 2664 C 240.941 6.10441 -1.65964 0
M  V30 2665 C 239.605 6.38382 -1.95 0
M  V30 2666 H 238.875 0.718048 0.182997 0
M  V30 2667 H 241.522 1.90019 -0.237724 0
M  V30 2668 H 239.827 3.44857 1.85959 0
M  V30 2669 H 241.524 3.69573 1.55618 0
M  V30 2670 H 238.114 4.27891 0.246485 0
M  V30 2671 H 242.298 4.93993 -0.477983 0
M  V30 2672 H 237.554 5.93074 -1.48571 0
M  V30 2673 H 241.728 6.60507 -2.20689 0
M  V30 2674 H 239.355 7.09996 -2.71679 0
M  V30 2675 N 240.93 -0.123565 1.57115 0
M  V30 2676 C 241.862 -1.17739 1.96648 0
M  V30 2677 C 242.875 -1.37906 0.865201 0
M  V30 2678 O 244.064 -1.37062 1.14351 0
M  V30 2679 C 241.164 -2.53821 2.24562 0
M  V30 2680 C 240.337 -2.54317 3.55867 0
M  V30 2681 C 239.396 -3.72112 3.72047 0
M  V30 2682 O 238.422 -3.55907 4.44206 0
M  V30 2683 N 239.624 -4.90498 3.10471 0
M  V30 2684 H 242.389 -0.841147 2.87654 0
M  V30 2685 H 239.95 -0.31289 1.58848 0
M  V30 2686 H 241.942 -3.31175 2.32606 0
M  V30 2687 H 240.512 -2.79645 1.39705 0
M  V30 2688 H 239.732 -1.62711 3.59053 0
M  V30 2689 H 241.02 -2.51701 4.42181 0
M  V30 2690 H 240.418 -5.06567 2.51806 0
M  V30 2691 H 238.975 -5.65544 3.24043 0
M  V30 2692 N 242.408 -1.52605 -0.393616 0
M  V30 2693 C 243.338 -1.80022 -1.48709 0
M  V30 2694 C 244.319 -0.651995 -1.57108 0
M  V30 2695 O 245.504 -0.89913 -1.72132 0
M  V30 2696 C 242.634 -1.96492 -2.86371 0
M  V30 2697 C 241.588 -3.12161 -2.92813 0
M  V30 2698 C 240.914 -3.13877 -4.3288 0
M  V30 2699 C 242.214 -4.51322 -2.6288 0
M  V30 2700 H 243.908 -2.71589 -1.26015 0
M  V30 2701 H 241.454 -1.30684 -0.604778 0
M  V30 2702 H 243.407 -2.14255 -3.62867 0
M  V30 2703 H 242.131 -1.01611 -3.10391 0
M  V30 2704 H 240.79 -2.94173 -2.18764 0
M  V30 2705 H 240.438 -2.16687 -4.53933 0
M  V30 2706 H 240.138 -3.91576 -4.38112 0
M  V30 2707 H 241.662 -3.33789 -5.1129 0
M  V30 2708 H 243.076 -4.69435 -3.29096 0
M  V30 2709 H 241.473 -5.31053 -2.79468 0
M  V30 2710 H 242.543 -4.58353 -1.58242 0
M  V30 2711 N 243.887 0.651787 -1.4349 0
M  V30 2712 C 244.837 1.75783 -1.45205 0
M  V30 2713 C 245.821 1.57679 -0.320328 0
M  V30 2714 O 247.013 1.67767 -0.564211 0
M  V30 2715 C 244.142 3.14377 -1.3792 0
M  V30 2716 C 243.228 3.38023 -2.56127 0
M  V30 2717 N 243.619 3.32135 -3.81471 0
M  V30 2718 C 241.917 3.68747 -2.50882 0
M  V30 2719 C 242.618 3.55902 -4.60118 0
M  V30 2720 N 241.594 3.77783 -3.90872 0
M  V30 2721 H 245.396 1.69657 -2.39987 0
M  V30 2722 H 242.91 0.853508 -1.38163 0
M  V30 2723 H 244.907 3.93666 -1.37231 0
M  V30 2724 H 243.567 3.21683 -0.441596 0
M  V30 2725 H 244.578 3.11515 -4.13738 0
M  V30 2726 H 241.255 3.8316 -1.65816 0
M  V30 2727 H 242.645 3.57116 -5.69138 0
M  V30 2728 N 245.365 1.30045 0.890287 0
M  V30 2729 C 246.776 1.16738 1.45702 0
M  V30 2730 C 247.127 -0.233939 1.948 0
M  V30 2731 O 246.252 -1.13021 1.84541 0
M  V30 2732 C 246.847 2.11313 2.64825 0
M  V30 2733 C 245.406 2.02001 3.17604 0
M  V30 2734 C 244.553 2.01699 1.90296 0
M  V30 2735 H 247.504 1.42392 0.700726 0
M  V30 2736 H 247.525 1.69086 3.40867 0
M  V30 2737 H 247.037 3.13294 2.2906 0
M  V30 2738 H 245.138 1.03142 3.5804 0
M  V30 2739 H 245.251 2.90128 3.81264 0
M  V30 2740 H 243.615 1.46427 2.08402 0
M  V30 2741 H 244.398 3.05402 1.56795 0
M  V30 2742 N 246.843 -1.10192 1.12674 0
M  V30 2743 C 248.12 -1.78717 0.794965 0
M  V30 2744 C 248.5 -1.98628 -0.714853 0
M  V30 2745 O 247.848 -1.58135 -1.64941 0
M  V30 2746 C 248.058 -3.11546 1.5729 0
M  V30 2747 C 249.406 -3.86382 1.76052 0
M  V30 2748 O 250.43 -3.21274 1.53823 0
M  V30 2749 O 249.289 -5.03246 2.13087 0
M  V30 2750 H 246.383 -0.774702 0.289423 0
M  V30 2751 H 248.929 -1.16819 1.23091 0
M  V30 2752 H 247.701 -2.92489 2.59935 0
M  V30 2753 H 247.324 -3.81164 1.13137 0
M  V30 2754 N 248.321 -0.919034 -1.28029 0
M  V30 2755 C 249.569 -0.553838 -1.94363 0
M  V30 2756 C 249.89 0.906357 -1.72656 0
M  V30 2757 O 249.16 1.64143 -1.0693 0
M  V30 2758 H 247.74 -0.201834 -0.719216 0
M  V30 2759 H 250.402 -1.16954 -1.55909 0
M  V30 2760 H 249.498 -0.752758 -3.02886 0
M  V30 2761 N 249.799 1.42003 -0.683588 0
M  V30 2762 C 251.027 2.05746 -0.218182 0
M  V30 2763 C 251.442 1.51396 1.12804 0
M  V30 2764 O 250.799 0.657303 1.70252 0
M  V30 2765 C 250.85 3.61171 -0.154131 0
M  V30 2766 O 250.571 4.13508 -1.44716 0
M  V30 2767 C 252.072 4.42042 0.333713 0
M  V30 2768 H 249.292 0.662888 -0.10402 0
M  V30 2769 H 251.836 1.81987 -0.9328 0
M  V30 2770 H 249.991 3.84012 0.511231 0
M  V30 2771 H 250.405 5.07453 -1.32632 0
M  V30 2772 H 251.879 5.51028 0.327423 0
M  V30 2773 H 252.356 4.17269 1.37053 0
M  V30 2774 H 252.962 4.24239 -0.300222 0
M  V30 2775 N 251.277 0.427512 1.51691 0
M  V30 2776 C 252.523 -0.142439 2.02299 0
M  V30 2777 C 252.856 -1.43214 1.31162 0
M  V30 2778 O 252.131 -1.89833 0.423511 0
M  V30 2779 C 252.414 -0.371301 3.58181 0
M  V30 2780 C 252.267 0.936358 4.39946 0
M  V30 2781 C 253.586 -1.14542 4.24933 0
M  V30 2782 H 250.705 -0.0502937 0.735282 0
M  V30 2783 H 253.347 0.564584 1.81418 0
M  V30 2784 H 251.497 -0.973559 3.76104 0
M  V30 2785 H 253.169 1.57184 4.33694 0
M  V30 2786 H 251.412 1.5432 4.05423 0
M  V30 2787 H 252.083 0.730388 5.47147 0
M  V30 2788 H 254.559 -0.635362 4.11221 0
M  V30 2789 H 253.435 -1.27431 5.33903 0
M  V30 2790 H 253.696 -2.17093 3.85127 0
M  V30 2791 N 252.755 -1.56801 0.158532 0
M  V30 2792 C 254.171 -1.5837 -0.197774 0
M  V30 2793 C 254.371 -1.17334 -1.63814 0
M  V30 2794 O 253.427 -0.878988 -2.36707 0
M  V30 2795 C 254.74 -3.00615 0.0714459 0
M  V30 2796 C 256.288 -3.12999 0.00864533 0
M  V30 2797 C 256.763 -4.57313 0.250685 0
M  V30 2798 N 258.254 -4.62777 0.198014 0
M  V30 2799 C 258.989 -5.72271 0.359642 0
M  V30 2800 N 258.485 -6.90371 0.579625 0
M  V30 2801 N 260.278 -5.61318 0.296438 0
M  V30 2802 H 252.429 -1.81765 1.09887 0
M  V30 2803 H 254.692 -0.841849 0.435884 0
M  V30 2804 H 254.398 -3.35068 1.06874 0
M  V30 2805 H 254.272 -3.71683 -0.642757 0
M  V30 2806 H 256.659 -2.7838 -0.979217 0
M  V30 2807 H 256.74 -2.44393 0.755359 0
M  V30 2808 H 256.384 -4.92639 1.2357 0
M  V30 2809 H 256.314 -5.24061 -0.516489 0
M  V30 2810 H 258.805 -3.77885 0.0331115 0
M  V30 2811 H 259.118 -7.69689 0.69275 0
M  V30 2812 H 257.463 -6.92264 0.616087 0
M  V30 2813 H 260.654 -4.67932 0.125258 0
M  V30 2814 H 260.827 -6.46599 0.425831 0
M  V30 2815 N 254.233 0.115231 -1.57178 0
M  V30 2816 C 255.463 0.835224 -1.88964 0
M  V30 2817 C 255.871 1.73774 -0.74829 0
M  V30 2818 O 255.214 1.81401 0.289739 0
M  V30 2819 C 255.276 1.7178 -3.15804 0
M  V30 2820 C 254.94 0.989198 -4.46166 0
M  V30 2821 C 255.937 0.328263 -5.18863 0
M  V30 2822 C 253.622 0.969256 -4.9286 0
M  V30 2823 C 255.616 -0.342873 -6.36477 0
M  V30 2824 C 253.303 0.294324 -6.10391 0
M  V30 2825 C 254.301 -0.360582 -6.82048 0
M  V30 2826 O 253.989 -1.02474 -7.97342 0
M  V30 2827 H 253.721 0.245197 -0.629964 0
M  V30 2828 H 256.275 0.10303 -2.05141 0
M  V30 2829 H 254.505 2.49173 -2.95719 0
M  V30 2830 H 256.194 2.31255 -3.33581 0
M  V30 2831 H 256.96 0.335263 -4.8384 0
M  V30 2832 H 252.839 1.46844 -4.36987 0
M  V30 2833 H 256.383 -0.854629 -6.92345 0
M  V30 2834 H 252.28 0.285099 -6.4487 0
M  V30 2835 H 253.048 -0.929594 -8.13204 0
M  V30 2836 N 255.711 1.52812 0.385517 0
M  V30 2837 C 256.959 1.67694 1.12797 0
M  V30 2838 C 257.28 0.421115 1.90399 0
M  V30 2839 O 256.55 -0.564551 1.87589 0
M  V30 2840 H 255.13 0.618155 0.419396 0
M  V30 2841 H 257.792 1.89938 0.436972 0
M  V30 2842 H 256.888 2.52896 1.82894 0
M  V30 2843 N 257.189 -0.644168 1.43834 0
M  V30 2844 C 258.438 -1.39985 1.45214 0
M  V30 2845 C 258.751 -1.95421 0.0835494 0
M  V30 2846 O 259.957 -2.71488 -0.0251748 0
M  V30 2847 C 258.413 -2.53384 2.55587 0
M  V30 2848 C 258.021 -2.04517 3.98594 0
M  V30 2849 C 259.765 -3.30685 2.66172 0
M  V30 2850 C 257.672 -3.1518 5.00416 0
M  V30 2851 H 256.602 -0.526005 0.540218 0
M  V30 2852 H 259.253 -0.694367 1.69855 0
M  V30 2853 H 257.635 -3.26446 2.24163 0
M  V30 2854 H 258.809 -1.38405 4.39523 0
M  V30 2855 H 257.124 -1.40068 3.92135 0
M  V30 2856 H 259.721 -4.13158 3.39418 0
M  V30 2857 H 260.064 -3.79312 1.71546 0
M  V30 2858 H 260.597 -2.64708 2.96942 0
M  V30 2859 H 257.336 -2.71511 5.96625 0
M  V30 2860 H 256.856 -3.79974 4.64091 0
M  V30 2861 H 258.535 -3.80166 5.23529 0
M  V30 2862 N 258.668 -1.30515 -0.883378 0
M  V30 2863 C 260.084 -1.08881 -1.16692 0
M  V30 2864 C 260.284 0.149409 -2.00945 0
M  V30 2865 O 259.34 0.84257 -2.38027 0
M  V30 2866 C 260.653 -2.35319 -1.87204 0
M  V30 2867 C 262.201 -2.40799 -1.99962 0
M  V30 2868 C 262.676 -3.67083 -2.73887 0
M  V30 2869 N 264.167 -3.679 -2.81432 0
M  V30 2870 C 264.902 -4.62303 -3.3921 0
M  V30 2871 N 264.398 -5.67052 -3.98025 0
M  V30 2872 N 266.191 -4.49845 -3.3704 0
M  V30 2873 H 258.342 -2.09951 -0.321633 0
M  V30 2874 H 260.605 -0.92556 -0.205043 0
M  V30 2875 H 260.311 -3.25689 -1.3274 0
M  V30 2876 H 260.185 -2.44089 -2.87577 0
M  V30 2877 H 262.572 -1.50907 -2.53597 0
M  V30 2878 H 262.653 -2.36003 -0.98673 0
M  V30 2879 H 262.297 -4.57334 -2.20925 0
M  V30 2880 H 262.227 -3.69141 -3.75556 0
M  V30 2881 H 264.718 -2.92171 -2.39676 0
M  V30 2882 H 265.031 -6.35184 -4.40183 0
M  V30 2883 H 263.376 -5.70842 -3.96439 0
M  V30 2884 H 266.567 -3.67194 -2.90321 0
M  V30 2885 H 266.74 -5.23597 -3.81772 0
M  V30 2886 N 260.146 1.09593 -1.13257 0
M  V30 2887 C 261.076 2.18214 -0.830946 0
M  V30 2888 C 262.057 1.68812 0.208966 0
M  V30 2889 O 263.242 1.9408 0.0682666 0
M  V30 2890 C 260.372 3.46051 -0.294296 0
M  V30 2891 C 259.326 4.08778 -1.26826 0
M  V30 2892 C 258.652 5.31419 -0.591449 0
M  V30 2893 C 259.952 4.51476 -2.62615 0
M  V30 2894 H 261.646 2.43703 -1.73923 0
M  V30 2895 H 259.192 1.17128 -0.837675 0
M  V30 2896 H 261.145 4.2134 -0.0709606 0
M  V30 2897 H 259.869 3.20079 0.649366 0
M  V30 2898 H 258.528 3.35505 -1.47756 0
M  V30 2899 H 258.176 5.01727 0.357633 0
M  V30 2900 H 257.876 5.74341 -1.24123 0
M  V30 2901 H 259.4 6.09433 -0.377355 0
M  V30 2902 H 260.814 5.17999 -2.45663 0
M  V30 2903 H 259.211 5.05277 -3.23752 0
M  V30 2904 H 260.281 3.63962 -3.20406 0
M  V30 2905 N 261.624 0.925811 1.2754 0
M  V30 2906 C 262.852 0.581509 1.9856 0
M  V30 2907 C 263.267 -0.840041 1.69082 0
M  V30 2908 O 262.624 -1.55805 0.950312 0
M  V30 2909 C 262.675 0.795589 3.52637 0
M  V30 2910 O 262.396 2.16121 3.81082 0
M  V30 2911 C 263.897 0.459744 4.4091 0
M  V30 2912 H 261.117 0.220538 0.633722 0
M  V30 2913 H 263.661 1.24232 1.6244 0
M  V30 2914 H 261.816 0.18161 3.86974 0
M  V30 2915 H 262.23 2.2098 4.75676 0
M  V30 2916 H 263.704 0.660244 5.48037 0
M  V30 2917 H 264.181 -0.604625 4.35018 0
M  V30 2918 H 264.787 1.05178 4.12089 0
M  V30 2919 N 263.102 -1.41638 0.69111 0
M  V30 2920 C 264.33 -2.05628 0.22909 0
M  V30 2921 C 264.745 -1.51992 -1.11999 0
M  V30 2922 O 264.102 -0.666322 -1.69901 0
M  V30 2923 C 264.153 -3.61084 0.173283 0
M  V30 2924 O 263.874 -4.12735 1.46907 0
M  V30 2925 C 265.375 -4.42213 -0.310266 0
M  V30 2926 H 262.595 -0.662327 0.107534 0
M  V30 2927 H 265.139 -1.81489 0.942438 0
M  V30 2928 H 263.294 -3.84278 -0.490858 0
M  V30 2929 H 263.708 -5.06743 1.35322 0
M  V30 2930 H 265.182 -5.51194 -0.298196 0
M  V30 2931 H 265.659 -4.1799 -1.34838 0
M  V30 2932 H 266.265 -4.24074 0.322716 0
M  V30 2933 N 264.58 -0.43555 -1.51462 0
M  V30 2934 C 265.808 0.130242 -2.0649 0
M  V30 2935 C 266.223 1.36614 -1.30315 0
M  V30 2936 O 265.58 1.78869 -0.362223 0
M  V30 2937 C 265.631 0.454253 -3.58635 0
M  V30 2938 O 265.352 -0.73259 -4.31931 0
M  V30 2939 C 266.853 1.07091 -4.3017 0
M  V30 2940 H 264.073 0.00871669 -0.670943 0
M  V30 2941 H 266.617 -0.614117 -1.95061 0
M  V30 2942 H 264.772 1.14851 -3.69984 0
M  V30 2943 H 265.186 -0.455787 -5.22516 0
M  V30 2944 H 266.66 1.24764 -5.37716 0
M  V30 2945 H 267.137 2.05144 -3.88346 0
M  V30 2946 H 267.743 0.416089 -4.2326 0
M  V30 2947 N 266.058 1.56714 -0.166846 0
M  V30 2948 C 267.021 2.16539 0.751232 0
M  V30 2949 C 268.021 1.11228 1.16125 0
M  V30 2950 O 269.211 1.36765 1.07894 0
M  V30 2951 C 266.343 2.74462 2.02196 0
M  V30 2952 H 267.536 2.99013 0.230499 0
M  V30 2953 H 265.089 1.56081 0.0826982 0
M  V30 2954 H 265.824 1.95709 2.58589 0
M  V30 2955 H 265.609 3.51527 1.73698 0
M  V30 2956 H 267.099 3.20489 2.67725 0
M  V30 2957 N 267.536 -0.106894 1.57237 0
M  V30 2958 C 268.499 -1.11466 2.0027 0
M  V30 2959 C 269.499 -1.33623 0.894519 0
M  V30 2960 O 270.689 -1.29935 1.16028 0
M  V30 2961 C 267.821 -2.46646 2.35327 0
M  V30 2962 H 269.014 -0.744516 2.90512 0
M  V30 2963 H 266.567 -0.351576 1.52295 0
M  V30 2964 H 267.302 -2.88558 1.48003 0
M  V30 2965 H 267.087 -2.31915 3.16161 0
M  V30 2966 H 268.577 -3.19151 2.69318 0
M  V30 2967 N 269.014 -1.53014 -0.377408 0
M  V30 2968 C 270.254 -1.70318 -1.1301 0
M  V30 2969 C 270.618 -0.439538 -1.86901 0
M  V30 2970 O 271.819 -0.489095 -2.64313 0
M  V30 2971 C 270.09 -2.91125 -2.07319 0
M  V30 2972 S 271.649 -3.29075 -2.90268 0
M  V30 2973 H 268.467 -0.599426 -0.382374 0
M  V30 2974 H 271.069 -1.91089 -0.412933 0
M  V30 2975 H 269.773 -3.81303 -1.51777 0
M  V30 2976 H 269.304 -2.7272 -2.83526 0
M  V30 2977 H 271.319 -2.80165 -4.09539 0
M  V30 2978 N 270.492 0.636531 -1.44174 0
M  V30 2979 C 271.717 1.42847 -1.50364 0
M  V30 2980 C 272.142 1.87665 -0.127867 0
M  V30 2981 O 271.5 1.58408 0.88185 0
M  V30 2982 C 271.548 2.62854 -2.4686 0
M  V30 2983 O 270.652 3.62501 -1.9664 0
M  V30 2984 H 269.993 0.427642 -0.507955 0
M  V30 2985 H 272.523 0.777422 -1.89255 0
M  V30 2986 H 272.533 3.10465 -2.64718 0
M  V30 2987 H 271.208 2.29578 -3.46795 0
M  V30 2988 H 269.785 3.21735 -1.88523 0
M  V30 2989 N 271.97 1.30982 0.876444 0
M  V30 2990 C 272.9 1.20668 1.99903 0
M  V30 2991 C 273.881 0.095354 1.69833 0
M  V30 2992 O 275.066 0.27885 1.92188 0
M  V30 2993 C 272.196 0.90655 3.3526 0
M  V30 2994 C 271.15 1.97675 3.79617 0
M  V30 2995 C 270.476 1.52943 5.1236 0
M  V30 2996 C 271.776 3.389 3.97422 0
M  V30 2997 H 273.47 2.14586 2.0879 0
M  V30 2998 H 271.016 1.03308 1.00317 0
M  V30 2999 H 272.969 0.821025 4.13324 0
M  V30 3000 H 271.693 -0.0682969 3.26529 0
M  V30 3001 H 270.352 2.05205 3.03787 0
M  V30 3002 H 270 0.54262 5.00065 0
M  V30 3003 H 269.7 2.24532 5.43009 0
M  V30 3004 H 271.224 1.45786 5.92941 0
M  V30 3005 H 272.638 3.34081 4.659 0
M  V30 3006 H 271.035 4.0865 4.3946 0
M  V30 3007 H 272.105 3.80163 3.01006 0
M  V30 3008 N 273.449 -1.08991 1.13837 0
M  V30 3009 C 274.726 -1.77863 0.813876 0
M  V30 3010 C 275.106 -1.99375 -0.693746 0
M  V30 3011 O 274.454 -1.59875 -1.63255 0
M  V30 3012 C 274.664 -3.0986 1.60586 0
M  V30 3013 C 276.012 -3.84493 1.8014 0
M  V30 3014 O 277.036 -3.19624 1.57222 0
M  V30 3015 O 275.895 -5.00957 2.18413 0
M  V30 3016 H 272.989 -0.771589 0.297624 0
M  V30 3017 H 275.535 -1.15507 1.24323 0
M  V30 3018 H 274.307 -2.89715 2.63022 0
M  V30 3019 H 273.93 -3.79942 1.17173 0
M  V30 3020 N 274.927 -0.932562 -1.27047 0
M  V30 3021 C 275.857 -0.452902 -2.29066 0
M  V30 3022 C 276.838 0.489338 -1.62909 0
M  V30 3023 O 278.023 0.393046 -1.90181 0
M  V30 3024 C 275.153 0.290698 -3.46081 0
M  V30 3025 C 274.107 -0.564168 -4.24265 0
M  V30 3026 C 273.433 0.308886 -5.33807 0
M  V30 3027 C 274.733 -1.83112 -4.89149 0
M  V30 3028 H 276.427 -1.30552 -2.69437 0
M  V30 3029 H 273.973 -0.629201 -1.29526 0
M  V30 3030 H 275.926 0.637233 -4.16554 0
M  V30 3031 H 274.65 1.17738 -3.0464 0
M  V30 3032 H 273.309 -0.893477 -3.55545 0
M  V30 3033 H 272.957 1.19467 -4.88607 0
M  V30 3034 H 272.657 -0.259633 -5.87026 0
M  V30 3035 H 274.181 0.650884 -6.07121 0
M  V30 3036 H 275.595 -1.55236 -5.51883 0
M  V30 3037 H 273.992 -2.34353 -5.52448 0
M  V30 3038 H 275.062 -2.54772 -4.12576 0
M  V30 3039 N 276.405 1.4127 -0.698611 0
M  V30 3040 C 277.355 2.27997 -0.0119836 0
M  V30 3041 C 278.339 1.42363 0.749765 0
M  V30 3042 O 279.531 1.65607 0.624758 0
M  V30 3043 C 276.66 3.30702 0.921458 0
M  V30 3044 C 275.746 4.23814 0.155796 0
M  V30 3045 N 276.137 4.98572 -0.852015 0
M  V30 3046 C 274.435 4.44284 0.390836 0
M  V30 3047 C 275.136 5.66744 -1.3106 0
M  V30 3048 N 274.112 5.39867 -0.635944 0
M  V30 3049 H 277.914 2.83232 -0.784649 0
M  V30 3050 H 275.428 1.53518 -0.529711 0
M  V30 3051 H 277.425 3.91661 1.42854 0
M  V30 3052 H 276.085 2.77028 1.69369 0
M  V30 3053 H 277.096 5.03024 -1.23235 0
M  V30 3054 H 273.773 4.01614 1.14071 0
M  V30 3055 H 275.163 6.36672 -2.14707 0
M  V30 3056 N 277.883 0.443576 1.51229 0
M  V30 3057 C 278.83 -0.364716 2.279 0
M  V30 3058 C 279.8 -1.0114 1.31757 0
M  V30 3059 O 280.985 -1.02912 1.60667 0
M  V30 3060 C 278.125 -1.45644 3.12861 0
M  V30 3061 C 277.238 -0.827269 4.24005 0
M  V30 3062 C 276.373 -1.89456 4.96266 0
M  V30 3063 C 275.412 -1.24416 5.99322 0
M  V30 3064 N 274.549 -2.25309 6.64966 0
M  V30 3065 H 279.389 0.295464 2.96532 0
M  V30 3066 H 276.926 0.157554 1.46254 0
M  V30 3067 H 278.884 -2.10076 3.6045 0
M  V30 3068 H 277.514 -2.08616 2.46331 0
M  V30 3069 H 276.566 -0.0710839 3.80334 0
M  V30 3070 H 277.878 -0.312481 4.9782 0
M  V30 3071 H 277.032 -2.61535 5.47434 0
M  V30 3072 H 275.771 -2.4431 4.22095 0
M  V30 3073 H 274.776 -0.508868 5.4744 0
M  V30 3074 H 276.001 -0.702882 6.75453 0
M  V30 3075 H 273.947 -2.79231 5.93604 0
M  V30 3076 H 273.864 -1.78739 7.34567 0
M  V30 3077 H 275.132 -2.96853 7.20763 0
M  V30 3078 N 279.361 -1.56624 0.175154 0
M  V30 3079 C 280.608 -1.96999 -0.468811 0
M  V30 3080 C 280.936 -1.06129 -1.62994 0
M  V30 3081 O 280.191 -0.0961771 -1.95464 0
M  V30 3082 C 280.49 -3.43419 -0.989864 0
M  V30 3083 C 280.156 -4.50866 0.0557687 0
M  V30 3084 C 278.818 -4.79975 0.343134 0
M  V30 3085 C 281.17 -5.15551 0.765308 0
M  V30 3086 C 278.498 -5.71066 1.34536 0
M  V30 3087 C 280.85 -6.07724 1.75654 0
M  V30 3088 C 279.514 -6.35199 2.05132 0
M  V30 3089 H 278.784 -0.720869 -0.17155 0
M  V30 3090 H 281.431 -1.89616 0.267924 0
M  V30 3091 H 279.736 -3.47772 -1.80449 0
M  V30 3092 H 281.433 -3.72002 -1.49719 0
M  V30 3093 H 278.023 -4.28229 -0.178381 0
M  V30 3094 H 282.207 -4.9317 0.556513 0
M  V30 3095 H 277.463 -5.90635 1.57988 0
M  V30 3096 H 281.637 -6.56912 2.31169 0
M  V30 3097 H 279.264 -7.05584 2.8294 0
M  V30 3098 N 280.839 0.0985539 -1.57292 0
M  V30 3099 C 282.25 0.653457 -1.74891 0
M  V30 3100 C 282.601 1.7929 -0.796838 0
M  V30 3101 O 281.726 2.16385 0.0254886 0
M  V30 3102 C 282.321 1.19216 -3.17133 0
M  V30 3103 C 280.88 1.69316 -3.36168 0
M  V30 3104 C 280.027 0.601294 -2.70702 0
M  V30 3105 H 282.978 -0.127497 -1.58187 0
M  V30 3106 H 282.999 2.06154 -3.19814 0
M  V30 3107 H 282.511 0.362635 -3.86402 0
M  V30 3108 H 280.612 2.5468 -2.71972 0
M  V30 3109 H 280.725 1.78853 -4.44464 0
M  V30 3110 H 279.089 1.0399 -2.32504 0
M  V30 3111 H 279.872 -0.217592 -3.4261 0
M  V30 3112 N 282.317 1.53212 0.369288 0
M  V30 3113 C 283.25 1.74166 1.4745 0
M  V30 3114 C 284.228 0.589923 1.51521 0
M  V30 3115 O 285.412 0.822078 1.69629 0
M  V30 3116 C 282.539 1.81711 2.8583 0
M  V30 3117 C 281.585 3.03649 2.99499 0
M  V30 3118 S 282.418 4.63242 2.6864 0
M  V30 3119 C 283.574 4.7363 4.09177 0
M  V30 3120 H 283.807 2.67636 1.29454 0
M  V30 3121 H 281.34 1.43754 0.563396 0
M  V30 3122 H 283.298 1.86743 3.65564 0
M  V30 3123 H 281.959 0.89299 3.01139 0
M  V30 3124 H 281.152 3.05526 4.00836 0
M  V30 3125 H 280.754 2.9671 2.27683 0
M  V30 3126 H 283.046 4.53456 5.03372 0
M  V30 3127 H 283.989 5.75682 4.12306 0
M  V30 3128 H 284.397 4.02295 3.96004 0
M  V30 3129 N 283.795 -0.628877 1.44509 0
M  V30 3130 C 285.072 -1.38733 1.37886 0
M  V30 3131 C 285.452 -2.11065 0.0387008 0
M  V30 3132 O 284.8 -2.06476 -0.97878 0
M  V30 3133 C 285.01 -2.35188 2.57852 0
M  V30 3134 C 286.358 -2.9845 3.02014 0
M  V30 3135 O 287.382 -2.45513 2.58073 0
M  V30 3136 O 286.241 -3.94487 3.78209 0
M  V30 3137 H 283.335 -0.621015 0.54614 0
M  V30 3138 H 285.881 -0.653744 1.56602 0
M  V30 3139 H 284.653 -1.80855 3.46998 0
M  V30 3140 H 284.276 -3.1596 2.4136 0
M  V30 3141 N 285.273 -1.31445 -0.869486 0
M  V30 3142 C 286.22 -1.19135 -1.97675 0
M  V30 3143 C 287.19 -0.0770266 -1.65921 0
M  V30 3144 O 288.375 -0.249972 -1.89155 0
M  V30 3145 C 285.515 -0.905149 -3.33018 0
M  V30 3146 C 284.628 -2.10285 -3.77365 0
M  V30 3147 C 283.763 -1.75339 -5.01427 0
M  V30 3148 C 282.802 -2.91515 -5.38224 0
M  V30 3149 N 281.939 -2.56762 -6.53466 0
M  V30 3150 H 286.779 -2.13853 -2.07535 0
M  V30 3151 H 284.316 -1.06379 -1.01597 0
M  V30 3152 H 286.274 -0.719765 -4.10944 0
M  V30 3153 H 284.904 0.00519624 -3.228 0
M  V30 3154 H 283.956 -2.39899 -2.95216 0
M  V30 3155 H 285.268 -2.97237 -4.00564 0
M  V30 3156 H 284.422 -1.53266 -5.87022 0
M  V30 3157 H 283.161 -0.855801 -4.80133 0
M  V30 3158 H 282.166 -3.14237 -4.51149 0
M  V30 3159 H 283.391 -3.81985 -5.61484 0
M  V30 3160 H 281.337 -1.69526 -6.33717 0
M  V30 3161 H 281.254 -3.37243 -6.76612 0
M  V30 3162 H 282.522 -2.38083 -7.42251 0
M  V30 3163 N 286.751 1.08385 -1.14413 0
M  V30 3164 C 287.683 2.1519 -0.789036 0
M  V30 3165 C 288.696 1.61638 0.19417 0
M  V30 3166 O 289.885 1.78479 -0.0275711 0
M  V30 3167 C 286.985 3.38565 -0.15058 0
M  V30 3168 C 286.158 4.21501 -1.16857 0
M  V30 3169 C 285.217 5.23277 -0.553832 0
M  V30 3170 O 284.243 5.56041 -1.21686 0
M  V30 3171 N 285.445 5.76629 0.669296 0
M  V30 3172 H 288.21 2.46257 -1.70814 0
M  V30 3173 H 285.771 1.24198 -1.03858 0
M  V30 3174 H 287.763 4.03777 0.273181 0
M  V30 3175 H 286.333 3.05299 0.671667 0
M  V30 3176 H 285.553 3.52265 -1.76926 0
M  V30 3177 H 286.841 4.73731 -1.85624 0
M  V30 3178 H 286.239 5.52243 1.22654 0
M  V30 3179 H 284.796 6.43521 1.03556 0
M  V30 3180 N 288.23 0.939286 1.26551 0
M  V30 3181 C 289.193 0.451987 2.24699 0
M  V30 3182 C 290.193 -0.435869 1.5478 0
M  V30 3183 O 291.383 -0.235314 1.72603 0
M  V30 3184 C 288.515 -0.348801 3.39111 0
M  V30 3185 H 289.708 1.3193 2.69322 0
M  V30 3186 H 287.261 0.721072 1.38673 0
M  V30 3187 H 287.996 -1.23444 2.99887 0
M  V30 3188 H 287.781 0.287945 3.91041 0
M  V30 3189 H 289.271 -0.679726 4.12031 0
M  V30 3190 N 289.708 -1.40897 0.706093 0
M  V30 3191 C 290.948 -2.02916 0.245827 0
M  V30 3192 C 291.312 -1.54751 -1.13649 0
M  V30 3193 O 292.513 -2.08768 -1.69321 0
M  V30 3194 C 290.784 -3.56031 0.312537 0
M  V30 3195 S 292.343 -4.38741 -0.0721388 0
M  V30 3196 H 289.161 -0.704186 0.0982007 0
M  V30 3197 H 291.763 -1.72168 0.926207 0
M  V30 3198 H 290.467 -3.88579 1.32039 0
M  V30 3199 H 289.998 -3.91495 -0.386641 0
M  V30 3200 H 292.013 -4.78952 -1.29692 0
M  V30 3201 N 291.186 -0.45159 -1.50991 0
M  V30 3202 C 292.134 0.366864 -2.29689 0
M  V30 3203 C 293.128 1.00809 -1.36139 0
M  V30 3204 O 294.334 0.941427 -1.53418 0
M  V30 3205 H 290.709 0.137133 -0.739391 0
M  V30 3206 H 292.68 -0.317538 -2.96706 0
M  V30 3207 C 291.429 1.44751 -3.16137 0
M  V30 3208 H 290.752 0.963473 -3.88017 0
M  V30 3209 H 292.192 1.99315 -3.74232 0
M  V30 3210 C 290.651 2.43869 -2.32442 0
M  V30 3211 O 291.181 3.4872 -1.99392 0
M  V30 3212 N 289.387 2.15105 -1.95392 0
M  V30 3213 H 288.934 1.29866 -2.22469 0
M  V30 3214 H 288.892 2.81661 -1.39693 0
M  V30 3215 N 292.664 1.56529 -0.183458 0
M  V30 3216 C 293.594 2.21549 0.737456 0
M  V30 3217 C 294.575 1.17489 1.23005 0
M  V30 3218 O 295.76 1.45959 1.281 0
M  V30 3219 C 292.89 2.86575 1.96194 0
M  V30 3220 C 291.844 3.96778 1.60473 0
M  V30 3221 C 291.17 4.48911 2.90487 0
M  V30 3222 C 292.47 5.15767 0.823497 0
M  V30 3223 H 294.164 2.98761 0.195453 0
M  V30 3224 H 291.71 1.43702 0.0925686 0
M  V30 3225 H 293.663 3.30739 2.61131 0
M  V30 3226 H 292.387 2.06749 2.52828 0
M  V30 3227 H 291.046 3.53286 0.978997 0
M  V30 3228 H 290.694 3.65862 3.45186 0
M  V30 3229 H 290.394 5.23265 2.67335 0
M  V30 3230 H 291.918 4.95771 3.56432 0
M  V30 3231 H 293.332 5.56549 1.37571 0
M  V30 3232 H 291.729 5.96114 0.690551 0
M  V30 3233 H 292.799 4.84574 -0.177782 0
M  V30 3234 N 294.142 -0.090211 1.57342 0
M  V30 3235 C 295.388 -0.793982 1.86611 0
M  V30 3236 C 295.721 -1.78142 0.773252 0
M  V30 3237 O 294.996 -1.93271 -0.218304 0
M  V30 3238 C 295.279 -1.51839 3.26523 0
M  V30 3239 C 295.132 -0.548609 4.46442 0
M  V30 3240 C 296.451 -2.46779 3.64401 0
M  V30 3241 H 293.57 -0.287186 0.678744 0
M  V30 3242 H 296.212 -0.0575076 1.89913 0
M  V30 3243 H 294.362 -2.14617 3.23839 0
M  V30 3244 H 296.034 0.0725513 4.61243 0
M  V30 3245 H 294.277 0.137614 4.33582 0
M  V30 3246 H 294.948 -1.09271 5.41076 0
M  V30 3247 H 297.424 -1.94089 3.68061 0
M  V30 3248 H 296.3 -2.94479 4.63221 0
M  V30 3249 H 296.561 -3.30758 2.93346 0
M  V30 3250 N 295.62 -1.53406 -0.361157 0
M  V30 3251 C 296.866 -1.70054 -1.10496 0
M  V30 3252 C 297.199 -0.453278 -1.88836 0
M  V30 3253 O 296.474 0.5495 -1.86576 0
M  V30 3254 C 296.757 -2.95317 -2.06058 0
M  V30 3255 C 296.61 -4.3021 -1.31298 0
M  V30 3256 C 297.929 -3.16193 -3.06121 0
M  V30 3257 H 295.048 -0.618799 -0.400321 0
M  V30 3258 H 297.69 -1.86052 -0.385318 0
M  V30 3259 H 295.84 -2.81809 -2.67425 0
M  V30 3260 H 297.512 -4.55538 -0.726807 0
M  V30 3261 H 295.755 -4.29421 -0.614853 0
M  V30 3262 H 296.426 -5.14 -2.01265 0
M  V30 3263 H 298.902 -3.28916 -2.5486 0
M  V30 3264 H 297.778 -4.05266 -3.70204 0
M  V30 3265 H 298.039 -2.31676 -3.76535 0
M  V30 3266 N 297.098 0.621204 -1.44841 0
M  V30 3267 C 298.008 1.7612 -1.5498 0
M  V30 3268 C 299.024 1.68477 -0.434927 0
M  V30 3269 O 300.2 1.89076 -0.693693 0
M  V30 3270 C 297.265 3.1254 -1.50065 0
M  V30 3271 C 296.326 3.31741 -2.72482 0
M  V30 3272 C 295.559 4.61653 -2.67792 0
M  V30 3273 O 295.782 5.431 -1.74352 0
M  V30 3274 O 294.716 4.83271 -3.58794 0
M  V30 3275 H 298.542 1.70518 -2.51311 0
M  V30 3276 H 296.127 0.783643 -1.27198 0
M  V30 3277 H 298.009 3.93844 -1.49882 0
M  V30 3278 H 296.684 3.18663 -0.568806 0
M  V30 3279 H 295.591 2.50077 -2.7823 0
M  V30 3280 H 296.924 3.30486 -3.64746 0
M  V30 3281 N 298.576 1.31904 0.862503 0
M  V30 3282 C 299.801 1.25135 1.65397 0
M  V30 3283 C 300.226 -0.179 1.87246 0
M  V30 3284 O 299.584 -1.1277 1.4196 0
M  V30 3285 C 299.632 2.00832 2.99498 0
M  V30 3286 O 298.736 1.35075 3.89652 0
M  V30 3287 H 298.077 0.431655 0.504549 0
M  V30 3288 H 300.607 1.74094 1.07483 0
M  V30 3289 H 300.617 2.10709 3.49379 0
M  V30 3290 H 299.292 3.04847 2.82916 0
M  V30 3291 H 297.869 1.33696 3.48109 0
M  V30 3292 N 300.054 -1.07777 1.14986 0
M  V30 3293 C 301.284 -1.83752 0.944402 0
M  V30 3294 C 301.692 -1.8218 -0.51058 0
M  V30 3295 O 301.035 -1.22852 -1.36576 0
M  V30 3296 C 301.097 -3.32128 1.37592 0
M  V30 3297 C 300.761 -3.57425 2.84775 0
M  V30 3298 C 301.758 -3.5173 3.8286 0
M  V30 3299 C 299.443 -3.8523 3.2234 0
M  V30 3300 C 301.437 -3.73482 5.16517 0
M  V30 3301 C 299.124 -4.06634 4.56171 0
M  V30 3302 C 300.122 -4.00754 5.53069 0
M  V30 3303 O 299.81 -4.2159 6.84483 0
M  V30 3304 H 299.542 -0.58673 0.335744 0
M  V30 3305 H 302.096 -1.36982 1.53052 0
M  V30 3306 H 300.326 -3.79686 0.733165 0
M  V30 3307 H 302.015 -3.89555 1.14024 0
M  V30 3308 H 302.781 -3.30256 3.55184 0
M  V30 3309 H 298.66 -3.88923 2.47508 0
M  V30 3310 H 302.204 -3.68808 5.92137 0
M  V30 3311 H 298.101 -4.27593 4.83564 0
M  V30 3312 H 298.869 -4.38961 6.90837 0
M  V30 3313 N 301.532 -0.945985 -1.26051 0
M  V30 3314 C 302.78 -0.594941 -1.93145 0
M  V30 3315 C 303.101 0.86953 -1.7454 0
M  V30 3316 O 302.371 1.61838 -1.10387 0
M  V30 3317 H 300.951 -0.217044 -0.714773 0
M  V30 3318 H 303.613 -1.20235 -1.53393 0
M  V30 3319 H 302.709 -0.816835 -3.01221 0
M  V30 3320 N 303.011 1.40521 -0.713556 0
M  V30 3321 C 304.241 2.0494 -0.261395 0
M  V30 3322 C 304.649 1.53861 1.10107 0
M  V30 3323 O 303.992 0.689321 1.70276 0
M  V30 3324 C 304.054 3.59138 -0.161227 0
M  V30 3325 C 303.718 4.33096 -1.45865 0
M  V30 3326 C 304.715 4.61182 -2.40016 0
M  V30 3327 C 302.4 4.72043 -1.71701 0
M  V30 3328 C 304.394 5.27196 -3.58251 0
M  V30 3329 C 302.081 5.37789 -2.90218 0
M  V30 3330 C 303.079 5.65295 -3.83315 0
M  V30 3331 O 302.767 6.29683 -4.99754 0
M  V30 3332 H 302.499 0.666041 -0.115608 0
M  V30 3333 H 305.053 1.80954 -0.971849 0
M  V30 3334 H 303.283 3.81936 0.605153 0
M  V30 3335 H 304.972 4.05091 0.256105 0
M  V30 3336 H 305.738 4.31559 -2.21318 0
M  V30 3337 H 301.617 4.50003 -1.00092 0
M  V30 3338 H 305.161 5.48582 -4.30934 0
M  V30 3339 H 301.058 5.66831 -3.08825 0
M  V30 3340 H 301.826 6.4818 -4.99805 0
M  V30 3341 N 304.489 0.459591 1.5075 0
M  V30 3342 C 305.717 -0.0973749 2.06671 0
M  V30 3343 C 306.132 -1.34524 1.32472 0
M  V30 3344 O 305.489 -1.7827 0.390634 0
M  V30 3345 C 305.54 -0.39714 3.59312 0
M  V30 3346 O 305.261 0.801214 4.30711 0
M  V30 3347 C 306.762 -1.00234 4.31819 0
M  V30 3348 H 303.982 0.00195854 0.670997 0
M  V30 3349 H 306.526 0.645072 1.94059 0
M  V30 3350 H 304.681 -1.08951 3.71764 0
M  V30 3351 H 305.095 0.538857 5.21725 0
M  V30 3352 H 306.569 -1.16193 5.39632 0
M  V30 3353 H 307.046 -1.98939 3.91561 0
M  V30 3354 H 307.652 -0.348699 4.23868 0
M  V30 3355 N 305.967 -1.56429 0.191757 0
M  V30 3356 C 307.213 -1.97777 -0.448554 0
M  V30 3357 C 307.546 -1.07847 -1.61501 0
M  V30 3358 O 306.821 -0.129774 -1.94067 0
M  V30 3359 C 307.104 -3.48362 -0.911906 0
M  V30 3360 C 306.957 -4.4907 0.256136 0
M  V30 3361 C 308.276 -4.02561 -1.77857 0
M  V30 3362 H 305.395 -0.719071 -0.161572 0
M  V30 3363 H 308.037 -1.87896 0.282007 0
M  V30 3364 H 306.187 -3.56914 -1.53442 0
M  V30 3365 H 307.859 -4.5256 0.893733 0
M  V30 3366 H 306.102 -4.24181 0.908436 0
M  V30 3367 H 306.773 -5.51889 -0.11053 0
M  V30 3368 H 309.249 -3.96767 -1.25359 0
M  V30 3369 H 308.125 -5.08301 -2.07174 0
M  V30 3370 H 308.386 -3.47616 -2.73158 0
M  V30 3371 N 307.445 0.0818655 -1.57387 0
M  V30 3372 C 308.355 1.11642 -2.06333 0
M  V30 3373 C 309.371 1.43033 -0.99083 0
M  V30 3374 O 310.547 1.53411 -1.30488 0
M  V30 3375 C 307.612 2.41342 -2.48907 0
M  V30 3376 C 306.673 2.17014 -3.7041 0
M  V30 3377 C 305.906 3.4053 -4.10944 0
M  V30 3378 O 306.129 4.4927 -3.51444 0
M  V30 3379 O 305.063 3.29336 -5.03807 0
M  V30 3380 H 308.889 0.730657 -2.9478 0
M  V30 3381 H 306.474 0.295301 -1.46452 0
M  V30 3382 H 308.356 3.17691 -2.76858 0
M  V30 3383 H 307.031 2.79319 -1.63593 0
M  V30 3384 H 305.938 1.38403 -3.47556 0
M  V30 3385 H 307.271 1.83923 -4.56545 0
M  V30 3386 N 308.923 1.53595 0.353017 0
M  V30 3387 C 310.2 1.61002 1.11075 0
M  V30 3388 C 310.58 0.425356 2.0677 0
M  V30 3389 O 309.928 -0.583267 2.2093 0
M  V30 3390 C 310.138 2.96631 1.83877 0
M  V30 3391 C 311.486 3.51653 2.37961 0
M  V30 3392 O 312.51 2.98743 1.93987 0
M  V30 3393 O 311.369 4.44177 3.18386 0
M  V30 3394 H 308.463 0.650825 0.510251 0
M  V30 3395 H 311.009 1.6594 0.35527 0
M  V30 3396 H 309.781 3.74293 1.14108 0
M  V30 3397 H 309.404 2.95242 2.66304 0
M  V30 3398 N 310.401 -0.613514 1.45168 0
M  V30 3399 C 311.65 -1.36874 1.4815 0
M  V30 3400 C 311.963 -1.952 0.124982 0
M  V30 3401 O 313.169 -2.71481 0.0324176 0
M  V30 3402 C 311.625 -2.47905 2.60904 0
M  V30 3403 C 311.233 -1.96016 4.02842 0
M  V30 3404 C 312.977 -3.24965 2.73126 0
M  V30 3405 C 310.884 -3.04494 5.06988 0
M  V30 3406 H 309.814 -0.514428 0.551253 0
M  V30 3407 H 312.465 -0.658182 1.7129 0
M  V30 3408 H 310.847 -3.21618 2.31037 0
M  V30 3409 H 312.021 -1.29051 4.4236 0
M  V30 3410 H 310.336 -1.31719 3.95018 0
M  V30 3411 H 312.933 -4.05865 3.48106 0
M  V30 3412 H 313.276 -3.75588 1.79553 0
M  V30 3413 H 313.809 -2.5835 3.0249 0
M  V30 3414 H 310.548 -2.58795 6.0225 0
M  V30 3415 H 310.068 -3.70044 4.72046 0
M  V30 3416 H 311.747 -3.68976 5.31475 0
M  V30 3417 N 311.879 -1.3236 -0.855495 0
M  V30 3418 C 313.128 -1.22226 -1.60448 0
M  V30 3419 C 313.441 0.214733 -1.94418 0
M  V30 3420 O 314.647 0.437917 -2.67945 0
M  V30 3421 C 313.103 -2.14063 -2.89318 0
M  V30 3422 C 312.711 -3.62839 -2.62777 0
M  V30 3423 C 314.455 -2.12764 -3.67331 0
M  V30 3424 C 312.362 -4.4664 -3.87643 0
M  V30 3425 H 311.292 -0.453904 -0.602069 0
M  V30 3426 H 313.943 -1.57314 -0.944698 0
M  V30 3427 H 312.325 -1.71889 -3.5675 0
M  V30 3428 H 313.499 -4.1335 -2.03662 0
M  V30 3429 H 311.814 -3.66261 -1.98096 0
M  V30 3430 H 314.411 -2.72611 -4.59987 0
M  V30 3431 H 314.754 -1.11841 -4.00995 0
M  V30 3432 H 315.287 -2.53214 -3.06802 0
M  V30 3433 H 312.026 -5.48373 -3.5912 0
M  V30 3434 H 311.546 -4.0088 -4.46156 0
M  V30 3435 H 313.225 -4.59597 -4.55389 0
M  V30 3436 N 313.357 1.07166 -1.15556 0
M  V30 3437 C 314.287 2.16403 -0.877046 0
M  V30 3438 C 315.268 1.69217 0.173111 0
M  V30 3439 O 316.453 1.94181 0.027084 0
M  V30 3440 C 313.583 3.45349 -0.367632 0
M  V30 3441 C 312.537 4.05995 -1.35468 0
M  V30 3442 C 311.863 5.30045 -0.704038 0
M  V30 3443 C 313.163 4.45804 -2.72132 0
M  V30 3444 H 314.857 2.39959 -1.79053 0
M  V30 3445 H 312.403 1.15325 -0.862331 0
M  V30 3446 H 314.356 4.21095 -0.160317 0
M  V30 3447 H 313.08 3.21385 0.581326 0
M  V30 3448 H 311.739 3.32296 -1.54839 0
M  V30 3449 H 311.387 5.02373 0.251128 0
M  V30 3450 H 311.087 5.71579 -1.36277 0
M  V30 3451 H 312.611 6.08495 -0.50654 0
M  V30 3452 H 314.025 5.12671 -2.56595 0
M  V30 3453 H 312.422 4.98296 -3.34397 0
M  V30 3454 H 313.492 3.57083 -3.28054 0
M  V30 3455 N 314.835 0.952656 1.25548 0
M  V30 3456 C 316.082 0.606373 1.93208 0
M  V30 3457 C 316.41 -0.85631 1.74636 0
M  V30 3458 O 315.665 -1.62951 1.08376 0
M  V30 3459 C 315.964 0.908818 3.45652 0
M  V30 3460 C 315.63 2.35722 3.84378 0
M  V30 3461 C 314.292 2.75312 3.9466 0
M  V30 3462 C 316.644 3.29793 4.03591 0
M  V30 3463 C 313.972 4.08047 4.21562 0
M  V30 3464 C 316.324 4.62138 4.31985 0
M  V30 3465 C 314.988 5.01528 4.40484 0
M  V30 3466 H 314.258 0.221888 0.706998 0
M  V30 3467 H 316.905 1.20132 1.49133 0
M  V30 3468 H 315.21 0.231456 3.91116 0
M  V30 3469 H 316.907 0.619498 3.96186 0
M  V30 3470 H 313.497 2.04017 3.76928 0
M  V30 3471 H 317.681 3.00397 3.95064 0
M  V30 3472 H 312.937 4.38212 4.26357 0
M  V30 3473 H 317.111 5.35012 4.45797 0
M  V30 3474 H 314.738 6.04406 4.61083 0
M  V30 3475 N 316.313 -1.40141 0.720998 0
M  V30 3476 C 317.559 -2.01572 0.272075 0
M  V30 3477 C 317.914 -1.5616 -1.12391 0
M  V30 3478 O 317.207 -0.774198 -1.75262 0
M  V30 3479 C 317.401 -3.56165 0.296892 0
M  V30 3480 C 317.23 -4.16584 1.69375 0
M  V30 3481 C 316 -4.49783 2.30269 0
M  V30 3482 C 318.198 -4.41076 2.64493 0
M  V30 3483 N 316.18 -4.95626 3.62254 0
M  V30 3484 C 317.551 -4.88971 3.81192 0
M  V30 3485 C 319.606 -4.23122 2.62435 0
M  V30 3486 C 318.309 -5.20796 4.96149 0
M  V30 3487 C 320.335 -4.56052 3.76524 0
M  V30 3488 C 319.697 -5.04141 4.91956 0
M  V30 3489 H 315.796 -0.768343 0.145511 0
M  V30 3490 H 318.38 -1.70287 0.943959 0
M  V30 3491 H 316.551 -3.86868 -0.344578 0
M  V30 3492 H 318.283 -4.04346 -0.169254 0
M  V30 3493 H 315.038 -4.37101 1.82318 0
M  V30 3494 H 315.462 -5.22923 4.29977 0
M  V30 3495 H 320.104 -3.85158 1.74393 0
M  V30 3496 H 317.822 -5.57672 5.84831 0
M  V30 3497 H 321.408 -4.43796 3.76213 0
M  V30 3498 H 320.288 -5.29142 5.78774 0
M  V30 3499 N 317.792 -0.46758 -1.50504 0
M  V30 3500 C 319.069 0.15003 -1.95024 0
M  V30 3501 C 319.449 1.57304 -1.40779 0
M  V30 3502 O 318.797 2.20281 -0.607319 0
M  V30 3503 C 319.007 0.0969324 -3.48865 0
M  V30 3504 C 320.355 0.287565 -4.23625 0
M  V30 3505 O 321.379 0.173678 -3.55776 0
M  V30 3506 O 320.238 0.517186 -5.44047 0
M  V30 3507 H 317.332 0.113582 -0.819163 0
M  V30 3508 H 319.878 -0.52773 -1.61286 0
M  V30 3509 H 318.65 -0.896732 -3.80886 0
M  V30 3510 H 318.273 0.816303 -3.8913 0
M  V30 3511 N 319.27 1.56325 -0.20005 0
M  V30 3512 C 320.547 1.89484 0.48529 0
M  V30 3513 C 320.927 1.1143 1.79294 0
M  V30 3514 O 320.275 0.216919 2.27468 0
M  V30 3515 C 320.485 3.41923 0.699243 0
M  V30 3516 C 321.833 4.12256 1.01638 0
M  V30 3517 O 322.857 3.47402 0.786792 0
M  V30 3518 O 321.716 5.26887 1.45095 0
M  V30 3519 H 318.81 0.787144 0.253639 0
M  V30 3520 H 321.356 1.67985 -0.240633 0
M  V30 3521 H 320.128 3.90658 -0.224008 0
M  V30 3522 H 319.751 3.69131 1.47744 0
M  V30 3523 N 320.748 -0.0735177 1.57428 0
M  V30 3524 C 321.696 -1.10628 2.04607 0
M  V30 3525 C 322.69 -1.40181 0.951088 0
M  V30 3526 O 323.896 -1.39608 1.1362 0
M  V30 3527 H 320.271 -0.374088 0.652351 0
M  V30 3528 H 322.242 -0.682218 2.90497 0
M  V30 3529 C 320.991 -2.41212 2.50423 0
M  V30 3530 H 320.314 -2.19322 3.34272 0
M  V30 3531 H 321.754 -3.11927 2.87189 0
M  V30 3532 C 320.213 -3.0705 1.38644 0
M  V30 3533 O 320.743 -3.95056 0.727582 0
M  V30 3534 N 318.949 -2.67645 1.132 0
M  V30 3535 H 318.496 -1.96169 1.66959 0
M  V30 3536 H 318.454 -3.1202 0.386147 0
M  V30 3537 N 322.226 -1.5378 -0.344866 0
M  V30 3538 C 323.474 -1.70625 -1.08311 0
M  V30 3539 C 323.795 -0.471447 -1.89215 0
M  V30 3540 O 323.065 0.514616 -1.8902 0
M  V30 3541 H 321.645 -0.629058 -0.402859 0
M  V30 3542 H 324.307 -1.9103 -0.386459 0
M  V30 3543 H 323.403 -2.57656 -1.76124 0
M  V30 3544 N 323.704 0.605807 -1.45491 0
M  V30 3545 C 324.652 1.73754 -1.54636 0
M  V30 3546 C 325.646 1.64207 -0.416219 0
M  V30 3547 O 326.852 1.69979 -0.592199 0
M  V30 3548 H 323.227 0.574073 -0.485741 0
M  V30 3549 H 325.198 1.63169 -2.49837 0
M  V30 3550 C 323.947 3.12135 -1.53189 0
M  V30 3551 H 323.27 3.20141 -2.39478 0
M  V30 3552 H 324.71 3.91147 -1.63645 0
M  V30 3553 C 323.169 3.35921 -0.256616 0
M  V30 3554 O 323.699 3.96194 0.662798 0
M  V30 3555 N 321.905 2.90204 -0.151751 0
M  V30 3556 H 321.452 2.41336 -0.90081 0
M  V30 3557 H 321.41 3.06492 0.700699 0
M  V30 3558 N 325.182 1.32811 0.848464 0
M  V30 3559 C 326.145 1.22194 1.9391 0
M  V30 3560 C 327.145 0.143404 1.60159 0
M  V30 3561 O 328.335 0.394253 1.6968 0
M  V30 3562 C 325.467 0.88067 3.29328 0
M  V30 3563 H 326.66 2.19127 2.04752 0
M  V30 3564 H 324.213 1.16731 1.0394 0
M  V30 3565 H 324.948 -0.0865776 3.24184 0
M  V30 3566 H 324.733 1.66052 3.55203 0
M  V30 3567 H 326.223 0.830871 4.09251 0
M  V30 3568 N 326.66 -1.06551 1.16123 0
M  V30 3569 C 327.909 -1.78687 0.935622 0
M  V30 3570 C 328.222 -1.88056 -0.538001 0
M  V30 3571 O 329.428 -2.56794 -0.88143 0
M  V30 3572 C 327.884 -3.21143 1.62466 0
M  V30 3573 C 327.492 -3.19949 3.13587 0
M  V30 3574 C 329.236 -3.9783 1.48092 0
M  V30 3575 C 327.143 -4.57108 3.75241 0
M  V30 3576 H 326.073 -0.669712 0.346412 0
M  V30 3577 H 328.724 -1.19534 1.39226 0
M  V30 3578 H 327.106 -3.80539 1.09572 0
M  V30 3579 H 328.28 -2.70151 3.73303 0
M  V30 3580 H 326.595 -2.5676 3.27816 0
M  V30 3581 H 329.192 -4.99217 1.91538 0
M  V30 3582 H 329.535 -4.14078 0.429507 0
M  V30 3583 H 330.068 -3.4495 1.98127 0
M  V30 3584 H 326.807 -4.46065 4.80319 0
M  V30 3585 H 326.327 -5.07111 3.20309 0
M  V30 3586 H 328.006 -5.26069 3.76644 0
M  V30 3587 N 328.138 -0.959301 -1.25041 0
M  V30 3588 C 329.088 -0.453888 -2.23436 0
M  V30 3589 C 330.072 0.459461 -1.542 0
M  V30 3590 O 331.264 0.291752 -1.74579 0
M  V30 3591 C 328.393 0.262667 -3.42294 0
M  V30 3592 C 327.479 -0.669022 -4.1879 0
M  V30 3593 N 327.87 -1.80267 -4.72586 0
M  V30 3594 C 326.168 -0.47814 -4.4343 0
M  V30 3595 C 326.869 -2.38475 -5.3057 0
M  V30 3596 N 325.845 -1.67078 -5.17287 0
M  V30 3597 H 329.647 -1.319 -2.6264 0
M  V30 3598 H 327.161 -0.817358 -1.40332 0
M  V30 3599 H 329.158 0.641911 -4.11929 0
M  V30 3600 H 327.818 1.12432 -3.04613 0
M  V30 3601 H 328.829 -2.18442 -4.69578 0
M  V30 3602 H 325.506 0.340249 -4.16111 0
M  V30 3603 H 326.896 -3.34094 -5.8295 0
M  V30 3604 N 329.616 1.39756 -0.72842 0
M  V30 3605 C 330.549 2.28176 -0.0330172 0
M  V30 3606 C 331.527 1.44035 0.754501 0
M  V30 3607 O 332.711 1.73434 0.738445 0
M  V30 3608 C 329.838 3.24795 0.960504 0
M  V30 3609 C 328.884 4.25693 0.262264 0
M  V30 3610 S 329.717 5.25714 -1.01906 0
M  V30 3611 C 330.873 6.25894 -0.0279717 0
M  V30 3612 H 331.106 2.86807 -0.78287 0
M  V30 3613 H 328.639 1.45382 -0.519951 0
M  V30 3614 H 330.597 3.80983 1.52846 0
M  V30 3615 H 329.258 2.65196 1.68315 0
M  V30 3616 H 328.451 4.93699 1.01379 0
M  V30 3617 H 328.053 3.7327 -0.233482 0
M  V30 3618 H 330.345 6.72585 0.814621 0
M  V30 3619 H 331.288 7.04876 -0.67499 0
M  V30 3620 H 331.696 5.63466 0.341489 0
M  V30 3621 N 331.094 0.475555 1.50254 0
M  V30 3622 C 332.322 -0.0754493 2.06762 0
M  V30 3623 C 332.737 -1.33111 1.33891 0
M  V30 3624 O 332.094 -1.77846 0.40952 0
M  V30 3625 C 332.145 -0.359008 3.59713 0
M  V30 3626 O 331.866 0.846851 4.29837 0
M  V30 3627 C 333.367 -0.956484 4.32858 0
M  V30 3628 H 330.587 0.00907525 0.670939 0
M  V30 3629 H 333.131 0.665618 1.93364 0
M  V30 3630 H 331.286 -1.05001 3.72899 0
M  V30 3631 H 331.7 0.594162 5.21124 0
M  V30 3632 H 333.174 -1.10463 5.40834 0
M  V30 3633 H 333.651 -1.94775 3.93649 0
M  V30 3634 H 334.257 -0.303723 4.24214 0
M  V30 3635 N 332.573 -1.56217 0.208337 0
M  V30 3636 C 333.483 -2.23316 -0.718836 0
M  V30 3637 C 334.499 -1.23648 -1.22422 0
M  V30 3638 O 335.675 -1.56423 -1.26861 0
M  V30 3639 C 332.74 -2.88968 -1.91568 0
M  V30 3640 C 331.801 -4.03943 -1.45357 0
M  V30 3641 C 331.034 -4.66455 -2.59337 0
M  V30 3642 O 331.257 -4.27919 -3.77149 0
M  V30 3643 O 330.191 -5.55686 -2.31293 0
M  V30 3644 H 334.017 -3.03182 -0.177315 0
M  V30 3645 H 331.602 -1.49384 -0.0215402 0
M  V30 3646 H 333.484 -3.30455 -2.61491 0
M  V30 3647 H 332.159 -2.12071 -2.44556 0
M  V30 3648 H 331.066 -3.67052 -0.722746 0
M  V30 3649 H 332.399 -4.82543 -0.970219 0
M  V30 3650 N 334.051 0.0651679 -1.57465 0
M  V30 3651 C 334.961 1.09448 -2.07505 0
M  V30 3652 C 335.977 1.41974 -1.00595 0
M  V30 3653 O 337.153 1.52018 -1.32107 0
M  V30 3654 C 334.218 2.38689 -2.51453 0
M  V30 3655 C 333.279 2.13073 -3.72691 0
M  V30 3656 C 332.512 3.36152 -4.14533 0
M  V30 3657 O 332.735 4.45517 -3.56189 0
M  V30 3658 O 331.669 3.23974 -5.07272 0
M  V30 3659 H 335.495 0.69935 -2.95538 0
M  V30 3660 H 333.08 0.279752 -1.46757 0
M  V30 3661 H 334.962 3.14736 -2.80212 0
M  V30 3662 H 333.637 2.77568 -1.66546 0
M  V30 3663 H 332.544 1.34709 -3.49005 0
M  V30 3664 H 333.877 1.79071 -4.5847 0
M  V30 3665 N 335.529 1.53961 0.336706 0
M  V30 3666 C 336.459 1.85417 1.41925 0
M  V30 3667 C 337.44 0.709856 1.5458 0
M  V30 3668 O 338.625 0.962396 1.68676 0
M  V30 3669 C 335.755 2.06985 2.78881 0
M  V30 3670 C 334.709 3.22813 2.81026 0
M  V30 3671 C 334.035 3.29727 4.20932 0
M  V30 3672 C 335.335 4.60767 2.45949 0
M  V30 3673 H 337.029 2.76079 1.15848 0
M  V30 3674 H 334.575 1.32839 0.555859 0
M  V30 3675 H 336.528 2.27575 3.54665 0
M  V30 3676 H 335.252 1.13061 3.06406 0
M  V30 3677 H 333.911 3.0209 2.07695 0
M  V30 3678 H 333.559 2.33385 4.45579 0
M  V30 3679 H 333.259 4.07566 4.23277 0
M  V30 3680 H 334.783 3.52536 4.98549 0
M  V30 3681 H 336.197 4.81325 3.11446 0
M  V30 3682 H 334.594 5.4106 2.59566 0
M  V30 3683 H 335.664 4.6391 1.41122 0
M  V30 3684 N 337.007 -0.598083 1.45811 0
M  V30 3685 C 337.957 -1.70272 1.51629 0
M  V30 3686 C 338.941 -1.56382 0.378629 0
M  V30 3687 O 340.133 -1.65557 0.626087 0
M  V30 3688 C 337.262 -3.09042 1.49493 0
M  V30 3689 C 336.348 -3.28284 2.68496 0
M  V30 3690 N 336.739 -3.17748 3.93535 0
M  V30 3691 C 335.037 -3.59182 2.64394 0
M  V30 3692 C 335.738 -3.38579 4.7301 0
M  V30 3693 N 334.714 -3.63016 4.04624 0
M  V30 3694 H 338.516 -1.60634 2.46118 0
M  V30 3695 H 336.03 -0.801642 1.41235 0
M  V30 3696 H 338.027 -3.88302 1.51747 0
M  V30 3697 H 336.687 -3.19823 0.560683 0
M  V30 3698 H 337.698 -2.95944 4.25014 0
M  V30 3699 H 334.375 -3.76742 1.79922 0
M  V30 3700 H 335.765 -3.35747 5.82 0
M  V30 3701 N 338.485 -1.33259 -0.841409 0
M  V30 3702 C 339.734 -1.23921 -1.59143 0
M  V30 3703 C 340.047 0.1941 -1.94635 0
M  V30 3704 O 341.253 0.409474 -2.68394 0
M  V30 3705 C 339.709 -2.17119 -2.87032 0
M  V30 3706 C 339.317 -3.65606 -2.58914 0
M  V30 3707 C 341.061 -2.16648 -3.65053 0
M  V30 3708 C 338.968 -4.50726 -3.82884 0
M  V30 3709 H 337.898 -0.460264 -0.597221 0
M  V30 3710 H 340.549 -1.58307 -0.927959 0
M  V30 3711 H 338.931 -1.75663 -3.54906 0
M  V30 3712 H 340.105 -4.15487 -1.99267 0
M  V30 3713 H 338.42 -3.68341 -1.942 0
M  V30 3714 H 341.017 -2.77474 -4.57069 0
M  V30 3715 H 341.36 -1.16088 -3.99787 0
M  V30 3716 H 341.893 -2.56453 -3.041 0
M  V30 3717 H 338.632 -5.52151 -3.53283 0
M  V30 3718 H 338.152 -4.0559 -4.41879 0
M  V30 3719 H 339.831 -4.64401 -4.50489 0
M  V30 3720 N 339.963 1.05934 -1.16686 0
M  V30 3721 C 341.374 1.60263 -0.957745 0
M  V30 3722 C 341.725 1.89789 0.49745 0
M  V30 3723 O 340.85 1.67401 1.37135 0
M  V30 3724 C 341.445 2.91172 -1.73218 0
M  V30 3725 C 340.004 3.42188 -1.56794 0
M  V30 3726 C 339.151 2.16028 -1.73859 0
M  V30 3727 H 342.102 0.888392 -1.31504 0
M  V30 3728 H 342.123 3.60744 -1.21014 0
M  V30 3729 H 341.635 2.6965 -2.79124 0
M  V30 3730 H 339.736 3.68762 -0.533437 0
M  V30 3731 H 339.849 4.17273 -2.35414 0
M  V30 3732 H 338.213 2.26426 -1.16633 0
M  V30 3733 H 338.996 1.96985 -2.81161 0
M  V30 3734 N 341.441 0.965919 1.2453 0
M  V30 3735 C 342.373 0.452465 2.2469 0
M  V30 3736 C 343.386 -0.437821 1.56802 0
M  V30 3737 O 344.575 -0.244283 1.76821 0
M  V30 3738 C 341.675 -0.366258 3.36915 0
M  V30 3739 C 340.848 0.513701 4.34373 0
M  V30 3740 C 339.907 -0.248716 5.25612 0
M  V30 3741 O 338.933 0.356745 5.68081 0
M  V30 3742 N 340.135 -1.53877 5.59734 0
M  V30 3743 H 342.9 1.31361 2.69378 0
M  V30 3744 H 340.461 0.837541 1.38553 0
M  V30 3745 H 342.453 -0.884297 3.94921 0
M  V30 3746 H 341.023 -1.12832 2.91526 0
M  V30 3747 H 340.243 1.21273 3.75082 0
M  V30 3748 H 341.531 1.11391 4.96457 0
M  V30 3749 H 340.929 -2.05243 5.27154 0
M  V30 3750 H 339.486 -2.00254 6.20275 0
M  V30 3751 N 342.919 -1.39368 0.735821 0
M  V30 3752 C 344.166 -2.00497 0.284123 0
M  V30 3753 C 344.494 -1.58387 -1.12889 0
M  V30 3754 O 343.749 -0.804359 -1.78406 0
M  V30 3755 C 344.048 -3.5583 0.334651 0
M  V30 3756 C 343.714 -4.17593 1.7008 0
M  V30 3757 C 342.376 -4.34176 2.07472 0
M  V30 3758 C 344.728 -4.51848 2.59775 0
M  V30 3759 C 342.056 -4.82304 3.34065 0
M  V30 3760 C 344.408 -5.01384 3.85741 0
M  V30 3761 C 343.072 -5.16175 4.23225 0
M  V30 3762 H 342.342 -0.73367 0.103968 0
M  V30 3763 H 344.989 -1.66683 0.942825 0
M  V30 3764 H 343.294 -3.89674 -0.407625 0
M  V30 3765 H 344.991 -4.00986 -0.0329927 0
M  V30 3766 H 341.581 -4.05087 1.40008 0
M  V30 3767 H 345.765 -4.38653 2.32157 0
M  V30 3768 H 341.021 -4.91941 3.63049 0
M  V30 3769 H 345.195 -5.26863 4.55399 0
M  V30 3770 H 342.822 -5.5323 5.21384 0
M  V30 3771 N 344.397 -0.483516 -1.5 0
M  V30 3772 C 345.625 0.0644831 -2.06799 0
M  V30 3773 C 346.04 1.32399 -1.34596 0
M  V30 3774 O 345.397 1.77626 -0.418946 0
M  V30 3775 C 345.448 0.339927 -3.59898 0
M  V30 3776 O 345.169 -0.869635 -4.29382 0
M  V30 3777 C 346.67 0.933515 -4.33359 0
M  V30 3778 H 343.89 -0.0126333 -0.670881 0
M  V30 3779 H 346.434 -0.675864 -1.93009 0
M  V30 3780 H 344.589 1.03022 -3.7345 0
M  V30 3781 H 345.003 -0.62179 -5.20801 0
M  V30 3782 H 346.477 1.07593 -5.41413 0
M  V30 3783 H 346.954 1.92685 -3.94676 0
M  V30 3784 H 347.56 0.281221 -4.24369 0
M  V30 3785 N 345.875 1.56104 -0.216619 0
M  V30 3786 C 347.122 1.98172 0.416416 0
M  V30 3787 C 347.45 1.10413 1.60122 0
M  V30 3788 O 346.705 0.147967 1.9514 0
M  V30 3789 C 347.004 3.45923 0.898464 0
M  V30 3790 C 346.67 4.50559 -0.175288 0
M  V30 3791 C 345.332 4.78897 -0.470271 0
M  V30 3792 C 347.684 5.1334 -0.901728 0
M  V30 3793 C 345.012 5.67299 -1.4963 0
M  V30 3794 C 347.364 6.02853 -1.91705 0
M  V30 3795 C 346.028 6.29537 -2.21901 0
M  V30 3796 H 345.298 0.725164 0.152377 0
M  V30 3797 H 347.945 1.88839 -0.318103 0
M  V30 3798 H 346.25 3.52434 1.71165 0
M  V30 3799 H 347.947 3.75841 1.39803 0
M  V30 3800 H 344.537 4.28551 0.0647806 0
M  V30 3801 H 348.721 4.91521 -0.687072 0
M  V30 3802 H 343.977 5.86239 -1.73592 0
M  V30 3803 H 348.151 6.50552 -2.48505 0
M  V30 3804 H 345.778 6.97835 -3.01548 0
M  V30 3805 N 347.353 -0.0568162 1.57498 0
M  V30 3806 C 348.283 -1.06593 2.0775 0
M  V30 3807 C 349.264 -1.39448 0.974082 0
M  V30 3808 O 350.449 -1.48815 1.24771 0
M  V30 3809 C 347.579 -2.37509 2.5339 0
M  V30 3810 C 346.533 -2.1897 3.67745 0
M  V30 3811 C 345.859 -3.55402 3.99492 0
M  V30 3812 C 347.159 -1.59859 4.97235 0
M  V30 3813 H 348.853 -0.647706 2.9231 0
M  V30 3814 H 346.399 -0.310116 1.40621 0
M  V30 3815 H 348.352 -3.08409 2.87162 0
M  V30 3816 H 347.076 -2.8134 1.65878 0
M  V30 3817 H 345.735 -1.50508 3.3428 0
M  V30 3818 H 345.383 -3.9683 3.09088 0
M  V30 3819 H 345.083 -3.43831 4.76502 0
M  V30 3820 H 346.607 -4.27708 4.35773 0
M  V30 3821 H 348.021 -2.20642 5.29141 0
M  V30 3822 H 346.418 -1.58942 5.78669 0
M  V30 3823 H 347.488 -0.561506 4.81638 0
M  V30 3824 N 348.832 -1.54138 -0.328536 0
M  V30 3825 C 350.08 -1.71765 -1.06496 0
M  V30 3826 C 350.401 -0.49149 -1.88704 0
M  V30 3827 O 349.671 0.494539 -1.89555 0
M  V30 3828 H 348.251 -0.633295 -0.396164 0
M  V30 3829 H 350.913 -1.91429 -0.366176 0
M  V30 3830 H 350.009 -2.5951 -1.73381 0
M  V30 3831 N 350.31 0.590341 -1.46126 0
M  V30 3832 C 351.726 0.912917 -1.30912 0
M  V30 3833 C 351.926 1.99616 -0.274893 0
M  V30 3834 O 350.982 2.50397 0.325197 0
M  V30 3835 C 352.295 1.3375 -2.69317 0
M  V30 3836 C 353.843 1.45077 -2.77348 0
M  V30 3837 C 354.318 1.90904 -4.16317 0
M  V30 3838 N 355.809 1.9811 -4.18696 0
M  V30 3839 C 356.544 2.34828 -5.23109 0
M  V30 3840 N 356.04 2.70393 -6.37856 0
M  V30 3841 N 357.833 2.35317 -5.10473 0
M  V30 3842 H 349.984 -0.125358 -2.1203 0
M  V30 3843 H 352.247 0.00658481 -0.947977 0
M  V30 3844 H 351.953 0.615614 -3.4627 0
M  V30 3845 H 351.827 2.30058 -2.9892 0
M  V30 3846 H 354.214 2.16353 -2.00687 0
M  V30 3847 H 354.295 0.4704 -2.51438 0
M  V30 3848 H 353.939 1.20209 -4.9347 0
M  V30 3849 H 353.869 2.89886 -4.39629 0
M  V30 3850 H 356.36 1.73146 -3.359 0
M  V30 3851 H 356.673 2.97341 -7.13308 0
M  V30 3852 H 355.018 2.68048 -6.41229 0
M  V30 3853 H 358.209 2.0695 -4.19868 0
M  V30 3854 H 358.382 2.63605 -5.9196 0
M  V30 3855 N 351.788 1.33704 0.83433 0
M  V30 3856 C 353.016 1.28467 1.62185 0
M  V30 3857 C 353.431 -0.143526 1.88254 0
M  V30 3858 O 352.788 -1.08709 1.4659 0
M  V30 3859 C 352.839 2.06174 2.96942 0
M  V30 3860 O 352.56 3.43422 2.72016 0
M  V30 3861 C 354.061 2.08201 3.91366 0
M  V30 3862 H 351.281 0.4424 0.504503 0
M  V30 3863 H 353.825 1.76145 1.03891 0
M  V30 3864 H 351.98 1.62167 3.51825 0
M  V30 3865 H 352.394 3.83453 3.57861 0
M  V30 3866 H 353.868 2.67017 4.83121 0
M  V30 3867 H 354.345 1.07343 4.2588 0
M  V30 3868 H 354.951 2.52246 3.42421 0
M  V30 3869 N 353.266 -1.05314 1.17247 0
M  V30 3870 C 354.515 -1.77685 0.954521 0
M  V30 3871 C 354.828 -1.88616 -0.518025 0
M  V30 3872 O 356.034 -2.57714 -0.854144 0
M  V30 3873 C 354.49 -3.19402 1.65863 0
M  V30 3874 C 354.098 -3.16605 3.16963 0
M  V30 3875 C 355.842 -3.96237 1.52303 0
M  V30 3876 C 353.749 -4.53103 3.80068 0
M  V30 3877 H 352.679 -0.666 0.353496 0
M  V30 3878 H 355.33 -1.1805 1.40486 0
M  V30 3879 H 353.712 -3.79355 1.13602 0
M  V30 3880 H 354.886 -2.66176 3.76148 0
M  V30 3881 H 353.201 -2.53268 3.30521 0
M  V30 3882 H 355.798 -4.97157 1.96822 0
M  V30 3883 H 356.141 -4.136 0.473401 0
M  V30 3884 H 356.674 -3.42829 2.01775 0
M  V30 3885 H 353.413 -4.40946 4.85023 0
M  V30 3886 H 352.933 -5.03686 3.2567 0
M  V30 3887 H 354.612 -5.22045 3.82202 0
M  V30 3888 N 354.744 -0.972509 -1.24016 0
M  V30 3889 C 355.972 -0.654803 -1.96265 0
M  V30 3890 C 356.387 0.776708 -1.72083 0
M  V30 3891 O 355.744 1.52171 -1.00748 0
M  V30 3892 C 355.795 -0.92592 -3.49441 0
M  V30 3893 O 355.516 -2.30116 -3.72798 0
M  V30 3894 C 357.017 -0.623068 -4.38899 0
M  V30 3895 H 354.237 -0.243907 -0.6251 0
M  V30 3896 H 356.781 -1.30175 -1.57717 0
M  V30 3897 H 354.936 -0.325108 -3.86033 0
M  V30 3898 H 355.35 -2.38483 -4.67147 0
M  V30 3899 H 356.824 -0.863189 -5.45209 0
M  V30 3900 H 357.301 0.442754 -4.36963 0
M  V30 3901 H 357.907 -1.204 -4.07902 0
M  V30 3902 N 356.222 1.38976 -0.743202 0
M  V30 3903 C 357.447 2.05161 -0.303936 0
M  V30 3904 C 357.872 1.55677 1.05576 0
M  V30 3905 O 357.23 0.704131 1.67068 0
M  V30 3906 C 357.278 3.59138 -0.324373 0
M  V30 3907 O 356.382 4.06668 0.685204 0
M  V30 3908 H 355.723 0.649815 -0.136518 0
M  V30 3909 H 358.253 1.77852 -1.01142 0
M  V30 3910 H 358.263 4.07639 -0.171618 0
M  V30 3911 H 356.938 3.94515 -1.31647 0
M  V30 3912 H 355.515 3.69561 0.497913 0
M  V30 3913 N 357.7 0.491464 1.49741 0
M  V30 3914 C 358.647 -0.292027 2.28945 0
M  V30 3915 C 359.617 -0.968973 1.34908 0
M  V30 3916 O 360.802 -0.97748 1.6386 0
M  V30 3917 C 357.942 -1.35617 3.17336 0
M  V30 3918 C 357.055 -0.691957 4.26422 0
M  V30 3919 C 356.19 -1.73572 5.02042 0
M  V30 3920 C 355.229 -1.05286 6.02977 0
M  V30 3921 N 354.366 -2.0404 6.71798 0
M  V30 3922 H 359.206 0.389654 2.95442 0
M  V30 3923 H 356.743 0.204003 1.45679 0
M  V30 3924 H 358.701 -1.98502 3.66951 0
M  V30 3925 H 357.331 -2.00674 2.52844 0
M  V30 3926 H 356.383 0.0499523 3.80367 0
M  V30 3927 H 357.695 -0.153946 4.98562 0
M  V30 3928 H 356.849 -2.43987 5.55478 0
M  V30 3929 H 355.588 -2.30757 4.29654 0
M  V30 3930 H 354.593 -0.334446 5.48782 0
M  V30 3931 H 355.818 -0.487636 6.77347 0
M  V30 3932 H 353.764 -2.60205 6.02187 0
M  V30 3933 H 353.681 -1.55279 7.39881 0
M  V30 3934 H 354.949 -2.73772 7.29842 0
M  V30 3935 N 359.178 -1.55987 0.224894 0
M  V30 3936 C 360.088 -2.24066 -0.69511 0
M  V30 3937 C 361.104 -1.24939 -1.21104 0
M  V30 3938 O 362.28 -1.5776 -1.25195 0
M  V30 3939 C 359.345 -2.90983 -1.88493 0
M  V30 3940 C 358.406 -4.05462 -1.41064 0
M  V30 3941 C 357.639 -4.69179 -2.54375 0
M  V30 3942 O 357.862 -4.31895 -3.72589 0
M  V30 3943 O 356.796 -5.58108 -2.25386 0
M  V30 3944 H 360.622 -3.03353 -0.145149 0
M  V30 3945 H 358.207 -1.49399 -0.00569476 0
M  V30 3946 H 360.089 -3.33209 -2.57972 0
M  V30 3947 H 358.764 -2.14653 -2.42293 0
M  V30 3948 H 357.671 -3.67798 -0.683774 0
M  V30 3949 H 359.004 -4.83545 -0.918985 0
M  V30 3950 N 360.656 0.0484629 -1.57525 0
M  V30 3951 C 361.902 0.744226 -1.88651 0
M  V30 3952 C 362.235 1.76029 -0.820212 0
M  V30 3953 O 361.51 1.93782 0.166985 0
M  V30 3954 C 361.793 1.43128 -3.30434 0
M  V30 3955 C 361.646 0.43005 -4.47739 0
M  V30 3956 C 362.965 2.37031 -3.70816 0
M  V30 3957 H 360.084 0.269089 -0.68612 0
M  V30 3958 H 362.726 0.00713532 -1.89999 0
M  V30 3959 H 360.876 2.05956 -3.29415 0
M  V30 3960 H 362.548 -0.194816 -4.60888 0
M  V30 3961 H 360.791 -0.252522 -4.33064 0
M  V30 3962 H 361.462 0.948874 -5.43783 0
M  V30 3963 H 363.938 1.84263 -3.73077 0
M  V30 3964 H 362.814 2.82094 -4.70865 0
M  V30 3965 H 363.075 3.22864 -3.02012 0
M  V30 3966 N 362.134 1.5431 0.320358 0
M  V30 3967 C 363.364 1.7638 1.07582 0
M  V30 3968 C 363.772 0.513944 1.82086 0
M  V30 3969 O 363.115 -0.525123 1.76035 0
M  V30 3970 C 363.177 2.9055 2.1171 0
M  V30 3971 C 362.841 4.2934 1.56575 0
M  V30 3972 C 363.838 5.10077 1.00586 0
M  V30 3973 C 361.523 4.75893 1.60722 0
M  V30 3974 C 363.517 6.35477 0.494756 0
M  V30 3975 C 361.204 6.0126 1.09224 0
M  V30 3976 C 362.202 6.80886 0.53696 0
M  V30 3977 O 361.89 8.03894 0.0297371 0
M  V30 3978 H 361.622 0.592369 0.325692 0
M  V30 3979 H 364.176 2.02019 0.37116 0
M  V30 3980 H 362.406 2.60489 2.85801 0
M  V30 3981 H 364.095 3.00373 2.73003 0
M  V30 3982 H 364.861 4.75265 0.966869 0
M  V30 3983 H 360.74 4.13957 2.02882 0
M  V30 3984 H 364.284 6.97574 0.0606842 0
M  V30 3985 H 360.181 6.35562 1.12831 0
M  V30 3986 H 360.949 8.18372 0.14486 0
M  V30 3987 N 363.613 -0.582584 1.46437 0
M  V30 3988 C 364.86 -1.34079 1.51753 0
M  V30 3989 C 365.188 -1.93762 0.169299 0
M  V30 3990 O 364.443 -1.76989 -0.835062 0
M  V30 3991 C 364.742 -2.48964 2.56421 0
M  V30 3992 C 364.408 -2.07273 4.00436 0
M  V30 3993 C 363.07 -1.95618 4.39644 0
M  V30 3994 C 365.422 -1.75111 4.90903 0
M  V30 3995 C 362.75 -1.5006 5.67185 0
M  V30 3996 C 365.102 -1.31032 6.18881 0
M  V30 3997 C 363.766 -1.17954 6.56996 0
M  V30 3998 H 363.036 -0.49063 0.555304 0
M  V30 3999 H 365.683 -0.656007 1.79913 0
M  V30 4000 H 363.988 -3.22889 2.21923 0
M  V30 4001 H 365.685 -3.07178 2.57765 0
M  V30 4002 H 362.275 -2.17279 3.69443 0
M  V30 4003 H 366.459 -1.83001 4.61329 0
M  V30 4004 H 361.715 -1.38577 5.95488 0
M  V30 4005 H 365.889 -1.052 6.88408 0
M  V30 4006 H 363.516 -0.824279 7.55718 0
M  V30 4007 N 365.091 -1.34144 -0.827227 0
M  V30 4008 C 366.321 -1.29138 -1.61267 0
M  V30 4009 C 366.729 0.137597 -1.88699 0
M  V30 4010 O 366.072 1.09379 -1.47587 0
M  V30 4011 C 366.134 -2.0097 -2.9808 0
M  V30 4012 C 365.798 -3.50242 -2.93563 0
M  V30 4013 C 366.795 -4.4523 -2.68452 0
M  V30 4014 C 364.48 -3.92592 -3.13331 0
M  V30 4015 C 366.474 -5.80542 -2.63154 0
M  V30 4016 C 364.161 -5.28005 -3.07658 0
M  V30 4017 C 365.159 -6.21792 -2.82602 0
M  V30 4018 O 364.847 -7.54723 -2.76853 0
M  V30 4019 H 364.579 -0.445851 -0.508127 0
M  V30 4020 H 367.133 -1.77263 -1.03763 0
M  V30 4021 H 365.363 -1.47451 -3.57484 0
M  V30 4022 H 367.052 -1.89309 -3.5905 0
M  V30 4023 H 367.818 -4.13832 -2.52919 0
M  V30 4024 H 363.697 -3.19994 -3.31851 0
M  V30 4025 H 367.241 -6.53717 -2.43516 0
M  V30 4026 H 363.138 -5.59023 -3.22743 0
M  V30 4027 H 363.906 -7.64409 -2.92611 0
M  V30 4028 N 366.569 1.04691 -1.17803 0
M  V30 4029 C 367.797 1.81446 -0.99423 0
M  V30 4030 C 368.212 1.83174 0.457459 0
M  V30 4031 O 367.569 1.26265 1.31771 0
M  V30 4032 C 367.62 3.27334 -1.5341 0
M  V30 4033 O 367.341 3.25798 -2.92895 0
M  V30 4034 C 368.842 4.20759 -1.39559 0
M  V30 4035 H 366.062 0.571599 -0.351447 0
M  V30 4036 H 368.606 1.31982 -1.56208 0
M  V30 4037 H 366.761 3.74052 -1.00815 0
M  V30 4038 H 367.175 4.17144 -3.17949 0
M  V30 4039 H 368.649 5.21084 -1.82141 0
M  V30 4040 H 369.126 4.37856 -0.343394 0
M  V30 4041 H 369.732 3.79901 -1.91195 0
M  V30 4042 N 368.047 0.979072 1.23499 0
M  V30 4043 C 369.295 0.645941 1.91499 0
M  V30 4044 C 369.616 -0.822948 1.76784 0
M  V30 4045 O 368.886 -1.58854 1.14639 0
M  V30 4046 H 367.466 0.235919 0.708767 0
M  V30 4047 H 370.128 1.2426 1.50152 0
M  V30 4048 H 369.224 0.896411 2.9895 0
M  V30 4049 N 369.525 -1.3858 0.750561 0
M  V30 4050 C 370.75 -2.04997 0.314812 0
M  V30 4051 C 371.175 -1.56235 -1.04749 0
M  V30 4052 O 370.533 -0.712981 -1.66692 0
M  V30 4053 C 370.581 -3.58961 0.343415 0
M  V30 4054 O 369.685 -4.07025 -0.663628 0
M  V30 4055 H 369.026 -0.649081 0.139962 0
M  V30 4056 H 371.556 -1.77313 1.02084 0
M  V30 4057 H 371.566 -4.07542 0.193233 0
M  V30 4058 H 370.241 -3.93811 1.33738 0
M  V30 4059 H 368.818 -3.6982 -0.478307 0
M  V30 4060 N 371.003 -0.499398 -1.49478 0
M  V30 4061 C 372.233 0.0424839 -2.06556 0
M  V30 4062 C 372.641 1.31514 -1.36018 0
M  V30 4063 O 371.984 1.78555 -0.431718 0
M  V30 4064 C 372.046 0.368074 -3.57611 0
M  V30 4065 C 371.71 -0.806631 -4.49825 0
M  V30 4066 C 372.707 -1.69667 -4.91436 0
M  V30 4067 C 370.392 -1.00498 -4.92144 0
M  V30 4068 C 372.386 -2.76923 -5.74101 0
M  V30 4069 C 370.073 -2.08072 -5.74586 0
M  V30 4070 C 371.071 -2.96119 -6.15469 0
M  V30 4071 O 370.759 -4.01836 -6.96264 0
M  V30 4072 H 370.491 -0.0165165 -0.675798 0
M  V30 4073 H 373.045 -0.695497 -1.93267 0
M  V30 4074 H 371.275 1.15963 -3.68903 0
M  V30 4075 H 372.964 0.848381 -3.96935 0
M  V30 4076 H 373.73 -1.55524 -4.59388 0
M  V30 4077 H 369.609 -0.329036 -4.59824 0
M  V30 4078 H 373.153 -3.45676 -6.05932 0
M  V30 4079 H 369.05 -2.22211 -6.06047 0
M  V30 4080 H 369.818 -3.9917 -7.14567 0
M  V30 4081 N 372.481 1.55866 -0.233164 0
M  V30 4082 C 373.73 1.97779 0.39579 0
M  V30 4083 C 374.043 1.12419 1.60066 0
M  V30 4084 O 375.249 1.44283 2.29988 0
M  V30 4085 C 373.705 3.5188 0.755556 0
M  V30 4086 C 373.313 4.45959 -0.427152 0
M  V30 4087 C 375.057 4.02479 1.34946 0
M  V30 4088 C 372.964 5.91383 -0.0443043 0
M  V30 4089 H 371.894 0.738592 0.15165 0
M  V30 4090 H 374.545 1.80486 -0.331212 0
M  V30 4091 H 372.927 3.64816 1.5403 0
M  V30 4092 H 374.101 4.44776 -1.20462 0
M  V30 4093 H 372.416 4.05765 -0.935068 0
M  V30 4094 H 375.013 5.08637 1.649 0
M  V30 4095 H 375.356 3.49014 2.26925 0
M  V30 4096 H 375.889 3.92813 0.62791 0
M  V30 4097 H 372.628 6.48857 -0.930874 0
M  V30 4098 H 372.148 5.95734 0.697238 0
M  V30 4099 H 373.827 6.45893 0.378334 0
M  V30 4100 N 373.959 -0.0401083 1.57549 0
M  V30 4101 C 375.375 -0.395556 1.54621 0
M  V30 4102 C 375.575 -1.77281 0.957799 0
M  V30 4103 O 374.631 -2.45888 0.574031 0
M  V30 4104 C 375.944 -0.307535 2.99123 0
M  V30 4105 C 377.492 -0.385425 3.10618 0
M  V30 4106 C 377.967 -0.326973 4.56831 0
M  V30 4107 N 379.458 -0.386102 4.61588 0
M  V30 4108 C 380.193 -0.363591 5.72246 0
M  V30 4109 N 379.689 -0.29402 6.92176 0
M  V30 4110 N 381.482 -0.412503 5.60584 0
M  V30 4111 H 373.633 0.861325 1.94152 0
M  V30 4112 H 375.896 0.326445 0.890021 0
M  V30 4113 H 375.602 0.638461 3.45856 0
M  V30 4114 H 375.476 -1.10552 3.60636 0
M  V30 4115 H 377.863 -1.32185 2.63839 0
M  V30 4116 H 377.944 0.44171 2.51957 0
M  V30 4117 H 377.588 0.605738 5.04275 0
M  V30 4118 H 377.518 -1.17207 5.13391 0
M  V30 4119 H 380.009 -0.442832 3.75296 0
M  V30 4120 H 380.322 -0.28164 7.72287 0
M  V30 4121 H 378.667 -0.260232 6.94513 0
M  V30 4122 H 381.858 -0.464769 4.65787 0
M  V30 4123 H 382.031 -0.391492 6.46816 0
M  V30 4124 N 375.437 -1.54477 -0.31217 0
M  V30 4125 C 376.367 -1.87652 -1.38957 0
M  V30 4126 C 377.348 -0.734358 -1.53431 0
M  V30 4127 O 378.533 -0.98911 -1.67123 0
M  V30 4128 C 375.663 -2.11396 -2.75552 0
M  V30 4129 C 374.617 -3.27243 -2.75855 0
M  V30 4130 C 373.943 -3.36382 -4.15633 0
M  V30 4131 C 375.243 -4.64622 -2.38587 0
M  V30 4132 H 376.937 -2.77887 -1.11442 0
M  V30 4133 H 374.483 -1.33707 -0.534655 0
M  V30 4134 H 376.436 -2.33189 -3.51 0
M  V30 4135 H 375.16 -1.17921 -3.04569 0
M  V30 4136 H 373.819 -3.05356 -2.02863 0
M  V30 4137 H 373.467 -2.40445 -4.41809 0
M  V30 4138 H 373.167 -4.14249 -4.1674 0
M  V30 4139 H 374.691 -3.60422 -4.92877 0
M  V30 4140 H 376.105 -4.86219 -3.03749 0
M  V30 4141 H 374.502 -5.45121 -2.50925 0
M  V30 4142 H 375.572 -4.66097 -1.33723 0
M  V30 4143 N 376.915 0.57481 -1.46744 0
M  V30 4144 C 378.164 1.32898 -1.51727 0
M  V30 4145 C 378.477 1.948 -0.176692 0
M  V30 4146 O 379.683 2.71299 -0.104385 0
M  V30 4147 C 378.139 2.40901 -2.67385 0
M  V30 4148 C 377.747 1.85266 -4.07898 0
M  V30 4149 C 379.491 3.17609 -2.81646 0
M  V30 4150 C 377.398 2.90945 -5.14883 0
M  V30 4151 H 376.328 0.499631 -0.564699 0
M  V30 4152 H 378.979 0.612536 -1.72975 0
M  V30 4153 H 377.361 3.15379 -2.39483 0
M  V30 4154 H 378.535 1.17278 -4.45626 0
M  V30 4155 H 376.85 1.21199 -3.98371 0
M  V30 4156 H 379.447 3.96493 -3.58744 0
M  V30 4157 H 379.79 3.70696 -1.89448 0
M  V30 4158 H 380.323 2.50239 -3.09233 0
M  V30 4159 H 377.062 2.42736 -6.089 0
M  V30 4160 H 376.582 3.57398 -4.81691 0
M  V30 4161 H 378.261 3.54755 -5.41071 0
M  V30 4162 N 378.394 1.34581 0.820102 0
M  V30 4163 C 379.324 1.29038 1.94606 0
M  V30 4164 C 380.305 0.1673 1.69275 0
M  V30 4165 O 381.49 0.360112 1.90832 0
M  V30 4166 C 378.62 1.04793 3.31113 0
M  V30 4167 C 377.574 2.13597 3.70891 0
M  V30 4168 C 376.9 1.74537 5.05412 0
M  V30 4169 C 378.2 3.55451 3.8269 0
M  V30 4170 H 379.894 2.23248 1.99501 0
M  V30 4171 H 377.44 1.0747 0.958449 0
M  V30 4172 H 379.393 0.995592 4.0947 0
M  V30 4173 H 378.117 0.0702565 3.26524 0
M  V30 4174 H 376.776 2.17905 2.9481 0
M  V30 4175 H 376.424 0.754226 4.97313 0
M  V30 4176 H 376.124 2.47361 5.32997 0
M  V30 4177 H 377.648 1.70803 5.86224 0
M  V30 4178 H 379.062 3.5354 4.51312 0
M  V30 4179 H 377.459 4.26922 4.21732 0
M  V30 4180 H 378.529 3.92587 2.84611 0
M  V30 4181 N 379.872 -1.04064 1.18357 0
M  V30 4182 C 380.819 -2.12077 0.910603 0
M  V30 4183 C 381.789 -1.65421 -0.15 0
M  V30 4184 O 382.974 -1.90797 -0.0103614 0
M  V30 4185 C 380.114 -3.42252 0.442472 0
M  V30 4186 C 379.227 -4.0252 1.5685 0
M  V30 4187 C 378.362 -5.20657 1.05309 0
M  V30 4188 C 377.401 -5.72955 2.1538 0
M  V30 4189 N 376.538 -6.8238 1.65233 0
M  V30 4190 H 381.378 -2.34764 1.83548 0
M  V30 4191 H 378.915 -1.15157 0.915279 0
M  V30 4192 H 380.873 -4.16921 0.152534 0
M  V30 4193 H 379.503 -3.19712 -0.445428 0
M  V30 4194 H 378.555 -3.25178 1.97391 0
M  V30 4195 H 379.867 -4.37362 2.39824 0
M  V30 4196 H 379.021 -6.0244 0.717677 0
M  V30 4197 H 377.76 -4.87318 0.19293 0
M  V30 4198 H 376.765 -4.89793 2.49766 0
M  V30 4199 H 377.99 -6.08337 3.01832 0
M  V30 4200 H 375.936 -6.50917 0.815064 0
M  V30 4201 H 375.853 -7.16286 2.41805 0
M  V30 4202 H 377.121 -7.67788 1.34619 0
M  V30 4203 N 381.35 -0.985608 -1.22978 0
M  V30 4204 C 382.597 -0.657386 -1.91532 0
M  V30 4205 C 382.925 0.809707 -1.76845 0
M  V30 4206 O 382.18 1.60021 -1.12658 0
M  V30 4207 C 382.479 -1.00014 -3.43121 0
M  V30 4208 C 382.145 -2.4583 -3.77993 0
M  V30 4209 C 380.807 -2.85679 -3.87222 0
M  V30 4210 C 383.159 -3.40378 -3.94705 0
M  V30 4211 C 380.487 -4.19081 -4.10595 0
M  V30 4212 C 382.839 -4.73429 -4.1958 0
M  V30 4213 C 381.503 -5.1303 -4.27032 0
M  V30 4214 H 380.773 -0.240555 -0.700867 0
M  V30 4215 H 383.42 -1.24044 -1.45895 0
M  V30 4216 H 381.725 -0.335072 -3.90365 0
M  V30 4217 H 383.422 -0.724322 -3.94404 0
M  V30 4218 H 380.012 -2.13939 -3.71387 0
M  V30 4219 H 384.196 -3.10766 -3.8696 0
M  V30 4220 H 379.452 -4.49362 -4.14589 0
M  V30 4221 H 383.626 -5.46644 -4.31455 0
M  V30 4222 H 381.253 -6.16418 -4.44896 0
M  V30 4223 N 382.828 1.3818 -0.7579 0
M  V30 4224 C 383.76 2.2901 -0.0932177 0
M  V30 4225 C 384.773 1.47958 0.679136 0
M  V30 4226 O 385.962 1.70773 0.519514 0
M  V30 4227 C 383.062 3.26953 0.89192 0
M  V30 4228 C 382.235 4.37045 0.176303 0
M  V30 4229 C 381.294 5.15148 1.07281 0
M  V30 4230 O 380.32 5.66616 0.541728 0
M  V30 4231 N 381.522 5.28542 2.40049 0
M  V30 4232 H 384.287 2.86694 -0.873303 0
M  V30 4233 H 381.848 1.50007 -0.609054 0
M  V30 4234 H 383.84 3.76083 1.49479 0
M  V30 4235 H 382.41 2.70136 1.57306 0
M  V30 4236 H 381.63 3.89493 -0.607328 0
M  V30 4237 H 382.918 5.07801 -0.318718 0
M  V30 4238 H 382.316 4.88285 2.85647 0
M  V30 4239 H 380.873 5.8103 2.95376 0
M  V30 4240 N 384.306 0.507319 1.49211 0
M  V30 4241 C 385.552 -0.0350047 2.0277 0
M  V30 4242 C 385.885 -1.3606 1.38569 0
M  V30 4243 O 385.16 -1.87321 0.523542 0
M  V30 4244 C 385.443 -0.180916 3.59645 0
M  V30 4245 C 385.296 1.16825 4.34364 0
M  V30 4246 C 386.615 -0.918558 4.30407 0
M  V30 4247 H 383.734 -0.0112473 0.736914 0
M  V30 4248 H 386.376 0.659956 1.7817 0
M  V30 4249 H 384.526 -0.772826 3.80736 0
M  V30 4250 H 386.198 1.79952 4.24753 0
M  V30 4251 H 384.441 1.75594 3.96673 0
M  V30 4252 H 385.112 1.01939 5.42506 0
M  V30 4253 H 387.588 -0.41649 4.1401 0
M  V30 4254 H 386.464 -0.989505 5.39907 0
M  V30 4255 H 386.725 -1.96373 3.96093 0
M  V30 4256 N 385.784 -1.5574 0.241426 0
M  V30 4257 C 386.716 -2.18469 -0.693091 0
M  V30 4258 C 387.729 -1.15942 -1.14286 0
M  V30 4259 O 388.918 -1.42832 -1.07058 0
M  V30 4260 C 386.018 -2.7696 -1.95311 0
M  V30 4261 C 385.191 -4.04853 -1.65568 0
M  V30 4262 C 384.25 -4.47715 -2.76474 0
M  V30 4263 O 383.276 -5.14205 -2.44094 0
M  V30 4264 N 384.478 -4.15044 -4.05855 0
M  V30 4265 H 387.243 -2.99292 -0.156388 0
M  V30 4266 H 384.804 -1.61784 0.0611752 0
M  V30 4267 H 386.796 -3.02594 -2.68736 0
M  V30 4268 H 385.366 -2.00326 -2.39975 0
M  V30 4269 H 384.586 -3.86865 -0.756886 0
M  V30 4270 H 385.874 -4.88246 -1.43153 0
M  V30 4271 H 385.272 -3.61654 -4.34998 0
M  V30 4272 H 383.829 -4.45526 -4.75762 0
M  V30 4273 N 387.262 0.0317525 -1.57568 0
M  V30 4274 C 388.678 0.38735 -1.54828 0
M  V30 4275 C 388.878 1.7677 -0.967187 0
M  V30 4276 O 387.934 2.45581 -0.587063 0
M  V30 4277 C 389.247 0.291667 -2.99282 0
M  V30 4278 C 390.795 0.368946 -3.10818 0
M  V30 4279 C 391.27 0.302741 -4.56998 0
M  V30 4280 N 392.761 0.361617 -4.61786 0
M  V30 4281 C 393.496 0.333238 -5.72431 0
M  V30 4282 N 392.992 0.257308 -6.92322 0
M  V30 4283 N 394.785 0.382769 -5.60795 0
M  V30 4284 H 386.936 -0.871609 -1.93692 0
M  V30 4285 H 389.199 -0.331161 -0.888277 0
M  V30 4286 H 388.905 -0.656794 -3.45513 0
M  V30 4287 H 388.779 1.08638 -3.61217 0
M  V30 4288 H 391.166 1.30784 -2.64536 0
M  V30 4289 H 391.247 -0.455066 -2.5172 0
M  V30 4290 H 390.891 -0.632473 -5.03947 0
M  V30 4291 H 390.821 1.14482 -5.14005 0
M  V30 4292 H 393.312 0.422923 -3.75526 0
M  V30 4293 H 393.625 0.24068 -7.72425 0
M  V30 4294 H 391.97 0.223396 -6.94641 0
M  V30 4295 H 395.161 0.44006 -4.66027 0
M  V30 4296 H 395.334 0.357184 -6.47015 0
M  V30 4297 N 388.74 1.54641 0.303973 0
M  V30 4298 C 389.65 1.88439 1.39743 0
M  V30 4299 C 390.666 0.778239 1.55626 0
M  V30 4300 O 391.842 1.07442 1.70347 0
M  V30 4301 C 388.907 2.12212 2.74166 0
M  V30 4302 C 387.968 3.35936 2.67293 0
M  V30 4303 C 387.201 3.58566 3.95305 0
M  V30 4304 O 387.424 2.84263 4.9452 0
M  V30 4305 O 386.358 4.52078 3.97378 0
M  V30 4306 H 390.184 2.81458 1.14083 0
M  V30 4307 H 387.769 1.40793 0.499768 0
M  V30 4308 H 389.651 2.29067 3.53704 0
M  V30 4309 H 388.326 1.22379 2.99675 0
M  V30 4310 H 387.233 3.24448 1.86237 0
M  V30 4311 H 388.566 4.2589 2.46736 0
M  V30 4312 N 390.218 -0.567019 1.47046 0
M  V30 4313 C 391.464 -1.32658 1.53394 0
M  V30 4314 C 391.797 -1.93254 0.19148 0
M  V30 4315 O 391.072 -1.77338 -0.798844 0
M  V30 4316 C 391.355 -2.44412 2.64452 0
M  V30 4317 C 391.208 -1.88749 4.08282 0
M  V30 4318 C 392.527 -3.46387 2.71485 0
M  V30 4319 H 389.646 -0.48098 0.558415 0
M  V30 4320 H 392.288 -0.635481 1.79058 0
M  V30 4321 H 390.438 -3.03363 2.427 0
M  V30 4322 H 392.11 -1.34134 4.41368 0
M  V30 4323 H 390.353 -1.19481 4.17021 0
M  V30 4324 H 391.024 -2.69491 4.81745 0
M  V30 4325 H 393.5 -2.9734 2.91081 0
M  V30 4326 H 392.376 -4.2202 3.50985 0
M  V30 4327 H 392.637 -4.04616 1.78153 0
M  V30 4328 N 391.696 -1.35014 -0.812953 0
M  V30 4329 C 392.644 -1.27435 -1.94585 0
M  V30 4330 C 393.638 -0.170494 -1.6854 0
M  V30 4331 O 394.844 -0.336085 -1.76835 0
M  V30 4332 H 391.219 -0.396144 -0.639198 0
M  V30 4333 H 393.19 -2.23158 -1.98098 0
M  V30 4334 C 391.939 -1.05677 -3.31252 0
M  V30 4335 H 391.262 -1.89853 -3.51846 0
M  V30 4336 H 392.702 -1.04413 -4.10943 0
M  V30 4337 C 391.161 0.239615 -3.36047 0
M  V30 4338 O 391.691 1.23759 -3.8216 0
M  V30 4339 N 389.897 0.276186 -2.89285 0
M  V30 4340 H 389.444 -0.53653 -2.51951 0
M  V30 4341 H 389.402 1.14332 -2.92875 0
M  V30 4342 N 393.175 1.03435 -1.18907 0
M  V30 4343 C 394.4 1.80919 -1.01406 0
M  V30 4344 C 394.825 1.83055 0.432721 0
M  V30 4345 O 394.183 1.25252 1.31079 0
M  V30 4346 C 394.231 3.24091 -1.58105 0
M  V30 4347 O 393.335 4.04434 -0.806669 0
M  V30 4348 H 392.676 0.558709 -0.358803 0
M  V30 4349 H 395.206 1.30223 -1.57807 0
M  V30 4350 H 395.216 3.74853 -1.61087 0
M  V30 4351 H 393.891 3.21851 -2.6341 0
M  V30 4352 H 392.468 3.63091 -0.849666 0
M  V30 4353 N 394.653 0.992116 1.22453 0
M  V30 4354 C 395.883 0.684949 1.94915 0
M  V30 4355 C 396.291 -0.754292 1.73514 0
M  V30 4356 O 395.634 -1.52056 1.03076 0
M  V30 4357 C 395.696 0.910054 3.47791 0
M  V30 4358 C 395.36 2.33363 3.92926 0
M  V30 4359 C 396.357 3.31308 4.00663 0
M  V30 4360 C 394.042 2.66785 4.25595 0
M  V30 4361 C 396.036 4.6075 4.40441 0
M  V30 4362 C 393.723 3.96446 4.65053 0
M  V30 4363 C 394.721 4.9324 4.72444 0
M  V30 4364 O 394.409 6.20584 5.1101 0
M  V30 4365 H 394.141 0.25258 0.62704 0
M  V30 4366 H 396.695 1.32939 1.56577 0
M  V30 4367 H 394.925 0.208443 3.86138 0
M  V30 4368 H 396.614 0.598257 4.01467 0
M  V30 4369 H 397.38 3.0682 3.75615 0
M  V30 4370 H 393.259 1.92148 4.19047 0
M  V30 4371 H 396.803 5.363 4.46126 0
M  V30 4372 H 392.7 4.20724 4.89552 0
M  V30 4373 H 393.468 6.24509 5.29085 0
M  V30 4374 N 396.131 -1.37776 0.765217 0
M  V30 4375 C 397.061 -2.32945 0.160953 0
M  V30 4376 C 398.042 -1.55454 -0.690516 0
M  V30 4377 O 399.227 -1.83721 -0.629318 0
M  V30 4378 C 396.357 -3.39669 -0.724031 0
M  V30 4379 C 395.311 -4.27992 0.0256173 0
M  V30 4380 C 394.637 -5.25673 -0.978383 0
M  V30 4381 C 395.937 -5.08309 1.20082 0
M  V30 4382 H 397.631 -2.83728 0.955969 0
M  V30 4383 H 395.177 -1.36416 0.461149 0
M  V30 4384 H 397.13 -4.05219 -1.15652 0
M  V30 4385 H 395.854 -2.87396 -1.5515 0
M  V30 4386 H 394.513 -3.63964 0.438812 0
M  V30 4387 H 394.161 -4.69682 -1.80022 0
M  V30 4388 H 393.861 -5.85625 -0.481378 0
M  V30 4389 H 395.385 -5.94098 -1.40995 0
M  V30 4390 H 396.799 -5.67034 0.845307 0
M  V30 4391 H 395.196 -5.77554 1.62947 0
M  V30 4392 H 396.266 -4.41365 2.00811 0
M  V30 4393 N 397.609 -0.515225 -1.4894 0
M  V30 4394 C 398.855 0.0242508 -2.02785 0
M  V30 4395 C 399.188 1.35323 -1.39289 0
M  V30 4396 O 398.463 1.87041 -0.533469 0
M  V30 4397 C 398.746 0.16184 -3.59736 0
M  V30 4398 C 398.599 -1.19127 -4.33738 0
M  V30 4399 C 399.918 0.895719 -4.30888 0
M  V30 4400 H 397.037 0.00733914 -0.736963 0
M  V30 4401 H 399.679 -0.669395 -1.77818 0
M  V30 4402 H 397.829 0.752624 -3.8114 0
M  V30 4403 H 399.501 -1.82202 -4.23792 0
M  V30 4404 H 397.744 -1.77695 -3.95736 0
M  V30 4405 H 398.415 -1.04815 -5.41957 0
M  V30 4406 H 400.891 0.394528 -4.14225 0
M  V30 4407 H 399.767 0.960859 -5.40425 0
M  V30 4408 H 400.028 1.9427 -3.97129 0
M  V30 4409 N 399.087 1.5561 -0.249682 0
M  V30 4410 C 400.019 2.18834 0.681496 0
M  V30 4411 C 401.032 1.16546 1.1367 0
M  V30 4412 O 402.221 1.43397 1.06299 0
M  V30 4413 C 399.321 2.77992 1.9384 0
M  V30 4414 C 398.494 4.05725 1.63419 0
M  V30 4415 C 397.553 4.49174 2.74096 0
M  V30 4416 O 396.579 5.15492 2.41364 0
M  V30 4417 N 397.781 4.17191 4.03649 0
M  V30 4418 H 400.546 2.9937 0.140514 0
M  V30 4419 H 398.107 1.6175 -0.0697541 0
M  V30 4420 H 400.099 3.04015 2.67127 0
M  V30 4421 H 398.669 2.01596 2.38909 0
M  V30 4422 H 397.889 3.87261 0.736358 0
M  V30 4423 H 399.177 4.88999 1.40562 0
M  V30 4424 H 398.575 3.63955 4.33074 0
M  V30 4425 H 397.132 4.48043 4.73393 0
M  V30 4426 N 400.565 -0.0233959 1.57583 0
M  V30 4427 C 401.811 -0.714119 1.89811 0
M  V30 4428 C 402.144 -1.74702 0.848113 0
M  V30 4429 O 401.419 -1.94023 -0.136135 0
M  V30 4430 C 401.702 -1.37853 3.32669 0
M  V30 4431 C 401.555 -0.358764 4.48367 0
M  V30 4432 C 402.874 -2.31101 3.7454 0
M  V30 4433 H 399.993 -0.25814 0.690314 0
M  V30 4434 H 402.635 0.0230927 1.89986 0
M  V30 4435 H 400.785 -2.00689 3.3265 0
M  V30 4436 H 402.457 0.268115 4.6052 0
M  V30 4437 H 400.7 0.321387 4.32608 0
M  V30 4438 H 401.371 -0.862242 5.45224 0
M  V30 4439 H 403.847 -1.78304 3.75961 0
M  V30 4440 H 402.723 -2.74567 4.75294 0
M  V30 4441 H 402.984 -3.18018 3.0711 0
M  V30 4442 N 402.043 -1.548 -0.295768 0
M  V30 4443 C 403.273 -1.78069 -1.04762 0
M  V30 4444 C 403.681 -0.542847 -1.81245 0
M  V30 4445 O 403.024 0.497051 -1.76848 0
M  V30 4446 C 403.086 -2.93881 -2.07061 0
M  V30 4447 C 402.75 -4.31777 -1.49725 0
M  V30 4448 C 403.747 -5.11613 -0.924581 0
M  V30 4449 C 401.432 -4.78389 -1.5313 0
M  V30 4450 C 403.426 -6.36184 -0.393594 0
M  V30 4451 C 401.113 -6.02921 -0.996447 0
M  V30 4452 C 402.111 -6.81654 -0.428569 0
M  V30 4453 O 401.799 -8.0384 0.0981593 0
M  V30 4454 H 401.531 -0.597475 -0.316226 0
M  V30 4455 H 404.085 -2.02584 -0.338973 0
M  V30 4456 H 402.315 -2.65003 -2.81621 0
M  V30 4457 H 404.004 -3.04679 -2.6819 0
M  V30 4458 H 404.77 -4.76743 -0.891136 0
M  V30 4459 H 400.649 -4.17132 -1.9627 0
M  V30 4460 H 404.193 -6.97582 0.0503014 0
M  V30 4461 H 400.09 -6.37277 -1.02706 0
M  V30 4462 H 400.858 -8.18499 -0.0146455 0
M  V30 4463 N 403.521 0.559213 -1.47345 0
M  V30 4464 C 404.767 1.31614 -1.55079 0
M  V30 4465 C 405.122 1.91257 -0.209422 0
M  V30 4466 O 404.415 1.74796 0.784656 0
M  V30 4467 C 404.609 2.44853 -2.6035 0
M  V30 4468 C 404.438 1.96305 -4.04591 0
M  V30 4469 C 403.208 1.8024 -4.72061 0
M  V30 4470 C 405.406 1.50872 -4.91673 0
M  V30 4471 N 403.388 1.26011 -6.00828 0
M  V30 4472 C 404.759 1.08395 -6.10451 0
M  V30 4473 C 406.814 1.38905 -4.78132 0
M  V30 4474 C 405.517 0.551399 -7.17183 0
M  V30 4475 C 407.543 0.870518 -5.84958 0
M  V30 4476 C 406.905 0.455661 -7.02925 0
M  V30 4477 H 403.004 0.473712 -0.62219 0
M  V30 4478 H 405.588 0.634103 -1.84085 0
M  V30 4479 H 403.759 3.10589 -2.33215 0
M  V30 4480 H 405.491 3.11849 -2.57938 0
M  V30 4481 H 402.246 2.02895 -4.27937 0
M  V30 4482 H 402.67 1.00991 -6.69425 0
M  V30 4483 H 407.312 1.69591 -3.87297 0
M  V30 4484 H 405.03 0.232159 -8.07766 0
M  V30 4485 H 408.616 0.781507 -5.76527 0
M  V30 4486 H 407.496 0.0606414 -7.84177 0
M  V30 4487 N 404.999 1.35443 0.805782 0
M  V30 4488 C 406.41 1.25768 1.37983 0
M  V30 4489 C 406.761 -0.10958 1.95894 0
M  V30 4490 O 405.886 -1.01056 1.91355 0
M  V30 4491 C 406.481 2.27727 2.5085 0
M  V30 4492 C 405.04 2.2179 3.04115 0
M  V30 4493 C 404.187 2.13393 1.77084 0
M  V30 4494 H 407.138 1.4656 0.608752 0
M  V30 4495 H 407.159 1.90422 3.29424 0
M  V30 4496 H 406.671 3.27227 2.08671 0
M  V30 4497 H 404.772 1.25703 3.50756 0
M  V30 4498 H 404.885 3.13788 3.62042 0
M  V30 4499 H 403.249 1.59384 1.98668 0
M  V30 4500 H 404.032 3.14755 1.37056 0
M  V30 4501 N 406.477 -1.02803 1.19454 0
M  V30 4502 C 407.705 -1.79841 1.02297 0
M  V30 4503 C 408.12 -1.83879 -0.428259 0
M  V30 4504 O 407.477 -1.28345 -1.29745 0
M  V30 4505 C 407.528 -3.24852 1.58598 0
M  V30 4506 O 407.249 -3.21097 2.98041 0
M  V30 4507 C 408.75 -4.18485 1.46236 0
M  V30 4508 H 405.97 -0.565936 0.360496 0
M  V30 4509 H 408.514 -1.2948 1.58288 0
M  V30 4510 H 406.669 -3.72401 1.06753 0
M  V30 4511 H 407.083 -4.12033 3.24545 0
M  V30 4512 H 408.557 -5.18121 1.90407 0
M  V30 4513 H 409.034 -4.37254 0.41301 0
M  V30 4514 H 409.64 -3.76811 1.97215 0
M  V30 4515 N 407.956 -0.998596 -1.21925 0
M  V30 4516 C 409.202 -0.678667 -1.91107 0
M  V30 4517 C 409.535 0.78791 -1.77498 0
M  V30 4518 O 408.81 1.57043 -1.1475 0
M  V30 4519 C 409.093 -1.09245 -3.43129 0
M  V30 4520 C 408.946 -2.61801 -3.6576 0
M  V30 4521 C 410.265 -0.649984 -4.35274 0
M  V30 4522 H 407.384 -0.248025 -0.694012 0
M  V30 4523 H 410.026 -1.24314 -1.43688 0
M  V30 4524 H 408.176 -0.612171 -3.83647 0
M  V30 4525 H 409.848 -3.17543 -3.34611 0
M  V30 4526 H 408.091 -3.03609 -3.09845 0
M  V30 4527 H 408.762 -2.85804 -4.7225 0
M  V30 4528 H 411.238 -1.0626 -4.02303 0
M  V30 4529 H 410.114 -0.967743 -5.40302 0
M  V30 4530 H 410.375 0.449139 -4.39813 0
M  V30 4531 N 409.434 1.37368 -0.772513 0
M  V30 4532 C 410.364 2.32856 -0.173304 0
M  V30 4533 C 411.345 1.55818 0.682262 0
M  V30 4534 O 412.53 1.84052 0.619566 0
M  V30 4535 C 409.66 3.40048 0.706007 0
M  V30 4536 C 408.614 4.27973 -0.0483144 0
M  V30 4537 C 407.94 5.26184 0.950491 0
M  V30 4538 C 409.24 5.07665 -1.22776 0
M  V30 4539 H 410.934 2.83217 -0.971002 0
M  V30 4540 H 408.48 1.3617 -0.468377 0
M  V30 4541 H 410.433 4.05827 1.13501 0
M  V30 4542 H 409.157 2.88214 1.53623 0
M  V30 4543 H 407.816 3.63726 -0.458107 0
M  V30 4544 H 407.464 4.7063 1.77529 0
M  V30 4545 H 407.164 5.85872 0.450314 0
M  V30 4546 H 408.688 5.94838 1.37842 0
M  V30 4547 H 410.102 5.66578 -0.875366 0
M  V30 4548 H 408.499 5.76681 -1.66007 0
M  V30 4549 H 409.569 4.40294 -2.03149 0
M  V30 4550 N 410.912 0.523116 1.48665 0
M  V30 4551 C 412.14 -0.0096312 2.06898 0
M  V30 4552 C 412.555 -1.28784 1.38059 0
M  V30 4553 O 411.912 -1.76453 0.465893 0
M  V30 4554 C 411.963 -0.244386 3.60673 0
M  V30 4555 O 411.684 0.983172 4.26925 0
M  V30 4556 C 413.185 -0.818289 4.35682 0
M  V30 4557 H 410.405 0.0304161 0.67031 0
M  V30 4558 H 412.949 0.726799 1.91149 0
M  V30 4559 H 411.104 -0.930847 3.76051 0
M  V30 4560 H 411.518 0.759653 5.1897 0
M  V30 4561 H 412.992 -0.93201 5.44075 0
M  V30 4562 H 413.469 -1.82153 3.99646 0
M  V30 4563 H 414.075 -0.168609 4.24966 0
M  V30 4564 N 412.39 -1.55475 0.257931 0
M  V30 4565 C 413.618 -2.03609 -0.367559 0
M  V30 4566 C 414.033 -1.13687 -1.50734 0
M  V30 4567 O 413.39 -0.153479 -1.81853 0
M  V30 4568 C 413.441 -3.51001 -0.864908 0
M  V30 4569 O 413.162 -4.37499 0.229465 0
M  V30 4570 C 414.663 -4.14946 -1.55997 0
M  V30 4571 H 411.883 -0.665459 -0.0860521 0
M  V30 4572 H 414.427 -2.00843 0.385014 0
M  V30 4573 H 412.582 -3.54266 -1.56762 0
M  V30 4574 H 412.996 -5.24286 -0.14998 0
M  V30 4575 H 414.47 -5.19735 -1.85956 0
M  V30 4576 H 414.947 -3.6209 -2.4857 0
M  V30 4577 H 415.553 -4.15635 -0.901543 0
M  V30 4578 N 413.868 0.0150385 -1.57593 0
M  V30 4579 C 415.117 0.702115 -1.89085 0
M  V30 4580 C 415.43 1.75764 -0.858277 0
M  V30 4581 O 416.636 2.49829 -1.0629 0
M  V30 4582 C 415.092 1.29992 -3.35604 0
M  V30 4583 C 414.7 0.280007 -4.47124 0
M  V30 4584 C 416.444 1.96606 -3.76227 0
M  V30 4585 C 414.351 0.886949 -5.84711 0
M  V30 4586 H 413.281 0.265997 -0.705522 0
M  V30 4587 H 415.932 -0.0430408 -1.8345 0
M  V30 4588 H 414.314 2.09525 -3.36029 0
M  V30 4589 H 415.488 -0.489631 -4.58191 0
M  V30 4590 H 413.803 -0.284835 -4.15425 0
M  V30 4591 H 416.4 2.42893 -4.76347 0
M  V30 4592 H 416.743 2.79024 -3.08952 0
M  V30 4593 H 417.276 1.23828 -3.78036 0
M  V30 4594 H 414.015 0.101876 -6.55421 0
M  V30 4595 H 413.535 1.6261 -5.77337 0
M  V30 4596 H 415.214 1.39011 -6.3189 0
M  V30 4597 N 415.346 1.54954 0.287554 0
M  V30 4598 C 416.574 1.78881 1.03967 0
M  V30 4599 C 416.989 0.554894 1.80462 0
M  V30 4600 O 416.346 -0.475676 1.76192 0
M  V30 4601 C 416.397 3.00488 2.0097 0
M  V30 4602 O 416.118 4.19113 1.27577 0
M  V30 4603 C 417.619 3.36907 2.88112 0
M  V30 4604 H 414.839 0.596259 0.307761 0
M  V30 4605 H 417.383 2.01937 0.322749 0
M  V30 4606 H 415.538 2.79601 2.68145 0
M  V30 4607 H 415.952 4.87765 1.92835 0
M  V30 4608 H 417.426 4.25205 3.52001 0
M  V30 4609 H 417.903 2.55659 3.57121 0
M  V30 4610 H 418.509 3.60001 2.26449 0
M  V30 4611 N 416.824 -0.551391 1.4764 0
M  V30 4612 C 418.049 -1.33837 1.58437 0
M  V30 4613 C 418.474 -1.866 0.237063 0
M  V30 4614 O 417.832 -1.6328 -0.787994 0
M  V30 4615 C 417.88 -2.48014 2.61766 0
M  V30 4616 O 416.984 -3.50419 2.1744 0
M  V30 4617 H 416.325 -0.397299 0.532024 0
M  V30 4618 H 418.855 -0.665759 1.93465 0
M  V30 4619 H 418.865 -2.94503 2.82369 0
M  V30 4620 H 417.54 -2.08969 3.5959 0
M  V30 4621 H 416.117 -3.10196 2.06961 0
M  V30 4622 N 418.302 -1.35869 -0.798587 0
M  V30 4623 C 419.548 -1.30788 -1.55775 0
M  V30 4624 C 419.903 0.114558 -1.92059 0
M  V30 4625 O 419.196 1.06691 -1.59147 0
M  V30 4626 C 419.39 -2.1556 -2.85077 0
M  V30 4627 C 419.219 -3.65904 -2.61428 0
M  V30 4628 C 417.989 -4.35112 -2.56915 0
M  V30 4629 C 420.187 -4.59375 -2.31255 0
M  V30 4630 N 418.169 -5.71155 -2.25068 0
M  V30 4631 C 419.54 -5.83598 -2.09316 0
M  V30 4632 C 421.595 -4.48035 -2.17185 0
M  V30 4633 C 420.298 -6.97755 -1.74731 0
M  V30 4634 C 422.324 -5.62049 -1.83998 0
M  V30 4635 C 421.686 -6.85305 -1.629 0
M  V30 4636 H 417.785 -0.533855 -0.571422 0
M  V30 4637 H 420.369 -1.7083 -0.934079 0
M  V30 4638 H 418.54 -1.77776 -3.45326 0
M  V30 4639 H 420.272 -2.01938 -3.50718 0
M  V30 4640 H 417.027 -3.87812 -2.71843 0
M  V30 4641 H 417.451 -6.42978 -2.11916 0
M  V30 4642 H 422.093 -3.53338 -2.3219 0
M  V30 4643 H 419.811 -7.92411 -1.58464 0
M  V30 4644 H 423.397 -5.55232 -1.73808 0
M  V30 4645 H 422.277 -7.72034 -1.37596 0
M  V30 4646 N 419.78 1.02168 -1.19998 0
M  V30 4647 C 421.029 1.75091 -1.0013 0
M  V30 4648 C 421.342 1.89923 0.467835 0
M  V30 4649 O 422.548 2.59888 0.785515 0
M  V30 4650 C 421.004 3.14892 -1.74273 0
M  V30 4651 C 420.612 3.0809 -3.25245 0
M  V30 4652 C 422.356 3.9206 -1.62755 0
M  V30 4653 C 420.263 4.42867 -3.91948 0
M  V30 4654 H 419.193 0.656394 -0.37103 0
M  V30 4655 H 421.844 1.14284 -1.43567 0
M  V30 4656 H 420.226 3.7621 -1.2362 0
M  V30 4657 H 421.4 2.5611 -3.83072 0
M  V30 4658 H 419.715 2.44416 -3.3712 0
M  V30 4659 H 422.312 4.91764 -2.09934 0
M  V30 4660 H 422.655 4.12199 -0.582894 0
M  V30 4661 H 423.188 3.37359 -2.10793 0
M  V30 4662 H 419.927 4.27931 -4.96543 0
M  V30 4663 H 419.447 4.94874 -3.3891 0
M  V30 4664 H 421.126 5.11728 -3.95909 0
M  V30 4665 N 421.258 1.00505 1.21394 0
M  V30 4666 C 422.483 0.706367 1.95001 0
M  V30 4667 C 422.908 -0.72463 1.73582 0
M  V30 4668 O 422.266 -1.49702 1.0227 0
M  V30 4669 C 422.314 1.03299 3.45487 0
M  V30 4670 O 421.418 0.138275 4.12168 0
M  V30 4671 H 420.759 0.263175 0.609619 0
M  V30 4672 H 423.289 1.34531 1.54151 0
M  V30 4673 H 423.299 0.979872 3.96059 0
M  V30 4674 H 421.974 2.07567 3.60401 0
M  V30 4675 H 420.551 0.247928 3.72075 0
M  V30 4676 N 422.737 -1.36956 0.779787 0
M  V30 4677 C 423.984 -1.99491 0.347766 0
M  V30 4678 C 424.312 -1.61898 -1.07793 0
M  V30 4679 O 423.567 -0.86071 -1.75756 0
M  V30 4680 C 423.866 -3.54585 0.447686 0
M  V30 4681 C 423.532 -4.1197 1.83279 0
M  V30 4682 C 422.194 -4.27356 2.2118 0
M  V30 4683 C 424.546 -4.43354 2.74019 0
M  V30 4684 C 421.874 -4.71432 3.4924 0
M  V30 4685 C 424.226 -4.88858 4.01497 0
M  V30 4686 C 422.89 -5.0245 4.39432 0
M  V30 4687 H 422.16 -0.729991 0.127257 0
M  V30 4688 H 424.807 -1.63599 0.995376 0
M  V30 4689 H 423.112 -3.90773 -0.283447 0
M  V30 4690 H 424.809 -4.00888 0.0945948 0
M  V30 4691 H 421.399 -4.00428 1.52825 0
M  V30 4692 H 425.583 -4.31045 2.45995 0
M  V30 4693 H 420.839 -4.80141 3.78516 0
M  V30 4694 H 425.013 -5.12108 4.71931 0
M  V30 4695 H 422.64 -5.36362 5.38721 0
M  V30 4696 N 424.215 -0.530993 -1.48385 0
M  V30 4697 C 425.461 -0.00538653 -2.03399 0
M  V30 4698 C 425.816 1.31899 -1.40073 0
M  V30 4699 O 425.109 1.83901 -0.537676 0
M  V30 4700 C 425.303 0.172742 -3.56982 0
M  V30 4701 C 425.132 -1.13282 -4.35198 0
M  V30 4702 C 423.902 -1.69296 -4.76096 0
M  V30 4703 C 426.1 -2.04367 -4.71952 0
M  V30 4704 N 424.082 -2.9413 -5.38851 0
M  V30 4705 C 425.453 -3.13777 -5.34737 0
M  V30 4706 C 427.508 -2.04681 -4.53883 0
M  V30 4707 C 426.211 -4.23567 -5.81363 0
M  V30 4708 C 428.237 -3.13466 -5.01491 0
M  V30 4709 C 427.599 -4.21595 -5.64302 0
M  V30 4710 H 423.698 -0.0434945 -0.780789 0
M  V30 4711 H 426.282 -0.712495 -1.81195 0
M  V30 4712 H 424.453 0.848937 -3.79009 0
M  V30 4713 H 426.185 0.698046 -3.98634 0
M  V30 4714 H 422.94 -1.23422 -4.57235 0
M  V30 4715 H 423.364 -3.57689 -5.74794 0
M  V30 4716 H 428.006 -1.22378 -4.04702 0
M  V30 4717 H 425.724 -5.06648 -6.2955 0
M  V30 4718 H 429.31 -3.14765 -4.893 0
M  V30 4719 H 428.19 -5.04384 -6.00472 0
M  V30 4720 N 425.693 1.55336 -0.266172 0
M  V30 4721 C 426.626 2.18256 0.666296 0
M  V30 4722 C 427.604 1.14064 1.1588 0
M  V30 4723 O 428.788 1.42546 1.23341 0
M  V30 4724 C 425.915 2.79867 1.90768 0
M  V30 4725 C 424.961 3.97283 1.55141 0
M  V30 4726 S 425.794 5.31694 0.637313 0
M  V30 4727 C 426.95 5.96769 1.88727 0
M  V30 4728 H 427.183 2.97008 0.131647 0
M  V30 4729 H 424.716 1.54317 -0.0504869 0
M  V30 4730 H 426.674 3.15996 2.62025 0
M  V30 4731 H 425.335 2.01025 2.41346 0
M  V30 4732 H 424.528 4.3905 2.4749 0
M  V30 4733 H 424.13 3.6253 0.919113 0
M  V30 4734 H 426.422 6.15458 2.83227 0
M  V30 4735 H 427.365 6.91752 1.51276 0
M  V30 4736 H 427.773 5.26034 2.04814 0
M  V30 4737 N 427.171 -0.0066808 1.57599 0
M  V30 4738 C 428.119 -1.01851 2.09115 0
M  V30 4739 C 429.113 -1.36021 1.00969 0
M  V30 4740 O 430.319 -1.34663 1.19439 0
M  V30 4741 H 426.694 -0.346083 0.667631 0
M  V30 4742 H 428.665 -0.558394 2.93129 0
M  V30 4743 C 427.414 -2.30374 2.60429 0
M  V30 4744 H 426.737 -2.04947 3.43273 0
M  V30 4745 H 428.177 -2.99466 3.00161 0
M  V30 4746 C 426.636 -3.00893 1.51542 0
M  V30 4747 O 427.166 -3.91614 0.894484 0
M  V30 4748 N 425.372 -2.62603 1.2445 0
M  V30 4749 H 424.919 -1.88911 1.75129 0
M  V30 4750 H 424.877 -3.10101 0.518137 0
M  V30 4751 N 428.649 -1.55105 -0.279332 0
M  V30 4752 C 429.879 -1.7917 -1.02867 0
M  V30 4753 C 430.287 -0.56204 -1.80659 0
M  V30 4754 O 429.63 0.478266 -1.77365 0
M  V30 4755 C 429.692 -2.96061 -2.03932 0
M  V30 4756 C 429.356 -4.33341 -1.45137 0
M  V30 4757 C 430.353 -5.12565 -0.870266 0
M  V30 4758 C 428.038 -4.79987 -1.48048 0
M  V30 4759 C 430.032 -6.36565 -0.326097 0
M  V30 4760 C 427.719 -6.03944 -0.932443 0
M  V30 4761 C 428.717 -6.8207 -0.356247 0
M  V30 4762 O 428.405 -8.03691 0.183412 0
M  V30 4763 H 428.137 -0.600796 -0.309872 0
M  V30 4764 H 430.691 -2.02932 -0.317468 0
M  V30 4765 H 428.921 -2.67975 -2.78794 0
M  V30 4766 H 430.61 -3.07506 -2.64943 0
M  V30 4767 H 431.376 -4.77661 -0.840521 0
M  V30 4768 H 427.255 -4.1919 -1.91835 0
M  V30 4769 H 430.799 -6.97489 0.124286 0
M  V30 4770 H 426.696 -6.3833 -0.959407 0
M  V30 4771 H 427.464 -8.18468 0.0721681 0
M  V30 4772 N 430.127 0.543554 -1.4793 0
M  V30 4773 C 431.404 1.30458 -1.4574 0
M  V30 4774 C 431.784 2.1048 -0.161692 0
M  V30 4775 O 431.132 2.11831 0.856734 0
M  V30 4776 C 431.342 2.19754 -2.71126 0
M  V30 4777 C 432.69 2.80334 -3.18901 0
M  V30 4778 O 433.714 2.30049 -2.71948 0
M  V30 4779 O 432.573 3.71766 -4.00565 0
M  V30 4780 H 429.667 0.588117 -0.581418 0
M  V30 4781 H 432.213 0.561328 -1.60147 0
M  V30 4782 H 430.985 1.60316 -3.56952 0
M  V30 4783 H 430.608 3.01351 -2.59371 0
M  V30 4784 N 431.605 1.3629 0.791371 0
M  V30 4785 C 432.83 1.33726 1.58531 0
M  V30 4786 C 433.255 -0.0794933 1.87932 0
M  V30 4787 O 432.613 -1.05087 1.47738 0
M  V30 4788 C 432.661 2.16425 2.88431 0
M  V30 4789 O 431.765 1.5554 3.81944 0
M  V30 4790 H 431.106 0.457793 0.480959 0
M  V30 4791 H 433.636 1.79547 0.981031 0
M  V30 4792 H 433.646 2.28933 3.37718 0
M  V30 4793 H 432.321 3.19415 2.66359 0
M  V30 4794 H 430.898 1.51961 3.40532 0
M  V30 4795 N 433.083 -1.0153 1.20538 0
M  V30 4796 C 434.308 -1.79283 1.04271 0
M  V30 4797 C 434.733 -1.8372 -0.403544 0
M  V30 4798 O 434.091 -1.27321 -1.2907 0
M  V30 4799 C 434.139 -3.21535 1.63241 0
M  V30 4800 O 433.243 -4.03099 0.870908 0
M  V30 4801 H 432.584 -0.55293 0.367647 0
M  V30 4802 H 435.114 -1.27696 1.59859 0
M  V30 4803 H 435.124 -3.72243 1.6703 0
M  V30 4804 H 433.799 -3.1762 2.68497 0
M  V30 4805 H 432.376 -3.61693 0.907323 0
M  V30 4806 N 434.561 -1.01147 -1.20859 0
M  V30 4807 C 435.524 -0.582224 -2.21682 0
M  V30 4808 C 436.524 0.344887 -1.57058 0
M  V30 4809 O 437.714 0.134281 -1.73682 0
M  V30 4810 C 434.846 0.150496 -3.40568 0
M  V30 4811 H 436.039 -1.47408 -2.61172 0
M  V30 4812 H 433.592 -0.800695 -1.34233 0
M  V30 4813 H 434.327 1.0575 -3.06574 0
M  V30 4814 H 434.112 -0.515444 -3.88697 0
M  V30 4815 H 435.602 0.438344 -4.15293 0
M  V30 4816 N 436.039 1.36541 -0.78704 0
M  V30 4817 C 437.002 2.28413 -0.189778 0
M  V30 4818 C 438.002 1.48719 0.611499 0
M  V30 4819 O 439.192 1.68737 0.432842 0
M  V30 4820 C 436.324 3.32824 0.737638 0
M  V30 4821 H 437.517 2.82743 -0.999831 0
M  V30 4822 H 435.07 1.46065 -0.556298 0
M  V30 4823 H 435.805 2.83646 1.57212 0
M  V30 4824 H 435.59 3.91752 0.165044 0
M  V30 4825 H 437.08 4.0144 1.15047 0
M  V30 4826 N 437.518 0.538854 1.48102 0
M  V30 4827 C 438.934 0.19732 1.58376 0
M  V30 4828 C 439.134 -1.29971 1.5398 0
M  V30 4829 O 438.19 -2.07861 1.43352 0
M  V30 4830 C 439.503 0.807716 2.89649 0
M  V30 4831 C 441.051 0.77726 3.03196 0
M  V30 4832 C 441.526 1.36639 4.37143 0
M  V30 4833 N 443.017 1.32875 4.43732 0
M  V30 4834 C 443.752 1.7544 5.45901 0
M  V30 4835 N 443.248 2.25776 6.54979 0
M  V30 4836 N 445.041 1.66623 5.36836 0
M  V30 4837 H 437.192 1.5117 1.49202 0
M  V30 4838 H 439.455 0.629327 0.708979 0
M  V30 4839 H 439.161 1.85909 2.98548 0
M  V30 4840 H 439.035 0.289975 3.76084 0
M  V30 4841 H 441.422 -0.265374 2.93904 0
M  V30 4842 H 441.503 1.33256 2.18349 0
M  V30 4843 H 441.147 2.408 4.47189 0
M  V30 4844 H 441.077 0.786689 5.20691 0
M  V30 4845 H 443.568 0.96037 3.65493 0
M  V30 4846 H 443.881 2.56226 7.29087 0
M  V30 4847 H 442.226 2.29775 6.55918 0
M  V30 4848 H 445.417 1.27089 4.50517 0
M  V30 4849 H 445.59 2.00115 6.16326 0
M  V30 4850 N 438.996 -1.55193 0.274407 0
M  V30 4851 C 440.242 -1.99877 -0.343086 0
M  V30 4852 C 440.575 -1.16256 -1.55558 0
M  V30 4853 O 439.85 -0.232462 -1.93106 0
M  V30 4854 C 440.133 -3.52706 -0.725965 0
M  V30 4855 C 439.986 -4.47081 0.493818 0
M  V30 4856 C 441.305 -4.11422 -1.56268 0
M  V30 4857 H 438.424 -0.726625 -0.123229 0
M  V30 4858 H 441.066 -1.86136 0.38121 0
M  V30 4859 H 439.216 -3.64546 -1.34307 0
M  V30 4860 H 440.888 -4.47186 1.13237 0
M  V30 4861 H 439.131 -4.1877 1.13201 0
M  V30 4862 H 439.802 -5.51699 0.18217 0
M  V30 4863 H 442.278 -4.02855 -1.04151 0
M  V30 4864 H 441.154 -5.18568 -1.79939 0
M  V30 4865 H 441.415 -3.61607 -2.54348 0
M  V30 4866 N 440.474 -0.00167713 -1.576 0
M  V30 4867 C 441.702 0.693759 -1.94922 0
M  V30 4868 C 442.117 1.67215 -0.876626 0
M  V30 4869 O 441.474 1.81929 0.144279 0
M  V30 4870 C 441.525 1.42416 -3.32265 0
M  V30 4871 O 441.246 0.485014 -4.35407 0
M  V30 4872 C 442.747 2.21395 -3.84056 0
M  V30 4873 H 439.967 0.193118 -0.642609 0
M  V30 4874 H 442.511 -0.0532952 -2.04431 0
M  V30 4875 H 440.666 2.12284 -3.24059 0
M  V30 4876 H 441.08 1.00053 -5.14868 0
M  V30 4877 H 442.554 2.67996 -4.82578 0
M  V30 4878 H 443.031 3.04142 -3.16851 0
M  V30 4879 H 443.637 1.56542 -3.95443 0
M  V30 4880 N 441.952 1.55251 0.271103 0
M  V30 4881 C 443.201 1.75151 1.00025 0
M  V30 4882 C 443.514 0.561041 1.87381 0
M  V30 4883 O 444.72 0.642506 2.63788 0
M  V30 4884 C 443.176 3.09999 1.82835 0
M  V30 4885 C 442.784 4.3662 1.00336 0
M  V30 4886 C 444.528 3.39249 2.55168 0
M  V30 4887 C 442.435 5.62506 1.82595 0
M  V30 4888 H 441.365 0.652877 0.377183 0
M  V30 4889 H 444.016 1.81708 0.255843 0
M  V30 4890 H 442.398 2.97485 2.61378 0
M  V30 4891 H 443.572 4.60055 0.261959 0
M  V30 4892 H 441.887 4.14527 0.394486 0
M  V30 4893 H 444.484 4.3051 3.1712 0
M  V30 4894 H 444.827 2.59467 3.2555 0
M  V30 4895 H 445.36 3.52869 1.83653 0
M  V30 4896 H 442.099 6.45041 1.16631 0
M  V30 4897 H 441.619 5.43211 2.54327 0
M  V30 4898 H 443.298 6.00875 2.39913 0
M  V30 4899 N 443.43 -0.535701 1.48216 0
M  V30 4900 C 444.678 -1.28928 1.55634 0
M  V30 4901 C 444.999 -1.93645 0.229514 0
M  V30 4902 O 444.269 -1.81038 -0.74846 0
M  V30 4903 H 442.849 -0.47884 0.573342 0
M  V30 4904 H 445.511 -0.623853 1.84646 0
M  V30 4905 H 444.607 -2.07157 2.33436 0
M  V30 4906 N 444.908 -1.36708 -0.784132 0
M  V30 4907 C 445.838 -1.34153 -1.91116 0
M  V30 4908 C 446.819 -0.212121 -1.68772 0
M  V30 4909 O 448.004 -0.410581 -1.8981 0
M  V30 4910 C 445.134 -1.13535 -3.28218 0
M  V30 4911 C 444.088 -2.23356 -3.65097 0
M  V30 4912 C 443.414 -1.87875 -5.00607 0
M  V30 4913 C 444.714 -3.65473 -3.73131 0
M  V30 4914 H 446.408 -2.28459 -1.93512 0
M  V30 4915 H 443.954 -1.09973 -0.929618 0
M  V30 4916 H 445.907 -1.10381 -4.06687 0
M  V30 4917 H 444.631 -0.156804 -3.26223 0
M  V30 4918 H 443.29 -2.25645 -2.88929 0
M  V30 4919 H 442.938 -0.885814 -4.95139 0
M  V30 4920 H 442.638 -2.61406 -5.26252 0
M  V30 4921 H 444.162 -1.86286 -5.81489 0
M  V30 4922 H 445.576 -3.65382 -4.41779 0
M  V30 4923 H 443.973 -4.37953 -4.10265 0
M  V30 4924 H 445.043 -3.99995 -2.74102 0
M  V30 4925 N 446.386 1.0089 -1.21074 0
M  V30 4926 C 447.614 1.78191 -1.05145 0
M  V30 4927 C 448.029 1.84537 0.398952 0
M  V30 4928 O 447.386 1.30393 1.27687 0
M  V30 4929 C 447.437 3.22288 -1.63746 0
M  V30 4930 O 447.158 3.16315 -3.03111 0
M  V30 4931 C 448.659 4.16106 -1.52875 0
M  V30 4932 H 445.879 0.560129 -0.369454 0
M  V30 4933 H 448.423 1.26945 -1.60328 0
M  V30 4934 H 446.578 3.70655 -1.12664 0
M  V30 4935 H 446.992 4.06817 -3.31059 0
M  V30 4936 H 448.466 5.15026 -1.98626 0
M  V30 4937 H 448.943 4.36541 -0.482521 0
M  V30 4938 H 449.549 3.73625 -2.03185 0
M  V30 4939 N 447.864 1.01787 1.20321 0
M  V30 4940 C 449.089 0.727009 1.9424 0
M  V30 4941 C 449.514 -0.706179 1.74341 0
M  V30 4942 O 448.872 -1.48609 1.03852 0
M  V30 4943 C 448.92 1.06958 3.44372 0
M  V30 4944 O 448.024 0.181983 4.11998 0
M  V30 4945 H 447.365 0.269626 0.606793 0
M  V30 4946 H 449.895 1.36158 1.52716 0
M  V30 4947 H 449.905 1.02182 3.94997 0
M  V30 4948 H 448.58 2.11378 3.58179 0
M  V30 4949 H 447.157 0.287378 3.71791 0
M  V30 4950 N 449.342 -1.36122 0.79427 0
M  V30 4951 C 450.275 -2.27759 0.141845 0
M  V30 4952 C 451.253 -1.47471 -0.684921 0
M  V30 4953 O 452.437 -1.76759 -0.654857 0
M  V30 4954 C 449.564 -3.29008 -0.804446 0
M  V30 4955 C 448.61 -4.26459 -0.0588617 0
M  V30 4956 S 449.443 -5.20253 1.26873 0
M  V30 4957 C 450.599 -6.25048 0.326562 0
M  V30 4958 H 450.832 -2.82746 0.918818 0
M  V30 4959 H 448.365 -1.42736 0.588722 0
M  V30 4960 H 450.323 -3.87842 -1.34495 0
M  V30 4961 H 448.984 -2.72924 -1.5547 0
M  V30 4962 H 448.177 -4.97973 -0.777087 0
M  V30 4963 H 447.779 -3.71731 0.411309 0
M  V30 4964 H 450.071 -6.75705 -0.492795 0
M  V30 4965 H 451.014 -7.00852 1.01053 0
M  V30 4966 H 451.422 -5.64454 -0.0722627 0
M  V30 4967 N 450.82 -0.546701 -1.47814 0
M  V30 4968 C 451.75 0.195317 -2.32682 0
M  V30 4969 C 452.731 0.918981 -1.43139 0
M  V30 4970 O 453.916 0.901501 -1.72008 0
M  V30 4971 C 451.046 1.23237 -3.247 0
M  V30 4972 C 450 0.625818 -4.234 0
M  V30 4973 C 449.326 1.76674 -5.04669 0
M  V30 4974 C 450.626 -0.413515 -5.2066 0
M  V30 4975 H 452.32 -0.513184 -2.94969 0
M  V30 4976 H 449.866 -0.248241 -1.41844 0
M  V30 4977 H 451.819 1.75955 -3.82907 0
M  V30 4978 H 450.543 1.97067 -2.60446 0
M  V30 4979 H 449.202 0.120023 -3.66403 0
M  V30 4980 H 448.85 2.49383 -4.36826 0
M  V30 4981 H 448.55 1.36673 -5.71484 0
M  V30 4982 H 450.074 2.29738 -5.65732 0
M  V30 4983 H 451.488 0.0272042 -5.73294 0
M  V30 4984 H 449.885 -0.731825 -5.95621 0
M  V30 4985 H 450.955 -1.31325 -4.66778 0
M  V30 4986 N 452.299 1.55045 -0.282633 0
M  V30 4987 C 453.548 1.98938 0.332667 0
M  V30 4988 C 453.861 1.17455 1.56409 0
M  V30 4989 O 455.067 1.51527 2.25282 0
M  V30 4990 C 453.523 3.54105 0.643226 0
M  V30 4991 C 453.131 4.44374 -0.568814 0
M  V30 4992 C 454.875 4.06569 1.22074 0
M  V30 4993 C 452.782 5.90943 -0.232426 0
M  V30 4994 H 451.712 0.743043 0.128075 0
M  V30 4995 H 454.363 1.79341 -0.388464 0
M  V30 4996 H 452.745 3.69532 1.42346 0
M  V30 4997 H 453.919 4.40718 -1.34551 0
M  V30 4998 H 452.234 4.02585 -1.06369 0
M  V30 4999 H 454.831 5.13626 1.48635 0
M  V30 5000 H 455.174 3.56057 2.15707 0
M  V30 5001 H 455.707 3.94612 0.502621 0
M  V30 5002 H 452.446 6.45567 -1.13683 0
M  V30 5003 H 451.966 5.9765 0.507357 0
M  V30 5004 H 453.645 6.4677 0.172657 0
M  V30 5005 N 453.777 0.010035 1.57597 0
M  V30 5006 C 454.707 -0.976857 2.12084 0
M  V30 5007 C 455.688 -1.35191 1.03235 0
M  V30 5008 O 456.873 -1.43389 1.3097 0
M  V30 5009 C 454.003 -2.26548 2.63236 0
M  V30 5010 C 452.957 -2.03175 3.76701 0
M  V30 5011 C 452.283 -3.38138 4.14206 0
M  V30 5012 C 453.583 -1.38625 5.03568 0
M  V30 5013 H 455.277 -0.523145 2.94794 0
M  V30 5014 H 452.823 -0.250195 1.4181 0
M  V30 5015 H 454.776 -2.95952 2.99984 0
M  V30 5016 H 453.5 -2.74051 1.77661 0
M  V30 5017 H 452.159 -1.36195 3.40362 0
M  V30 5018 H 451.807 -3.83363 3.25641 0
M  V30 5019 H 451.507 -3.23312 4.90656 0
M  V30 5020 H 453.031 -4.08841 4.53521 0
M  V30 5021 H 454.445 -1.98 5.38023 0
M  V30 5022 H 452.842 -1.34256 5.84889 0
M  V30 5023 H 453.912 -0.356722 4.83586 0
M  V30 5024 N 455.255 -1.55392 -0.262866 0
M  V30 5025 C 456.483 -1.80513 -1.01108 0
M  V30 5026 C 456.898 -0.583533 -1.79556 0
M  V30 5027 O 456.255 0.447585 -1.76926 0
M  V30 5028 C 456.306 -3.03648 -1.96164 0
M  V30 5029 O 456.027 -4.2109 -1.20893 0
M  V30 5030 C 457.528 -3.41448 -2.82715 0
M  V30 5031 H 454.748 -0.601079 -0.298236 0
M  V30 5032 H 457.292 -2.02425 -0.290582 0
M  V30 5033 H 455.447 -2.83832 -2.63663 0
M  V30 5034 H 455.861 -4.90771 -1.85051 0
M  V30 5035 H 457.335 -4.30751 -3.45192 0
M  V30 5036 H 457.812 -2.61308 -3.53008 0
M  V30 5037 H 458.418 -3.63559 -2.20693 0
M  V30 5038 N 456.733 0.527833 -1.48498 0
M  V30 5039 C 457.961 1.30823 -1.6029 0
M  V30 5040 C 458.376 1.86945 -0.263974 0
M  V30 5041 O 457.733 1.6651 0.747034 0
M  V30 5042 C 457.784 2.45756 -2.65116 0
M  V30 5043 O 457.505 1.91946 -3.93813 0
M  V30 5044 C 459.006 3.37543 -2.87367 0
M  V30 5045 H 456.226 0.397763 -0.540394 0
M  V30 5046 H 458.77 0.636529 -1.94341 0
M  V30 5047 H 456.925 3.08806 -2.33917 0
M  V30 5048 H 457.339 2.67195 -4.51339 0
M  V30 5049 H 458.813 4.14532 -3.6451 0
M  V30 5050 H 459.29 3.92905 -1.9627 0
M  V30 5051 H 459.896 2.80283 -3.19878 0
M  V30 5052 N 458.211 1.37122 0.776871 0
M  V30 5053 C 459.46 1.31373 1.53049 0
M  V30 5054 C 459.773 -0.101016 1.95339 0
M  V30 5055 O 460.979 -0.280953 2.70042 0
M  V30 5056 C 459.435 2.30567 2.76346 0
M  V30 5057 C 459.043 3.77543 2.41175 0
M  V30 5058 C 460.787 2.33818 3.54301 0
M  V30 5059 C 458.694 4.68481 3.60943 0
M  V30 5060 H 457.624 0.488234 0.574581 0
M  V30 5061 H 460.275 1.62554 0.851372 0
M  V30 5062 H 458.657 1.92396 3.46121 0
M  V30 5063 H 459.831 4.24521 1.79216 0
M  V30 5064 H 458.146 3.77187 1.76405 0
M  V30 5065 H 460.743 2.98965 4.4331 0
M  V30 5066 H 461.086 1.3503 3.93793 0
M  V30 5067 H 461.619 2.7067 2.91518 0
M  V30 5068 H 458.358 5.68378 3.26537 0
M  V30 5069 H 457.878 4.2621 4.22025 0
M  V30 5070 H 459.557 4.85366 4.27819 0
M  V30 5071 N 459.689 -1.00246 1.21608 0
M  V30 5072 C 460.966 -1.71336 0.943568 0
M  V30 5073 C 461.346 -2.03972 -0.543943 0
M  V30 5074 O 460.694 -1.71545 -1.50946 0
M  V30 5075 C 460.904 -2.97094 1.83128 0
M  V30 5076 C 462.252 -3.70071 2.08165 0
M  V30 5077 O 463.276 -3.07081 1.80498 0
M  V30 5078 O 462.135 -4.83376 2.54971 0
M  V30 5079 H 459.229 -0.747386 0.354039 0
M  V30 5080 H 461.775 -1.05967 1.32549 0
M  V30 5081 H 460.547 -2.69407 2.83788 0
M  V30 5082 H 460.17 -3.70204 1.45034 0
M  V30 5083 N 461.167 -1.02423 -1.1978 0
M  V30 5084 C 462.392 -0.7373 -1.93852 0
M  V30 5085 C 462.817 0.696923 -1.74713 0
M  V30 5086 O 462.175 1.48056 -1.04638 0
M  V30 5087 C 462.223 -1.08783 -3.438 0
M  V30 5088 O 461.327 -0.20383 -4.11896 0
M  V30 5089 H 460.668 -0.27284 -0.605355 0
M  V30 5090 H 463.198 -1.36966 -1.51992 0
M  V30 5091 H 463.208 -1.04276 -3.9445 0
M  V30 5092 H 461.883 -2.13274 -3.57053 0
M  V30 5093 H 460.46 -0.307091 -3.71633 0
M  V30 5094 N 462.645 1.35699 -0.801477 0
M  V30 5095 C 463.595 2.2728 -0.181073 0
M  V30 5096 C 464.579 1.47533 0.642098 0
M  V30 5097 O 465.771 1.69785 0.500193 0
M  V30 5098 C 462.9 3.36626 0.673612 0
M  V30 5099 C 461.986 4.23802 -0.159008 0
M  V30 5100 N 462.377 4.90879 -1.2195 0
M  V30 5101 C 460.675 4.45959 0.0602005 0
M  V30 5102 C 461.376 5.5546 -1.72738 0
M  V30 5103 N 460.352 5.33663 -1.03465 0
M  V30 5104 H 464.154 2.76632 -0.992582 0
M  V30 5105 H 461.668 1.49166 -0.642127 0
M  V30 5106 H 463.665 4.01179 1.13408 0
M  V30 5107 H 462.325 2.88828 1.48353 0
M  V30 5108 H 463.336 4.92497 -1.60209 0
M  V30 5109 H 460.013 4.08969 0.839664 0
M  V30 5110 H 461.403 6.18991 -2.61342 0
M  V30 5111 N 464.123 0.554532 1.47522 0
M  V30 5112 C 465.053 -0.182974 2.32782 0
M  V30 5113 C 466.034 -0.911377 1.43624 0
M  V30 5114 O 467.219 -0.892366 1.72483 0
M  V30 5115 C 464.349 -1.21513 3.25349 0
M  V30 5116 C 463.303 -0.603355 4.23726 0
M  V30 5117 C 462.629 -1.73995 5.05598 0
M  V30 5118 C 463.929 0.441121 5.20434 0
M  V30 5119 H 465.623 0.52882 2.94693 0
M  V30 5120 H 463.169 0.255759 1.41711 0
M  V30 5121 H 465.122 -1.73922 3.83835 0
M  V30 5122 H 463.846 -1.95683 2.61487 0
M  V30 5123 H 462.505 -0.10059 3.66462 0
M  V30 5124 H 462.153 -2.47063 4.38143 0
M  V30 5125 H 461.853 -1.3364 5.72201 0
M  V30 5126 H 463.377 -2.26735 5.66942 0
M  V30 5127 H 464.791 0.00319931 5.733 0
M  V30 5128 H 463.188 0.763402 5.95224 0
M  V30 5129 H 464.258 1.33799 4.66075 0
M  V30 5130 N 465.601 -1.54893 0.290851 0
M  V30 5131 C 467.017 -1.59476 -0.0628432 0
M  V30 5132 C 467.217 -1.30795 -1.5328 0
M  V30 5133 O 466.273 -1.07644 -2.28406 0
M  V30 5134 C 467.586 -2.98928 0.325962 0
M  V30 5135 C 469.134 -3.11799 0.273882 0
M  V30 5136 C 469.609 -4.53544 0.637359 0
M  V30 5137 N 471.1 -4.59433 0.589507 0
M  V30 5138 C 471.835 -5.67164 0.84335 0
M  V30 5139 N 471.331 -6.82975 1.16263 0
M  V30 5140 N 473.124 -5.56786 0.771091 0
M  V30 5141 H 465.275 -1.71798 1.24896 0
M  V30 5142 H 467.538 -0.801879 0.505663 0
M  V30 5143 H 467.244 -3.24805 1.34887 0
M  V30 5144 H 467.118 -3.75793 -0.325441 0
M  V30 5145 H 469.505 -2.85677 -0.739765 0
M  V30 5146 H 469.586 -2.37112 0.959766 0
M  V30 5147 H 469.23 -4.80394 1.64877 0
M  V30 5148 H 469.16 -5.26553 -0.0704866 0
M  V30 5149 H 471.651 -3.76245 0.353252 0
M  V30 5150 H 471.964 -7.61048 1.34257 0
M  V30 5151 H 470.309 -6.84552 1.20057 0
M  V30 5152 H 473.5 -4.65187 0.521383 0
M  V30 5153 H 473.673 -6.40664 0.972295 0
M  V30 5154 N 467.08 -0.0183926 -1.57589 0
M  V30 5155 C 468.357 0.700621 -1.82622 0
M  V30 5156 C 468.737 1.90951 -0.90005 0
M  V30 5157 O 468.085 2.28452 0.0469145 0
M  V30 5158 C 468.295 1.08899 -3.31575 0
M  V30 5159 C 469.643 1.48514 -3.9778 0
M  V30 5160 O 470.667 1.18227 -3.36007 0
M  V30 5161 O 469.526 2.04903 -5.06633 0
M  V30 5162 H 466.62 0.342743 -0.752633 0
M  V30 5163 H 469.166 -0.0452548 -1.6964 0
M  V30 5164 H 467.938 0.228113 -3.90635 0
M  V30 5165 H 467.561 1.89338 -3.49624 0
M  V30 5166 N 468.558 1.5553 0.254621 0
M  V30 5167 C 469.505 1.89666 1.31512 0
M  V30 5168 C 470.475 0.750057 1.482 0
M  V30 5169 O 471.66 1.00301 1.62309 0
M  V30 5170 C 468.8 2.19009 2.667 0
M  V30 5171 C 467.913 3.46435 2.58083 0
M  V30 5172 C 467.048 3.65386 3.85573 0
M  V30 5173 C 466.087 4.8644 3.71541 0
M  V30 5174 N 465.224 5.01952 4.90906 0
M  V30 5175 H 470.064 2.80109 1.017 0
M  V30 5176 H 467.601 1.38666 0.490938 0
M  V30 5177 H 469.559 2.34025 3.45381 0
M  V30 5178 H 468.189 1.31779 2.94676 0
M  V30 5179 H 467.241 3.39792 1.71013 0
M  V30 5180 H 468.553 4.35258 2.43622 0
M  V30 5181 H 467.707 3.80319 4.72697 0
M  V30 5182 H 466.446 2.74781 4.02922 0
M  V30 5183 H 465.451 4.71491 2.82801 0
M  V30 5184 H 466.676 5.78497 3.55694 0
M  V30 5185 H 464.622 4.14283 5.08631 0
M  V30 5186 H 464.539 5.84851 4.79046 0
M  V30 5187 H 465.807 5.21289 5.7955 0
M  V30 5188 N 470.036 -0.519951 1.48776 0
M  V30 5189 C 470.966 -1.63253 1.66945 0
M  V30 5190 C 471.947 -1.62014 0.518224 0
M  V30 5191 O 473.132 -1.79053 0.751919 0
M  V30 5192 C 470.262 -3.0181 1.71836 0
M  V30 5193 C 469.216 -3.17911 2.8656 0
M  V30 5194 C 468.542 -4.5763 2.76548 0
M  V30 5195 C 469.842 -2.99729 4.27738 0
M  V30 5196 H 471.536 -1.48302 2.6009 0
M  V30 5197 H 469.082 -0.712026 1.25165 0
M  V30 5198 H 471.035 -3.79525 1.83135 0
M  V30 5199 H 469.759 -3.17806 0.752775 0
M  V30 5200 H 468.418 -2.42616 2.74833 0
M  V30 5201 H 468.066 -4.70476 1.77937 0
M  V30 5202 H 467.766 -4.69346 3.53536 0
M  V30 5203 H 469.29 -5.37431 2.89828 0
M  V30 5204 H 470.704 -3.67228 4.40246 0
M  V30 5205 H 469.101 -3.22932 5.05801 0
M  V30 5206 H 470.171 -1.96047 4.43502 0
M  V30 5207 N 471.514 -1.37532 -0.769588 0
M  V30 5208 C 472.925 -1.29382 -1.346 0
M  V30 5209 C 473.276 0.0576039 -1.96115 0
M  V30 5210 O 472.401 0.95947 -1.93967 0
M  V30 5211 C 472.996 -2.34298 -2.44724 0
M  V30 5212 C 471.555 -2.29776 -2.98128 0
M  V30 5213 C 470.702 -2.18013 -1.71364 0
M  V30 5214 H 473.653 -1.48123 -0.56968 0
M  V30 5215 H 473.674 -1.99089 -3.24259 0
M  V30 5216 H 473.186 -3.32645 -1.99922 0
M  V30 5217 H 471.287 -1.34959 -3.47299 0
M  V30 5218 H 471.4 -3.23276 -3.53595 0
M  V30 5219 H 469.764 -1.64595 -1.94372 0
M  V30 5220 H 470.547 -3.18278 -1.28662 0
M  V30 5221 N 472.992 0.995999 -1.22138 0
M  V30 5222 C 473.94 2.10673 -0.985876 0
M  V30 5223 C 474.934 1.69255 0.0699553 0
M  V30 5224 O 476.14 1.79812 -0.0822176 0
M  V30 5225 H 472.515 0.688865 -0.30161 0
M  V30 5226 H 474.486 2.27711 -1.92848 0
M  V30 5227 C 473.235 3.42881 -0.576909 0
M  V30 5228 H 472.558 3.75191 -1.38101 0
M  V30 5229 H 473.998 4.21589 -0.451518 0
M  V30 5230 C 472.457 3.29265 0.713196 0
M  V30 5231 O 472.987 3.60777 1.76643 0
M  V30 5232 N 471.193 2.82456 0.683162 0
M  V30 5233 H 470.74 2.5701 -0.174242 0
M  V30 5234 H 470.698 2.73727 1.54663 0
M  V30 5235 N 474.47 1.03057 1.19235 0
M  V30 5236 C 475.719 0.72326 1.88287 0
M  V30 5237 C 476.032 -0.751333 1.80594 0
M  V30 5238 O 477.238 -1.17176 2.44912 0
M  V30 5239 C 475.694 1.24338 3.3774 0
M  V30 5240 C 475.302 2.74587 3.53986 0
M  V30 5241 C 477.046 1.01213 4.12257 0
M  V30 5242 C 474.953 3.20009 4.97341 0
M  V30 5243 H 473.883 0.266848 0.705201 0
M  V30 5244 H 476.534 1.24509 1.34795 0
M  V30 5245 H 474.916 0.649457 3.90638 0
M  V30 5246 H 476.09 3.39649 3.11408 0
M  V30 5247 H 474.405 2.9601 2.9286 0
M  V30 5248 H 477.002 1.32675 5.17978 0
M  V30 5249 H 477.345 -0.051001 4.16269 0
M  V30 5250 H 477.878 1.57014 3.65501 0
M  V30 5251 H 474.617 4.25659 4.98493 0
M  V30 5252 H 474.137 2.59676 5.40674 0
M  V30 5253 H 475.816 3.13447 5.66003 0
M  V30 5254 N 475.948 -1.35272 0.808662 0
M  V30 5255 C 477.173 -2.03477 0.401475 0
M  V30 5256 C 477.598 -1.60537 -0.980279 0
M  V30 5257 O 476.956 -0.78304 -1.63518 0
M  V30 5258 C 477.004 -3.57181 0.495354 0
M  V30 5259 O 476.108 -4.09474 -0.490397 0
M  V30 5260 H 475.449 -0.642561 0.167366 0
M  V30 5261 H 477.979 -1.72824 1.09512 0
M  V30 5262 H 477.989 -4.06356 0.365912 0
M  V30 5263 H 476.664 -3.87784 1.5032 0
M  V30 5264 H 475.241 -3.71516 -0.321023 0
M  V30 5265 N 477.426 -0.562348 -1.47226 0
M  V30 5266 C 478.666 -0.0426374 -2.04356 0
M  V30 5267 C 479.03 1.28487 -1.42671 0
M  V30 5268 O 480.231 1.89259 -1.90878 0
M  V30 5269 C 478.502 0.0433826 -3.57374 0
M  V30 5270 S 480.061 0.508472 -4.35844 0
M  V30 5271 H 476.879 -0.0276234 -0.710463 0
M  V30 5272 H 479.481 -0.750245 -1.80531 0
M  V30 5273 H 478.185 -0.927072 -3.99792 0
M  V30 5274 H 477.716 0.774387 -3.85703 0
M  V30 5275 H 479.731 1.76719 -4.63665 0
M  V30 5276 N 478.904 1.54736 -0.299062 0
M  V30 5277 C 480.153 1.99279 0.311549 0
M  V30 5278 C 480.466 1.19107 1.55154 0
M  V30 5279 O 481.672 1.53908 2.23662 0
M  V30 5280 C 480.128 3.54768 0.605632 0
M  V30 5281 C 479.736 4.43746 -0.615914 0
M  V30 5282 C 481.48 4.07841 1.17754 0
M  V30 5283 C 479.387 5.90663 -0.29509 0
M  V30 5284 H 478.317 0.744359 0.120187 0
M  V30 5285 H 480.968 1.78919 -0.407464 0
M  V30 5286 H 479.35 3.71021 1.38419 0
M  V30 5287 H 480.524 4.39267 -1.39218 0
M  V30 5288 H 478.839 4.01434 -1.10633 0
M  V30 5289 H 481.436 5.15174 1.43179 0
M  V30 5290 H 481.779 3.58324 2.11918 0
M  V30 5291 H 482.312 3.95123 0.460739 0
M  V30 5292 H 479.051 6.44325 -1.20524 0
M  V30 5293 H 478.571 5.98155 0.44394 0
M  V30 5294 H 480.25 6.46916 0.104048 0
M  V30 5295 N 480.382 0.0267497 1.57577 0
M  V30 5296 C 481.329 -0.955894 2.10075 0
M  V30 5297 C 482.299 -1.32453 1.00226 0
M  V30 5298 O 483.484 -1.41826 1.27632 0
M  V30 5299 C 480.624 -2.2338 2.6305 0
M  V30 5300 C 479.737 -1.92183 3.86898 0
M  V30 5301 C 478.872 -3.14251 4.28275 0
M  V30 5302 C 477.911 -2.78862 5.44888 0
M  V30 5303 N 477.048 -3.93548 5.81433 0
M  V30 5304 H 481.888 -0.501303 2.93753 0
M  V30 5305 H 479.425 -0.235847 1.45197 0
M  V30 5306 H 481.383 -2.98124 2.91853 0
M  V30 5307 H 480.013 -2.6646 1.82205 0
M  V30 5308 H 479.065 -1.07692 3.64838 0
M  V30 5309 H 480.377 -1.62117 4.7172 0
M  V30 5310 H 479.531 -3.97317 4.58502 0
M  V30 5311 H 478.27 -3.47476 3.42215 0
M  V30 5312 H 477.275 -1.94208 5.14357 0
M  V30 5313 H 478.5 -2.46855 6.32645 0
M  V30 5314 H 476.446 -4.2662 4.98328 0
M  V30 5315 H 476.363 -3.67098 6.6089 0
M  V30 5316 H 477.631 -4.77325 6.16264 0
M  V30 5317 N 481.861 -1.55662 -0.24637 0
M  V30 5318 C 482.824 -1.89558 -1.28842 0
M  V30 5319 C 483.824 -0.772082 -1.41052 0
M  V30 5320 O 485.014 -1.04007 -1.39743 0
M  V30 5321 C 482.146 -2.12449 -2.66605 0
M  V30 5322 H 483.339 -2.82735 -1.00004 0
M  V30 5323 H 480.892 -1.48562 -0.485684 0
M  V30 5324 H 481.627 -1.21742 -3.00582 0
M  V30 5325 H 481.412 -2.94273 -2.59125 0
M  V30 5326 H 482.902 -2.39854 -3.41847 0
M  V30 5327 N 483.339 0.512053 -1.4905 0
M  V30 5328 C 484.588 1.26343 -1.57227 0
M  V30 5329 C 484.901 1.93876 -0.259155 0
M  V30 5330 O 486.107 2.70612 -0.219358 0
M  V30 5331 C 484.563 2.29343 -2.77362 0
M  V30 5332 C 484.171 1.67799 -4.15388 0
M  V30 5333 C 485.915 3.05378 -2.94864 0
M  V30 5334 C 483.822 2.68845 -5.2676 0
M  V30 5335 H 482.752 0.475231 -0.585382 0
M  V30 5336 H 485.403 0.53862 -1.75417 0
M  V30 5337 H 483.785 3.04938 -2.52643 0
M  V30 5338 H 484.959 0.982715 -4.50199 0
M  V30 5339 H 483.274 1.04194 -4.03153 0
M  V30 5340 H 485.871 3.80921 -3.75238 0
M  V30 5341 H 486.214 3.62327 -2.05 0
M  V30 5342 H 486.747 2.36898 -3.19569 0
M  V30 5343 H 483.486 2.16692 -6.18647 0
M  V30 5344 H 483.006 3.36647 -4.96416 0
M  V30 5345 H 484.685 3.31487 -5.5563 0
M  V30 5346 N 484.817 1.37938 0.762283 0
M  V30 5347 C 486.094 1.24196 1.51112 0
M  V30 5348 C 486.474 -0.160409 2.1049 0
M  V30 5349 O 485.822 -1.16904 1.96331 0
M  V30 5350 C 486.032 2.34537 2.58445 0
M  V30 5351 C 487.38 2.7254 3.25588 0
M  V30 5352 O 488.404 2.33783 2.68745 0
M  V30 5353 O 487.263 3.39343 4.28379 0
M  V30 5354 H 484.357 0.485175 0.669727 0
M  V30 5355 H 486.903 1.49743 0.798438 0
M  V30 5356 H 485.675 3.28406 2.12756 0
M  V30 5357 H 485.298 2.10505 3.37303 0
M  V30 5358 N 486.295 -0.989507 1.22664 0
M  V30 5359 C 487.544 -1.72375 1.04737 0
M  V30 5360 C 487.857 -1.91096 -0.417316 0
M  V30 5361 O 489.063 -2.6188 -0.716334 0
M  V30 5362 C 487.519 -3.10161 1.82561 0
M  V30 5363 C 487.127 -2.99358 3.333 0
M  V30 5364 C 488.871 -3.87607 1.73093 0
M  V30 5365 C 486.778 -4.32319 4.03552 0
M  V30 5366 H 485.708 -0.646326 0.388302 0
M  V30 5367 H 488.359 -1.10437 1.46546 0
M  V30 5368 H 486.741 -3.728 1.33552 0
M  V30 5369 H 487.915 -2.45863 3.89728 0
M  V30 5370 H 486.23 -2.35392 3.43481 0
M  V30 5371 H 488.827 -4.86025 2.22899 0
M  V30 5372 H 489.17 -4.10509 0.691976 0
M  V30 5373 H 489.703 -3.31652 2.19663 0
M  V30 5374 H 486.442 -4.14616 5.07714 0
M  V30 5375 H 485.962 -4.85714 3.51911 0
M  V30 5376 H 487.641 -5.01051 4.09337 0
M  V30 5377 N 487.773 -1.03688 -1.18687 0
M  V30 5378 C 489.003 -0.756819 -1.92239 0
M  V30 5379 C 489.411 0.689374 -1.76194 0
M  V30 5380 O 488.754 1.48126 -1.08648 0
M  V30 5381 C 488.816 -1.03851 -3.44173 0
M  V30 5382 C 488.48 -2.47785 -3.83994 0
M  V30 5383 C 489.477 -3.4595 -3.88091 0
M  V30 5384 C 487.162 -2.82397 -4.154 0
M  V30 5385 C 489.156 -4.76779 -4.23038 0
M  V30 5386 C 486.843 -4.13433 -4.50018 0
M  V30 5387 C 487.841 -5.10434 -4.53813 0
M  V30 5388 O 487.529 -6.39122 -4.87625 0
M  V30 5389 H 487.261 -0.275678 -0.617234 0
M  V30 5390 H 489.815 -1.38658 -1.51536 0
M  V30 5391 H 488.045 -0.351612 -3.85098 0
M  V30 5392 H 489.734 -0.746846 -3.9897 0
M  V30 5393 H 490.5 -3.20549 -3.63969 0
M  V30 5394 H 486.379 -2.07568 -4.11627 0
M  V30 5395 H 489.923 -5.52488 -4.25914 0
M  V30 5396 H 485.82 -4.38604 -4.736 0
M  V30 5397 H 486.588 -6.43715 -5.05542 0
M  V30 5398 N 489.251 1.34841 -0.815825 0
M  V30 5399 C 490.5 1.97755 -0.396976 0
M  V30 5400 C 490.813 1.65422 1.04379 0
M  V30 5401 O 492.019 2.21771 1.5662 0
M  V30 5402 C 490.475 3.53818 -0.658869 0
M  V30 5403 C 490.083 3.95051 -2.11278 0
M  V30 5404 C 491.827 4.23397 -0.305834 0
M  V30 5405 C 489.734 5.43997 -2.31994 0
M  V30 5406 H 488.664 0.739985 -0.1447 0
M  V30 5407 H 491.315 1.53781 -1.00118 0
M  V30 5408 H 489.697 3.95997 0.0154112 0
M  V30 5409 H 490.871 3.63998 -2.82564 0
M  V30 5410 H 489.186 3.38388 -2.42657 0
M  V30 5411 H 491.783 5.32899 -0.43854 0
M  V30 5412 H 492.126 4.09508 0.748952 0
M  V30 5413 H 492.659 3.8667 -0.934403 0
M  V30 5414 H 489.398 5.62865 -3.35952 0
M  V30 5415 H 488.918 5.76589 -1.65244 0
M  V30 5416 H 490.597 6.10584 -2.14001 0
M  V30 5417 N 490.729 0.570148 1.46925 0
M  V30 5418 C 491.659 -0.158274 2.32963 0
M  V30 5419 C 492.64 -0.896093 1.44583 0
M  V30 5420 O 493.825 -0.874022 1.7342 0
M  V30 5421 C 490.955 -1.18055 3.26619 0
M  V30 5422 C 489.909 -0.558379 4.24342 0
M  V30 5423 C 489.235 -1.68623 5.07415 0
M  V30 5424 C 490.535 0.496295 5.19937 0
M  V30 5425 H 492.229 0.560046 2.94115 0
M  V30 5426 H 489.775 0.270775 1.41431 0
M  V30 5427 H 491.728 -1.69841 3.85658 0
M  V30 5428 H 490.452 -1.92899 2.63548 0
M  V30 5429 H 489.111 -0.0617157 3.66548 0
M  V30 5430 H 488.759 -2.42402 4.40738 0
M  V30 5431 H 488.459 -1.27564 5.73586 0
M  V30 5432 H 489.983 -2.20709 5.69315 0
M  V30 5433 H 491.397 0.0640052 5.73264 0
M  V30 5434 H 489.794 0.82649 5.94381 0
M  V30 5435 H 490.864 1.38735 4.6463 0
M  V30 5436 N 492.207 -1.54576 0.307264 0
M  V30 5437 C 493.453 -2.0056 -0.300612 0
M  V30 5438 C 493.786 -1.1953 -1.53057 0
M  V30 5439 O 493.061 -0.27337 -1.92569 0
M  V30 5440 C 493.344 -3.54167 -0.650987 0
M  V30 5441 C 493.197 -4.45933 0.588539 0
M  V30 5442 C 494.516 -4.14645 -1.47506 0
M  V30 5443 H 491.635 -0.729075 -0.107788 0
M  V30 5444 H 494.277 -1.85286 0.420606 0
M  V30 5445 H 492.427 -3.67313 -1.26544 0
M  V30 5446 H 494.099 -4.44683 1.22697 0
M  V30 5447 H 492.342 -4.16274 1.22058 0
M  V30 5448 H 493.013 -5.51189 0.299153 0
M  V30 5449 H 495.489 -4.04973 -0.955821 0
M  V30 5450 H 494.365 -5.22269 -1.68899 0
M  V30 5451 H 494.626 -3.66921 -2.4662 0
M  V30 5452 N 493.685 -0.035106 -1.57561 0
M  V30 5453 C 494.925 0.646316 -1.93913 0
M  V30 5454 C 495.289 1.68947 -0.912185 0
M  V30 5455 O 496.49 2.42381 -1.1621 0
M  V30 5456 C 494.761 1.24136 -3.35149 0
M  V30 5457 S 496.32 1.94302 -3.93436 0
M  V30 5458 H 493.138 0.212642 -0.678457 0
M  V30 5459 H 495.74 -0.100203 -1.95243 0
M  V30 5460 H 494.444 0.46979 -4.07702 0
M  V30 5461 H 493.975 2.02505 -3.37276 0
M  V30 5462 H 495.99 3.22205 -3.77357 0
M  V30 5463 N 495.163 1.55791 0.238111 0
M  V30 5464 C 496.093 1.94068 1.29846 0
M  V30 5465 C 497.074 0.806726 1.49753 0
M  V30 5466 O 498.259 1.06772 1.62214 0
M  V30 5467 C 495.389 2.24302 2.65153 0
M  V30 5468 C 494.343 3.40032 2.59927 0
M  V30 5469 C 493.669 3.55829 3.99111 0
M  V30 5470 C 494.969 4.75476 2.16148 0
M  V30 5471 H 496.663 2.82887 0.980563 0
M  V30 5472 H 494.209 1.36105 0.470253 0
M  V30 5473 H 496.162 2.4967 3.39475 0
M  V30 5474 H 494.886 1.32318 2.98596 0
M  V30 5475 H 493.545 3.14687 1.88063 0
M  V30 5476 H 493.193 2.6125 4.29834 0
M  V30 5477 H 492.893 4.3366 3.96501 0
M  V30 5478 H 494.417 3.83528 4.7512 0
M  V30 5479 H 495.831 5.00158 2.80205 0
M  V30 5480 H 494.228 5.56472 2.24631 0
M  V30 5481 H 495.298 4.71946 1.11333 0
M  V30 5482 N 496.642 -0.504142 1.49319 0
M  V30 5483 C 497.889 -1.25846 1.58647 0
M  V30 5484 C 498.217 -1.92592 0.27177 0
M  V30 5485 O 497.472 -1.81167 -0.74007 0
M  V30 5486 C 497.771 -2.35021 2.69258 0
M  V30 5487 C 497.437 -1.85755 4.1086 0
M  V30 5488 C 496.099 -1.72038 4.49395 0
M  V30 5489 C 498.451 -1.48844 4.99495 0
M  V30 5490 C 495.779 -1.19783 5.74342 0
M  V30 5491 C 498.131 -0.980422 6.24956 0
M  V30 5492 C 496.795 -0.829622 6.62324 0
M  V30 5493 H 496.065 -0.460505 0.580531 0
M  V30 5494 H 498.712 -0.559716 1.83138 0
M  V30 5495 H 497.017 -3.10672 2.38726 0
M  V30 5496 H 498.714 -2.93083 2.73685 0
M  V30 5497 H 495.304 -1.9739 3.80441 0
M  V30 5498 H 499.488 -1.5829 4.70381 0
M  V30 5499 H 494.744 -1.06817 6.01997 0
M  V30 5500 H 498.918 -0.685608 6.93017 0
M  V30 5501 H 496.545 -0.42253 7.59025 0
M  V30 5502 N 498.12 -1.38341 -0.754957 0
M  V30 5503 C 499.367 -1.34473 -1.51404 0
M  V30 5504 C 499.695 0.0656458 -1.94389 0
M  V30 5505 O 498.95 1.04244 -1.65625 0
M  V30 5506 C 499.249 -2.2452 -2.78075 0
M  V30 5507 C 498.915 -3.72512 -2.54059 0
M  V30 5508 C 497.577 -4.1284 -2.47218 0
M  V30 5509 C 499.929 -4.66197 -2.33044 0
M  V30 5510 C 497.257 -5.44945 -2.17376 0
M  V30 5511 C 499.609 -5.98558 -2.04723 0
M  V30 5512 C 498.273 -6.37972 -1.96337 0
M  V30 5513 H 497.543 -0.492072 -0.554027 0
M  V30 5514 H 500.19 -1.70687 -0.868223 0
M  V30 5515 H 498.495 -1.81357 -3.473 0
M  V30 5516 H 500.192 -2.18832 -3.36026 0
M  V30 5517 H 496.782 -3.40538 -2.60253 0
M  V30 5518 H 500.966 -4.35888 -2.37309 0
M  V30 5519 H 496.222 -5.74426 -2.09391 0
M  V30 5520 H 500.396 -6.70693 -1.87465 0
M  V30 5521 H 498.023 -7.40258 -1.72978 0
M  V30 5522 N 499.598 0.982988 -1.23187 0
M  V30 5523 C 500.844 1.72648 -1.06398 0
M  V30 5524 C 501.177 1.90066 0.398561 0
M  V30 5525 O 500.452 1.45105 1.29518 0
M  V30 5526 C 500.735 3.12627 -1.78707 0
M  V30 5527 C 500.588 3.02795 -3.32618 0
M  V30 5528 C 501.907 4.11997 -1.54747 0
M  V30 5529 H 499.026 0.626649 -0.387918 0
M  V30 5530 H 501.668 1.14455 -1.51658 0
M  V30 5531 H 499.818 3.62308 -1.40234 0
M  V30 5532 H 501.49 2.60659 -3.80598 0
M  V30 5533 H 499.733 2.39362 -3.61785 0
M  V30 5534 H 500.404 4.01893 -3.78399 0
M  V30 5535 H 502.88 3.71114 -1.88186 0
M  V30 5536 H 501.756 5.08037 -2.07821 0
M  V30 5537 H 502.017 4.39462 -0.482249 0
M  V30 5538 N 501.076 1.04316 1.18135 0
M  V30 5539 C 502.323 0.74802 1.88178 0
M  V30 5540 C 502.651 -0.72441 1.80506 0
M  V30 5541 O 501.906 -1.54463 1.20165 0
M  V30 5542 C 502.205 1.16271 3.37958 0
M  V30 5543 C 501.871 2.63585 3.65833 0
M  V30 5544 C 500.533 3.03829 3.73151 0
M  V30 5545 C 502.885 3.58822 3.78016 0
M  V30 5546 C 500.213 4.38194 3.90132 0
M  V30 5547 C 502.565 4.92909 3.96514 0
M  V30 5548 C 501.229 5.3282 4.02068 0
M  V30 5549 H 500.499 0.27372 0.688592 0
M  V30 5550 H 503.146 1.30863 1.39811 0
M  V30 5551 H 501.451 0.520938 3.88321 0
M  V30 5552 H 503.148 0.911672 3.90499 0
M  V30 5553 H 499.738 2.31414 3.60757 0
M  V30 5554 H 503.922 3.28875 3.71692 0
M  V30 5555 H 499.178 4.68631 3.92677 0
M  V30 5556 H 503.352 5.66606 4.04883 0
M  V30 5557 H 500.979 6.36943 4.14979 0
M  V30 5558 N 502.554 -1.34406 0.822964 0
M  V30 5559 C 503.484 -2.32052 0.259608 0
M  V30 5560 C 504.465 -1.58243 -0.623961 0
M  V30 5561 O 505.65 -1.86224 -0.55083 0
M  V30 5562 C 502.78 -3.42434 -0.579314 0
M  V30 5563 C 501.734 -4.27499 0.20712 0
M  V30 5564 C 501.06 -5.29349 -0.754547 0
M  V30 5565 C 502.36 -5.02758 1.41533 0
M  V30 5566 H 504.054 -2.79418 1.07545 0
M  V30 5567 H 501.6 -1.34338 0.518593 0
M  V30 5568 H 503.553 -4.0976 -0.983612 0
M  V30 5569 H 502.277 -2.93717 -1.4282 0
M  V30 5570 H 500.936 -3.61776 0.592787 0
M  V30 5571 H 500.584 -4.76895 -1.59939 0
M  V30 5572 H 500.284 -5.8714 -0.232561 0
M  V30 5573 H 501.808 -5.99544 -1.1567 0
M  V30 5574 H 503.222 -5.62938 1.08504 0
M  V30 5575 H 501.619 -5.70123 1.87296 0
M  V30 5576 H 502.689 -4.32451 2.1935 0
M  V30 5577 N 504.032 -0.577932 -1.46621 0
M  V30 5578 C 505.257 -0.0652536 -2.07297 0
M  V30 5579 C 505.682 1.22828 -1.4246 0
M  V30 5580 O 505.04 1.74075 -0.506718 0
M  V30 5581 C 505.088 0.0920589 -3.60482 0
M  V30 5582 O 504.192 1.14972 -3.96049 0
M  V30 5583 H 503.533 -0.06065 -0.661224 0
M  V30 5584 H 506.063 -0.799515 -1.88332 0
M  V30 5585 H 506.073 0.299741 -4.06897 0
M  V30 5586 H 504.748 -0.852612 -4.07067 0
M  V30 5587 H 503.325 0.920879 -3.61351 0
M  V30 5588 N 505.51 1.54411 -0.315457 0
M  V30 5589 C 506.44 2.27002 0.547039 0
M  V30 5590 C 507.421 1.27492 1.12605 0
M  V30 5591 O 508.606 1.5629 1.15269 0
M  V30 5592 C 505.736 3.02171 1.71201 0
M  V30 5593 C 504.69 4.0895 1.26268 0
M  V30 5594 C 504.016 4.71915 2.51396 0
M  V30 5595 C 505.316 5.20891 0.383419 0
M  V30 5596 H 507.01 2.99343 -0.0584517 0
M  V30 5597 H 504.556 1.4397 -0.0295527 0
M  V30 5598 H 506.509 3.51681 2.32161 0
M  V30 5599 H 505.233 2.27433 2.34397 0
M  V30 5600 H 503.892 3.60312 0.676062 0
M  V30 5601 H 503.54 3.93801 3.12937 0
M  V30 5602 H 503.24 5.44039 2.22026 0
M  V30 5603 H 504.764 5.24195 3.13133 0
M  V30 5604 H 506.178 5.66206 0.899082 0
M  V30 5605 H 504.575 5.99821 0.182857 0
M  V30 5606 H 505.645 4.81324 -0.587821 0
M  V30 5607 N 506.988 0.0434614 1.5754 0
M  V30 5608 C 507.918 -0.931651 2.14109 0
M  V30 5609 C 508.899 -1.32971 1.06079 0
M  V30 5610 O 510.084 -1.40579 1.33982 0
M  V30 5611 C 507.214 -2.20914 2.67982 0
M  V30 5612 C 506.168 -1.95139 3.80926 0
M  V30 5613 C 505.494 -3.29276 4.21285 0
M  V30 5614 C 506.794 -1.27913 5.06395 0
M  V30 5615 H 508.488 -0.460497 2.95837 0
M  V30 5616 H 506.034 -0.220058 1.42309 0
M  V30 5617 H 507.987 -2.89522 3.06194 0
M  V30 5618 H 506.711 -2.70221 1.83434 0
M  V30 5619 H 505.37 -1.28945 3.43175 0
M  V30 5620 H 505.018 -3.76369 3.33699 0
M  V30 5621 H 504.718 -3.12831 4.97404 0
M  V30 5622 H 506.242 -3.99129 4.62091 0
M  V30 5623 H 507.656 -1.86544 5.42102 0
M  V30 5624 H 506.053 -1.2182 5.87605 0
M  V30 5625 H 507.123 -0.254066 4.84234 0
M  V30 5626 N 508.466 -1.55915 -0.229846 0
M  V30 5627 C 509.376 -1.94891 -1.30593 0
M  V30 5628 C 510.392 -0.851604 -1.51736 0
M  V30 5629 O 511.568 -1.15447 -1.65027 0
M  V30 5630 C 508.633 -2.25052 -2.63728 0
M  V30 5631 C 507.694 -3.48306 -2.5096 0
M  V30 5632 C 506.927 -3.77019 -3.77747 0
M  V30 5633 O 507.15 -3.07534 -4.80395 0
M  V30 5634 O 506.084 -4.70523 -3.75356 0
M  V30 5635 H 509.91 -2.86581 -1.00525 0
M  V30 5636 H 507.495 -1.43017 -0.432025 0
M  V30 5637 H 509.377 -2.45682 -3.42372 0
M  V30 5638 H 508.052 -1.36538 -2.93495 0
M  V30 5639 H 506.959 -3.32964 -1.70546 0
M  V30 5640 H 508.292 -4.37177 -2.26136 0
M  V30 5641 N 509.944 0.496216 -1.49584 0
M  V30 5642 C 511.174 1.27209 -1.62793 0
M  V30 5643 C 511.582 1.86799 -0.300476 0
M  V30 5644 O 510.925 1.68802 0.724674 0
M  V30 5645 C 510.987 2.43812 -2.64189 0
M  V30 5646 C 510.651 2.05055 -4.08414 0
M  V30 5647 C 511.648 1.58752 -4.9507 0
M  V30 5648 C 509.333 2.14543 -4.54177 0
M  V30 5649 C 511.327 1.22448 -6.25528 0
M  V30 5650 C 509.014 1.77851 -5.84647 0
M  V30 5651 C 510.012 1.31878 -6.70147 0
M  V30 5652 O 509.7 0.956834 -7.98185 0
M  V30 5653 H 509.432 0.391848 -0.550846 0
M  V30 5654 H 511.986 0.601712 -1.96389 0
M  V30 5655 H 510.216 3.13941 -2.25783 0
M  V30 5656 H 511.905 3.05829 -2.66877 0
M  V30 5657 H 512.671 1.50863 -4.60939 0
M  V30 5658 H 508.55 2.49277 -3.87791 0
M  V30 5659 H 512.094 0.864933 -6.92217 0
M  V30 5660 H 507.991 1.8539 -6.18305 0
M  V30 5661 H 508.759 1.08789 -8.11238 0
M  V30 5662 N 511.423 1.38739 0.74761 0
M  V30 5663 C 512.669 1.35475 1.50912 0
M  V30 5664 C 513.002 -0.0533093 1.94127 0
M  V30 5665 O 512.277 -1.01572 1.65871 0
M  V30 5666 C 512.56 2.31582 2.75757 0
M  V30 5667 C 512.413 3.81274 2.38642 0
M  V30 5668 C 513.732 2.25722 3.77806 0
M  V30 5669 H 510.851 0.493427 0.547447 0
M  V30 5670 H 513.493 1.69634 0.855823 0
M  V30 5671 H 511.643 2.02582 3.31501 0
M  V30 5672 H 513.315 4.20972 1.88626 0
M  V30 5673 H 511.558 3.98664 1.71025 0
M  V30 5674 H 512.229 4.4399 3.27989 0
M  V30 5675 H 514.705 2.51336 3.31616 0
M  V30 5676 H 513.581 2.95069 4.62845 0
M  V30 5677 H 513.842 1.25803 4.23823 0
M  V30 5678 N 512.901 -0.976442 1.23707 0
M  V30 5679 C 514.131 -1.75087 1.09673 0
M  V30 5680 C 514.539 -1.85852 -0.354344 0
M  V30 5681 O 513.882 -1.33985 -1.25673 0
M  V30 5682 C 513.944 -3.19272 1.65245 0
M  V30 5683 C 513.608 -3.32004 3.14042 0
M  V30 5684 C 514.605 -3.18017 4.11292 0
M  V30 5685 C 512.29 -3.56525 3.53829 0
M  V30 5686 C 514.284 -3.28363 5.46312 0
M  V30 5687 C 511.971 -3.6651 4.88993 0
M  V30 5688 C 512.969 -3.52439 5.85043 0
M  V30 5689 O 512.657 -3.62063 7.1775 0
M  V30 5690 H 512.389 -0.556164 0.384262 0
M  V30 5691 H 514.943 -1.23518 1.64111 0
M  V30 5692 H 513.173 -3.72107 1.05231 0
M  V30 5693 H 514.862 -3.7849 1.46629 0
M  V30 5694 H 515.628 -2.98966 3.81896 0
M  V30 5695 H 511.507 -3.66547 2.79579 0
M  V30 5696 H 515.051 -3.17297 6.21263 0
M  V30 5697 H 510.948 -3.85072 5.18063 0
M  V30 5698 H 511.716 -3.78833 7.25553 0
M  V30 5699 N 514.379 -1.04941 -1.1758 0
M  V30 5700 C 515.628 -0.753124 -1.87112 0
M  V30 5701 C 515.941 0.722507 -1.81767 0
M  V30 5702 O 517.147 1.13265 -2.46746 0
M  V30 5703 C 515.603 -1.29695 -3.35719 0
M  V30 5704 C 515.211 -2.80184 -3.49572 0
M  V30 5705 C 516.955 -1.07759 -4.10595 0
M  V30 5706 C 514.862 -3.2788 -4.92187 0
M  V30 5707 H 513.792 -0.278034 -0.700866 0
M  V30 5708 H 516.443 -1.26637 -1.32798 0
M  V30 5709 H 514.825 -0.711522 -3.89555 0
M  V30 5710 H 515.999 -3.44561 -3.05965 0
M  V30 5711 H 514.314 -3.00632 -2.88113 0
M  V30 5712 H 516.911 -1.40899 -5.15802 0
M  V30 5713 H 517.254 -0.0152302 -4.16297 0
M  V30 5714 H 517.787 -1.62809 -3.62957 0
M  V30 5715 H 514.526 -4.33535 -4.91658 0
M  V30 5716 H 514.046 -2.68245 -5.36475 0
M  V30 5717 H 515.725 -3.22412 -5.60945 0
M  V30 5718 N 515.857 1.33968 -0.830081 0
M  V30 5719 C 516.805 2.31301 -0.245435 0
M  V30 5720 C 517.799 1.57734 0.617762 0
M  V30 5721 O 519.005 1.72674 0.508303 0
M  V30 5722 H 515.38 0.749552 -0.0606316 0
M  V30 5723 H 517.351 2.78129 -1.08105 0
M  V30 5724 C 516.1 3.42961 0.572084 0
M  V30 5725 H 515.423 3.99714 -0.0828118 0
M  V30 5726 H 516.863 4.13286 0.94715 0
M  V30 5727 C 515.322 2.88043 1.74737 0
M  V30 5728 O 515.852 2.83508 2.8458 0
M  V30 5729 N 514.058 2.44768 1.56642 0
M  V30 5730 H 513.605 2.48656 0.672901 0
M  V30 5731 H 513.563 2.08375 2.3543 0
M  V30 5732 N 517.335 0.585699 1.46312 0
M  V30 5733 C 518.565 0.0780166 2.06453 0
M  V30 5734 C 518.973 -1.2336 1.43454 0
M  V30 5735 O 518.316 -1.75734 0.535086 0
M  V30 5736 C 518.378 -0.158951 3.59148 0
M  V30 5737 C 518.042 1.06752 4.44357 0
M  V30 5738 C 519.039 1.98031 4.80708 0
M  V30 5739 C 516.724 1.2902 4.85447 0
M  V30 5740 C 518.718 3.09924 5.5698 0
M  V30 5741 C 516.405 2.41218 5.61478 0
M  V30 5742 C 517.403 3.31499 5.97158 0
M  V30 5743 O 517.091 4.41747 6.71651 0
M  V30 5744 H 516.823 0.0558894 0.673686 0
M  V30 5745 H 519.377 0.806994 1.88883 0
M  V30 5746 H 517.607 -0.942575 3.75037 0
M  V30 5747 H 519.296 -0.615513 4.01206 0
M  V30 5748 H 520.062 1.82043 4.49539 0
M  V30 5749 H 515.941 0.596567 4.57124 0
M  V30 5750 H 519.485 3.80415 5.84748 0
M  V30 5751 H 515.382 2.57167 5.9206 0
M  V30 5752 H 516.15 4.40152 6.90079 0
M  V30 5753 N 518.813 -1.54241 0.323641 0
M  V30 5754 C 519.743 -2.27289 -0.534993 0
M  V30 5755 C 520.724 -1.28087 -1.11927 0
M  V30 5756 O 521.909 -1.56899 -1.14439 0
M  V30 5757 C 519.039 -3.03075 -1.69596 0
M  V30 5758 C 517.993 -4.09614 -1.24098 0
M  V30 5759 C 517.319 -4.73242 -2.4889 0
M  V30 5760 C 518.619 -5.21087 -0.355789 0
M  V30 5761 H 520.313 -2.99308 0.0743257 0
M  V30 5762 H 517.859 -1.43952 0.0371874 0
M  V30 5763 H 519.812 -3.52907 -2.30293 0
M  V30 5764 H 518.536 -2.28673 -2.33187 0
M  V30 5765 H 517.195 -3.60666 -0.656945 0
M  V30 5766 H 516.843 -3.95455 -3.10845 0
M  V30 5767 H 516.543 -5.45209 -2.19138 0
M  V30 5768 H 518.067 -5.25848 -3.10348 0
M  V30 5769 H 519.481 -5.66675 -0.869042 0
M  V30 5770 H 517.878 -5.9991 -0.151045 0
M  V30 5771 H 518.948 -4.81005 0.613339 0
M  V30 5772 N 520.291 -0.0518155 -1.57515 0
M  V30 5773 C 521.538 0.621823 -1.92716 0
M  V30 5774 C 521.866 1.70813 -0.930229 0
M  V30 5775 O 521.121 1.95616 0.0573708 0
M  V30 5776 C 521.42 1.25607 -3.34601 0
M  V30 5777 C 521.086 0.297901 -4.49915 0
M  V30 5778 C 519.748 0.034243 -4.81188 0
M  V30 5779 C 522.1 -0.358738 -5.19964 0
M  V30 5780 C 519.428 -0.893479 -5.79857 0
M  V30 5781 C 521.78 -1.27466 -6.19625 0
M  V30 5782 C 520.444 -1.54698 -6.49326 0
M  V30 5783 H 519.714 0.227541 -0.705199 0
M  V30 5784 H 522.361 -0.118432 -1.91133 0
M  V30 5785 H 520.666 2.07161 -3.32553 0
M  V30 5786 H 522.363 1.78424 -3.59118 0
M  V30 5787 H 518.953 0.513581 -4.25512 0
M  V30 5788 H 523.137 -0.168133 -4.96015 0
M  V30 5789 H 518.393 -1.11193 -6.01204 0
M  V30 5790 H 522.567 -1.78953 -6.73015 0
M  V30 5791 H 520.194 -2.26748 -7.25596 0
M  V30 5792 N 521.769 1.56035 0.221574 0
M  V30 5793 C 522.999 1.82864 0.961468 0
M  V30 5794 C 523.407 0.628703 1.78449 0
M  V30 5795 O 522.75 -0.412109 1.79018 0
M  V30 5796 C 522.812 3.03425 1.92804 0
M  V30 5797 C 522.476 4.38429 1.28954 0
M  V30 5798 C 523.473 5.15441 0.679431 0
M  V30 5799 C 521.158 4.85151 1.30131 0
M  V30 5800 C 523.152 6.37337 0.0896148 0
M  V30 5801 C 520.839 6.06989 0.707651 0
M  V30 5802 C 521.837 6.82923 0.102855 0
M  V30 5803 O 521.525 8.02456 -0.48157 0
M  V30 5804 H 521.257 0.611883 0.28736 0
M  V30 5805 H 523.811 2.0397 0.241932 0
M  V30 5806 H 522.041 2.78138 2.68656 0
M  V30 5807 H 523.73 3.17127 2.53348 0
M  V30 5808 H 524.496 4.80452 0.662661 0
M  V30 5809 H 520.375 4.26021 1.76145 0
M  V30 5810 H 523.919 6.96547 -0.383069 0
M  V30 5811 H 519.816 6.41451 0.721834 0
M  V30 5812 H 520.584 8.17636 -0.375887 0
M  V30 5813 N 523.247 -0.488276 1.49845 0
M  V30 5814 C 524.472 -1.26997 1.63971 0
M  V30 5815 C 524.897 -1.85427 0.315994 0
M  V30 5816 O 524.255 -1.66475 -0.718032 0
M  V30 5817 C 524.303 -2.36689 2.72049 0
M  V30 5818 O 523.407 -3.40882 2.32107 0
M  V30 5819 H 522.748 -0.374376 0.548396 0
M  V30 5820 H 525.278 -0.583104 1.96115 0
M  V30 5821 H 525.288 -2.82262 2.94605 0
M  V30 5822 H 523.963 -1.93529 3.68129 0
M  V30 5823 H 522.54 -3.01139 2.19931 0
M  V30 5824 N 524.725 -1.39134 -0.740242 0
M  V30 5825 C 526.141 -1.20623 -1.0451 0
M  V30 5826 C 526.341 -0.0641651 -2.01398 0
M  V30 5827 O 525.397 0.585843 -2.4561 0
M  V30 5828 C 526.71 -2.53815 -1.6124 0
M  V30 5829 C 528.258 -2.60615 -1.73346 0
M  V30 5830 C 528.733 -3.94015 -2.33486 0
M  V30 5831 N 530.224 -3.95627 -2.40902 0
M  V30 5832 C 530.959 -4.95616 -2.88361 0
M  V30 5833 N 530.455 -6.06003 -3.35756 0
M  V30 5834 N 532.248 -4.82998 -2.87523 0
M  V30 5835 H 524.399 -2.12176 -0.0975576 0
M  V30 5836 H 526.662 -0.942066 -0.105904 0
M  V30 5837 H 526.368 -3.37911 -0.975144 0
M  V30 5838 H 526.242 -2.73162 -2.6012 0
M  V30 5839 H 528.629 -1.76906 -2.36195 0
M  V30 5840 H 528.71 -2.45123 -0.731336 0
M  V30 5841 H 528.354 -4.78153 -1.71267 0
M  V30 5842 H 528.284 -4.06825 -3.34366 0
M  V30 5843 H 530.775 -3.15903 -2.07398 0
M  V30 5844 H 531.088 -6.78215 -3.70464 0
M  V30 5845 H 529.433 -6.09604 -3.33778 0
M  V30 5846 H 532.624 -3.95866 -2.49816 0
M  V30 5847 H 532.797 -5.61072 -3.24196 0
M  V30 5848 N 526.204 0.969867 -1.24223 0
M  V30 5849 C 527.452 1.70918 -1.0785 0
M  V30 5850 C 527.773 1.91186 0.383763 0
M  V30 5851 O 527.043 1.48806 1.27411 0
M  V30 5852 H 525.623 0.633334 -0.396103 0
M  V30 5853 H 528.285 1.16689 -1.56108 0
M  V30 5854 H 527.381 2.69455 -1.57482 0
M  V30 5855 N 527.682 1.05563 1.17022 0
M  V30 5856 C 529.093 0.793475 1.69 0
M  V30 5857 C 529.444 -0.683882 1.83895 0
M  V30 5858 O 528.569 -1.53116 1.5292 0
M  V30 5859 C 529.164 1.43376 3.06967 0
M  V30 5860 C 527.723 1.21956 3.56095 0
M  V30 5861 C 526.87 1.51494 2.3226 0
M  V30 5862 H 529.821 1.22008 1.01487 0
M  V30 5863 H 529.842 0.845068 3.70997 0
M  V30 5864 H 529.354 2.50899 2.96093 0
M  V30 5865 H 527.455 0.163749 3.7224 0
M  V30 5866 H 527.568 1.92713 4.38633 0
M  V30 5867 H 525.932 0.935175 2.3691 0
M  V30 5868 H 526.715 2.60159 2.23992 0
M  V30 5869 N 529.16 -1.33526 0.837174 0
M  V30 5870 C 530.576 -1.50727 0.524743 0
M  V30 5871 C 530.776 -1.77792 -0.948279 0
M  V30 5872 O 529.832 -1.83719 -1.73216 0
M  V30 5873 C 531.145 -2.66299 1.39661 0
M  V30 5874 C 532.693 -2.80183 1.39521 0
M  V30 5875 C 533.168 -3.98815 2.25189 0
M  V30 5876 N 534.659 -4.06047 2.2289 0
M  V30 5877 C 535.394 -4.97032 2.85915 0
M  V30 5878 N 534.89 -5.93143 3.57985 0
M  V30 5879 N 536.683 -4.90015 2.75394 0
M  V30 5880 H 528.834 -1.1422 1.79074 0
M  V30 5881 H 531.097 -0.561399 0.763894 0
M  V30 5882 H 530.803 -2.52974 2.4433 0
M  V30 5883 H 530.677 -3.61663 1.07145 0
M  V30 5884 H 533.064 -2.92942 0.356253 0
M  V30 5885 H 533.145 -1.85586 1.76044 0
M  V30 5886 H 532.789 -3.86817 3.29143 0
M  V30 5887 H 532.719 -4.92654 1.86009 0
M  V30 5888 H 535.21 -3.37262 1.70478 0
M  V30 5889 H 535.523 -6.59227 4.03286 0
M  V30 5890 H 533.868 -5.93223 3.62093 0
M  V30 5891 H 537.059 -4.13894 2.18654 0
M  V30 5892 H 537.232 -5.60724 3.24796 0
M  V30 5893 N 530.638 -0.59345 -1.46 0
M  V30 5894 C 532.054 -0.255965 -1.57534 0
M  V30 5895 C 532.254 1.24167 -1.58697 0
M  V30 5896 O 531.31 2.02398 -1.50968 0
M  V30 5897 C 532.623 -0.91466 -2.86451 0
M  V30 5898 C 534.171 -0.889253 -3.00102 0
M  V30 5899 C 534.646 -1.52769 -4.3177 0
M  V30 5900 N 536.137 -1.49253 -4.38495 0
M  V30 5901 C 536.872 -1.9558 -5.39014 0
M  V30 5902 N 536.368 -2.49929 -6.46148 0
M  V30 5903 N 538.161 -1.86432 -5.30282 0
M  V30 5904 H 530.312 -1.56604 -1.43489 0
M  V30 5905 H 532.575 -0.655207 -0.685133 0
M  V30 5906 H 532.281 -1.96861 -2.91442 0
M  V30 5907 H 532.155 -0.429356 -3.74748 0
M  V30 5908 H 534.542 0.156111 -2.94687 0
M  V30 5909 H 534.623 -1.41268 -2.13253 0
M  V30 5910 H 534.267 -2.57231 -4.37944 0
M  V30 5911 H 534.197 -0.979398 -5.17412 0
M  V30 5912 H 536.688 -1.09536 -3.61677 0
M  V30 5913 H 537.001 -2.83109 -7.19075 0
M  V30 5914 H 535.346 -2.53961 -6.46938 0
M  V30 5915 H 538.537 -1.43722 -4.4549 0
M  V30 5916 H 538.71 -2.22852 -6.08474 0
M  V30 5917 N 532.116 1.54067 -0.331816 0
M  V30 5918 C 533.048 2.22139 0.564538 0
M  V30 5919 C 534.061 1.22408 1.07332 0
M  V30 5920 O 535.25 1.4883 0.985481 0
M  V30 5921 C 532.35 2.87876 1.78831 0
M  V30 5922 C 531.523 4.13817 1.41682 0
M  V30 5923 C 530.582 4.63072 2.49901 0
M  V30 5924 O 529.608 5.27562 2.13699 0
M  V30 5925 N 530.81 4.38001 3.80967 0
M  V30 5926 H 533.575 2.99694 -0.0183736 0
M  V30 5927 H 531.136 1.61153 -0.155396 0
M  V30 5928 H 533.128 3.17747 2.50637 0
M  V30 5929 H 531.698 2.13977 2.27887 0
M  V30 5930 H 530.918 3.9062 0.530044 0
M  V30 5931 H 532.206 4.95762 1.14443 0
M  V30 5932 H 531.604 3.864 4.13173 0
M  V30 5933 H 530.161 4.72507 4.48977 0
M  V30 5934 N 533.594 0.0601682 1.57485 0
M  V30 5935 C 535.005 -0.474217 1.80577 0
M  V30 5936 C 535.356 -1.70365 0.973147 0
M  V30 5937 O 534.481 -2.15544 0.192306 0
M  V30 5938 C 535.076 -0.867102 3.27516 0
M  V30 5939 C 533.635 -1.34642 3.51495 0
M  V30 5940 C 532.782 -0.32594 2.75378 0
M  V30 5941 H 535.733 0.285973 1.56102 0
M  V30 5942 H 535.754 -1.72938 3.38929 0
M  V30 5943 H 535.266 0.0278927 3.8809 0
M  V30 5944 H 533.367 -2.2603 2.96212 0
M  V30 5945 H 533.48 -1.33237 4.60201 0
M  V30 5946 H 531.844 -0.800749 2.41785 0
M  V30 5947 H 532.627 0.561125 3.38683 0
M  V30 5948 N 535.072 -1.5615 -0.213296 0
M  V30 5949 C 536.488 -1.49327 -0.56336 0
M  V30 5950 C 536.688 -0.756826 -1.86747 0
M  V30 5951 O 535.744 -0.299866 -2.50713 0
M  V30 5952 C 537.057 -2.9392 -0.634944 0
M  V30 5953 C 538.605 -3.04487 -0.725013 0
M  V30 5954 C 539.08 -4.50456 -0.82787 0
M  V30 5955 N 540.571 -4.54533 -0.891876 0
M  V30 5956 C 541.306 -5.64766 -0.991315 0
M  V30 5957 N 540.802 -6.84733 -1.05419 0
M  V30 5958 N 542.595 -5.52637 -1.02709 0
M  V30 5959 H 534.746 -2.02453 0.642366 0
M  V30 5960 H 537.009 -0.920548 0.226487 0
M  V30 5961 H 536.715 -3.50783 0.253859 0
M  V30 5962 H 536.589 -3.46274 -1.49579 0
M  V30 5963 H 538.976 -2.47685 -1.60425 0
M  V30 5964 H 539.057 -2.55289 0.161669 0
M  V30 5965 H 538.701 -5.07878 0.0469464 0
M  V30 5966 H 538.631 -4.97369 -1.73009 0
M  V30 5967 H 541.122 -3.68141 -0.85327 0
M  V30 5968 H 541.435 -7.64493 -1.13007 0
M  V30 5969 H 539.78 -6.87427 -1.02318 0
M  V30 5970 H 542.971 -4.5784 -0.974687 0
M  V30 5971 H 543.144 -6.38576 -1.10113 0
M  V30 5972 N 536.55 0.480323 -1.50102 0
M  V30 5973 C 537.966 0.813295 -1.37323 0
M  V30 5974 C 538.166 1.97027 -0.422206 0
M  V30 5975 O 537.222 2.5212 0.138563 0
M  V30 5976 C 538.535 1.13404 -2.78496 0
M  V30 5977 C 540.083 1.24104 -2.87345 0
M  V30 5978 C 540.558 1.59497 -4.29331 0
M  V30 5979 N 542.049 1.66507 -4.32238 0
M  V30 5980 C 542.784 1.95378 -5.39087 0
M  V30 5981 N 542.28 2.22333 -6.56155 0
M  V30 5982 N 544.073 1.96803 -5.26522 0
M  V30 5983 H 536.224 -0.282291 -2.10516 0
M  V30 5984 H 538.487 -0.063752 -0.945854 0
M  V30 5985 H 538.193 0.357064 -3.49883 0
M  V30 5986 H 538.067 2.07251 -3.15162 0
M  V30 5987 H 540.454 2.00871 -2.16183 0
M  V30 5988 H 540.535 0.282593 -2.54234 0
M  V30 5989 H 540.179 0.832736 -5.01027 0
M  V30 5990 H 540.109 2.56477 -4.59921 0
M  V30 5991 H 542.6 1.47753 -3.47818 0
M  V30 5992 H 542.913 2.43611 -7.33399 0
M  V30 5993 H 541.258 2.19745 -6.59346 0
M  V30 5994 H 544.449 1.75235 -4.34062 0
M  V30 5995 H 544.622 2.18969 -6.09883 0
M  V30 5996 N 538.028 1.39524 0.732853 0
M  V30 5997 C 538.978 1.34905 1.83806 0
M  V30 5998 C 539.962 0.229546 1.59254 0
M  V30 5999 O 541.154 0.467255 1.70721 0
M  V30 6000 C 538.283 1.19699 3.21756 0
M  V30 6001 C 537.369 2.36359 3.5213 0
M  V30 6002 N 537.76 3.61834 3.53426 0
M  V30 6003 C 536.058 2.29363 3.82503 0
M  V30 6004 C 536.759 4.38992 3.81655 0
M  V30 6005 N 535.735 3.68606 3.99538 0
M  V30 6006 H 539.537 2.29882 1.83116 0
M  V30 6007 H 537.051 1.33051 0.931194 0
M  V30 6008 H 539.048 1.14472 4.00876 0
M  V30 6009 H 537.708 0.256739 3.23683 0
M  V30 6010 H 538.719 3.95228 3.34686 0
M  V30 6011 H 535.396 1.43612 3.92023 0
M  V30 6012 H 536.786 5.47763 3.89108 0
M  V30 6013 N 539.506 -0.963266 1.24736 0
M  V30 6014 C 540.922 -1.23273 1.01371 0
M  V30 6015 C 541.122 -1.99618 -0.274776 0
M  V30 6016 O 540.178 -2.32293 -0.989769 0
M  V30 6017 C 541.491 -2.01554 2.23152 0
M  V30 6018 C 543.039 -2.14629 2.27823 0
M  V30 6019 C 543.514 -2.96307 3.49237 0
M  V30 6020 N 545.005 -3.03887 3.49581 0
M  V30 6021 C 545.74 -3.67456 4.40186 0
M  V30 6022 N 545.236 -4.32706 5.41052 0
M  V30 6023 N 547.029 -3.64511 4.27888 0
M  V30 6024 H 539.18 -0.452294 2.07528 0
M  V30 6025 H 541.443 -0.262521 0.910926 0
M  V30 6026 H 541.149 -1.52847 3.1675 0
M  V30 6027 H 541.023 -3.02278 2.25628 0
M  V30 6028 H 543.41 -2.62537 1.34753 0
M  V30 6029 H 543.491 -1.13238 2.2937 0
M  V30 6030 H 543.135 -2.49091 4.42624 0
M  V30 6031 H 543.065 -3.97905 3.44933 0
M  V30 6032 H 545.556 -2.57477 2.76611 0
M  V30 6033 H 545.869 -4.79042 6.06415 0
M  V30 6034 H 544.214 -4.31361 5.44934 0
M  V30 6035 H 547.405 -3.12715 3.4832 0
M  V30 6036 H 547.578 -4.13768 4.98698 0
M  V30 6037 N 540.985 -1.06182 -1.16461 0
M  V30 6038 C 542.401 -0.785065 -1.38956 0
M  V30 6039 C 542.601 0.616103 -1.9185 0
M  V30 6040 O 541.657 1.37686 -2.11657 0
M  V30 6041 C 542.97 -1.84902 -2.37132 0
M  V30 6042 C 544.518 -1.8724 -2.50819 0
M  V30 6043 C 544.993 -2.92686 -3.52277 0
M  V30 6044 N 546.484 -2.91712 -3.59803 0
M  V30 6045 C 547.219 -3.69949 -4.38093 0
M  V30 6046 N 546.715 -4.58 -5.19815 0
M  V30 6047 N 548.508 -3.58346 -4.33064 0
M  V30 6048 H 540.659 -1.96569 -0.804634 0
M  V30 6049 H 542.922 -0.851747 -0.416211 0
M  V30 6050 H 542.628 -2.85518 -2.0536 0
M  V30 6051 H 542.502 -1.69908 -3.36766 0
M  V30 6052 H 544.889 -0.872827 -2.81897 0
M  V30 6053 H 544.97 -2.06311 -1.51226 0
M  V30 6054 H 544.614 -3.92835 -3.21937 0
M  V30 6055 H 544.544 -2.70864 -4.51598 0
M  V30 6056 H 547.035 -2.27876 -3.01464 0
M  V30 6057 H 547.348 -5.14357 -5.76764 0
M  V30 6058 H 545.693 -4.62056 -5.19162 0
M  V30 6059 H 548.884 -2.88943 -3.68279 0
M  V30 6060 H 549.057 -4.19563 -4.93833 0
M  V30 6061 N 542.463 1.3308 -0.844243 0
M  V30 6062 C 543.874 1.7992 -0.498566 0
M  V30 6063 C 544.225 1.69808 0.982834 0
M  V30 6064 O 543.35 1.25051 1.7661 0
M  V30 6065 C 543.945 3.26677 -0.898204 0
M  V30 6066 C 542.504 3.71513 -0.604583 0
M  V30 6067 C 541.651 2.54393 -1.10362 0
M  V30 6068 H 544.602 1.20526 -1.03244 0
M  V30 6069 H 544.623 3.79918 -0.21039 0
M  V30 6070 H 544.135 3.34004 -1.97643 0
M  V30 6071 H 542.236 3.69708 0.46335 0
M  V30 6072 H 542.349 4.64755 -1.16358 0
M  V30 6073 H 540.713 2.49246 -0.524273 0
M  V30 6074 H 541.496 2.6448 -2.18873 0
M  V30 6075 N 543.941 0.601185 1.45683 0
M  V30 6076 C 545.357 0.264315 1.57396 0
M  V30 6077 C 545.557 -1.23324 1.59353 0
M  V30 6078 O 544.613 -2.01594 1.52039 0
M  V30 6079 C 545.926 0.929839 2.85962 0
M  V30 6080 C 547.474 0.905156 2.99626 0
M  V30 6081 C 547.949 1.55057 4.30954 0
M  V30 6082 N 549.44 1.51576 4.37697 0
M  V30 6083 C 550.175 1.98436 5.37969 0
M  V30 6084 N 549.671 2.53352 6.44813 0
M  V30 6085 N 551.464 1.89242 5.29286 0
M  V30 6086 H 543.615 1.57363 1.42656 0
M  V30 6087 H 545.878 0.658831 0.681649 0
M  V30 6088 H 545.584 1.98404 2.90394 0
M  V30 6089 H 545.458 0.449224 3.74515 0
M  V30 6090 H 547.845 -0.14048 2.94765 0
M  V30 6091 H 547.926 1.42397 2.12501 0
M  V30 6092 H 547.57 2.5955 4.36573 0
M  V30 6093 H 547.5 1.00682 5.16886 0
M  V30 6094 H 549.991 1.11452 3.61091 0
M  V30 6095 H 550.304 2.86918 7.17564 0
M  V30 6096 H 548.649 2.57388 6.45582 0
M  V30 6097 H 551.84 1.46083 4.44722 0
M  V30 6098 H 552.013 2.26075 6.07284 0
M  V30 6099 N 545.419 -1.53889 0.339982 0
M  V30 6100 C 546.835 -1.59595 -0.0120752 0
M  V30 6101 C 547.035 -1.35605 -1.49042 0
M  V30 6102 O 546.091 -1.14856 -2.24865 0
M  V30 6103 C 547.404 -2.9774 0.420898 0
M  V30 6104 C 548.952 -3.1077 0.37294 0
M  V30 6105 C 549.427 -4.51286 0.781327 0
M  V30 6106 N 550.918 -4.57325 0.735374 0
M  V30 6107 C 551.653 -5.64194 1.02336 0
M  V30 6108 N 551.149 -6.7893 1.37933 0
M  V30 6109 N 552.942 -5.54051 0.947838 0
M  V30 6110 H 545.093 -1.67738 1.30299 0
M  V30 6111 H 547.356 -0.785385 0.530918 0
M  V30 6112 H 547.062 -3.20349 1.45152 0
M  V30 6113 H 546.936 -3.76639 -0.205721 0
M  V30 6114 H 549.323 -2.87886 -0.648505 0
M  V30 6115 H 549.404 -2.33939 1.03472 0
M  V30 6116 H 549.048 -4.74905 1.80077 0
M  V30 6117 H 548.978 -5.26511 0.0970679 0
M  V30 6118 H 551.469 -3.74931 0.472773 0
M  V30 6119 H 551.782 -7.56392 1.58402 0
M  V30 6120 H 550.127 -6.80386 1.41774 0
M  V30 6121 H 553.318 -4.63293 0.669115 0
M  V30 6122 H 553.491 -6.37246 1.17563 0
M  V30 6123 N 546.897 -0.0685191 -1.57451 0
M  V30 6124 C 548.143 0.602239 -1.93652 0
M  V30 6125 C 548.476 1.6946 -0.948526 0
M  V30 6126 O 547.751 1.94487 0.022782 0
M  V30 6127 C 548.034 1.18223 -3.4014 0
M  V30 6128 C 547.887 0.0967431 -4.49696 0
M  V30 6129 C 549.206 2.08872 -3.87377 0
M  V30 6130 H 546.325 0.217453 -0.70419 0
M  V30 6131 H 548.967 -0.133821 -1.89528 0
M  V30 6132 H 547.117 1.80953 -3.43785 0
M  V30 6133 H 548.789 -0.536155 -4.58174 0
M  V30 6134 H 547.032 -0.573063 -4.29998 0
M  V30 6135 H 547.703 0.542894 -5.49324 0
M  V30 6136 H 550.179 1.56081 -3.85717 0
M  V30 6137 H 549.055 2.46389 -4.90493 0
M  V30 6138 H 549.316 2.99572 -3.25129 0
M  V30 6139 N 548.375 1.56261 0.205012 0
M  V30 6140 C 549.624 1.79236 0.925058 0
M  V30 6141 C 549.937 0.640011 1.84833 0
M  V30 6142 O 551.143 0.753809 2.60826 0
M  V30 6143 C 549.599 3.17475 1.69522 0
M  V30 6144 C 549.207 4.40482 0.817269 0
M  V30 6145 C 550.951 3.49766 2.4055 0
M  V30 6146 C 548.858 5.69744 1.58573 0
M  V30 6147 H 547.788 0.668287 0.349153 0
M  V30 6148 H 550.439 1.82629 0.178544 0
M  V30 6149 H 548.821 3.08304 2.48526 0
M  V30 6150 H 549.995 4.60752 0.0665988 0
M  V30 6151 H 548.31 4.15827 0.218316 0
M  V30 6152 H 550.907 4.43573 2.98575 0
M  V30 6153 H 551.25 2.73041 3.14252 0
M  V30 6154 H 551.783 3.60341 1.68522 0
M  V30 6155 H 548.522 6.49407 0.891679 0
M  V30 6156 H 548.042 5.53509 2.31059 0
M  V30 6157 H 549.721 6.1051 2.14212 0
M  V30 6158 N 549.853 -0.472356 1.50355 0
M  V30 6159 C 550.816 -1.5529 1.68576 0
M  V30 6160 C 551.816 -1.50863 0.556511 0
M  V30 6161 O 553.006 -1.53505 0.823516 0
M  V30 6162 C 550.138 -2.94921 1.70981 0
M  V30 6163 H 551.331 -1.40451 2.64978 0
M  V30 6164 H 548.884 -0.698645 1.39816 0
M  V30 6165 H 549.619 -3.15204 0.762675 0
M  V30 6166 H 549.404 -2.99541 2.53017 0
M  V30 6167 H 550.894 -3.73372 1.87037 0
M  V30 6168 N 551.331 -1.39911 -0.725443 0
M  V30 6169 C 552.747 -1.21725 -1.03224 0
M  V30 6170 C 552.947 -0.0855224 -2.01318 0
M  V30 6171 O 552.003 0.55976 -2.46217 0
M  V30 6172 C 553.316 -2.55511 -1.58539 0
M  V30 6173 C 554.864 -2.62439 -1.70572 0
M  V30 6174 C 555.339 -3.9647 -2.29294 0
M  V30 6175 N 556.83 -3.98159 -2.36692 0
M  V30 6176 C 557.565 -4.98647 -2.83088 0
M  V30 6177 N 557.061 -6.0953 -3.2931 0
M  V30 6178 N 558.854 -4.8602 -2.82384 0
M  V30 6179 H 551.005 -2.12267 -0.075048 0
M  V30 6180 H 553.268 -0.943136 -0.0959066 0
M  V30 6181 H 552.974 -3.38926 -0.939249 0
M  V30 6182 H 552.848 -2.75905 -2.57208 0
M  V30 6183 H 555.235 -1.79401 -2.34306 0
M  V30 6184 H 555.316 -2.45885 -0.705297 0
M  V30 6185 H 554.96 -4.79942 -1.66186 0
M  V30 6186 H 554.89 -4.10349 -3.30032 0
M  V30 6187 H 557.381 -3.18085 -2.04035 0
M  V30 6188 H 557.694 -6.82106 -3.6325 0
M  V30 6189 H 556.039 -6.1311 -3.27294 0
M  V30 6190 H 559.23 -3.98493 -2.45603 0
M  V30 6191 H 559.403 -5.64478 -3.18226 0
M  V30 6192 N 552.809 0.956637 -1.25245 0
M  V30 6193 C 554.039 1.7332 -1.12445 0
M  V30 6194 C 554.447 1.86392 0.324732 0
M  V30 6195 O 553.79 1.35967 1.23526 0
M  V30 6196 C 553.852 3.16603 -1.70303 0
M  V30 6197 C 553.516 3.26966 -3.19284 0
M  V30 6198 C 554.513 3.11434 -4.16299 0
M  V30 6199 C 552.198 3.50851 -3.59456 0
M  V30 6200 C 554.192 3.1963 -5.51467 0
M  V30 6201 C 551.879 3.58684 -4.94761 0
M  V30 6202 C 552.877 3.43087 -5.90576 0
M  V30 6203 O 552.565 3.50598 -7.2342 0
M  V30 6204 H 552.297 0.549981 -0.393061 0
M  V30 6205 H 554.851 1.20892 -1.66055 0
M  V30 6206 H 553.081 3.70385 -1.11138 0
M  V30 6207 H 554.77 3.76109 -1.52632 0
M  V30 6208 H 555.536 2.92853 -3.86604 0
M  V30 6209 H 551.415 3.62053 -2.85375 0
M  V30 6210 H 554.959 3.07373 -6.26233 0
M  V30 6211 H 550.856 3.76782 -5.24124 0
M  V30 6212 H 551.624 3.67242 -7.31489 0
M  V30 6213 N 554.287 1.06798 1.15896 0
M  V30 6214 C 555.703 0.792423 1.38538 0
M  V30 6215 C 555.903 -0.60592 1.92174 0
M  V30 6216 O 554.959 -1.36561 2.12385 0
M  V30 6217 C 556.272 1.86157 2.36149 0
M  V30 6218 C 557.82 1.88567 2.49823 0
M  V30 6219 C 558.295 2.9455 3.5072 0
M  V30 6220 N 559.786 2.93616 3.58251 0
M  V30 6221 C 560.521 3.72267 4.36125 0
M  V30 6222 N 560.017 4.60751 5.17379 0
M  V30 6223 N 561.81 3.60637 4.31158 0
M  V30 6224 H 553.961 1.96993 0.794198 0
M  V30 6225 H 556.224 0.853942 0.411688 0
M  V30 6226 H 555.93 2.86603 2.03843 0
M  V30 6227 H 555.804 1.71692 3.3586 0
M  V30 6228 H 558.191 0.887765 2.8143 0
M  V30 6229 H 558.272 2.0711 1.5013 0
M  V30 6230 H 557.916 3.94537 3.19849 0
M  V30 6231 H 557.846 2.73255 4.50155 0
M  V30 6232 H 560.337 2.29472 3.00252 0
M  V30 6233 H 560.65 5.17408 5.74028 0
M  V30 6234 H 558.995 4.64803 5.16704 0
M  V30 6235 H 562.186 2.90892 3.66742 0
M  V30 6236 H 562.359 4.22176 4.91601 0
M  V30 6237 N 555.766 -1.3263 0.851289 0
M  V30 6238 C 556.996 -2.01271 0.466222 0
M  V30 6239 C 557.404 -1.64156 -0.940714 0
M  V30 6240 O 556.747 -0.857109 -1.62479 0
M  V30 6241 C 556.809 -3.55695 0.521672 0
M  V30 6242 C 556.473 -4.16227 1.88691 0
M  V30 6243 C 557.47 -4.34699 2.85189 0
M  V30 6244 C 555.155 -4.52377 2.18313 0
M  V30 6245 C 557.149 -4.88484 4.09465 0
M  V30 6246 C 554.836 -5.05868 3.42843 0
M  V30 6247 C 555.834 -5.23869 4.38235 0
M  V30 6248 O 555.522 -5.76218 5.6056 0
M  V30 6249 H 555.254 -0.651034 0.18202 0
M  V30 6250 H 557.808 -1.7026 1.14894 0
M  V30 6251 H 556.038 -3.86086 -0.217888 0
M  V30 6252 H 557.727 -4.05613 0.152682 0
M  V30 6253 H 558.493 -4.07107 2.63607 0
M  V30 6254 H 554.372 -4.37652 1.44851 0
M  V30 6255 H 557.916 -5.02451 4.83931 0
M  V30 6256 H 553.813 -5.32891 3.64277 0
M  V30 6257 H 554.581 -5.94616 5.62471 0
M  V30 6258 N 557.244 -0.608902 -1.45362 0
M  V30 6259 C 558.176 0.147318 -2.28726 0
M  V30 6260 C 559.189 0.830468 -1.40025 0
M  V30 6261 O 560.378 0.695636 -1.64387 0
M  V30 6262 C 557.478 1.22968 -3.15804 0
M  V30 6263 C 556.651 0.633391 -4.3279 0
M  V30 6264 C 555.71 1.60682 -5.01067 0
M  V30 6265 O 554.736 1.13261 -5.57818 0
M  V30 6266 N 555.938 2.94123 -5.00472 0
M  V30 6267 H 558.703 -0.568014 -2.94268 0
M  V30 6268 H 556.264 -0.448479 -1.55564 0
M  V30 6269 H 558.256 1.88072 -3.58345 0
M  V30 6270 H 556.826 1.84752 -2.52162 0
M  V30 6271 H 556.046 -0.195762 -3.93714 0
M  V30 6272 H 557.334 0.215255 -5.08344 0
M  V30 6273 H 556.732 3.3525 -4.55657 0
M  V30 6274 H 555.289 3.54646 -5.46872 0
M  V30 6275 N 558.722 1.53707 -0.348139 0
M  V30 6276 C 559.654 2.22725 0.540946 0
M  V30 6277 C 560.667 1.2354 1.06027 0
M  V30 6278 O 561.856 1.49867 0.96964 0
M  V30 6279 C 558.956 2.89756 1.75768 0
M  V30 6280 C 558.129 4.15297 1.37285 0
M  V30 6281 C 557.188 4.65697 2.44976 0
M  V30 6282 O 556.214 5.29798 2.08092 0
M  V30 6283 N 557.416 4.42017 3.763 0
M  V30 6284 H 560.181 2.99658 -0.0501592 0
M  V30 6285 H 557.742 1.60979 -0.17248 0
M  V30 6286 H 559.734 3.20388 2.47252 0
M  V30 6287 H 558.304 2.16382 2.25605 0
M  V30 6288 H 557.524 3.9116 0.488584 0
M  V30 6289 H 558.812 4.96948 1.09179 0
M  V30 6290 H 558.21 3.9076 4.09051 0
M  V30 6291 H 556.767 4.77242 4.4394 0
M  V30 6292 N 560.2 0.0768682 1.57412 0
M  V30 6293 C 561.446 -0.591961 1.93968 0
M  V30 6294 C 561.779 -1.68954 0.9575 0
M  V30 6295 O 561.054 -1.94496 -0.0124675 0
M  V30 6296 C 561.337 -1.16418 3.40762 0
M  V30 6297 C 561.19 -0.0728933 4.49741 0
M  V30 6298 C 562.509 -2.06814 3.88479 0
M  V30 6299 H 559.628 -0.213716 0.705333 0
M  V30 6300 H 562.27 0.14387 1.89455 0
M  V30 6301 H 560.42 -1.79128 3.4474 0
M  V30 6302 H 562.092 0.560446 4.57883 0
M  V30 6303 H 560.335 0.595859 4.29688 0
M  V30 6304 H 561.006 -0.513755 5.49604 0
M  V30 6305 H 563.482 -1.54033 3.8654 0
M  V30 6306 H 562.358 -2.43785 4.91793 0
M  V30 6307 H 562.619 -2.97844 3.26713 0
M  V30 6308 N 561.678 -1.56367 -0.196722 0
M  V30 6309 C 562.924 -1.80796 -0.918725 0
M  V30 6310 C 563.257 -0.650645 -1.82976 0
M  V30 6311 O 562.532 0.348889 -1.91345 0
M  V30 6312 C 562.815 -3.15472 -1.73636 0
M  V30 6313 C 562.668 -4.41693 -0.85015 0
M  V30 6314 C 563.987 -3.46824 -2.70927 0
M  V30 6315 H 561.106 -0.657702 -0.332561 0
M  V30 6316 H 563.748 -1.89086 -0.186186 0
M  V30 6317 H 561.898 -3.08536 -2.36088 0
M  V30 6318 H 563.57 -4.60673 -0.240459 0
M  V30 6319 H 561.813 -4.33517 -0.156785 0
M  V30 6320 H 562.484 -5.32419 -1.45719 0
M  V30 6321 H 564.96 -3.54049 -2.18607 0
M  V30 6322 H 563.836 -4.4218 -3.25219 0
M  V30 6323 H 564.097 -2.70236 -3.49893 0
M  V30 6324 N 563.156 0.464375 -1.50603 0
M  V30 6325 C 564.402 1.21776 -1.62168 0
M  V30 6326 C 564.735 1.91476 -0.324154 0
M  V30 6327 O 564.01 1.8242 0.674782 0
M  V30 6328 C 564.293 2.25614 -2.80661 0
M  V30 6329 C 564.146 1.60175 -4.20314 0
M  V30 6330 C 565.465 3.26862 -2.94702 0
M  V30 6331 H 562.584 0.44137 -0.590222 0
M  V30 6332 H 565.226 0.510623 -1.8301 0
M  V30 6333 H 563.376 2.85923 -2.63021 0
M  V30 6334 H 565.048 1.03411 -4.4956 0
M  V30 6335 H 563.291 0.904697 -4.24261 0
M  V30 6336 H 563.962 2.35665 -4.99165 0
M  V30 6337 H 566.438 2.76582 -3.10872 0
M  V30 6338 H 565.314 3.96839 -3.79223 0
M  V30 6339 H 565.575 3.91382 -2.05603 0
M  V30 6340 N 564.634 1.40294 0.718013 0
M  V30 6341 C 565.882 1.38167 1.47494 0
M  V30 6342 C 566.203 -0.01607 1.94993 0
M  V30 6343 O 565.473 -0.970396 1.70177 0
M  V30 6344 H 564.053 0.508505 0.547203 0
M  V30 6345 H 566.715 1.75324 0.851322 0
M  V30 6346 H 565.811 2.05503 2.34894 0
M  V30 6347 N 566.112 -0.949982 1.2575 0
M  V30 6348 C 567.06 -2.06869 1.06339 0
M  V30 6349 C 568.054 -1.69399 -0.00708901 0
M  V30 6350 O 569.26 -1.79383 0.148897 0
M  V30 6351 H 565.635 -0.677197 0.326969 0
M  V30 6352 H 567.606 -2.20396 2.01167 0
M  V30 6353 C 566.355 -3.40503 0.703769 0
M  V30 6354 H 565.678 -3.69807 1.51931 0
M  V30 6355 H 567.118 -4.19623 0.607677 0
M  V30 6356 C 565.577 -3.31685 -0.5905 0
M  V30 6357 O 566.107 -3.67085 -1.63131 0
M  V30 6358 N 564.313 -2.84797 -0.577859 0
M  V30 6359 H 563.86 -2.56186 0.26951 0
M  V30 6360 H 563.818 -2.79279 -1.44398 0
M  V30 6361 N 567.59 -1.07411 -1.15328 0
M  V30 6362 C 568.836 -0.798831 -1.86404 0
M  V30 6363 C 569.169 0.673433 -1.8215 0
M  V30 6364 O 568.444 1.49428 -1.24505 0
M  V30 6365 C 568.727 -1.30846 -3.35487 0
M  V30 6366 C 568.58 -2.84532 -3.4837 0
M  V30 6367 C 569.899 -0.925486 -4.30259 0
M  V30 6368 H 567.018 -0.291659 -0.676834 0
M  V30 6369 H 569.66 -1.332 -1.35491 0
M  V30 6370 H 567.81 -0.854916 -3.78977 0
M  V30 6371 H 569.482 -3.3818 -3.13739 0
M  V30 6372 H 567.725 -3.22699 -2.8991 0
M  V30 6373 H 568.396 -3.15259 -4.53118 0
M  V30 6374 H 570.872 -1.3163 -3.94731 0
M  V30 6375 H 569.748 -1.3094 -5.33053 0
M  V30 6376 H 570.009 0.168525 -4.41779 0
M  V30 6377 N 569.068 1.32177 -0.85831 0
M  V30 6378 C 570 2.27688 -0.262835 0
M  V30 6379 C 571.013 1.52588 0.567513 0
M  V30 6380 O 572.202 1.74156 0.391407 0
M  V30 6381 C 569.302 3.32668 0.646937 0
M  V30 6382 C 568.475 4.37148 -0.148372 0
M  V30 6383 C 567.534 5.21686 0.687728 0
M  V30 6384 O 566.56 5.69074 0.119934 0
M  V30 6385 N 567.762 5.44892 2.00182 0
M  V30 6386 H 570.527 2.79426 -1.08356 0
M  V30 6387 H 568.088 1.45076 -0.718647 0
M  V30 6388 H 570.08 3.86134 1.2117 0
M  V30 6389 H 568.65 2.81061 1.36834 0
M  V30 6390 H 567.87 3.83915 -0.894572 0
M  V30 6391 H 569.158 5.04038 -0.694514 0
M  V30 6392 H 568.556 5.08128 2.4864 0
M  V30 6393 H 567.113 6.0134 2.51463 0
M  V30 6394 N 570.547 0.616602 1.45037 0
M  V30 6395 C 571.824 0.0469086 1.95544 0
M  V30 6396 C 572.204 -1.42345 1.55888 0
M  V30 6397 O 571.552 -2.13055 0.825824 0
M  V30 6398 C 571.762 0.254489 3.48071 0
M  V30 6399 C 573.11 0.140025 4.24369 0
M  V30 6400 O 574.134 0.185084 3.55719 0
M  V30 6401 O 572.993 0.0327034 5.4649 0
M  V30 6402 H 570.087 -0.0306051 0.826433 0
M  V30 6403 H 572.633 0.687293 1.55159 0
M  V30 6404 H 571.405 1.27532 3.69934 0
M  V30 6405 H 571.028 -0.42073 3.95368 0
M  V30 6406 N 572.025 -1.5352 0.356285 0
M  V30 6407 C 573.273 -2.00719 -0.235837 0
M  V30 6408 C 573.594 -1.24551 -1.5004 0
M  V30 6409 O 572.864 -0.356185 -1.92635 0
M  V30 6410 H 571.444 -0.741542 -0.0901366 0
M  V30 6411 H 574.106 -1.88887 0.480378 0
M  V30 6412 H 573.202 -3.08551 -0.469357 0
M  V30 6413 N 573.503 -0.0852151 -1.57369 0
M  V30 6414 C 574.433 0.874556 -2.16503 0
M  V30 6415 C 575.414 1.30111 -1.09568 0
M  V30 6416 O 576.599 1.36977 -1.37662 0
M  V30 6417 C 573.729 2.13731 -2.73745 0
M  V30 6418 C 572.683 1.84971 -3.85966 0
M  V30 6419 C 572.009 3.17991 -4.29867 0
M  V30 6420 C 573.309 1.14442 -5.09608 0
M  V30 6421 H 575.003 0.381899 -2.96954 0
M  V30 6422 H 572.549 0.18225 -1.42842 0
M  V30 6423 H 574.502 2.81302 -3.13763 0
M  V30 6424 H 573.226 2.65263 -1.90534 0
M  V30 6425 H 571.885 1.19801 -3.46473 0
M  V30 6426 H 571.533 3.6739 -3.4356 0
M  V30 6427 H 571.233 2.99534 -5.05523 0
M  V30 6428 H 572.757 3.86737 -4.72511 0
M  V30 6429 H 574.171 1.72105 -5.46857 0
M  V30 6430 H 572.568 1.06197 -5.90629 0
M  V30 6431 H 573.638 0.12559 -4.84737 0
M  V30 6432 N 574.981 1.5647 0.188427 0
M  V30 6433 C 576.23 1.80207 0.905995 0
M  V30 6434 C 576.543 0.659579 1.84144 0
M  V30 6435 O 577.749 0.781431 2.60011 0
M  V30 6436 C 576.205 3.19255 1.66145 0
M  V30 6437 C 575.813 4.41324 0.770504 0
M  V30 6438 C 577.557 3.52298 2.36826 0
M  V30 6439 C 575.464 5.71394 1.52521 0
M  V30 6440 H 574.394 0.671953 0.342045 0
M  V30 6441 H 577.045 1.82808 0.159164 0
M  V30 6442 H 575.427 3.10922 2.45242 0
M  V30 6443 H 576.601 4.60797 0.0177261 0
M  V30 6444 H 574.916 4.16035 0.174199 0
M  V30 6445 H 577.513 4.46715 2.93854 0
M  V30 6446 H 577.856 2.76359 3.11338 0
M  V30 6447 H 578.389 3.62108 1.6469 0
M  V30 6448 H 575.128 6.50316 0.82275 0
M  V30 6449 H 574.648 5.55928 2.25175 0
M  V30 6450 H 576.327 6.12747 2.07725 0
M  V30 6451 N 576.459 -0.456382 1.50847 0
M  V30 6452 C 577.407 -1.57318 1.71329 0
M  V30 6453 C 578.401 -1.59187 0.579287 0
M  V30 6454 O 579.607 -1.6316 0.76018 0
M  V30 6455 H 575.982 -0.5223 0.541024 0
M  V30 6456 H 577.953 -1.3721 2.64983 0
M  V30 6457 C 576.702 -2.95142 1.83811 0
M  V30 6458 H 576.025 -2.94428 2.70467 0
M  V30 6459 H 577.465 -3.72702 2.02161 0
M  V30 6460 C 575.924 -3.31636 0.593224 0
M  V30 6461 O 576.454 -4.00852 -0.260898 0
M  V30 6462 N 574.66 -2.87205 0.442902 0
M  V30 6463 H 574.207 -2.31051 1.13901 0
M  V30 6464 H 574.165 -3.11986 -0.38884 0
M  V30 6465 N 577.937 -1.40673 -0.710563 0
M  V30 6466 C 579.183 -1.39428 -1.47267 0
M  V30 6467 C 579.516 0.00182129 -1.942 0
M  V30 6468 O 578.791 0.971387 -1.68506 0
M  V30 6469 C 579.074 -2.38812 -2.6952 0
M  V30 6470 C 578.927 -3.87467 -2.28449 0
M  V30 6471 C 580.246 -2.3566 -3.71689 0
M  V30 6472 H 577.365 -0.507768 -0.534173 0
M  V30 6473 H 580.007 -1.71843 -0.810547 0
M  V30 6474 H 578.157 -2.113 -3.26013 0
M  V30 6475 H 579.829 -4.25825 -1.77399 0
M  V30 6476 H 578.072 -4.03058 -1.60395 0
M  V30 6477 H 578.743 -4.5253 -3.16103 0
M  V30 6478 H 581.219 -2.6004 -3.24836 0
M  V30 6479 H 580.095 -3.07237 -4.54859 0
M  V30 6480 H 580.356 -1.36996 -4.20339 0
M  V30 6481 N 579.415 0.9433 -1.26252 0
M  V30 6482 C 580.325 2.07532 -1.09397 0
M  V30 6483 C 581.341 1.73977 -0.0280449 0
M  V30 6484 O 582.517 2.00067 -0.231337 0
M  V30 6485 C 579.582 3.39002 -0.726523 0
M  V30 6486 C 578.643 3.86353 -1.87163 0
M  V30 6487 C 577.876 5.11549 -1.52162 0
M  V30 6488 O 578.099 5.68834 -0.422385 0
M  V30 6489 O 577.033 5.53889 -2.35565 0
M  V30 6490 H 580.859 2.24658 -2.04359 0
M  V30 6491 H 578.444 1.05988 -1.05295 0
M  V30 6492 H 580.326 4.18 -0.534236 0
M  V30 6493 H 579.001 3.2312 0.193721 0
M  V30 6494 H 577.908 3.0831 -2.11886 0
M  V30 6495 H 579.241 4.06752 -2.77152 0
M  V30 6496 N 580.893 1.08022 1.14757 0
M  V30 6497 C 582.17 0.720386 1.81851 0
M  V30 6498 C 582.55 -0.796375 1.95502 0
M  V30 6499 O 581.898 -1.71339 1.51179 0
M  V30 6500 C 582.108 1.44273 3.17783 0
M  V30 6501 C 583.456 1.59925 3.93331 0
M  V30 6502 O 584.48 1.40407 3.2736 0
M  V30 6503 O 583.339 1.92096 5.11626 0
M  V30 6504 H 580.433 0.257142 0.786007 0
M  V30 6505 H 582.979 1.18155 1.21809 0
M  V30 6506 H 581.751 2.47618 3.02987 0
M  V30 6507 H 581.374 0.97279 3.85516 0
M  V30 6508 N 582.371 -1.3172 0.865308 0
M  V30 6509 C 583.619 -1.96487 0.472995 0
M  V30 6510 C 583.94 -1.68761 -0.976975 0
M  V30 6511 O 583.21 -1.00051 -1.68424 0
M  V30 6512 H 581.79 -0.726947 0.171922 0
M  V30 6513 H 584.452 -1.60612 1.10407 0
M  V30 6514 H 583.548 -3.0574 0.62687 0
M  V30 6515 N 583.85 -0.624285 -1.44708 0
M  V30 6516 C 585.096 -0.126237 -2.02407 0
M  V30 6517 C 585.428 1.24618 -1.48943 0
M  V30 6518 O 584.704 1.82569 -0.670742 0
M  V30 6519 C 584.986 -0.105449 -3.59946 0
M  V30 6520 C 584.84 -1.50972 -4.23707 0
M  V30 6521 C 586.159 0.573629 -4.36346 0
M  V30 6522 H 583.278 -0.0473472 -0.735478 0
M  V30 6523 H 585.92 -0.799452 -1.72362 0
M  V30 6524 H 584.07 0.46783 -3.85673 0
M  V30 6525 H 585.742 -2.13136 -4.0911 0
M  V30 6526 H 583.985 -2.0656 -3.81465 0
M  V30 6527 H 584.656 -1.44727 -5.32689 0
M  V30 6528 H 587.132 0.0861787 -4.16011 0
M  V30 6529 H 586.008 0.557338 -5.46063 0
M  V30 6530 H 586.269 1.64276 -4.10446 0
M  V30 6531 N 585.328 1.53329 -0.364422 0
M  V30 6532 C 586.553 2.06132 0.229033 0
M  V30 6533 C 586.978 1.23625 1.41769 0
M  V30 6534 O 586.336 0.255038 1.79497 0
M  V30 6535 C 586.384 3.55544 0.60174 0
M  V30 6536 O 585.488 3.75771 1.69912 0
M  V30 6537 H 584.829 0.663148 0.0336213 0
M  V30 6538 H 587.359 1.97758 -0.524689 0
M  V30 6539 H 587.369 3.98549 0.873073 0
M  V30 6540 H 586.044 4.15039 -0.267421 0
M  V30 6541 H 584.621 3.44663 1.42343 0
M  V30 6542 N 586.806 0.0935595 1.57322 0
M  V30 6543 C 588.031 -0.582324 1.99057 0
M  V30 6544 C 588.456 -1.61025 0.972242 0
M  V30 6545 O 587.814 -1.81202 -0.0594622 0
M  V30 6546 C 587.862 -1.20799 3.39765 0
M  V30 6547 O 586.966 -2.32382 3.40694 0
M  V30 6548 H 586.307 -0.147884 0.647323 0
M  V30 6549 H 588.837 0.174516 2.03854 0
M  V30 6550 H 588.847 -1.54966 3.77425 0
M  V30 6551 H 587.522 -0.454914 4.13405 0
M  V30 6552 H 586.099 -1.99845 3.14827 0
M  V30 6553 N 588.284 -1.56567 -0.180126 0
M  V30 6554 C 589.214 -1.98753 -1.22553 0
M  V30 6555 C 590.195 -0.86175 -1.46656 0
M  V30 6556 O 591.38 -1.12719 -1.58139 0
M  V30 6557 C 588.51 -2.33988 -2.56645 0
M  V30 6558 C 587.464 -3.49445 -2.47128 0
M  V30 6559 C 586.79 -3.70397 -3.8563 0
M  V30 6560 C 588.09 -4.83171 -1.98352 0
M  V30 6561 H 589.784 -2.86332 -0.874896 0
M  V30 6562 H 587.33 -1.37757 -0.419414 0
M  V30 6563 H 589.283 -2.62097 -3.29974 0
M  V30 6564 H 588.007 -1.43309 -2.93479 0
M  V30 6565 H 586.666 -3.2145 -1.76254 0
M  V30 6566 H 586.314 -2.77023 -4.19842 0
M  V30 6567 H 586.014 -4.48077 -3.80132 0
M  V30 6568 H 587.538 -4.00897 -4.60558 0
M  V30 6569 H 588.952 -5.10213 -2.61449 0
M  V30 6570 H 587.349 -5.64425 -2.03823 0
M  V30 6571 H 588.419 -4.75753 -0.937402 0
M  V30 6572 N 589.762 0.448376 -1.51087 0
M  V30 6573 C 591.173 1.0286 -1.5581 0
M  V30 6574 C 591.524 1.92583 -0.374989 0
M  V30 6575 O 590.649 2.10316 0.509533 0
M  V30 6576 C 591.244 1.87223 -2.8237 0
M  V30 6577 C 589.803 2.40314 -2.897 0
M  V30 6578 C 588.95 1.19238 -2.50355 0
M  V30 6579 H 591.901 0.230075 -1.57023 0
M  V30 6580 H 591.922 2.72553 -2.6551 0
M  V30 6581 H 591.434 1.21894 -3.68461 0
M  V30 6582 H 589.535 3.09129 -2.08014 0
M  V30 6583 H 589.648 2.73866 -3.93108 0
M  V30 6584 H 588.012 1.53428 -2.03303 0
M  V30 6585 H 588.795 0.555367 -3.38778 0
M  V30 6586 N 591.24 1.41047 0.703093 0
M  V30 6587 C 592.489 1.39301 1.4587 0
M  V30 6588 C 592.802 0.00267077 1.956 0
M  V30 6589 O 594.008 -0.137414 2.71152 0
M  V30 6590 C 592.464 2.44891 2.63735 0
M  V30 6591 C 592.072 3.89796 2.20824 0
M  V30 6592 C 593.816 2.5227 3.41409 0
M  V30 6593 C 591.723 4.86955 3.35602 0
M  V30 6594 H 590.653 0.518005 0.547893 0
M  V30 6595 H 593.304 1.66839 0.764009 0
M  V30 6596 H 591.686 2.10472 3.35436 0
M  V30 6597 H 592.86 4.33424 1.56461 0
M  V30 6598 H 591.175 3.86008 1.56163 0
M  V30 6599 H 593.772 3.22044 4.26839 0
M  V30 6600 H 594.115 1.55714 3.86081 0
M  V30 6601 H 594.648 2.85742 2.7676 0
M  V30 6602 H 591.387 5.84888 2.9595 0
M  V30 6603 H 590.907 4.47982 3.98839 0
M  V30 6604 H 592.586 5.07361 4.01489 0
M  V30 6605 N 592.718 -0.936591 1.26751 0
M  V30 6606 C 593.946 -1.71758 1.15355 0
M  V30 6607 C 594.361 -1.86549 -0.290683 0
M  V30 6608 O 593.718 -1.37616 -1.19868 0
M  V30 6609 C 593.769 -3.12193 1.82258 0
M  V30 6610 O 593.49 -2.98105 3.21038 0
M  V30 6611 C 594.991 -4.06485 1.76875 0
M  V30 6612 H 592.211 -0.537636 0.401483 0
M  V30 6613 H 594.755 -1.17382 1.67457 0
M  V30 6614 H 592.91 -3.63456 1.34083 0
M  V30 6615 H 593.324 -3.86824 3.54214 0
M  V30 6616 H 594.798 -5.02569 2.28316 0
M  V30 6617 H 595.275 -4.32986 0.736216 0
M  V30 6618 H 595.881 -3.61144 2.24623 0
M  V30 6619 N 594.196 -1.08629 -1.14182 0
M  V30 6620 C 595.607 -0.838003 -1.66836 0
M  V30 6621 C 595.958 0.634885 -1.85644 0
M  V30 6622 O 595.083 1.49008 -1.56926 0
M  V30 6623 C 595.678 -1.51465 -3.03058 0
M  V30 6624 C 594.237 -1.31355 -3.52736 0
M  V30 6625 C 593.384 -1.57599 -2.28162 0
M  V30 6626 H 596.335 -1.24656 -0.982165 0
M  V30 6627 H 596.356 -0.943134 -3.68626 0
M  V30 6628 H 595.868 -2.58661 -2.89337 0
M  V30 6629 H 593.969 -0.262384 -3.71675 0
M  V30 6630 H 594.082 -2.04275 -4.33369 0
M  V30 6631 H 592.446 -0.997659 -2.34348 0
M  V30 6632 H 593.229 -2.66006 -2.17015 0
M  V30 6633 N 595.674 1.31259 -0.872281 0
M  V30 6634 C 596.637 2.26744 -0.334656 0
M  V30 6635 C 597.637 1.52307 0.515681 0
M  V30 6636 O 598.827 1.71148 0.324656 0
M  V30 6637 C 595.959 3.36841 0.524482 0
M  V30 6638 H 597.152 2.75812 -1.17762 0
M  V30 6639 H 594.705 1.42232 -0.648064 0
M  V30 6640 H 595.44 2.93069 1.38855 0
M  V30 6641 H 595.225 3.92009 -0.0844299 0
M  V30 6642 H 596.715 4.07944 0.892838 0
M  V30 6643 N 597.152 0.631951 1.44375 0
M  V30 6644 C 598.084 -0.110911 2.28931 0
M  V30 6645 C 599.097 -0.808086 1.41329 0
M  V30 6646 O 600.286 -0.669396 1.65473 0
M  V30 6647 C 597.386 -1.17928 3.1772 0
M  V30 6648 C 596.559 -0.564458 4.33743 0
M  V30 6649 C 595.618 -1.5269 5.0356 0
M  V30 6650 O 594.644 -1.04372 5.59549 0
M  V30 6651 N 595.846 -2.86123 5.05088 0
M  V30 6652 H 598.611 0.614758 2.93327 0
M  V30 6653 H 596.172 0.473171 1.54831 0
M  V30 6654 H 598.164 -1.82348 3.61291 0
M  V30 6655 H 596.734 -1.80717 2.55069 0
M  V30 6656 H 595.954 0.258373 3.93352 0
M  V30 6657 H 597.242 -0.134355 5.08623 0
M  V30 6658 H 596.64 -3.27959 4.60933 0
M  V30 6659 H 595.197 -3.45901 5.52445 0
M  V30 6660 N 598.631 -1.53133 0.372548 0
M  V30 6661 C 599.594 -2.24569 -0.458389 0
M  V30 6662 C 600.594 -1.25603 -1.00402 0
M  V30 6663 O 601.784 -1.49827 -0.888672 0
M  V30 6664 C 598.916 -2.98783 -1.6414 0
M  V30 6665 H 600.109 -2.99436 0.166799 0
M  V30 6666 H 597.662 -1.55805 0.124357 0
M  V30 6667 H 598.397 -2.28176 -2.30448 0
M  V30 6668 H 598.182 -3.71404 -1.25704 0
M  V30 6669 H 599.672 -3.53068 -2.23008 0
M  V30 6670 N 600.109 -0.101901 -1.5727 0
M  V30 6671 C 601.52 0.426173 -1.81771 0
M  V30 6672 C 601.871 1.67725 -1.01797 0
M  V30 6673 O 600.996 2.14958 -0.249386 0
M  V30 6674 C 601.591 0.779962 -3.297 0
M  V30 6675 C 600.15 1.25275 -3.54941 0
M  V30 6676 C 599.297 0.252814 -2.76145 0
M  V30 6677 H 602.248 -0.32726 -1.55289 0
M  V30 6678 H 602.269 1.63891 -3.43395 0
M  V30 6679 H 601.781 -0.130778 -3.8788 0
M  V30 6680 H 599.882 2.18097 -3.021 0
M  V30 6681 H 599.995 1.20988 -4.63572 0
M  V30 6682 H 598.359 0.736362 -2.43823 0
M  V30 6683 H 599.142 -0.650724 -3.37076 0
M  V30 6684 N 601.587 1.56661 0.17182 0
M  V30 6685 C 602.517 1.99401 1.21498 0
M  V30 6686 C 603.498 0.869516 1.46197 0
M  V30 6687 O 604.683 1.13556 1.57539 0
M  V30 6688 C 601.813 2.35346 2.55401 0
M  V30 6689 C 600.767 3.5075 2.45272 0
M  V30 6690 C 600.093 3.72437 3.8366 0
M  V30 6691 C 601.393 4.84216 1.95787 0
M  V30 6692 H 603.087 2.86792 0.859699 0
M  V30 6693 H 600.633 1.37977 0.412103 0
M  V30 6694 H 602.586 2.63843 3.2858 0
M  V30 6695 H 601.31 1.44864 2.92715 0
M  V30 6696 H 599.969 3.2238 1.74547 0
M  V30 6697 H 599.617 2.79246 4.18367 0
M  V30 6698 H 599.317 4.50087 3.77751 0
M  V30 6699 H 600.841 4.03334 4.58426 0
M  V30 6700 H 602.255 5.11592 2.5874 0
M  V30 6701 H 600.652 5.65498 2.00827 0
M  V30 6702 H 601.722 4.76243 0.912159 0
M  V30 6703 N 603.065 -0.440357 1.51323 0
M  V30 6704 C 604.028 -1.51679 1.71832 0
M  V30 6705 C 605.028 -1.49648 0.588386 0
M  V30 6706 O 606.218 -1.51724 0.855891 0
M  V30 6707 C 603.35 -2.91228 1.77199 0
M  V30 6708 H 604.543 -1.34799 2.67898 0
M  V30 6709 H 602.096 -0.66883 1.41267 0
M  V30 6710 H 602.831 -3.13516 0.829363 0
M  V30 6711 H 602.616 -2.94107 2.59314 0
M  V30 6712 H 604.106 -3.69321 1.94915 0
M  V30 6713 N 604.543 -1.41418 -0.695603 0
M  V30 6714 C 605.768 -1.44329 -1.48942 0
M  V30 6715 C 606.193 -0.0501579 -1.88033 0
M  V30 6716 O 605.551 0.946598 -1.54626 0
M  V30 6717 C 605.599 -2.3578 -2.72837 0
M  V30 6718 O 604.703 -1.81482 -3.70322 0
M  V30 6719 H 604.044 -0.489838 -0.44828 0
M  V30 6720 H 606.574 -1.85878 -0.855014 0
M  V30 6721 H 606.584 -2.51654 -3.21145 0
M  V30 6722 H 605.259 -3.37005 -2.43722 0
M  V30 6723 H 603.836 -1.75058 -3.29255 0
M  V30 6724 N 606.021 0.929856 -1.27246 0
M  V30 6725 C 607.432 1.49223 -1.12203 0
M  V30 6726 C 607.783 1.93989 0.293731 0
M  V30 6727 O 606.908 1.80978 1.18642 0
M  V30 6728 C 607.503 2.71198 -2.0307 0
M  V30 6729 C 606.062 3.23666 -1.92139 0
M  V30 6730 C 605.209 1.96409 -1.95752 0
M  V30 6731 H 608.16 0.744181 -1.4017 0
M  V30 6732 H 608.181 3.45905 -1.58524 0
M  V30 6733 H 607.693 2.38585 -3.06102 0
M  V30 6734 H 605.794 3.61042 -0.920834 0
M  V30 6735 H 605.907 3.90006 -2.78267 0
M  V30 6736 H 604.271 2.12806 -1.39949 0
M  V30 6737 H 605.054 1.66113 -3.00436 0
M  V30 6738 N 607.499 1.09233 1.13605 0
M  V30 6739 C 608.409 0.741939 2.22559 0
M  V30 6740 C 609.425 -0.255236 1.72118 0
M  V30 6741 O 610.601 -0.0970747 2.01166 0
M  V30 6742 C 607.666 0.165595 3.46304 0
M  V30 6743 C 606.727 1.21846 4.11645 0
M  V30 6744 C 605.96 0.669526 5.29484 0
M  V30 6745 O 606.183 -0.508228 5.68131 0
M  V30 6746 O 605.117 1.42361 5.84822 0
M  V30 6747 H 608.943 1.65107 2.54899 0
M  V30 6748 H 606.528 0.866584 1.21699 0
M  V30 6749 H 608.41 -0.152592 4.21124 0
M  V30 6750 H 607.085 -0.716573 3.15669 0
M  V30 6751 H 605.992 1.58931 3.38662 0
M  V30 6752 H 607.325 2.07321 4.46407 0
M  V30 6753 N 608.977 -1.30795 0.87923 0
M  V30 6754 C 610.202 -2.01063 0.508769 0
M  V30 6755 C 610.627 -1.65508 -0.893803 0
M  V30 6756 O 609.985 -0.868616 -1.59138 0
M  V30 6757 C 610.033 -3.54054 0.683991 0
M  V30 6758 O 609.137 -4.11498 -0.272654 0
M  V30 6759 H 608.478 -0.632786 0.201191 0
M  V30 6760 H 611.008 -1.66776 1.18519 0
M  V30 6761 H 611.018 -4.03845 0.580798 0
M  V30 6762 H 609.693 -3.79271 1.70665 0
M  V30 6763 H 608.27 -3.72695 -0.12364 0
M  V30 6764 N 610.455 -0.639598 -1.44038 0
M  V30 6765 C 611.385 0.0469443 -2.33453 0
M  V30 6766 C 612.366 0.82609 -1.48694 0
M  V30 6767 O 613.551 0.790285 -1.77393 0
M  V30 6768 C 610.681 1.02338 -3.3188 0
M  V30 6769 C 609.635 0.355284 -4.26523 0
M  V30 6770 C 608.961 1.44221 -5.14883 0
M  V30 6771 C 610.261 -0.743798 -5.16977 0
M  V30 6772 H 611.955 -0.699735 -2.91108 0
M  V30 6773 H 609.501 -0.337946 -1.39978 0
M  V30 6774 H 611.454 1.51247 -3.93322 0
M  V30 6775 H 610.178 1.80105 -2.72451 0
M  V30 6776 H 608.837 -0.113239 -3.66425 0
M  V30 6777 H 608.485 2.21097 -4.51802 0
M  V30 6778 H 608.185 1.00052 -5.79019 0
M  V30 6779 H 609.709 1.93295 -5.79197 0
M  V30 6780 H 611.123 -0.337444 -5.72306 0
M  V30 6781 H 609.52 -1.10914 -5.89761 0
M  V30 6782 H 610.59 -1.60745 -4.57481 0
M  V30 6783 N 611.933 1.52934 -0.380664 0
M  V30 6784 C 613.181 2.01069 0.203874 0
M  V30 6785 C 613.502 1.26922 1.4804 0
M  V30 6786 O 612.772 0.386787 1.92044 0
M  V30 6787 H 611.352 0.742882 0.0783279 0
M  V30 6788 H 614.014 1.88099 -0.510368 0
M  V30 6789 H 613.11 3.09258 0.42021 0
M  V30 6790 N 613.412 0.11024 1.57214 0
M  V30 6791 C 614.637 -0.561179 1.99664 0
M  V30 6792 C 615.062 -1.59985 0.989266 0
M  V30 6793 O 614.42 -1.81255 -0.0402399 0
M  V30 6794 C 614.468 -1.17189 3.41027 0
M  V30 6795 O 613.572 -2.28755 3.4314 0
M  V30 6796 H 612.913 -0.14101 0.648855 0
M  V30 6797 H 615.443 0.196128 2.03658 0
M  V30 6798 H 615.453 -1.50954 3.79047 0
M  V30 6799 H 614.128 -0.411041 4.13864 0
M  V30 6800 H 612.705 -1.96495 3.16929 0
M  V30 6801 N 614.89 -1.56749 -0.16351 0
M  V30 6802 C 615.82 -2.00042 -1.20438 0
M  V30 6803 C 616.801 -0.877256 -1.45733 0
M  V30 6804 O 617.986 -1.1439 -1.56935 0
M  V30 6805 C 615.116 -2.36697 -2.54149 0
M  V30 6806 C 614.07 -3.52046 -2.43408 0
M  V30 6807 C 613.396 -3.74466 -3.81679 0
M  V30 6808 C 614.696 -4.85247 -1.93216 0
M  V30 6809 H 616.39 -2.87244 -0.844477 0
M  V30 6810 H 613.936 -1.38194 -0.40478 0
M  V30 6811 H 615.889 -2.65582 -3.27176 0
M  V30 6812 H 614.613 -1.46414 -2.91943 0
M  V30 6813 H 613.272 -3.23301 -1.72834 0
M  V30 6814 H 612.92 -2.81461 -4.1688 0
M  V30 6815 H 612.62 -4.52084 -3.75359 0
M  V30 6816 H 614.144 -4.0576 -4.5628 0
M  V30 6817 H 615.558 -5.12957 -2.56023 0
M  V30 6818 H 613.955 -5.66556 -1.97825 0
M  V30 6819 H 615.025 -4.7672 -0.88689 0
M  V30 6820 N 616.368 0.432326 -1.51554 0
M  V30 6821 C 617.596 1.20364 -1.68286 0
M  V30 6822 C 618.011 1.84888 -0.38233 0
M  V30 6823 O 617.368 1.70924 0.639627 0
M  V30 6824 C 617.419 2.28398 -2.80208 0
M  V30 6825 O 617.14 1.66512 -4.05223 0
M  V30 6826 C 618.641 3.18584 -3.08251 0
M  V30 6827 H 615.861 0.36259 -0.564596 0
M  V30 6828 H 618.405 0.511647 -1.97996 0
M  V30 6829 H 616.56 2.93305 -2.53083 0
M  V30 6830 H 616.974 2.37951 -4.67418 0
M  V30 6831 H 618.448 3.90511 -3.90135 0
M  V30 6832 H 618.925 3.79628 -2.2086 0
M  V30 6833 H 619.531 2.59372 -3.37055 0
M  V30 6834 N 617.846 1.41785 0.688094 0
M  V30 6835 C 619.071 1.45117 1.48175 0
M  V30 6836 C 619.496 0.060129 1.88004 0
M  V30 6837 O 618.854 -0.938385 1.55126 0
M  V30 6838 C 618.902 2.37224 2.71583 0
M  V30 6839 O 618.006 1.83443 3.69354 0
M  V30 6840 H 617.347 0.492208 0.445676 0
M  V30 6841 H 619.877 1.86329 0.845145 0
M  V30 6842 H 619.887 2.53353 3.19806 0
M  V30 6843 H 618.562 3.38293 2.41931 0
M  V30 6844 H 617.139 1.76802 3.28322 0
M  V30 6845 N 619.324 -0.923095 1.27737 0
M  V30 6846 C 620.552 -1.70525 1.17171 0
M  V30 6847 C 620.967 -1.86847 -0.270881 0
M  V30 6848 O 620.324 -1.38879 -1.18401 0
M  V30 6849 C 620.375 -3.10242 1.85559 0
M  V30 6850 O 620.096 -2.94683 3.24182 0
M  V30 6851 C 621.597 -4.04586 1.81176 0
M  V30 6852 H 618.817 -0.533347 0.407163 0
M  V30 6853 H 621.361 -1.15599 1.68692 0
M  V30 6854 H 619.516 -3.62014 1.3793 0
M  V30 6855 H 619.93 -3.83045 3.58297 0
M  V30 6856 H 621.404 -5.00119 2.33633 0
M  V30 6857 H 621.881 -4.3218 0.782099 0
M  V30 6858 H 622.487 -3.58741 2.2844 0
M  V30 6859 N 620.802 -1.09834 -1.13024 0
M  V30 6860 C 622.027 -0.85909 -1.88771 0
M  V30 6861 C 622.452 0.584402 -1.78791 0
M  V30 6862 O 621.81 1.41101 -1.13842 0
M  V30 6863 C 621.858 -1.30427 -3.36186 0
M  V30 6864 O 620.962 -0.465368 -4.09766 0
M  V30 6865 H 620.303 -0.310786 -0.586778 0
M  V30 6866 H 622.833 -1.46355 -1.42973 0
M  V30 6867 H 622.843 -1.2915 -3.8702 0
M  V30 6868 H 621.518 -2.3555 -3.42767 0
M  V30 6869 H 620.095 -0.542814 -3.68928 0
M  V30 6870 N 622.28 1.30327 -0.886154 0
M  V30 6871 C 623.19 2.31854 -0.357866 0
M  V30 6872 C 624.206 1.65392 0.540502 0
M  V30 6873 O 625.382 1.96683 0.433339 0
M  V30 6874 C 622.447 3.44171 0.417999 0
M  V30 6875 C 621.508 4.26257 -0.510263 0
M  V30 6876 C 620.741 5.3321 0.228669 0
M  V30 6877 O 620.964 5.51542 1.45458 0
M  V30 6878 O 619.898 6.0042 -0.421832 0
M  V30 6879 H 623.724 2.78995 -1.19982 0
M  V30 6880 H 621.309 1.34518 -0.650028 0
M  V30 6881 H 623.191 4.12588 0.857251 0
M  V30 6882 H 621.866 2.99164 1.23623 0
M  V30 6883 H 620.773 3.60533 -0.99835 0
M  V30 6884 H 622.106 4.74871 -1.29454 0
M  V30 6885 N 623.758 0.647228 1.43697 0
M  V30 6886 C 624.69 -0.0866232 2.29036 0
M  V30 6887 C 625.703 -0.793051 1.42178 0
M  V30 6888 O 626.892 -0.651807 1.66174 0
M  V30 6889 C 623.992 -1.14552 3.18953 0
M  V30 6890 C 623.165 -0.518422 4.34317 0
M  V30 6891 C 622.224 -1.4734 5.05151 0
M  V30 6892 O 621.25 -0.984312 5.60625 0
M  V30 6893 N 622.452 -2.8075 5.08094 0
M  V30 6894 H 625.217 0.645834 2.92659 0
M  V30 6895 H 622.778 0.489567 1.54321 0
M  V30 6896 H 624.77 -1.78505 3.63205 0
M  V30 6897 H 623.34 -1.78001 2.56971 0
M  V30 6898 H 622.56 0.300079 3.93056 0
M  V30 6899 H 623.848 -0.080401 5.08736 0
M  V30 6900 H 623.246 -3.23052 4.64386 0
M  V30 6901 H 621.803 -3.40022 5.56083 0
M  V30 6902 N 625.236 -1.5273 0.388769 0
M  V30 6903 C 626.199 -2.25043 -0.434544 0
M  V30 6904 C 627.199 -1.26661 -0.990644 0
M  V30 6905 O 628.389 -1.50762 -0.872731 0
M  V30 6906 C 625.521 -3.00507 -1.60961 0
M  V30 6907 H 626.714 -2.99242 0.198549 0
M  V30 6908 H 624.267 -1.55664 0.140875 0
M  V30 6909 H 625.002 -2.30607 -2.28015 0
M  V30 6910 H 624.787 -3.72716 -1.21757 0
M  V30 6911 H 626.277 -3.55413 -2.19251 0
M  V30 6912 N 626.714 -0.118576 -1.57153 0
M  V30 6913 C 627.646 0.862247 -2.12363 0
M  V30 6914 C 628.659 1.23025 -1.06625 0
M  V30 6915 O 629.848 1.17927 -1.33998 0
M  V30 6916 C 626.948 2.16425 -2.60794 0
M  V30 6917 C 626.121 1.96801 -3.90626 0
M  V30 6918 C 625.18 3.10726 -4.2466 0
M  V30 6919 O 624.206 2.83659 -4.93484 0
M  V30 6920 N 625.408 4.37147 -3.81946 0
M  V30 6921 H 628.173 0.390564 -2.97144 0
M  V30 6922 H 625.734 0.0658591 -1.61766 0
M  V30 6923 H 627.726 2.91633 -2.80593 0
M  V30 6924 H 626.296 2.54943 -1.80895 0
M  V30 6925 H 625.516 1.05787 -3.7974 0
M  V30 6926 H 626.804 1.80993 -4.7552 0
M  V30 6927 H 626.202 4.62014 -3.26435 0
M  V30 6928 H 624.759 5.09229 -4.06853 0
M  V30 6929 N 628.193 1.56834 0.155195 0
M  V30 6930 C 629.123 2.00678 1.19376 0
M  V30 6931 C 630.104 0.884973 1.45266 0
M  V30 6932 O 631.289 1.1522 1.56326 0
M  V30 6933 C 628.419 2.38042 2.5289 0
M  V30 6934 C 627.373 3.53332 2.41538 0
M  V30 6935 C 626.699 3.76485 3.79688 0
M  V30 6936 C 627.999 4.86265 1.9064 0
M  V30 6937 H 629.693 2.87688 0.829232 0
M  V30 6938 H 627.239 1.38407 0.397445 0
M  V30 6939 H 629.192 2.67314 3.25763 0
M  V30 6940 H 627.916 1.4796 2.91162 0
M  V30 6941 H 626.575 3.24213 1.71117 0
M  V30 6942 H 626.223 2.83667 4.15382 0
M  V30 6943 H 625.923 4.54068 3.72956 0
M  V30 6944 H 627.447 4.08174 4.54122 0
M  V30 6945 H 628.861 5.14308 2.53299 0
M  V30 6946 H 627.258 5.67597 1.94818 0
M  V30 6947 H 628.328 4.77184 0.861596 0
M  V30 6948 N 629.671 -0.424282 1.51781 0
M  V30 6949 C 630.634 -1.49848 1.73431 0
M  V30 6950 C 631.634 -1.49016 0.604225 0
M  V30 6951 O 632.824 -1.50808 0.871935 0
M  V30 6952 C 629.956 -2.89332 1.80277 0
M  V30 6953 H 631.149 -1.3195 2.69312 0
M  V30 6954 H 628.702 -0.653809 1.41968 0
M  V30 6955 H 629.437 -3.12618 0.862568 0
M  V30 6956 H 629.222 -2.9134 2.62419 0
M  V30 6957 H 630.712 -3.67233 1.98821 0
M  V30 6958 N 631.149 -1.42148 -0.680565 0
M  V30 6959 C 632.377 -1.45696 -1.46902 0
M  V30 6960 C 632.792 -0.0665858 -1.88683 0
M  V30 6961 O 632.149 0.917436 -1.57764 0
M  V30 6962 C 632.2 -2.37898 -2.72188 0
M  V30 6963 O 631.921 -3.71526 -2.32163 0
M  V30 6964 C 633.422 -2.50407 -3.65802 0
M  V30 6965 H 630.642 -0.495729 -0.45221 0
M  V30 6966 H 633.186 -1.866 -0.836709 0
M  V30 6967 H 631.341 -2.00263 -3.31622 0
M  V30 6968 H 631.755 -4.20849 -3.13027 0
M  V30 6969 H 633.229 -3.19056 -4.50452 0
M  V30 6970 H 633.706 -1.5401 -4.11312 0
M  V30 6971 H 634.312 -2.8874 -3.12265 0
M  V30 6972 N 632.627 0.916307 -1.28225 0
M  V30 6973 C 633.852 1.7043 -1.18188 0
M  V30 6974 C 634.277 1.86346 0.256274 0
M  V30 6975 O 633.635 1.37175 1.18544 0
M  V30 6976 C 633.683 3.07546 -1.88275 0
M  V30 6977 O 632.787 3.94904 -1.18848 0
M  V30 6978 H 632.128 0.521967 -0.410423 0
M  V30 6979 H 634.658 1.14589 -1.69501 0
M  V30 6980 H 634.668 3.57793 -1.96082 0
M  V30 6981 H 633.343 2.95279 -2.92887 0
M  V30 6982 H 631.92 3.53339 -1.19187 0
M  V30 6983 N 634.105 1.10431 1.1244 0
M  V30 6984 C 635.015 0.765502 2.21759 0
M  V30 6985 C 636.031 -0.236966 1.72379 0
M  V30 6986 O 637.207 -0.0757329 2.01258 0
M  V30 6987 C 634.272 0.202316 3.46109 0
M  V30 6988 C 633.333 1.26205 4.1033 0
M  V30 6989 C 632.566 0.725648 5.28744 0
M  V30 6990 O 632.789 -0.447942 5.68638 0
M  V30 6991 O 631.723 1.48555 5.83279 0
M  V30 6992 H 635.549 1.67801 2.53133 0
M  V30 6993 H 633.134 0.879443 1.20773 0
M  V30 6994 H 635.016 -0.107918 4.21262 0
M  V30 6995 H 633.691 -0.683052 3.16411 0
M  V30 6996 H 632.598 1.62514 3.36957 0
M  V30 6997 H 633.931 2.12044 4.44183 0
M  V30 6998 N 635.583 -1.29855 0.893053 0
M  V30 6999 C 636.808 -2.00512 0.530066 0
M  V30 7000 C 637.233 -1.66446 -0.876199 0
M  V30 7001 O 636.591 -0.885446 -1.58207 0
M  V30 7002 C 636.639 -3.53308 0.721505 0
M  V30 7003 O 635.743 -4.11764 -0.228994 0
M  V30 7004 H 635.084 -0.630617 0.207891 0
M  V30 7005 H 637.614 -1.6551 1.20282 0
M  V30 7006 H 637.624 -4.03206 0.623599 0
M  V30 7007 H 636.299 -3.77439 1.74678 0
M  V30 7008 H 634.876 -3.72805 -0.0841034 0
M  V30 7009 N 637.061 -0.65484 -1.43351 0
M  V30 7010 C 637.991 0.0221809 -2.33489 0
M  V30 7011 C 638.972 0.810272 -1.49561 0
M  V30 7012 O 640.157 0.771426 -1.78221 0
M  V30 7013 C 637.287 0.988117 -3.32947 0
M  V30 7014 C 636.241 0.310026 -4.26876 0
M  V30 7015 C 635.567 1.38752 -5.16384 0
M  V30 7016 C 636.867 -0.798589 -5.16159 0
M  V30 7017 H 638.561 -0.730571 -2.9035 0
M  V30 7018 H 636.107 -0.352773 -1.39612 0
M  V30 7019 H 638.06 1.47067 -3.94904 0
M  V30 7020 H 636.784 1.77205 -2.74346 0
M  V30 7021 H 635.443 -0.152097 -3.66284 0
M  V30 7022 H 635.091 2.16293 -4.54121 0
M  V30 7023 H 634.791 0.939051 -5.80048 0
M  V30 7024 H 636.315 1.87141 -5.81215 0
M  V30 7025 H 637.729 -0.398126 -5.71916 0
M  V30 7026 H 636.126 -1.17163 -5.88552 0
M  V30 7027 H 637.196 -1.65588 -4.55751 0
M  V30 7028 N 638.539 1.52521 -0.396863 0
M  V30 7029 C 639.764 2.06571 0.185258 0
M  V30 7030 C 640.189 1.26605 1.39115 0
M  V30 7031 O 639.547 0.293055 1.78916 0
M  V30 7032 C 639.595 3.5674 0.526189 0
M  V30 7033 O 638.699 3.7929 1.61903 0
M  V30 7034 H 638.04 0.663712 0.0195474 0
M  V30 7035 H 640.57 1.966 -0.566519 0
M  V30 7036 H 640.58 4.00311 0.788338 0
M  V30 7037 H 639.255 4.14379 -0.355397 0
M  V30 7038 H 637.832 3.47605 1.35 0
M  V30 7039 N 640.017 0.126909 1.57088 0
M  V30 7040 C 641.428 -0.397201 1.82426 0
M  V30 7041 C 641.779 -1.66084 1.04453 0
M  V30 7042 O 640.904 -2.14534 0.283552 0
M  V30 7043 C 641.499 -0.727411 3.30899 0
M  V30 7044 C 640.058 -1.19612 3.56889 0
M  V30 7045 C 639.205 -0.20885 2.76512 0
M  V30 7046 H 642.156 0.351924 1.54749 0
M  V30 7047 H 642.177 -1.58407 3.45959 0
M  V30 7048 H 641.689 0.19247 3.87622 0
M  V30 7049 H 639.79 -2.13263 3.05532 0
M  V30 7050 H 639.903 -1.13598 4.65438 0
M  V30 7051 H 638.267 -0.697479 2.44964 0
M  V30 7052 H 639.05 0.704267 3.35998 0
M  V30 7053 N 641.495 -1.56914 -0.146875 0
M  V30 7054 C 642.425 -2.01308 -1.1831 0
M  V30 7055 C 643.406 -0.892664 -1.44795 0
M  V30 7056 O 644.591 -1.16048 -1.55713 0
M  V30 7057 C 641.721 -2.3938 -2.51624 0
M  V30 7058 C 640.675 -3.54608 -2.3966 0
M  V30 7059 C 640.001 -3.78493 -3.77686 0
M  V30 7060 C 641.301 -4.87269 -1.88058 0
M  V30 7061 H 642.995 -2.88123 -0.813964 0
M  V30 7062 H 640.541 -1.38615 -0.3901 0
M  V30 7063 H 642.494 -2.69037 -3.24341 0
M  V30 7064 H 641.218 -1.49502 -2.90373 0
M  V30 7065 H 639.877 -3.25116 -1.69396 0
M  V30 7066 H 639.525 -2.85866 -4.13871 0
M  V30 7067 H 639.225 -4.56039 -3.70543 0
M  V30 7068 H 640.749 -4.10576 -4.51951 0
M  V30 7069 H 642.163 -5.15644 -2.50568 0
M  V30 7070 H 640.56 -5.68622 -1.91805 0
M  V30 7071 H 641.63 -4.77634 -0.836277 0
M  V30 7072 N 642.974 0.416227 -1.52004 0
M  V30 7073 C 644.202 1.18573 -1.69553 0
M  V30 7074 C 644.617 1.84472 -0.401919 0
M  V30 7075 O 643.974 1.71593 0.621463 0
M  V30 7076 C 644.025 2.25413 -2.82615 0
M  V30 7077 O 643.746 1.62205 -4.06966 0
M  V30 7078 C 645.247 3.15297 -3.11613 0
M  V30 7079 H 642.467 0.356582 -0.56841 0
M  V30 7080 H 645.011 0.490618 -1.98528 0
M  V30 7081 H 643.166 2.90604 -2.56179 0
M  V30 7082 H 643.58 2.3298 -4.69916 0
M  V30 7083 H 645.054 3.86351 -3.94255 0
M  V30 7084 H 645.531 3.77264 -2.24874 0
M  V30 7085 H 646.137 2.55783 -3.39787 0
M  V30 7086 N 644.452 1.42507 0.673017 0
M  V30 7087 C 645.677 1.4668 1.46627 0
M  V30 7088 C 646.102 0.080066 1.8793 0
M  V30 7089 O 645.46 -0.921879 1.56112 0
M  V30 7090 C 645.508 2.40091 2.69051 0
M  V30 7091 O 644.612 1.8735 3.67387 0
M  V30 7092 H 643.953 0.496908 0.44043 0
M  V30 7093 H 646.483 1.87215 0.825334 0
M  V30 7094 H 646.493 2.56731 3.17101 0
M  V30 7095 H 645.168 3.4084 2.3833 0
M  V30 7096 H 643.745 1.80274 3.26429 0
M  V30 7097 N 645.93 -0.909495 1.28709 0
M  V30 7098 C 646.86 -2.0291 1.15542 0
M  V30 7099 C 647.841 -1.7002 0.0521017 0
M  V30 7100 O 649.026 -1.92835 0.229849 0
M  V30 7101 C 646.156 -3.37458 0.820935 0
M  V30 7102 C 645.11 -3.84524 1.87949 0
M  V30 7103 C 644.436 -5.16086 1.39854 0
M  V30 7104 C 645.736 -4.05918 3.28676 0
M  V30 7105 H 647.43 -2.14183 2.09203 0
M  V30 7106 H 644.976 -1.02913 1.00722 0
M  V30 7107 H 646.929 -4.1528 0.715571 0
M  V30 7108 H 645.653 -3.26249 -0.151374 0
M  V30 7109 H 644.312 -3.08911 1.97408 0
M  V30 7110 H 643.96 -5.01284 0.41518 0
M  V30 7111 H 643.66 -5.48547 2.1064 0
M  V30 7112 H 645.184 -5.96459 1.30649 0
M  V30 7113 H 646.598 -4.74252 3.22115 0
M  V30 7114 H 644.995 -4.49717 3.97334 0
M  V30 7115 H 646.065 -3.10583 3.72379 0
M  V30 7116 N 647.408 -1.11026 -1.11852 0
M  V30 7117 C 648.633 -0.879064 -1.87849 0
M  V30 7118 C 649.058 0.565406 -1.79401 0
M  V30 7119 O 648.416 1.39886 -1.15333 0
M  V30 7120 C 648.464 -1.33985 -3.34784 0
M  V30 7121 O 647.568 -0.508803 -4.09249 0
M  V30 7122 H 646.909 -0.316992 -0.583448 0
M  V30 7123 H 649.439 -1.47863 -1.41413 0
M  V30 7124 H 649.449 -1.33248 -3.85628 0
M  V30 7125 H 648.124 -2.39172 -3.40249 0
M  V30 7126 H 646.701 -0.581913 -3.68332 0
M  V30 7127 N 648.886 1.2938 -0.899927 0
M  V30 7128 C 650.134 1.95164 -0.524924 0
M  V30 7129 C 650.455 1.71292 0.931888 0
M  V30 7130 O 649.725 1.04481 1.65712 0
M  V30 7131 H 648.305 0.722133 -0.191135 0
M  V30 7132 H 650.967 1.57628 -1.14627 0
M  V30 7133 H 650.063 3.0397 -0.707711 0
M  V30 7134 N 650.364 0.662433 1.43002 0
M  V30 7135 C 651.296 -0.062326 2.29115 0
M  V30 7136 C 652.309 -0.777926 1.43011 0
M  V30 7137 O 653.498 -0.634146 1.66856 0
M  V30 7138 C 650.598 -1.11163 3.2015 0
M  V30 7139 C 649.771 -0.472327 4.34842 0
M  V30 7140 C 648.83 -1.41974 5.06685 0
M  V30 7141 O 647.856 -0.924795 5.61637 0
M  V30 7142 N 649.058 -2.75345 5.11043 0
M  V30 7143 H 651.823 0.676838 2.91957 0
M  V30 7144 H 649.384 0.505907 1.53793 0
M  V30 7145 H 651.376 -1.74643 3.65078 0
M  V30 7146 H 649.946 -1.75266 2.58845 0
M  V30 7147 H 649.166 0.341751 3.92716 0
M  V30 7148 H 650.454 -0.0264381 5.08793 0
M  V30 7149 H 649.852 -3.18108 4.67786 0
M  V30 7150 H 648.409 -3.34105 5.59658 0
M  V30 7151 N 651.842 -1.52309 0.404946 0
M  V30 7152 C 652.805 -2.25491 -0.410651 0
M  V30 7153 C 653.805 -1.27704 -0.977154 0
M  V30 7154 O 654.995 -1.51679 -0.856691 0
M  V30 7155 C 652.127 -3.02197 -1.57765 0
M  V30 7156 H 653.32 -2.99015 0.230277 0
M  V30 7157 H 650.873 -1.55506 0.157377 0
M  V30 7158 H 651.608 -2.33013 -2.25556 0
M  V30 7159 H 651.393 -3.73987 -1.17797 0
M  V30 7160 H 652.883 -3.57719 -2.15469 0
M  V30 7161 N 653.32 -0.135238 -1.57019 0
M  V30 7162 C 654.731 0.387521 -1.82634 0
M  V30 7163 C 655.082 1.65528 -1.05332 0
M  V30 7164 O 654.207 2.14381 -0.294926 0
M  V30 7165 C 654.802 0.709852 -3.3128 0
M  V30 7166 C 653.361 1.17718 -3.57518 0
M  V30 7167 C 652.508 0.194183 -2.76619 0
M  V30 7168 H 655.459 -0.360126 -1.5456 0
M  V30 7169 H 655.48 1.5657 -3.46794 0
M  V30 7170 H 654.992 -0.213024 -3.87515 0
M  V30 7171 H 653.093 2.1164 -3.06658 0
M  V30 7172 H 653.206 1.11128 -4.66034 0
M  V30 7173 H 651.57 0.684478 -2.4533 0
M  V30 7174 H 652.353 -0.722076 -3.3562 0
M  V30 7175 N 654.798 1.5699 0.138552 0
M  V30 7176 C 655.728 2.01933 1.17241 0
M  V30 7177 C 656.709 0.90033 1.44319 0
M  V30 7178 O 657.894 1.16872 1.55095 0
M  V30 7179 C 655.024 2.40711 2.50351 0
M  V30 7180 C 653.978 3.55874 2.37776 0
M  V30 7181 C 653.304 3.80491 3.75674 0
M  V30 7182 C 654.604 4.8826 1.85472 0
M  V30 7183 H 656.298 2.88551 0.798672 0
M  V30 7184 H 653.844 1.3882 0.382743 0
M  V30 7185 H 655.797 2.70754 3.22909 0
M  V30 7186 H 654.521 1.5104 2.89576 0
M  V30 7187 H 653.18 3.2601 1.67669 0
M  V30 7188 H 652.828 2.88057 4.12349 0
M  V30 7189 H 652.528 4.57998 3.68119 0
M  V30 7190 H 654.052 4.12967 4.49767 0
M  V30 7191 H 655.466 5.16965 2.4783 0
M  V30 7192 H 653.863 5.69631 1.88787 0
M  V30 7193 H 654.933 4.78071 0.810935 0
M  V30 7194 N 656.276 -0.40816 1.52223 0
M  V30 7195 C 657.239 -1.48 1.7501 0
M  V30 7196 C 658.239 -1.48367 0.619996 0
M  V30 7197 O 659.429 -1.49874 0.887881 0
M  V30 7198 C 656.561 -2.87403 1.83336 0
M  V30 7199 H 657.754 -1.29086 2.70697 0
M  V30 7200 H 655.307 -0.638715 1.42654 0
M  V30 7201 H 656.042 -3.11686 0.895677 0
M  V30 7202 H 655.827 -2.8854 2.65494 0
M  V30 7203 H 657.317 -3.65103 2.02705 0
M  V30 7204 N 657.755 -1.42862 -0.66545 0
M  V30 7205 C 658.983 -1.47246 -1.45349 0
M  V30 7206 C 659.398 -0.0865944 -1.88601 0
M  V30 7207 O 658.755 0.900652 -1.58728 0
M  V30 7208 C 658.806 -2.40772 -2.6965 0
M  V30 7209 O 658.527 -3.73968 -2.2821 0
M  V30 7210 C 660.028 -2.54272 -3.63126 0
M  V30 7211 H 657.248 -0.500497 -0.446927 0
M  V30 7212 H 659.792 -1.87477 -0.816871 0
M  V30 7213 H 657.947 -2.0377 -3.29479 0
M  V30 7214 H 658.361 -4.24146 -3.08546 0
M  V30 7215 H 659.835 -3.23815 -4.47043 0
M  V30 7216 H 660.312 -1.58364 -4.09656 0
M  V30 7217 H 660.918 -2.92036 -3.09185 0
M  V30 7218 N 659.233 0.902656 -1.29189 0
M  V30 7219 C 660.481 1.6496 -1.16758 0
M  V30 7220 C 660.802 1.92952 0.28188 0
M  V30 7221 O 660.072 1.55351 1.19344 0
M  V30 7222 H 658.652 0.611447 -0.429118 0
M  V30 7223 H 661.314 1.0825 -1.62074 0
M  V30 7224 H 660.41 2.60728 -1.71544 0
M  V30 7225 N 660.711 1.11618 1.11262 0
M  V30 7226 C 661.621 0.78898 2.20935 0
M  V30 7227 C 662.637 -0.21867 1.7262 0
M  V30 7228 O 663.813 -0.0543826 2.01327 0
M  V30 7229 C 660.878 0.239014 3.45875 0
M  V30 7230 C 659.939 1.3055 4.08968 0
M  V30 7231 C 659.172 0.781687 5.27944 0
M  V30 7232 O 659.395 -0.387605 5.69082 0
M  V30 7233 O 658.329 1.54734 5.81671 0
M  V30 7234 H 662.155 1.70477 2.51339 0
M  V30 7235 H 659.74 0.892203 1.19834 0
M  V30 7236 H 661.622 -0.0632312 4.21353 0
M  V30 7237 H 660.297 -0.649454 3.17118 0
M  V30 7238 H 659.204 1.66079 3.35214 0
M  V30 7239 H 660.537 2.16743 4.41909 0
M  V30 7240 N 662.189 -1.289 0.906776 0
M  V30 7241 C 663.414 -1.99939 0.551303 0
M  V30 7242 C 663.839 -1.67366 -0.858496 0
M  V30 7243 O 663.197 -0.902176 -1.57259 0
M  V30 7244 C 663.245 -3.52523 0.758937 0
M  V30 7245 O 662.349 -4.11983 -0.185308 0
M  V30 7246 H 661.69 -0.628376 0.214568 0
M  V30 7247 H 664.22 -1.64225 1.2203 0
M  V30 7248 H 664.23 -4.02522 0.666329 0
M  V30 7249 H 662.905 -3.75566 1.78671 0
M  V30 7250 H 661.482 -3.72873 -0.0445577 0
M  V30 7251 N 663.667 -0.670007 -1.42649 0
M  V30 7252 C 664.597 -0.00258501 -2.335 0
M  V30 7253 C 665.578 0.794364 -1.50412 0
M  V30 7254 O 666.763 0.75248 -1.79029 0
M  V30 7255 C 663.893 0.952748 -3.33976 0
M  V30 7256 C 662.847 0.264733 -4.2718 0
M  V30 7257 C 662.173 1.33267 -5.17826 0
M  V30 7258 C 663.473 -0.853289 -5.15283 0
M  V30 7259 H 665.167 -0.761326 -2.89559 0
M  V30 7260 H 662.713 -0.367561 -1.3923 0
M  V30 7261 H 664.666 1.4287 -3.96442 0
M  V30 7262 H 663.39 1.74285 -2.7621 0
M  V30 7263 H 662.049 -0.190938 -3.66102 0
M  V30 7264 H 661.697 2.11464 -4.5639 0
M  V30 7265 H 661.397 0.877476 -5.81011 0
M  V30 7266 H 662.921 1.80965 -5.83167 0
M  V30 7267 H 664.335 -0.458763 -5.71462 0
M  V30 7268 H 662.732 -1.23398 -5.87276 0
M  V30 7269 H 663.802 -1.70412 -4.53969 0
M  V30 7270 N 665.145 1.52092 -0.413018 0
M  V30 7271 C 666.37 2.06756 0.163338 0
M  V30 7272 C 666.795 1.28073 1.37764 0
M  V30 7273 O 666.153 0.312015 1.78595 0
M  V30 7274 C 666.201 3.57278 0.488322 0
M  V30 7275 O 665.305 3.80986 1.57871 0
M  V30 7276 H 664.646 0.663882 0.0125068 0
M  V30 7277 H 667.176 1.95988 -0.587339 0
M  V30 7278 H 667.186 4.01125 0.745836 0
M  V30 7279 H 665.861 4.13978 -0.399327 0
M  V30 7280 H 664.438 3.49017 1.31306 0
M  V30 7281 N 666.623 0.143563 1.56945 0
M  V30 7282 C 667.9 -0.553285 1.87612 0
M  V30 7283 C 668.28 -1.83195 1.04894 0
M  V30 7284 O 667.628 -2.28102 0.134773 0
M  V30 7285 C 667.838 -0.822055 3.3918 0
M  V30 7286 C 669.186 -1.16435 4.08324 0
M  V30 7287 O 670.21 -0.911522 3.4434 0
M  V30 7288 O 669.069 -1.63996 5.21313 0
M  V30 7289 H 666.163 -0.281851 0.777489 0
M  V30 7290 H 668.709 0.179916 1.68744 0
M  V30 7291 H 667.481 0.0830265 3.91212 0
M  V30 7292 H 667.104 -1.60956 3.63564 0
M  V30 7293 N 668.101 -1.57061 -0.130224 0
M  V30 7294 C 669.031 -2.02552 -1.16168 0
M  V30 7295 C 670.012 -0.907971 -1.4384 0
M  V30 7296 O 671.197 -1.17693 -1.54473 0
M  V30 7297 C 668.327 -2.42035 -2.49071 0
M  V30 7298 C 667.281 -3.5713 -2.35886 0
M  V30 7299 C 666.607 -3.82478 -3.7365 0
M  V30 7300 C 667.907 -4.89236 -1.8288 0
M  V30 7301 H 669.601 -2.8897 -0.783359 0
M  V30 7302 H 667.147 -1.39021 -0.375376 0
M  V30 7303 H 669.1 -2.72462 -3.21469 0
M  V30 7304 H 667.824 -1.52573 -2.88771 0
M  V30 7305 H 666.483 -3.26895 -1.65938 0
M  V30 7306 H 666.131 -2.9024 -4.10816 0
M  V30 7307 H 665.831 -4.59944 -3.65685 0
M  V30 7308 H 667.355 -4.15347 -4.47571 0
M  V30 7309 H 668.769 -5.18272 -2.45085 0
M  V30 7310 H 667.166 -5.70624 -1.85763 0
M  V30 7311 H 668.236 -4.78494 -0.785571 0
M  V30 7312 N 669.579 0.400081 -1.52437 0
M  V30 7313 C 670.99 0.97851 -1.59003 0
M  V30 7314 C 671.341 1.91293 -0.436068 0
M  V30 7315 O 670.466 2.1183 0.442365 0
M  V30 7316 C 671.061 1.78145 -2.88184 0
M  V30 7317 C 669.62 2.30976 -2.97199 0
M  V30 7318 C 668.767 1.11212 -2.54022 0
M  V30 7319 H 671.718 0.180002 -1.57676 0
M  V30 7320 H 671.739 2.63968 -2.74046 0
M  V30 7321 H 671.251 1.1011 -3.72152 0
M  V30 7322 H 669.352 3.02355 -2.17744 0
M  V30 7323 H 669.465 2.61221 -4.01622 0
M  V30 7324 H 667.829 1.46882 -2.08081 0
M  V30 7325 H 668.612 0.447307 -3.40373 0
M  V30 7326 N 671.057 1.43213 0.657864 0
M  V30 7327 C 672.282 1.48227 1.45064 0
M  V30 7328 C 672.707 0.0999939 1.87834 0
M  V30 7329 O 672.065 -0.905269 1.57081 0
M  V30 7330 C 672.113 2.42931 2.6649 0
M  V30 7331 O 671.217 1.91237 3.6538 0
M  V30 7332 H 670.558 0.501551 0.435135 0
M  V30 7333 H 673.088 1.8808 0.805431 0
M  V30 7334 H 673.098 2.6008 3.1436 0
M  V30 7335 H 671.773 3.43348 2.34701 0
M  V30 7336 H 670.35 1.83726 3.24498 0
M  V30 7337 N 672.536 -0.895792 1.29666 0
M  V30 7338 C 673.764 -1.68001 1.20761 0
M  V30 7339 C 674.179 -1.87379 -0.231187 0
M  V30 7340 O 673.536 -1.41359 -1.15429 0
M  V30 7341 C 673.587 -3.06236 1.92098 0
M  V30 7342 O 673.308 -2.8774 3.30359 0
M  V30 7343 C 674.809 -4.00652 1.89717 0
M  V30 7344 H 672.029 -0.524591 0.418384 0
M  V30 7345 H 674.573 -1.11995 1.71106 0
M  V30 7346 H 672.728 -3.59007 1.45578 0
M  V30 7347 H 673.142 -3.75359 3.66342 0
M  V30 7348 H 674.616 -4.95051 2.44189 0
M  V30 7349 H 675.093 -4.30424 0.873595 0
M  V30 7350 H 675.699 -3.53815 2.35998 0
M  V30 7351 N 674.014 -1.12206 -1.10668 0
M  V30 7352 C 675.239 -0.898938 -1.86906 0
M  V30 7353 C 675.664 0.546346 -1.79991 0
M  V30 7354 O 675.022 1.38655 -1.1681 0
M  V30 7355 C 675.07 -1.37529 -3.33344 0
M  V30 7356 O 674.174 -0.55218 -4.08687 0
M  V30 7357 H 673.515 -0.323163 -0.580053 0
M  V30 7358 H 676.045 -1.49355 -1.39837 0
M  V30 7359 H 676.055 -1.3733 -3.84193 0
M  V30 7360 H 674.73 -2.42767 -3.37693 0
M  V30 7361 H 673.307 -0.620947 -3.67694 0
M  V30 7362 N 675.492 1.28418 -0.913599 0
M  V30 7363 C 676.402 2.31043 -0.406965 0
M  V30 7364 C 677.418 1.66501 0.505298 0
M  V30 7365 O 678.594 1.97558 0.391522 0
M  V30 7366 C 675.659 3.4498 0.344901 0
M  V30 7367 C 674.72 4.25078 -0.600563 0
M  V30 7368 C 673.953 5.33575 0.115516 0
M  V30 7369 O 674.176 5.54503 1.33727 0
M  V30 7370 O 673.11 5.9939 -0.549095 0
M  V30 7371 H 676.936 2.76387 -1.25873 0
M  V30 7372 H 674.521 1.33109 -0.678415 0
M  V30 7373 H 676.403 4.14314 0.769542 0
M  V30 7374 H 675.078 3.01719 1.1725 0
M  V30 7375 H 673.985 3.58334 -1.0746 0
M  V30 7376 H 675.318 4.72018 -1.39497 0
M  V30 7377 N 676.97 0.677563 1.42291 0
M  V30 7378 C 677.902 -0.0380218 2.29168 0
M  V30 7379 C 678.915 -0.762714 1.43828 0
M  V30 7380 O 680.104 -0.616413 1.67519 0
M  V30 7381 C 677.204 -1.07761 3.21311 0
M  V30 7382 C 676.377 -0.42618 4.35319 0
M  V30 7383 C 675.436 -1.36592 5.08162 0
M  V30 7384 O 674.462 -0.865174 5.62586 0
M  V30 7385 N 675.664 -2.69909 5.13935 0
M  V30 7386 H 678.429 0.707766 2.91223 0
M  V30 7387 H 675.99 0.52219 1.53247 0
M  V30 7388 H 677.982 -1.70761 3.6691 0
M  V30 7389 H 676.552 -1.72511 2.60689 0
M  V30 7390 H 675.772 0.383385 3.92331 0
M  V30 7391 H 677.06 0.0275277 5.08793 0
M  V30 7392 H 676.458 -3.13129 4.71134 0
M  V30 7393 H 675.015 -3.2815 5.6317 0
M  V30 7394 N 678.448 -1.51871 0.421078 0
M  V30 7395 C 679.411 -2.25914 -0.386712 0
M  V30 7396 C 680.411 -1.28733 -0.963555 0
M  V30 7397 O 681.601 -1.52579 -0.840556 0
M  V30 7398 C 678.733 -3.03853 -1.54551 0
M  V30 7399 H 679.926 -2.98754 0.261978 0
M  V30 7400 H 677.479 -1.5533 0.173862 0
M  V30 7401 H 678.214 -2.35392 -2.23072 0
M  V30 7402 H 677.999 -3.75215 -1.13824 0
M  V30 7403 H 679.489 -3.59984 -2.11663 0
M  V30 7404 N 679.926 -0.151884 -1.56866 0
M  V30 7405 C 681.342 0.204486 -1.58285 0
M  V30 7406 C 681.542 1.6431 -1.16639 0
M  V30 7407 O 680.598 2.37077 -0.868946 0
M  V30 7408 C 681.911 -0.0587019 -3.00643 0
M  V30 7409 C 683.459 0.00462303 -3.13 0
M  V30 7410 C 683.934 -0.231297 -4.57416 0
M  V30 7411 N 685.425 -0.178394 -4.62856 0
M  V30 7412 C 686.16 -0.335379 -5.72418 0
M  V30 7413 N 685.656 -0.550355 -6.90611 0
M  V30 7414 N 687.449 -0.272641 -5.61438 0
M  V30 7415 H 679.6 -1.09116 -1.82229 0
M  V30 7416 H 681.863 -0.432311 -0.843689 0
M  V30 7417 H 681.569 -1.05453 -3.35518 0
M  V30 7418 H 681.443 0.658508 -3.71407 0
M  V30 7419 H 683.83 0.991009 -2.77962 0
M  V30 7420 H 683.911 -0.744992 -2.44711 0
M  V30 7421 H 683.555 -1.2148 -4.93158 0
M  V30 7422 H 683.485 0.5387 -5.23837 0
M  V30 7423 H 685.976 -0.0170923 -3.77896 0
M  V30 7424 H 686.289 -0.660116 -7.69976 0
M  V30 7425 H 684.634 -0.586736 -6.92519 0
M  V30 7426 H 687.825 -0.105421 -4.67981 0
M  V30 7427 H 687.998 -0.398418 -6.46774 0
M  V30 7428 N 681.404 1.57128 0.121893 0
M  V30 7429 C 682.354 1.96556 1.15541 0
M  V30 7430 C 683.338 0.840147 1.37224 0
M  V30 7431 O 684.53 1.10382 1.38365 0
M  V30 7432 C 681.659 2.37097 2.48274 0
M  V30 7433 C 680.745 3.56265 2.30078 0
M  V30 7434 N 681.136 4.72041 1.81688 0
M  V30 7435 C 679.434 3.61841 2.60744 0
M  V30 7436 C 680.135 5.54075 1.77132 0
M  V30 7437 N 679.111 4.96483 2.21371 0
M  V30 7438 H 682.913 2.83531 0.77378 0
M  V30 7439 H 680.427 1.59019 0.329672 0
M  V30 7440 H 682.424 2.6356 3.2302 0
M  V30 7441 H 681.084 1.51486 2.87197 0
M  V30 7442 H 682.095 4.95313 1.51278 0
M  V30 7443 H 678.772 2.8683 3.03373 0
M  V30 7444 H 680.162 6.56939 1.40998 0
M  V30 7445 N 682.882 -0.391992 1.52647 0
M  V30 7446 C 684.107 -1.16312 1.71716 0
M  V30 7447 C 684.532 -1.83042 0.433279 0
M  V30 7448 O 683.89 -1.70705 -0.610707 0
M  V30 7449 C 683.938 -2.18908 2.86551 0
M  V30 7450 O 683.042 -3.2543 2.53316 0
M  V30 7451 H 682.383 -0.338743 0.571095 0
M  V30 7452 H 684.913 -0.457202 1.99426 0
M  V30 7453 H 684.923 -2.62954 3.1196 0
M  V30 7454 H 683.598 -1.69726 3.79692 0
M  V30 7455 H 682.175 -2.86543 2.38637 0
M  V30 7456 N 684.36 -1.4356 -0.65026 0
M  V30 7457 C 685.59 -1.48563 -1.4357 0
M  V30 7458 C 685.998 -0.103041 -1.88919 0
M  V30 7459 O 685.341 0.897602 -1.60277 0
M  V30 7460 C 685.403 -2.37181 -2.70158 0
M  V30 7461 C 685.067 -3.84673 -2.4673 0
M  V30 7462 C 686.064 -4.75704 -2.09765 0
M  V30 7463 C 683.749 -4.29189 -2.60963 0
M  V30 7464 C 685.743 -6.09249 -1.87334 0
M  V30 7465 C 683.43 -5.62787 -2.38147 0
M  V30 7466 C 684.428 -6.52634 -2.01389 0
M  V30 7467 O 684.116 -7.83761 -1.78813 0
M  V30 7468 H 683.848 -0.506743 -0.447423 0
M  V30 7469 H 686.402 -1.89001 -0.80423 0
M  V30 7470 H 684.632 -1.91636 -3.35876 0
M  V30 7471 H 686.321 -2.33354 -3.32116 0
M  V30 7472 H 687.087 -4.42589 -1.98343 0
M  V30 7473 H 682.966 -3.59529 -2.88548 0
M  V30 7474 H 686.51 -6.7934 -1.58567 0
M  V30 7475 H 682.407 -5.95469 -2.49173 0
M  V30 7476 H 683.175 -7.95368 -1.93214 0
M  V30 7477 N 685.838 0.888903 -1.30139 0
M  V30 7478 C 687.086 1.63713 -1.18501 0
M  V30 7479 C 687.407 1.9324 0.261399 0
M  V30 7480 O 686.677 1.56608 1.17689 0
M  V30 7481 H 685.257 0.606861 -0.435579 0
M  V30 7482 H 687.919 1.06525 -1.63213 0
M  V30 7483 H 687.015 2.58894 -1.743 0
M  V30 7484 N 687.317 1.12792 1.10072 0
M  V30 7485 C 688.563 0.886857 1.82381 0
M  V30 7486 C 688.896 -0.58576 1.85155 0
M  V30 7487 O 688.171 -1.43317 1.31493 0
M  V30 7488 C 688.454 1.46703 3.28862 0
M  V30 7489 C 688.307 3.00829 3.34398 0
M  V30 7490 C 689.626 1.12971 4.25353 0
M  V30 7491 H 686.745 0.32362 0.662148 0
M  V30 7492 H 689.387 1.39513 1.28982 0
M  V30 7493 H 687.537 1.03476 3.74466 0
M  V30 7494 H 689.209 3.52764 2.97247 0
M  V30 7495 H 687.452 3.36164 2.74183 0
M  V30 7496 H 688.123 3.36519 4.3756 0
M  V30 7497 H 690.599 1.50313 3.88001 0
M  V30 7498 H 689.475 1.56223 5.26199 0
M  V30 7499 H 689.736 0.0424452 4.4208 0
M  V30 7500 N 688.795 -1.27931 0.920396 0
M  V30 7501 C 690.211 -1.47085 0.619537 0
M  V30 7502 C 690.411 -1.83463 -0.833291 0
M  V30 7503 O 689.467 -1.94363 -1.61181 0
M  V30 7504 C 690.78 -2.56878 1.56314 0
M  V30 7505 C 692.328 -2.70743 1.57058 0
M  V30 7506 C 692.803 -3.83687 2.50097 0
M  V30 7507 N 694.294 -3.9105 2.48262 0
M  V30 7508 C 695.029 -4.77842 3.16945 0
M  V30 7509 N 694.525 -5.69176 3.94982 0
M  V30 7510 N 696.318 -4.71509 3.06 0
M  V30 7511 H 688.469 -1.02601 1.85975 0
M  V30 7512 H 690.732 -0.511682 0.798051 0
M  V30 7513 H 690.438 -2.36923 2.59923 0
M  V30 7514 H 690.312 -3.54117 1.29928 0
M  V30 7515 H 692.699 -2.90083 0.541832 0
M  V30 7516 H 692.78 -1.74015 1.8749 0
M  V30 7517 H 692.424 -3.65101 3.53077 0
M  V30 7518 H 692.354 -4.79827 2.16964 0
M  V30 7519 H 694.845 -3.25738 1.91581 0
M  V30 7520 H 695.158 -6.32245 4.44394 0
M  V30 7521 H 693.503 -5.68995 3.99086 0
M  V30 7522 H 696.694 -3.99151 2.44533 0
M  V30 7523 H 696.867 -5.38933 3.59799 0
M  V30 7524 N 690.273 -0.685099 -1.4193 0
M  V30 7525 C 691.52 -0.211658 -2.01391 0
M  V30 7526 C 691.848 1.18526 -1.54214 0
M  V30 7527 O 691.103 1.81189 -0.739519 0
M  V30 7528 C 691.402 -0.206154 -3.56805 0
M  V30 7529 C 691.068 -1.54915 -4.23453 0
M  V30 7530 C 689.73 -1.91684 -4.41373 0
M  V30 7531 C 692.082 -2.43317 -4.60919 0
M  V30 7532 C 689.41 -3.16461 -4.94034 0
M  V30 7533 C 691.762 -3.67415 -5.14965 0
M  V30 7534 C 690.426 -4.04341 -5.31098 0
M  V30 7535 H 689.696 -0.0774511 -0.736941 0
M  V30 7536 H 692.343 -0.882121 -1.69973 0
M  V30 7537 H 690.648 0.547841 -3.87951 0
M  V30 7538 H 692.345 0.17753 -4.00607 0
M  V30 7539 H 688.935 -1.25314 -4.09871 0
M  V30 7540 H 693.119 -2.16192 -4.46738 0
M  V30 7541 H 688.375 -3.45078 -5.04709 0
M  V30 7542 H 692.549 -4.3611 -5.42938 0
M  V30 7543 H 690.176 -5.01101 -5.71666 0
M  V30 7544 N 691.751 1.51645 -0.429126 0
M  V30 7545 C 692.699 2.29119 0.400921 0
M  V30 7546 C 693.693 1.34628 1.02819 0
M  V30 7547 O 694.899 1.52004 0.964098 0
M  V30 7548 H 691.274 0.737273 0.148095 0
M  V30 7549 H 693.245 2.97144 -0.273457 0
M  V30 7550 C 691.994 3.13953 1.49429 0
M  V30 7551 H 691.317 3.86544 1.02097 0
M  V30 7552 H 692.757 3.71232 2.04849 0
M  V30 7553 C 691.216 2.28796 2.47293 0
M  V30 7554 O 691.746 1.94193 3.51642 0
M  V30 7555 N 689.952 1.92177 2.17982 0
M  V30 7556 H 689.499 2.20517 1.33154 0
M  V30 7557 H 689.457 1.35497 2.83704 0
M  V30 7558 N 693.229 0.160201 1.56784 0
M  V30 7559 C 694.477 -0.486625 1.96154 0
M  V30 7560 C 694.798 -1.64525 1.04673 0
M  V30 7561 O 694.068 -1.95586 0.110864 0
M  V30 7562 H 692.648 -0.182764 0.724297 0
M  V30 7563 H 695.31 0.238787 1.93432 0
M  V30 7564 H 694.406 -0.854025 3.00188 0
M  V30 7565 N 694.707 -1.5719 -0.113559 0
M  V30 7566 C 695.954 -1.85138 -0.820382 0
M  V30 7567 C 696.282 -0.74608 -1.79622 0
M  V30 7568 O 695.537 0.262077 -1.93937 0
M  V30 7569 C 695.836 -3.19593 -1.59984 0
M  V30 7570 C 695.502 -4.44315 -0.767809 0
M  V30 7571 C 694.164 -4.78179 -0.538379 0
M  V30 7572 C 696.516 -5.2086 -0.188203 0
M  V30 7573 C 693.844 -5.86028 0.28082 0
M  V30 7574 C 696.196 -6.29572 0.618217 0
M  V30 7575 C 694.86 -6.61964 0.857912 0
M  V30 7576 H 694.13 -0.677467 -0.300199 0
M  V30 7577 H 696.777 -1.91322 -0.0825443 0
M  V30 7578 H 695.082 -3.0901 -2.40874 0
M  V30 7579 H 696.779 -3.3844 -2.1508 0
M  V30 7580 H 693.369 -4.17786 -0.956724 0
M  V30 7581 H 697.553 -4.95045 -0.352658 0
M  V30 7582 H 692.809 -6.09547 0.475693 0
M  V30 7583 H 696.983 -6.88064 1.0743 0
M  V30 7584 H 694.61 -7.45365 1.49451 0
M  V30 7585 N 696.185 0.383891 -1.52853 0
M  V30 7586 C 697.117 1.48889 -1.74255 0
M  V30 7587 C 698.13 1.50405 -0.623063 0
M  V30 7588 O 699.319 1.54215 -0.898887 0
M  V30 7589 C 696.419 2.87721 -1.79081 0
M  V30 7590 C 695.592 3.10111 -3.08464 0
M  V30 7591 C 694.651 4.28954 -3.0477 0
M  V30 7592 O 693.677 4.25012 -3.78621 0
M  V30 7593 N 694.879 5.35411 -2.24311 0
M  V30 7594 H 697.644 1.30915 -2.69595 0
M  V30 7595 H 695.205 0.573454 -1.51404 0
M  V30 7596 H 697.197 3.65333 -1.7411 0
M  V30 7597 H 695.767 2.99029 -0.911052 0
M  V30 7598 H 694.987 2.20319 -3.26884 0
M  V30 7599 H 696.275 3.21928 -3.94005 0
M  V30 7600 H 695.673 5.41471 -1.63787 0
M  V30 7601 H 694.23 6.1167 -2.25175 0
M  V30 7602 N 697.663 1.43903 0.642637 0
M  V30 7603 C 698.626 1.49538 1.73698 0
M  V30 7604 C 699.626 0.378776 1.56275 0
M  V30 7605 O 700.816 0.64095 1.6198 0
M  V30 7606 C 697.948 1.35821 3.12675 0
M  V30 7607 H 699.141 2.47008 1.70079 0
M  V30 7608 H 696.694 1.30824 0.85526 0
M  V30 7609 H 697.429 0.393994 3.21898 0
M  V30 7610 H 697.214 2.16776 3.26727 0
M  V30 7611 H 698.704 1.4272 3.92455 0
M  V30 7612 N 699.141 -0.881989 1.30609 0
M  V30 7613 C 700.418 -1.61563 1.10258 0
M  V30 7614 C 700.798 -2.08228 -0.347053 0
M  V30 7615 O 700.146 -1.85151 -1.33908 0
M  V30 7616 C 700.356 -2.78287 2.10612 0
M  V30 7617 C 701.704 -3.48545 2.4249 0
M  V30 7618 O 702.728 -2.88479 2.08945 0
M  V30 7619 O 701.587 -4.56873 2.99883 0
M  V30 7620 H 698.681 -0.710238 0.423663 0
M  V30 7621 H 701.227 -0.928503 1.42045 0
M  V30 7622 H 699.999 -2.41131 3.08174 0
M  V30 7623 H 699.622 -3.54695 1.79659 0
M  V30 7624 N 700.619 -1.13374 -1.09472 0
M  V30 7625 C 701.896 -0.806329 -1.78207 0
M  V30 7626 C 702.276 0.702191 -1.99079 0
M  V30 7627 O 701.624 1.63931 -1.59182 0
M  V30 7628 C 701.834 -1.59271 -3.10538 0
M  V30 7629 C 703.182 -1.78509 -3.85253 0
M  V30 7630 O 704.206 -1.55866 -3.20288 0
M  V30 7631 O 703.065 -2.16287 -5.01879 0
M  V30 7632 H 700.159 -0.29435 -0.772843 0
M  V30 7633 H 702.705 -1.23833 -1.16033 0
M  V30 7634 H 701.477 -2.61792 -2.90828 0
M  V30 7635 H 701.1 -1.15562 -3.80436 0
M  V30 7636 N 702.098 1.27442 -0.927168 0
M  V30 7637 C 703.323 1.99036 -0.583042 0
M  V30 7638 C 703.748 1.68711 0.83176 0
M  V30 7639 O 703.106 0.927081 1.55804 0
M  V30 7640 C 703.154 3.51271 -0.814925 0
M  V30 7641 O 702.258 4.12226 0.119742 0
M  V30 7642 H 701.599 0.624883 -0.224538 0
M  V30 7643 H 704.129 1.62263 -1.24628 0
M  V30 7644 H 704.139 4.01411 -0.730282 0
M  V30 7645 H 702.814 3.72676 -1.84623 0
M  V30 7646 H 701.391 3.72897 -0.0147688 0
M  V30 7647 N 703.576 0.692616 1.41565 0
M  V30 7648 C 704.825 0.219452 2.00503 0
M  V30 7649 C 705.138 -1.18683 1.55479 0
M  V30 7650 O 706.344 -1.75731 2.06956 0
M  V30 7651 C 704.8 0.341451 3.58277 0
M  V30 7652 C 704.408 1.75291 4.12283 0
M  V30 7653 C 706.152 -0.0720899 4.24439 0
M  V30 7654 C 704.059 1.82673 5.62481 0
M  V30 7655 H 702.989 0.0782874 0.749925 0
M  V30 7656 H 705.64 0.860386 1.62079 0
M  V30 7657 H 704.022 -0.367683 3.94289 0
M  V30 7658 H 705.196 2.49057 3.87695 0
M  V30 7659 H 703.511 2.11587 3.58636 0
M  V30 7660 H 706.108 -0.0373385 5.34687 0
M  V30 7661 H 706.451 -1.11034 4.0122 0
M  V30 7662 H 706.984 0.586663 3.9345 0
M  V30 7663 H 703.723 2.84539 5.90523 0
M  V30 7664 H 703.243 1.13288 5.89004 0
M  V30 7665 H 704.922 1.58827 6.27203 0
M  V30 7666 N 705.054 -1.51416 0.437162 0
M  V30 7667 C 706.301 -2.02086 -0.129364 0
M  V30 7668 C 706.629 -1.32133 -1.42728 0
M  V30 7669 O 705.884 -0.424916 -1.91031 0
M  V30 7670 C 706.183 -3.55203 -0.39564 0
M  V30 7671 C 705.849 -4.43447 0.81644 0
M  V30 7672 C 704.511 -4.67285 1.14884 0
M  V30 7673 C 706.863 -4.95219 1.62503 0
M  V30 7674 C 704.191 -5.40141 2.29052 0
M  V30 7675 C 706.543 -5.69327 2.7577 0
M  V30 7676 C 705.207 -5.91429 3.09464 0
M  V30 7677 H 704.477 -0.739486 -0.0473375 0
M  V30 7678 H 707.124 -1.82368 0.584321 0
M  V30 7679 H 705.429 -3.73252 -1.19121 0
M  V30 7680 H 707.126 -3.91944 -0.847399 0
M  V30 7681 H 703.716 -4.2509 0.547422 0
M  V30 7682 H 707.9 -4.76686 1.38144 0
M  V30 7683 H 703.156 -5.55468 2.55471 0
M  V30 7684 H 707.33 -6.08433 3.38795 0
M  V30 7685 H 704.957 -6.47662 3.98042 0
M  V30 7686 N 706.532 -0.168513 -1.56696 0
M  V30 7687 C 707.943 0.348694 -1.83415 0
M  V30 7688 C 708.294 1.63257 -1.0882 0
M  V30 7689 O 707.419 2.13707 -0.340333 0
M  V30 7690 C 708.014 0.639423 -3.32711 0
M  V30 7691 C 706.573 1.10108 -3.59935 0
M  V30 7692 C 705.72 0.135464 -2.76969 0
M  V30 7693 H 708.671 -0.392829 -1.53761 0
M  V30 7694 H 708.692 1.49179 -3.50037 0
M  V30 7695 H 708.204 -0.295173 -3.86976 0
M  V30 7696 H 706.305 2.05088 -3.11079 0
M  V30 7697 H 706.418 1.01218 -4.68286 0
M  V30 7698 H 704.782 0.632286 -2.46727 0
M  V30 7699 H 705.565 -0.793104 -3.34013 0
M  V30 7700 N 708.01 1.57248 0.105221 0
M  V30 7701 C 709.238 1.89768 0.82437 0
M  V30 7702 C 709.653 0.761192 1.72775 0
M  V30 7703 O 709.01 -0.267342 1.80531 0
M  V30 7704 C 709.061 3.2184 1.64625 0
M  V30 7705 O 708.782 4.31115 0.779217 0
M  V30 7706 C 710.283 3.68155 2.46935 0
M  V30 7707 H 707.503 0.628031 0.236259 0
M  V30 7708 H 710.047 2.04321 0.085485 0
M  V30 7709 H 708.202 3.08915 2.33775 0
M  V30 7710 H 708.616 5.06897 1.34745 0
M  V30 7711 H 710.09 4.6329 3.00111 0
M  V30 7712 H 710.567 2.95492 3.24932 0
M  V30 7713 H 711.173 3.83914 1.83002 0
M  V30 7714 N 709.488 -0.375779 1.53054 0
M  V30 7715 C 710.398 -1.48381 1.81715 0
M  V30 7716 C 711.414 -1.59087 0.704795 0
M  V30 7717 O 712.59 -1.75174 0.993785 0
M  V30 7718 C 709.655 -2.83767 1.99192 0
M  V30 7719 C 708.716 -2.82673 3.23102 0
M  V30 7720 C 707.949 -4.11601 3.39736 0
M  V30 7721 O 708.172 -5.07243 2.60885 0
M  V30 7722 O 707.106 -4.18034 4.33049 0
M  V30 7723 H 710.932 -1.27089 2.7583 0
M  V30 7724 H 708.517 -0.564902 1.38308 0
M  V30 7725 H 710.399 -3.64004 2.12318 0
M  V30 7726 H 709.074 -3.05057 1.08267 0
M  V30 7727 H 707.981 -2.0117 3.15407 0
M  V30 7728 H 709.314 -2.66335 4.13916 0
M  V30 7729 N 710.966 -1.44241 -0.634997 0
M  V30 7730 C 712.215 -1.46102 -1.39058 0
M  V30 7731 C 712.528 -0.0959909 -1.95364 0
M  V30 7732 O 713.734 0.00788751 -2.71499 0
M  V30 7733 C 712.19 -2.57195 -2.51751 0
M  V30 7734 C 711.798 -3.99888 -2.01974 0
M  V30 7735 C 713.542 -2.68272 -3.28984 0
M  V30 7736 C 711.449 -5.02412 -3.11987 0
M  V30 7737 H 710.379 -0.543556 -0.522554 0
M  V30 7738 H 713.03 -1.70294 -0.683538 0
M  V30 7739 H 711.412 -2.26237 -3.25012 0
M  V30 7740 H 712.586 -4.40396 -1.35604 0
M  V30 7741 H 710.901 -3.93019 -1.37568 0
M  V30 7742 H 713.498 -3.42042 -4.10988 0
M  V30 7743 H 713.841 -1.73957 -3.78212 0
M  V30 7744 H 714.374 -2.98622 -2.62812 0
M  V30 7745 H 711.113 -5.98342 -2.67707 0
M  V30 7746 H 710.633 -4.66501 -3.77011 0
M  V30 7747 H 712.312 -5.25939 -3.76825 0
M  V30 7748 N 712.444 0.87505 -1.31075 0
M  V30 7749 C 713.86 1.15997 -1.09622 0
M  V30 7750 C 714.06 2.01036 0.136611 0
M  V30 7751 O 713.116 2.38559 0.827397 0
M  V30 7752 C 714.429 1.85702 -2.36506 0
M  V30 7753 C 715.977 1.98425 -2.42067 0
M  V30 7754 C 716.452 2.71544 -3.68819 0
M  V30 7755 N 717.943 2.79084 -3.69684 0
M  V30 7756 C 718.678 3.36259 -4.64454 0
M  V30 7757 N 718.174 3.94406 -5.69575 0
M  V30 7758 N 719.967 3.34169 -4.51982 0
M  V30 7759 H 712.118 0.308258 -2.10151 0
M  V30 7760 H 714.381 0.199145 -0.926847 0
M  V30 7761 H 714.087 1.30663 -3.26527 0
M  V30 7762 H 713.961 2.86017 -2.45915 0
M  V30 7763 H 716.348 2.5263 -1.52518 0
M  V30 7764 H 716.429 0.971682 -2.36626 0
M  V30 7765 H 716.073 2.18008 -4.58732 0
M  V30 7766 H 716.003 3.73198 -3.71525 0
M  V30 7767 H 718.494 2.3781 -2.93691 0
M  V30 7768 H 718.807 4.36129 -6.37974 0
M  V30 7769 H 717.152 3.92797 -5.73355 0
M  V30 7770 H 720.343 2.87977 -3.69035 0
M  V30 7771 H 720.516 3.78431 -5.26017 0
M  V30 7772 N 713.922 1.13953 1.08869 0
M  V30 7773 C 714.87 0.817664 2.17754 0
M  V30 7774 C 715.864 -0.202444 1.68186 0
M  V30 7775 O 717.07 -0.0590159 1.79903 0
M  V30 7776 H 713.445 0.246671 0.710392 0
M  V30 7777 H 715.416 1.74401 2.4213 0
M  V30 7778 C 714.165 0.3063 3.46348 0
M  V30 7779 H 713.488 1.08259 3.84864 0
M  V30 7780 H 714.928 0.119584 4.23831 0
M  V30 7781 C 713.387 -0.969158 3.22659 0
M  V30 7782 O 713.917 -2.04386 3.45817 0
M  V30 7783 N 712.123 -0.902516 2.7623 0
M  V30 7784 H 711.67 -0.027801 2.57585 0
M  V30 7785 H 711.628 -1.75649 2.60758 0
M  V30 7786 N 715.4 -1.26948 0.933913 0
M  V30 7787 C 716.816 -1.46419 0.635103 0
M  V30 7788 C 717.016 -1.84336 -0.813785 0
M  V30 7789 O 716.072 -1.96061 -1.59111 0
M  V30 7790 C 717.385 -2.55206 1.5903 0
M  V30 7791 C 718.933 -2.69062 1.5992 0
M  V30 7792 C 719.408 -3.81013 2.54152 0
M  V30 7793 N 720.899 -3.88395 2.52395 0
M  V30 7794 C 721.634 -4.74454 3.21996 0
M  V30 7795 N 721.13 -5.64954 4.00997 0
M  V30 7796 N 722.923 -4.68237 3.10983 0
M  V30 7797 H 715.074 -1.00622 1.87053 0
M  V30 7798 H 717.337 -0.503189 0.803433 0
M  V30 7799 H 717.043 -2.34153 2.62422 0
M  V30 7800 H 716.917 -3.52719 1.33677 0
M  V30 7801 H 719.304 -2.89492 0.572569 0
M  V30 7802 H 719.385 -1.72016 1.89325 0
M  V30 7803 H 719.029 -3.61336 3.5693 0
M  V30 7804 H 718.959 -4.77499 2.22041 0
M  V30 7805 H 721.45 -3.23687 1.95025 0
M  V30 7806 H 721.763 -6.27496 4.51074 0
M  V30 7807 H 720.108 -5.6473 4.05099 0
M  V30 7808 H 723.299 -3.96535 2.48753 0
M  V30 7809 H 723.472 -5.35087 3.65494 0
M  V30 7810 N 716.879 -0.700114 -1.41195 0
M  V30 7811 C 718.125 -0.233351 -2.01453 0
M  V30 7812 C 718.458 1.16548 -1.55339 0
M  V30 7813 O 717.733 1.78756 -0.766575 0
M  V30 7814 C 718.016 -0.2961 -3.58881 0
M  V30 7815 C 717.869 -1.7322 -4.15108 0
M  V30 7816 C 719.188 0.341525 -4.38773 0
M  V30 7817 H 716.307 -0.0862667 -0.731934 0
M  V30 7818 H 718.949 -0.889693 -1.67882 0
M  V30 7819 H 717.099 0.262736 -3.87611 0
M  V30 7820 H 718.771 -2.34523 -3.97236 0
M  V30 7821 H 717.014 -2.2649 -3.69979 0
M  V30 7822 H 717.685 -1.7276 -5.24269 0
M  V30 7823 H 720.161 -0.134461 -4.15883 0
M  V30 7824 H 719.037 0.267098 -5.4825 0
M  V30 7825 H 719.298 1.42289 -4.18577 0
M  V30 7826 N 718.357 1.51182 -0.445186 0
M  V30 7827 C 719.267 2.31692 0.368255 0
M  V30 7828 C 720.283 1.40942 1.02036 0
M  V30 7829 O 721.459 1.74011 1.01401 0
M  V30 7830 C 718.524 3.14903 1.45041 0
M  V30 7831 C 717.585 4.21442 0.817615 0
M  V30 7832 C 716.818 5.00677 1.8482 0
M  V30 7833 O 717.041 4.80644 3.07145 0
M  V30 7834 O 715.975 5.84559 1.43438 0
M  V30 7835 H 719.801 3.0232 -0.289219 0
M  V30 7836 H 717.386 1.47951 -0.207555 0
M  V30 7837 H 719.268 3.66612 2.07783 0
M  V30 7838 H 717.943 2.47031 2.09182 0
M  V30 7839 H 716.85 3.73791 0.151931 0
M  V30 7840 H 718.183 4.9171 0.219564 0
M  V30 7841 N 719.835 0.176821 1.56605 0
M  V30 7842 C 720.798 -0.737429 2.17013 0
M  V30 7843 C 721.798 -1.15414 1.11965 0
M  V30 7844 O 722.988 -1.0702 1.37449 0
M  V30 7845 C 720.12 -2.00445 2.75744 0
M  V30 7846 H 721.313 -0.211455 2.99154 0
M  V30 7847 H 718.866 -0.0727582 1.56131 0
M  V30 7848 H 719.601 -2.57338 1.97352 0
M  V30 7849 H 719.386 -1.71456 3.52626 0
M  V30 7850 H 720.876 -2.65679 3.22187 0
M  V30 7851 N 721.313 -1.57302 -0.09688 0
M  V30 7852 C 722.263 -1.98369 -1.12399 0
M  V30 7853 C 723.247 -0.861872 -1.3587 0
M  V30 7854 O 724.439 -1.1257 -1.36591 0
M  V30 7855 C 721.568 -2.41017 -2.4447 0
M  V30 7856 C 720.654 -3.59881 -2.24381 0
M  V30 7857 N 721.045 -4.74872 -1.74155 0
M  V30 7858 C 719.343 -3.65943 -2.54954 0
M  V30 7859 C 720.044 -5.56823 -1.68294 0
M  V30 7860 N 719.02 -4.99942 -2.13444 0
M  V30 7861 H 722.822 -2.84726 -0.728575 0
M  V30 7862 H 720.336 -1.59523 -0.304332 0
M  V30 7863 H 722.333 -2.68665 -3.18786 0
M  V30 7864 H 720.993 -1.56036 -2.84751 0
M  V30 7865 H 722.004 -4.97657 -1.43379 0
M  V30 7866 H 718.681 -2.9162 -2.98771 0
M  V30 7867 H 720.071 -6.59099 -1.30528 0
M  V30 7868 N 722.791 0.367657 -1.53252 0
M  V30 7869 C 724.039 1.10832 -1.68999 0
M  V30 7870 C 724.36 1.89894 -0.443306 0
M  V30 7871 O 723.63 1.88235 0.54262 0
M  V30 7872 H 722.21 0.412153 -0.623008 0
M  V30 7873 H 724.872 0.414775 -1.90435 0
M  V30 7874 H 723.968 1.7993 -2.55013 0
M  V30 7875 N 724.269 1.44576 0.627338 0
M  V30 7876 C 725.219 1.48168 1.73293 0
M  V30 7877 C 726.203 0.347045 1.57113 0
M  V30 7878 O 727.395 0.592605 1.66785 0
M  V30 7879 C 724.524 1.43236 3.11991 0
M  V30 7880 C 723.61 2.61828 3.33627 0
M  V30 7881 N 724.001 3.87053 3.25612 0
M  V30 7882 C 722.299 2.57104 3.64436 0
M  V30 7883 C 723 4.66093 3.48041 0
M  V30 7884 N 721.976 3.97228 3.71095 0
M  V30 7885 H 725.778 2.42832 1.6556 0
M  V30 7886 H 723.292 1.39592 0.829934 0
M  V30 7887 H 725.289 1.43893 3.91281 0
M  V30 7888 H 723.949 0.496133 3.20887 0
M  V30 7889 H 724.96 4.18966 3.04447 0
M  V30 7890 H 721.637 1.72295 3.8029 0
M  V30 7891 H 723.027 5.75117 3.47404 0
M  V30 7892 N 725.747 -0.868086 1.31537 0
M  V30 7893 C 726.995 -1.61807 1.21091 0
M  V30 7894 C 727.316 -1.93631 -0.230623 0
M  V30 7895 O 726.586 -1.5846 -1.15183 0
M  V30 7896 H 725.166 -0.599854 0.445178 0
M  V30 7897 H 727.828 -1.03915 1.64887 0
M  V30 7898 H 726.924 -2.56088 1.78396 0
M  V30 7899 N 727.225 -1.14528 -1.08264 0
M  V30 7900 C 728.471 -0.91576 -1.80947 0
M  V30 7901 C 728.804 0.55623 -1.86064 0
M  V30 7902 O 728.079 1.41207 -1.33756 0
M  V30 7903 C 728.362 -1.51917 -3.26486 0
M  V30 7904 C 728.215 -3.06111 -3.2957 0
M  V30 7905 C 729.534 -1.19724 -4.23502 0
M  V30 7906 H 726.653 -0.334113 -0.656915 0
M  V30 7907 H 729.295 -1.41547 -1.26746 0
M  V30 7908 H 727.445 -1.0942 -3.72773 0
M  V30 7909 H 729.117 -3.57448 -2.91597 0
M  V30 7910 H 727.36 -3.40483 -2.688 0
M  V30 7911 H 728.031 -3.43438 -4.32151 0
M  V30 7912 H 730.507 -1.56467 -3.85561 0
M  V30 7913 H 729.383 -1.64575 -5.23647 0
M  V30 7914 H 729.644 -0.112771 -4.41956 0
M  V30 7915 N 728.703 1.26451 -0.940633 0
M  V30 7916 C 729.931 1.97868 -0.604642 0
M  V30 7917 C 730.346 1.70051 0.820251 0
M  V30 7918 O 729.703 0.96843 1.54686 0
M  V30 7919 C 729.754 3.51684 -0.836689 0
M  V30 7920 O 729.475 3.78533 -2.20554 0
M  V30 7921 C 730.976 4.40343 -0.511169 0
M  V30 7922 H 728.196 0.631105 -0.227919 0
M  V30 7923 H 730.74 1.60979 -1.26119 0
M  V30 7924 H 728.895 3.86736 -0.226759 0
M  V30 7925 H 729.309 4.73065 -2.26517 0
M  V30 7926 H 730.783 5.47229 -0.724157 0
M  V30 7927 H 731.26 4.35694 0.553815 0
M  V30 7928 H 731.866 4.10834 -1.0998 0
M  V30 7929 N 730.181 0.707592 1.40822 0
M  V30 7930 C 731.131 0.0265008 2.27985 0
M  V30 7931 C 732.115 -0.740685 1.42838 0
M  V30 7932 O 733.307 -0.6142 1.66002 0
M  V30 7933 C 730.436 -0.900382 3.31282 0
M  V30 7934 C 729.522 -0.128807 4.23904 0
M  V30 7935 N 729.913 0.883744 4.9802 0
M  V30 7936 C 728.211 -0.362539 4.44524 0
M  V30 7937 C 728.912 1.34666 5.65898 0
M  V30 7938 N 727.888 0.670306 5.39451 0
M  V30 7939 H 731.69 0.802667 2.82727 0
M  V30 7940 H 729.204 0.539475 1.53178 0
M  V30 7941 H 731.201 -1.40357 3.92563 0
M  V30 7942 H 729.861 -1.67601 2.781 0
M  V30 7943 H 730.872 1.26435 5.0223 0
M  V30 7944 H 727.549 -1.11512 4.02332 0
M  V30 7945 H 728.939 2.18756 6.35292 0
M  V30 7946 N 731.66 -1.50943 0.453197 0
M  V30 7947 C 732.937 -1.94872 -0.168633 0
M  V30 7948 C 733.317 -1.39272 -1.5864 0
M  V30 7949 O 732.665 -0.586272 -2.20851 0
M  V30 7950 C 732.875 -3.48757 -0.130217 0
M  V30 7951 C 734.223 -4.23331 -0.327975 0
M  V30 7952 O 735.247 -3.55594 -0.207619 0
M  V30 7953 O 734.106 -5.43529 -0.569077 0
M  V30 7954 H 731.2 -0.818042 -0.121394 0
M  V30 7955 H 733.746 -1.61782 0.512316 0
M  V30 7956 H 732.518 -3.81725 0.860346 0
M  V30 7957 H 732.141 -3.88333 -0.853397 0
M  V30 7958 N 733.138 -0.185124 -1.56509 0
M  V30 7959 C 734.088 0.752315 -2.15231 0
M  V30 7960 C 735.072 1.18327 -1.0903 0
M  V30 7961 O 736.264 1.14333 -1.35119 0
M  V30 7962 C 733.393 1.97583 -2.80742 0
M  V30 7963 C 732.479 1.56623 -3.94119 0
M  V30 7964 N 732.87 0.867008 -4.98314 0
M  V30 7965 C 731.168 1.85626 -4.05535 0
M  V30 7966 C 731.869 0.663228 -5.77907 0
M  V30 7967 N 730.845 1.20891 -5.29987 0
M  V30 7968 H 734.647 0.209267 -2.93154 0
M  V30 7969 H 732.161 0.0150444 -1.62393 0
M  V30 7970 H 734.158 2.65779 -3.21197 0
M  V30 7971 H 732.818 2.52369 -2.04303 0
M  V30 7972 H 733.829 0.52355 -5.15247 0
M  V30 7973 H 730.506 2.41992 -3.40215 0
M  V30 7974 H 731.896 0.109273 -6.71811 0
M  V30 7975 N 734.616 1.57351 0.0885366 0
M  V30 7976 C 735.526 2.05858 1.12516 0
M  V30 7977 C 736.542 0.984758 1.43452 0
M  V30 7978 O 737.718 1.29836 1.53963 0
M  V30 7979 C 734.783 2.47882 2.42395 0
M  V30 7980 C 733.844 3.69487 2.18582 0
M  V30 7981 C 733.077 4.09497 3.42268 0
M  V30 7982 O 733.3 3.49536 4.50755 0
M  V30 7983 O 732.234 5.02406 3.31469 0
M  V30 7984 H 736.06 2.94467 0.743146 0
M  V30 7985 H 733.645 1.46326 0.301507 0
M  V30 7986 H 735.527 2.75509 3.18862 0
M  V30 7987 H 734.202 1.62408 2.8001 0
M  V30 7988 H 733.109 3.46967 1.39875 0
M  V30 7989 H 734.442 4.55761 1.85857 0
M  V30 7990 N 736.094 -0.359525 1.53444 0
M  V30 7991 C 737.371 -1.11756 1.6053 0
M  V30 7992 C 737.751 -2.06949 0.416587 0
M  V30 7993 O 737.099 -2.20681 -0.592628 0
M  V30 7994 C 737.309 -1.85133 2.95849 0
M  V30 7995 C 738.657 -2.3945 3.50641 0
M  V30 7996 O 739.681 -1.95251 2.97918 0
M  V30 7997 O 738.54 -3.20266 4.42823 0
M  V30 7998 H 735.634 -0.513005 0.648656 0
M  V30 7999 H 738.18 -0.362301 1.65787 0
M  V30 8000 H 736.952 -1.15694 3.73806 0
M  V30 8001 H 736.575 -2.67554 2.9411 0
M  V30 8002 N 737.572 -1.44907 -0.619662 0
M  V30 8003 C 738.797 -1.52021 -1.41083 0
M  V30 8004 C 739.222 -0.14976 -1.87503 0
M  V30 8005 O 738.58 0.863303 -1.59426 0
M  V30 8006 C 738.628 -2.49911 -2.59955 0
M  V30 8007 O 737.732 -2.00857 -3.60181 0
M  V30 8008 H 737.073 -0.512912 -0.421684 0
M  V30 8009 H 739.603 -1.90149 -0.755282 0
M  V30 8010 H 739.613 -2.68323 -3.07354 0
M  V30 8011 H 738.288 -3.4945 -2.25516 0
M  V30 8012 H 736.865 -1.92265 -3.19513 0
M  V30 8013 N 739.05 0.861098 -1.31996 0
M  V30 8014 C 739.998 1.99052 -1.20337 0
M  V30 8015 C 740.992 1.69045 -0.109623 0
M  V30 8016 O 742.198 1.77931 -0.272117 0
M  V30 8017 H 738.573 0.653064 -0.372843 0
M  V30 8018 H 740.544 2.06015 -2.15872 0
M  V30 8019 C 739.293 3.34846 -0.936663 0
M  V30 8020 H 738.616 3.58462 -1.77045 0
M  V30 8021 H 740.056 4.1444 -0.895302 0
M  V30 8022 C 738.515 3.34965 0.360607 0
M  V30 8023 O 739.045 3.7745 1.37456 0
M  V30 8024 N 737.251 2.88101 0.380296 0
M  V30 8025 H 736.798 2.53721 -0.445351 0
M  V30 8026 H 736.756 2.88563 1.24816 0
M  V30 8027 N 740.528 1.15101 1.07655 0
M  V30 8028 C 741.438 0.858869 2.18313 0
M  V30 8029 C 742.454 -0.163641 1.73229 0
M  V30 8030 O 743.63 0.00969541 2.01398 0
M  V30 8031 C 740.695 0.34893 3.4494 0
M  V30 8032 C 739.756 1.43495 4.04608 0
M  V30 8033 C 738.989 0.949253 5.2519 0
M  V30 8034 O 739.212 -0.20636 5.70027 0
M  V30 8035 O 738.146 1.73161 5.76454 0
M  V30 8036 H 741.972 1.78386 2.45788 0
M  V30 8037 H 739.557 0.929876 1.16934 0
M  V30 8038 H 741.439 0.070851 4.2134 0
M  V30 8039 H 740.114 -0.548237 3.19024 0
M  V30 8040 H 739.021 1.7666 3.29761 0
M  V30 8041 H 740.354 2.30692 4.3479 0
M  V30 8042 N 742.006 -1.2595 0.947325 0
M  V30 8043 C 743.231 -1.98083 0.614633 0
M  V30 8044 C 743.656 -1.70013 -0.804815 0
M  V30 8045 O 743.014 -0.95175 -1.54309 0
M  V30 8046 C 743.062 -3.4993 0.870706 0
M  V30 8047 O 742.166 -4.12364 -0.0541451 0
M  V30 8048 H 741.507 -0.621232 0.234451 0
M  V30 8049 H 744.037 -1.60259 1.27193 0
M  V30 8050 H 744.047 -4.00198 0.794051 0
M  V30 8051 H 742.722 -3.69691 1.90529 0
M  V30 8052 H 741.299 -3.72826 0.0740917 0
M  V30 8053 N 743.484 -0.715051 -1.40445 0
M  V30 8054 C 744.414 -0.0768699 -2.33373 0
M  V30 8055 C 745.395 0.746109 -1.52863 0
M  V30 8056 O 746.58 0.695142 -1.81332 0
M  V30 8057 C 743.71 0.846014 -3.36838 0
M  V30 8058 C 742.664 0.128694 -4.27806 0
M  V30 8059 C 741.99 1.16726 -5.21804 0
M  V30 8060 C 743.29 -1.01679 -5.12307 0
M  V30 8061 H 744.984 -0.853061 -2.8699 0
M  V30 8062 H 742.53 -0.41167 -1.3799 0
M  V30 8063 H 744.483 1.30185 -4.00786 0
M  V30 8064 H 743.207 1.6541 -2.81615 0
M  V30 8065 H 741.866 -0.307314 -3.6531 0
M  V30 8066 H 741.514 1.96838 -4.62887 0
M  V30 8067 H 741.214 0.692188 -5.83509 0
M  V30 8068 H 742.738 1.62321 -5.88629 0
M  V30 8069 H 744.152 -0.640337 -5.69713 0
M  V30 8070 H 742.549 -1.4202 -5.83053 0
M  V30 8071 H 743.619 -1.84769 -4.48317 0
M  V30 8072 N 744.962 1.50701 -0.461195 0
M  V30 8073 C 746.187 2.07171 0.0974773 0
M  V30 8074 C 746.612 1.32391 1.3362 0
M  V30 8075 O 745.97 0.368676 1.77512 0
M  V30 8076 C 746.018 3.58651 0.374409 0
M  V30 8077 O 745.122 3.85816 1.4567 0
M  V30 8078 H 744.463 0.663944 -0.00862047 0
M  V30 8079 H 746.993 1.94021 -0.649394 0
M  V30 8080 H 747.003 4.03295 0.617843 0
M  V30 8081 H 745.678 4.12498 -0.530829 0
M  V30 8082 H 744.255 3.53018 1.20136 0
M  V30 8083 N 746.441 0.193421 1.56409 0
M  V30 8084 C 747.666 -0.454552 2.02358 0
M  V30 8085 C 748.091 -1.54516 1.07268 0
M  V30 8086 O 747.449 -1.81214 0.0558962 0
M  V30 8087 C 747.497 -0.989469 3.46759 0
M  V30 8088 O 746.601 -2.10244 3.54783 0
M  V30 8089 H 745.942 -0.106417 0.655417 0
M  V30 8090 H 748.472 0.303807 2.02332 0
M  V30 8091 H 748.482 -1.30649 3.86516 0
M  V30 8092 H 747.157 -0.191083 4.15461 0
M  V30 8093 H 745.734 -1.79419 3.26899 0
M  V30 8094 N 747.919 -1.57396 -0.0801906 0
M  V30 8095 C 749.196 -1.77883 -0.813451 0
M  V30 8096 C 749.576 -0.778879 -1.96206 0
M  V30 8097 O 748.924 0.189683 -2.27711 0
M  V30 8098 C 749.134 -3.24116 -1.2942 0
M  V30 8099 C 750.482 -3.87714 -1.73098 0
M  V30 8100 O 751.506 -3.27956 -1.39007 0
M  V30 8101 O 750.365 -4.92828 -2.36184 0
M  V30 8102 H 747.459 -0.729727 -0.389138 0
M  V30 8103 H 750.005 -1.69591 -0.0609166 0
M  V30 8104 H 748.777 -3.88443 -0.471947 0
M  V30 8105 H 748.4 -3.371 -2.1083 0
M  V30 8106 N 749.397 0.351382 -1.53633 0
M  V30 8107 C 750.307 1.45471 -1.84052 0
M  V30 8108 C 751.323 1.57945 -0.730015 0
M  V30 8109 O 752.499 1.73571 -1.02153 0
M  V30 8110 C 749.564 2.80562 -2.03681 0
M  V30 8111 C 748.625 2.77497 -3.27558 0
M  V30 8112 C 747.858 4.06144 -3.46241 0
M  V30 8113 O 748.081 5.03028 -2.68922 0
M  V30 8114 O 747.015 4.11092 -4.39645 0
M  V30 8115 H 750.841 1.22684 -2.77817 0
M  V30 8116 H 748.426 0.542827 -1.3919 0
M  V30 8117 H 750.308 3.6058 -2.18082 0
M  V30 8118 H 748.983 3.03296 -1.13106 0
M  V30 8119 H 747.89 1.96126 -3.18568 0
M  V30 8120 H 749.223 2.59716 -4.18101 0
M  V30 8121 N 750.875 1.45233 0.611969 0
M  V30 8122 C 752.291 1.29542 0.932251 0
M  V30 8123 C 752.491 0.24523 2.00002 0
M  V30 8124 O 751.547 -0.362333 2.49887 0
M  V30 8125 C 752.86 2.67301 1.37733 0
M  V30 8126 C 754.408 2.75163 1.49178 0
M  V30 8127 C 754.883 4.13437 1.97064 0
M  V30 8128 N 756.374 4.15709 2.04304 0
M  V30 8129 C 757.109 5.19566 2.42568 0
M  V30 8130 N 756.605 6.33771 2.79832 0
M  V30 8131 N 758.398 5.06923 2.42869 0
M  V30 8132 H 750.549 2.12192 -0.0938679 0
M  V30 8133 H 752.812 0.947775 0.0206569 0
M  V30 8134 H 752.518 3.45318 0.666951 0
M  V30 8135 H 752.392 2.95472 2.3447 0
M  V30 8136 H 754.779 1.97453 2.19309 0
M  V30 8137 H 754.86 2.50712 0.507674 0
M  V30 8138 H 754.504 4.91631 1.27521 0
M  V30 8139 H 754.434 4.35277 2.9638 0
M  V30 8140 H 756.925 3.33293 1.78113 0
M  V30 8141 H 757.238 7.08815 3.07898 0
M  V30 8142 H 755.583 6.37179 2.77538 0
M  V30 8143 H 758.774 4.1675 2.1316 0
M  V30 8144 H 758.947 5.87981 2.72364 0
M  V30 8145 N 752.353 -0.854086 1.3245 0
M  V30 8146 C 753.303 -1.9508 1.18016 0
M  V30 8147 C 754.287 -1.60665 0.0869417 0
M  V30 8148 O 755.479 -1.74201 0.313505 0
M  V30 8149 C 752.608 -3.3113 0.905961 0
M  V30 8150 C 751.694 -3.71763 2.04091 0
M  V30 8151 N 752.085 -3.84218 3.28953 0
M  V30 8152 C 750.383 -4.01393 1.94421 0
M  V30 8153 C 751.084 -4.192 4.03294 0
M  V30 8154 N 750.06 -4.30749 3.31596 0
M  V30 8155 H 753.862 -2.02843 2.12678 0
M  V30 8156 H 751.376 -1.04588 1.24238 0
M  V30 8157 H 753.373 -4.09471 0.783508 0
M  V30 8158 H 752.033 -3.24684 -0.0322715 0
M  V30 8159 H 753.044 -3.68524 3.63883 0
M  V30 8160 H 749.721 -4.03246 1.08162 0
M  V30 8161 H 751.111 -4.36301 5.1097 0
M  V30 8162 N 753.831 -1.1567 -1.07043 0
M  V30 8163 C 755.079 -0.931673 -1.79344 0
M  V30 8164 C 755.4 0.542421 -1.87304 0
M  V30 8165 O 754.67 1.39418 -1.37621 0
M  V30 8166 H 753.25 -0.34171 -0.664262 0
M  V30 8167 H 755.912 -1.45795 -1.29344 0
M  V30 8168 H 755.008 -1.34379 -2.81689 0
M  V30 8169 N 755.309 1.25446 -0.953992 0
M  V30 8170 C 756.259 2.23627 -0.444413 0
M  V30 8171 C 757.243 1.54004 0.465993 0
M  V30 8172 O 758.435 1.74454 0.29915 0
M  V30 8173 C 755.564 3.42179 0.277175 0
M  V30 8174 C 754.65 4.1907 -0.651263 0
M  V30 8175 N 755.041 4.73346 -1.78262 0
M  V30 8176 C 753.339 4.43628 -0.459338 0
M  V30 8177 C 754.04 5.31576 -2.36224 0
M  V30 8178 N 753.016 5.17991 -1.64884 0
M  V30 8179 H 756.818 2.63197 -1.30785 0
M  V30 8180 H 754.332 1.40677 -0.811402 0
M  V30 8181 H 756.329 4.11653 0.659367 0
M  V30 8182 H 754.989 3.04134 1.13723 0
M  V30 8183 H 756 4.705 -2.1645 0
M  V30 8184 H 752.677 4.15963 0.357885 0
M  V30 8185 H 754.067 5.84361 -3.3162 0
M  V30 8186 N 756.787 0.722489 1.40064 0
M  V30 8187 C 758.035 0.264455 2.00362 0
M  V30 8188 C 758.356 -1.14847 1.57592 0
M  V30 8189 O 757.626 -1.77982 0.818477 0
M  V30 8190 H 756.206 0.0947846 0.740962 0
M  V30 8191 H 758.868 0.929659 1.71299 0
M  V30 8192 H 757.964 0.302977 3.10626 0
M  V30 8193 N 758.265 -1.50454 0.469181 0
M  V30 8194 C 759.676 -1.86695 0.0136034 0
M  V30 8195 C 760.027 -1.38413 -1.39055 0
M  V30 8196 O 759.152 -0.748294 -2.03051 0
M  V30 8197 C 759.747 -3.38795 0.0179098 0
M  V30 8198 C 758.306 -3.74455 -0.382191 0
M  V30 8199 C 757.453 -2.74338 0.404207 0
M  V30 8200 H 760.404 -1.43225 0.683547 0
M  V30 8201 H 760.425 -3.72321 -0.78468 0
M  V30 8202 H 759.937 -3.73906 1.04 0
M  V30 8203 H 758.038 -3.44944 -1.4087 0
M  V30 8204 H 758.151 -4.79025 -0.084862 0
M  V30 8205 H 756.515 -2.54305 -0.141829 0
M  V30 8206 H 757.298 -3.12293 1.42577 0
M  V30 8207 N 759.743 -0.201713 -1.56304 0
M  V30 8208 C 760.968 0.443815 -2.02596 0
M  V30 8209 C 761.393 1.53945 -1.08086 0
M  V30 8210 O 760.751 1.81182 -0.0655056 0
M  V30 8211 C 760.799 0.971066 -3.47279 0
M  V30 8212 O 759.903 2.0836 -3.55893 0
M  V30 8213 H 759.244 0.10294 -0.655972 0
M  V30 8214 H 761.774 -0.314533 -2.02168 0
M  V30 8215 H 761.784 1.28598 -3.87204 0
M  V30 8216 H 760.459 0.169048 -4.15556 0
M  V30 8217 H 759.036 1.77683 -3.27846 0
M  V30 8218 N 761.222 1.57436 0.0718424 0
M  V30 8219 C 762.47 1.86878 0.769484 0
M  V30 8220 C 762.791 0.7937 1.78116 0
M  V30 8221 O 762.061 -0.177642 1.95093 0
M  V30 8222 H 760.641 0.689593 0.287177 0
M  V30 8223 H 763.303 1.94841 0.0479427 0
M  V30 8224 H 762.399 2.84387 1.28572 0
M  V30 8225 N 762.7 -0.34323 1.53817 0
M  V30 8226 C 763.647 -1.42153 1.81827 0
M  V30 8227 C 764.617 -1.52251 0.663996 0
M  V30 8228 O 765.802 -1.67784 0.908461 0
M  V30 8229 C 762.942 -2.78799 2.03384 0
M  V30 8230 C 762.055 -2.7749 3.31094 0
M  V30 8231 C 761.19 -4.05856 3.42717 0
M  V30 8232 C 760.229 -3.98776 4.64375 0
M  V30 8233 N 759.366 -5.18833 4.73029 0
M  V30 8234 H 764.206 -1.17567 2.73829 0
M  V30 8235 H 761.743 -0.569506 1.35628 0
M  V30 8236 H 763.701 -3.58211 2.13872 0
M  V30 8237 H 762.331 -3.01736 1.14696 0
M  V30 8238 H 761.383 -1.90182 3.29446 0
M  V30 8239 H 762.695 -2.68137 4.206 0
M  V30 8240 H 761.849 -4.93691 3.52638 0
M  V30 8241 H 760.588 -4.1799 2.51267 0
M  V30 8242 H 759.593 -3.09325 4.5453 0
M  V30 8243 H 760.818 -3.88224 5.57189 0
M  V30 8244 H 758.764 -5.31511 3.84489 0
M  V30 8245 H 758.681 -5.11737 5.56472 0
M  V30 8246 H 759.949 -6.08439 4.87261 0
M  V30 8247 N 764.178 -1.45556 -0.604258 0
M  V30 8248 C 765.589 -1.44171 -1.18624 0
M  V30 8249 C 765.94 -0.171081 -1.95453 0
M  V30 8250 O 765.065 0.727156 -2.03817 0
M  V30 8251 C 765.66 -2.61193 -2.15786 0
M  V30 8252 C 764.219 -2.62918 -2.69353 0
M  V30 8253 C 763.366 -2.36479 -1.4482 0
M  V30 8254 H 766.317 -1.53747 -0.393381 0
M  V30 8255 H 766.338 -2.35481 -2.98879 0
M  V30 8256 H 765.85 -3.53656 -1.59841 0
M  V30 8257 H 763.951 -1.7447 -3.29228 0
M  V30 8258 H 764.064 -3.6224 -3.13559 0
M  V30 8259 H 762.428 -1.86103 -1.73891 0
M  V30 8260 H 763.211 -3.31091 -0.907376 0
M  V30 8261 N 765.656 0.84705 -1.32902 0
M  V30 8262 C 766.589 1.96038 -1.1681 0
M  V30 8263 C 767.567 1.62468 -0.0656144 0
M  V30 8264 O 768.751 1.87136 -0.226339 0
M  V30 8265 C 765.878 3.29362 -0.789839 0
M  V30 8266 C 764.924 3.81908 -1.89865 0
M  V30 8267 S 765.757 4.04576 -3.50826 0
M  V30 8268 C 766.913 5.40863 -3.14989 0
M  V30 8269 H 767.146 2.09387 -2.11055 0
M  V30 8270 H 764.679 0.999896 -1.1765 0
M  V30 8271 H 766.637 4.06405 -0.578369 0
M  V30 8272 H 765.298 3.13815 0.133878 0
M  V30 8273 H 764.491 4.78357 -1.58716 0
M  V30 8274 H 764.093 3.11733 -2.06636 0
M  V30 8275 H 766.385 6.23393 -2.65306 0
M  V30 8276 H 767.328 5.7698 -4.10488 0
M  V30 8277 H 767.736 5.05228 -2.51804 0
M  V30 8278 N 767.134 1.16236 1.06428 0
M  V30 8279 C 768.064 0.890807 2.1584 0
M  V30 8280 C 769.045 -0.162333 1.69324 0
M  V30 8281 O 770.23 -0.0147191 1.94194 0
M  V30 8282 C 767.36 0.389615 3.45108 0
M  V30 8283 C 766.314 1.38051 4.05125 0
M  V30 8284 C 765.64 0.737773 5.29586 0
M  V30 8285 C 766.94 2.74965 4.44062 0
M  V30 8286 H 768.634 1.80577 2.38814 0
M  V30 8287 H 766.18 0.869657 1.14774 0
M  V30 8288 H 768.133 0.187127 4.20984 0
M  V30 8289 H 766.857 -0.560851 3.21748 0
M  V30 8290 H 765.516 1.56952 3.31303 0
M  V30 8291 H 765.164 -0.219135 5.02522 0
M  V30 8292 H 764.864 1.39914 5.70699 0
M  V30 8293 H 766.388 0.545275 6.0816 0
M  V30 8294 H 767.802 2.59855 5.11027 0
M  V30 8295 H 766.199 3.37563 4.96156 0
M  V30 8296 H 767.269 3.30321 3.54987 0
M  V30 8297 N 768.612 -1.24939 0.960631 0
M  V30 8298 C 769.562 -2.23388 0.456266 0
M  V30 8299 C 770.546 -1.54249 -0.45782 0
M  V30 8300 O 771.738 -1.7461 -0.289894 0
M  V30 8301 C 768.867 -3.42321 -0.259024 0
M  V30 8302 C 767.953 -4.18718 0.673478 0
M  V30 8303 N 768.344 -4.72394 1.8077 0
M  V30 8304 C 766.642 -4.43378 0.482859 0
M  V30 8305 C 767.343 -5.30316 2.3904 0
M  V30 8306 N 766.319 -5.17109 1.67629 0
M  V30 8307 H 770.121 -2.62499 1.32179 0
M  V30 8308 H 767.635 -1.40245 0.818851 0
M  V30 8309 H 769.632 -4.11997 -0.637527 0
M  V30 8310 H 768.292 -3.04732 -1.12108 0
M  V30 8311 H 769.303 -4.69345 2.18942 0
M  V30 8312 H 765.98 -4.16147 -0.335821 0
M  V30 8313 H 767.37 -5.82594 3.34715 0
M  V30 8314 N 770.09 -0.729906 -1.39679 0
M  V30 8315 C 771.04 -0.0627678 -2.27914 0
M  V30 8316 C 772.024 0.717867 -1.43998 0
M  V30 8317 O 773.216 0.587713 -1.66958 0
M  V30 8318 C 770.345 0.847564 -3.32673 0
M  V30 8319 C 769.431 0.0613515 -4.24056 0
M  V30 8320 N 769.822 -0.962863 -4.96551 0
M  V30 8321 C 768.12 0.291773 -4.45045 0
M  V30 8322 C 768.821 -1.43652 -5.63683 0
M  V30 8323 N 767.797 -0.756044 -5.38317 0
M  V30 8324 H 771.599 -0.847545 -2.81414 0
M  V30 8325 H 769.113 -0.563776 -1.523 0
M  V30 8326 H 771.11 1.34094 -3.94746 0
M  V30 8327 H 769.77 1.63156 -2.80732 0
M  V30 8328 H 770.781 -1.34409 -5.00154 0
M  V30 8329 H 767.458 1.05097 -4.04056 0
M  V30 8330 H 768.848 -2.28835 -6.31731 0
M  V30 8331 N 771.568 1.50203 -0.477153 0
M  V30 8332 C 772.816 2.01959 0.0755889 0
M  V30 8333 C 773.137 1.3608 1.39668 0
M  V30 8334 O 772.407 0.508136 1.89195 0
M  V30 8335 H 770.987 0.74636 0.0309248 0
M  V30 8336 H 773.649 1.84473 -0.628959 0
M  V30 8337 H 772.745 3.11305 0.222683 0
M  V30 8338 N 773.046 0.209999 1.56195 0
M  V30 8339 C 773.956 -0.716459 2.23392 0
M  V30 8340 C 774.972 -1.22291 1.23778 0
M  V30 8341 O 776.148 -1.26694 1.56558 0
M  V30 8342 C 773.213 -1.91261 2.89172 0
M  V30 8343 C 772.274 -1.44927 4.04097 0
M  V30 8344 C 771.507 -2.5884 4.66731 0
M  V30 8345 O 771.73 -3.76693 4.2832 0
M  V30 8346 O 770.664 -2.30701 5.55932 0
M  V30 8347 H 774.49 -0.174089 3.03201 0
M  V30 8348 H 772.075 -0.0199505 1.49387 0
M  V30 8349 H 773.957 -2.6114 3.30733 0
M  V30 8350 H 772.632 -2.4433 2.12331 0
M  V30 8351 H 771.539 -0.718839 3.67129 0
M  V30 8352 H 772.872 -0.965084 4.82646 0
M  V30 8353 N 774.524 -1.57472 -0.0634922 0
M  V30 8354 C 775.471 -2.04258 -1.07457 0
M  V30 8355 C 776.441 -0.924804 -1.37973 0
M  V30 8356 O 777.626 -1.19305 -1.48899 0
M  V30 8357 C 774.766 -2.49832 -2.38071 0
M  V30 8358 C 773.879 -3.75263 -2.14014 0
M  V30 8359 C 773.014 -4.09585 -3.38251 0
M  V30 8360 C 772.053 -5.28032 -3.09594 0
M  V30 8361 N 771.19 -5.57953 -4.26185 0
M  V30 8362 H 776.03 -2.90402 -0.668626 0
M  V30 8363 H 773.567 -1.43609 -0.318572 0
M  V30 8364 H 775.525 -2.7431 -3.14341 0
M  V30 8365 H 774.155 -1.66654 -2.76453 0
M  V30 8366 H 773.207 -3.58075 -1.28399 0
M  V30 8367 H 774.519 -4.61667 -1.88852 0
M  V30 8368 H 773.673 -4.35008 -4.2291 0
M  V30 8369 H 772.412 -3.21765 -3.66495 0
M  V30 8370 H 771.417 -5.02397 -2.23332 0
M  V30 8371 H 772.642 -6.17477 -2.82663 0
M  V30 8372 H 770.588 -4.73092 -4.54445 0
M  V30 8373 H 770.505 -6.38793 -4.04326 0
M  V30 8374 H 771.773 -5.87931 -5.11817 0
M  V30 8375 N 776.003 0.335068 -1.53997 0
M  V30 8376 C 777.251 1.07223 -1.71312 0
M  V30 8377 C 777.572 1.88911 -0.483486 0
M  V30 8378 O 776.842 1.89344 0.50257 0
M  V30 8379 H 775.422 0.398846 -0.63161 0
M  V30 8380 H 778.084 0.374288 -1.91272 0
M  V30 8381 H 777.18 1.7448 -2.58772 0
M  V30 8382 N 777.481 1.45874 0.596531 0
M  V30 8383 C 778.727 1.5069 1.35722 0
M  V30 8384 C 779.06 0.152506 1.936 0
M  V30 8385 O 778.335 -0.834411 1.75692 0
M  V30 8386 C 778.618 2.59474 2.4969 0
M  V30 8387 C 778.471 4.04396 1.96937 0
M  V30 8388 C 779.79 2.64451 3.51787 0
M  V30 8389 H 776.909 0.548611 0.492133 0
M  V30 8390 H 779.551 1.77741 0.671428 0
M  V30 8391 H 777.701 2.36539 3.08191 0
M  V30 8392 H 779.373 4.38576 1.43 0
M  V30 8393 H 777.616 4.14529 1.27859 0
M  V30 8394 H 778.287 4.76218 2.79143 0
M  V30 8395 H 780.763 2.85031 3.03145 0
M  V30 8396 H 779.639 3.42411 4.29006 0
M  V30 8397 H 779.9 1.69965 4.08123 0
M  V30 8398 N 778.959 -0.83999 1.33349 0
M  V30 8399 C 779.891 -1.95678 1.19344 0
M  V30 8400 C 780.904 -1.62322 0.124692 0
M  V30 8401 O 782.093 -1.74516 0.375012 0
M  V30 8402 C 779.193 -3.29133 0.807771 0
M  V30 8403 C 778.366 -3.9063 1.96792 0
M  V30 8404 C 777.425 -5.02438 1.56341 0
M  V30 8405 O 776.451 -5.21646 2.27759 0
M  V30 8406 N 777.653 -5.78612 0.467767 0
M  V30 8407 H 780.418 -2.08229 2.15548 0
M  V30 8408 H 777.979 -1.01566 1.26079 0
M  V30 8409 H 779.971 -4.01355 0.519282 0
M  V30 8410 H 778.541 -3.12535 -0.063555 0
M  V30 8411 H 777.761 -3.11011 2.4221 0
M  V30 8412 H 779.049 -4.2845 2.74422 0
M  V30 8413 H 778.447 -5.65559 -0.126324 0
M  V30 8414 H 777.004 -6.51362 0.238945 0
M  V30 8415 N 780.437 -1.16799 -1.0581 0
M  V30 8416 C 781.347 -0.893492 -2.16919 0
M  V30 8417 C 782.363 0.136061 -1.73467 0
M  V30 8418 O 783.539 -0.0417348 -2.01357 0
M  V30 8419 C 780.604 -0.403763 -3.44341 0
M  V30 8420 C 779.665 -1.49914 -4.02274 0
M  V30 8421 C 778.898 -1.03269 -5.23614 0
M  V30 8422 O 779.121 0.115647 -5.70283 0
M  V30 8423 O 778.055 -1.8231 -5.73626 0
M  V30 8424 H 781.881 -1.82274 -2.42919 0
M  V30 8425 H 779.466 -0.948361 -1.1544 0
M  V30 8426 H 781.348 -0.137874 -4.21174 0
M  V30 8427 H 780.023 0.497413 -3.19855 0
M  V30 8428 H 778.93 -1.81883 -3.26909 0
M  V30 8429 H 780.263 -2.3758 -4.31064 0
M  V30 8430 N 781.915 1.24427 -0.967243 0
M  V30 8431 C 782.878 2.23637 -0.501927 0
M  V30 8432 C 783.878 1.55712 0.401283 0
M  V30 8433 O 785.068 1.73085 0.196808 0
M  V30 8434 C 782.2 3.39804 0.273176 0
M  V30 8435 H 783.393 2.66317 -1.37897 0
M  V30 8436 H 780.946 1.37033 -0.751783 0
M  V30 8437 H 781.681 3.02562 1.16733 0
M  V30 8438 H 781.466 3.90303 -0.37498 0
M  V30 8439 H 782.956 4.13443 0.587776 0
M  V30 8440 N 783.393 0.737304 1.3929 0
M  V30 8441 C 784.641 0.285691 2.00071 0
M  V30 8442 C 784.962 -1.13169 1.58801 0
M  V30 8443 O 784.232 -1.77104 0.837308 0
M  V30 8444 H 782.812 0.102638 0.739915 0
M  V30 8445 H 785.474 0.947775 1.70303 0
M  V30 8446 H 784.57 0.335906 3.10287 0
M  V30 8447 N 784.871 -1.49948 0.485112 0
M  V30 8448 C 786.117 -2.0332 -0.0571625 0
M  V30 8449 C 786.472 -1.35951 -1.36144 0
M  V30 8450 O 785.765 -0.480871 -1.85467 0
M  V30 8451 C 785.959 -3.56282 -0.282434 0
M  V30 8452 C 785.788 -4.38476 0.998455 0
M  V30 8453 C 784.558 -4.81076 1.54576 0
M  V30 8454 C 786.756 -4.78013 1.89758 0
M  V30 8455 N 784.738 -5.47641 2.77421 0
M  V30 8456 C 786.109 -5.44133 2.97186 0
M  V30 8457 C 788.164 -4.59963 1.90627 0
M  V30 8458 C 786.867 -5.94113 4.0549 0
M  V30 8459 C 788.893 -5.10893 2.97897 0
M  V30 8460 C 788.255 -5.77 4.04043 0
M  V30 8461 H 784.354 -0.781758 0.0194642 0
M  V30 8462 H 786.938 -1.833 0.65644 0
M  V30 8463 H 785.109 -3.76219 -0.965083 0
M  V30 8464 H 786.841 -3.96299 -0.820298 0
M  V30 8465 H 783.596 -4.60814 1.09304 0
M  V30 8466 H 784.02 -5.85521 3.39844 0
M  V30 8467 H 788.662 -4.08274 1.09875 0
M  V30 8468 H 786.38 -6.44832 4.8705 0
M  V30 8469 H 789.966 -4.98748 2.9957 0
M  V30 8470 H 788.846 -6.15698 4.85681 0
M  V30 8471 N 786.349 -0.21828 -1.56081 0
M  V30 8472 C 787.626 0.463143 -1.90038 0
M  V30 8473 C 788.006 1.77982 -1.13515 0
M  V30 8474 O 787.354 2.27199 -0.24345 0
M  V30 8475 C 787.564 0.659292 -3.42716 0
M  V30 8476 C 788.912 0.968203 -4.13414 0
M  V30 8477 O 789.936 0.746195 -3.48296 0
M  V30 8478 O 788.795 1.38936 -5.28544 0
M  V30 8479 H 785.889 0.244435 -0.790051 0
M  V30 8480 H 788.435 -0.260221 -1.67693 0
M  V30 8481 H 787.207 -0.269584 -3.9037 0
M  V30 8482 H 786.83 1.43426 -3.7083 0
M  V30 8483 N 787.827 1.57504 0.0551401 0
M  V30 8484 C 788.757 2.07864 1.06372 0
M  V30 8485 C 789.738 0.975565 1.39344 0
M  V30 8486 O 790.923 1.24929 1.48682 0
M  V30 8487 C 788.053 2.53643 2.3724 0
M  V30 8488 C 787.007 3.67978 2.18578 0
M  V30 8489 C 786.333 3.9987 3.54976 0
M  V30 8490 C 787.633 4.97405 1.59329 0
M  V30 8491 H 789.327 2.92379 0.644595 0
M  V30 8492 H 786.873 1.40654 0.308619 0
M  V30 8493 H 788.826 2.8749 3.08103 0
M  V30 8494 H 787.55 1.66177 2.81163 0
M  V30 8495 H 786.209 3.3444 1.50152 0
M  V30 8496 H 785.857 3.0951 3.965 0
M  V30 8497 H 785.557 4.76867 3.43324 0
M  V30 8498 H 787.081 4.36228 4.27244 0
M  V30 8499 H 788.495 5.29375 2.20078 0
M  V30 8500 H 786.892 5.78837 1.58327 0
M  V30 8501 H 787.962 4.81697 0.55638 0
M  V30 8502 N 789.305 -0.326896 1.54172 0
M  V30 8503 C 790.582 -1.08326 1.62864 0
M  V30 8504 C 790.962 -2.06018 0.46039 0
M  V30 8505 O 790.31 -2.21889 -0.545685 0
M  V30 8506 C 790.52 -1.78816 2.9971 0
M  V30 8507 C 791.868 -2.31958 3.55641 0
M  V30 8508 O 792.892 -1.88888 3.01993 0
M  V30 8509 O 791.751 -3.10801 4.49517 0
M  V30 8510 H 788.845 -0.499131 0.659392 0
M  V30 8511 H 791.391 -0.327054 1.66519 0
M  V30 8512 H 790.163 -1.07739 3.76176 0
M  V30 8513 H 789.786 -2.61255 2.99719 0
M  V30 8514 N 790.784 -1.46188 -0.588786 0
M  V30 8515 C 792.061 -1.41659 -1.34878 0
M  V30 8516 C 792.441 -0.0968913 -2.10878 0
M  V30 8517 O 791.789 0.921468 -2.09096 0
M  V30 8518 C 791.999 -2.6424 -2.27988 0
M  V30 8519 C 793.347 -3.1013 -2.90008 0
M  V30 8520 O 794.371 -2.64745 -2.38303 0
M  V30 8521 O 793.23 -3.88944 -3.83908 0
M  V30 8522 H 790.324 -0.563058 -0.605718 0
M  V30 8523 H 792.87 -1.58346 -0.610309 0
M  V30 8524 H 791.642 -3.51853 -1.71217 0
M  V30 8525 H 791.265 -2.49982 -3.09184 0
M  V30 8526 N 792.262 0.832906 -1.33792 0
M  V30 8527 C 793.21 1.96455 -1.24532 0
M  V30 8528 C 794.204 1.68774 -0.145455 0
M  V30 8529 O 795.41 1.77314 -0.309797 0
M  V30 8530 H 791.785 0.645008 -0.386611 0
M  V30 8531 H 793.756 2.01389 -2.20193 0
M  V30 8532 C 792.505 3.32784 -1.00748 0
M  V30 8533 H 791.828 3.54626 -1.84609 0
M  V30 8534 H 793.268 4.12447 -0.98301 0
M  V30 8535 C 791.727 3.35654 0.289475 0
M  V30 8536 O 792.257 3.80281 1.29419 0
M  V30 8537 N 790.463 2.88843 0.3191 0
M  V30 8538 H 790.01 2.52719 -0.499069 0
M  V30 8539 H 789.968 2.91145 1.18667 0
M  V30 8540 N 793.74 1.17359 1.05189 0
M  V30 8541 C 794.688 0.886527 2.15043 0
M  V30 8542 C 795.682 -0.148834 1.68745 0
M  V30 8543 O 796.888 -0.00175123 1.8 0
M  V30 8544 H 793.263 0.269147 0.702185 0
M  V30 8545 H 795.234 1.82016 2.36459 0
M  V30 8546 C 793.983 0.416333 3.45198 0
M  V30 8547 H 793.306 1.20449 3.81225 0
M  V30 8548 H 794.746 0.254362 4.23236 0
M  V30 8549 C 793.205 -0.866016 3.25579 0
M  V30 8550 O 793.735 -1.9328 3.52144 0
M  V30 8551 N 791.941 -0.814179 2.78961 0
M  V30 8552 H 791.488 0.0541618 2.57543 0
M  V30 8553 H 791.446 -1.67264 2.66214 0
M  V30 8554 N 795.218 -1.23913 0.973828 0
M  V30 8555 C 796.495 -1.87539 0.555729 0
M  V30 8556 C 796.875 -1.87641 -0.967162 0
M  V30 8557 O 796.223 -1.35335 -1.84111 0
M  V30 8558 C 796.433 -3.29359 1.15427 0
M  V30 8559 C 797.781 -4.06 1.24294 0
M  V30 8560 O 798.805 -3.38554 1.10723 0
M  V30 8561 O 797.664 -5.26689 1.45813 0
M  V30 8562 H 794.758 -0.805769 0.186188 0
M  V30 8563 H 797.304 -1.31838 1.06849 0
M  V30 8564 H 796.076 -3.23817 2.19678 0
M  V30 8565 H 795.699 -3.92642 0.625925 0
M  V30 8566 N 796.696 -0.74468 -1.38897 0
M  V30 8567 C 797.643 -0.111064 -2.30533 0
M  V30 8568 C 798.613 0.719276 -1.49719 0
M  V30 8569 O 799.798 0.677244 -1.78376 0
M  V30 8570 C 796.938 0.78292 -3.36102 0
M  V30 8571 C 796.051 -0.0610817 -4.31957 0
M  V30 8572 C 795.186 0.835075 -5.24595 0
M  V30 8573 C 794.225 -0.0130974 -6.12099 0
M  V30 8574 N 793.362 0.839525 -6.97063 0
M  V30 8575 H 798.202 -0.898113 -2.84144 0
M  V30 8576 H 795.739 -0.454537 -1.39901 0
M  V30 8577 H 797.697 1.31578 -3.95908 0
M  V30 8578 H 796.327 1.53585 -2.83922 0
M  V30 8579 H 795.379 -0.711469 -3.73687 0
M  V30 8580 H 796.691 -0.716482 -4.93627 0
M  V30 8581 H 795.845 1.43542 -5.89475 0
M  V30 8582 H 794.584 1.52423 -4.63269 0
M  V30 8583 H 793.589 -0.626179 -5.46223 0
M  V30 8584 H 794.814 -0.699181 -6.75491 0
M  V30 8585 H 792.76 1.5138 -6.38295 0
M  V30 8586 H 792.677 0.240823 -7.55616 0
M  V30 8587 H 793.945 1.42513 -7.66362 0
M  V30 8588 N 798.174 1.49689 -0.493057 0
M  V30 8589 C 799.399 2.07331 0.0535114 0
M  V30 8590 C 799.824 1.35196 1.30781 0
M  V30 8591 O 799.182 0.406246 1.7669 0
M  V30 8592 C 799.23 3.59364 0.29825 0
M  V30 8593 O 798.334 3.88819 1.37454 0
M  V30 8594 H 797.675 0.663612 -0.0227018 0
M  V30 8595 H 800.205 1.926 -0.690402 0
M  V30 8596 H 800.215 4.04515 0.532159 0
M  V30 8597 H 798.89 4.1128 -0.618207 0
M  V30 8598 H 797.467 3.55487 1.12621 0
M  V30 8599 N 799.652 0.226554 1.55963 0
M  V30 8600 C 800.929 -0.453058 1.90281 0
M  V30 8601 C 801.309 -1.77377 1.14458 0
M  V30 8602 O 800.657 -2.27067 0.255496 0
M  V30 8603 C 800.867 -0.641108 3.43061 0
M  V30 8604 C 802.215 -0.946265 4.13921 0
M  V30 8605 O 803.239 -0.727713 3.48687 0
M  V30 8606 O 802.098 -1.36131 5.29274 0
M  V30 8607 H 799.192 -0.240242 0.791336 0
M  V30 8608 H 801.738 0.26911 1.67553 0
M  V30 8609 H 800.51 0.290283 3.90222 0
M  V30 8610 H 800.133 -1.41458 3.71585 0
M  V30 8611 N 801.13 -1.57531 -0.0467866 0
M  V30 8612 C 802.37 -1.90294 -0.746171 0
M  V30 8613 C 802.734 -0.823194 -1.73458 0
M  V30 8614 O 803.935 -1.03463 -2.48091 0
M  V30 8615 C 802.206 -3.28249 -1.41378 0
M  V30 8616 S 803.765 -3.82812 -2.14477 0
M  V30 8617 H 800.583 -0.666496 -0.247598 0
M  V30 8618 H 803.185 -1.955 -0.00135143 0
M  V30 8619 H 801.889 -4.04712 -0.680937 0
M  V30 8620 H 801.42 -3.26302 -2.19751 0
M  V30 8621 H 803.435 -3.60111 -3.41372 0
M  V30 8622 N 802.608 0.318715 -1.54344 0
M  V30 8623 C 803.538 1.39751 -1.87061 0
M  V30 8624 C 804.519 1.53741 -0.727848 0
M  V30 8625 O 805.704 1.67541 -0.982016 0
M  V30 8626 C 802.834 2.76446 -2.10226 0
M  V30 8627 C 801.788 2.77239 -3.26071 0
M  V30 8628 C 801.114 4.17056 -3.34617 0
M  V30 8629 C 802.414 2.40555 -4.63606 0
M  V30 8630 H 804.108 1.12619 -2.77412 0
M  V30 8631 H 801.654 0.540318 -1.33479 0
M  V30 8632 H 803.607 3.51985 -2.31699 0
M  V30 8633 H 802.331 3.05066 -1.16629 0
M  V30 8634 H 800.99 2.04155 -3.04493 0
M  V30 8635 H 800.638 4.42824 -2.3857 0
M  V30 8636 H 800.338 4.18492 -4.12478 0
M  V30 8637 H 801.862 4.94401 -3.5833 0
M  V30 8638 H 803.276 3.05808 -4.84927 0
M  V30 8639 H 801.673 2.53234 -5.44052 0
M  V30 8640 H 802.743 1.35698 -4.65526 0
M  V30 8641 N 804.086 1.46499 0.581025 0
M  V30 8642 C 805.049 1.5677 1.672 0
M  V30 8643 C 806.049 0.444716 1.54528 0
M  V30 8644 O 807.239 0.709074 1.59116 0
M  V30 8645 C 804.371 1.4896 3.06633 0
M  V30 8646 H 805.564 2.54 1.5945 0
M  V30 8647 H 803.117 1.34334 0.799003 0
M  V30 8648 H 803.852 0.530168 3.19937 0
M  V30 8649 H 803.637 2.30439 3.17239 0
M  V30 8650 H 805.127 1.59237 3.86048 0
M  V30 8651 N 805.565 -0.825799 1.34232 0
M  V30 8652 C 806.814 -1.57686 1.2577 0
M  V30 8653 C 807.127 -1.94848 -0.171372 0
M  V30 8654 O 808.333 -2.68854 -0.378123 0
M  V30 8655 C 806.789 -2.84478 2.20454 0
M  V30 8656 C 806.397 -2.54629 3.68603 0
M  V30 8657 C 808.141 -3.625 2.20893 0
M  V30 8658 C 806.048 -3.77597 4.55164 0
M  V30 8659 H 804.978 -0.591809 0.467203 0
M  V30 8660 H 807.629 -0.909421 1.59379 0
M  V30 8661 H 806.011 -3.52832 1.79793 0
M  V30 8662 H 807.185 -1.94404 4.17784 0
M  V30 8663 H 805.5 -1.89888 3.70582 0
M  V30 8664 H 808.097 -4.538 2.82789 0
M  V30 8665 H 808.44 -3.98404 1.20746 0
M  V30 8666 H 808.973 -3.01086 2.59985 0
M  V30 8667 H 805.712 -3.46815 5.56237 0
M  V30 8668 H 805.232 -4.37116 4.10719 0
M  V30 8669 H 806.911 -4.45039 4.69627 0
M  V30 8670 N 807.043 -1.17915 -1.04565 0
M  V30 8671 C 807.99 -0.901605 -2.12461 0
M  V30 8672 C 808.96 0.157011 -1.65356 0
M  V30 8673 O 810.145 0.0184494 -1.90791 0
M  V30 8674 C 807.285 -0.42796 -3.42436 0
M  V30 8675 C 806.398 -1.55142 -4.03181 0
M  V30 8676 C 805.533 -1.03101 -5.21098 0
M  V30 8677 C 804.572 -2.1295 -5.73863 0
M  V30 8678 N 803.709 -1.62339 -6.83074 0
M  V30 8679 H 808.549 -1.82551 -2.3554 0
M  V30 8680 H 806.086 -0.910389 -1.15544 0
M  V30 8681 H 808.044 -0.134859 -4.16982 0
M  V30 8682 H 806.674 0.458977 -3.1952 0
M  V30 8683 H 805.726 -1.96011 -3.26012 0
M  V30 8684 H 807.038 -2.37968 -4.38375 0
M  V30 8685 H 806.192 -0.692132 -6.02739 0
M  V30 8686 H 804.931 -0.17227 -4.87396 0
M  V30 8687 H 803.936 -2.47687 -4.90847 0
M  V30 8688 H 805.161 -2.9925 -6.09611 0
M  V30 8689 H 803.107 -0.787464 -6.51256 0
M  V30 8690 H 803.024 -2.38767 -7.17305 0
M  V30 8691 H 804.292 -1.31363 -7.68351 0
M  V30 8692 N 808.521 1.23394 -0.980386 0
M  V30 8693 C 809.431 2.28561 -0.528864 0
M  V30 8694 C 810.447 1.68946 0.416329 0
M  V30 8695 O 811.623 1.99355 0.286251 0
M  V30 8696 C 808.688 3.46323 0.16155 0
M  V30 8697 C 807.749 4.21297 -0.825044 0
M  V30 8698 C 806.982 5.33437 -0.167483 0
M  V30 8699 O 807.205 5.60812 1.04146 0
M  V30 8700 O 806.139 5.95637 -0.866047 0
M  V30 8701 H 809.965 2.69326 -1.40346 0
M  V30 8702 H 807.55 1.29325 -0.748019 0
M  V30 8703 H 809.432 4.17811 0.548841 0
M  V30 8704 H 808.107 3.0751 1.01092 0
M  V30 8705 H 807.014 3.52134 -1.26303 0
M  V30 8706 H 808.347 4.6396 -1.64322 0
M  V30 8707 N 809.999 0.752036 1.385 0
M  V30 8708 C 810.931 0.0835089 2.29048 0
M  V30 8709 C 811.944 -0.685402 1.47669 0
M  V30 8710 O 813.133 -0.526748 1.70551 0
M  V30 8711 C 810.233 -0.905772 3.26572 0
M  V30 8712 C 809.406 -0.194828 4.36966 0
M  V30 8713 C 808.465 -1.09464 5.14688 0
M  V30 8714 O 807.491 -0.565743 5.66381 0
M  V30 8715 N 808.693 -2.42287 5.2752 0
M  V30 8716 H 811.458 0.861142 2.87062 0
M  V30 8717 H 809.019 0.602689 1.50264 0
M  V30 8718 H 811.011 -1.51072 3.75446 0
M  V30 8719 H 809.581 -1.58449 2.69467 0
M  V30 8720 H 808.801 0.590812 3.89747 0
M  V30 8721 H 810.089 0.297189 5.07931 0
M  V30 8722 H 809.487 -2.87715 4.8707 0
M  V30 8723 H 808.044 -2.97836 5.79773 0
M  V30 8724 N 811.477 -1.49425 0.500989 0
M  V30 8725 C 812.724 -2.02453 -0.0435355 0
M  V30 8726 C 813.052 -1.38067 -1.36995 0
M  V30 8727 O 812.307 -0.505557 -1.89057 0
M  V30 8728 C 812.606 -3.56562 -0.24463 0
M  V30 8729 C 812.272 -4.39585 1.00379 0
M  V30 8730 C 810.934 -4.61992 1.346 0
M  V30 8731 C 813.286 -4.87881 1.83361 0
M  V30 8732 C 810.614 -5.2994 2.51755 0
M  V30 8733 C 812.966 -5.57119 2.99669 0
M  V30 8734 C 811.63 -5.77771 3.3427 0
M  V30 8735 H 810.9 -0.740829 -0.0159308 0
M  V30 8736 H 813.547 -1.79725 0.661143 0
M  V30 8737 H 811.852 -3.77969 -1.03183 0
M  V30 8738 H 813.549 -3.95185 -0.6804 0
M  V30 8739 H 810.139 -4.22385 0.727225 0
M  V30 8740 H 814.323 -4.70398 1.58237 0
M  V30 8741 H 809.579 -5.44133 2.788 0
M  V30 8742 H 813.753 -5.93516 3.64296 0
M  V30 8743 H 811.38 -6.30197 4.25154 0
M  V30 8744 N 812.955 -0.234822 -1.55841 0
M  V30 8745 C 813.902 0.6698 -2.20867 0
M  V30 8746 C 814.872 1.18042 -1.16856 0
M  V30 8747 O 816.057 1.23709 -1.45261 0
M  V30 8748 C 813.197 1.86646 -2.90271 0
M  V30 8749 C 812.31 1.39351 -4.08908 0
M  V30 8750 C 811.445 2.54878 -4.66059 0
M  V30 8751 C 810.484 2.04384 -5.76969 0
M  V30 8752 N 809.621 3.13233 -6.28355 0
M  V30 8753 H 814.461 0.10858 -2.97802 0
M  V30 8754 H 811.998 0.041836 -1.4704 0
M  V30 8755 H 813.956 2.56926 -3.28702 0
M  V30 8756 H 812.586 2.40035 -2.15831 0
M  V30 8757 H 811.638 0.585173 -3.75872 0
M  V30 8758 H 812.95 0.983356 -4.89011 0
M  V30 8759 H 812.104 3.33219 -5.07001 0
M  V30 8760 H 810.843 2.99188 -3.85146 0
M  V30 8761 H 809.848 1.24509 -5.35516 0
M  V30 8762 H 811.073 1.61057 -6.59725 0
M  V30 8763 H 809.019 3.57 -5.50352 0
M  V30 8764 H 808.936 2.76511 -7.03618 0
M  V30 8765 H 810.204 3.91669 -6.73955 0
M  V30 8766 N 814.433 1.57553 0.0384317 0
M  V30 8767 C 815.673 1.90687 0.736069 0
M  V30 8768 C 816.037 0.832381 1.73019 0
M  V30 8769 O 817.238 1.04777 2.47538 0
M  V30 8770 C 815.509 3.28994 1.39635 0
M  V30 8771 S 817.068 3.83944 2.12444 0
M  V30 8772 H 813.886 0.667799 0.244059 0
M  V30 8773 H 816.488 1.95498 -0.00901643 0
M  V30 8774 H 815.192 4.05067 0.659465 0
M  V30 8775 H 814.723 3.27463 2.18018 0
M  V30 8776 H 816.738 3.61916 3.39457 0
M  V30 8777 N 815.911 -0.310526 1.54511 0
M  V30 8778 C 817.188 -1.06593 1.64004 0
M  V30 8779 C 817.568 -2.05519 0.482216 0
M  V30 8780 O 816.916 -2.22455 -0.52212 0
M  V30 8781 C 817.126 -1.75627 3.01589 0
M  V30 8782 C 818.474 -2.28173 3.58081 0
M  V30 8783 O 819.498 -1.85674 3.03979 0
M  V30 8784 O 818.357 -3.06015 4.52788 0
M  V30 8785 H 815.451 -0.492109 0.664649 0
M  V30 8786 H 817.997 -0.309374 1.66856 0
M  V30 8787 H 816.769 -1.03743 3.77297 0
M  V30 8788 H 816.392 -2.58061 3.02473 0
M  V30 8789 N 817.389 -1.46805 -0.573248 0
M  V30 8790 C 818.617 -1.56191 -1.3569 0
M  V30 8791 C 819.032 -0.206362 -1.87669 0
M  V30 8792 O 818.389 0.797883 -1.64134 0
M  V30 8793 C 818.44 -2.57433 -2.53792 0
M  V30 8794 O 818.161 -3.87724 -2.03965 0
M  V30 8795 C 819.662 -2.76851 -3.4622 0
M  V30 8796 H 816.882 -0.527907 -0.414192 0
M  V30 8797 H 819.426 -1.92292 -0.695989 0
M  V30 8798 H 817.581 -2.24311 -3.15854 0
M  V30 8799 H 817.995 -4.42909 -2.80948 0
M  V30 8800 H 819.469 -3.5159 -4.25545 0
M  V30 8801 H 819.946 -1.84095 -3.98755 0
M  V30 8802 H 820.552 -3.11107 -2.89987 0
M  V30 8803 N 818.867 0.818669 -1.34668 0
M  V30 8804 C 819.815 1.95123 -1.26609 0
M  V30 8805 C 820.809 1.68611 -0.163348 0
M  V30 8806 O 822.015 1.76975 -0.328586 0
M  V30 8807 H 818.39 0.640871 -0.393431 0
M  V30 8808 H 820.361 1.99043 -2.22316 0
M  V30 8809 C 819.11 3.31697 -1.04272 0
M  V30 8810 H 818.433 3.52648 -1.8836 0
M  V30 8811 H 819.873 4.11382 -1.0267 0
M  V30 8812 C 818.332 3.35942 0.253858 0
M  V30 8813 O 818.862 3.81632 1.25378 0
M  V30 8814 N 817.068 2.89165 0.288447 0
M  V30 8815 H 816.615 2.52176 -0.525845 0
M  V30 8816 H 816.573 2.92387 1.15572 0
M  V30 8817 N 820.346 1.18468 1.03938 0
M  V30 8818 C 821.571 1.00638 1.81347 0
M  V30 8819 C 821.996 -0.440477 1.8287 0
M  V30 8820 O 821.354 -1.31609 1.24695 0
M  V30 8821 C 821.402 1.5673 3.24759 0
M  V30 8822 O 820.506 0.789517 4.04772 0
M  V30 8823 H 819.847 0.356432 0.560225 0
M  V30 8824 H 822.377 1.57253 1.30891 0
M  V30 8825 H 822.387 1.59496 3.75533 0
M  V30 8826 H 821.062 2.62043 3.22965 0
M  V30 8827 H 819.639 0.834267 3.63448 0
M  V30 8828 N 821.824 -1.22873 0.986916 0
M  V30 8829 C 823.052 -1.95487 0.677663 0
M  V30 8830 C 823.467 -1.72978 -0.756572 0
M  V30 8831 O 822.824 -1.02517 -1.50985 0
M  V30 8832 C 822.875 -3.48337 0.966638 0
M  V30 8833 O 822.596 -3.70087 2.34451 0
M  V30 8834 C 824.097 -4.38142 0.674248 0
M  V30 8835 H 821.317 -0.622211 0.251185 0
M  V30 8836 H 823.861 -1.56187 1.32007 0
M  V30 8837 H 822.016 -3.85628 0.370137 0
M  V30 8838 H 822.43 -4.64332 2.43918 0
M  V30 8839 H 823.904 -5.44165 0.926759 0
M  V30 8840 H 824.381 -4.3745 -0.391728 0
M  V30 8841 H 824.987 -4.06469 1.25152 0
M  V30 8842 N 823.302 -0.75937 -1.38099 0
M  V30 8843 C 824.548 -0.327559 -2.00745 0
M  V30 8844 C 824.903 1.08042 -1.592 0
M  V30 8845 O 824.196 1.7306 -0.822236 0
M  V30 8846 C 824.39 -0.394999 -3.55211 0
M  V30 8847 C 824.219 -1.80798 -4.11755 0
M  V30 8848 C 822.989 -2.42585 -4.43262 0
M  V30 8849 C 825.187 -2.76556 -4.33614 0
M  V30 8850 N 823.169 -3.75784 -4.85448 0
M  V30 8851 C 824.54 -3.94532 -4.78273 0
M  V30 8852 C 826.595 -2.74004 -4.15724 0
M  V30 8853 C 825.298 -5.10322 -5.06916 0
M  V30 8854 C 827.324 -3.88957 -4.45496 0
M  V30 8855 C 826.686 -5.05672 -4.90383 0
M  V30 8856 H 822.785 -0.166644 -0.764038 0
M  V30 8857 H 825.369 -0.99056 -1.67619 0
M  V30 8858 H 823.54 0.237761 -3.87672 0
M  V30 8859 H 825.272 0.0576828 -4.04659 0
M  V30 8860 H 822.027 -1.94302 -4.31907 0
M  V30 8861 H 822.451 -4.44234 -5.10867 0
M  V30 8862 H 827.093 -1.84948 -3.80203 0
M  V30 8863 H 824.811 -5.99988 -5.41332 0
M  V30 8864 H 828.397 -3.88308 -4.33253 0
M  V30 8865 H 827.277 -5.93146 -5.1298 0
M  V30 8866 N 824.78 1.49157 -0.508906 0
M  V30 8867 C 826.028 2.02073 0.0327335 0
M  V30 8868 C 826.349 1.39012 1.3675 0
M  V30 8869 O 825.619 0.548153 1.88075 0
M  V30 8870 H 824.199 0.746848 0.0150864 0
M  V30 8871 H 826.861 1.83097 -0.667946 0
M  V30 8872 H 825.957 3.11707 0.1566 0
M  V30 8873 N 826.258 0.243083 1.55714 0
M  V30 8874 C 827.188 -0.652336 2.24203 0
M  V30 8875 C 828.169 -1.1843 1.221 0
M  V30 8876 O 829.354 -1.22435 1.50743 0
M  V30 8877 C 826.484 -1.85111 2.93856 0
M  V30 8878 C 825.438 -1.45208 4.02615 0
M  V30 8879 C 824.764 -2.73137 4.59674 0
M  V30 8880 C 826.064 -0.625988 5.18535 0
M  V30 8881 H 827.758 -0.0812504 2.9929 0
M  V30 8882 H 825.304 -0.0376388 1.43951 0
M  V30 8883 H 827.257 -2.48314 3.40468 0
M  V30 8884 H 825.981 -2.44751 2.16251 0
M  V30 8885 H 824.64 -0.843406 3.56766 0
M  V30 8886 H 824.288 -3.30967 3.78774 0
M  V30 8887 H 823.988 -2.47163 5.33089 0
M  V30 8888 H 825.512 -3.37245 5.09017 0
M  V30 8889 H 826.926 -1.16223 5.61396 0
M  V30 8890 H 825.323 -0.462465 5.98315 0
M  V30 8891 H 826.393 0.362652 4.83542 0
M  V30 8892 N 827.736 -1.57571 -0.0300757 0
M  V30 8893 C 828.684 -2.0758 -1.04944 0
M  V30 8894 C 829.678 -0.989384 -1.37505 0
M  V30 8895 O 830.884 -1.17427 -1.36422 0
M  V30 8896 H 827.259 -0.662419 -0.355956 0
M  V30 8897 H 829.23 -2.92268 -0.601848 0
M  V30 8898 C 827.979 -2.5698 -2.34215 0
M  V30 8899 H 827.302 -3.40193 -2.10021 0
M  V30 8900 H 828.742 -2.95682 -3.03888 0
M  V30 8901 C 827.201 -1.47059 -3.03109 0
M  V30 8902 O 827.731 -0.83625 -3.92899 0
M  V30 8903 N 825.937 -1.20538 -2.64422 0
M  V30 8904 H 825.484 -1.72305 -1.9149 0
M  V30 8905 H 825.442 -0.472045 -3.10836 0
M  V30 8906 N 829.214 0.302327 -1.54673 0
M  V30 8907 C 830.491 1.05721 -1.64567 0
M  V30 8908 C 830.871 2.0526 -0.493108 0
M  V30 8909 O 830.219 2.22729 0.510315 0
M  V30 8910 C 830.429 1.74025 -3.02517 0
M  V30 8911 C 831.777 2.26271 -3.59286 0
M  V30 8912 O 832.801 1.8406 -3.0496 0
M  V30 8913 O 831.66 3.0361 -4.54404 0
M  V30 8914 H 828.754 0.488577 -0.667249 0
M  V30 8915 H 831.3 0.300521 -1.67018 0
M  V30 8916 H 830.072 1.0174 -3.77842 0
M  V30 8917 H 829.695 2.56454 -3.03838 0
M  V30 8918 N 830.692 1.47107 0.565454 0
M  V30 8919 C 831.969 1.43787 1.32607 0
M  V30 8920 C 832.349 0.130428 2.10697 0
M  V30 8921 O 831.697 -0.888086 2.10536 0
M  V30 8922 C 831.907 2.67833 2.23755 0
M  V30 8923 C 833.255 3.14704 2.85037 0
M  V30 8924 O 834.279 2.68503 2.34061 0
M  V30 8925 O 833.138 3.95002 3.77671 0
M  V30 8926 H 830.232 0.572623 0.596684 0
M  V30 8927 H 832.778 1.59296 0.58504 0
M  V30 8928 H 831.55 3.54532 1.65597 0
M  V30 8929 H 831.173 2.54869 3.05168 0
M  V30 8930 N 832.17 -0.811516 1.35101 0
M  V30 8931 C 833.08 -1.95475 1.29718 0
M  V30 8932 C 834.096 -1.72813 0.202909 0
M  V30 8933 O 835.272 -1.96725 0.431414 0
M  V30 8934 C 832.337 -3.29975 1.06385 0
M  V30 8935 C 831.398 -3.65566 2.25077 0
M  V30 8936 C 830.631 -4.93648 2.02848 0
M  V30 8937 O 830.854 -5.617 0.992442 0
M  V30 8938 O 829.788 -5.27384 2.90087 0
M  V30 8939 H 833.614 -2.02961 2.25921 0
M  V30 8940 H 831.199 -0.948583 1.15422 0
M  V30 8941 H 833.081 -4.10506 0.951999 0
M  V30 8942 H 831.756 -3.2343 0.132294 0
M  V30 8943 H 830.663 -2.85432 2.41825 0
M  V30 8944 H 831.996 -3.7681 3.16662 0
M  V30 8945 N 833.648 -1.19017 -1.03309 0
M  V30 8946 C 834.578 -0.94772 -2.13402 0
M  V30 8947 C 835.559 0.117383 -1.69694 0
M  V30 8948 O 836.744 -0.0367733 -1.94165 0
M  V30 8949 C 833.874 -0.480977 -3.43953 0
M  V30 8950 C 832.828 -1.48743 -4.01322 0
M  V30 8951 C 832.154 -0.877924 -5.27443 0
M  V30 8952 C 833.454 -2.86642 -4.36616 0
M  V30 8953 H 835.148 -1.86846 -2.33942 0
M  V30 8954 H 832.694 -0.899781 -1.12427 0
M  V30 8955 H 834.647 -0.298677 -4.2034 0
M  V30 8956 H 833.371 0.475348 -3.23122 0
M  V30 8957 H 832.03 -1.65681 -3.27025 0
M  V30 8958 H 831.678 0.0858232 -5.02927 0
M  V30 8959 H 831.378 -1.54996 -5.66789 0
M  V30 8960 H 832.902 -0.706326 -6.06501 0
M  V30 8961 H 834.316 -2.73312 -5.03958 0
M  V30 8962 H 832.713 -3.50599 -4.87032 0
M  V30 8963 H 833.783 -3.39617 -3.46105 0
M  V30 8964 N 835.127 1.22348 -0.993418 0
M  V30 8965 C 836.06 2.22898 -0.489073 0
M  V30 8966 C 837.038 1.56222 0.450927 0
M  V30 8967 O 838.222 1.84705 0.376351 0
M  V30 8968 C 835.349 3.37448 0.290946 0
M  V30 8969 C 834.395 4.22328 -0.595123 0
M  V30 8970 S 835.228 4.94677 -2.05072 0
M  V30 8971 C 836.384 6.12667 -1.28021 0
M  V30 8972 H 836.617 2.65333 -1.34111 0
M  V30 8973 H 834.15 1.32032 -0.800429 0
M  V30 8974 H 836.108 4.03867 0.734944 0
M  V30 8975 H 834.769 2.93519 1.11826 0
M  V30 8976 H 833.962 5.04 0.00507413 0
M  V30 8977 H 833.564 3.61043 -0.975906 0
M  V30 8978 H 835.856 6.75279 -0.548129 0
M  V30 8979 H 836.799 6.771 -2.07223 0
M  V30 8980 H 837.207 5.58898 -0.793272 0
M  V30 8981 N 836.605 0.766683 1.37694 0
M  V30 8982 C 837.568 0.155849 2.2867 0
M  V30 8983 C 838.568 -0.633509 1.47795 0
M  V30 8984 O 839.758 -0.457844 1.68076 0
M  V30 8985 C 836.89 -0.786965 3.31692 0
M  V30 8986 H 838.083 0.957748 2.84196 0
M  V30 8987 H 835.636 0.534554 1.46875 0
M  V30 8988 H 836.371 -1.61406 2.8128 0
M  V30 8989 H 836.156 -0.223182 3.91464 0
M  V30 8990 H 837.646 -1.20994 3.99688 0
M  V30 8991 N 838.083 -1.48885 0.516809 0
M  V30 8992 C 839.033 -2.26363 -0.272704 0
M  V30 8993 C 840.017 -1.31891 -0.921604 0
M  V30 8994 O 841.209 -1.56514 -0.826589 0
M  V30 8995 C 838.338 -3.16614 -1.32705 0
M  V30 8996 C 837.424 -4.18554 -0.683598 0
M  V30 8997 N 837.815 -5.05308 0.223015 0
M  V30 8998 C 836.113 -4.35931 -0.942351 0
M  V30 8999 C 836.814 -5.7867 0.592918 0
M  V30 9000 N 835.79 -5.43583 -0.042912 0
M  V30 9001 H 839.592 -2.90811 0.424971 0
M  V30 9002 H 837.106 -1.5893 0.333941 0
M  V30 9003 H 839.103 -3.70766 -1.90625 0
M  V30 9004 H 837.763 -2.5372 -2.02624 0
M  V30 9005 H 838.774 -5.14473 0.594818 0
M  V30 9006 H 835.451 -3.84234 -1.6331 0
M  V30 9007 H 836.841 -6.58493 1.33556 0
M  V30 9008 N 839.561 -0.251338 -1.55583 0
M  V30 9009 C 840.809 0.371434 -1.98657 0
M  V30 9010 C 841.13 1.58143 -1.14087 0
M  V30 9011 O 840.4 1.94607 -0.224708 0
M  V30 9012 H 838.98 0.140225 -0.733721 0
M  V30 9013 H 841.642 -0.351157 -1.9171 0
M  V30 9014 H 840.738 0.677554 -3.04657 0
M  V30 9015 N 841.039 1.57585 0.0217189 0
M  V30 9016 C 841.971 2.03849 1.04777 0
M  V30 9017 C 842.984 0.952558 1.32023 0
M  V30 9018 O 844.173 1.22974 1.29381 0
M  V30 9019 C 841.273 2.40504 2.3877 0
M  V30 9020 C 840.446 3.71566 2.30775 0
M  V30 9021 C 839.505 3.95329 3.47277 0
M  V30 9022 O 838.531 4.66289 3.26441 0
M  V30 9023 N 839.733 3.41536 4.69397 0
M  V30 9024 H 842.498 2.92491 0.653395 0
M  V30 9025 H 840.059 1.60538 0.209527 0
M  V30 9026 H 842.051 2.53532 3.15442 0
M  V30 9027 H 840.621 1.57494 2.70027 0
M  V30 9028 H 839.841 3.68822 1.39155 0
M  V30 9029 H 841.129 4.5753 2.22584 0
M  V30 9030 H 840.527 2.84033 4.89226 0
M  V30 9031 H 839.084 3.59932 5.43408 0
M  V30 9032 N 842.517 -0.29412 1.54831 0
M  V30 9033 C 843.427 -1.3854 1.89325 0
M  V30 9034 C 844.443 -1.55127 0.788133 0
M  V30 9035 O 845.619 -1.6966 1.08524 0
M  V30 9036 C 842.684 -2.72809 2.13954 0
M  V30 9037 C 841.745 -2.65148 3.37631 0
M  V30 9038 C 840.978 -3.93014 3.61076 0
M  V30 9039 O 841.201 -4.927 2.87406 0
M  V30 9040 O 840.135 -3.94491 4.54599 0
M  V30 9041 H 843.961 -1.12289 2.82179 0
M  V30 9042 H 841.546 -0.490793 1.41108 0
M  V30 9043 H 843.428 -3.52238 2.31315 0
M  V30 9044 H 842.103 -2.9889 1.24285 0
M  V30 9045 H 841.01 -1.84168 3.25627 0
M  V30 9046 H 842.343 -2.4402 4.27452 0
M  V30 9047 N 843.995 -1.47404 -0.557645 0
M  V30 9048 C 844.942 -1.59859 -1.66475 0
M  V30 9049 C 845.912 -0.441644 -1.60121 0
M  V30 9050 O 847.097 -0.661641 -1.78961 0
M  V30 9051 C 844.237 -1.61843 -3.04797 0
M  V30 9052 C 843.35 -2.8845 -3.2159 0
M  V30 9053 C 842.485 -2.81773 -4.50308 0
M  V30 9054 C 841.524 -4.03208 -4.60532 0
M  V30 9055 N 840.661 -3.94769 -5.80604 0
M  V30 9056 H 845.501 -2.54415 -1.55168 0
M  V30 9057 H 843.038 -1.26194 -0.755876 0
M  V30 9058 H 844.996 -1.60976 -3.84893 0
M  V30 9059 H 843.626 -0.707997 -3.1494 0
M  V30 9060 H 842.678 -2.99186 -2.34929 0
M  V30 9061 H 843.99 -3.78379 -3.25009 0
M  V30 9062 H 843.144 -2.79153 -5.38663 0
M  V30 9063 H 841.883 -1.89527 -4.49367 0
M  V30 9064 H 840.888 -4.06133 -3.70589 0
M  V30 9065 H 842.113 -4.9658 -4.63233 0
M  V30 9066 H 840.059 -3.05326 -5.80613 0
M  V30 9067 H 839.976 -4.78375 -5.854 0
M  V30 9068 H 841.244 -3.96165 -6.71322 0
M  V30 9069 N 845.473 0.80434 -1.35529 0
M  V30 9070 C 846.75 1.5486 -1.1949 0
M  V30 9071 C 847.13 2.09897 0.22506 0
M  V30 9072 O 846.478 1.92643 1.22886 0
M  V30 9073 C 846.688 2.65535 -2.26478 0
M  V30 9074 C 848.036 3.33814 -2.62399 0
M  V30 9075 O 849.06 2.75807 -2.25409 0
M  V30 9076 O 847.919 4.38612 -3.26009 0
M  V30 9077 H 845.013 0.68433 -0.464351 0
M  V30 9078 H 847.559 0.844107 -1.47217 0
M  V30 9079 H 846.331 2.22754 -3.21709 0
M  V30 9080 H 845.954 3.43617 -2.00033 0
M  V30 9081 N 846.951 1.19563 1.02676 0
M  V30 9082 C 848.176 1.02556 1.80269 0
M  V30 9083 C 848.601 -0.421056 1.83327 0
M  V30 9084 O 847.959 -1.30279 1.26084 0
M  V30 9085 C 848.007 1.60165 3.23078 0
M  V30 9086 O 847.111 0.832404 4.03912 0
M  V30 9087 H 846.452 0.362354 0.556413 0
M  V30 9088 H 848.982 1.58633 1.29216 0
M  V30 9089 H 848.992 1.6347 3.7382 0
M  V30 9090 H 847.667 2.65454 3.20167 0
M  V30 9091 H 846.244 0.872768 3.62543 0
M  V30 9092 N 848.429 -1.21819 0.999893 0
M  V30 9093 C 849.654 -1.95298 0.698094 0
M  V30 9094 C 850.079 -1.73273 -0.731982 0
M  V30 9095 O 849.437 -1.01634 -1.50134 0
M  V30 9096 C 849.485 -3.45922 1.01834 0
M  V30 9097 O 848.589 -4.12223 0.120801 0
M  V30 9098 H 847.93 -0.610729 0.260588 0
M  V30 9099 H 850.46 -1.5472 1.33876 0
M  V30 9100 H 850.47 -3.96471 0.963074 0
M  V30 9101 H 849.145 -3.61278 2.06037 0
M  V30 9102 H 847.722 -3.72177 0.232153 0
M  V30 9103 N 849.908 -0.773975 -1.37286 0
M  V30 9104 C 851.133 -0.349561 -2.04433 0
M  V30 9105 C 851.558 1.02082 -1.5799 0
M  V30 9106 O 850.916 1.65458 -0.741172 0
M  V30 9107 C 850.964 -0.404292 -3.58326 0
M  V30 9108 O 850.068 0.594447 -4.08093 0
M  V30 9109 H 849.409 -0.150959 -0.646612 0
M  V30 9110 H 851.939 -1.05079 -1.75555 0
M  V30 9111 H 851.949 -0.262378 -4.07155 0
M  V30 9112 H 850.624 -1.40403 -3.91484 0
M  V30 9113 H 849.201 0.415468 -3.70578 0
M  V30 9114 N 851.386 1.48609 -0.524698 0
M  V30 9115 C 852.296 2.33318 0.244923 0
M  V30 9116 C 853.312 1.46153 0.944214 0
M  V30 9117 O 854.488 1.79141 0.920347 0
M  V30 9118 C 851.553 3.22149 1.28144 0
M  V30 9119 C 850.614 4.25184 0.593068 0
M  V30 9120 C 849.847 5.0977 1.5802 0
M  V30 9121 O 850.07 4.96249 2.81235 0
M  V30 9122 O 849.004 5.9134 1.1225 0
M  V30 9123 H 852.83 3.00362 -0.449066 0
M  V30 9124 H 850.415 1.46643 -0.285689 0
M  V30 9125 H 852.297 3.77111 1.88057 0
M  V30 9126 H 850.972 2.57772 1.95793 0
M  V30 9127 H 849.879 3.74071 -0.0464214 0
M  V30 9128 H 851.212 4.92183 -0.0413893 0
M  V30 9129 N 852.864 0.259585 1.55447 0
M  V30 9130 C 854.089 -0.368317 2.04103 0
M  V30 9131 C 854.514 -1.49827 1.13725 0
M  V30 9132 O 853.872 -1.80814 0.132705 0
M  V30 9133 C 853.92 -0.841506 3.50644 0
M  V30 9134 O 853.024 -1.95008 3.63381 0
M  V30 9135 H 852.365 -0.0785227 0.659341 0
M  V30 9136 H 854.895 0.389349 2.00861 0
M  V30 9137 H 854.905 -1.14138 3.9171 0
M  V30 9138 H 853.58 -0.0147001 4.15897 0
M  V30 9139 H 852.157 -1.65393 3.34215 0
M  V30 9140 N 854.342 -1.57594 -0.0133615 0
M  V30 9141 C 855.252 -2.10991 -1.02566 0
M  V30 9142 C 856.268 -1.05208 -1.3859 0
M  V30 9143 O 857.444 -1.37034 -1.47593 0
M  V30 9144 C 854.509 -2.59165 -2.30292 0
M  V30 9145 C 853.57 -3.79495 -2.00704 0
M  V30 9146 C 852.803 -4.25361 -3.22341 0
M  V30 9147 O 853.026 -3.70645 -4.33565 0
M  V30 9148 O 851.96 -5.17649 -3.07121 0
M  V30 9149 H 855.786 -2.97678 -0.601806 0
M  V30 9150 H 853.371 -1.47598 -0.23135 0
M  V30 9151 H 855.253 -2.90409 -3.05354 0
M  V30 9152 H 853.928 -1.75582 -2.71942 0
M  V30 9153 H 852.835 -3.53245 -1.23161 0
M  V30 9154 H 854.168 -4.64109 -1.639 0
M  V30 9155 N 855.82 0.285905 -1.54985 0
M  V30 9156 C 857.097 1.0397 -1.65679 0
M  V30 9157 C 857.477 2.04725 -0.514851 0
M  V30 9158 O 856.825 2.23257 0.486663 0
M  V30 9159 C 857.035 1.70807 -3.04345 0
M  V30 9160 C 858.383 2.22447 -3.61666 0
M  V30 9161 O 859.407 1.80815 -3.06895 0
M  V30 9162 O 858.266 2.98773 -4.57599 0
M  V30 9163 H 855.36 0.481473 -0.672394 0
M  V30 9164 H 857.906 0.282789 -1.67327 0
M  V30 9165 H 856.678 0.977271 -3.789 0
M  V30 9166 H 856.301 2.53217 -3.06541 0
M  V30 9167 N 857.298 1.47698 0.54982 0
M  V30 9168 C 858.523 1.58579 1.33669 0
M  V30 9169 C 858.948 0.239049 1.86575 0
M  V30 9170 O 858.306 -0.786256 1.63364 0
M  V30 9171 C 858.354 2.62029 2.47736 0
M  V30 9172 O 857.458 2.17813 3.50188 0
M  V30 9173 H 856.799 0.532447 0.396732 0
M  V30 9174 H 859.329 1.93536 0.6637 0
M  V30 9175 H 859.339 2.82682 2.94202 0
M  V30 9176 H 858.014 3.59812 2.08586 0
M  V30 9177 H 856.591 2.07291 3.09976 0
M  V30 9178 N 858.776 -0.797141 1.35954 0
M  V30 9179 C 860.016 -1.56795 1.31128 0
M  V30 9180 C 860.38 -1.91683 -0.110364 0
M  V30 9181 O 861.581 -2.67305 -0.283093 0
M  V30 9182 C 859.852 -2.81577 2.20111 0
M  V30 9183 S 861.411 -3.71895 2.32894 0
M  V30 9184 H 858.229 -0.53711 0.465869 0
M  V30 9185 H 860.831 -0.939522 1.71445 0
M  V30 9186 H 859.535 -2.53986 3.22365 0
M  V30 9187 H 859.066 -3.49399 1.80786 0
M  V30 9188 H 861.081 -4.72322 1.52073 0
M  V30 9189 N 860.254 -1.20106 -1.0204 0
M  V30 9190 C 861.665 -1.00992 -1.57027 0
M  V30 9191 C 862.016 0.434782 -1.91322 0
M  V30 9192 O 861.141 1.31557 -1.71819 0
M  V30 9193 C 861.736 -1.82697 -2.85319 0
M  V30 9194 C 860.295 -1.67959 -3.36848 0
M  V30 9195 C 859.442 -1.80868 -2.10195 0
M  V30 9196 H 862.393 -1.34354 -0.844676 0
M  V30 9197 H 862.414 -1.32809 -3.5657 0
M  V30 9198 H 861.926 -2.87839 -2.60328 0
M  V30 9199 H 860.027 -0.654389 -3.66809 0
M  V30 9200 H 860.14 -2.49006 -4.09308 0
M  V30 9201 H 858.504 -1.24015 -2.22469 0
M  V30 9202 H 859.287 -2.87486 -1.87635 0
M  V30 9203 N 861.732 1.21287 -1.00634 0
M  V30 9204 C 863.143 1.72136 -0.722914 0
M  V30 9205 C 863.494 1.8091 0.759338 0
M  V30 9206 O 862.619 1.46458 1.59308 0
M  V30 9207 C 863.214 3.12633 -1.30561 0
M  V30 9208 C 861.773 3.60833 -1.07127 0
M  V30 9209 C 860.92 2.38326 -1.4176 0
M  V30 9210 H 863.871 1.06445 -1.17708 0
M  V30 9211 H 863.892 3.74174 -0.690937 0
M  V30 9212 H 863.404 3.06215 -2.38441 0
M  V30 9213 H 861.505 3.72599 -0.00968671 0
M  V30 9214 H 861.618 4.46226 -1.74411 0
M  V30 9215 H 859.982 2.40575 -0.836412 0
M  V30 9216 H 860.765 2.34558 -2.50674 0
M  V30 9217 N 863.21 0.781244 1.36873 0
M  V30 9218 C 864.435 0.360398 2.04245 0
M  V30 9219 C 864.86 -1.01242 1.58529 0
M  V30 9220 O 864.218 -1.65063 0.749936 0
M  V30 9221 C 864.266 0.42329 3.58107 0
M  V30 9222 O 863.37 -0.572796 4.08403 0
M  V30 9223 H 862.711 0.154386 0.645803 0
M  V30 9224 H 865.241 1.06008 1.74996 0
M  V30 9225 H 865.251 0.283967 4.07011 0
M  V30 9226 H 863.926 1.42477 3.90734 0
M  V30 9227 H 862.503 -0.395809 3.70793 0
M  V30 9228 N 864.689 -1.48329 0.532571 0
M  V30 9229 C 866.1 -1.86469 0.0927749 0
M  V30 9230 C 866.451 -1.44186 -1.3306 0
M  V30 9231 O 865.576 -0.833741 -1.99694 0
M  V30 9232 C 866.171 -3.38414 0.161588 0
M  V30 9233 C 864.73 -3.75739 -0.223028 0
M  V30 9234 C 863.877 -2.72377 0.520199 0
M  V30 9235 H 866.828 -1.40197 0.743678 0
M  V30 9236 H 866.849 -3.75314 -0.626059 0
M  V30 9237 H 866.361 -3.69159 1.19765 0
M  V30 9238 H 864.462 -3.50608 -1.26113 0
M  V30 9239 H 864.575 -4.78954 0.118385 0
M  V30 9240 H 862.939 -2.54678 -0.0338425 0
M  V30 9241 H 863.722 -3.05965 1.55694 0
M  V30 9242 N 866.167 -0.267825 -1.55308 0
M  V30 9243 C 867.415 0.350343 -1.9904 0
M  V30 9244 C 867.736 1.56924 -1.15758 0
M  V30 9245 O 867.006 1.94358 -0.245336 0
M  V30 9246 H 865.586 0.132435 -0.735167 0
M  V30 9247 H 868.248 -0.371471 -1.91327 0
M  V30 9248 H 867.344 0.645203 -3.05358 0
M  V30 9249 N 867.645 1.57599 0.00500368 0
M  V30 9250 C 868.885 1.92205 0.695456 0
M  V30 9251 C 869.249 0.868894 1.71214 0
M  V30 9252 O 870.45 1.10004 2.4526 0
M  V30 9253 C 868.721 3.31882 1.32625 0
M  V30 9254 S 870.28 3.88364 2.04252 0
M  V30 9255 H 867.098 0.672826 0.22984 0
M  V30 9256 H 869.7 1.95435 -0.0504824 0
M  V30 9257 H 868.404 4.06375 0.573396 0
M  V30 9258 H 867.935 3.32013 2.11023 0
M  V30 9259 H 869.95 3.69035 3.31704 0
M  V30 9260 N 869.123 -0.277682 1.55134 0
M  V30 9261 C 870.348 -1.03254 1.7987 0
M  V30 9262 C 870.773 -1.79324 0.567861 0
M  V30 9263 O 870.131 -1.74764 -0.4824 0
M  V30 9264 C 870.179 -1.9705 3.02 0
M  V30 9265 O 869.283 -3.05744 2.76757 0
M  V30 9266 H 868.624 -0.295447 0.594649 0
M  V30 9267 H 871.154 -0.308013 2.02268 0
M  V30 9268 H 871.164 -2.3909 3.30606 0
M  V30 9269 H 869.839 -1.41094 3.91236 0
M  V30 9270 H 868.416 -2.68052 2.59235 0
M  V30 9271 N 870.601 -1.47988 -0.541979 0
M  V30 9272 C 871.848 -1.55393 -1.29843 0
M  V30 9273 C 872.176 -0.222668 -1.93221 0
M  V30 9274 O 871.431 0.785936 -1.79225 0
M  V30 9275 C 871.73 -2.63189 -2.41798 0
M  V30 9276 C 871.396 -4.05999 -1.96151 0
M  V30 9277 C 870.058 -4.44872 -1.83419 0
M  V30 9278 C 872.41 -4.95545 -1.61507 0
M  V30 9279 C 869.738 -5.71108 -1.34361 0
M  V30 9280 C 872.09 -6.22259 -1.13915 0
M  V30 9281 C 870.754 -6.59998 -0.997911 0
M  V30 9282 H 870.024 -0.568623 -0.47513 0
M  V30 9283 H 872.671 -1.81654 -0.606142 0
M  V30 9284 H 870.976 -2.30743 -3.16647 0
M  V30 9285 H 872.673 -2.66138 -2.99953 0
M  V30 9286 H 869.263 -3.75294 -2.07008 0
M  V30 9287 H 873.447 -4.662 -1.70209 0
M  V30 9288 H 868.703 -5.99083 -1.22103 0
M  V30 9289 H 872.877 -6.91048 -0.861755 0
M  V30 9290 H 870.504 -7.57704 -0.615561 0
M  V30 9291 N 872.079 0.78992 -1.36375 0
M  V30 9292 C 873.307 1.57873 -1.3373 0
M  V30 9293 C 873.722 1.88624 0.0815544 0
M  V30 9294 O 873.079 1.50085 1.03831 0
M  V30 9295 C 873.13 2.90003 -2.15825 0
M  V30 9296 O 872.851 2.60578 -3.5218 0
M  V30 9297 C 874.352 3.84309 -2.20955 0
M  V30 9298 H 871.572 0.489685 -0.458748 0
M  V30 9299 H 874.116 0.980436 -1.79465 0
M  V30 9300 H 872.271 3.46303 -1.73646 0
M  V30 9301 H 872.685 3.4506 -3.95011 0
M  V30 9302 H 874.159 4.74081 -2.82756 0
M  V30 9303 H 874.636 4.22121 -1.21287 0
M  V30 9304 H 875.242 3.33942 -2.63368 0
M  V30 9305 N 873.557 1.20646 1.01402 0
M  V30 9306 C 874.467 0.973385 2.13453 0
M  V30 9307 C 875.483 -0.0715865 1.73853 0
M  V30 9308 O 876.659 0.116438 2.01063 0
M  V30 9309 C 873.724 0.531285 3.42605 0
M  V30 9310 C 872.785 1.64741 3.96433 0
M  V30 9311 C 872.018 1.22631 5.1942 0
M  V30 9312 O 872.241 0.0960891 5.70319 0
M  V30 9313 O 871.175 2.03474 5.66465 0
M  V30 9314 H 875.001 1.91164 2.35987 0
M  V30 9315 H 872.586 0.990553 1.11841 0
M  V30 9316 H 874.468 0.294095 4.20373 0
M  V30 9317 H 873.143 -0.378358 3.21481 0
M  V30 9318 H 872.05 1.93891 3.19933 0
M  V30 9319 H 873.383 2.53415 4.2195 0
M  V30 9320 N 875.035 -1.20752 1.01276 0
M  V30 9321 C 876.283 -1.89645 0.698505 0
M  V30 9322 C 876.604 -1.78986 -0.773883 0
M  V30 9323 O 875.874 -1.18977 -1.55632 0
M  V30 9324 H 874.454 -0.701992 0.255375 0
M  V30 9325 H 877.116 -1.46668 1.28353 0
M  V30 9326 H 876.212 -2.96364 0.978512 0
M  V30 9327 N 876.513 -0.788492 -1.36457 0
M  V30 9328 C 877.76 -0.360461 -1.99266 0
M  V30 9329 C 878.088 1.0676 -1.62581 0
M  V30 9330 O 877.343 1.75205 -0.871884 0
M  V30 9331 C 877.642 -0.470255 -3.54293 0
M  V30 9332 C 877.308 -1.85899 -4.10795 0
M  V30 9333 C 875.97 -2.23896 -4.25939 0
M  V30 9334 C 878.322 -2.76836 -4.41601 0
M  V30 9335 C 875.65 -3.52235 -4.69199 0
M  V30 9336 C 878.002 -4.04602 -4.86292 0
M  V30 9337 C 876.666 -4.42623 -4.99641 0
M  V30 9338 H 875.936 -0.131902 -0.729166 0
M  V30 9339 H 878.583 -1.00577 -1.62962 0
M  V30 9340 H 876.888 0.258559 -3.90946 0
M  V30 9341 H 878.585 -0.120119 -4.0082 0
M  V30 9342 H 875.175 -1.55372 -3.99447 0
M  V30 9343 H 879.359 -2.48735 -4.2947 0
M  V30 9344 H 874.615 -3.81565 -4.77722 0
M  V30 9345 H 878.789 -4.75182 -5.09092 0
M  V30 9346 H 876.416 -5.42125 -5.32921 0
M  V30 9347 N 877.991 1.48044 -0.54043 0
M  V30 9348 C 879.216 2.07396 -0.0124765 0
M  V30 9349 C 879.641 1.39288 1.26414 0
M  V30 9350 O 878.999 0.462252 1.75308 0
M  V30 9351 C 879.047 3.60131 0.18377 0
M  V30 9352 O 878.151 3.92995 1.25014 0
M  V30 9353 H 877.492 0.662554 -0.0438026 0
M  V30 9354 H 880.022 1.90306 -0.751327 0
M  V30 9355 H 880.032 4.06003 0.403197 0
M  V30 9356 H 878.707 4.09105 -0.74874 0
M  V30 9357 H 877.284 3.5889 1.01254 0
M  V30 9358 N 879.47 0.276058 1.55163 0
M  V30 9359 C 880.717 -0.340455 1.99618 0
M  V30 9360 C 881.045 -1.5579 1.16446 0
M  V30 9361 O 880.3 -1.94433 0.222359 0
M  V30 9362 C 880.599 -0.765744 3.491 0
M  V30 9363 C 880.265 0.347174 4.49561 0
M  V30 9364 C 878.927 0.65276 4.76752 0
M  V30 9365 C 881.279 1.09705 5.09523 0
M  V30 9366 C 878.607 1.71179 5.61173 0
M  V30 9367 C 880.959 2.14581 5.95095 0
M  V30 9368 C 879.623 2.45773 6.20606 0
M  V30 9369 H 878.893 -0.124581 0.730452 0
M  V30 9370 H 881.54 0.389966 1.87487 0
M  V30 9371 H 879.845 -1.57585 3.58712 0
M  V30 9372 H 881.542 -1.25352 3.80904 0
M  V30 9373 H 878.132 0.0988779 4.28486 0
M  V30 9374 H 882.316 0.874223 4.8854 0
M  V30 9375 H 877.572 1.95846 5.79184 0
M  V30 9376 H 881.746 2.7316 6.40591 0
M  V30 9377 H 879.373 3.27969 6.85813 0
M  V30 9378 N 880.948 -1.576 0.00335426 0
M  V30 9379 C 882.225 -1.81945 -0.718015 0
M  V30 9380 C 882.605 -0.881788 -1.91801 0
M  V30 9381 O 881.953 0.0687118 -2.28397 0
M  V30 9382 C 882.163 -3.30521 -1.12058 0
M  V30 9383 C 883.511 -3.96345 -1.52303 0
M  V30 9384 O 884.535 -3.34864 -1.21428 0
M  V30 9385 O 883.394 -5.04655 -2.09728 0
M  V30 9386 H 880.488 -0.749328 -0.34991 0
M  V30 9387 H 883.034 -1.69675 0.0290654 0
M  V30 9388 H 881.806 -3.90399 -0.265378 0
M  V30 9389 H 881.429 -3.47802 -1.92665 0
M  V30 9390 N 882.426 0.269451 -1.5528 0
M  V30 9391 C 883.356 1.33729 -1.91413 0
M  V30 9392 C 884.337 1.51348 -0.776391 0
M  V30 9393 O 885.522 1.64332 -1.03482 0
M  V30 9394 C 882.652 2.69618 -2.18914 0
M  V30 9395 C 881.606 2.66725 -3.34726 0
M  V30 9396 C 880.932 4.06199 -3.47716 0
M  V30 9397 C 882.232 2.25684 -4.71025 0
M  V30 9398 H 883.926 1.03736 -2.80854 0
M  V30 9399 H 881.472 0.497579 -1.3513 0
M  V30 9400 H 883.425 3.44436 -2.42779 0
M  V30 9401 H 882.149 3.01201 -1.26275 0
M  V30 9402 H 880.808 1.94365 -3.10834 0
M  V30 9403 H 880.456 4.3501 -2.52537 0
M  V30 9404 H 880.156 4.05157 -4.25583 0
M  V30 9405 H 881.68 4.8275 -3.73877 0
M  V30 9406 H 883.094 2.90225 -4.94411 0
M  V30 9407 H 881.491 2.35797 -5.51833 0
M  V30 9408 H 882.561 1.20819 -4.69607 0
M  V30 9409 N 883.904 1.48273 0.534124 0
M  V30 9410 C 885.151 1.56079 1.29017 0
M  V30 9411 C 885.479 0.232912 1.931 0
M  V30 9412 O 884.734 -0.77642 1.79639 0
M  V30 9413 C 885.033 2.64468 2.40398 0
M  V30 9414 C 884.699 4.07034 1.93995 0
M  V30 9415 C 883.361 4.45838 1.81058 0
M  V30 9416 C 885.713 4.96395 1.58877 0
M  V30 9417 C 883.041 5.71812 1.31331 0
M  V30 9418 C 885.393 6.22854 1.10614 0
M  V30 9419 C 884.057 6.60518 0.962895 0
M  V30 9420 H 883.327 0.571135 0.472108 0
M  V30 9421 H 885.974 1.81973 0.5965 0
M  V30 9422 H 884.279 2.32419 3.15418 0
M  V30 9423 H 885.976 2.67725 2.98537 0
M  V30 9424 H 882.566 3.76387 2.05015 0
M  V30 9425 H 886.75 4.67096 1.67734 0
M  V30 9426 H 882.006 5.99722 1.18924 0
M  V30 9427 H 886.18 6.91495 0.825095 0
M  V30 9428 H 883.807 7.58019 0.575369 0
M  V30 9429 N 885.382 -0.782676 1.36792 0
M  V30 9430 C 886.33 -1.91698 1.31737 0
M  V30 9431 C 887.324 -1.68118 0.207994 0
M  V30 9432 O 888.53 -1.76042 0.375393 0
M  V30 9433 H 884.905 -0.630215 0.410284 0
M  V30 9434 H 886.876 -1.93078 2.27516 0
M  V30 9435 C 885.625 -3.28816 1.13029 0
M  V30 9436 H 884.948 -3.4753 1.97643 0
M  V30 9437 H 886.388 -4.08515 1.13541 0
M  V30 9438 C 884.847 -3.36497 -0.1647 0
M  V30 9439 O 885.377 -3.84822 -1.15216 0
M  V30 9440 N 883.583 -2.89828 -0.211678 0
M  V30 9441 H 883.13 -2.50693 0.59252 0
M  V30 9442 H 883.088 -2.95349 -1.07779 0
M  V30 9443 N 886.86 -1.21182 -1.00761 0
M  V30 9444 C 888.271 -1.02652 -1.55947 0
M  V30 9445 C 888.622 0.414466 -1.91772 0
M  V30 9446 O 887.747 1.29727 -1.73204 0
M  V30 9447 C 888.342 -1.85713 -2.83366 0
M  V30 9448 C 886.901 -1.71523 -3.35048 0
M  V30 9449 C 886.048 -1.83087 -2.08265 0
M  V30 9450 H 888.999 -1.35242 -0.830379 0
M  V30 9451 H 889.02 -1.36583 -3.55141 0
M  V30 9452 H 888.532 -2.90584 -2.5726 0
M  V30 9453 H 886.633 -0.693257 -3.66094 0
M  V30 9454 H 886.746 -2.53333 -4.06644 0
M  V30 9455 H 885.11 -1.26367 -2.21141 0
M  V30 9456 H 885.893 -2.8946 -1.84575 0
M  V30 9457 N 888.338 1.20213 -1.01915 0
M  V30 9458 C 889.615 1.85348 -0.62495 0
M  V30 9459 C 889.995 1.91101 0.896854 0
M  V30 9460 O 889.343 1.42075 1.78961 0
M  V30 9461 C 889.553 3.24849 -1.27571 0
M  V30 9462 C 890.901 4.01107 -1.39277 0
M  V30 9463 O 891.925 3.34211 -1.23212 0
M  V30 9464 O 890.784 5.20914 -1.6526 0
M  V30 9465 H 887.878 0.798303 -0.215965 0
M  V30 9466 H 890.424 1.27782 -1.11669 0
M  V30 9467 H 889.196 3.1544 -2.31545 0
M  V30 9468 H 888.819 3.90049 -0.77122 0
M  V30 9469 N 889.816 0.795718 1.36037 0
M  V30 9470 C 891.046 0.382597 2.03026 0
M  V30 9471 C 891.454 -1.00779 1.60126 0
M  V30 9472 O 890.797 -1.65884 0.78919 0
M  V30 9473 C 890.859 0.374145 3.57548 0
M  V30 9474 C 890.523 1.71318 4.23673 0
M  V30 9475 C 891.52 2.6697 4.4612 0
M  V30 9476 C 889.205 1.99421 4.61017 0
M  V30 9477 C 891.199 3.88916 5.04998 0
M  V30 9478 C 888.886 3.21632 5.19611 0
M  V30 9479 C 889.884 4.16198 5.41542 0
M  V30 9480 O 889.572 5.36254 5.98905 0
M  V30 9481 H 889.304 0.154944 0.658003 0
M  V30 9482 H 891.858 1.07756 1.74865 0
M  V30 9483 H 890.088 -0.377349 3.84854 0
M  V30 9484 H 891.777 -0.01517 4.05897 0
M  V30 9485 H 892.543 2.46548 4.17659 0
M  V30 9486 H 888.422 1.2663 4.43267 0
M  V30 9487 H 891.966 4.6274 5.22032 0
M  V30 9488 H 887.863 3.4193 5.47498 0
M  V30 9489 H 888.631 5.37403 6.17366 0
M  V30 9490 N 891.294 -1.47756 0.548274 0
M  V30 9491 C 892.54 -2.02789 0.0209265 0
M  V30 9492 C 892.873 -1.42268 -1.32187 0
M  V30 9493 O 892.148 -0.575001 -1.85806 0
M  V30 9494 C 892.431 -3.60007 -0.0816674 0
M  V30 9495 C 892.284 -4.30977 1.28759 0
M  V30 9496 C 893.603 -4.32777 -0.799515 0
M  V30 9497 H 890.722 -0.736944 0.00907884 0
M  V30 9498 H 893.364 -1.76282 0.708839 0
M  V30 9499 H 891.514 -3.82722 -0.667537 0
M  V30 9500 H 893.186 -4.19629 1.91597 0
M  V30 9501 H 891.429 -3.9168 1.86466 0
M  V30 9502 H 892.1 -5.39488 1.16861 0
M  V30 9503 H 894.576 -4.15001 -0.30216 0
M  V30 9504 H 893.452 -5.42431 -0.840239 0
M  V30 9505 H 893.713 -4.01358 -1.85375 0
M  V30 9506 N 892.772 -0.284283 -1.55015 0
M  V30 9507 C 894.183 0.211681 -1.85496 0
M  V30 9508 C 894.534 1.54735 -1.2063 0
M  V30 9509 O 893.659 2.10594 -0.497918 0
M  V30 9510 C 894.254 0.390864 -3.36538 0
M  V30 9511 C 892.813 0.831055 -3.67111 0
M  V30 9512 C 891.96 -0.0703581 -2.77211 0
M  V30 9513 H 894.911 -0.505803 -1.50424 0
M  V30 9514 H 894.932 1.22803 -3.60138 0
M  V30 9515 H 894.444 -0.581409 -3.8372 0
M  V30 9516 H 892.545 1.81447 -3.25434 0
M  V30 9517 H 892.658 0.662026 -4.74504 0
M  V30 9518 H 891.022 0.447528 -2.50737 0
M  V30 9519 H 891.805 -1.03868 -3.2721 0
M  V30 9520 N 894.251 1.57596 -0.0117121 0
M  V30 9521 C 895.198 2.09153 0.975897 0
M  V30 9522 C 896.168 0.989579 1.33404 0
M  V30 9523 O 897.353 1.26273 1.43038 0
M  V30 9524 C 894.493 2.60906 2.2588 0
M  V30 9525 C 893.606 3.85046 1.95866 0
M  V30 9526 C 892.741 4.25257 3.18323 0
M  V30 9527 C 891.78 5.42202 2.84049 0
M  V30 9528 N 890.917 5.77651 3.99079 0
M  V30 9529 H 895.757 2.93261 0.52931 0
M  V30 9530 H 893.294 1.44965 0.249691 0
M  V30 9531 H 895.252 2.88995 3.00895 0
M  V30 9532 H 893.882 1.79654 2.68187 0
M  V30 9533 H 892.934 3.63794 1.11168 0
M  V30 9534 H 894.246 4.70151 1.66611 0
M  V30 9535 H 893.4 4.5469 4.01674 0
M  V30 9536 H 892.139 3.38884 3.50726 0
M  V30 9537 H 891.144 5.1248 1.99107 0
M  V30 9538 H 892.369 6.3026 2.52881 0
M  V30 9539 H 890.315 4.94235 4.31356 0
M  V30 9540 H 890.232 6.57356 3.73388 0
M  V30 9541 H 891.5 6.11681 4.83183 0
M  V30 9542 N 895.729 -0.261212 1.5542 0
M  V30 9543 C 896.975 -0.992699 1.76843 0
M  V30 9544 C 897.308 -1.8551 0.574428 0
M  V30 9545 O 896.583 -1.89739 -0.427713 0
M  V30 9546 C 896.866 -1.86532 3.08022 0
M  V30 9547 C 896.719 -1.03206 4.378 0
M  V30 9548 C 898.038 -2.85036 3.35324 0
M  V30 9549 H 895.157 -0.359473 0.643388 0
M  V30 9550 H 897.799 -0.264214 1.88154 0
M  V30 9551 H 895.949 -2.48644 2.9851 0
M  V30 9552 H 897.621 -0.430743 4.59285 0
M  V30 9553 H 895.864 -0.335911 4.32497 0
M  V30 9554 H 896.535 -1.6761 5.25938 0
M  V30 9555 H 899.011 -2.3306 3.44706 0
M  V30 9556 H 897.887 -3.43226 4.28354 0
M  V30 9557 H 898.148 -3.60768 2.55537 0
M  V30 9558 N 897.207 -1.48554 -0.526253 0
M  V30 9559 C 898.484 -1.47252 -1.28748 0
M  V30 9560 C 898.864 -0.186245 -2.10277 0
M  V30 9561 O 898.212 0.831954 -2.12816 0
M  V30 9562 C 898.422 -2.73672 -2.16575 0
M  V30 9563 C 899.77 -3.22151 -2.76593 0
M  V30 9564 O 900.794 -2.74614 -2.2686 0
M  V30 9565 O 899.653 -4.04877 -3.67066 0
M  V30 9566 H 896.747 -0.588242 -0.581292 0
M  V30 9567 H 899.293 -1.60792 -0.5426 0
M  V30 9568 H 898.065 -3.58798 -1.56139 0
M  V30 9569 H 897.688 -2.6287 -2.98304 0
M  V30 9570 N 898.685 0.775411 -1.37205 0
M  V30 9571 C 899.632 1.88857 -1.32671 0
M  V30 9572 C 900.602 1.64976 -0.192899 0
M  V30 9573 O 901.787 1.86944 -0.381673 0
M  V30 9574 C 898.927 3.25871 -1.13588 0
M  V30 9575 C 898.04 3.61731 -2.36167 0
M  V30 9576 C 897.175 4.87934 -2.09985 0
M  V30 9577 C 896.214 5.16514 -3.2845 0
M  V30 9578 N 895.351 6.33905 -3.01842 0
M  V30 9579 H 900.191 1.92068 -2.27846 0
M  V30 9580 H 897.728 0.939066 -1.13225 0
M  V30 9581 H 899.686 4.04903 -1.00546 0
M  V30 9582 H 898.316 3.22045 -0.220613 0
M  V30 9583 H 897.368 2.77712 -2.59962 0
M  V30 9584 H 898.68 3.78792 -3.24528 0
M  V30 9585 H 897.834 5.74863 -1.93953 0
M  V30 9586 H 896.573 4.7297 -1.18956 0
M  V30 9587 H 895.578 4.28063 -3.45025 0
M  V30 9588 H 896.803 5.33389 -4.20325 0
M  V30 9589 H 894.749 6.20306 -2.13439 0
M  V30 9590 H 894.666 6.51364 -3.83746 0
M  V30 9591 H 895.934 7.23779 -2.8942 0
M  V30 9592 N 900.163 1.21714 1.00117 0
M  V30 9593 C 901.409 1.04829 1.74306 0
M  V30 9594 C 901.764 -0.413387 1.87907 0
M  V30 9595 O 901.057 -1.30258 1.40512 0
M  V30 9596 C 901.251 1.68345 3.15269 0
M  V30 9597 C 901.08 3.20537 3.15414 0
M  V30 9598 C 899.85 3.896 3.21776 0
M  V30 9599 C 902.048 4.17576 3.00224 0
M  V30 9600 N 900.03 5.28949 3.11587 0
M  V30 9601 C 901.401 5.43701 2.97974 0
M  V30 9602 C 903.456 4.08575 2.84554 0
M  V30 9603 C 902.159 6.61861 2.8166 0
M  V30 9604 C 904.185 5.26375 2.69598 0
M  V30 9605 C 903.547 6.51414 2.68028 0
M  V30 9606 H 899.646 0.437964 0.647852 0
M  V30 9607 H 902.23 1.54128 1.18965 0
M  V30 9608 H 900.401 1.21607 3.68872 0
M  V30 9609 H 902.133 1.44629 3.77974 0
M  V30 9610 H 898.888 3.40548 3.29126 0
M  V30 9611 H 899.312 6.01945 3.09825 0
M  V30 9612 H 903.954 3.12696 2.84571 0
M  V30 9613 H 901.672 7.57896 2.8039 0
M  V30 9614 H 905.258 5.21235 2.58468 0
M  V30 9615 H 904.138 7.41033 2.56593 0
M  V30 9616 N 901.641 -1.19671 1.02551 0
M  V30 9617 C 902.866 -1.93774 0.739363 0
M  V30 9618 C 903.291 -1.74787 -0.695064 0
M  V30 9619 O 902.649 -1.04796 -1.47944 0
M  V30 9620 C 902.697 -3.43684 1.09149 0
M  V30 9621 O 901.801 -4.11874 0.208213 0
M  V30 9622 H 901.142 -0.605064 0.273484 0
M  V30 9623 H 903.672 -1.51846 1.37128 0
M  V30 9624 H 903.682 -3.94339 1.04695 0
M  V30 9625 H 902.357 -3.56826 2.13654 0
M  V30 9626 H 900.934 -3.716 0.311045 0
M  V30 9627 N 903.119 -0.802921 -1.35613 0
M  V30 9628 C 904.535 -0.486214 -1.52014 0
M  V30 9629 C 904.735 0.993219 -1.75321 0
M  V30 9630 O 903.791 1.77835 -1.79251 0
M  V30 9631 C 905.104 -1.32839 -2.69767 0
M  V30 9632 C 906.652 -1.32346 -2.83643 0
M  V30 9633 C 907.127 -2.14967 -4.04417 0
M  V30 9634 N 908.618 -2.12484 -4.11588 0
M  V30 9635 C 909.353 -2.73173 -5.04147 0
M  V30 9636 N 908.849 -3.42774 -6.02061 0
M  V30 9637 N 910.642 -2.62834 -4.96865 0
M  V30 9638 H 902.793 -1.76109 -1.18741 0
M  V30 9639 H 905.056 -0.74936 -0.580658 0
M  V30 9640 H 904.762 -2.37813 -2.5911 0
M  V30 9641 H 904.636 -0.979058 -3.64272 0
M  V30 9642 H 907.023 -0.281586 -2.93753 0
M  V30 9643 H 907.104 -1.71264 -1.90006 0
M  V30 9644 H 906.748 -3.19193 -3.95068 0
M  V30 9645 H 906.678 -1.73411 -4.97228 0
M  V30 9646 H 909.169 -1.61839 -3.41492 0
M  V30 9647 H 909.482 -3.86378 -6.69277 0
M  V30 9648 H 907.827 -3.46878 -6.02246 0
M  V30 9649 H 911.018 -2.08049 -4.19325 0
M  V30 9650 H 911.191 -3.10421 -5.68808 0
M  V30 9651 N 904.597 1.47463 -0.556102 0
M  V30 9652 C 905.844 2.02475 -0.0316337 0
M  V30 9653 C 906.172 1.43057 1.31777 0
M  V30 9654 O 905.427 0.575376 1.87051 0
M  V30 9655 C 905.726 3.57224 0.112126 0
M  V30 9656 C 905.392 4.35557 -1.16624 0
M  V30 9657 C 904.054 4.56678 -1.51654 0
M  V30 9658 C 906.406 4.8074 -2.01342 0
M  V30 9659 C 903.734 5.20231 -2.7125 0
M  V30 9660 C 906.086 5.45613 -3.2014 0
M  V30 9661 C 904.75 5.64967 -3.55484 0
M  V30 9662 H 904.02 0.74091 -0.0115756 0
M  V30 9663 H 906.667 1.77148 -0.727392 0
M  V30 9664 H 904.972 3.81538 0.890842 0
M  V30 9665 H 906.669 3.97438 0.533261 0
M  V30 9666 H 903.259 4.19395 -0.883489 0
M  V30 9667 H 907.443 4.64201 -1.75587 0
M  V30 9668 H 902.699 5.3341 -2.98804 0
M  V30 9669 H 906.873 5.79587 -3.86073 0
M  V30 9670 H 904.5 6.13984 -4.4825 0
M  V30 9671 N 906.075 0.2925 1.54862 0
M  V30 9672 C 907.005 -0.580677 2.26165 0
M  V30 9673 C 907.986 -1.14485 1.25806 0
M  V30 9674 O 909.171 -1.17577 1.54562 0
M  V30 9675 C 906.301 -1.75668 2.99596 0
M  V30 9676 C 905.255 -1.32325 4.07031 0
M  V30 9677 C 904.581 -2.58374 4.68131 0
M  V30 9678 C 905.881 -0.460703 5.20264 0
M  V30 9679 H 907.575 0.0140075 2.99397 0
M  V30 9680 H 905.121 0.00817706 1.43998 0
M  V30 9681 H 907.074 -2.37356 3.48195 0
M  V30 9682 H 905.798 -2.37747 2.23928 0
M  V30 9683 H 904.457 -0.729477 3.59269 0
M  V30 9684 H 904.105 -3.18749 3.89112 0
M  V30 9685 H 903.805 -2.30078 5.40683 0
M  V30 9686 H 905.329 -3.2088 5.19489 0
M  V30 9687 H 906.743 -0.983037 5.64809 0
M  V30 9688 H 905.14 -0.271881 5.99484 0
M  V30 9689 H 906.21 0.516304 4.82143 0
M  V30 9690 N 907.553 -1.57587 0.0200696 0
M  V30 9691 C 908.8 -1.91424 -0.660525 0
M  V30 9692 C 909.128 -0.895626 -1.72652 0
M  V30 9693 O 908.383 0.096771 -1.95461 0
M  V30 9694 C 908.682 -3.32002 -1.32323 0
M  V30 9695 C 908.348 -4.49223 -0.388487 0
M  V30 9696 C 907.01 -4.81021 -0.131184 0
M  V30 9697 C 909.362 -5.20581 0.253906 0
M  V30 9698 C 906.69 -5.81539 0.776471 0
M  V30 9699 C 909.042 -6.22067 1.14956 0
M  V30 9700 C 907.706 -6.52311 1.41584 0
M  V30 9701 H 906.976 -0.700472 -0.241703 0
M  V30 9702 H 909.623 -1.91333 0.0798991 0
M  V30 9703 H 907.928 -3.28312 -2.13819 0
M  V30 9704 H 909.625 -3.5545 -1.85623 0
M  V30 9705 H 906.215 -4.24391 -0.599207 0
M  V30 9706 H 910.399 -4.96253 0.068164 0
M  V30 9707 H 905.655 -6.03322 0.990575 0
M  V30 9708 H 909.829 -6.76484 1.65357 0
M  V30 9709 H 907.456 -7.30017 2.12083 0
M  V30 9710 N 909.032 0.252966 -1.55557 0
M  V30 9711 C 910.443 0.822503 -1.67606 0
M  V30 9712 C 910.794 1.86265 -0.616411 0
M  V30 9713 O 909.919 2.15082 0.238447 0
M  V30 9714 C 910.514 1.49866 -3.03852 0
M  V30 9715 C 909.073 2.01597 -3.17861 0
M  V30 9716 C 908.22 0.864943 -2.63465 0
M  V30 9717 H 911.171 0.0288958 -1.58674 0
M  V30 9718 H 911.192 2.36646 -2.97958 0
M  V30 9719 H 910.704 0.741378 -3.80953 0
M  V30 9720 H 908.805 2.80224 -2.45571 0
M  V30 9721 H 908.918 2.21752 -4.24692 0
M  V30 9722 H 907.282 1.2638 -2.21134 0
M  V30 9723 H 908.065 0.120847 -3.43087 0
M  V30 9724 N 910.51 1.48831 0.518367 0
M  V30 9725 C 911.44 1.67119 1.63075 0
M  V30 9726 C 912.421 0.519948 1.61958 0
M  V30 9727 O 913.606 0.753824 1.78972 0
M  V30 9728 C 910.736 1.72158 3.01627 0
M  V30 9729 C 909.69 2.86898 3.17606 0
M  V30 9730 C 909.016 2.77035 4.57335 0
M  V30 9731 C 910.316 4.28057 2.99274 0
M  V30 9732 H 912.01 2.60248 1.48025 0
M  V30 9733 H 909.556 1.2524 0.710694 0
M  V30 9734 H 911.509 1.83539 3.7933 0
M  V30 9735 H 910.233 0.756157 3.17726 0
M  V30 9736 H 908.892 2.75091 2.42323 0
M  V30 9737 H 908.54 1.78438 4.70286 0
M  V30 9738 H 908.24 3.54036 4.6897 0
M  V30 9739 H 909.764 2.904 5.37122 0
M  V30 9740 H 911.178 4.40636 3.6676 0
M  V30 9741 H 909.575 5.06145 3.22393 0
M  V30 9742 H 910.645 4.4371 1.95574 0
M  V30 9743 N 911.988 -0.768124 1.37614 0
M  V30 9744 C 912.951 -1.86314 1.3349 0
M  V30 9745 C 913.951 -1.59025 0.23823 0
M  V30 9746 O 915.141 -1.6704 0.494288 0
M  V30 9747 C 912.273 -3.23519 1.07462 0
M  V30 9748 H 913.466 -1.91382 2.30896 0
M  V30 9749 H 911.019 -0.968267 1.22696 0
M  V30 9750 H 911.754 -3.24127 0.106028 0
M  V30 9751 H 911.539 -3.44719 1.86846 0
M  V30 9752 H 913.029 -4.03597 1.07236 0
M  V30 9753 N 913.466 -1.22244 -0.994698 0
M  V30 9754 C 914.713 -1.04591 -1.73398 0
M  V30 9755 C 915.041 0.419223 -1.89928 0
M  V30 9756 O 914.296 1.32714 -1.43824 0
M  V30 9757 C 914.595 -1.70014 -3.14372 0
M  V30 9758 C 914.261 -3.19903 -3.17762 0
M  V30 9759 C 912.923 -3.60803 -3.18394 0
M  V30 9760 C 915.275 -4.15851 -3.14194 0
M  V30 9761 C 912.603 -4.96135 -3.13157 0
M  V30 9762 C 914.955 -5.51157 -3.10498 0
M  V30 9763 C 913.619 -5.91439 -3.09445 0
M  V30 9764 H 912.889 -0.382725 -0.63451 0
M  V30 9765 H 915.536 -1.51981 -1.16508 0
M  V30 9766 H 913.841 -1.14945 -3.7456 0
M  V30 9767 H 915.538 -1.53848 -3.70313 0
M  V30 9768 H 912.128 -2.87336 -3.18019 0
M  V30 9769 H 916.312 -3.85272 -3.12857 0
M  V30 9770 H 911.568 -5.26578 -3.10685 0
M  V30 9771 H 915.742 -6.2523 -3.06692 0
M  V30 9772 H 913.369 -6.96271 -3.05141 0
M  V30 9773 N 914.944 1.19125 -1.03184 0
M  V30 9774 C 916.192 1.8851 -0.728587 0
M  V30 9775 C 916.513 1.80195 0.74531 0
M  V30 9776 O 915.783 1.21437 1.5372 0
M  V30 9777 H 914.363 0.69784 -0.266511 0
M  V30 9778 H 917.025 1.44607 -1.3067 0
M  V30 9779 H 916.121 2.9477 -1.02554 0
M  V30 9780 N 916.422 0.810101 1.35185 0
M  V30 9781 C 917.352 0.237453 2.32289 0
M  V30 9782 C 918.333 -0.639032 1.5764 0
M  V30 9783 O 919.518 -0.568575 1.8569 0
M  V30 9784 C 916.648 -0.611964 3.41866 0
M  V30 9785 C 915.602 0.166318 4.27677 0
M  V30 9786 C 914.928 -0.805024 5.28605 0
M  V30 9787 C 916.228 1.36729 5.04086 0
M  V30 9788 H 917.922 1.04874 2.80432 0
M  V30 9789 H 915.468 0.505751 1.34826 0
M  V30 9790 H 917.421 -1.02267 4.08802 0
M  V30 9791 H 916.145 -1.45617 2.92341 0
M  V30 9792 H 914.804 0.558238 3.62325 0
M  V30 9793 H 914.452 -1.64483 4.75347 0
M  V30 9794 H 914.152 -0.288577 5.86891 0
M  V30 9795 H 915.676 -1.21386 5.98413 0
M  V30 9796 H 917.09 1.03128 5.63948 0
M  V30 9797 H 915.487 1.81848 5.71884 0
M  V30 9798 H 916.557 2.15214 4.34524 0
M  V30 9799 N 917.9 -1.47166 0.563914 0
M  V30 9800 C 919.147 -2.02456 0.042371 0
M  V30 9801 C 919.475 -1.43753 -1.31016 0
M  V30 9802 O 918.73 -0.585287 -1.86743 0
M  V30 9803 C 919.029 -3.57279 -0.0931797 0
M  V30 9804 C 918.695 -4.34932 1.18933 0
M  V30 9805 C 917.357 -4.55867 1.54073 0
M  V30 9806 C 919.709 -4.79665 2.03889 0
M  V30 9807 C 917.037 -5.18785 2.74005 0
M  V30 9808 C 919.389 -5.43907 3.23029 0
M  V30 9809 C 918.053 -5.63074 3.58475 0
M  V30 9810 H 917.323 -0.740838 0.0155047 0
M  V30 9811 H 919.97 -1.76759 0.736776 0
M  V30 9812 H 918.275 -3.82005 -0.870596 0
M  V30 9813 H 919.972 -3.97716 -0.512176 0
M  V30 9814 H 916.562 -4.18921 0.905718 0
M  V30 9815 H 920.746 -4.63264 1.78046 0
M  V30 9816 H 916.002 -5.31818 3.01628 0
M  V30 9817 H 920.176 -5.77531 3.89141 0
M  V30 9818 H 917.803 -6.11598 4.515 0
M  V30 9819 N 919.378 -0.300708 -1.54705 0
M  V30 9820 C 920.326 0.591264 -2.2496 0
M  V30 9821 C 921.32 1.13725 -1.2555 0
M  V30 9822 O 922.526 1.08793 -1.43402 0
M  V30 9823 H 918.901 0.209278 -0.722293 0
M  V30 9824 H 920.872 -0.0238175 -2.9839 0
M  V30 9825 C 919.621 1.75179 -3.00346 0
M  V30 9826 H 918.944 1.34089 -3.76643 0
M  V30 9827 H 920.384 2.35198 -3.52786 0
M  V30 9828 C 918.843 2.65574 -2.07298 0
M  V30 9829 O 919.373 3.6666 -1.64083 0
M  V30 9830 N 917.579 2.33301 -1.7326 0
M  V30 9831 H 917.126 1.51142 -2.08599 0
M  V30 9832 H 917.084 2.94049 -1.11278 0
M  V30 9833 N 920.856 1.57574 -0.0284266 0
M  V30 9834 C 922.105 1.9095 0.649704 0
M  V30 9835 C 922.418 0.906421 1.7333 0
M  V30 9836 O 923.624 1.1314 2.46803 0
M  V30 9837 C 922.08 3.39061 1.20687 0
M  V30 9838 C 921.688 4.47726 0.156597 0
M  V30 9839 C 923.432 3.81505 1.86156 0
M  V30 9840 C 921.339 5.86935 0.725365 0
M  V30 9841 H 920.269 0.712589 0.24644 0
M  V30 9842 H 922.92 1.83261 -0.0936143 0
M  V30 9843 H 921.302 3.41679 2.00178 0
M  V30 9844 H 922.476 4.56667 -0.6158 0
M  V30 9845 H 920.791 4.14481 -0.399288 0
M  V30 9846 H 923.388 4.82865 2.29665 0
M  V30 9847 H 923.731 3.16529 2.70398 0
M  V30 9848 H 924.264 3.81307 1.13356 0
M  V30 9849 H 921.003 6.55453 -0.0789081 0
M  V30 9850 H 920.523 5.81602 1.46627 0
M  V30 9851 H 922.202 6.35483 1.21532 0
M  V30 9852 N 922.334 -0.244713 1.55689 0
M  V30 9853 C 923.58 -0.973886 1.77886 0
M  V30 9854 C 923.913 -1.8489 0.594071 0
M  V30 9855 O 923.188 -1.90182 -0.407564 0
M  V30 9856 C 923.471 -1.83255 3.09983 0
M  V30 9857 C 923.324 -0.985571 4.3887 0
M  V30 9858 C 924.643 -2.81464 3.38329 0
M  V30 9859 H 921.762 -0.352629 0.647165 0
M  V30 9860 H 924.404 -0.244243 1.88424 0
M  V30 9861 H 922.554 -2.45464 3.01131 0
M  V30 9862 H 924.226 -0.382005 4.59716 0
M  V30 9863 H 922.469 -0.29002 4.32829 0
M  V30 9864 H 923.14 -1.62022 5.27686 0
M  V30 9865 H 925.616 -2.2939 3.47159 0
M  V30 9866 H 924.492 -3.38663 4.31971 0
M  V30 9867 H 924.753 -3.58037 2.59349 0
M  V30 9868 N 923.813 -1.49104 -0.510467 0
M  V30 9869 C 925.043 -1.61571 -1.28757 0
M  V30 9870 C 925.451 -0.282638 -1.87077 0
M  V30 9871 O 924.794 0.740749 -1.68103 0
M  V30 9872 C 924.856 -2.61851 -2.46322 0
M  V30 9873 C 924.52 -4.06438 -2.08942 0
M  V30 9874 C 925.517 -4.93532 -1.63469 0
M  V30 9875 C 923.202 -4.52109 -2.18867 0
M  V30 9876 C 925.196 -6.24331 -1.28411 0
M  V30 9877 C 922.883 -5.82924 -1.83421 0
M  V30 9878 C 923.881 -6.68858 -1.38267 0
M  V30 9879 O 923.569 -7.97236 -1.03296 0
M  V30 9880 H 923.301 -0.547082 -0.397086 0
M  V30 9881 H 925.855 -1.95806 -0.620424 0
M  V30 9882 H 924.085 -2.22777 -3.16081 0
M  V30 9883 H 925.774 -2.63947 -3.08362 0
M  V30 9884 H 926.54 -4.59479 -1.55255 0
M  V30 9885 H 922.419 -3.85395 -2.52966 0
M  V30 9886 H 925.963 -6.9136 -0.930946 0
M  V30 9887 H 921.86 -6.16507 -1.91282 0
M  V30 9888 H 922.628 -8.10163 -1.16525 0
M  V30 9889 N 925.291 0.760815 -1.38019 0
M  V30 9890 C 926.537 1.52109 -1.35034 0
M  V30 9891 C 926.892 1.92302 0.0615509 0
M  V30 9892 O 926.185 1.62028 1.02261 0
M  V30 9893 C 926.379 2.79024 -2.23339 0
M  V30 9894 C 926.208 2.51238 -3.72974 0
M  V30 9895 C 924.978 2.44818 -4.42032 0
M  V30 9896 C 927.176 2.18499 -4.65578 0
M  V30 9897 N 925.158 2.09232 -5.77144 0
M  V30 9898 C 926.529 1.93143 -5.89148 0
M  V30 9899 C 928.584 2.04747 -4.53854 0
M  V30 9900 C 927.287 1.55423 -7.02308 0
M  V30 9901 C 929.313 1.68428 -5.66909 0
M  V30 9902 C 928.675 1.43939 -6.89537 0
M  V30 9903 H 924.774 0.556482 -0.54941 0
M  V30 9904 H 927.358 0.886614 -1.73341 0
M  V30 9905 H 925.529 3.40292 -1.87232 0
M  V30 9906 H 927.261 3.45016 -2.11533 0
M  V30 9907 H 924.016 2.61045 -3.95161 0
M  V30 9908 H 924.44 1.94104 -6.48577 0
M  V30 9909 H 929.082 2.22358 -3.59607 0
M  V30 9910 H 926.8 1.36551 -7.96479 0
M  V30 9911 H 930.386 1.5843 -5.59814 0
M  V30 9912 H 929.266 1.16253 -7.75535 0
M  V30 9913 N 926.769 1.22769 0.988202 0
M  V30 9914 C 928.015 1.05665 1.73097 0
M  V30 9915 C 928.348 -0.406615 1.89895 0
M  V30 9916 O 927.623 -1.30132 1.44554 0
M  V30 9917 C 927.906 1.77381 3.13382 0
M  V30 9918 C 927.759 3.31332 3.04203 0
M  V30 9919 C 929.078 1.52999 4.12649 0
M  V30 9920 H 926.197 0.385258 0.628288 0
M  V30 9921 H 928.839 1.51171 1.15097 0
M  V30 9922 H 926.989 1.38696 3.62899 0
M  V30 9923 H 928.661 3.79489 2.6227 0
M  V30 9924 H 926.904 3.60767 2.40894 0
M  V30 9925 H 927.575 3.76692 4.03493 0
M  V30 9926 H 930.051 1.86611 3.71908 0
M  V30 9927 H 928.927 2.05666 5.08913 0
M  V30 9928 H 929.188 0.463615 4.39662 0
M  V30 9929 N 928.247 -1.18576 1.03814 0
M  V30 9930 C 929.477 -1.92158 0.758864 0
M  V30 9931 C 929.885 -1.76267 -0.687498 0
M  V30 9932 O 929.228 -1.08806 -1.4801 0
M  V30 9933 C 929.29 -3.44063 1.04217 0
M  V30 9934 C 928.954 -3.8373 2.48193 0
M  V30 9935 C 929.951 -3.87722 3.46363 0
M  V30 9936 C 927.636 -4.151 2.82838 0
M  V30 9937 C 929.63 -4.2253 4.77229 0
M  V30 9938 C 927.317 -4.49578 4.13911 0
M  V30 9939 C 928.315 -4.53269 5.10917 0
M  V30 9940 O 928.003 -4.86945 6.39641 0
M  V30 9941 H 927.735 -0.61694 0.276335 0
M  V30 9942 H 930.289 -1.51388 1.38819 0
M  V30 9943 H 928.519 -3.85061 0.355709 0
M  V30 9944 H 930.208 -3.9889 0.751091 0
M  V30 9945 H 930.974 -3.63627 3.20936 0
M  V30 9946 H 926.853 -4.11406 2.08006 0
M  V30 9947 H 930.397 -4.25326 5.52941 0
M  V30 9948 H 926.294 -4.73133 4.39107 0
M  V30 9949 H 927.062 -5.04857 6.44253 0
M  V30 9950 N 929.725 -0.817259 -1.34754 0
M  V30 9951 C 930.675 -0.207585 -2.27053 0
M  V30 9952 C 931.659 0.624836 -1.48272 0
M  V30 9953 O 932.851 0.480344 -1.70358 0
M  V30 9954 C 929.98 0.634281 -3.3739 0
M  V30 9955 C 929.066 -0.208456 -4.23587 0
M  V30 9956 N 929.457 -1.2767 -4.89422 0
M  V30 9957 C 927.755 0.00815096 -4.45999 0
M  V30 9958 C 928.456 -1.79209 -5.53407 0
M  V30 9959 N 927.432 -1.09686 -5.32419 0
M  V30 9960 H 931.234 -1.0248 -2.75454 0
M  V30 9961 H 928.748 -0.659492 -1.48406 0
M  V30 9962 H 930.745 1.08718 -4.02475 0
M  V30 9963 H 929.405 1.44972 -2.90539 0
M  V30 9964 H 930.416 -1.65945 -4.90594 0
M  V30 9965 H 927.093 0.791879 -4.09921 0
M  V30 9966 H 928.483 -2.68548 -6.15899 0
M  V30 9967 N 931.203 1.46865 -0.571711 0
M  V30 9968 C 932.136 2.27176 0.215944 0
M  V30 9969 C 933.114 1.34951 0.907035 0
M  V30 9970 O 934.298 1.64349 0.923127 0
M  V30 9971 C 931.425 3.12388 1.30888 0
M  V30 9972 C 930.471 4.20296 0.724804 0
M  V30 9973 S 931.304 5.33691 -0.439839 0
M  V30 9974 C 932.46 6.22468 0.654564 0
M  V30 9975 H 932.693 2.93633 -0.465518 0
M  V30 9976 H 930.226 1.50184 -0.358351 0
M  V30 9977 H 932.184 3.62049 1.93471 0
M  V30 9978 H 930.845 2.45265 1.96224 0
M  V30 9979 H 930.038 4.79703 1.54599 0
M  V30 9980 H 929.64 3.73591 0.174861 0
M  V30 9981 H 931.932 6.59694 1.54304 0
M  V30 9982 H 932.875 7.08033 0.0975111 0
M  V30 9983 H 933.283 5.56384 0.953762 0
M  V30 9984 N 932.681 0.308908 1.54543 0
M  V30 9985 C 933.911 -0.299983 2.04411 0
M  V30 9986 C 934.319 -1.47463 1.18538 0
M  V30 9987 O 933.662 -1.82547 0.205463 0
M  V30 9988 C 933.724 -0.811579 3.50219 0
M  V30 9989 C 933.388 0.238834 4.56375 0
M  V30 9990 C 934.385 1.06997 5.08771 0
M  V30 9991 C 932.07 0.382808 5.00839 0
M  V30 9992 C 934.064 2.03096 6.04178 0
M  V30 9993 C 931.751 1.34723 5.96065 0
M  V30 9994 C 932.749 2.16978 6.47618 0
M  V30 9995 O 932.437 3.11783 7.40977 0
M  V30 9996 H 932.169 -0.0679682 0.672574 0
M  V30 9997 H 934.723 0.448815 2.00437 0
M  V30 9998 H 932.953 -1.61104 3.51543 0
M  V30 9999 H 934.642 -1.33721 3.83241 0
M  V30 10000 H 935.408 0.969654 4.75208 0
M  V30 10001 H 931.287 -0.247507 4.60335 0
M  V30 10002 H 934.831 2.67338 6.44342 0
M  V30 10003 H 930.728 1.44824 6.29044 0
M  V30 10004 H 931.496 3.06853 7.58804 0
M  V30 10005 O 934.198 -1.6054 0.175817 0
M  V30 10006 H 934.889 -1.89244 -0.4131 0
M  V30 END ATOM
M  V30 BEGIN BOND
M  V30 END BOND
M  V30 END CTAB
M  END
$$$$
