drugbank_target|Q13363 C-terminal-binding protein 1 (DB01942)
 OpenBabel12092120233D

  0  0  0     0  0            999 V3000
M  V30 BEGIN CTAB
M  V30 COUNTS 6686 6757 0 0 0
M  V30 BEGIN ATOM
M  V30 1 H -0.908 1.98254 -0.117106 0
M  V30 2 N 0 1.576 0 0
M  V30 3 C 0.933 2.03868 1.02534 0
M  V30 4 C 1.911 0.928543 1.3348 0
M  V30 5 O 3.095 1.19667 1.45644 0
M  V30 6 C 0.222 2.43627 2.35294 0
M  V30 7 C -0.732 3.65373 2.2001 0
M  V30 8 S 0.101 5.13292 1.52614 0
M  V30 9 C 1.257 5.56322 2.86805 0
M  V30 10 H 1.49 2.90518 0.631377 0
M  V30 11 H -0.977 1.52953 0.210867 0
M  V30 12 H 0.981 2.67203 3.11629 0
M  V30 13 H -0.358 1.57376 2.7183 0
M  V30 14 H -1.165 3.90944 3.18086 0
M  V30 15 H -1.563 3.418 1.51819 0
M  V30 16 H 0.729 5.58782 3.83104 0
M  V30 17 H 1.672 6.56266 2.65933 0
M  V30 18 H 2.08 4.83886 2.90714 0
M  V30 19 N 1.4781 -0.272755 1.55222 0
M  V30 20 C 2.7261 -1.00234 1.75492 0
M  V30 21 C 3.0471 -1.8681 0.5592 0
M  V30 22 O 2.3171 -1.91215 -0.425882 0
M  V30 23 H 0.8971 -0.373076 0.647166 0
M  V30 24 H 3.5591 -0.296926 1.92625 0
M  V30 25 H 2.6551 -1.63913 2.65592 0
M  V30 26 N 2.9562 -1.48159 -0.537278 0
M  V30 27 C 4.1812 -1.59707 -1.32319 0
M  V30 28 C 4.6062 -0.254859 -1.86365 0
M  V30 29 O 3.9642 0.772378 -1.64024 0
M  V30 30 C 4.0122 -2.6412 -2.45505 0
M  V30 31 O 3.1162 -2.20774 -3.48328 0
M  V30 32 H 2.4572 -0.535791 -0.392204 0
M  V30 33 H 4.9872 -1.94092 -0.647268 0
M  V30 34 H 4.9972 -2.85166 -2.91795 0
M  V30 35 H 3.6722 -3.61567 -2.05528 0
M  V30 36 H 2.2492 -2.09911 -3.08207 0
M  V30 37 N 4.4343 0.785586 -1.36625 0
M  V30 38 C 5.6593 1.57963 -1.34397 0
M  V30 39 C 6.0843 1.87964 0.071526 0
M  V30 40 O 5.4423 1.48182 1.0446 0
M  V30 41 C 5.4903 2.87511 -2.17646 0
M  V30 42 O 4.5943 3.81281 -1.57158 0
M  V30 43 H 3.9353 0.479014 -0.459828 0
M  V30 44 H 6.4653 0.973411 -1.79961 0
M  V30 45 H 6.4753 3.36745 -2.30362 0
M  V30 46 H 5.1503 2.65002 -3.20541 0
M  V30 47 H 3.7273 3.39885 -1.53403 0
M  V30 48 N 5.9124 1.20967 1.01018 0
M  V30 49 C 6.8624 0.93182 2.08089 0
M  V30 50 C 7.8464 -0.110898 1.60517 0
M  V30 51 O 9.0384 0.0973392 1.76732 0
M  V30 52 C 6.1674 0.492719 3.39746 0
M  V30 53 C 5.2534 1.56922 3.94 0
M  V30 54 N 5.6444 2.79312 4.21686 0
M  V30 55 C 3.9424 1.43688 4.2222 0
M  V30 56 C 4.6434 3.48797 4.65527 0
M  V30 57 N 3.6194 2.76224 4.68189 0
M  V30 58 H 7.4214 1.86175 2.27412 0
M  V30 59 H 4.9354 1.10463 1.19045 0
M  V30 60 H 6.9324 0.275044 4.15992 0
M  V30 61 H 5.5924 -0.430509 3.21833 0
M  V30 62 H 6.6034 3.15903 4.10397 0
M  V30 63 H 3.2804 0.578548 4.13472 0
M  V30 64 H 4.6704 4.53561 4.95714 0
M  V30 65 N 7.3905 -1.2043 1.01659 0
M  V30 66 C 8.3205 -2.25466 0.607226 0
M  V30 67 C 9.3015 -1.65853 -0.377716 0
M  V30 68 O 10.4865 -1.92409 -0.263149 0
M  V30 69 C 7.6165 -3.47256 -0.0552949 0
M  V30 70 C 6.5705 -4.19462 0.850632 0
M  V30 71 C 5.8965 -5.34673 0.0538859 0
M  V30 72 C 7.1965 -4.75603 2.15868 0
M  V30 73 H 8.8905 -2.59962 1.48526 0
M  V30 74 H 6.4365 -1.2496 0.715605 0
M  V30 75 H 8.3895 -4.19917 -0.353233 0
M  V30 76 H 7.1135 -3.11924 -0.968045 0
M  V30 77 H 5.7725 -3.48667 1.13257 0
M  V30 78 H 5.4205 -4.95585 -0.860514 0
M  V30 79 H 5.1205 -5.83913 0.657192 0
M  V30 80 H 6.6445 -6.10138 -0.237598 0
M  V30 81 H 8.0585 -5.40083 1.92311 0
M  V30 82 H 6.4555 -5.3528 2.71284 0
M  V30 83 H 7.5255 -3.94346 2.82169 0
M  V30 84 N 8.8686 -0.792821 -1.36206 0
M  V30 85 C 9.7986 -0.207853 -2.32573 0
M  V30 86 C 10.7796 0.659055 -1.56813 0
M  V30 87 O 11.9646 0.592176 -1.84951 0
M  V30 88 C 9.0946 0.655449 -3.41059 0
M  V30 89 C 8.0486 -0.111842 -4.27854 0
M  V30 90 C 7.3746 0.872274 -5.27537 0
M  V30 91 C 8.6746 -1.30299 -5.05786 0
M  V30 92 H 10.3686 -1.01294 -2.81744 0
M  V30 93 H 7.9146 -0.48854 -1.3546 0
M  V30 94 H 9.8676 1.07464 -4.07467 0
M  V30 95 H 8.5916 1.49328 -2.90463 0
M  V30 96 H 7.2506 -0.512053 -3.63006 0
M  V30 97 H 6.8986 1.70523 -4.73214 0
M  V30 98 H 6.5986 0.363291 -5.86476 0
M  V30 99 H 8.1226 1.28996 -5.96818 0
M  V30 100 H 9.5366 -0.959379 -5.65216 0
M  V30 101 H 7.9336 -1.7455 -5.74154 0
M  V30 102 H 9.0036 -2.09663 -4.37229 0
M  V30 103 N 10.3467 1.47872 -0.545128 0
M  V30 104 C 11.2947 2.31533 0.222512 0
M  V30 105 C 12.2887 1.42177 0.920985 0
M  V30 106 O 13.4947 1.59005 0.843645 0
M  V30 107 H 9.8697 0.746519 0.0906278 0
M  V30 108 H 11.8407 2.94139 -0.50246 0
M  V30 109 C 10.5897 3.2457 1.24699 0
M  V30 110 H 9.9127 3.93283 0.718944 0
M  V30 111 H 11.3527 3.85963 1.75523 0
M  V30 112 C 9.8117 2.47237 2.28856 0
M  V30 113 O 10.3417 2.20808 3.35569 0
M  V30 114 N 8.5477 2.08461 2.02466 0
M  V30 115 H 8.0947 2.30155 1.157 0
M  V30 116 H 8.0527 1.57033 2.72375 0
M  V30 117 N 11.8248 0.280983 1.55075 0
M  V30 118 C 12.7718 -0.603937 2.22758 0
M  V30 119 C 13.7418 -1.1452 1.20309 0
M  V30 120 O 14.9268 -1.19343 1.48869 0
M  V30 121 C 12.0668 -1.77947 2.95684 0
M  V30 122 C 11.1798 -1.2715 4.12864 0
M  V30 123 C 10.3148 -2.4093 4.7342 0
M  V30 124 C 9.3538 -1.87165 5.82783 0
M  V30 125 N 8.4908 -2.94441 6.37377 0
M  V30 126 H 13.3308 -0.020124 2.97993 0
M  V30 127 H 10.8678 0.00183425 1.471 0
M  V30 128 H 12.8258 -2.47055 3.36184 0
M  V30 129 H 11.4558 -2.33522 2.22861 0
M  V30 130 H 10.5078 -0.473331 3.77444 0
M  V30 131 H 11.8198 -0.837751 4.91715 0
M  V30 132 H 10.9738 -3.18021 5.1667 0
M  V30 133 H 9.7128 -2.87623 3.93859 0
M  V30 134 H 8.7178 -1.08556 5.38976 0
M  V30 135 H 9.9428 -1.41401 6.64216 0
M  V30 136 H 7.8888 -3.40505 5.60707 0
M  V30 137 H 7.8058 -2.55501 7.11516 0
M  V30 138 H 9.0738 -3.71489 6.85285 0
M  V30 139 N 13.3029 -1.57598 0.00835791 0
M  V30 140 C 14.5509 -1.90551 -0.6734 0
M  V30 141 C 14.8719 -0.883301 -1.73847 0
M  V30 142 O 14.1419 0.0781442 -1.95744 0
M  V30 143 H 12.7219 -0.703312 -0.251717 0
M  V30 144 H 15.3839 -1.94833 0.0512592 0
M  V30 145 H 14.4799 -2.9056 -1.13935 0
M  V30 146 N 14.781 0.264519 -1.55364 0
M  V30 147 C 15.711 1.33121 -1.91836 0
M  V30 148 C 16.692 1.51101 -0.781192 0
M  V30 149 O 17.877 1.64003 -1.04003 0
M  V30 150 C 15.007 2.68921 -2.19769 0
M  V30 151 C 13.961 2.65661 -3.35571 0
M  V30 152 C 13.287 4.05093 -3.49004 0
M  V30 153 C 14.587 2.24187 -4.71739 0
M  V30 154 H 16.281 1.02844 -2.81182 0
M  V30 155 H 13.827 0.493286 -1.35287 0
M  V30 156 H 15.78 3.43663 -2.43872 0
M  V30 157 H 14.504 3.00799 -1.27231 0
M  V30 158 H 13.163 1.93377 -3.1145 0
M  V30 159 H 12.811 4.34206 -2.53917 0
M  V30 160 H 12.511 4.03804 -4.26868 0
M  V30 161 H 14.035 4.81561 -3.75408 0
M  V30 162 H 15.449 2.88654 -4.9533 0
M  V30 163 H 13.846 2.34044 -5.52579 0
M  V30 164 H 14.916 1.19327 -4.69988 0
M  V30 165 N 16.2591 1.48442 0.529413 0
M  V30 166 C 17.6701 1.5002 1.11134 0
M  V30 167 C 18.0211 0.27031 1.94329 0
M  V30 168 O 17.1461 -0.622507 2.07253 0
M  V30 169 C 17.7411 2.71834 2.02217 0
M  V30 170 C 16.3001 2.76283 2.55627 0
M  V30 171 C 15.4471 2.43542 1.326 0
M  V30 172 H 18.3981 1.5555 0.314641 0
M  V30 173 H 18.4191 2.50384 2.8651 0
M  V30 174 H 17.9311 3.61331 1.41639 0
M  V30 175 H 16.0321 1.90995 3.19924 0
M  V30 176 H 16.1451 3.77725 2.94721 0
M  V30 177 H 14.5091 1.94709 1.64196 0
M  V30 178 H 15.2921 3.3528 0.737734 0
M  V30 179 N 17.7372 -0.778329 1.37039 0
M  V30 180 C 18.6672 -1.90546 1.34962 0
M  V30 181 C 19.6482 -1.68681 0.219274 0
M  V30 182 O 20.8332 -1.89634 0.418624 0
M  V30 183 C 17.9632 -3.27734 1.14925 0
M  V30 184 C 16.9172 -3.64147 2.24902 0
M  V30 185 C 16.2432 -4.99806 1.89996 0
M  V30 186 C 17.5432 -3.71579 3.67051 0
M  V30 187 H 19.2372 -1.92541 2.29277 0
M  V30 188 H 16.7832 -0.924948 1.10366 0
M  V30 189 H 18.7362 -4.06215 1.12104 0
M  V30 190 H 17.4602 -3.26154 0.170631 0
M  V30 191 H 16.1192 -2.8797 2.26868 0
M  V30 192 H 15.7672 -4.94759 0.906796 0
M  V30 193 H 15.4672 -5.25139 2.63634 0
M  V30 194 H 16.9912 -5.80694 1.88749 0
M  V30 195 H 18.4052 -4.40227 3.67251 0
M  V30 196 H 16.8022 -4.08405 4.39688 0
M  V30 197 H 17.8722 -2.72404 4.01154 0
M  V30 198 N 19.2153 -1.21501 -1.00376 0
M  V30 199 C 20.4633 -1.03095 -1.73827 0
M  V30 200 C 20.7843 0.436341 -1.90055 0
M  V30 201 O 20.0543 1.31466 -1.45236 0
M  V30 202 H 18.6343 -0.378487 -0.644016 0
M  V30 203 H 21.2963 -1.52831 -1.20949 0
M  V30 204 H 20.3923 -1.49991 -2.73695 0
M  V30 205 N 20.6934 1.19889 -1.02296 0
M  V30 206 C 21.9394 1.89701 -0.717033 0
M  V30 207 C 22.2724 1.7905 0.751989 0
M  V30 208 O 21.5474 1.17891 1.547 0
M  V30 209 C 21.8304 3.40858 -1.16136 0
M  V30 210 C 21.6834 3.60411 -2.69117 0
M  V30 211 C 23.0024 4.33876 -0.737549 0
M  V30 212 H 20.1214 0.688874 -0.261957 0
M  V30 213 H 22.7634 1.41154 -1.27183 0
M  V30 214 H 20.9134 3.82335 -0.689342 0
M  V30 215 H 22.5854 3.28145 -3.2422 0
M  V30 216 H 20.8284 3.03665 -3.0979 0
M  V30 217 H 21.4994 4.66396 -2.95261 0
M  V30 218 H 23.9754 4.00081 -1.14344 0
M  V30 219 H 22.8514 5.38242 -1.0764 0
M  V30 220 H 23.1124 4.40628 0.360436 0
M  V30 221 N 22.1715 0.800033 1.35784 0
M  V30 222 C 23.5875 0.482977 1.52117 0
M  V30 223 C 23.7875 -0.996948 1.75109 0
M  V30 224 O 22.8435 -1.78216 1.78872 0
M  V30 225 C 24.1565 1.32264 2.70049 0
M  V30 226 C 25.7045 1.31742 2.83924 0
M  V30 227 C 26.1795 2.14106 4.04874 0
M  V30 228 N 27.6705 2.11607 4.12039 0
M  V30 229 C 28.4055 2.72099 5.04727 0
M  V30 230 N 27.9015 3.41492 6.02789 0
M  V30 231 N 29.6945 2.61776 4.97423 0
M  V30 232 H 21.8455 1.75856 1.19115 0
M  V30 233 H 24.1085 0.748122 0.582252 0
M  V30 234 H 23.8145 2.37261 2.59616 0
M  V30 235 H 23.6885 0.971303 3.6448 0
M  V30 236 H 26.0755 0.275333 2.93813 0
M  V30 237 H 26.1565 1.70859 1.9037 0
M  V30 238 H 25.8005 3.18351 3.95746 0
M  V30 239 H 25.7305 1.72353 4.97596 0
M  V30 240 H 28.2215 1.61112 3.41835 0
M  V30 241 H 28.5345 3.84953 6.70098 0
M  V30 242 H 26.8795 3.45596 6.02983 0
M  V30 243 H 30.0705 2.07157 4.19766 0
M  V30 244 H 30.2435 3.0921 5.69468 0
M  V30 245 N 23.6496 -1.47581 0.552962 0
M  V30 246 C 25.0606 -1.86324 0.118463 0
M  V30 247 C 25.4116 -1.46006 -1.3106 0
M  V30 248 O 24.5366 -0.861182 -1.98526 0
M  V30 249 C 25.1316 -3.3816 0.20821 0
M  V30 250 C 23.6906 -3.7601 -0.171226 0
M  V30 251 C 22.8376 -2.71634 0.557686 0
M  V30 252 H 25.7886 -1.39159 0.762928 0
M  V30 253 H 25.8096 -3.76141 -0.574278 0
M  V30 254 H 25.3216 -3.67473 1.24841 0
M  V30 255 H 23.4226 -3.52313 -1.21269 0
M  V30 256 H 23.5356 -4.78745 0.184379 0
M  V30 257 H 21.8996 -2.547 0.00125792 0
M  V30 258 H 22.6826 -3.0379 1.59896 0
M  V30 259 N 25.1277 -0.289203 -1.54924 0
M  V30 260 C 26.5387 0.205791 -1.85562 0
M  V30 261 C 26.8897 1.54351 -1.2112 0
M  V30 262 O 26.0147 2.10435 -0.504601 0
M  V30 263 C 26.6097 0.380177 -3.3666 0
M  V30 264 C 25.1687 0.819395 -3.67373 0
M  V30 265 C 24.3157 -0.079159 -2.77187 0
M  V30 266 H 27.2667 -0.510577 -1.50262 0
M  V30 267 H 27.2877 1.21659 -3.60526 0
M  V30 268 H 26.7997 -0.593589 -3.83534 0
M  V30 269 H 24.9007 1.80413 -3.26009 0
M  V30 270 H 25.0137 0.646957 -4.74712 0
M  V30 271 H 23.3777 0.439565 -2.50878 0
M  V30 272 H 24.1607 -1.04906 -3.26878 0
M  V30 273 N 26.6058 1.57591 -0.0167156 0
M  V30 274 C 27.8548 1.90461 0.663877 0
M  V30 275 C 28.1678 0.893515 1.73999 0
M  V30 276 O 29.3738 1.11302 2.47637 0
M  V30 277 C 27.8298 3.38155 1.23204 0
M  V30 278 C 27.4378 4.47597 0.189866 0
M  V30 279 C 29.1818 3.80111 1.88986 0
M  V30 280 C 27.0888 5.86379 0.768964 0
M  V30 281 H 26.0188 0.710738 0.251729 0
M  V30 282 H 28.6698 1.83326 -0.0799926 0
M  V30 283 H 27.0518 3.40182 2.02712 0
M  V30 284 H 28.2258 4.57112 -0.581846 0
M  V30 285 H 26.5408 4.14766 -0.368475 0
M  V30 286 H 29.1378 4.81145 2.33247 0
M  V30 287 H 29.4808 3.14511 2.72743 0
M  V30 288 H 30.0138 3.80454 1.16187 0
M  V30 289 H 26.7528 6.55493 -0.0301957 0
M  V30 290 H 26.2728 5.80496 1.50945 0
M  V30 291 H 27.9518 6.34563 1.26251 0
M  V30 292 N 28.0839 -0.256276 1.55502 0
M  V30 293 C 29.0169 -1.34321 1.84481 0
M  V30 294 C 29.9949 -1.46802 0.699131 0
M  V30 295 O 31.1789 -1.63165 0.943904 0
M  V30 296 C 28.3059 -2.71779 2.02123 0
M  V30 297 C 27.3519 -2.76496 3.24734 0
M  V30 298 S 28.1849 -2.3405 4.81644 0
M  V30 299 C 29.3409 -3.73452 5.02279 0
M  V30 300 H 29.5739 -1.09539 2.76385 0
M  V30 301 H 27.1069 -0.45678 1.47489 0
M  V30 302 H 29.0649 -3.50932 2.12972 0
M  V30 303 H 27.7259 -2.93803 1.11078 0
M  V30 304 H 26.9189 -3.77424 3.34016 0
M  V30 305 H 26.5209 -2.05379 3.12563 0
M  V30 306 H 28.8129 -4.6887 4.89047 0
M  V30 307 H 29.7559 -3.6911 6.04287 0
M  V30 308 H 30.1639 -3.6553 4.30172 0
M  V30 309 N 29.562 -1.4872 -0.521534 0
M  V30 310 C 30.51 -1.64328 -1.64618 0
M  V30 311 C 31.504 -0.50953 -1.61555 0
M  V30 312 O 32.71 -0.688525 -1.66311 0
M  V30 313 H 29.085 -0.517805 -0.545328 0
M  V30 314 H 31.056 -2.58767 -1.48601 0
M  V30 315 C 29.805 -1.70805 -3.02855 0
M  V30 316 H 29.128 -2.5741 -3.05909 0
M  V30 317 H 30.568 -1.85766 -3.81139 0
M  V30 318 C 29.027 -0.448479 -3.33902 0
M  V30 319 O 29.557 0.434928 -3.99339 0
M  V30 320 N 27.763 -0.317616 -2.88859 0
M  V30 321 H 27.31 -1.03748 -2.35784 0
M  V30 322 H 27.268 0.524113 -3.10001 0
M  V30 323 N 31.0401 0.771051 -1.3745 0
M  V30 324 C 32.2881 1.52661 -1.32435 0
M  V30 325 C 32.6091 1.9479 0.0905024 0
M  V30 326 O 31.8791 1.66348 1.03466 0
M  V30 327 H 30.4591 0.566218 -0.487244 0
M  V30 328 H 33.1211 0.917636 -1.71946 0
M  V30 329 H 32.2171 2.42568 -1.96385 0
M  V30 330 N 32.5182 1.22032 0.997298 0
M  V30 331 C 33.9292 1.0397 1.55071 0
M  V30 332 C 34.2802 -0.398192 1.92117 0
M  V30 333 O 33.4052 -1.28254 1.74298 0
M  V30 334 C 34.0002 1.88109 2.81781 0
M  V30 335 C 32.5592 1.74357 3.33581 0
M  V30 336 C 31.7062 1.84846 2.06706 0
M  V30 337 H 34.6572 1.35941 0.818883 0
M  V30 338 H 34.6782 1.39589 3.53971 0
M  V30 339 H 34.1902 2.92754 2.54787 0
M  V30 340 H 32.2912 0.72427 3.65493 0
M  V30 341 H 32.4042 2.56772 4.04481 0
M  V30 342 H 30.7682 1.28238 2.20062 0
M  V30 343 H 31.5512 2.91014 1.82114 0
M  V30 344 N 33.9963 -1.19345 1.0293 0
M  V30 345 C 34.9263 -2.2481 0.631105 0
M  V30 346 C 35.9073 -1.66245 -0.360104 0
M  V30 347 O 37.0923 -1.92677 -0.242726 0
M  V30 348 C 34.2223 -3.47295 -0.0184607 0
M  V30 349 C 33.1763 -4.18536 0.895073 0
M  V30 350 C 32.5023 -5.34586 0.110592 0
M  V30 351 C 33.8023 -4.73287 2.209 0
M  V30 352 H 35.4963 -2.58372 1.51275 0
M  V30 353 H 33.0423 -1.24194 0.728818 0
M  V30 354 H 34.9953 -4.20268 -0.308675 0
M  V30 355 H 33.7193 -3.12933 -0.934907 0
M  V30 356 H 32.3783 -3.47446 1.16949 0
M  V30 357 H 32.0263 -4.96469 -0.807902 0
M  V30 358 H 31.7263 -5.83183 0.719087 0
M  V30 359 H 33.2503 -6.10355 -0.172871 0
M  V30 360 H 34.6643 -5.38013 1.98028 0
M  V30 361 H 33.0613 -5.32373 2.76946 0
M  V30 362 H 34.1313 -3.91331 2.86336 0
M  V30 363 N 35.4744 -0.807222 -1.35358 0
M  V30 364 C 36.4244 -0.190706 -2.27201 0
M  V30 365 C 37.4084 0.635838 -1.47804 0
M  V30 366 O 38.6004 0.492991 -1.69996 0
M  V30 367 C 35.7294 0.659337 -3.36909 0
M  V30 368 C 34.8154 -0.176971 -4.23731 0
M  V30 369 N 35.2064 -1.24029 -4.90357 0
M  V30 370 C 33.5044 0.0412953 -4.45981 0
M  V30 371 C 34.2054 -1.75092 -5.54723 0
M  V30 372 N 33.1814 -1.05727 -5.33219 0
M  V30 373 H 36.9834 -1.0043 -2.76208 0
M  V30 374 H 34.4974 -0.648445 -1.48892 0
M  V30 375 H 36.4944 1.11706 -4.01656 0
M  V30 376 H 35.1544 1.47127 -2.89454 0
M  V30 377 H 36.1654 -1.62295 -4.91814 0
M  V30 378 H 32.8424 0.82232 -4.09322 0
M  V30 379 H 34.2324 -2.63963 -6.17878 0
M  V30 380 N 36.9525 1.47285 -0.560781 0
M  V30 381 C 38.3635 1.86258 -0.128343 0
M  V30 382 C 38.7145 1.46699 1.30284 0
M  V30 383 O 37.8395 0.871698 1.98067 0
M  V30 384 C 38.4345 3.38044 -0.22614 0
M  V30 385 C 36.9935 3.76096 0.151283 0
M  V30 386 C 36.1405 2.71335 -0.572084 0
M  V30 387 H 39.0915 1.38752 -0.770297 0
M  V30 388 H 39.1125 3.76441 0.554322 0
M  V30 389 H 38.6245 3.66806 -1.26788 0
M  V30 390 H 36.7255 3.52951 1.19399 0
M  V30 391 H 36.8385 4.78641 -0.209765 0
M  V30 392 H 35.2025 2.54696 -0.0147653 0
M  V30 393 H 35.9855 3.02938 -1.61504 0
M  V30 394 N 38.4306 0.297415 1.54768 0
M  V30 395 C 39.8466 -0.0560823 1.59501 0
M  V30 396 C 40.0466 -1.52725 1.31444 0
M  V30 397 O 39.1026 -2.27947 1.08611 0
M  V30 398 C 40.4156 0.338631 2.98787 0
M  V30 399 C 41.9636 0.287097 3.11681 0
M  V30 400 C 42.4386 0.656579 4.53269 0
M  V30 401 N 43.9296 0.608977 4.59179 0
M  V30 402 C 44.6646 0.867385 5.66802 0
M  V30 403 N 44.1606 1.19157 6.82476 0
M  V30 404 N 45.9536 0.794687 5.56454 0
M  V30 405 H 38.1046 1.25624 1.71267 0
M  V30 406 H 40.3676 0.509057 0.799728 0
M  V30 407 H 40.0736 1.36263 3.2423 0
M  V30 408 H 39.9476 -0.309508 3.75928 0
M  V30 409 H 42.3346 -0.727649 2.85988 0
M  V30 410 H 42.4156 0.969809 2.36703 0
M  V30 411 H 42.0596 1.66912 4.7969 0
M  V30 412 H 41.9896 -0.0481649 5.26578 0
M  V30 413 H 44.4806 0.369198 3.76092 0
M  V30 414 H 44.7936 1.37482 7.60473 0
M  V30 415 H 43.1386 1.22958 6.84037 0
M  V30 416 H 46.3296 0.541098 4.64962 0
M  V30 417 H 46.5026 0.999445 6.40246 0
M  V30 418 N 39.9087 -1.5758 0.0250728 0
M  V30 419 C 41.3197 -1.79476 -0.514323 0
M  V30 420 C 41.6707 -0.934956 -1.72491 0
M  V30 421 O 40.7957 -0.144245 -2.15919 0
M  V30 422 C 41.3907 -3.25503 -0.939842 0
M  V30 423 C 39.9497 -3.48408 -1.42438 0
M  V30 424 C 39.0967 -2.74583 -0.387201 0
M  V30 425 H 42.0477 -1.567 0.25113 0
M  V30 426 H 42.0687 -3.34992 -1.80445 0
M  V30 427 H 41.5807 -3.88056 -0.0585628 0
M  V30 428 H 39.6817 -2.91103 -2.32572 0
M  V30 429 H 39.7947 -4.57119 -1.43455 0
M  V30 430 H 38.1587 -2.39942 -0.854409 0
M  V30 431 H 38.9417 -3.39849 0.485543 0
M  V30 432 N 41.3868 0.248026 -1.55636 0
M  V30 433 C 42.3168 1.31079 -1.93237 0
M  V30 434 C 43.2978 1.50264 -0.797174 0
M  V30 435 O 44.4828 1.62891 -1.05737 0
M  V30 436 C 41.6128 2.66575 -2.22609 0
M  V30 437 C 40.5668 2.62087 -3.3837 0
M  V30 438 C 39.8928 4.01369 -3.53281 0
M  V30 439 C 41.1928 2.19171 -4.7409 0
M  V30 440 H 42.8868 0.998556 -2.82257 0
M  V30 441 H 40.4328 0.47891 -1.35803 0
M  V30 442 H 42.3858 3.41057 -2.47503 0
M  V30 443 H 41.1098 2.99432 -1.30414 0
M  V30 444 H 39.7688 1.90063 -3.13483 0
M  V30 445 H 39.4168 4.31489 -2.58508 0
M  V30 446 H 39.1168 3.99254 -4.31127 0
M  V30 447 H 40.6408 4.77552 -3.80495 0
M  V30 448 H 42.0548 2.83384 -4.98363 0
M  V30 449 H 40.4518 2.2817 -5.5503 0
M  V30 450 H 41.5218 1.14336 -4.71227 0
M  V30 451 N 42.8649 1.48995 0.513639 0
M  V30 452 C 44.1109 1.58076 1.27042 0
M  V30 453 C 44.4439 0.261026 1.92438 0
M  V30 454 O 43.7189 -0.734393 1.80103 0
M  V30 455 C 44.0019 2.73091 2.34719 0
M  V30 456 C 43.8549 4.14821 1.73907 0
M  V30 457 C 45.1739 2.83796 3.36375 0
M  V30 458 H 42.2929 0.575391 0.460536 0
M  V30 459 H 44.9349 1.81232 0.570516 0
M  V30 460 H 43.0849 2.53479 2.94416 0
M  V30 461 H 44.7569 4.45917 1.18135 0
M  V30 462 H 42.9999 4.21058 1.0437 0
M  V30 463 H 43.6709 4.91147 2.51949 0
M  V30 464 H 46.1469 3.01611 2.86653 0
M  V30 465 H 45.0229 3.65971 4.09093 0
M  V30 466 H 45.2839 1.92624 3.9793 0
M  V30 467 N 44.343 -0.763751 1.37857 0
M  V30 468 C 45.306 -1.85889 1.34081 0
M  V30 469 C 46.306 -1.58949 0.243277 0
M  V30 470 O 47.496 -1.66882 0.499589 0
M  V30 471 C 44.628 -3.23176 1.08489 0
M  V30 472 H 45.821 -1.90648 2.31502 0
M  V30 473 H 43.374 -0.964367 1.23003 0
M  V30 474 H 44.109 -3.24091 0.116318 0
M  V30 475 H 43.894 -3.44124 1.8794 0
M  V30 476 H 45.384 -4.03254 1.08517 0
M  V30 477 N 45.8211 -1.22559 -0.990812 0
M  V30 478 C 46.7511 -1.0218 -2.09956 0
M  V30 479 C 47.7321 0.0579394 -1.70001 0
M  V30 480 O 48.9171 -0.104684 -1.93918 0
M  V30 481 C 46.0471 -0.601023 -3.4206 0
M  V30 482 C 45.0011 -1.62694 -3.95872 0
M  V30 483 C 44.3271 -1.06193 -5.24049 0
M  V30 484 C 45.6271 -3.01743 -4.2632 0
M  V30 485 H 47.3211 -1.94916 -2.27262 0
M  V30 486 H 44.8671 -0.938566 -1.09211 0
M  V30 487 H 46.8201 -0.445561 -4.19038 0
M  V30 488 H 45.5441 0.362005 -3.24588 0
M  V30 489 H 44.2031 -1.77021 -3.21028 0
M  V30 490 H 43.8511 -0.0901903 -5.02919 0
M  V30 491 H 43.5511 -1.74732 -5.61019 0
M  V30 492 H 45.0751 -0.918092 -6.03658 0
M  V30 493 H 46.4891 -2.90777 -4.94087 0
M  V30 494 H 44.8861 -3.67425 -4.74467 0
M  V30 495 H 45.9561 -3.51518 -3.34011 0
M  V30 496 N 47.2992 1.18797 -1.03562 0
M  V30 497 C 48.2292 2.24472 -0.643019 0
M  V30 498 C 49.2102 1.66433 0.351283 0
M  V30 499 O 50.3952 1.92803 0.232505 0
M  V30 500 C 47.5252 3.473 4.24935e-05 0
M  V30 501 C 46.4792 4.18055 -0.917257 0
M  V30 502 C 45.8052 5.34519 -0.138941 0
M  V30 503 C 47.1052 4.72109 -2.23407 0
M  V30 504 H 48.7992 2.57566 -1.52643 0
M  V30 505 H 46.3452 1.23806 -0.735394 0
M  V30 506 H 48.2982 4.20426 0.286383 0
M  V30 507 H 47.0222 3.13424 0.918299 0
M  V30 508 H 45.6812 3.46821 -1.1879 0
M  V30 509 H 45.3292 4.96891 0.781562 0
M  V30 510 H 45.0292 5.82794 -0.750005 0
M  V30 511 H 46.5532 6.10438 0.1405 0
M  V30 512 H 47.9672 5.36955 -2.00879 0
M  V30 513 H 46.3642 5.30897 -2.79765 0
M  V30 514 H 47.4342 3.89807 -2.88407 0
M  V30 515 N 48.7773 0.814389 1.34928 0
M  V30 516 C 50.0543 0.321363 1.92942 0
M  V30 517 C 50.4343 -1.19014 1.74353 0
M  V30 518 O 49.7823 -1.99328 1.11716 0
M  V30 519 C 49.9923 0.741323 3.41036 0
M  V30 520 C 51.3403 0.735266 4.18185 0
M  V30 521 O 52.3643 0.68336 3.49584 0
M  V30 522 O 51.2233 0.800703 5.40602 0
M  V30 523 H 48.3173 0.0858893 0.822528 0
M  V30 524 H 50.8633 0.898609 1.43955 0
M  V30 525 H 49.6353 1.78276 3.4833 0
M  V30 526 H 49.2583 0.139307 3.97356 0
M  V30 527 N 50.2554 -1.46986 0.568584 0
M  V30 528 C 51.5034 -2.02041 0.0487022 0
M  V30 529 C 51.8244 -1.44408 -1.31039 0
M  V30 530 O 51.0944 -0.623477 -1.85714 0
M  V30 531 H 49.6744 -0.746849 0.015014 0
M  V30 532 H 52.3364 -1.80257 0.741168 0
M  V30 533 H 51.4324 -3.12085 -0.0308961 0
M  V30 534 N 51.7335 -0.305618 -1.54608 0
M  V30 535 C 53.1495 0.0476228 -1.59529 0
M  V30 536 C 53.3495 1.52025 -1.32252 0
M  V30 537 O 52.4055 2.27368 -1.09818 0
M  V30 538 C 53.7185 -0.354471 -2.98603 0
M  V30 539 C 55.2665 -0.303622 -3.11524 0
M  V30 540 C 55.7415 -0.680608 -4.52915 0
M  V30 541 N 57.2325 -0.63332 -4.5885 0
M  V30 542 C 57.9675 -0.897432 -5.66334 0
M  V30 543 N 57.4635 -1.22775 -6.81834 0
M  V30 544 N 59.2565 -0.824186 -5.56025 0
M  V30 545 H 51.4075 -1.2653 -1.70599 0
M  V30 546 H 53.6705 -0.513291 -0.797017 0
M  V30 547 H 53.3765 -1.3798 -3.23503 0
M  V30 548 H 53.2505 0.289568 -3.76087 0
M  V30 549 H 55.6375 0.712472 -2.8637 0
M  V30 550 H 55.7185 -0.982348 -2.36185 0
M  V30 551 H 55.3625 -1.69453 -4.78799 0
M  V30 552 H 55.2925 0.0202385 -5.26596 0
M  V30 553 H 57.7835 -0.389138 -3.75891 0
M  V30 554 H 58.0965 -1.41513 -7.59733 0
M  V30 555 H 56.4415 -1.26583 -6.83375 0
M  V30 556 H 59.6325 -0.565748 -4.64669 0
M  V30 557 H 59.8055 -1.03338 -6.39707 0
M  V30 558 N 53.2116 1.57565 -0.0334293 0
M  V30 559 C 54.4886 1.83282 0.683163 0
M  V30 560 C 54.8686 0.91823 1.90084 0
M  V30 561 O 54.2166 -0.025113 2.28486 0
M  V30 562 C 54.4266 3.32599 1.0573 0
M  V30 563 C 55.7746 3.99179 1.44711 0
M  V30 564 O 56.7986 3.3712 1.15015 0
M  V30 565 O 55.6576 5.08565 2.0006 0
M  V30 566 H 52.7516 0.755869 0.335546 0
M  V30 567 H 55.2976 1.69589 -0.0614402 0
M  V30 568 H 54.0696 3.90834 0.190828 0
M  V30 569 H 53.6926 3.51415 1.85993 0
M  V30 570 N 54.6897 -0.239769 1.55765 0
M  V30 571 C 55.9297 -0.974076 1.79697 0
M  V30 572 C 56.2937 -1.82249 0.604088 0
M  V30 573 O 57.4947 -2.58913 0.722324 0
M  V30 574 C 55.7657 -1.80595 3.08416 0
M  V30 575 S 57.3247 -2.59838 3.53596 0
M  V30 576 H 54.1427 -0.327524 0.63107 0
M  V30 577 H 56.7447 -0.241277 1.94005 0
M  V30 578 H 55.4487 -1.17249 3.93295 0
M  V30 579 H 54.9797 -2.58137 2.96865 0
M  V30 580 H 56.9947 -3.82987 3.15492 0
M  V30 581 N 56.1678 -1.49265 -0.50573 0
M  V30 582 C 57.3958 -1.62215 -1.28429 0
M  V30 583 C 57.8108 -0.291697 -1.86533 0
M  V30 584 O 57.1678 0.722233 -1.67601 0
M  V30 585 C 57.2188 -2.68735 -2.41793 0
M  V30 586 O 56.9398 -3.96619 -1.86078 0
M  V30 587 C 58.4408 -2.92346 -3.3324 0
M  V30 588 H 55.6608 -0.546239 -0.389697 0
M  V30 589 H 58.2048 -1.95265 -0.607609 0
M  V30 590 H 56.3598 -2.38476 -3.053 0
M  V30 591 H 56.7738 -4.55256 -2.60465 0
M  V30 592 H 58.2478 -3.70623 -4.09075 0
M  V30 593 H 58.7248 -2.02081 -3.89948 0
M  V30 594 H 59.3308 -3.24003 -2.75503 0
M  V30 595 N 57.6459 0.756429 -1.3826 0
M  V30 596 C 58.8919 1.51772 -1.34511 0
M  V30 597 C 59.2249 1.94089 0.0656691 0
M  V30 598 O 58.4999 1.65221 1.02626 0
M  V30 599 C 58.7829 2.77226 -2.29821 0
M  V30 600 C 58.6359 2.41065 -3.79747 0
M  V30 601 C 59.9549 3.79236 -2.23312 0
M  V30 602 H 57.0739 0.550578 -0.489931 0
M  V30 603 H 59.7159 0.866607 -1.69086 0
M  V30 604 H 57.8659 3.32784 -2.00467 0
M  V30 605 H 59.5379 1.91303 -4.19763 0
M  V30 606 H 57.7809 1.7356 -3.97567 0
M  V30 607 H 58.4519 3.3081 -4.41892 0
M  V30 608 H 60.9279 3.3321 -2.49219 0
M  V30 609 H 59.8039 4.64714 -2.92116 0
M  V30 610 H 60.0649 4.24615 -1.23102 0
M  V30 611 N 59.124 1.23083 0.984299 0
M  V30 612 C 60.034 1.02515 2.11016 0
M  V30 613 C 61.05 -0.0291702 1.73976 0
M  V30 614 O 62.226 0.165434 2.00719 0
M  V30 615 C 59.291 0.614673 3.41208 0
M  V30 616 C 58.352 1.74359 3.92297 0
M  V30 617 C 57.585 1.35261 5.16275 0
M  V30 618 O 57.808 0.235136 5.69915 0
M  V30 619 O 56.742 2.17227 5.61334 0
M  V30 620 H 60.568 1.96862 2.31255 0
M  V30 621 H 58.153 1.01753 1.09392 0
M  V30 622 H 60.035 0.396518 4.1953 0
M  V30 623 H 58.71 -0.299851 3.22308 0
M  V30 624 H 57.617 2.01635 3.1511 0
M  V30 625 H 58.95 2.63629 4.15645 0
M  V30 626 N 60.6021 -1.18246 1.0419 0
M  V30 627 C 61.5351 -2.20746 0.578474 0
M  V30 628 C 62.5131 -1.57912 -0.387624 0
M  V30 629 O 63.6971 -1.86071 -0.301634 0
M  V30 630 C 60.8241 -3.38346 -0.154762 0
M  V30 631 C 59.8701 -4.19587 0.764782 0
M  V30 632 S 60.7031 -4.86014 2.24835 0
M  V30 633 C 61.8591 -6.07012 1.526 0
M  V30 634 H 62.0921 -2.59715 1.44691 0
M  V30 635 H 59.6251 -1.287 0.85297 0
M  V30 636 H 61.5831 -4.065 -0.571641 0
M  V30 637 H 60.2441 -2.97786 -0.999105 0
M  V30 638 H 59.4371 -5.03611 0.197976 0
M  V30 639 H 59.0391 -3.56818 1.12057 0
M  V30 640 H 61.3311 -6.72523 0.819733 0
M  V30 641 H 62.2741 -6.68202 2.34333 0
M  V30 642 H 62.6821 -5.55249 1.01779 0
M  V30 643 N 62.0802 -0.821533 -1.34494 0
M  V30 644 C 63.4912 -0.467956 -1.8074 0
M  V30 645 C 63.8422 1.01151 -1.68116 0
M  V30 646 O 62.9672 1.78707 -1.22036 0
M  V30 647 C 63.5622 -0.842627 -3.28154 0
M  V30 648 C 62.1212 -0.541439 -3.72485 0
M  V30 649 C 61.2682 -1.06028 -2.56229 0
M  V30 650 H 64.2192 -1.01183 -1.22261 0
M  V30 651 H 64.2402 -0.145876 -3.8022 0
M  V30 652 H 63.7522 -1.91945 -3.37311 0
M  V30 653 H 61.8532 0.526034 -3.68868 0
M  V30 654 H 61.9662 -1.08453 -4.66663 0
M  V30 655 H 60.3302 -0.481892 -2.501 0
M  V30 656 H 61.1132 -2.14352 -2.68157 0
M  V30 657 N 63.5583 1.46682 -0.576371 0
M  V30 658 C 64.8073 2.01619 -0.0572825 0
M  V30 659 C 65.1203 1.45417 1.30818 0
M  V30 660 O 66.3263 1.92133 1.91825 0
M  V30 661 C 64.7823 3.59863 -0.0518371 0
M  V30 662 C 64.3903 4.25059 -1.41523 0
M  V30 663 C 66.1343 4.2248 0.413639 0
M  V30 664 C 64.0413 5.75364 -1.36785 0
M  V30 665 H 62.9713 0.753794 -0.0176448 0
M  V30 666 H 65.6223 1.68481 -0.727076 0
M  V30 667 H 64.0043 3.90048 0.683994 0
M  V30 668 H 65.1783 4.06491 -2.17029 0
M  V30 669 H 63.4933 3.7451 -1.8202 0
M  V30 670 H 66.0903 5.3265 0.467779 0
M  V30 671 H 66.4333 3.90976 1.42982 0
M  V30 672 H 66.9663 3.96897 -0.267929 0
M  V30 673 H 63.7053 6.11518 -2.36063 0
M  V30 674 H 63.2253 5.96214 -0.654895 0
M  V30 675 H 64.9043 6.37955 -1.07805 0
M  V30 676 N 65.0364 0.313813 1.54444 0
M  V30 677 C 65.9664 -0.549454 2.26943 0
M  V30 678 C 66.9474 -1.12741 1.27372 0
M  V30 679 O 68.1324 -1.15436 1.56167 0
M  V30 680 C 65.2624 -1.71523 3.01989 0
M  V30 681 C 64.2164 -1.26703 4.08816 0
M  V30 682 C 63.5424 -2.51898 4.71647 0
M  V30 683 C 64.8424 -0.388962 5.2085 0
M  V30 684 H 66.5364 0.0552661 2.99349 0
M  V30 685 H 64.0824 0.0280207 1.43973 0
M  V30 686 H 66.0354 -2.32535 3.51433 0
M  V30 687 H 64.7594 -2.34639 2.27183 0
M  V30 688 H 63.4184 -0.679896 3.6024 0
M  V30 689 H 63.0664 -3.13356 3.93468 0
M  V30 690 H 62.7664 -2.22605 5.43802 0
M  V30 691 H 64.2904 -3.1369 5.23861 0
M  V30 692 H 65.7044 -0.905107 5.6611 0
M  V30 693 H 64.1014 -0.18924 5.99802 0
M  V30 694 H 65.1714 0.582699 4.81386 0
M  V30 695 N 66.5145 -1.57545 0.0417849 0
M  V30 696 C 67.4615 -2.10977 -0.935805 0
M  V30 697 C 68.4315 -1.01486 -1.31491 0
M  V30 698 O 69.6165 -1.2898 -1.40602 0
M  V30 699 C 66.7565 -2.65169 -2.2086 0
M  V30 700 C 65.8695 -3.88714 -1.88482 0
M  V30 701 C 65.0045 -4.31254 -3.1015 0
M  V30 702 C 64.0435 -5.47524 -2.7365 0
M  V30 703 N 63.1805 -5.85162 -3.87982 0
M  V30 704 H 68.0205 -2.94218 -0.473249 0
M  V30 705 H 65.5575 -1.45415 -0.221981 0
M  V30 706 H 67.5155 -2.94685 -2.95325 0
M  V30 707 H 66.1455 -1.8474 -2.64709 0
M  V30 708 H 65.1975 -3.65849 -1.04205 0
M  V30 709 H 66.5095 -4.73245 -1.57608 0
M  V30 710 H 65.6635 -4.62273 -3.92923 0
M  V30 711 H 64.4025 -3.45516 -3.44195 0
M  V30 712 H 63.4075 -5.16187 -1.89291 0
M  V30 713 H 64.6325 -6.34971 -2.40807 0
M  V30 714 H 62.5785 -5.02377 -4.21846 0
M  V30 715 H 62.4955 -6.64362 -3.60775 0
M  V30 716 H 63.7635 -6.20791 -4.71422 0
M  V30 717 N 67.9926 0.231505 -1.5589 0
M  V30 718 C 69.2696 0.981096 -1.69215 0
M  V30 719 C 69.6496 2.02799 -0.586164 0
M  V30 720 O 68.9976 2.24823 0.408253 0
M  V30 721 C 69.2076 1.60054 -3.10135 0
M  V30 722 C 70.5556 2.09658 -3.69227 0
M  V30 723 O 71.5796 1.69967 -3.13033 0
M  V30 724 O 70.4386 2.8258 -4.67772 0
M  V30 725 H 67.5326 0.457653 -0.688827 0
M  V30 726 H 70.0786 0.224073 -1.68214 0
M  V30 727 H 68.8506 0.844105 -3.82087 0
M  V30 728 H 68.4736 2.42336 -3.15212 0
M  V30 729 N 69.4707 1.49531 0.497807 0
M  V30 730 C 70.7167 1.59415 1.25358 0
M  V30 731 C 71.0497 0.281422 1.9215 0
M  V30 732 O 70.3247 -0.715249 1.80871 0
M  V30 733 C 70.6077 2.75566 2.3181 0
M  V30 734 C 70.4607 4.16642 1.69498 0
M  V30 735 C 71.7797 2.87347 3.33346 0
M  V30 736 H 68.8987 0.580244 0.454408 0
M  V30 737 H 71.5407 1.81827 0.551262 0
M  V30 738 H 69.6907 2.56587 2.91711 0
M  V30 739 H 71.3627 4.47145 1.13399 0
M  V30 740 H 69.6057 4.22141 0.998978 0
M  V30 741 H 70.2767 4.93792 2.46725 0
M  V30 742 H 72.7527 3.04634 2.83438 0
M  V30 743 H 71.6287 3.70289 4.05188 0
M  V30 744 H 71.8897 1.96834 3.95865 0
M  V30 745 N 70.9488 -0.749086 1.3866 0
M  V30 746 C 71.9118 -1.84457 1.36045 0
M  V30 747 C 72.9118 -1.58682 0.260122 0
M  V30 748 O 74.1018 -1.66343 0.517261 0
M  V30 749 C 71.2338 -3.22008 1.11911 0
M  V30 750 H 72.4268 -1.88182 2.33512 0
M  V30 751 H 69.9798 -0.951266 1.24019 0
M  V30 752 H 70.7148 -3.2395 0.150686 0
M  V30 753 H 70.4998 -3.42111 1.91579 0
M  V30 754 H 71.9898 -4.0208 1.12788 0
M  V30 755 N 72.4269 -1.23603 -0.977757 0
M  V30 756 C 73.6549 -1.09646 -1.75458 0
M  V30 757 C 74.0699 0.351859 -1.85492 0
M  V30 758 O 73.4269 1.24327 -1.336 0
M  V30 759 C 73.4779 -1.71895 -3.18016 0
M  V30 760 O 73.1989 -3.11063 -3.08498 0
M  V30 761 C 74.6999 -1.63415 -4.12081 0
M  V30 762 H 71.9199 -0.38359 -0.550545 0
M  V30 763 H 74.4639 -1.63507 -1.22824 0
M  V30 764 H 72.6189 -1.22061 -3.67668 0
M  V30 765 H 73.0329 -3.41305 -3.9826 0
M  V30 766 H 74.5069 -2.11669 -5.09804 0
M  V30 767 H 74.9839 -0.593462 -4.35172 0
M  V30 768 H 75.5899 -2.12628 -3.68334 0
M  V30 769 N 73.905 1.17692 -1.04816 0
M  V30 770 C 75.151 1.88137 -0.75711 0
M  V30 771 C 75.484 1.80604 0.713841 0
M  V30 772 O 74.759 1.21146 1.52164 0
M  V30 773 C 75.042 3.38318 -1.2334 0
M  V30 774 C 74.895 3.54622 -2.76701 0
M  V30 775 C 76.214 4.32214 -0.829415 0
M  V30 776 H 73.333 0.683163 -0.27651 0
M  V30 777 H 75.975 1.38424 -1.30149 0
M  V30 778 H 74.125 3.80787 -0.770286 0
M  V30 779 H 75.797 3.21194 -3.31107 0
M  V30 780 H 74.04 2.97026 -3.16161 0
M  V30 781 H 74.711 4.60028 -3.05088 0
M  V30 782 H 77.187 3.97565 -1.22805 0
M  V30 783 H 76.063 5.35838 -1.19033 0
M  V30 784 H 76.324 4.41294 0.266891 0
M  V30 785 N 75.3831 0.828654 1.34056 0
M  V30 786 C 76.3461 0.259927 2.27721 0
M  V30 787 C 77.3461 -0.565478 1.50529 0
M  V30 788 O 78.5361 -0.38075 1.69988 0
M  V30 789 C 75.6681 -0.634944 3.34935 0
M  V30 790 H 76.8611 1.0863 2.79534 0
M  V30 791 H 74.4141 0.600951 1.44285 0
M  V30 792 H 75.1491 -1.48416 2.88346 0
M  V30 793 H 74.9341 -0.0444999 3.92075 0
M  V30 794 H 76.4241 -1.02648 4.04788 0
M  V30 795 N 76.8612 -1.46375 0.584142 0
M  V30 796 C 78.1082 -2.02378 0.0702675 0
M  V30 797 C 78.4362 -1.45545 -1.29023 0
M  V30 798 O 77.6912 -0.610967 -1.85918 0
M  V30 799 C 77.9902 -3.57373 -0.0439342 0
M  V30 800 C 77.6562 -4.33252 1.24915 0
M  V30 801 C 76.3182 -4.53701 1.60341 0
M  V30 802 C 78.6702 -4.7681 2.1048 0
M  V30 803 C 75.9982 -5.1496 2.81128 0
M  V30 804 C 78.3502 -5.39404 3.30494 0
M  V30 805 C 77.0142 -5.5808 3.66201 0
M  V30 806 H 76.2842 -0.740554 0.0257127 0
M  V30 807 H 78.9312 -1.75727 0.761065 0
M  V30 808 H 77.2362 -3.83169 -0.817869 0
M  V30 809 H 78.9332 -3.98384 -0.457318 0
M  V30 810 H 75.5232 -4.17633 0.963364 0
M  V30 811 H 79.7072 -4.60766 1.84414 0
M  V30 812 H 74.9632 -5.27611 3.08928 0
M  V30 813 H 79.1372 -5.72114 3.97063 0
M  V30 814 H 76.7642 -6.05318 4.59885 0
M  V30 815 N 78.3393 -0.321999 -1.54275 0
M  V30 816 C 79.5793 0.281657 -2.0245 0
M  V30 817 C 79.9433 1.49468 -1.20513 0
M  V30 818 O 81.1443 2.17109 -1.58484 0
M  V30 819 C 79.4153 0.609014 -3.52173 0
M  V30 820 S 80.9743 1.19255 -4.22284 0
M  V30 821 H 77.7923 0.0852825 -0.705867 0
M  V30 822 H 80.3943 -0.454758 -1.90137 0
M  V30 823 H 79.0983 -0.281982 -4.0943 0
M  V30 824 H 78.6293 1.37567 -3.68563 0
M  V30 825 H 80.6443 2.47944 -4.29812 0
M  V30 826 N 79.8174 1.5752 -0.0501392 0
M  V30 827 C 81.0944 1.83996 0.663685 0
M  V30 828 C 81.4744 0.938339 1.89099 0
M  V30 829 O 80.8224 -0.00087759 2.285 0
M  V30 830 C 81.0324 3.33702 1.02196 0
M  V30 831 C 82.3804 4.00691 1.40469 0
M  V30 832 O 83.4044 3.38321 1.11433 0
M  V30 833 O 82.2634 5.10658 1.94654 0
M  V30 834 H 79.3574 0.759385 0.32751 0
M  V30 835 H 81.9034 1.69514 -0.0794238 0
M  V30 836 H 80.6754 3.91015 0.149364 0
M  V30 837 H 80.2984 3.53368 1.82255 0
M  V30 838 N 81.2955 -0.223234 1.56011 0
M  V30 839 C 82.2585 -1.26014 1.9145 0
M  V30 840 C 83.2585 -1.3989 0.792937 0
M  V30 841 O 84.4485 -1.38184 1.0607 0
M  V30 842 C 81.5805 -2.63422 2.16383 0
M  V30 843 H 82.7735 -0.95796 2.84189 0
M  V30 844 H 80.3265 -0.463576 1.49267 0
M  V30 845 H 81.0615 -2.98741 1.2619 0
M  V30 846 H 80.8465 -2.54728 2.98088 0
M  V30 847 H 82.3365 -3.38249 2.44903 0
M  V30 848 N 82.7736 -1.49793 -0.48987 0
M  V30 849 C 83.7056 -1.63413 -1.60713 0
M  V30 850 C 84.7186 -0.516329 -1.54395 0
M  V30 851 O 85.9076 -0.788812 -1.60125 0
M  V30 852 C 83.0076 -1.58516 -2.99543 0
M  V30 853 C 82.1806 -2.86016 -3.30928 0
M  V30 854 C 81.2396 -2.74018 -4.49222 0
M  V30 855 O 80.2656 -3.47964 -4.50455 0
M  V30 856 N 81.4676 -1.86309 -5.4979 0
M  V30 857 H 84.2326 -2.59777 -1.49452 0
M  V30 858 H 81.7936 -1.47022 -0.677955 0
M  V30 859 H 83.7856 -1.48128 -3.76617 0
M  V30 860 H 82.3556 -0.69965 -3.0467 0
M  V30 861 H 81.5756 -3.10672 -2.42645 0
M  V30 862 H 82.8636 -3.70521 -3.487 0
M  V30 863 H 82.2616 -1.2551 -5.51601 0
M  V30 864 H 80.8186 -1.81837 -6.25922 0
M  V30 865 N 84.2517 0.741722 -1.39055 0
M  V30 866 C 85.4767 1.53607 -1.39354 0
M  V30 867 C 85.9017 1.88096 0.0116905 0
M  V30 868 O 85.2597 1.5143 0.996924 0
M  V30 869 C 85.3077 2.80441 -2.26682 0
M  V30 870 O 84.4117 3.76088 -1.69208 0
M  V30 871 H 83.7527 0.464142 -0.474835 0
M  V30 872 H 86.2827 0.915665 -1.82967 0
M  V30 873 H 86.2927 3.29246 -2.40959 0
M  V30 874 H 84.9677 2.5467 -3.2881 0
M  V30 875 H 83.5447 3.34833 -1.64138 0
M  V30 876 N 85.7298 1.2412 0.971189 0
M  V30 877 C 86.9578 1.10575 1.74874 0
M  V30 878 C 87.3728 -0.342017 1.85676 0
M  V30 879 O 86.7298 -1.23617 1.34258 0
M  V30 880 C 86.7808 1.73579 3.171 0
M  V30 881 O 86.5018 3.12695 3.06844 0
M  V30 882 C 88.0028 1.65598 4.11208 0
M  V30 883 H 85.2228 0.386504 0.548503 0
M  V30 884 H 87.7668 1.64156 1.21955 0
M  V30 885 H 85.9218 1.24009 3.67016 0
M  V30 886 H 86.3358 3.43412 3.96445 0
M  V30 887 H 87.8098 2.1437 5.08674 0
M  V30 888 H 88.2868 0.616532 4.34851 0
M  V30 889 H 88.8928 2.14578 3.67201 0
M  V30 890 N 87.2079 -1.17134 1.05439 0
M  V30 891 C 88.1399 -2.2078 0.615539 0
M  V30 892 C 89.1529 -1.59584 -0.322001 0
M  V30 893 O 90.3419 -1.78133 -0.114344 0
M  V30 894 C 87.4419 -3.38691 -0.118938 0
M  V30 895 C 86.6149 -4.29454 0.829924 0
M  V30 896 C 85.6739 -5.26024 0.136258 0
M  V30 897 O 84.6999 -5.63952 0.77115 0
M  V30 898 N 85.9019 -5.69487 -1.1254 0
M  V30 899 H 88.6669 -2.59052 1.50705 0
M  V30 900 H 86.2279 -1.32058 0.936603 0
M  V30 901 H 88.2199 -4.00329 -0.593179 0
M  V30 902 H 86.7899 -2.98996 -0.91215 0
M  V30 903 H 86.0099 -3.65211 1.48373 0
M  V30 904 H 87.2979 -4.86984 1.47392 0
M  V30 905 H 86.6959 -5.4075 -1.6615 0
M  V30 906 H 85.2529 -6.33257 -1.54366 0
M  V30 907 N 88.686 -0.835752 -1.33615 0
M  V30 908 C 89.596 -0.269088 -2.33052 0
M  V30 909 C 90.612 0.603251 -1.63208 0
M  V30 910 O 91.788 0.508112 -1.94885 0
M  V30 911 C 88.853 0.549091 -3.42324 0
M  V30 912 C 87.914 -0.347156 -4.27894 0
M  V30 913 C 87.147 0.43207 -5.31948 0
M  V30 914 O 87.37 1.66409 -5.45586 0
M  V30 915 O 86.304 -0.192298 -6.01593 0
M  V30 916 H 90.13 -1.09243 -2.83372 0
M  V30 917 H 87.715 -0.598198 -1.36901 0
M  V30 918 H 89.597 1.01414 -4.09015 0
M  V30 919 H 88.272 1.34955 -2.94226 0
M  V30 920 H 87.179 -0.859979 -3.64081 0
M  V30 921 H 88.512 -1.1123 -4.79467 0
M  V30 922 N 90.1641 1.46063 -0.591896 0
M  V30 923 C 91.4131 2.01547 -0.0786637 0
M  V30 924 C 91.7261 1.46796 1.29268 0
M  V30 925 O 92.9321 1.94157 1.89777 0
M  V30 926 C 91.3881 3.59787 -0.0900024 0
M  V30 927 C 90.9961 4.23534 -1.46023 0
M  V30 928 C 92.7401 4.22895 0.368806 0
M  V30 929 C 90.6471 5.73881 -1.4288 0
M  V30 930 H 89.5771 0.753564 -0.0256388 0
M  V30 931 H 92.2281 1.677 -0.744905 0
M  V30 932 H 90.6101 3.90752 0.642586 0
M  V30 933 H 91.7841 4.04167 -2.21328 0
M  V30 934 H 90.0991 3.72558 -1.85982 0
M  V30 935 H 92.6961 5.33116 0.411258 0
M  V30 936 H 93.0391 3.9247 1.38827 0
M  V30 937 H 93.5721 3.9659 -0.31001 0
M  V30 938 H 90.3111 6.0898 -2.42536 0
M  V30 939 H 89.8311 5.95486 -0.718095 0
M  V30 940 H 91.5101 6.36776 -1.14565 0
M  V30 941 N 91.6422 0.330177 1.54103 0
M  V30 942 C 92.5922 -0.548456 2.21305 0
M  V30 943 C 93.5762 -1.07651 1.19583 0
M  V30 944 O 94.7682 -1.01243 1.45186 0
M  V30 945 C 91.8972 -1.70559 2.97934 0
M  V30 946 C 90.9832 -1.19212 4.07 0
M  V30 947 N 91.3742 -0.398831 5.04225 0
M  V30 948 C 89.6722 -1.47024 4.2107 0
M  V30 949 C 90.3732 -0.121761 5.81573 0
M  V30 950 N 89.3492 -0.709722 5.38947 0
M  V30 951 H 93.1512 0.0648483 2.93828 0
M  V30 952 H 90.6652 0.136363 1.61826 0
M  V30 953 H 92.6622 -2.34688 3.44568 0
M  V30 954 H 91.3222 -2.32231 2.26934 0
M  V30 955 H 92.3332 -0.0410869 5.17884 0
M  V30 956 H 89.0102 -2.09232 3.61287 0
M  V30 957 H 90.4002 0.517298 6.69906 0
M  V30 958 N 93.1203 -1.57491 0.0584922 0
M  V30 959 C 94.0303 -2.15448 -0.928414 0
M  V30 960 C 95.0463 -1.11416 -1.3365 0
M  V30 961 O 96.2223 -1.4362 -1.41193 0
M  V30 962 C 93.2873 -2.69393 -2.18239 0
M  V30 963 C 92.3483 -3.88249 -1.83196 0
M  V30 964 C 91.5813 -4.39613 -3.02616 0
M  V30 965 O 91.8043 -3.90023 -4.16219 0
M  V30 966 O 90.7383 -5.31111 -2.83204 0
M  V30 967 H 94.5643 -3.00112 -0.465483 0
M  V30 968 H 92.1493 -1.48499 -0.163826 0
M  V30 969 H 94.0313 -3.04026 -2.91798 0
M  V30 970 H 92.7063 -1.87796 -2.63656 0
M  V30 971 H 91.6133 -3.58492 -1.06931 0
M  V30 972 H 92.9463 -4.71098 -1.42573 0
M  V30 973 N 94.5984 0.214957 -1.56127 0
M  V30 974 C 95.5454 1.26642 -1.92952 0
M  V30 975 C 96.5154 1.46244 -0.78753 0
M  V30 976 O 97.7004 1.59704 -1.04399 0
M  V30 977 C 94.8404 2.6104 -2.25726 0
M  V30 978 C 93.9534 2.49183 -3.52891 0
M  V30 979 C 93.0884 3.76149 -3.7508 0
M  V30 980 C 92.1274 3.59041 -4.95738 0
M  V30 981 N 91.2644 4.77972 -5.14283 0
M  V30 982 H 96.1044 0.945384 -2.82607 0
M  V30 983 H 93.6414 0.455489 -1.3987 0
M  V30 984 H 95.5994 3.39313 -2.42739 0
M  V30 985 H 94.2294 2.91227 -1.39236 0
M  V30 986 H 93.2814 1.6231 -3.44034 0
M  V30 987 H 94.5934 2.32466 -4.41318 0
M  V30 988 H 93.7474 4.62865 -3.92226 0
M  V30 989 H 92.4864 3.95799 -2.84947 0
M  V30 990 H 91.4914 2.7071 -4.78535 0
M  V30 991 H 92.7164 3.40856 -5.87362 0
M  V30 992 H 90.6624 4.97923 -4.27093 0
M  V30 993 H 90.5794 4.64006 -5.96853 0
M  V30 994 H 91.8474 5.66096 -5.35869 0
M  V30 995 N 96.0765 1.50051 0.48192 0
M  V30 996 C 97.3225 1.60736 1.2366 0
M  V30 997 C 97.6555 0.301786 1.91841 0
M  V30 998 O 96.9305 -0.696025 1.8162 0
M  V30 999 C 97.2135 2.78009 2.28874 0
M  V30 1000 C 97.0665 4.18416 1.65069 0
M  V30 1001 C 98.3855 2.90867 3.30279 0
M  V30 1002 H 95.5045 0.585031 0.448228 0
M  V30 1003 H 98.1465 1.82402 0.531946 0
M  V30 1004 H 96.2965 2.59667 2.88973 0
M  V30 1005 H 97.9685 4.48322 1.0865 0
M  V30 1006 H 96.2115 4.23177 0.954148 0
M  V30 1007 H 96.8825 4.96381 2.41474 0
M  V30 1008 H 99.3585 3.07623 2.80191 0
M  V30 1009 H 98.2345 3.74566 4.01238 0
M  V30 1010 H 98.4955 2.01021 3.93755 0
M  V30 1011 N 97.5546 -0.734337 1.39446 0
M  V30 1012 C 98.4846 -1.86155 1.40955 0
M  V30 1013 C 99.4656 -1.67898 0.272827 0
M  V30 1014 O 100.651 -1.88207 0.478743 0
M  V30 1015 C 97.7806 -3.23912 1.25294 0
M  V30 1016 C 96.7346 -3.56808 2.36373 0
M  V30 1017 C 96.0606 -4.93508 2.058 0
M  V30 1018 C 97.3606 -3.59713 3.78687 0
M  V30 1019 H 99.0546 -1.8515 2.35287 0
M  V30 1020 H 96.6006 -0.889367 1.13253 0
M  V30 1021 H 98.5536 -4.02443 1.2497 0
M  V30 1022 H 97.2776 -3.25446 0.274308 0
M  V30 1023 H 95.9366 -2.80606 2.35914 0
M  V30 1024 H 95.5846 -4.91623 1.06374 0
M  V30 1025 H 95.2846 -5.16486 2.80208 0
M  V30 1026 H 96.8086 -5.74396 2.07128 0
M  V30 1027 H 98.2226 -4.2832 3.81071 0
M  V30 1028 H 96.6196 -3.94209 4.52459 0
M  V30 1029 H 97.6896 -2.59504 4.09617 0
M  V30 1030 N 99.0327 -1.24633 -0.964593 0
M  V30 1031 C 99.9807 -1.03917 -2.08096 0
M  V30 1032 C 100.975 0.0268581 -1.69379 0
M  V30 1033 O 102.181 -0.127952 -1.79545 0
M  V30 1034 H 98.5557 -0.319044 -0.680966 0
M  V30 1035 H 100.527 -1.98581 -2.22729 0
M  V30 1036 C 99.2757 -0.663983 -3.41301 0
M  V30 1037 H 98.5987 -1.47605 -3.71555 0
M  V30 1038 H 100.039 -0.558663 -4.20303 0
M  V30 1039 C 98.4977 0.629169 -3.30973 0
M  V30 1040 O 99.0277 1.67404 -3.65156 0
M  V30 1041 N 97.2337 0.611057 -2.84103 0
M  V30 1042 H 96.7807 -0.239593 -2.56483 0
M  V30 1043 H 96.7387 1.47647 -2.77575 0
M  V30 1044 N 100.511 1.16574 -1.06058 0
M  V30 1045 C 101.421 2.2452 -0.680282 0
M  V30 1046 C 102.437 1.71348 0.302604 0
M  V30 1047 O 103.613 2.00822 0.152513 0
M  V30 1048 C 100.678 3.46629 -0.0700315 0
M  V30 1049 C 99.7388 4.14849 -1.10448 0
M  V30 1050 C 98.9718 5.31129 -0.523256 0
M  V30 1051 O 99.1948 5.66514 0.664709 0
M  V30 1052 O 98.1288 5.88526 -1.26179 0
M  V30 1053 H 101.955 2.59355 -1.58015 0
M  V30 1054 H 99.5398 1.24043 -0.832694 0
M  V30 1055 H 101.422 4.20543 0.268667 0
M  V30 1056 H 100.097 3.13573 0.803353 0
M  V30 1057 H 99.0038 3.42916 -1.49532 0
M  V30 1058 H 100.337 4.51954 -1.94931 0
M  V30 1059 N 101.989 0.842826 1.3317 0
M  V30 1060 C 102.952 0.284065 2.27433 0
M  V30 1061 C 103.952 -0.54948 1.5112 0
M  V30 1062 O 105.142 -0.362699 1.70382 0
M  V30 1063 C 102.274 -0.599384 3.35589 0
M  V30 1064 H 103.467 1.11589 2.78366 0
M  V30 1065 H 101.02 0.616221 1.4364 0
M  V30 1066 H 101.755 -1.45349 2.89904 0
M  V30 1067 H 101.54 -0.00291266 3.921 0
M  V30 1068 H 103.03 -0.983488 4.05854 0
M  V30 1069 N 103.467 -1.45747 0.599634 0
M  V30 1070 C 104.713 -2.02592 0.0918643 0
M  V30 1071 C 105.046 -1.46806 -1.27128 0
M  V30 1072 O 104.321 -0.639658 -1.83681 0
M  V30 1073 C 104.604 -3.60073 0.0443398 0
M  V30 1074 C 104.457 -4.26208 1.43759 0
M  V30 1075 C 105.776 -4.35309 -0.647608 0
M  V30 1076 H 102.895 -0.736175 0.034857 0
M  V30 1077 H 105.537 -1.73694 0.770081 0
M  V30 1078 H 103.687 -3.84823 -0.533224 0
M  V30 1079 H 105.359 -4.12668 2.06162 0
M  V30 1080 H 103.602 -3.84916 2.00056 0
M  V30 1081 H 104.273 -5.35069 1.35665 0
M  V30 1082 H 106.749 -4.15805 -0.156776 0
M  V30 1083 H 105.625 -5.45038 -0.649942 0
M  V30 1084 H 105.886 -4.07598 -1.71219 0
M  V30 1085 N 104.945 -0.338344 -1.53925 0
M  V30 1086 C 106.193 0.259245 -2.0043 0
M  V30 1087 C 106.514 1.51484 -1.22791 0
M  V30 1088 O 105.784 1.93037 -0.33368 0
M  V30 1089 H 104.364 0.0987845 -0.740439 0
M  V30 1090 H 107.026 -0.458302 -1.89435 0
M  V30 1091 H 106.122 0.505334 -3.07982 0
M  V30 1092 N 106.423 1.57458 -0.0668435 0
M  V30 1093 C 107.386 2.11323 0.887422 0
M  V30 1094 C 108.386 1.03618 1.22964 0
M  V30 1095 O 109.576 1.29626 1.16373 0
M  V30 1096 C 106.708 2.61048 2.19242 0
M  V30 1097 H 107.901 2.96942 0.420194 0
M  V30 1098 H 105.454 1.55239 0.181793 0
M  V30 1099 H 106.189 1.78868 2.70512 0
M  V30 1100 H 105.974 3.39769 1.95702 0
M  V30 1101 H 107.464 3.02814 2.87565 0
M  V30 1102 N 107.901 -0.206675 1.56239 0
M  V30 1103 C 108.831 -1.25909 1.96645 0
M  V30 1104 C 109.812 -1.48097 0.836734 0
M  V30 1105 O 110.997 -1.6003 1.10019 0
M  V30 1106 C 108.127 -2.6058 2.29599 0
M  V30 1107 C 107.081 -2.53024 3.452 0
M  V30 1108 C 106.407 -3.91861 3.63798 0
M  V30 1109 C 107.707 -2.06524 4.79734 0
M  V30 1110 H 109.401 -0.923369 2.84806 0
M  V30 1111 H 106.947 -0.442735 1.37025 0
M  V30 1112 H 108.9 -3.34375 2.56459 0
M  V30 1113 H 107.624 -2.95869 1.38307 0
M  V30 1114 H 106.283 -1.81684 3.18412 0
M  V30 1115 H 105.931 -4.24483 2.69857 0
M  V30 1116 H 105.631 -3.87683 4.4156 0
M  V30 1117 H 107.155 -4.67296 3.93022 0
M  V30 1118 H 108.569 -2.70072 5.05702 0
M  V30 1119 H 106.966 -2.13374 5.60885 0
M  V30 1120 H 108.036 -1.01802 4.74093 0
M  V30 1121 N 109.379 -1.50304 -0.473955 0
M  V30 1122 C 110.312 -1.63595 -1.59097 0
M  V30 1123 C 111.29 -0.484142 -1.55225 0
M  V30 1124 O 112.474 -0.703271 -1.7489 0
M  V30 1125 C 109.601 -1.61589 -2.97669 0
M  V30 1126 C 108.647 -2.82295 -3.19705 0
M  V30 1127 S 109.48 -4.43635 -2.99913 0
M  V30 1128 C 110.636 -4.44317 -4.40832 0
M  V30 1129 H 110.869 -2.58082 -1.47583 0
M  V30 1130 H 108.402 -1.39531 -0.661087 0
M  V30 1131 H 110.36 -1.61116 -3.7756 0
M  V30 1132 H 109.021 -0.683421 -3.06575 0
M  V30 1133 H 108.214 -2.77188 -4.20931 0
M  V30 1134 H 107.816 -2.8032 -2.47582 0
M  V30 1135 H 110.108 -4.17703 -5.33414 0
M  V30 1136 H 111.051 -5.45911 -4.50984 0
M  V30 1137 H 111.459 -3.74059 -4.22777 0
M  V30 1138 N 110.857 0.726932 -1.39834 0
M  V30 1139 C 112.087 1.51393 -1.40583 0
M  V30 1140 C 112.495 1.892 -0.000740625 0
M  V30 1141 O 111.838 1.55189 0.982951 0
M  V30 1142 C 111.9 2.82588 -2.22226 0
M  V30 1143 C 111.564 2.67169 -3.70769 0
M  V30 1144 C 112.561 2.3518 -4.63666 0
M  V30 1145 C 110.246 2.83788 -4.14451 0
M  V30 1146 C 112.24 2.20002 -5.98229 0
M  V30 1147 C 109.927 2.68229 -5.49087 0
M  V30 1148 C 110.925 2.36382 -6.4079 0
M  V30 1149 O 110.613 2.2093 -7.72946 0
M  V30 1150 H 110.345 0.474168 -0.48181 0
M  V30 1151 H 112.899 0.905247 -1.84376 0
M  V30 1152 H 111.129 3.45746 -1.73195 0
M  V30 1153 H 112.818 3.44247 -2.15055 0
M  V30 1154 H 113.584 2.21984 -4.31217 0
M  V30 1155 H 109.463 3.07566 -3.43401 0
M  V30 1156 H 113.007 1.95067 -6.69772 0
M  V30 1157 H 108.904 2.81006 -5.81125 0
M  V30 1158 H 109.672 2.35937 -7.83757 0
M  V30 1159 N 112.336 1.25143 0.95797 0
M  V30 1160 C 113.286 1.01924 2.0395 0
M  V30 1161 C 114.27 -0.0427175 1.60843 0
M  V30 1162 O 115.462 0.17221 1.7616 0
M  V30 1163 C 112.591 0.636373 3.3735 0
M  V30 1164 C 111.677 1.73492 3.8699 0
M  V30 1165 N 112.068 2.96945 4.0946 0
M  V30 1166 C 110.366 1.61467 4.15746 0
M  V30 1167 C 111.067 3.68228 4.50315 0
M  V30 1168 N 110.043 2.95833 4.56053 0
M  V30 1169 H 113.845 1.95653 2.19311 0
M  V30 1170 H 111.359 1.15413 1.14253 0
M  V30 1171 H 113.356 0.451233 4.14451 0
M  V30 1172 H 112.016 -0.293621 3.2337 0
M  V30 1173 H 113.027 3.33025 3.96629 0
M  V30 1174 H 109.704 0.753394 4.10646 0
M  V30 1175 H 111.094 4.74178 4.76031 0
M  V30 1176 N 113.814 -1.1601 1.06675 0
M  V30 1177 C 115.042 -1.90527 0.806667 0
M  V30 1178 C 115.457 -1.77643 -0.639396 0
M  V30 1179 O 114.814 -1.12369 -1.43803 0
M  V30 1180 C 114.865 -3.41106 1.19705 0
M  V30 1181 O 114.586 -3.53608 2.58636 0
M  V30 1182 C 116.087 -4.32663 0.965266 0
M  V30 1183 H 113.307 -0.604053 0.292166 0
M  V30 1184 H 115.851 -1.47026 1.4214 0
M  V30 1185 H 114.006 -3.82296 0.626774 0
M  V30 1186 H 114.42 -4.47011 2.74375 0
M  V30 1187 H 115.894 -5.36763 1.288 0
M  V30 1188 H 116.371 -4.39089 -0.0987936 0
M  V30 1189 H 116.977 -3.97206 1.52011 0
M  V30 1190 N 115.292 -0.849877 -1.32721 0
M  V30 1191 C 116.541 -0.447175 -1.96681 0
M  V30 1192 C 116.854 1.00135 -1.68025 0
M  V30 1193 O 118.06 1.50926 -2.25685 0
M  V30 1194 C 116.516 -0.7487 -3.52026 0
M  V30 1195 C 116.124 -2.21264 -3.89546 0
M  V30 1196 C 117.868 -0.413487 -4.22481 0
M  V30 1197 C 115.775 -2.45763 -5.37917 0
M  V30 1198 H 114.705 -0.163486 -0.736063 0
M  V30 1199 H 117.356 -1.03999 -1.51183 0
M  V30 1200 H 115.738 -0.0853727 -3.95908 0
M  V30 1201 H 116.912 -2.91736 -3.56689 0
M  V30 1202 H 115.227 -2.5119 -3.32103 0
M  V30 1203 H 117.824 -0.574017 -5.3161 0
M  V30 1204 H 118.167 0.644492 -4.11281 0
M  V30 1205 H 118.7 -1.03251 -3.84167 0
M  V30 1206 H 115.439 -3.50168 -5.54132 0
M  V30 1207 H 114.959 -1.79864 -5.72197 0
M  V30 1208 H 116.638 -2.29471 -6.0494 0
M  V30 1209 N 116.77 1.45427 -0.607355 0
M  V30 1210 C 117.998 2.06614 -0.108814 0
M  V30 1211 C 118.413 1.45204 1.2067 0
M  V30 1212 O 117.77 0.566132 1.73497 0
M  V30 1213 C 117.821 3.61481 0.0375347 0
M  V30 1214 O 117.542 4.20598 -1.22593 0
M  V30 1215 C 119.043 4.39652 0.567561 0
M  V30 1216 H 116.263 0.66747 -0.0687351 0
M  V30 1217 H 118.807 1.86675 -0.835022 0
M  V30 1218 H 116.962 3.80762 0.714068 0
M  V30 1219 H 117.376 5.1377 -1.05547 0
M  V30 1220 H 118.85 5.48518 0.61905 0
M  V30 1221 H 119.327 4.09417 1.58978 0
M  V30 1222 H 119.933 4.25234 -0.0749202 0
M  V30 1223 N 118.248 0.346503 1.53744 0
M  V30 1224 C 119.178 -0.501193 2.28058 0
M  V30 1225 C 120.159 -1.10014 1.29734 0
M  V30 1226 O 121.344 -1.12097 1.58581 0
M  V30 1227 C 118.474 -1.65078 3.05559 0
M  V30 1228 C 117.428 -1.18003 4.11411 0
M  V30 1229 C 116.754 -2.41837 4.76884 0
M  V30 1230 C 118.054 -0.278394 5.21558 0
M  V30 1231 H 119.748 0.11875 2.99164 0
M  V30 1232 H 117.294 0.0585531 1.43881 0
M  V30 1233 H 119.247 -2.25028 3.56287 0
M  V30 1234 H 117.971 -2.29767 2.32109 0
M  V30 1235 H 116.63 -0.603331 3.61601 0
M  V30 1236 H 116.278 -3.0494 4.00026 0
M  V30 1237 H 115.978 -2.1102 5.48402 0
M  V30 1238 H 117.502 -3.02508 5.30397 0
M  V30 1239 H 118.916 -0.784823 5.67903 0
M  V30 1240 H 117.313 -0.0619707 6.00068 0
M  V30 1241 H 118.383 0.684677 4.80042 0
M  V30 1242 N 119.726 -1.57421 0.075193 0
M  V30 1243 C 120.954 -1.97946 -0.602076 0
M  V30 1244 C 121.369 -0.953674 -1.62943 0
M  V30 1245 O 120.726 0.0592551 -1.82404 0
M  V30 1246 C 120.777 -3.38546 -1.26762 0
M  V30 1247 O 120.498 -4.37195 -0.281376 0
M  V30 1248 C 121.999 -3.93966 -2.03239 0
M  V30 1249 H 119.219 -0.650918 -0.162931 0
M  V30 1250 H 121.763 -2.03959 0.148601 0
M  V30 1251 H 119.918 -3.33609 -1.96936 0
M  V30 1252 H 120.332 -5.18975 -0.759267 0
M  V30 1253 H 121.806 -4.94555 -2.45193 0
M  V30 1254 H 122.283 -3.30693 -2.8903 0
M  V30 1255 H 122.889 -4.02315 -1.37924 0
M  V30 1256 N 121.204 0.198386 -1.56346 0
M  V30 1257 C 122.62 0.549085 -1.49857 0
M  V30 1258 C 122.82 1.86016 -0.774611 0
M  V30 1259 O 121.876 2.50416 -0.323776 0
M  V30 1260 C 123.189 0.606868 -2.94512 0
M  V30 1261 C 124.737 0.695925 -3.05165 0
M  V30 1262 C 125.212 0.784848 -4.51225 0
M  V30 1263 N 126.703 0.848463 -4.55363 0
M  V30 1264 C 127.438 0.937378 -5.65686 0
M  V30 1265 N 126.934 0.9888 -6.85707 0
M  V30 1266 N 128.727 0.974312 -5.53592 0
M  V30 1267 H 120.878 -0.661655 -2.01831 0
M  V30 1268 H 123.141 -0.235261 -0.918344 0
M  V30 1269 H 122.847 -0.28732 -3.50524 0
M  V30 1270 H 122.721 1.46268 -3.47686 0
M  V30 1271 H 125.108 1.58055 -2.49204 0
M  V30 1272 H 125.189 -0.186022 -2.55123 0
M  V30 1273 H 124.833 -0.0954072 -5.0781 0
M  V30 1274 H 124.763 1.68255 -4.98997 0
M  V30 1275 H 127.254 0.818103 -3.68938 0
M  V30 1276 H 127.567 1.05707 -7.65536 0
M  V30 1277 H 125.912 0.957534 -6.88372 0
M  V30 1278 H 129.103 0.930954 -4.58749 0
M  V30 1279 H 129.276 1.04015 -6.39597 0
M  V30 1280 N 122.682 1.50554 0.465978 0
M  V30 1281 C 123.592 1.72585 1.58907 0
M  V30 1282 C 124.608 0.60911 1.6299 0
M  V30 1283 O 125.784 0.88804 1.80765 0
M  V30 1284 C 122.849 1.81995 2.95091 0
M  V30 1285 C 121.91 3.05751 3.01355 0
M  V30 1286 C 121.143 3.14702 4.31043 0
M  V30 1287 O 121.366 2.30313 5.21835 0
M  V30 1288 O 120.3 4.07468 4.43005 0
M  V30 1289 H 124.126 2.67799 1.43239 0
M  V30 1290 H 121.711 1.34711 0.646013 0
M  V30 1291 H 123.593 1.90335 3.75966 0
M  V30 1292 H 122.268 0.899659 3.10947 0
M  V30 1293 H 121.175 3.02908 2.19539 0
M  V30 1294 H 122.508 3.97375 2.90437 0
M  V30 1295 N 124.16 -0.719506 1.40217 0
M  V30 1296 C 125.437 -1.47221 1.28784 0
M  V30 1297 C 125.817 -2.10883 -0.0956067 0
M  V30 1298 O 125.165 -1.99833 -1.10811 0
M  V30 1299 C 125.375 -2.5111 2.42373 0
M  V30 1300 C 126.723 -3.17053 2.82423 0
M  V30 1301 O 127.747 -2.61429 2.41937 0
M  V30 1302 O 126.606 -4.17742 3.52355 0
M  V30 1303 H 123.7 -0.654491 0.50554 0
M  V30 1304 H 126.246 -0.752014 1.52128 0
M  V30 1305 H 125.018 -2.02556 3.34793 0
M  V30 1306 H 124.641 -3.3067 2.20778 0
M  V30 1307 N 125.638 -1.25649 -0.95132 0
M  V30 1308 C 126.568 -1.08808 -2.06599 0
M  V30 1309 C 127.549 0.00382547 -1.701 0
M  V30 1310 O 128.734 -0.166325 -1.93486 0
M  V30 1311 C 125.864 -0.709542 -3.39975 0
M  V30 1312 C 124.818 -1.75206 -3.90496 0
M  V30 1313 C 124.144 -1.22811 -5.20405 0
M  V30 1314 C 125.444 -3.15153 -4.16504 0
M  V30 1315 H 127.138 -2.02048 -2.20946 0
M  V30 1316 H 124.684 -0.972835 -1.06169 0
M  V30 1317 H 126.637 -0.578649 -4.17408 0
M  V30 1318 H 125.361 0.258556 -3.25575 0
M  V30 1319 H 124.02 -1.87145 -3.15234 0
M  V30 1320 H 123.668 -0.250145 -5.02378 0
M  V30 1321 H 123.368 -1.92492 -5.55176 0
M  V30 1322 H 124.892 -1.10968 -6.00432 0
M  V30 1323 H 126.306 -3.06349 -4.84586 0
M  V30 1324 H 124.703 -3.82333 -4.62538 0
M  V30 1325 H 125.773 -3.61966 -3.22658 0
M  V30 1326 N 127.117 1.15442 -1.07289 0
M  V30 1327 C 128.027 2.23786 -0.704057 0
M  V30 1328 C 129.043 1.7166 0.284413 0
M  V30 1329 O 130.219 2.00972 0.131205 0
M  V30 1330 C 127.284 3.46535 -0.106792 0
M  V30 1331 C 126.345 4.13654 -1.14842 0
M  V30 1332 C 125.578 5.30544 -0.57956 0
M  V30 1333 O 125.801 5.67187 0.604585 0
M  V30 1334 O 124.735 5.87154 -1.32414 0
M  V30 1335 H 128.561 2.57664 -1.60757 0
M  V30 1336 H 126.146 1.23152 -0.845803 0
M  V30 1337 H 128.028 4.20804 0.224048 0
M  V30 1338 H 126.703 3.14407 0.770049 0
M  V30 1339 H 125.61 3.4131 -1.5316 0
M  V30 1340 H 126.943 4.49861 -1.99714 0
M  V30 1341 N 128.595 0.856903 1.32268 0
M  V30 1342 C 129.542 0.301172 2.28827 0
M  V30 1343 C 130.512 -0.593104 1.5515 0
M  V30 1344 O 131.697 -0.527537 1.83362 0
M  V30 1345 C 128.837 -0.502523 3.41422 0
M  V30 1346 C 127.95 0.417797 4.29975 0
M  V30 1347 C 127.085 -0.398749 5.29701 0
M  V30 1348 C 126.124 0.518827 6.09897 0
M  V30 1349 N 125.261 -0.260674 7.01616 0
M  V30 1350 H 130.101 1.12983 2.75751 0
M  V30 1351 H 127.638 0.568582 1.35667 0
M  V30 1352 H 129.596 -0.984141 4.05426 0
M  V30 1353 H 128.226 -1.29599 2.95642 0
M  V30 1354 H 127.278 1.01781 3.66531 0
M  V30 1355 H 128.59 1.12191 4.86019 0
M  V30 1356 H 127.744 -0.943435 5.9932 0
M  V30 1357 H 126.483 -1.13622 4.7428 0
M  V30 1358 H 125.488 1.07538 5.39181 0
M  V30 1359 H 126.713 1.25495 6.67404 0
M  V30 1360 H 124.659 -0.981198 6.4862 0
M  V30 1361 H 124.576 0.384364 7.55022 0
M  V30 1362 H 125.844 -0.787014 7.75517 0
M  V30 1363 N 130.073 -1.45103 0.615059 0
M  V30 1364 C 131.32 -2.02183 0.113179 0
M  V30 1365 C 131.648 -1.48249 -1.25906 0
M  V30 1366 O 130.903 -0.650265 -1.84581 0
M  V30 1367 C 131.202 -3.57386 0.0318797 0
M  V30 1368 C 130.868 -4.30505 1.34077 0
M  V30 1369 C 129.53 -4.50197 1.69929 0
M  V30 1370 C 131.882 -4.72238 2.20546 0
M  V30 1371 C 129.21 -5.08881 2.91988 0
M  V30 1372 C 131.562 -5.32272 3.41861 0
M  V30 1373 C 130.226 -5.50187 3.77956 0
M  V30 1374 H 129.496 -0.739842 0.0414151 0
M  V30 1375 H 132.143 -1.74073 0.798168 0
M  V30 1376 H 130.448 -3.84817 -0.736409 0
M  V30 1377 H 132.145 -3.99264 -0.372712 0
M  V30 1378 H 128.735 -4.15496 1.05173 0
M  V30 1379 H 132.919 -4.56751 1.94146 0
M  V30 1380 H 128.175 -5.20939 3.2005 0
M  V30 1381 H 132.349 -5.63563 4.09109 0
M  V30 1382 H 129.976 -5.95427 4.72622 0
M  V30 1383 N 131.551 -0.354651 -1.53558 0
M  V30 1384 C 132.498 0.496968 -2.25386 0
M  V30 1385 C 133.468 1.0865 -1.25636 0
M  V30 1386 O 134.653 1.12104 -1.54394 0
M  V30 1387 C 131.793 1.63637 -3.03837 0
M  V30 1388 C 130.906 1.07307 -4.18461 0
M  V30 1389 C 130.041 2.18068 -4.84376 0
M  V30 1390 C 129.08 1.59147 -5.91049 0
M  V30 1391 N 128.217 2.63695 -6.50699 0
M  V30 1392 H 133.057 -0.122075 -2.9775 0
M  V30 1393 H 130.594 -0.0720154 -1.46924 0
M  V30 1394 H 132.552 2.30734 -3.47589 0
M  V30 1395 H 131.182 2.22623 -2.33749 0
M  V30 1396 H 130.234 0.292708 -3.79272 0
M  V30 1397 H 131.546 0.602193 -4.95152 0
M  V30 1398 H 130.7 2.93007 -5.31255 0
M  V30 1399 H 129.439 2.68504 -4.07133 0
M  V30 1400 H 128.444 0.827175 -5.43542 0
M  V30 1401 H 129.669 1.09549 -6.70206 0
M  V30 1402 H 127.615 3.13365 -5.76315 0
M  V30 1403 H 127.532 2.21263 -7.22896 0
M  V30 1404 H 128.8 3.3837 -7.02229 0
M  V30 1405 N 133.029 1.57378 -0.0835403 0
M  V30 1406 C 133.992 2.12252 0.864959 0
M  V30 1407 C 134.992 1.04916 1.21858 0
M  V30 1408 O 136.182 1.30853 1.14991 0
M  V30 1409 C 133.314 2.63358 2.16461 0
M  V30 1410 H 134.507 2.97371 0.388676 0
M  V30 1411 H 132.06 1.55423 0.165317 0
M  V30 1412 H 132.795 1.81727 2.686 0
M  V30 1413 H 132.58 3.41826 1.92087 0
M  V30 1414 H 134.07 3.05847 2.84337 0
M  V30 1415 N 134.507 -0.190092 1.56449 0
M  V30 1416 C 135.437 -1.23816 1.97969 0
M  V30 1417 C 136.418 -1.47201 0.852395 0
M  V30 1418 O 137.603 -1.58854 1.1171 0
M  V30 1419 C 134.733 -2.5813 2.3235 0
M  V30 1420 C 133.687 -2.49348 3.47864 0
M  V30 1421 C 133.013 -3.8798 3.67934 0
M  V30 1422 C 134.313 -2.01424 4.81898 0
M  V30 1423 H 136.007 -0.89311 2.85769 0
M  V30 1424 H 133.553 -0.428177 1.37487 0
M  V30 1425 H 135.506 -3.31637 2.59991 0
M  V30 1426 H 134.23 -2.94386 1.41438 0
M  V30 1427 H 132.889 -1.78297 3.20321 0
M  V30 1428 H 132.537 -4.21597 2.74344 0
M  V30 1429 H 132.237 -3.82978 4.45648 0
M  V30 1430 H 133.761 -4.63101 3.97957 0
M  V30 1431 H 135.175 -2.64693 5.08538 0
M  V30 1432 H 133.572 -2.07413 5.63116 0
M  V30 1433 H 134.642 -0.967677 4.75146 0
M  V30 1434 N 135.985 -1.50799 -0.457987 0
M  V30 1435 C 137.401 -1.38515 -0.792819 0
M  V30 1436 C 137.601 -0.451409 -1.96379 0
M  V30 1437 O 136.657 0.10112 -2.52297 0
M  V30 1438 C 137.97 -2.80149 -1.09258 0
M  V30 1439 C 139.518 -2.89156 -1.19825 0
M  V30 1440 C 139.993 -4.31651 -1.53106 0
M  V30 1441 N 141.484 -4.34662 -1.60072 0
M  V30 1442 C 142.219 -5.41928 -1.87354 0
M  V30 1443 N 141.715 -6.59384 -2.12568 0
M  V30 1444 N 143.508 -5.29385 -1.88965 0
M  V30 1445 H 135.659 -2.10073 0.313511 0
M  V30 1446 H 137.922 -0.944803 0.0777862 0
M  V30 1447 H 137.628 -3.50374 -0.305084 0
M  V30 1448 H 137.502 -3.18204 -2.02549 0
M  V30 1449 H 139.889 -2.19141 -1.97639 0
M  V30 1450 H 139.97 -2.54626 -0.244821 0
M  V30 1451 H 139.614 -5.02208 -0.758266 0
M  V30 1452 H 139.544 -4.63678 -2.49621 0
M  V30 1453 H 142.035 -3.49973 -1.42573 0
M  V30 1454 H 142.348 -7.36934 -2.32696 0
M  V30 1455 H 140.693 -6.62535 -2.09933 0
M  V30 1456 H 143.884 -4.36616 -1.68772 0
M  V30 1457 H 144.057 -6.13066 -2.09891 0
M  V30 1458 N 137.463 0.71206 -1.40597 0
M  V30 1459 C 138.712 1.46754 -1.38369 0
M  V30 1460 C 139.025 1.95598 0.0097839 0
M  V30 1461 O 140.231 2.71059 0.154677 0
M  V30 1462 C 138.687 2.65289 -2.43207 0
M  V30 1463 C 138.295 2.23301 -3.88382 0
M  V30 1464 C 140.039 3.43008 -2.50091 0
M  V30 1465 C 137.946 3.38696 -4.84808 0
M  V30 1466 H 136.876 0.55118 -0.514506 0
M  V30 1467 H 139.527 0.774616 -1.66349 0
M  V30 1468 H 137.909 3.36769 -2.08332 0
M  V30 1469 H 139.083 1.59218 -4.32419 0
M  V30 1470 H 137.398 1.58618 -3.85006 0
M  V30 1471 H 139.995 4.28881 -3.1932 0
M  V30 1472 H 140.338 3.87065 -1.53253 0
M  V30 1473 H 140.871 2.78574 -2.83974 0
M  V30 1474 H 137.61 2.99668 -5.82992 0
M  V30 1475 H 137.13 4.01683 -4.45433 0
M  V30 1476 H 138.809 4.04712 -5.04794 0
M  V30 1477 N 138.941 1.26152 0.944643 0
M  V30 1478 C 140.19 1.10883 1.68487 0
M  V30 1479 C 140.503 -0.348153 1.92477 0
M  V30 1480 O 141.709 -0.621459 2.64292 0
M  V30 1481 C 140.165 1.93624 3.03377 0
M  V30 1482 C 139.773 3.43875 2.87148 0
M  V30 1483 C 141.517 1.86954 3.81115 0
M  V30 1484 C 139.424 4.18875 4.1749 0
M  V30 1485 H 138.354 0.41135 0.631907 0
M  V30 1486 H 141.005 1.50433 1.05082 0
M  V30 1487 H 139.387 1.46904 3.67743 0
M  V30 1488 H 140.561 3.98338 2.31653 0
M  V30 1489 H 138.876 3.51744 2.22856 0
M  V30 1490 H 141.473 2.40275 4.77673 0
M  V30 1491 H 141.816 0.839518 4.07747 0
M  V30 1492 H 142.349 2.31477 3.23517 0
M  V30 1493 H 139.088 5.22332 3.96043 0
M  V30 1494 H 138.608 3.69193 4.72712 0
M  V30 1495 H 140.287 4.27134 4.85968 0
M  V30 1496 N 140.419 -1.14872 1.07899 0
M  V30 1497 C 141.665 -1.86064 0.806725 0
M  V30 1498 C 141.998 -1.82434 -0.665706 0
M  V30 1499 O 141.273 -1.25138 -1.48899 0
M  V30 1500 C 141.556 -3.34929 1.32267 0
M  V30 1501 C 141.409 -3.47161 2.86006 0
M  V30 1502 C 142.728 -4.29863 0.943717 0
M  V30 1503 H 139.847 -0.675591 0.294526 0
M  V30 1504 H 142.489 -1.34925 1.33773 0
M  V30 1505 H 140.639 -3.78611 0.870974 0
M  V30 1506 H 142.311 -3.12302 3.39507 0
M  V30 1507 H 140.554 -2.88539 3.23925 0
M  V30 1508 H 141.225 -4.51777 3.17177 0
M  V30 1509 H 143.701 -3.9417 1.33302 0
M  V30 1510 H 142.577 -5.32494 1.33198 0
M  V30 1511 H 142.838 -4.41846 -0.149796 0
M  V30 1512 N 141.898 -0.863906 -1.31812 0
M  V30 1513 C 143.314 -0.555004 -1.49639 0
M  V30 1514 C 143.514 0.912266 -1.79666 0
M  V30 1515 O 142.57 1.69479 -1.87171 0
M  V30 1516 C 143.883 -1.44998 -2.63431 0
M  V30 1517 C 145.431 -1.45138 -2.77316 0
M  V30 1518 C 145.906 -2.33179 -3.94197 0
M  V30 1519 N 147.397 -2.31025 -4.01474 0
M  V30 1520 C 148.132 -2.95871 -4.9117 0
M  V30 1521 N 147.628 -3.69863 -5.8581 0
M  V30 1522 N 149.421 -2.85211 -4.84367 0
M  V30 1523 H 141.572 -1.81339 -1.10589 0
M  V30 1524 H 143.835 -0.77505 -0.545895 0
M  V30 1525 H 143.541 -2.49377 -2.48 0
M  V30 1526 H 143.415 -1.14409 -3.59431 0
M  V30 1527 H 145.802 -0.415201 -2.92164 0
M  V30 1528 H 145.883 -1.79747 -1.82001 0
M  V30 1529 H 145.527 -3.3687 -3.80107 0
M  V30 1530 H 145.457 -1.95897 -4.88807 0
M  V30 1531 H 147.948 -1.77238 -3.33759 0
M  V30 1532 H 148.261 -4.16486 -6.50968 0
M  V30 1533 H 146.606 -3.73971 -5.85808 0
M  V30 1534 H 149.797 -2.26948 -4.09405 0
M  V30 1535 H 149.97 -3.36027 -5.54066 0
M  V30 1536 N 143.376 1.44774 -0.622745 0
M  V30 1537 C 144.625 2.01334 -0.121397 0
M  V30 1538 C 144.938 1.49505 1.26125 0
M  V30 1539 O 146.144 1.98139 1.85616 0
M  V30 1540 C 144.6 3.59516 -0.166298 0
M  V30 1541 C 144.208 4.20342 -1.54974 0
M  V30 1542 C 145.952 4.23582 0.279021 0
M  V30 1543 C 143.859 5.70721 -1.55021 0
M  V30 1544 H 142.789 0.752851 -0.0416172 0
M  V30 1545 H 145.44 1.66083 -0.780309 0
M  V30 1546 H 143.822 3.92027 0.559557 0
M  V30 1547 H 144.996 3.99381 -2.29851 0
M  V30 1548 H 143.311 3.68529 -1.93843 0
M  V30 1549 H 145.908 5.33868 0.298083 0
M  V30 1550 H 146.251 3.95327 1.30471 0
M  V30 1551 H 146.784 3.95843 -0.394063 0
M  V30 1552 H 143.523 6.03698 -2.55399 0
M  V30 1553 H 143.043 5.93829 -0.844245 0
M  V30 1554 H 144.722 6.34203 -1.28047 0
M  V30 1555 N 144.854 0.36279 1.53368 0
M  V30 1556 C 146.102 -0.227326 2.00817 0
M  V30 1557 C 146.423 -1.49511 1.25186 0
M  V30 1558 O 145.693 -1.92482 0.364348 0
M  V30 1559 H 144.273 -0.0869923 0.741917 0
M  V30 1560 H 146.935 0.488381 1.88682 0
M  V30 1561 H 146.031 -0.456273 3.08747 0
M  V30 1562 N 146.332 -1.57332 0.0918853 0
M  V30 1563 C 147.557 -1.98995 -0.584442 0
M  V30 1564 C 147.982 -0.970528 -1.61128 0
M  V30 1565 O 147.34 0.0613904 -1.81196 0
M  V30 1566 C 147.388 -3.39636 -1.21161 0
M  V30 1567 O 146.492 -3.40447 -2.32744 0
M  V30 1568 H 145.833 -0.647165 -0.148572 0
M  V30 1569 H 148.363 -2.03873 0.172347 0
M  V30 1570 H 148.373 -3.7726 -1.55367 0
M  V30 1571 H 147.048 -4.13356 -0.459313 0
M  V30 1572 H 145.625 -3.14614 -2.0018 0
M  V30 1573 N 147.81 0.181792 -1.56548 0
M  V30 1574 C 149.058 0.89832 -1.81038 0
M  V30 1575 C 149.379 1.83232 -0.667164 0
M  V30 1576 O 148.649 1.93372 0.313673 0
M  V30 1577 H 147.229 0.33471 -0.667816 0
M  V30 1578 H 149.891 0.184116 -1.94028 0
M  V30 1579 H 148.987 1.4815 -2.74696 0
M  V30 1580 N 149.288 1.51039 0.449983 0
M  V30 1581 C 150.535 1.63081 1.20045 0
M  V30 1582 C 150.863 0.341024 1.91487 0
M  V30 1583 O 150.118 -0.674276 1.83717 0
M  V30 1584 C 150.417 2.77556 2.25161 0
M  V30 1585 C 150.083 4.17289 1.70823 0
M  V30 1586 C 148.745 4.55305 1.55725 0
M  V30 1587 C 151.097 5.04536 1.3074 0
M  V30 1588 C 148.425 5.78287 0.989999 0
M  V30 1589 C 150.777 6.28085 0.754482 0
M  V30 1590 C 149.441 6.64885 0.590308 0
M  V30 1591 H 148.711 0.596755 0.439277 0
M  V30 1592 H 151.358 1.85037 0.49333 0
M  V30 1593 H 149.663 2.49771 3.01863 0
M  V30 1594 H 151.36 2.84073 2.83026 0
M  V30 1595 H 147.95 3.8731 1.83546 0
M  V30 1596 H 152.134 4.75782 1.41229 0
M  V30 1597 H 147.39 6.05456 0.850451 0
M  V30 1598 H 151.564 6.95038 0.435324 0
M  V30 1599 H 149.191 7.60055 0.14862 0
M  V30 1600 N 150.766 -0.704594 1.40972 0
M  V30 1601 C 152.043 -1.45847 1.30338 0
M  V30 1602 C 152.423 -2.10973 -0.0732344 0
M  V30 1603 O 151.771 -2.00997 -1.08685 0
M  V30 1604 C 151.981 -2.48525 2.45023 0
M  V30 1605 C 153.329 -3.1404 2.8577 0
M  V30 1606 O 154.353 -2.58848 2.44696 0
M  V30 1607 O 153.212 -4.13981 3.56766 0
M  V30 1608 H 150.306 -0.649092 0.512454 0
M  V30 1609 H 152.852 -0.735836 1.52917 0
M  V30 1610 H 151.624 -1.98994 3.36923 0
M  V30 1611 H 151.247 -3.2831 2.24272 0
M  V30 1612 N 152.244 -1.26651 -0.937939 0
M  V30 1613 C 153.192 -1.08308 -2.05845 0
M  V30 1614 C 154.186 -0.0090757 -1.69398 0
M  V30 1615 O 155.392 -0.166007 -1.79233 0
M  V30 1616 H 151.767 -0.333416 -0.674046 0
M  V30 1617 H 153.738 -2.03261 -2.18467 0
M  V30 1618 C 152.487 -0.736229 -3.39816 0
M  V30 1619 H 151.81 -1.55453 -3.6834 0
M  V30 1620 H 153.25 -0.64769 -4.19024 0
M  V30 1621 C 151.709 0.558824 -3.32233 0
M  V30 1622 O 152.239 1.59621 -3.68624 0
M  V30 1623 N 150.445 0.550657 -2.85335 0
M  V30 1624 H 149.992 -0.293943 -2.55917 0
M  V30 1625 H 149.95 1.41726 -2.80644 0
M  V30 1626 N 153.722 1.14298 -1.08507 0
M  V30 1627 C 154.971 1.84708 -0.810305 0
M  V30 1628 C 155.284 1.83903 0.666271 0
M  V30 1629 O 156.49 2.50112 1.05624 0
M  V30 1630 C 154.946 3.31572 -1.39957 0
M  V30 1631 C 154.554 3.40791 -2.90801 0
M  V30 1632 C 156.298 4.07087 -1.20334 0
M  V30 1633 C 154.205 4.81872 -3.4286 0
M  V30 1634 H 153.135 0.691985 -0.299454 0
M  V30 1635 H 155.786 1.28841 -1.30661 0
M  V30 1636 H 154.168 3.87183 -0.830976 0
M  V30 1637 H 155.342 2.95225 -3.53806 0
M  V30 1638 H 153.657 2.78732 -3.0935 0
M  V30 1639 H 156.254 5.11225 -1.56693 0
M  V30 1640 H 156.597 4.16054 -0.143237 0
M  V30 1641 H 157.13 3.57779 -1.73893 0
M  V30 1642 H 153.869 4.78094 -4.48449 0
M  V30 1643 H 153.389 5.27972 -2.84615 0
M  V30 1644 H 155.068 5.50765 -3.39509 0
M  V30 1645 N 155.201 0.870884 1.31352 0
M  V30 1646 C 156.478 0.402907 1.91405 0
M  V30 1647 C 156.858 -1.11512 1.79244 0
M  V30 1648 O 156.206 -1.94411 1.2007 0
M  V30 1649 C 156.416 0.885301 3.37585 0
M  V30 1650 C 157.764 0.911971 4.14691 0
M  V30 1651 O 158.788 0.831016 3.46371 0
M  V30 1652 O 157.647 1.02927 5.3672 0
M  V30 1653 H 154.741 0.120698 0.818145 0
M  V30 1654 H 157.287 0.958857 1.40014 0
M  V30 1655 H 156.059 1.92889 3.40455 0
M  V30 1656 H 155.682 0.307714 3.96407 0
M  V30 1657 N 156.679 -1.44442 0.630414 0
M  V30 1658 C 157.928 -2.01267 0.132073 0
M  V30 1659 C 158.241 -1.50172 -1.25331 0
M  V30 1660 O 159.447 -1.9912 -1.84562 0
M  V30 1661 C 157.903 -3.59422 0.185362 0
M  V30 1662 C 157.511 -4.19514 1.57201 0
M  V30 1663 C 159.255 -4.23724 -0.256553 0
M  V30 1664 C 157.162 -5.69891 1.58045 0
M  V30 1665 H 156.092 -0.752619 0.0456092 0
M  V30 1666 H 158.743 -1.65666 0.789106 0
M  V30 1667 H 157.125 -3.92318 -0.538759 0
M  V30 1668 H 158.299 -3.98156 2.31966 0
M  V30 1669 H 156.614 -3.67496 1.95795 0
M  V30 1670 H 159.211 -5.34019 -0.269767 0
M  V30 1671 H 159.554 -3.96013 -1.28372 0
M  V30 1672 H 160.087 -3.95629 0.41505 0
M  V30 1673 H 156.826 -6.02336 2.58597 0
M  V30 1674 H 156.346 -5.93373 0.875725 0
M  V30 1675 H 158.025 -6.33515 1.31408 0
M  V30 1676 N 158.157 -0.370918 -1.53173 0
M  V30 1677 C 159.104 0.473035 -2.259 0
M  V30 1678 C 160.074 1.07311 -1.26781 0
M  V30 1679 O 161.259 1.1046 -1.55574 0
M  V30 1680 C 158.399 1.60405 -3.05556 0
M  V30 1681 C 157.512 1.02863 -4.19575 0
M  V30 1682 C 156.647 2.12918 -4.86661 0
M  V30 1683 C 155.686 1.52869 -5.92704 0
M  V30 1684 N 154.823 2.56779 -6.53459 0
M  V30 1685 H 159.663 -0.153649 -2.97604 0
M  V30 1686 H 157.2 -0.0875946 -1.46839 0
M  V30 1687 H 159.158 2.27034 -3.50016 0
M  V30 1688 H 157.788 2.20131 -2.36097 0
M  V30 1689 H 156.84 0.252465 -3.79561 0
M  V30 1690 H 158.152 0.549642 -4.95762 0
M  V30 1691 H 157.306 2.87356 -5.34333 0
M  V30 1692 H 156.045 2.6417 -4.09958 0
M  V30 1693 H 155.05 0.769479 -5.44389 0
M  V30 1694 H 156.275 1.02435 -6.7133 0
M  V30 1695 H 154.221 3.07235 -5.79606 0
M  V30 1696 H 154.138 2.13583 -7.25202 0
M  V30 1697 H 155.406 3.30903 -7.05779 0
M  V30 1698 N 159.635 1.57281 -0.100228 0
M  V30 1699 C 160.86 1.99302 0.573881 0
M  V30 1700 C 161.285 0.979059 1.60611 0
M  V30 1701 O 160.643 -0.0517803 1.81226 0
M  V30 1702 C 160.691 3.40274 1.19358 0
M  V30 1703 O 159.795 3.41676 2.30935 0
M  V30 1704 H 159.136 0.647944 0.145138 0
M  V30 1705 H 161.666 2.03779 -0.183156 0
M  V30 1706 H 161.676 3.78078 1.53365 0
M  V30 1707 H 160.351 4.13594 0.437385 0
M  V30 1708 H 158.928 3.15672 1.98509 0
M  V30 1709 N 161.113 -0.173488 1.56642 0
M  V30 1710 C 162.076 -1.19859 1.95362 0
M  V30 1711 C 163.076 -1.37296 0.83704 0
M  V30 1712 O 164.266 -1.34739 1.10413 0
M  V30 1713 C 161.398 -2.56405 2.24654 0
M  V30 1714 H 162.591 -0.867062 2.87092 0
M  V30 1715 H 160.144 -0.415853 1.50666 0
M  V30 1716 H 160.879 -2.94576 1.35631 0
M  V30 1717 H 160.664 -2.45115 3.06041 0
M  V30 1718 H 162.154 -3.30287 2.5554 0
M  V30 1719 N 162.591 -1.51276 -0.441967 0
M  V30 1720 C 163.839 -1.63392 -1.18943 0
M  V30 1721 C 164.16 -0.350159 -1.9183 0
M  V30 1722 O 163.43 0.633784 -1.85364 0
M  V30 1723 H 162.01 -0.602164 -0.442049 0
M  V30 1724 H 164.672 -1.88186 -0.507165 0
M  V30 1725 H 163.768 -2.45934 -1.92154 0
M  V30 1726 N 164.069 0.697108 -1.41344 0
M  V30 1727 C 165.346 1.45154 -1.31109 0
M  V30 1728 C 165.726 2.11009 0.0620449 0
M  V30 1729 O 165.074 2.01571 1.07618 0
M  V30 1730 C 165.284 2.47223 -2.46337 0
M  V30 1731 C 166.632 3.1252 -2.87431 0
M  V30 1732 O 167.656 2.57547 -2.46065 0
M  V30 1733 O 166.515 4.12083 -3.58957 0
M  V30 1734 H 163.609 0.646365 -0.515889 0
M  V30 1735 H 166.155 0.727716 -1.53305 0
M  V30 1736 H 164.927 1.97204 -3.37974 0
M  V30 1737 H 164.55 3.27116 -2.2601 0
M  V30 1738 N 165.547 1.27147 0.931209 0
M  V30 1739 C 166.477 1.12081 2.04842 0
M  V30 1740 C 167.458 0.0232364 1.70084 0
M  V30 1741 O 168.643 0.197085 1.93197 0
M  V30 1742 C 165.773 0.76354 3.38803 0
M  V30 1743 C 164.727 1.81396 3.87659 0
M  V30 1744 C 164.053 1.31075 5.18385 0
M  V30 1745 C 165.353 3.21739 4.11438 0
M  V30 1746 H 167.047 2.05537 2.17703 0
M  V30 1747 H 164.593 0.989603 1.04608 0
M  V30 1748 H 166.546 0.644982 4.16435 0
M  V30 1749 H 165.27 -0.206727 3.25945 0
M  V30 1750 H 163.929 1.92136 3.12217 0
M  V30 1751 H 163.577 0.330037 5.01916 0
M  V30 1752 H 163.277 2.013 5.52044 0
M  V30 1753 H 164.801 1.20506 5.98591 0
M  V30 1754 H 166.215 3.14019 4.79651 0
M  V30 1755 H 164.612 3.89644 4.56397 0
M  V30 1756 H 165.682 3.67054 3.16859 0
M  V30 1757 N 167.025 -1.13721 1.09112 0
M  V30 1758 C 168.273 -1.84559 0.823562 0
M  V30 1759 C 168.594 -1.83754 -0.652658 0
M  V30 1760 O 167.864 -1.29102 -1.47342 0
M  V30 1761 H 166.444 -0.683376 0.301673 0
M  V30 1762 H 169.106 -1.37771 1.37859 0
M  V30 1763 H 168.202 -2.8917 1.17419 0
M  V30 1764 N 168.503 -0.877838 -1.30888 0
M  V30 1765 C 169.752 -0.488793 -1.95688 0
M  V30 1766 C 170.065 0.965485 -1.70111 0
M  V30 1767 O 171.271 1.46104 -2.28836 0
M  V30 1768 C 169.727 -0.823201 -3.50359 0
M  V30 1769 C 169.335 -2.29477 -3.84765 0
M  V30 1770 C 171.079 -0.503009 -4.21509 0
M  V30 1771 C 168.986 -2.57118 -5.32583 0
M  V30 1772 H 167.916 -0.179062 -0.732429 0
M  V30 1773 H 170.567 -1.07183 -1.48943 0
M  V30 1774 H 168.949 -0.169331 -3.95638 0
M  V30 1775 H 170.123 -2.99236 -3.5042 0
M  V30 1776 H 168.438 -2.58178 -3.267 0
M  V30 1777 H 171.035 -0.68665 -5.30273 0
M  V30 1778 H 171.378 0.557109 -4.12555 0
M  V30 1779 H 171.911 -1.11376 -3.8189 0
M  V30 1780 H 168.65 -3.61843 -5.4658 0
M  V30 1781 H 168.17 -1.91961 -5.68253 0
M  V30 1782 H 169.849 -2.42251 -5.99936 0
M  V30 1783 N 169.982 1.44106 -0.638065 0
M  V30 1784 C 170.945 2.29138 0.0531013 0
M  V30 1785 C 171.945 1.41409 0.765506 0
M  V30 1786 O 173.135 1.63206 0.609046 0
M  V30 1787 C 170.267 3.23144 1.08584 0
M  V30 1788 H 171.46 2.91739 -0.694883 0
M  V30 1789 H 169.013 1.51134 -0.398538 0
M  V30 1790 H 169.748 2.65408 1.86357 0
M  V30 1791 H 169.533 3.87804 0.578852 0
M  V30 1792 H 171.023 3.87004 1.56899 0
M  V30 1793 N 171.46 0.379036 1.52974 0
M  V30 1794 C 172.706 -0.206727 2.01744 0
M  V30 1795 C 173.039 -1.47314 1.26539 0
M  V30 1796 O 172.314 -1.91084 0.362903 0
M  V30 1797 C 172.597 -0.485066 3.56818 0
M  V30 1798 C 172.45 0.795919 4.42702 0
M  V30 1799 C 173.769 -1.28003 4.21074 0
M  V30 1800 H 170.888 -0.0736607 0.73331 0
M  V30 1801 H 173.53 0.506581 1.83122 0
M  V30 1802 H 171.68 -1.09272 3.72816 0
M  V30 1803 H 173.352 1.43307 4.38476 0
M  V30 1804 H 171.595 1.41344 4.10127 0
M  V30 1805 H 172.266 0.555947 5.49193 0
M  V30 1806 H 174.742 -0.765867 4.08991 0
M  V30 1807 H 173.618 -1.44352 5.29579 0
M  V30 1808 H 173.879 -2.29236 3.78026 0
M  V30 1809 N 172.938 -1.57226 0.108567 0
M  V30 1810 C 174.178 -1.96717 -0.555155 0
M  V30 1811 C 174.542 -0.990003 -1.64508 0
M  V30 1812 O 175.743 -1.2739 -2.36696 0
M  V30 1813 C 174.014 -3.40575 -1.08367 0
M  V30 1814 S 175.573 -4.02072 -1.75737 0
M  V30 1815 H 172.391 -0.687638 -0.180762 0
M  V30 1816 H 174.993 -1.94563 0.191172 0
M  V30 1817 H 173.697 -4.0945 -0.279092 0
M  V30 1818 H 173.228 -3.46356 -1.86551 0
M  V30 1819 H 175.243 -3.91977 -3.04251 0
M  V30 1820 N 174.416 0.165178 -1.56732 0
M  V30 1821 C 175.364 1.22369 -1.97809 0
M  V30 1822 C 176.358 1.45488 -0.867741 0
M  V30 1823 O 177.564 1.45995 -1.05288 0
M  V30 1824 H 173.939 0.411486 -0.629431 0
M  V30 1825 H 175.91 0.850425 -2.86025 0
M  V30 1826 C 174.659 2.55403 -2.35934 0
M  V30 1827 H 173.982 2.38438 -3.20916 0
M  V30 1828 H 175.422 3.2814 -2.68514 0
M  V30 1829 C 173.881 3.14611 -1.20506 0
M  V30 1830 O 174.411 3.98626 -0.496016 0
M  V30 1831 N 172.617 2.7379 -0.97403 0
M  V30 1832 H 172.164 2.0557 -1.55238 0
M  V30 1833 H 172.122 3.1374 -0.203573 0
M  V30 1834 N 175.894 1.51508 0.433938 0
M  V30 1835 C 177.14 1.64588 1.18484 0
M  V30 1836 C 177.473 0.362666 1.90784 0
M  V30 1837 O 176.748 -0.637892 1.83742 0
M  V30 1838 C 177.031 2.85149 2.19913 0
M  V30 1839 C 176.884 4.23456 1.51674 0
M  V30 1840 C 178.203 3.01227 3.20858 0
M  V30 1841 H 175.322 0.598994 0.429389 0
M  V30 1842 H 177.964 1.84002 0.473647 0
M  V30 1843 H 176.114 2.68729 2.80566 0
M  V30 1844 H 177.786 4.51552 0.943322 0
M  V30 1845 H 176.029 4.25998 0.819035 0
M  V30 1846 H 176.7 5.03812 2.2556 0
M  V30 1847 H 179.176 3.16382 2.70263 0
M  V30 1848 H 178.052 3.87141 3.89118 0
M  V30 1849 H 178.313 2.13447 3.8716 0
M  V30 1850 N 177.372 -0.689602 1.41712 0
M  V30 1851 C 178.783 -1.26973 1.36875 0
M  V30 1852 C 179.134 -1.96124 0.054748 0
M  V30 1853 O 178.259 -1.99141 -0.84687 0
M  V30 1854 C 178.854 -2.30912 2.47922 0
M  V30 1855 C 177.413 -2.84486 2.46464 0
M  V30 1856 C 176.56 -1.58603 2.27465 0
M  V30 1857 H 179.511 -0.48396 1.51141 0
M  V30 1858 H 179.532 -3.12331 2.17323 0
M  V30 1859 H 179.044 -1.80554 3.43543 0
M  V30 1860 H 177.145 -3.39005 1.54617 0
M  V30 1861 H 177.258 -3.34511 3.42986 0
M  V30 1862 H 175.622 -1.84632 1.75451 0
M  V30 1863 H 176.405 -1.10233 3.25121 0
M  V30 1864 N 178.85 -1.27639 -0.924453 0
M  V30 1865 C 179.813 -1.10681 -2.00705 0
M  V30 1866 C 180.813 -0.0497823 -1.60723 0
M  V30 1867 O 182.003 -0.294654 -1.7169 0
M  V30 1868 C 179.135 -0.687164 -3.33902 0
M  V30 1869 H 180.328 -2.06817 -2.17179 0
M  V30 1870 H 177.881 -1.10473 -1.10569 0
M  V30 1871 H 178.616 0.275439 -3.23128 0
M  V30 1872 H 178.401 -1.45061 -3.6428 0
M  V30 1873 H 179.891 -0.590853 -4.13399 0
M  V30 1874 N 180.328 1.1314 -1.09713 0
M  V30 1875 C 181.291 2.16831 -0.742751 0
M  V30 1876 C 182.291 1.59159 0.229129 0
M  V30 1877 O 183.481 1.74199 0.00693237 0
M  V30 1878 C 180.613 3.40756 -0.0989168 0
M  V30 1879 H 181.806 2.49695 -1.66109 0
M  V30 1880 H 179.359 1.2802 -0.896699 0
M  V30 1881 H 180.094 3.13485 0.830514 0
M  V30 1882 H 179.879 3.83888 -0.798265 0
M  V30 1883 H 181.369 4.17386 0.133524 0
M  V30 1884 N 181.806 0.884767 1.30421 0
M  V30 1885 C 183.031 0.517288 2.00845 0
M  V30 1886 C 183.456 -0.886779 1.65885 0
M  V30 1887 O 182.814 -1.58768 0.875354 0
M  V30 1888 C 182.862 0.698994 3.5376 0
M  V30 1889 O 181.966 -0.255208 4.1161 0
M  V30 1890 H 181.307 0.203872 0.631927 0
M  V30 1891 H 183.837 1.19225 1.66272 0
M  V30 1892 H 183.847 0.597912 4.03595 0
M  V30 1893 H 182.522 1.72271 3.78544 0
M  V30 1894 H 181.099 -0.10784 3.72744 0
M  V30 1895 N 183.284 -1.43765 0.645699 0
M  V30 1896 C 184.53 -2.02197 0.156271 0
M  V30 1897 C 184.863 -1.50776 -1.22393 0
M  V30 1898 O 184.138 -0.697771 -1.81553 0
M  V30 1899 C 184.421 -3.59749 0.158872 0
M  V30 1900 C 184.274 -4.21419 1.57245 0
M  V30 1901 C 185.593 -4.37149 -0.50879 0
M  V30 1902 H 182.712 -0.734694 0.0582602 0
M  V30 1903 H 185.354 -1.71157 0.824951 0
M  V30 1904 H 183.504 -3.86325 -0.410525 0
M  V30 1905 H 185.176 -4.059 2.19186 0
M  V30 1906 H 183.419 -3.78356 2.122 0
M  V30 1907 H 184.09 -5.30482 1.52619 0
M  V30 1908 H 186.566 -4.16093 -0.024412 0
M  V30 1909 H 185.442 -5.4683 -0.476213 0
M  V30 1910 H 185.703 -4.12839 -1.58165 0
M  V30 1911 N 184.763 -0.387143 -1.52771 0
M  V30 1912 C 185.673 0.456442 -2.30117 0
M  V30 1913 C 186.689 1.07342 -1.36944 0
M  V30 1914 O 187.865 1.07971 -1.70013 0
M  V30 1915 C 184.93 1.56957 -3.09136 0
M  V30 1916 C 183.991 0.977916 -4.18014 0
M  V30 1917 C 183.224 2.038 -4.93256 0
M  V30 1918 O 183.447 3.25271 -4.68567 0
M  V30 1919 O 182.381 1.6565 -5.78657 0
M  V30 1920 H 186.207 -0.17359 -3.03203 0
M  V30 1921 H 183.792 -0.150919 -1.48636 0
M  V30 1922 H 185.674 2.21628 -3.58412 0
M  V30 1923 H 184.349 2.18461 -2.38865 0
M  V30 1924 H 183.256 0.294525 -3.72939 0
M  V30 1925 H 184.589 0.407128 -4.90513 0
M  V30 1926 N 186.241 1.57166 -0.116904 0
M  V30 1927 C 187.151 2.18745 0.847812 0
M  V30 1928 C 188.167 1.163 1.29423 0
M  V30 1929 O 189.343 1.48761 1.35765 0
M  V30 1930 C 186.408 2.77307 2.0809 0
M  V30 1931 C 185.469 3.94781 1.68661 0
M  V30 1932 C 184.702 4.50541 2.86091 0
M  V30 1933 O 184.925 4.05202 4.01456 0
M  V30 1934 O 183.859 5.41256 2.63298 0
M  V30 1935 H 187.685 3.01632 0.353778 0
M  V30 1936 H 185.27 1.49005 0.108599 0
M  V30 1937 H 187.152 3.14647 2.80313 0
M  V30 1938 H 185.827 1.97452 2.56504 0
M  V30 1939 H 184.734 3.62214 0.935518 0
M  V30 1940 H 186.067 4.76065 1.24991 0
M  V30 1941 N 187.719 -0.156864 1.56817 0
M  V30 1942 C 188.947 -0.886316 1.86955 0
M  V30 1943 C 189.362 -1.75185 0.703975 0
M  V30 1944 O 188.719 -1.79555 -0.326552 0
M  V30 1945 C 188.77 -1.75117 3.16253 0
M  V30 1946 O 188.491 -0.920537 4.2832 0
M  V30 1947 C 189.992 -2.58905 3.59837 0
M  V30 1948 H 187.212 -0.25678 0.619923 0
M  V30 1949 H 189.756 -0.152615 2.0393 0
M  V30 1950 H 187.911 -2.43805 3.01062 0
M  V30 1951 H 188.325 -1.51337 5.02192 0
M  V30 1952 H 189.799 -3.1518 4.53172 0
M  V30 1953 H 190.276 -3.34472 2.84649 0
M  V30 1954 H 190.882 -1.95526 3.7769 0
M  V30 1955 N 189.197 -1.51736 -0.425897 0
M  V30 1956 C 190.16 -1.73271 -1.50032 0
M  V30 1957 C 191.16 -0.602639 -1.4908 0
M  V30 1958 O 192.35 -0.87033 -1.509 0
M  V30 1959 C 189.482 -1.79969 -2.89523 0
M  V30 1960 H 190.675 -2.69172 -1.32237 0
M  V30 1961 H 188.228 -1.41899 -0.65532 0
M  V30 1962 H 188.963 -0.859241 -3.1271 0
M  V30 1963 H 188.748 -2.62109 -2.91619 0
M  V30 1964 H 190.238 -1.9843 -3.67444 0
M  V30 1965 N 190.675 0.682077 -1.42076 0
M  V30 1966 C 191.952 1.43755 -1.32642 0
M  V30 1967 C 192.332 2.11063 0.0396611 0
M  V30 1968 O 191.68 2.02701 1.05474 0
M  V30 1969 C 191.89 2.44596 -2.48946 0
M  V30 1970 C 193.238 3.09454 -2.9073 0
M  V30 1971 O 194.262 2.54922 -2.48783 0
M  V30 1972 O 193.121 4.08253 -3.63307 0
M  V30 1973 H 190.215 0.640857 -0.522715 0
M  V30 1974 H 192.761 0.711415 -1.54068 0
M  V30 1975 H 191.533 1.93609 -3.40046 0
M  V30 1976 H 191.156 3.24701 -2.29467 0
M  V30 1977 N 192.153 1.28127 0.917671 0
M  V30 1978 C 193.378 1.18007 1.70555 0
M  V30 1979 C 193.803 -0.258257 1.86319 0
M  V30 1980 O 193.161 -1.1869 1.37049 0
M  V30 1981 C 193.209 1.87948 3.07746 0
M  V30 1982 O 192.313 1.18427 3.9503 0
M  V30 1983 H 191.654 0.409867 0.522403 0
M  V30 1984 H 194.184 1.69379 1.1477 0
M  V30 1985 H 194.194 1.95701 3.58001 0
M  V30 1986 H 192.869 2.92573 2.95591 0
M  V30 1987 H 191.446 1.18811 3.53466 0
M  V30 1988 N 193.631 -1.12557 1.10312 0
M  V30 1989 C 194.859 -1.87864 0.866873 0
M  V30 1990 C 195.274 -1.79588 -0.582557 0
M  V30 1991 O 194.631 -1.16887 -1.40156 0
M  V30 1992 C 194.682 -3.37125 1.30496 0
M  V30 1993 O 194.403 -3.45201 2.69755 0
M  V30 1994 C 195.904 -4.29373 1.10243 0
M  V30 1995 H 193.124 -0.594452 0.311236 0
M  V30 1996 H 195.668 -1.42429 1.46745 0
M  V30 1997 H 193.823 -3.80109 0.748081 0
M  V30 1998 H 194.237 -4.38056 2.88457 0
M  V30 1999 H 195.711 -5.32394 1.45811 0
M  V30 2000 H 196.188 -4.39181 0.0409492 0
M  V30 2001 H 196.794 -3.92169 1.64571 0
M  V30 2002 N 195.109 -0.891671 -1.2995 0
M  V30 2003 C 196.039 -0.379797 -2.30391 0
M  V30 2004 C 197.02 0.540919 -1.6127 0
M  V30 2005 O 198.205 0.453352 -1.88834 0
M  V30 2006 C 195.335 0.400654 -3.44981 0
M  V30 2007 C 194.289 -0.428905 -4.25846 0
M  V30 2008 C 193.615 0.478557 -5.32554 0
M  V30 2009 C 194.915 -1.67458 -4.94727 0
M  V30 2010 H 196.609 -1.21914 -2.73454 0
M  V30 2011 H 194.155 -0.587675 -1.31462 0
M  V30 2012 H 196.108 0.769434 -4.14316 0
M  V30 2013 H 194.832 1.27371 -3.0074 0
M  V30 2014 H 193.491 -0.779911 -3.58208 0
M  V30 2015 H 193.139 1.34951 -4.84559 0
M  V30 2016 H 192.839 -0.0727433 -5.87555 0
M  V30 2017 H 194.363 0.843705 -6.04743 0
M  V30 2018 H 195.777 -1.376 -5.56542 0
M  V30 2019 H 194.174 -2.16659 -5.59624 0
M  V30 2020 H 195.244 -2.41518 -4.20473 0
M  V30 2021 N 196.587 1.43421 -0.653314 0
M  V30 2022 C 197.827 2.03689 -0.170346 0
M  V30 2023 C 198.191 1.50427 1.19314 0
M  V30 2024 O 199.392 2.0234 1.76952 0
M  V30 2025 C 197.663 3.56946 -0.180183 0
M  V30 2026 S 199.222 4.38171 0.234925 0
M  V30 2027 H 196.04 0.707345 -0.0719976 0
M  V30 2028 H 198.642 1.75486 -0.86167 0
M  V30 2029 H 197.346 3.93212 -1.17526 0
M  V30 2030 H 196.877 3.89791 0.531675 0
M  V30 2031 H 198.892 4.73808 1.47378 0
M  V30 2032 N 198.065 0.39524 1.52563 0
M  V30 2033 C 199.015 -0.4541 2.23432 0
M  V30 2034 C 199.999 -1.02482 1.24042 0
M  V30 2035 O 201.191 -0.949938 1.49349 0
M  V30 2036 C 198.32 -1.57769 3.049 0
M  V30 2037 C 197.406 -1.01842 4.1169 0
M  V30 2038 N 197.797 -0.184613 5.05463 0
M  V30 2039 C 196.095 -1.29033 4.26927 0
M  V30 2040 C 196.796 0.125013 5.81566 0
M  V30 2041 N 195.772 -0.480498 5.41472 0
M  V30 2042 H 199.574 0.189413 2.93289 0
M  V30 2043 H 197.088 0.204877 1.61102 0
M  V30 2044 H 199.085 -2.19862 3.54212 0
M  V30 2045 H 197.745 -2.22397 2.36579 0
M  V30 2046 H 198.756 0.178602 5.17592 0
M  V30 2047 H 195.433 -1.93721 3.69836 0
M  V30 2048 H 196.823 0.800962 6.67109 0
M  V30 2049 N 199.544 -1.57102 0.125237 0
M  V30 2050 C 200.793 -1.94582 -0.531095 0
M  V30 2051 C 201.106 -1.01126 -1.6743 0
M  V30 2052 O 202.312 -1.28097 -2.39381 0
M  V30 2053 C 200.768 -3.45839 -0.996164 0
M  V30 2054 C 200.376 -4.47842 0.118926 0
M  V30 2055 C 202.12 -3.92227 -1.62352 0
M  V30 2056 C 200.027 -5.90284 -0.363192 0
M  V30 2057 H 198.957 -0.726391 -0.20217 0
M  V30 2058 H 201.608 -1.82339 0.206092 0
M  V30 2059 H 199.99 -3.53338 -1.78796 0
M  V30 2060 H 201.164 -4.52018 0.895358 0
M  V30 2061 H 199.479 -4.11243 0.653324 0
M  V30 2062 H 202.076 -4.96069 -1.99548 0
M  V30 2063 H 202.419 -3.32552 -2.50429 0
M  V30 2064 H 202.952 -3.87554 -0.897019 0
M  V30 2065 H 199.691 -6.53728 0.481679 0
M  V30 2066 H 199.211 -5.89515 -1.10597 0
M  V30 2067 H 200.89 -6.41752 -0.822377 0
M  V30 2068 N 201.022 0.148545 -1.56898 0
M  V30 2069 C 201.952 1.18524 -2.01182 0
M  V30 2070 C 202.933 1.4489 -0.891123 0
M  V30 2071 O 204.118 1.55836 -1.15882 0
M  V30 2072 C 201.248 2.51879 -2.39112 0
M  V30 2073 C 200.202 2.40038 -3.54353 0
M  V30 2074 C 199.528 3.78089 -3.78091 0
M  V30 2075 C 200.828 1.88577 -4.87069 0
M  V30 2076 H 202.522 0.817029 -2.88036 0
M  V30 2077 H 200.068 0.391575 -1.38574 0
M  V30 2078 H 202.021 3.24627 -2.68692 0
M  V30 2079 H 200.745 2.90532 -1.49193 0
M  V30 2080 H 199.404 1.69742 -3.24936 0
M  V30 2081 H 199.052 4.14175 -2.85426 0
M  V30 2082 H 198.752 3.71028 -4.55645 0
M  V30 2083 H 200.276 4.52387 -4.10095 0
M  V30 2084 H 201.69 2.51117 -5.15377 0
M  V30 2085 H 200.087 1.9241 -5.68417 0
M  V30 2086 H 201.157 0.84136 -4.77545 0
M  V30 2087 N 202.5 1.5196 0.417844 0
M  V30 2088 C 203.448 1.75278 1.52907 0
M  V30 2089 C 204.442 0.619611 1.57662 0
M  V30 2090 O 205.648 0.801457 1.61173 0
M  V30 2091 H 202.023 0.554141 0.508362 0
M  V30 2092 H 203.994 2.68389 1.30422 0
M  V30 2093 C 202.743 1.91262 2.90369 0
M  V30 2094 H 202.066 2.77872 2.8745 0
M  V30 2095 H 203.506 2.11581 3.67436 0
M  V30 2096 C 201.965 0.677431 3.30019 0
M  V30 2097 O 202.495 -0.158799 4.01386 0
M  V30 2098 N 200.701 0.515851 2.85985 0
M  V30 2099 H 200.248 1.19744 2.28077 0
M  V30 2100 H 200.206 -0.309315 3.12875 0
M  V30 2101 N 203.978 -0.674533 1.42435 0
M  V30 2102 C 204.908 -1.80009 1.48724 0
M  V30 2103 C 205.889 -1.6659 0.343793 0
M  V30 2104 O 207.074 -1.86007 0.558137 0
M  V30 2105 C 204.204 -3.18306 1.38919 0
M  V30 2106 C 203.158 -3.46461 2.51294 0
M  V30 2107 C 202.484 -4.84335 2.26547 0
M  V30 2108 C 203.784 -3.43328 3.93603 0
M  V30 2109 H 205.478 -1.75004 2.42928 0
M  V30 2110 H 203.024 -0.840533 1.16923 0
M  V30 2111 H 204.977 -3.9678 1.41927 0
M  V30 2112 H 203.701 -3.2399 0.412094 0
M  V30 2113 H 202.36 -2.70348 2.47604 0
M  V30 2114 H 202.008 -4.86669 1.2713 0
M  V30 2115 H 201.708 -5.04136 3.01861 0
M  V30 2116 H 203.232 -5.65094 2.31304 0
M  V30 2117 H 204.646 -4.11772 3.98894 0
M  V30 2118 H 203.043 -3.74664 4.68771 0
M  V30 2119 H 204.113 -2.41897 4.20255 0
M  V30 2120 N 205.456 -1.28612 -0.910864 0
M  V30 2121 C 206.686 -1.1862 -1.69153 0
M  V30 2122 C 207.094 0.257324 -1.87442 0
M  V30 2123 O 206.437 1.18543 -1.40332 0
M  V30 2124 C 206.499 -1.81606 -3.10257 0
M  V30 2125 C 206.163 -3.30864 -3.15243 0
M  V30 2126 C 207.16 -4.27256 -2.96223 0
M  V30 2127 C 204.845 -3.71871 -3.37664 0
M  V30 2128 C 206.839 -5.62631 -2.99541 0
M  V30 2129 C 204.526 -5.07371 -3.40614 0
M  V30 2130 C 205.524 -6.02561 -3.21573 0
M  V30 2131 O 205.212 -7.35589 -3.2429 0
M  V30 2132 H 204.944 -0.412633 -0.535453 0
M  V30 2133 H 207.498 -1.70306 -1.14827 0
M  V30 2134 H 205.728 -1.24418 -3.66138 0
M  V30 2135 H 207.417 -1.66092 -3.70362 0
M  V30 2136 H 208.183 -3.9691 -2.78725 0
M  V30 2137 H 204.062 -2.98241 -3.5153 0
M  V30 2138 H 207.606 -6.36907 -2.84597 0
M  V30 2139 H 203.503 -5.37366 -3.57642 0
M  V30 2140 H 204.271 -7.44252 -3.40633 0
M  V30 2141 N 206.934 1.1197 -1.10907 0
M  V30 2142 C 208.35 1.35591 -0.841852 0
M  V30 2143 C 208.55 1.94233 0.536246 0
M  V30 2144 O 207.606 2.1717 1.28816 0
M  V30 2145 C 208.919 2.29284 -1.94549 0
M  V30 2146 C 210.467 2.42862 -1.97451 0
M  V30 2147 C 210.942 3.39873 -3.07002 0
M  V30 2148 N 212.433 3.47433 -3.06341 0
M  V30 2149 C 213.168 4.22421 -3.87748 0
M  V30 2150 N 212.664 5.00432 -4.79103 0
M  V30 2151 N 214.457 4.17876 -3.75946 0
M  V30 2152 H 206.608 0.722664 -1.99728 0
M  V30 2153 H 208.871 0.380635 -0.868229 0
M  V30 2154 H 208.577 1.93378 -2.93765 0
M  V30 2155 H 208.451 3.29452 -1.83688 0
M  V30 2156 H 210.838 2.78046 -0.988645 0
M  V30 2157 H 210.919 1.42566 -2.12388 0
M  V30 2158 H 210.563 3.05417 -4.05811 0
M  V30 2159 H 210.493 4.40011 -2.89306 0
M  V30 2160 H 212.984 2.91784 -2.40147 0
M  V30 2161 H 213.297 5.55002 -5.37766 0
M  V30 2162 H 211.642 4.99612 -4.83128 0
M  V30 2163 H 214.833 3.56016 -3.03924 0
M  V30 2164 H 215.006 4.76061 -4.39624 0
M  V30 2165 N 208.412 0.89855 1.29475 0
M  V30 2166 C 209.828 0.594483 1.48115 0
M  V30 2167 C 210.028 -0.86431 1.82022 0
M  V30 2168 O 209.084 -1.64457 1.91599 0
M  V30 2169 C 210.397 1.51932 2.59494 0
M  V30 2170 C 211.945 1.5244 2.7337 0
M  V30 2171 C 212.42 2.43548 3.87877 0
M  V30 2172 N 213.911 2.41589 3.95208 0
M  V30 2173 C 214.646 3.08789 4.83153 0
M  V30 2174 N 214.142 3.85265 5.75798 0
M  V30 2175 N 215.935 2.97952 4.76635 0
M  V30 2176 H 208.086 1.84207 1.05742 0
M  V30 2177 H 210.349 0.789251 0.525154 0
M  V30 2178 H 210.055 2.55865 2.41301 0
M  V30 2179 H 209.929 1.23899 3.56271 0
M  V30 2180 H 212.316 0.492518 2.90961 0
M  V30 2181 H 212.397 1.8451 1.77172 0
M  V30 2182 H 212.041 3.46829 3.71041 0
M  V30 2183 H 211.971 2.08788 4.83441 0
M  V30 2184 H 214.462 1.86025 3.28943 0
M  V30 2185 H 214.775 4.33598 6.39697 0
M  V30 2186 H 213.12 3.89371 5.75687 0
M  V30 2187 H 216.311 2.37723 4.03244 0
M  V30 2188 H 216.484 3.50599 5.44962 0
M  V30 2189 N 209.89 -1.43072 0.660911 0
M  V30 2190 C 210.853 -2.29194 -0.0166406 0
M  V30 2191 C 211.853 -1.42609 -0.742912 0
M  V30 2192 O 213.043 -1.64155 -0.583004 0
M  V30 2193 C 210.175 -3.24831 -1.0343 0
M  V30 2194 H 211.368 -2.90596 0.741208 0
M  V30 2195 H 208.921 -1.5048 0.422532 0
M  V30 2196 H 209.656 -2.68339 -1.82111 0
M  V30 2197 H 209.441 -3.88676 -0.517082 0
M  V30 2198 H 210.931 -3.89451 -1.50723 0
M  V30 2199 N 211.368 -0.403325 -1.52352 0
M  V30 2200 C 212.596 0.174012 -2.06167 0
M  V30 2201 C 213.011 1.39347 -1.27388 0
M  V30 2202 O 212.368 1.79597 -0.324201 0
M  V30 2203 C 212.419 0.530223 -3.5759 0
M  V30 2204 O 212.14 -0.640806 -4.33388 0
M  V30 2205 C 213.641 1.16192 -4.27802 0
M  V30 2206 H 210.861 0.0229464 -0.670608 0
M  V30 2207 H 213.405 -0.572604 -1.9632 0
M  V30 2208 H 211.56 1.22673 -3.67464 0
M  V30 2209 H 211.974 -0.344851 -5.23365 0
M  V30 2210 H 213.448 1.36141 -5.34948 0
M  V30 2211 H 213.925 2.13335 -3.83907 0
M  V30 2212 H 214.531 0.505775 -4.22282 0
M  V30 2213 N 212.846 1.57033 -0.133567 0
M  V30 2214 C 214.092 1.96764 0.515326 0
M  V30 2215 C 214.447 1.01653 1.63353 0
M  V30 2216 O 213.74 0.0491374 1.91537 0
M  V30 2217 C 213.934 3.40674 1.08057 0
M  V30 2218 C 213.763 4.49696 0.0186522 0
M  V30 2219 C 212.533 5.03567 -0.418174 0
M  V30 2220 C 214.731 5.08536 -0.767809 0
M  V30 2221 N 212.713 5.9618 -1.46434 0
M  V30 2222 C 214.084 5.97231 -1.6648 0
M  V30 2223 C 216.139 4.9115 -0.817087 0
M  V30 2224 C 214.842 6.70401 -2.60681 0
M  V30 2225 C 216.868 5.65012 -1.74687 0
M  V30 2226 C 216.23 6.53403 -2.63141 0
M  V30 2227 H 212.329 0.765919 0.157771 0
M  V30 2228 H 214.913 1.93395 -0.22506 0
M  V30 2229 H 213.084 3.44662 1.79061 0
M  V30 2230 H 214.816 3.67495 1.69497 0
M  V30 2231 H 211.571 4.73594 -0.0229803 0
M  V30 2232 H 211.995 6.47191 -1.98678 0
M  V30 2233 H 216.637 4.22543 -0.147326 0
M  V30 2234 H 214.355 7.38245 -3.28664 0
M  V30 2235 H 217.941 5.53559 -1.79063 0
M  V30 2236 H 216.821 7.09556 -3.33917 0
M  V30 2237 N 214.325 -0.140222 1.56975 0
M  V30 2238 C 215.255 -1.17456 2.01808 0
M  V30 2239 C 216.236 -1.44415 0.898794 0
M  V30 2240 O 217.421 -1.5522 1.16707 0
M  V30 2241 C 214.551 -2.50607 2.40444 0
M  V30 2242 C 213.505 -2.38155 3.55621 0
M  V30 2243 C 212.831 -3.76078 3.80091 0
M  V30 2244 C 214.131 -1.85991 4.88062 0
M  V30 2245 H 215.825 -0.801743 2.88466 0
M  V30 2246 H 213.371 -0.38422 1.38779 0
M  V30 2247 H 215.324 -3.23197 2.7041 0
M  V30 2248 H 214.048 -2.89737 1.50732 0
M  V30 2249 H 212.707 -1.68016 3.25832 0
M  V30 2250 H 212.355 -4.12656 2.87618 0
M  V30 2251 H 212.055 -3.68606 4.57606 0
M  V30 2252 H 213.579 -4.50206 4.12488 0
M  V30 2253 H 214.993 -2.4838 5.16701 0
M  V30 2254 H 213.39 -1.89393 5.6943 0
M  V30 2255 H 214.46 -0.816023 4.77984 0
M  V30 2256 N 215.803 -1.52179 -0.40978 0
M  V30 2257 C 216.753 -1.71857 -1.49831 0
M  V30 2258 C 217.737 -0.572469 -1.50372 0
M  V30 2259 O 218.929 -0.829509 -1.56359 0
M  V30 2260 C 216.058 -1.87206 -2.87765 0
M  V30 2261 C 215.144 -3.07685 -2.91875 0
M  V30 2262 N 215.535 -4.30403 -2.65683 0
M  V30 2263 C 213.833 -3.07505 -3.23043 0
M  V30 2264 C 214.534 -5.11868 -2.76344 0
M  V30 2265 N 213.51 -4.47101 -3.09195 0
M  V30 2266 H 217.312 -2.64381 -1.28375 0
M  V30 2267 H 214.826 -1.50203 -0.617479 0
M  V30 2268 H 216.823 -1.99419 -3.66111 0
M  V30 2269 H 215.483 -0.958814 -3.10221 0
M  V30 2270 H 216.494 -4.58887 -2.4009 0
M  V30 2271 H 213.171 -2.25915 -3.51096 0
M  V30 2272 H 214.561 -6.19634 -2.59814 0
M  V30 2273 N 217.281 0.66697 -1.42791 0
M  V30 2274 C 218.213 1.7925 -1.42836 0
M  V30 2275 C 219.226 1.59496 -0.326333 0
M  V30 2276 O 220.415 1.6847 -0.589916 0
M  V30 2277 C 217.515 3.16476 -1.21229 0
M  V30 2278 C 216.688 3.63011 -2.44013 0
M  V30 2279 C 215.747 4.78993 -2.17834 0
M  V30 2280 O 214.773 4.89137 -2.91091 0
M  V30 2281 N 215.975 5.68248 -1.18635 0
M  V30 2282 H 218.74 1.79695 -2.39854 0
M  V30 2283 H 216.301 0.850338 -1.37771 0
M  V30 2284 H 218.293 3.91734 -1.01621 0
M  V30 2285 H 216.863 3.10884 -0.32706 0
M  V30 2286 H 216.083 2.78346 -2.79137 0
M  V30 2287 H 217.371 3.90845 -3.25757 0
M  V30 2288 H 216.769 5.62712 -0.580615 0
M  V30 2289 H 215.326 6.43285 -1.05013 0
M  V30 2290 N 218.759 1.29093 0.90403 0
M  V30 2291 C 219.722 1.1386 1.98919 0
M  V30 2292 C 220.722 0.0753457 1.60623 0
M  V30 2293 O 221.912 0.321931 1.71199 0
M  V30 2294 C 219.044 0.740198 3.32767 0
M  V30 2295 H 220.237 2.10246 2.13861 0
M  V30 2296 H 217.79 1.12218 1.08797 0
M  V30 2297 H 218.525 -0.223997 3.23525 0
M  V30 2298 H 218.31 1.50838 3.61926 0
M  V30 2299 H 219.8 0.656546 4.12407 0
M  V30 2300 N 220.237 -1.11381 1.11499 0
M  V30 2301 C 221.167 -2.19509 0.796125 0
M  V30 2302 C 222.148 -1.68458 -0.235796 0
M  V30 2303 O 223.333 -1.93947 -0.0991344 0
M  V30 2304 C 220.463 -3.46475 0.239205 0
M  V30 2305 C 219.417 -4.10744 1.20307 0
M  V30 2306 C 218.743 -5.32293 0.50683 0
M  V30 2307 C 220.043 -4.55597 2.55399 0
M  V30 2308 H 221.737 -2.46439 1.70024 0
M  V30 2309 H 219.283 -1.18446 0.818935 0
M  V30 2310 H 221.236 -4.214 0.00392006 0
M  V30 2311 H 219.96 -3.19006 -0.700206 0
M  V30 2312 H 218.619 -3.37813 1.42399 0
M  V30 2313 H 218.267 -5.01095 -0.437408 0
M  V30 2314 H 217.967 -5.76243 1.1497 0
M  V30 2315 H 219.491 -6.09956 0.280351 0
M  V30 2316 H 220.905 -5.21841 2.37391 0
M  V30 2317 H 219.302 -5.10363 3.15673 0
M  V30 2318 H 220.372 -3.69013 3.14575 0
M  V30 2319 N 221.715 -0.905404 -1.28997 0
M  V30 2320 C 223.131 -0.60233 -1.47798 0
M  V30 2321 C 223.331 0.854645 -1.82478 0
M  V30 2322 O 222.387 1.63439 -1.92468 0
M  V30 2323 C 223.7 -1.53306 -2.58685 0
M  V30 2324 C 225.248 -1.53887 -2.72558 0
M  V30 2325 C 225.723 -2.45602 -3.86579 0
M  V30 2326 N 227.214 -2.43681 -3.93921 0
M  V30 2327 C 227.949 -3.11347 -4.81509 0
M  V30 2328 N 227.445 -3.88313 -5.73746 0
M  V30 2329 N 229.238 -3.00476 -4.75048 0
M  V30 2330 H 221.389 -1.84765 -1.04764 0
M  V30 2331 H 223.652 -0.792025 -0.520961 0
M  V30 2332 H 223.358 -2.57141 -2.39941 0
M  V30 2333 H 223.232 -1.25787 -3.55609 0
M  V30 2334 H 225.619 -0.507941 -2.90696 0
M  V30 2335 H 225.7 -1.85447 -1.76191 0
M  V30 2336 H 225.344 -3.48792 -3.69197 0
M  V30 2337 H 225.274 -2.11349 -4.82327 0
M  V30 2338 H 227.765 -1.87767 -3.27951 0
M  V30 2339 H 228.078 -4.36985 -6.37389 0
M  V30 2340 H 226.423 -3.92419 -5.73614 0
M  V30 2341 H 229.614 -2.39858 -4.01977 0
M  V30 2342 H 229.787 -3.53485 -5.43095 0
M  V30 2343 N 223.193 1.4272 -0.668489 0
M  V30 2344 C 224.103 2.34596 0.0139753 0
M  V30 2345 C 225.119 1.5474 0.795703 0
M  V30 2346 O 226.295 1.87334 0.739466 0
M  V30 2347 C 223.36 3.33202 0.957982 0
M  V30 2348 C 222.421 4.28957 0.17149 0
M  V30 2349 C 221.654 5.22853 1.07053 0
M  V30 2350 O 221.877 5.21531 2.31001 0
M  V30 2351 O 220.811 5.9952 0.534727 0
M  V30 2352 H 224.637 2.9448 -0.742661 0
M  V30 2353 H 222.222 1.43117 -0.428705 0
M  V30 2354 H 224.104 3.93796 1.50008 0
M  V30 2355 H 222.779 2.758 1.69458 0
M  V30 2356 H 221.686 3.71796 -0.414558 0
M  V30 2357 H 223.019 4.89383 -0.52586 0
M  V30 2358 N 224.671 0.411399 1.52136 0
M  V30 2359 C 225.919 -0.163322 2.01439 0
M  V30 2360 C 226.24 -1.45453 1.29879 0
M  V30 2361 O 225.51 -1.91225 0.4254 0
M  V30 2362 H 224.09 -0.0633447 0.744309 0
M  V30 2363 H 226.752 0.548161 1.87033 0
M  V30 2364 H 225.848 -0.357817 3.10042 0
M  V30 2365 N 226.149 -1.5696 0.141893 0
M  V30 2366 C 227.377 -2.00322 -0.517579 0
M  V30 2367 C 227.792 -1.02193 -1.58752 0
M  V30 2368 O 227.149 -0.0181619 -1.82491 0
M  V30 2369 C 227.2 -3.43618 -1.12289 0
M  V30 2370 O 226.921 -4.37995 -0.0956929 0
M  V30 2371 C 228.422 -4.02231 -1.86347 0
M  V30 2372 H 225.642 -0.657243 -0.135177 0
M  V30 2373 H 228.186 -2.03146 0.234973 0
M  V30 2374 H 226.341 -3.41662 -1.82609 0
M  V30 2375 H 226.755 -5.21729 -0.538469 0
M  V30 2376 H 228.229 -5.04509 -2.23997 0
M  V30 2377 H 228.706 -3.42655 -2.74744 0
M  V30 2378 H 229.312 -4.07802 -1.20737 0
M  V30 2379 N 227.627 0.131896 -1.57047 0
M  V30 2380 C 229.043 0.485031 -1.52051 0
M  V30 2381 C 229.243 1.82563 -0.85281 0
M  V30 2382 O 228.299 2.48817 -0.429694 0
M  V30 2383 C 229.612 0.481409 -2.96821 0
M  V30 2384 C 231.16 0.565868 -3.07842 0
M  V30 2385 C 231.635 0.592762 -4.54148 0
M  V30 2386 N 233.126 0.654564 -4.58552 0
M  V30 2387 C 233.861 0.696608 -5.69153 0
M  V30 2388 N 233.357 0.697078 -6.89284 0
M  V30 2389 N 235.15 0.738639 -5.57226 0
M  V30 2390 H 227.301 -0.746664 -1.98843 0
M  V30 2391 H 229.564 -0.273999 -0.90754 0
M  V30 2392 H 229.27 -0.435731 -3.4899 0
M  V30 2393 H 229.144 1.3139 -3.53577 0
M  V30 2394 H 231.531 1.47343 -2.55684 0
M  V30 2395 H 231.612 -0.29406 -2.54104 0
M  V30 2396 H 231.256 -0.310701 -5.06949 0
M  V30 2397 H 231.186 1.46939 -5.05684 0
M  V30 2398 H 233.677 0.660887 -3.72076 0
M  V30 2399 H 233.99 0.731426 -7.69331 0
M  V30 2400 H 232.335 0.66471 -6.91814 0
M  V30 2401 H 235.526 0.735545 -4.62285 0
M  V30 2402 H 235.699 0.767938 -6.43434 0
M  V30 2403 N 229.106 1.52395 0.401703 0
M  V30 2404 C 230.352 1.67065 1.14966 0
M  V30 2405 C 230.685 0.403052 1.89971 0
M  V30 2406 O 229.96 -0.598774 1.85054 0
M  V30 2407 C 230.243 2.8975 2.13815 0
M  V30 2408 C 230.096 4.26578 1.42658 0
M  V30 2409 C 231.415 3.07965 3.14397 0
M  V30 2410 H 228.534 0.607968 0.416587 0
M  V30 2411 H 231.176 1.84965 0.434511 0
M  V30 2412 H 229.326 2.74619 2.74803 0
M  V30 2413 H 230.998 4.53451 0.847329 0
M  V30 2414 H 229.241 4.27639 0.72849 0
M  V30 2415 H 229.912 5.08483 2.14823 0
M  V30 2416 H 232.388 3.22043 2.63491 0
M  V30 2417 H 231.264 3.95308 3.80819 0
M  V30 2418 H 231.525 2.21611 3.82545 0
M  V30 2419 N 230.584 -0.659388 1.43143 0
M  V30 2420 C 231.516 -1.7849 1.43784 0
M  V30 2421 C 232.529 -1.5932 0.334787 0
M  V30 2422 O 233.718 -1.68155 0.598842 0
M  V30 2423 C 230.818 -3.15828 1.22906 0
M  V30 2424 C 229.991 -3.61711 2.45934 0
M  V30 2425 C 229.05 -4.77831 2.20371 0
M  V30 2426 O 228.076 -4.87586 2.93681 0
M  V30 2427 N 229.278 -5.67611 1.21647 0
M  V30 2428 H 232.043 -1.7842 2.40803 0
M  V30 2429 H 229.604 -0.84302 1.3822 0
M  V30 2430 H 231.596 -3.91189 1.03697 0
M  V30 2431 H 230.166 -3.10707 0.343542 0
M  V30 2432 H 229.386 -2.76861 2.80609 0
M  V30 2433 H 230.674 -3.89112 3.27825 0
M  V30 2434 H 230.072 -5.62397 0.610449 0
M  V30 2435 H 228.629 -6.42719 1.08423 0
M  V30 2436 N 232.062 -1.29571 -0.897171 0
M  V30 2437 C 233.287 -1.20705 -1.68656 0
M  V30 2438 C 233.712 0.228582 -1.86706 0
M  V30 2439 O 233.07 1.16494 -1.3892 0
M  V30 2440 C 233.118 -1.9282 -3.04717 0
M  V30 2441 O 232.222 -1.24697 -3.93096 0
M  V30 2442 H 231.563 -0.418126 -0.515816 0
M  V30 2443 H 234.093 -1.71183 -1.12061 0
M  V30 2444 H 234.103 -2.01372 -3.54843 0
M  V30 2445 H 232.778 -2.97239 -2.90899 0
M  V30 2446 H 231.355 -1.2442 -3.51531 0
M  V30 2447 N 233.54 1.10788 -1.12088 0
M  V30 2448 C 234.786 1.82942 -0.875226 0
M  V30 2449 C 235.119 1.84779 0.597538 0
M  V30 2450 O 234.394 1.30578 1.44152 0
M  V30 2451 C 234.677 3.29789 -1.44606 0
M  V30 2452 C 234.53 3.36307 -2.98693 0
M  V30 2453 C 235.849 4.26064 -1.10261 0
M  V30 2454 H 232.968 0.664195 -0.319397 0
M  V30 2455 H 235.61 1.29867 -1.38689 0
M  V30 2456 H 233.76 3.75118 -1.01089 0
M  V30 2457 H 235.432 2.99487 -3.50864 0
M  V30 2458 H 233.675 2.76318 -3.34411 0
M  V30 2459 H 234.346 4.39694 -3.33726 0
M  V30 2460 H 236.822 3.88951 -1.4784 0
M  V30 2461 H 235.698 5.27183 -1.52869 0
M  V30 2462 H 235.959 4.42098 -0.0142953 0
M  V30 2463 N 235.018 0.912232 1.28515 0
M  V30 2464 C 235.928 0.404506 2.31086 0
M  V30 2465 C 236.944 -0.50707 1.66448 0
M  V30 2466 O 238.12 -0.393624 1.97516 0
M  V30 2467 C 235.185 -0.348572 3.44943 0
M  V30 2468 C 234.246 0.59604 4.25142 0
M  V30 2469 C 233.479 -0.121194 5.33562 0
M  V30 2470 O 233.702 -1.34317 5.5436 0
M  V30 2471 O 232.636 0.542716 5.99448 0
M  V30 2472 H 236.462 1.25579 2.76521 0
M  V30 2473 H 234.047 0.676998 1.33181 0
M  V30 2474 H 235.929 -0.77395 4.14232 0
M  V30 2475 H 234.604 -1.17571 3.01594 0
M  V30 2476 H 233.511 1.07079 3.58448 0
M  V30 2477 H 234.844 1.38995 4.72167 0
M  V30 2478 N 236.496 -1.42363 0.676048 0
M  V30 2479 C 237.428 -2.29164 -0.0404605 0
M  V30 2480 C 238.441 -1.43747 -0.764245 0
M  V30 2481 O 239.63 -1.67453 -0.618195 0
M  V30 2482 C 236.73 -3.21196 -1.08103 0
M  V30 2483 C 235.903 -4.35273 -0.430812 0
M  V30 2484 C 234.962 -5.08017 -1.37133 0
M  V30 2485 O 233.988 -5.62494 -0.87116 0
M  V30 2486 N 235.19 -5.13647 -2.70456 0
M  V30 2487 H 237.955 -2.91298 0.704667 0
M  V30 2488 H 235.516 -1.53303 0.520559 0
M  V30 2489 H 237.508 -3.66728 -1.71152 0
M  V30 2490 H 236.078 -2.60505 -1.72788 0
M  V30 2491 H 235.298 -3.92372 0.379209 0
M  V30 2492 H 236.586 -5.08795 0.0221132 0
M  V30 2493 H 235.984 -4.708 -3.1363 0
M  V30 2494 H 234.541 -5.62821 -3.28749 0
M  V30 2495 N 237.974 -0.419461 -1.51915 0
M  V30 2496 C 239.223 0.154346 -2.01109 0
M  V30 2497 C 239.536 1.45338 -1.30905 0
M  V30 2498 O 240.742 2.10906 -1.7097 0
M  V30 2499 C 239.198 0.325615 -3.58424 0
M  V30 2500 C 238.806 -0.961934 -4.37551 0
M  V30 2501 C 240.55 0.854155 -4.15818 0
M  V30 2502 C 238.457 -0.757287 -5.86531 0
M  V30 2503 H 237.387 0.0614563 -0.751491 0
M  V30 2504 H 240.038 -0.54649 -1.75173 0
M  V30 2505 H 238.42 1.08903 -3.80731 0
M  V30 2506 H 239.594 -1.7323 -4.26999 0
M  V30 2507 H 237.909 -1.41766 -3.91524 0
M  V30 2508 H 240.506 1.02346 -5.24814 0
M  V30 2509 H 240.849 1.83172 -3.73837 0
M  V30 2510 H 241.382 0.149528 -3.97519 0
M  V30 2511 H 238.121 -1.70671 -6.32892 0
M  V30 2512 H 237.641 -0.0264061 -5.99794 0
M  V30 2513 H 239.32 -0.403482 -6.45741 0
M  V30 2514 N 239.452 1.56882 -0.150215 0
M  V30 2515 C 240.868 1.58263 0.20617 0
M  V30 2516 C 241.068 1.16464 1.64434 0
M  V30 2517 O 240.124 0.866422 2.3717 0
M  V30 2518 C 241.437 3.00649 -0.0555025 0
M  V30 2519 C 242.985 3.12999 0.00795388 0
M  V30 2520 C 243.46 4.5744 -0.226429 0
M  V30 2521 N 244.951 4.62875 -0.173469 0
M  V30 2522 C 245.686 5.72454 -0.329288 0
M  V30 2523 N 245.182 6.90669 -0.543005 0
M  V30 2524 N 246.975 5.61467 -0.266666 0
M  V30 2525 H 239.126 1.82345 -1.08922 0
M  V30 2526 H 241.389 0.844149 -0.431413 0
M  V30 2527 H 241.095 3.3563 -1.05096 0
M  V30 2528 H 240.969 3.71337 0.66246 0
M  V30 2529 H 243.356 2.77857 0.993966 0
M  V30 2530 H 243.437 2.4479 -0.742388 0
M  V30 2531 H 243.081 4.93287 -1.20956 0
M  V30 2532 H 243.011 5.2378 0.544274 0
M  V30 2533 H 245.502 3.77898 -0.0130709 0
M  V30 2534 H 245.815 7.70045 -0.651922 0
M  V30 2535 H 244.16 6.92581 -0.579366 0
M  V30 2536 H 247.351 4.67992 -0.100441 0
M  V30 2537 H 247.524 6.46816 -0.391535 0
M  V30 2538 N 240.93 -0.123565 1.57115 0
M  V30 2539 C 241.84 -1.17074 2.033 0
M  V30 2540 C 242.856 -1.4561 0.952559 0
M  V30 2541 O 244.032 -1.56817 1.26374 0
M  V30 2542 C 241.097 -2.47857 2.42421 0
M  V30 2543 C 240.158 -2.26758 3.64526 0
M  V30 2544 C 239.391 -3.51305 4.01771 0
M  V30 2545 O 239.614 -4.5843 3.39409 0
M  V30 2546 O 238.548 -3.42578 4.94898 0
M  V30 2547 H 242.374 -0.808555 2.92739 0
M  V30 2548 H 239.959 -0.334027 1.45618 0
M  V30 2549 H 241.841 -3.2492 2.68338 0
M  V30 2550 H 240.516 -2.83558 1.5613 0
M  V30 2551 H 239.423 -1.47569 3.43765 0
M  V30 2552 H 240.756 -1.95963 4.51508 0
M  V30 2553 N 242.408 -1.52605 -0.393616 0
M  V30 2554 C 243.654 -1.67672 -1.14079 0
M  V30 2555 C 243.987 -0.413121 -1.89755 0
M  V30 2556 O 243.262 0.588952 -1.85369 0
M  V30 2557 C 243.545 -2.9088 -2.12276 0
M  V30 2558 C 243.398 -4.27329 -1.40394 0
M  V30 2559 C 244.717 -3.09628 -3.12759 0
M  V30 2560 H 241.836 -0.610168 -0.413356 0
M  V30 2561 H 244.478 -1.85193 -0.424696 0
M  V30 2562 H 242.628 -2.76073 -2.73342 0
M  V30 2563 H 244.3 -4.53894 -0.82327 0
M  V30 2564 H 242.543 -4.2802 -0.705801 0
M  V30 2565 H 243.214 -5.09615 -2.12123 0
M  V30 2566 H 245.69 -3.23436 -2.61779 0
M  V30 2567 H 244.566 -3.97322 -3.78717 0
M  V30 2568 H 244.827 -2.23637 -3.81365 0
M  V30 2569 N 243.887 0.651787 -1.4349 0
M  V30 2570 C 244.85 1.74647 -1.48429 0
M  V30 2571 C 245.85 1.56513 -0.368817 0
M  V30 2572 O 247.04 1.62385 -0.630623 0
M  V30 2573 C 244.172 3.13533 -1.33827 0
M  V30 2574 H 245.365 1.71649 -2.4592 0
M  V30 2575 H 242.918 0.863573 -1.30277 0
M  V30 2576 H 243.653 3.22142 -0.37349 0
M  V30 2577 H 243.438 3.28101 -2.14691 0
M  V30 2578 H 244.928 3.93356 -1.40218 0
M  V30 2579 N 245.365 1.30045 0.890287 0
M  V30 2580 C 246.59 1.21598 1.68014 0
M  V30 2581 C 247.015 -0.218678 1.86825 0
M  V30 2582 O 246.373 -1.15756 1.39536 0
M  V30 2583 C 246.421 1.94434 3.03691 0
M  V30 2584 O 245.525 1.2678 3.92429 0
M  V30 2585 H 244.866 0.420856 0.513592 0
M  V30 2586 H 247.396 1.71775 1.11151 0
M  V30 2587 H 247.406 2.03251 3.5377 0
M  V30 2588 H 246.081 2.98777 2.89318 0
M  V30 2589 H 244.658 1.26282 3.50866 0
M  V30 2590 N 246.843 -1.10192 1.12674 0
M  V30 2591 C 248.091 -1.81845 0.881861 0
M  V30 2592 C 248.412 -1.85737 -0.593867 0
M  V30 2593 O 247.682 -1.33724 -1.4316 0
M  V30 2594 H 246.262 -0.673432 0.323261 0
M  V30 2595 H 248.924 -1.33316 1.42172 0
M  V30 2596 H 248.02 -2.85288 1.2656 0
M  V30 2597 N 248.321 -0.919034 -1.28029 0
M  V30 2598 C 249.284 -0.416182 -2.2539 0
M  V30 2599 C 250.284 0.460438 -1.54067 0
M  V30 2600 O 251.474 0.262744 -1.72207 0
M  V30 2601 C 248.606 0.402707 -3.38513 0
M  V30 2602 H 249.799 -1.27629 -2.71387 0
M  V30 2603 H 247.352 -0.698919 -1.39803 0
M  V30 2604 H 248.087 1.282 -2.97885 0
M  V30 2605 H 247.872 -0.225698 -3.9145 0
M  V30 2606 H 249.362 0.745191 -4.10897 0
M  V30 2607 N 249.799 1.42003 -0.683588 0
M  V30 2608 C 250.762 2.29191 -0.0198243 0
M  V30 2609 C 251.762 1.43773 0.72013 0
M  V30 2610 O 252.952 1.65061 0.556815 0
M  V30 2611 C 250.084 3.26435 0.982487 0
M  V30 2612 H 251.277 2.8938 -0.787345 0
M  V30 2613 H 248.83 1.49789 -0.446418 0
M  V30 2614 H 249.565 2.71203 1.77819 0
M  V30 2615 H 249.35 3.89449 0.455182 0
M  V30 2616 H 250.84 3.918 1.44508 0
M  V30 2617 N 251.277 0.427512 1.51691 0
M  V30 2618 C 252.693 0.0792977 1.59403 0
M  V30 2619 C 252.893 -1.41035 1.43914 0
M  V30 2620 O 251.949 -2.17922 1.27539 0
M  V30 2621 C 253.262 0.590636 2.94842 0
M  V30 2622 C 254.81 0.550215 3.08126 0
M  V30 2623 C 255.285 1.03836 4.46074 0
M  V30 2624 N 256.776 0.995943 4.52366 0
M  V30 2625 C 257.511 1.34463 5.57411 0
M  V30 2626 N 257.007 1.76569 6.69922 0
M  V30 2627 N 258.8 1.26343 5.47717 0
M  V30 2628 H 250.951 1.39687 1.60004 0
M  V30 2629 H 253.214 0.575003 0.753708 0
M  V30 2630 H 252.92 1.63251 3.11516 0
M  V30 2631 H 252.794 0.0102061 3.77199 0
M  V30 2632 H 255.181 -0.482654 2.91126 0
M  V30 2633 H 255.262 1.16693 2.27632 0
M  V30 2634 H 254.906 2.06965 4.63819 0
M  V30 2635 H 254.836 0.398286 5.25092 0
M  V30 2636 H 257.327 0.68661 3.7161 0
M  V30 2637 H 257.64 2.01438 7.46085 0
M  V30 2638 H 255.985 1.80488 6.71155 0
M  V30 2639 H 259.176 0.933209 4.58703 0
M  V30 2640 H 259.349 1.53846 6.29472 0
M  V30 2641 N 252.755 -1.56801 0.158532 0
M  V30 2642 C 254.004 -1.95665 -0.489702 0
M  V30 2643 C 254.317 -1.04654 -1.65248 0
M  V30 2644 O 255.523 -1.33146 -2.3661 0
M  V30 2645 C 253.979 -3.47874 -0.922582 0
M  V30 2646 C 253.587 -4.47489 0.213893 0
M  V30 2647 C 255.331 -3.95583 -1.53996 0
M  V30 2648 C 253.238 -5.90921 -0.237903 0
M  V30 2649 H 252.168 -0.730516 -0.186716 0
M  V30 2650 H 254.819 -1.81861 0.244722 0
M  V30 2651 H 253.201 -3.57051 -1.71261 0
M  V30 2652 H 254.375 -4.50017 0.991036 0
M  V30 2653 H 252.69 -4.09764 0.740407 0
M  V30 2654 H 255.287 -5.0019 -1.8898 0
M  V30 2655 H 255.63 -3.37789 -2.43319 0
M  V30 2656 H 256.163 -3.8937 -0.814611 0
M  V30 2657 H 252.902 -6.52559 0.620236 0
M  V30 2658 H 252.422 -5.91729 -0.980676 0
M  V30 2659 H 254.101 -6.43352 -0.686067 0
M  V30 2660 N 254.233 0.115231 -1.57178 0
M  V30 2661 C 255.649 0.468877 -1.52557 0
M  V30 2662 C 255.849 1.81649 -0.872125 0
M  V30 2663 O 254.905 2.48347 -0.45606 0
M  V30 2664 C 256.218 0.4499 -2.97315 0
M  V30 2665 C 257.766 0.533185 -3.08425 0
M  V30 2666 C 258.241 0.54456 -4.54751 0
M  V30 2667 N 259.732 0.605892 -4.5922 0
M  V30 2668 C 260.467 0.636203 -5.6986 0
M  V30 2669 N 259.963 0.623931 -6.89985 0
M  V30 2670 N 261.756 0.679496 -5.57978 0
M  V30 2671 H 253.907 -0.767712 -1.9804 0
M  V30 2672 H 256.17 -0.283609 -0.904583 0
M  V30 2673 H 255.876 -0.472721 -3.48509 0
M  V30 2674 H 255.75 1.27632 -3.5495 0
M  V30 2675 H 258.137 1.44623 -2.57232 0
M  V30 2676 H 258.218 -0.320995 -2.53778 0
M  V30 2677 H 257.862 -0.364452 -5.06591 0
M  V30 2678 H 257.792 1.41568 -5.07214 0
M  V30 2679 H 260.283 0.621386 -3.72756 0
M  V30 2680 H 260.596 0.649787 -7.70063 0
M  V30 2681 H 258.941 0.591296 -6.9248 0
M  V30 2682 H 262.132 0.686472 -4.63039 0
M  V30 2683 H 262.305 0.69965 -6.44212 0
M  V30 2684 N 255.711 1.52812 0.385517 0
M  V30 2685 C 256.959 1.67694 1.12797 0
M  V30 2686 C 257.28 0.421115 1.90399 0
M  V30 2687 O 256.55 -0.564551 1.87589 0
M  V30 2688 H 255.13 0.618155 0.419396 0
M  V30 2689 H 257.792 1.89938 0.436972 0
M  V30 2690 H 256.888 2.52896 1.82894 0
M  V30 2691 N 257.189 -0.644168 1.43834 0
M  V30 2692 C 258.099 -1.78563 1.52159 0
M  V30 2693 C 259.115 -1.69147 0.408069 0
M  V30 2694 O 260.291 -1.90156 0.663524 0
M  V30 2695 C 257.356 -3.14888 1.45073 0
M  V30 2696 C 256.417 -3.36034 2.6717 0
M  V30 2697 C 255.65 -4.65855 2.60413 0
M  V30 2698 O 255.873 -5.45805 1.65689 0
M  V30 2699 O 254.807 -4.88918 3.5106 0
M  V30 2700 H 258.633 -1.74494 2.48567 0
M  V30 2701 H 256.218 -0.80378 1.25935 0
M  V30 2702 H 258.1 -3.96179 1.43597 0
M  V30 2703 H 256.775 -3.19528 0.518037 0
M  V30 2704 H 255.682 -2.54472 2.74217 0
M  V30 2705 H 257.015 -3.36247 3.59442 0
M  V30 2706 N 258.668 -1.30515 -0.883378 0
M  V30 2707 C 259.896 -1.22359 -1.66841 0
M  V30 2708 C 260.311 0.213296 -1.87591 0
M  V30 2709 O 259.668 1.14075 -1.42454 0
M  V30 2710 C 259.719 -1.95011 -3.04389 0
M  V30 2711 O 259.44 -3.3309 -2.84575 0
M  V30 2712 C 260.941 -1.93532 -3.98824 0
M  V30 2713 H 258.161 -0.423371 -0.520575 0
M  V30 2714 H 260.705 -1.72167 -1.10357 0
M  V30 2715 H 258.86 -1.48997 -3.57601 0
M  V30 2716 H 259.274 -3.69907 -3.71846 0
M  V30 2717 H 260.748 -2.48902 -4.92699 0
M  V30 2718 H 261.225 -0.914627 -4.29571 0
M  V30 2719 H 261.831 -2.39364 -3.51547 0
M  V30 2720 N 260.146 1.09593 -1.13257 0
M  V30 2721 C 261.076 2.18214 -0.830946 0
M  V30 2722 C 262.057 1.68812 0.208966 0
M  V30 2723 O 263.242 1.9408 0.0682666 0
M  V30 2724 C 260.372 3.46051 -0.294296 0
M  V30 2725 C 259.326 4.08778 -1.26826 0
M  V30 2726 C 258.652 5.31419 -0.591449 0
M  V30 2727 C 259.952 4.51476 -2.62615 0
M  V30 2728 H 261.646 2.43703 -1.73923 0
M  V30 2729 H 259.192 1.17128 -0.837675 0
M  V30 2730 H 261.145 4.2134 -0.0709606 0
M  V30 2731 H 259.869 3.20079 0.649366 0
M  V30 2732 H 258.528 3.35505 -1.47756 0
M  V30 2733 H 258.176 5.01727 0.357633 0
M  V30 2734 H 257.876 5.74341 -1.24123 0
M  V30 2735 H 259.4 6.09433 -0.377355 0
M  V30 2736 H 260.814 5.17999 -2.45663 0
M  V30 2737 H 259.211 5.05277 -3.23752 0
M  V30 2738 H 260.281 3.63962 -3.20406 0
M  V30 2739 N 261.624 0.925811 1.2754 0
M  V30 2740 C 262.872 0.564138 1.94067 0
M  V30 2741 C 263.193 -0.897188 1.73134 0
M  V30 2742 O 262.463 -1.63573 1.07799 0
M  V30 2743 H 261.043 0.205645 0.718136 0
M  V30 2744 H 263.705 1.1778 1.55287 0
M  V30 2745 H 262.801 0.76881 3.02483 0
M  V30 2746 N 263.102 -1.41638 0.69111 0
M  V30 2747 C 264.351 -2.00526 0.217318 0
M  V30 2748 C 264.664 -1.55353 -1.18848 0
M  V30 2749 O 265.87 -2.06769 -1.75951 0
M  V30 2750 C 264.326 -3.58313 0.337639 0
M  V30 2751 C 263.934 -4.12469 1.74852 0
M  V30 2752 C 265.678 -4.24431 -0.0766066 0
M  V30 2753 C 263.585 -5.62675 1.82074 0
M  V30 2754 H 262.515 -0.750008 0.0774893 0
M  V30 2755 H 265.166 -1.6217 0.858661 0
M  V30 2756 H 263.548 -3.9425 -0.371879 0
M  V30 2757 H 264.722 -3.8796 2.48644 0
M  V30 2758 H 263.037 -3.58861 2.11205 0
M  V30 2759 H 265.634 -5.34683 -0.0430284 0
M  V30 2760 H 265.977 -4.01101 -1.1146 0
M  V30 2761 H 266.51 -3.93512 0.582476 0
M  V30 2762 H 263.249 -5.90826 2.83911 0
M  V30 2763 H 262.769 -5.89124 1.12661 0
M  V30 2764 H 264.448 -6.27371 1.58159 0
M  V30 2765 N 264.58 -0.43555 -1.51462 0
M  V30 2766 C 265.829 0.133007 -2.01261 0
M  V30 2767 C 266.142 1.43942 -1.32439 0
M  V30 2768 O 267.348 2.09081 -1.73198 0
M  V30 2769 C 265.804 0.287581 -3.58749 0
M  V30 2770 C 265.412 -1.00829 -4.36506 0
M  V30 2771 C 267.156 0.810004 -4.167 0
M  V30 2772 C 265.063 -0.819454 -5.85695 0
M  V30 2773 H 263.993 0.0534822 -0.752101 0
M  V30 2774 H 266.644 -0.565038 -1.74584 0
M  V30 2775 H 265.026 1.04859 -3.81865 0
M  V30 2776 H 266.2 -1.77749 -4.25138 0
M  V30 2777 H 264.515 -1.45911 -3.89999 0
M  V30 2778 H 267.112 0.967743 -5.2587 0
M  V30 2779 H 267.455 1.79196 -3.75758 0
M  V30 2780 H 267.988 0.107357 -3.97655 0
M  V30 2781 H 264.727 -1.77374 -6.31046 0
M  V30 2782 H 264.247 -0.0900208 -5.99732 0
M  V30 2783 H 265.926 -0.471949 -6.45276 0
M  V30 2784 N 266.058 1.56714 -0.166846 0
M  V30 2785 C 267.306 1.96358 0.478305 0
M  V30 2786 C 267.627 1.0537 1.6408 0
M  V30 2787 O 266.897 0.119154 1.95537 0
M  V30 2788 H 265.477 0.725065 0.179692 0
M  V30 2789 H 268.139 1.93329 -0.246985 0
M  V30 2790 H 267.235 3.00547 0.841292 0
M  V30 2791 N 267.536 -0.106894 1.57237 0
M  V30 2792 C 268.466 -1.13148 2.04254 0
M  V30 2793 C 269.447 -1.42476 0.929224 0
M  V30 2794 O 270.632 -1.52709 1.19973 0
M  V30 2795 C 267.762 -2.4545 2.45706 0
M  V30 2796 C 266.716 -2.30558 3.60592 0
M  V30 2797 C 266.042 -3.67931 3.87983 0
M  V30 2798 C 267.342 -1.75597 4.91897 0
M  V30 2799 H 269.036 -0.740374 2.90101 0
M  V30 2800 H 266.582 -0.354696 1.39563 0
M  V30 2801 H 268.535 -3.17389 2.77205 0
M  V30 2802 H 267.259 -2.86475 1.56843 0
M  V30 2803 H 265.918 -1.61067 3.29322 0
M  V30 2804 H 265.566 -4.06462 2.96306 0
M  V30 2805 H 265.266 -3.58817 4.65322 0
M  V30 2806 H 266.79 -4.41356 4.21945 0
M  V30 2807 H 268.204 -2.37364 5.21854 0
M  V30 2808 H 266.601 -1.77272 5.73319 0
M  V30 2809 H 267.671 -0.714451 4.79608 0
M  V30 2810 N 269.014 -1.53014 -0.377408 0
M  V30 2811 C 270.262 -1.6829 -1.11906 0
M  V30 2812 C 270.583 -0.431206 -1.90173 0
M  V30 2813 O 269.853 0.554595 -1.87886 0
M  V30 2814 H 268.433 -0.620371 -0.416112 0
M  V30 2815 H 271.095 -1.90167 -0.426893 0
M  V30 2816 H 270.191 -2.53862 -1.8155 0
M  V30 2817 N 270.492 0.636531 -1.44174 0
M  V30 2818 C 271.908 0.954104 -1.27941 0
M  V30 2819 C 272.108 2.0039 -0.211248 0
M  V30 2820 O 271.164 2.49236 0.404695 0
M  V30 2821 C 272.477 1.4225 -2.64925 0
M  V30 2822 C 274.025 1.53827 -2.72592 0
M  V30 2823 C 274.5 2.04053 -4.10032 0
M  V30 2824 N 275.991 2.11331 -4.12182 0
M  V30 2825 C 276.726 2.51352 -5.15374 0
M  V30 2826 N 276.222 2.90549 -6.2893 0
M  V30 2827 N 278.015 2.51438 -5.02728 0
M  V30 2828 H 270.166 -0.0578386 -2.12321 0
M  V30 2829 H 272.429 0.0367406 -0.947288 0
M  V30 2830 H 272.135 0.725466 -3.44136 0
M  V30 2831 H 272.009 2.39451 -2.9145 0
M  V30 2832 H 274.396 2.22628 -1.93702 0
M  V30 2833 H 274.477 0.550154 -2.49814 0
M  V30 2834 H 274.121 1.35848 -4.89395 0
M  V30 2835 H 274.051 3.03726 -4.30184 0
M  V30 2836 H 276.542 1.83745 -3.30222 0
M  V30 2837 H 276.855 3.19884 -7.03487 0
M  V30 2838 H 275.2 2.88313 -6.32377 0
M  V30 2839 H 278.391 2.20203 -4.13072 0
M  V30 2840 H 278.564 2.82304 -5.83274 0
M  V30 2841 N 271.97 1.30982 0.876444 0
M  V30 2842 C 273.216 1.20474 1.63138 0
M  V30 2843 C 273.549 -0.238096 1.92735 0
M  V30 2844 O 272.824 -1.1692 1.55435 0
M  V30 2845 C 273.107 2.04244 2.96574 0
M  V30 2846 C 272.96 3.56793 2.73896 0
M  V30 2847 C 274.279 1.88684 3.97601 0
M  V30 2848 H 271.398 0.439001 0.591985 0
M  V30 2849 H 274.04 1.60704 1.01361 0
M  V30 2850 H 272.19 1.70063 3.493 0
M  V30 2851 H 273.862 4.01077 2.27892 0
M  V30 2852 H 272.105 3.80548 2.08245 0
M  V30 2853 H 272.776 4.10706 3.68815 0
M  V30 2854 H 275.252 2.18584 3.54062 0
M  V30 2855 H 274.128 2.4961 4.88862 0
M  V30 2856 H 274.389 0.848343 4.33884 0
M  V30 2857 N 273.449 -1.08991 1.13837 0
M  V30 2858 C 274.697 -1.80899 0.901098 0
M  V30 2859 C 275.018 -1.86356 -0.574134 0
M  V30 2860 O 274.288 -1.35235 -1.41733 0
M  V30 2861 H 272.868 -0.669966 0.330386 0
M  V30 2862 H 275.53 -1.318 1.43578 0
M  V30 2863 H 274.626 -2.83929 1.29578 0
M  V30 2864 N 274.927 -0.932562 -1.27047 0
M  V30 2865 C 275.859 -0.392734 -2.2581 0
M  V30 2866 C 276.872 0.479241 -1.55586 0
M  V30 2867 O 278.061 0.291078 -1.76111 0
M  V30 2868 C 275.161 0.455456 -3.35826 0
M  V30 2869 C 274.334 -0.398355 -4.35582 0
M  V30 2870 C 273.393 0.387985 -5.24768 0
M  V30 2871 O 272.419 -0.206003 -5.68827 0
M  V30 2872 N 273.621 1.68664 -5.55457 0
M  V30 2873 H 276.386 -1.24173 -2.72766 0
M  V30 2874 H 273.947 -0.800511 -1.40725 0
M  V30 2875 H 275.939 0.988692 -3.92437 0
M  V30 2876 H 274.509 1.20522 -2.88432 0
M  V30 2877 H 273.729 -1.11286 -3.78165 0
M  V30 2878 H 275.017 -0.981889 -4.99236 0
M  V30 2879 H 274.415 2.19147 -5.21528 0
M  V30 2880 H 272.972 2.1663 -6.14748 0
M  V30 2881 N 276.405 1.4127 -0.698611 0
M  V30 2882 C 277.368 2.29158 -0.044132 0
M  V30 2883 C 278.368 1.44529 0.704841 0
M  V30 2884 O 279.558 1.65643 0.539276 0
M  V30 2885 C 276.69 3.27459 0.947809 0
M  V30 2886 H 277.883 2.88529 -0.817994 0
M  V30 2887 H 275.436 1.49307 -0.46228 0
M  V30 2888 H 276.171 2.73073 1.74933 0
M  V30 2889 H 275.956 3.8991 0.41385 0
M  V30 2890 H 277.446 3.93311 1.40344 0
M  V30 2891 N 277.883 0.443576 1.51229 0
M  V30 2892 C 279.129 -0.120975 2.02439 0
M  V30 2893 C 279.462 -1.41815 1.32674 0
M  V30 2894 O 278.737 -1.89373 0.443622 0
M  V30 2895 C 279.02 -0.333291 3.58554 0
M  V30 2896 C 278.873 0.982968 4.38928 0
M  V30 2897 C 280.192 -1.10028 4.26124 0
M  V30 2898 H 277.311 -0.0424923 0.735774 0
M  V30 2899 H 279.953 0.583794 1.80809 0
M  V30 2900 H 278.103 -0.933614 3.77115 0
M  V30 2901 H 279.775 1.61775 4.32003 0
M  V30 2902 H 278.018 1.58611 4.03763 0
M  V30 2903 H 278.689 0.788379 5.46341 0
M  V30 2904 H 281.165 -0.591711 4.11871 0
M  V30 2905 H 280.041 -1.21761 5.35225 0
M  V30 2906 H 280.302 -2.12996 3.87408 0
M  V30 2907 N 279.361 -1.56624 0.175154 0
M  V30 2908 C 280.324 -2.16934 -0.739738 0
M  V30 2909 C 281.324 -1.11842 -1.15533 0
M  V30 2910 O 282.514 -1.37335 -1.07167 0
M  V30 2911 C 279.646 -2.75531 -2.00738 0
M  V30 2912 H 280.839 -2.99131 -0.214639 0
M  V30 2913 H 278.392 -1.56123 -0.0744197 0
M  V30 2914 H 279.127 -1.97078 -2.57548 0
M  V30 2915 H 278.912 -3.52444 -1.71831 0
M  V30 2916 H 280.402 -3.21904 -2.66021 0
M  V30 2917 N 280.839 0.0985539 -1.57292 0
M  V30 2918 C 281.769 1.12064 -2.04851 0
M  V30 2919 C 282.75 1.41981 -0.936767 0
M  V30 2920 O 283.935 1.52071 -1.20781 0
M  V30 2921 C 281.065 2.44144 -2.47004 0
M  V30 2922 C 280.019 2.28643 -3.6181 0
M  V30 2923 C 279.345 3.65869 -3.89929 0
M  V30 2924 C 280.645 1.72986 -4.92822 0
M  V30 2925 H 282.339 0.724979 -2.9049 0
M  V30 2926 H 279.885 0.34729 -1.39749 0
M  V30 2927 H 281.838 3.15914 -2.78884 0
M  V30 2928 H 280.562 2.85639 -1.5836 0
M  V30 2929 H 279.221 1.59318 -3.30172 0
M  V30 2930 H 278.869 4.04885 -2.98458 0
M  V30 2931 H 278.569 3.56344 -4.67218 0
M  V30 2932 H 280.093 4.39112 -4.2428 0
M  V30 2933 H 281.507 2.34593 -5.23105 0
M  V30 2934 H 279.904 1.74229 -5.74251 0
M  V30 2935 H 280.974 0.689007 -4.7998 0
M  V30 2936 N 282.317 1.53212 0.369288 0
M  V30 2937 C 283.733 1.42902 0.710712 0
M  V30 2938 C 283.933 0.565135 1.93413 0
M  V30 2939 O 282.989 0.0461484 2.52458 0
M  V30 2940 C 284.302 2.86042 0.927382 0
M  V30 2941 C 285.85 2.9565 1.02762 0
M  V30 2942 C 286.325 4.39843 1.27679 0
M  V30 2943 N 287.816 4.43256 1.34457 0
M  V30 2944 C 288.551 5.51929 1.55439 0
M  V30 2945 N 288.047 6.70655 1.73762 0
M  V30 2946 N 289.84 5.39502 1.57779 0
M  V30 2947 H 281.991 2.07888 -0.435457 0
M  V30 2948 H 284.254 0.938661 -0.132739 0
M  V30 2949 H 283.96 3.51557 0.100287 0
M  V30 2950 H 283.834 3.29472 1.83653 0
M  V30 2951 H 286.221 2.30291 1.84527 0
M  V30 2952 H 286.302 2.5562 0.0959504 0
M  V30 2953 H 285.946 5.05774 0.464175 0
M  V30 2954 H 285.876 4.77443 2.22162 0
M  V30 2955 H 288.367 3.5769 1.21926 0
M  V30 2956 H 288.68 7.49248 1.89335 0
M  V30 2957 H 287.025 6.73648 1.70948 0
M  V30 2958 H 290.216 4.45713 1.43029 0
M  V30 2959 H 290.389 6.2426 1.7379 0
M  V30 2960 N 283.795 -0.628877 1.44509 0
M  V30 2961 C 284.758 -1.72263 1.51188 0
M  V30 2962 C 285.758 -1.55907 0.39367 0
M  V30 2963 O 286.948 -1.61361 0.656377 0
M  V30 2964 C 284.08 -3.11365 1.38798 0
M  V30 2965 H 285.273 -1.67714 2.4862 0
M  V30 2966 H 282.826 -0.842737 1.31634 0
M  V30 2967 H 283.561 -3.21507 0.424693 0
M  V30 2968 H 283.346 -3.24644 2.19884 0
M  V30 2969 H 284.836 -3.91075 1.46458 0
M  V30 2970 N 285.273 -1.31445 -0.869486 0
M  V30 2971 C 286.22 -1.19135 -1.97675 0
M  V30 2972 C 287.19 -0.0770266 -1.65921 0
M  V30 2973 O 288.375 -0.249972 -1.89155 0
M  V30 2974 C 285.515 -0.905149 -3.33018 0
M  V30 2975 C 284.628 -2.10285 -3.77365 0
M  V30 2976 C 283.763 -1.75339 -5.01427 0
M  V30 2977 C 282.802 -2.91515 -5.38224 0
M  V30 2978 N 281.939 -2.56762 -6.53466 0
M  V30 2979 H 286.779 -2.13853 -2.07535 0
M  V30 2980 H 284.316 -1.06379 -1.01597 0
M  V30 2981 H 286.274 -0.719765 -4.10944 0
M  V30 2982 H 284.904 0.00519624 -3.228 0
M  V30 2983 H 283.956 -2.39899 -2.95216 0
M  V30 2984 H 285.268 -2.97237 -4.00564 0
M  V30 2985 H 284.422 -1.53266 -5.87022 0
M  V30 2986 H 283.161 -0.855801 -4.80133 0
M  V30 2987 H 282.166 -3.14237 -4.51149 0
M  V30 2988 H 283.391 -3.81985 -5.61484 0
M  V30 2989 H 281.337 -1.69526 -6.33717 0
M  V30 2990 H 281.254 -3.37243 -6.76612 0
M  V30 2991 H 282.522 -2.38083 -7.42251 0
M  V30 2992 N 286.751 1.08385 -1.14413 0
M  V30 2993 C 287.714 2.13486 -0.834048 0
M  V30 2994 C 288.714 1.59988 0.161418 0
M  V30 2995 O 289.904 1.74071 -0.0669575 0
M  V30 2996 C 287.036 3.4003 -0.243354 0
M  V30 2997 H 288.229 2.42425 -1.7655 0
M  V30 2998 H 285.782 1.24101 -0.950189 0
M  V30 2999 H 286.517 3.16726 0.696807 0
M  V30 3000 H 286.302 3.80157 -0.960367 0
M  V30 3001 H 287.792 4.17577 -0.0436242 0
M  V30 3002 N 288.23 0.939286 1.26551 0
M  V30 3003 C 289.477 0.585847 1.9384 0
M  V30 3004 C 289.805 -0.874784 1.73718 0
M  V30 3005 O 289.06 -1.64092 1.06642 0
M  V30 3006 C 289.359 0.872106 3.46596 0
M  V30 3007 C 289.025 2.31632 3.86856 0
M  V30 3008 C 287.687 2.71111 3.97558 0
M  V30 3009 C 290.039 3.25494 4.07066 0
M  V30 3010 C 287.367 4.03553 4.25866 0
M  V30 3011 C 289.719 4.57531 4.36862 0
M  V30 3012 C 288.383 4.96828 4.45778 0
M  V30 3013 H 287.653 0.214377 0.709312 0
M  V30 3014 H 290.3 1.18544 1.50398 0
M  V30 3015 H 288.605 0.18996 3.91339 0
M  V30 3016 H 290.302 0.577442 3.96821 0
M  V30 3017 H 286.892 2.00008 3.79071 0
M  V30 3018 H 291.076 2.9619 3.98227 0
M  V30 3019 H 286.332 4.33665 4.30981 0
M  V30 3020 H 290.506 5.30254 4.51446 0
M  V30 3021 H 288.133 5.99482 4.67468 0
M  V30 3022 N 289.708 -1.40897 0.706093 0
M  V30 3023 C 290.956 -2.00657 0.241054 0
M  V30 3024 C 291.277 -1.56241 -1.16678 0
M  V30 3025 O 290.547 -0.79765 -1.78926 0
M  V30 3026 H 289.127 -0.742018 0.0861308 0
M  V30 3027 H 291.789 -1.72372 0.909604 0
M  V30 3028 H 290.885 -3.10958 0.266705 0
M  V30 3029 N 291.186 -0.45159 -1.50991 0
M  V30 3030 C 292.433 0.110074 -2.02201 0
M  V30 3031 C 292.761 1.4146 -1.33489 0
M  V30 3032 O 292.016 1.90617 -0.443125 0
M  V30 3033 C 292.315 0.361728 -3.55565 0
M  V30 3034 C 291.981 -0.858717 -4.42648 0
M  V30 3035 C 290.643 -1.19338 -4.66167 0
M  V30 3036 C 292.995 -1.67221 -4.93646 0
M  V30 3037 C 290.323 -2.34195 -5.37931 0
M  V30 3038 C 292.675 -2.8119 -5.6667 0
M  V30 3039 C 291.339 -3.15094 -5.88449 0
M  V30 3040 H 290.609 0.040279 -0.739904 0
M  V30 3041 H 293.256 -0.601696 -1.81802 0
M  V30 3042 H 291.561 1.15554 -3.74372 0
M  V30 3043 H 293.258 0.80996 -3.92735 0
M  V30 3044 H 289.848 -0.58796 -4.24548 0
M  V30 3045 H 294.032 -1.42686 -4.75347 0
M  V30 3046 H 289.288 -2.6076 -5.53005 0
M  V30 3047 H 293.462 -3.44585 -6.05173 0
M  V30 3048 H 291.089 -4.04204 -6.43835 0
M  V30 3049 N 292.664 1.56529 -0.183458 0
M  V30 3050 C 293.612 2.19873 0.758845 0
M  V30 3051 C 294.606 1.16638 1.22849 0
M  V30 3052 O 295.812 1.3481 1.19274 0
M  V30 3053 H 292.187 0.7045 0.263029 0
M  V30 3054 H 294.158 2.97724 0.200755 0
M  V30 3055 C 292.907 2.86314 1.9728 0
M  V30 3056 H 292.23 3.65487 1.62047 0
M  V30 3057 H 293.67 3.3409 2.61075 0
M  V30 3058 C 292.129 1.86729 2.80418 0
M  V30 3059 O 292.659 1.36031 3.77966 0
M  V30 3060 N 290.865 1.55216 2.45675 0
M  V30 3061 H 290.412 1.96636 1.66409 0
M  V30 3062 H 290.37 0.888388 3.01588 0
M  V30 3063 N 294.142 -0.090211 1.57342 0
M  V30 3064 C 295.388 -0.793982 1.86611 0
M  V30 3065 C 295.721 -1.78142 0.773252 0
M  V30 3066 O 294.996 -1.93271 -0.218304 0
M  V30 3067 C 295.279 -1.51839 3.26523 0
M  V30 3068 C 295.132 -0.548609 4.46442 0
M  V30 3069 C 296.451 -2.46779 3.64401 0
M  V30 3070 H 293.57 -0.287186 0.678744 0
M  V30 3071 H 296.212 -0.0575076 1.89913 0
M  V30 3072 H 294.362 -2.14617 3.23839 0
M  V30 3073 H 296.034 0.0725513 4.61243 0
M  V30 3074 H 294.277 0.137614 4.33582 0
M  V30 3075 H 294.948 -1.09271 5.41076 0
M  V30 3076 H 297.424 -1.94089 3.68061 0
M  V30 3077 H 296.3 -2.94479 4.63221 0
M  V30 3078 H 296.561 -3.30758 2.93346 0
M  V30 3079 N 295.62 -1.53406 -0.361157 0
M  V30 3080 C 296.55 -1.83136 -1.44857 0
M  V30 3081 C 297.531 -0.685174 -1.5569 0
M  V30 3082 O 298.716 -0.93544 -1.70186 0
M  V30 3083 C 295.846 -2.02522 -2.82138 0
M  V30 3084 C 294.8 -3.18302 -2.86126 0
M  V30 3085 C 294.126 -3.22989 -4.26125 0
M  V30 3086 C 295.426 -4.56796 -2.53248 0
M  V30 3087 H 297.12 -2.74201 -1.20226 0
M  V30 3088 H 294.666 -1.31938 -0.576922 0
M  V30 3089 H 296.619 -2.21904 -3.58241 0
M  V30 3090 H 295.343 -1.08172 -3.08166 0
M  V30 3091 H 294.002 -2.98747 -2.12475 0
M  V30 3092 H 293.65 -2.26267 -4.49235 0
M  V30 3093 H 293.35 -4.00781 -4.29708 0
M  V30 3094 H 294.874 -3.44559 -5.04094 0
M  V30 3095 H 296.288 -4.7631 -3.19064 0
M  V30 3096 H 294.685 -5.36862 -2.68141 0
M  V30 3097 H 295.755 -4.61606 -1.48484 0
M  V30 3098 N 297.098 0.621204 -1.44841 0
M  V30 3099 C 298.345 1.38055 -1.48145 0
M  V30 3100 C 298.673 1.94143 -0.117867 0
M  V30 3101 O 297.928 1.74713 0.881694 0
M  V30 3102 C 298.227 2.55675 -2.4973 0
M  V30 3103 C 297.893 2.17817 -3.94799 0
M  V30 3104 C 296.555 2.07205 -4.34303 0
M  V30 3105 C 298.907 1.88065 -4.86087 0
M  V30 3106 C 296.235 1.65045 -5.63007 0
M  V30 3107 C 298.587 1.47394 -6.15189 0
M  V30 3108 C 297.251 1.35331 -6.53637 0
M  V30 3109 H 296.521 0.505181 -0.542101 0
M  V30 3110 H 299.168 0.703477 -1.78111 0
M  V30 3111 H 297.473 3.2866 -2.13284 0
M  V30 3112 H 299.17 3.13904 -2.4953 0
M  V30 3113 H 295.76 2.26998 -3.63552 0
M  V30 3114 H 299.944 1.95168 -4.56315 0
M  V30 3115 H 295.2 1.54317 -5.91605 0
M  V30 3116 H 299.374 1.23415 -6.85377 0
M  V30 3117 H 297.001 1.02435 -7.53267 0
M  V30 3118 N 298.576 1.31904 0.862503 0
M  V30 3119 C 299.806 1.24817 1.64634 0
M  V30 3120 C 300.214 -0.187579 1.88268 0
M  V30 3121 O 299.557 -1.13253 1.44635 0
M  V30 3122 C 299.619 1.92996 3.03303 0
M  V30 3123 C 299.283 3.42336 3.02746 0
M  V30 3124 C 300.28 4.37956 2.80162 0
M  V30 3125 C 297.965 3.84147 3.2363 0
M  V30 3126 C 299.959 5.73361 2.78453 0
M  V30 3127 C 297.646 5.19663 3.21549 0
M  V30 3128 C 298.644 6.14081 2.98988 0
M  V30 3129 O 298.332 7.47118 2.96766 0
M  V30 3130 H 298.064 0.432222 0.519769 0
M  V30 3131 H 300.618 1.7445 1.08427 0
M  V30 3132 H 298.848 1.37922 3.61268 0
M  V30 3133 H 300.537 1.79723 3.63943 0
M  V30 3134 H 301.303 4.06981 2.63802 0
M  V30 3135 H 297.182 3.11083 3.40218 0
M  V30 3136 H 300.726 6.4703 2.60763 0
M  V30 3137 H 296.623 5.5027 3.37451 0
M  V30 3138 H 297.391 7.56382 3.12775 0
M  V30 3139 N 300.054 -1.07777 1.14986 0
M  V30 3140 C 301.331 -1.7699 0.832695 0
M  V30 3141 C 301.711 -2.001 -0.672561 0
M  V30 3142 O 301.059 -1.61598 -1.6155 0
M  V30 3143 C 301.269 -3.08139 1.63863 0
M  V30 3144 C 302.617 -3.8256 1.84208 0
M  V30 3145 O 303.641 -3.17939 1.60603 0
M  V30 3146 O 302.5 -4.98612 2.23714 0
M  V30 3147 H 299.594 -0.768389 0.305791 0
M  V30 3148 H 302.14 -1.14182 1.25541 0
M  V30 3149 H 300.912 -2.86909 2.6608 0
M  V30 3150 H 300.535 -3.78678 1.21197 0
M  V30 3151 N 301.532 -0.945985 -1.26051 0
M  V30 3152 C 302.943 -0.638096 -1.75457 0
M  V30 3153 C 303.294 0.846672 -1.76991 0
M  V30 3154 O 302.419 1.66262 -1.38513 0
M  V30 3155 C 303.014 -1.15157 -3.18629 0
M  V30 3156 C 301.573 -0.894004 -3.65629 0
M  V30 3157 C 300.72 -1.29967 -2.44957 0
M  V30 3158 H 303.671 -1.12376 -1.1206 0
M  V30 3159 H 303.692 -0.507615 -3.77099 0
M  V30 3160 H 303.204 -2.23222 -3.1748 0
M  V30 3161 H 301.305 0.172057 -3.72203 0
M  V30 3162 H 301.418 -1.52439 -4.54202 0
M  V30 3163 H 299.782 -0.718078 -2.44368 0
M  V30 3164 H 300.565 -2.38935 -2.46505 0
M  V30 3165 N 303.011 1.40521 -0.713556 0
M  V30 3166 C 304.241 2.0494 -0.261395 0
M  V30 3167 C 304.649 1.53861 1.10107 0
M  V30 3168 O 303.992 0.689321 1.70276 0
M  V30 3169 C 304.054 3.59138 -0.161227 0
M  V30 3170 C 303.718 4.33096 -1.45865 0
M  V30 3171 C 304.715 4.61182 -2.40016 0
M  V30 3172 C 302.4 4.72043 -1.71701 0
M  V30 3173 C 304.394 5.27196 -3.58251 0
M  V30 3174 C 302.081 5.37789 -2.90218 0
M  V30 3175 C 303.079 5.65295 -3.83315 0
M  V30 3176 O 302.767 6.29683 -4.99754 0
M  V30 3177 H 302.499 0.666041 -0.115608 0
M  V30 3178 H 305.053 1.80954 -0.971849 0
M  V30 3179 H 303.283 3.81936 0.605153 0
M  V30 3180 H 304.972 4.05091 0.256105 0
M  V30 3181 H 305.738 4.31559 -2.21318 0
M  V30 3182 H 301.617 4.50003 -1.00092 0
M  V30 3183 H 305.161 5.48582 -4.30934 0
M  V30 3184 H 301.058 5.66831 -3.08825 0
M  V30 3185 H 301.826 6.4818 -4.99805 0
M  V30 3186 N 304.489 0.459591 1.5075 0
M  V30 3187 C 305.419 -0.330644 2.31147 0
M  V30 3188 C 306.4 -1.00087 1.37538 0
M  V30 3189 O 307.585 -1.00025 1.66459 0
M  V30 3190 C 304.715 -1.41958 3.16962 0
M  V30 3191 C 303.669 -0.871608 4.19031 0
M  V30 3192 C 302.995 -2.05797 4.9351 0
M  V30 3193 C 304.295 0.109251 5.22186 0
M  V30 3194 H 305.989 0.340336 2.97459 0
M  V30 3195 H 303.535 0.165119 1.4305 0
M  V30 3196 H 305.488 -1.9798 3.71997 0
M  V30 3197 H 304.212 -2.11917 2.48513 0
M  V30 3198 H 302.871 -0.333442 3.6508 0
M  V30 3199 H 302.519 -2.74427 4.21544 0
M  V30 3200 H 302.219 -1.6976 5.62544 0
M  V30 3201 H 303.743 -2.62331 5.51375 0
M  V30 3202 H 305.157 -0.361405 5.7216 0
M  V30 3203 H 303.554 0.383316 5.98875 0
M  V30 3204 H 304.624 1.03887 4.73641 0
M  V30 3205 N 305.967 -1.56429 0.191757 0
M  V30 3206 C 307.192 -2.02309 -0.456706 0
M  V30 3207 C 307.617 -1.07103 -1.5463 0
M  V30 3208 O 306.975 -0.0539677 -1.8122 0
M  V30 3209 C 307.023 -3.46654 -0.993159 0
M  V30 3210 O 306.127 -3.54559 -2.10622 0
M  V30 3211 H 305.468 -0.655303 -0.107114 0
M  V30 3212 H 307.998 -2.02364 0.301653 0
M  V30 3213 H 308.008 -3.86377 -1.31061 0
M  V30 3214 H 306.683 -4.1544 -0.195504 0
M  V30 3215 H 305.26 -3.26708 -1.79767 0
M  V30 3216 N 307.445 0.0818655 -1.57387 0
M  V30 3217 C 308.722 0.815343 -1.77796 0
M  V30 3218 C 309.102 1.96289 -0.77679 0
M  V30 3219 O 308.45 2.27691 0.192106 0
M  V30 3220 C 308.66 1.29765 -3.23978 0
M  V30 3221 C 310.008 1.7351 -3.8753 0
M  V30 3222 O 311.032 1.39356 -3.27808 0
M  V30 3223 O 309.891 2.36708 -4.92576 0
M  V30 3224 H 306.985 0.389914 -0.729312 0
M  V30 3225 H 309.531 0.0627213 -1.69584 0
M  V30 3226 H 308.303 0.47608 -3.88393 0
M  V30 3227 H 307.926 2.11189 -3.36875 0
M  V30 3228 N 308.923 1.53595 0.353017 0
M  V30 3229 C 310.171 1.70049 1.09215 0
M  V30 3230 C 310.492 0.461406 1.89463 0
M  V30 3231 O 309.762 -0.524633 1.88744 0
M  V30 3232 H 308.342 0.626912 0.40619 0
M  V30 3233 H 311.004 1.90822 0.396585 0
M  V30 3234 H 310.1 2.56718 1.77488 0
M  V30 3235 N 310.401 -0.613514 1.45168 0
M  V30 3236 C 311.647 -1.37471 1.49096 0
M  V30 3237 C 311.98 -1.93765 0.129901 0
M  V30 3238 O 311.255 -1.74707 -0.854858 0
M  V30 3239 C 311.538 -2.52701 2.56542 0
M  V30 3240 C 311.391 -2.01643 4.0207 0
M  V30 3241 C 312.71 -3.54849 2.60327 0
M  V30 3242 H 309.829 -0.498502 0.54283 0
M  V30 3243 H 312.471 -0.692125 1.76945 0
M  V30 3244 H 310.621 -3.10931 2.32926 0
M  V30 3245 H 312.293 -1.48108 4.36877 0
M  V30 3246 H 310.536 -1.32688 4.13009 0
M  V30 3247 H 311.207 -2.84681 4.72928 0
M  V30 3248 H 313.683 -3.0645 2.81474 0
M  V30 3249 H 312.559 -4.32973 3.37381 0
M  V30 3250 H 312.82 -4.10079 1.6519 0
M  V30 3251 N 311.879 -1.3236 -0.855495 0
M  V30 3252 C 312.789 -1.23221 -1.99634 0
M  V30 3253 C 313.805 -0.145983 -1.73387 0
M  V30 3254 O 314.981 -0.366502 -1.98037 0
M  V30 3255 C 312.046 -0.954782 -3.33294 0
M  V30 3256 C 311.107 -2.12937 -3.72769 0
M  V30 3257 C 310.34 -1.86508 -5.00051 0
M  V30 3258 O 310.563 -0.807231 -5.64659 0
M  V30 3259 O 309.497 -2.72591 -5.36636 0
M  V30 3260 H 313.323 -2.19126 -2.1028 0
M  V30 3261 H 310.908 -1.12241 -0.986018 0
M  V30 3262 H 312.79 -0.816519 -4.13414 0
M  V30 3263 H 311.465 -0.0258854 -3.2369 0
M  V30 3264 H 310.372 -2.3231 -2.93228 0
M  V30 3265 H 311.705 -3.04102 -3.87018 0
M  V30 3266 N 313.357 1.07166 -1.15556 0
M  V30 3267 C 314.773 1.31899 -0.898603 0
M  V30 3268 C 314.973 1.96333 0.453383 0
M  V30 3269 O 314.029 2.22438 1.19489 0
M  V30 3270 C 315.342 2.20826 -2.04099 0
M  V30 3271 C 316.89 2.34269 -2.07574 0
M  V30 3272 C 317.365 3.26546 -3.21141 0
M  V30 3273 N 318.856 3.34127 -3.20801 0
M  V30 3274 C 319.591 4.05595 -4.05315 0
M  V30 3275 N 319.087 4.79661 -4.99897 0
M  V30 3276 N 320.88 4.01555 -3.93332 0
M  V30 3277 H 313.031 0.637302 -2.02613 0
M  V30 3278 H 315.294 0.343468 -0.883591 0
M  V30 3279 H 315 1.80744 -3.01703 0
M  V30 3280 H 314.874 3.21364 -1.97496 0
M  V30 3281 H 317.261 2.73603 -1.10568 0
M  V30 3282 H 317.342 1.33429 -2.18244 0
M  V30 3283 H 316.986 2.87931 -4.184 0
M  V30 3284 H 316.916 4.27345 -3.07708 0
M  V30 3285 H 319.407 2.81336 -2.52306 0
M  V30 3286 H 319.72 5.31694 -5.60822 0
M  V30 3287 H 318.065 4.78671 -5.03884 0
M  V30 3288 H 321.256 3.42806 -3.18751 0
M  V30 3289 H 321.429 4.56987 -4.5942 0
M  V30 3290 N 314.835 0.952656 1.25548 0
M  V30 3291 C 315.798 0.475794 2.24207 0
M  V30 3292 C 316.798 -0.419428 1.55234 0
M  V30 3293 O 317.988 -0.216994 1.72843 0
M  V30 3294 C 315.12 -0.312814 3.39462 0
M  V30 3295 H 316.313 1.34779 2.67908 0
M  V30 3296 H 313.866 0.735739 1.37901 0
M  V30 3297 H 314.601 -1.20257 3.01179 0
M  V30 3298 H 314.386 0.329404 3.90714 0
M  V30 3299 H 315.876 -0.635986 4.12729 0
M  V30 3300 N 316.313 -1.40141 0.720998 0
M  V30 3301 C 317.243 -2.33339 0.0867621 0
M  V30 3302 C 318.224 -1.53178 -0.739622 0
M  V30 3303 O 319.409 -1.81625 -0.687449 0
M  V30 3304 C 316.539 -3.37194 -0.831728 0
M  V30 3305 C 315.493 -4.27857 -0.110558 0
M  V30 3306 C 314.819 -5.22294 -1.14513 0
M  V30 3307 C 316.119 -5.11872 1.0385 0
M  V30 3308 H 317.813 -2.86626 0.865219 0
M  V30 3309 H 315.359 -1.37814 0.417516 0
M  V30 3310 H 317.312 -4.01335 -1.28485 0
M  V30 3311 H 316.036 -2.82314 -1.64214 0
M  V30 3312 H 314.695 -3.65176 0.322797 0
M  V30 3313 H 314.343 -4.63717 -1.94874 0
M  V30 3314 H 314.043 -5.83797 -0.667446 0
M  V30 3315 H 315.567 -5.89312 -1.59824 0
M  V30 3316 H 316.981 -5.69436 0.664482 0
M  V30 3317 H 315.378 -5.82445 1.4449 0
M  V30 3318 H 316.448 -4.4753 1.86668 0
M  V30 3319 N 317.792 -0.46758 -1.50504 0
M  V30 3320 C 319.04 0.0884469 -2.01906 0
M  V30 3321 C 319.361 1.40532 -1.35188 0
M  V30 3322 O 318.631 1.89515 -0.496079 0
M  V30 3323 H 317.211 0.0356765 -0.746148 0
M  V30 3324 H 319.873 -0.6172 -1.84869 0
M  V30 3325 H 318.969 0.2425 -3.11156 0
M  V30 3326 N 319.27 1.56325 -0.20005 0
M  V30 3327 C 320.2 2.22318 0.713916 0
M  V30 3328 C 321.181 1.18788 1.21752 0
M  V30 3329 O 322.366 1.47309 1.26545 0
M  V30 3330 C 319.496 2.88639 1.93144 0
M  V30 3331 C 318.45 3.98457 1.56255 0
M  V30 3332 C 317.776 4.51967 2.85709 0
M  V30 3333 C 319.076 5.16612 0.768747 0
M  V30 3334 H 320.77 2.98952 0.163755 0
M  V30 3335 H 318.316 1.43792 0.0773219 0
M  V30 3336 H 320.269 3.33491 2.57608 0
M  V30 3337 H 318.993 2.09419 2.50621 0
M  V30 3338 H 317.652 3.54305 0.941471 0
M  V30 3339 H 317.3 3.69503 3.41287 0
M  V30 3340 H 317 5.26071 2.6177 0
M  V30 3341 H 318.524 4.99523 3.51154 0
M  V30 3342 H 319.938 5.57977 1.3166 0
M  V30 3343 H 318.335 5.96812 0.627286 0
M  V30 3344 H 319.405 4.84358 -0.229168 0
M  V30 3345 N 320.748 -0.0735177 1.57428 0
M  V30 3346 C 321.68 -1.11423 2.00294 0
M  V30 3347 C 322.693 -1.35084 0.908637 0
M  V30 3348 O 323.882 -1.33355 1.18654 0
M  V30 3349 C 320.982 -2.46548 2.32523 0
M  V30 3350 C 320.155 -2.42867 3.63778 0
M  V30 3351 C 319.214 -3.60087 3.83697 0
M  V30 3352 O 318.24 -3.41595 4.55304 0
M  V30 3353 N 319.442 -4.80372 3.25919 0
M  V30 3354 H 322.207 -0.749206 2.90184 0
M  V30 3355 H 319.768 -0.262195 1.59763 0
M  V30 3356 H 321.76 -3.23607 2.43024 0
M  V30 3357 H 320.33 -2.75059 1.48531 0
M  V30 3358 H 319.55 -1.51206 3.64047 0
M  V30 3359 H 320.838 -2.37506 4.49965 0
M  V30 3360 H 320.236 -4.983 2.67795 0
M  V30 3361 H 318.793 -5.54948 3.41871 0
M  V30 3362 N 322.226 -1.5378 -0.344866 0
M  V30 3363 C 323.642 -1.44015 -0.687888 0
M  V30 3364 C 323.842 -0.595834 -1.92489 0
M  V30 3365 O 322.898 -0.0863064 -2.52352 0
M  V30 3366 C 324.211 -2.87481 -0.881758 0
M  V30 3367 C 325.759 -2.97247 -0.980459 0
M  V30 3368 C 326.234 -4.41819 -1.20665 0
M  V30 3369 N 327.725 -4.45339 -1.27389 0
M  V30 3370 C 328.46 -5.54333 -1.46639 0
M  V30 3371 N 327.956 -6.73335 -1.63071 0
M  V30 3372 N 329.749 -5.41944 -1.49176 0
M  V30 3373 H 321.9 -2.07169 0.468475 0
M  V30 3374 H 324.163 -0.93643 0.147655 0
M  V30 3375 H 323.869 -3.51672 -0.0443444 0
M  V30 3376 H 323.743 -3.32352 -1.78388 0
M  V30 3377 H 326.13 -2.33197 -1.8084 0
M  V30 3378 H 326.211 -2.5574 -0.0552713 0
M  V30 3379 H 325.855 -5.06449 -0.383652 0
M  V30 3380 H 325.785 -4.80917 -2.14539 0
M  V30 3381 H 328.276 -3.59585 -1.1622 0
M  V30 3382 H 328.589 -7.52165 -1.77391 0
M  V30 3383 H 326.934 -6.76282 -1.60209 0
M  V30 3384 H 330.125 -4.47932 -1.3592 0
M  V30 3385 H 330.298 -6.26946 -1.63837 0
M  V30 3386 N 323.704 0.605807 -1.45491 0
M  V30 3387 C 324.95 1.36679 -1.49823 0
M  V30 3388 C 325.283 1.93693 -0.140175 0
M  V30 3389 O 324.558 1.75158 0.845581 0
M  V30 3390 C 324.841 2.51337 -2.57879 0
M  V30 3391 C 324.694 1.99508 -4.03134 0
M  V30 3392 C 326.013 3.53463 -2.62205 0
M  V30 3393 H 323.132 0.495617 -0.545466 0
M  V30 3394 H 325.774 0.682732 -1.7731 0
M  V30 3395 H 323.924 3.09691 -2.34571 0
M  V30 3396 H 325.596 1.45789 -4.37656 0
M  V30 3397 H 323.839 1.30496 -4.13707 0
M  V30 3398 H 324.51 2.82169 -4.74431 0
M  V30 3399 H 326.986 3.04953 -2.83095 0
M  V30 3400 H 325.862 4.31178 -3.39672 0
M  V30 3401 H 326.123 4.09197 -1.67363 0
M  V30 3402 N 325.182 1.32811 0.848464 0
M  V30 3403 C 326.407 1.26882 1.6406 0
M  V30 3404 C 326.832 -0.15913 1.87426 0
M  V30 3405 O 326.19 -1.11258 1.43148 0
M  V30 3406 C 326.238 2.03997 2.97351 0
M  V30 3407 O 325.342 1.39201 3.88197 0
M  V30 3408 H 324.683 0.436982 0.499943 0
M  V30 3409 H 327.213 1.75224 1.0563 0
M  V30 3410 H 327.223 2.14403 3.47124 0
M  V30 3411 H 325.898 3.0783 2.79666 0
M  V30 3412 H 324.475 1.37381 3.46671 0
M  V30 3413 N 326.66 -1.06551 1.16123 0
M  V30 3414 C 327.888 -1.83005 0.965237 0
M  V30 3415 C 328.303 -1.82423 -0.486542 0
M  V30 3416 O 327.66 -1.24152 -1.33763 0
M  V30 3417 C 327.711 -3.29733 1.48183 0
M  V30 3418 O 327.432 -3.30416 2.87674 0
M  V30 3419 C 328.933 -4.22926 1.32848 0
M  V30 3420 H 326.153 -0.577118 0.342309 0
M  V30 3421 H 328.697 -1.3445 1.54089 0
M  V30 3422 H 326.852 -3.75609 0.948517 0
M  V30 3423 H 327.266 -4.22149 3.11272 0
M  V30 3424 H 328.74 -5.23916 1.73827 0
M  V30 3425 H 329.217 -4.38346 0.273692 0
M  V30 3426 H 329.823 -3.82894 1.85127 0
M  V30 3427 N 328.138 -0.959301 -1.25041 0
M  V30 3428 C 329.068 -0.501388 -2.28053 0
M  V30 3429 C 330.049 0.454673 -1.63911 0
M  V30 3430 O 331.234 0.352618 -1.90972 0
M  V30 3431 C 328.364 0.217224 -3.4662 0
M  V30 3432 C 327.318 -0.654034 -4.22973 0
M  V30 3433 C 326.644 0.195589 -5.34342 0
M  V30 3434 C 327.944 -1.93447 -4.85155 0
M  V30 3435 H 329.638 -1.36238 -2.66608 0
M  V30 3436 H 327.184 -0.656534 -1.28163 0
M  V30 3437 H 329.137 0.548732 -4.17812 0
M  V30 3438 H 327.861 1.1125 -3.07068 0
M  V30 3439 H 326.52 -0.968693 -3.5357 0
M  V30 3440 H 326.168 1.09076 -4.91031 0
M  V30 3441 H 325.868 -0.384091 -5.86343 0
M  V30 3442 H 327.392 0.521958 -6.08365 0
M  V30 3443 H 328.806 -1.66908 -5.48466 0
M  V30 3444 H 327.203 -2.46018 -5.47353 0
M  V30 3445 H 328.273 -2.63466 -4.07079 0
M  V30 3446 N 329.616 1.39756 -0.72842 0
M  V30 3447 C 330.548 2.29157 -0.0446202 0
M  V30 3448 C 331.561 1.46484 0.710367 0
M  V30 3449 O 332.75 1.69632 0.55562 0
M  V30 3450 C 329.85 3.24987 0.961071 0
M  V30 3451 C 329.023 4.36572 0.268967 0
M  V30 3452 C 328.082 5.12756 1.18184 0
M  V30 3453 O 327.108 5.6534 0.661794 0
M  V30 3454 N 328.31 5.23331 2.51206 0
M  V30 3455 H 331.075 2.88482 -0.812295 0
M  V30 3456 H 328.636 1.51265 -0.577098 0
M  V30 3457 H 330.628 3.72827 1.57423 0
M  V30 3458 H 329.198 2.66739 1.63 0
M  V30 3459 H 328.418 3.90694 -0.524574 0
M  V30 3460 H 329.706 5.08363 -0.210934 0
M  V30 3461 H 329.104 4.82116 2.9594 0
M  V30 3462 H 327.661 5.74634 3.07634 0
M  V30 3463 N 331.094 0.475555 1.50254 0
M  V30 3464 C 332.371 -0.139685 1.95101 0
M  V30 3465 C 332.751 -1.56555 1.41611 0
M  V30 3466 O 332.099 -2.19956 0.618993 0
M  V30 3467 C 332.309 -0.0784298 3.48912 0
M  V30 3468 C 333.657 -0.265095 4.23772 0
M  V30 3469 O 334.681 -0.154808 3.55863 0
M  V30 3470 O 333.54 -0.488327 5.44314 0
M  V30 3471 H 330.634 -0.109236 0.819754 0
M  V30 3472 H 333.18 0.536276 1.61004 0
M  V30 3473 H 331.952 0.916918 3.80405 0
M  V30 3474 H 331.575 -0.795655 3.89558 0
M  V30 3475 N 332.573 -1.56217 0.208337 0
M  V30 3476 C 333.503 -2.22694 -0.702116 0
M  V30 3477 C 334.484 -1.19432 -1.2112 0
M  V30 3478 O 335.669 -1.47978 -1.25762 0
M  V30 3479 C 332.799 -2.8966 -1.9161 0
M  V30 3480 C 331.753 -3.9928 -1.5414 0
M  V30 3481 C 331.079 -4.53476 -2.83308 0
M  V30 3482 C 332.379 -5.17012 -0.741339 0
M  V30 3483 H 334.073 -2.99034 -0.147898 0
M  V30 3484 H 331.619 -1.43831 -0.0696951 0
M  V30 3485 H 333.572 -3.34852 -2.55836 0
M  V30 3486 H 332.296 -2.10746 -2.49507 0
M  V30 3487 H 330.955 -3.54799 -0.922668 0
M  V30 3488 H 330.603 -3.71308 -3.39322 0
M  V30 3489 H 330.303 -5.27451 -2.58976 0
M  V30 3490 H 331.827 -5.01378 -3.485 0
M  V30 3491 H 333.241 -5.58667 -1.28699 0
M  V30 3492 H 331.638 -5.97137 -0.595627 0
M  V30 3493 H 332.708 -4.8423 0.254851 0
M  V30 3494 N 334.051 0.0651679 -1.57465 0
M  V30 3495 C 334.981 1.07693 -2.07182 0
M  V30 3496 C 335.962 1.39962 -0.966673 0
M  V30 3497 O 337.147 1.49475 -1.2398 0
M  V30 3498 C 334.277 2.3885 -2.52127 0
M  V30 3499 C 333.231 2.20917 -3.66579 0
M  V30 3500 C 332.557 3.57515 -3.97601 0
M  V30 3501 C 333.857 1.62493 -4.9638 0
M  V30 3502 H 335.551 0.663199 -2.91962 0
M  V30 3503 H 333.097 0.317569 -1.40455 0
M  V30 3504 H 335.05 3.09928 -2.85522 0
M  V30 3505 H 333.774 2.82215 -1.64384 0
M  V30 3506 H 332.433 1.52279 -3.33477 0
M  V30 3507 H 332.081 3.98463 -3.06979 0
M  V30 3508 H 331.781 3.46353 -4.74672 0
M  V30 3509 H 333.305 4.30013 -4.33499 0
M  V30 3510 H 334.719 2.23445 -5.27963 0
M  V30 3511 H 333.116 1.62009 -5.77818 0
M  V30 3512 H 334.186 0.587041 -4.81333 0
M  V30 3513 N 335.529 1.53961 0.336706 0
M  V30 3514 C 336.776 1.71536 1.07618 0
M  V30 3515 C 337.104 0.482125 1.8843 0
M  V30 3516 O 336.359 -0.536142 1.88213 0
M  V30 3517 C 336.658 2.93493 2.03953 0
M  V30 3518 C 336.324 4.28811 1.39399 0
M  V30 3519 C 334.986 4.65602 1.21523 0
M  V30 3520 C 337.338 5.12844 0.929541 0
M  V30 3521 C 334.666 5.84037 0.558312 0
M  V30 3522 C 337.018 6.31951 0.286505 0
M  V30 3523 C 335.682 6.67432 0.0954869 0
M  V30 3524 H 334.952 0.627696 0.393801 0
M  V30 3525 H 337.599 1.88186 0.354715 0
M  V30 3526 H 335.904 2.71475 2.82504 0
M  V30 3527 H 337.601 3.04285 2.61174 0
M  V30 3528 H 334.191 3.99858 1.54311 0
M  V30 3529 H 338.375 4.84947 1.05548 0
M  V30 3530 H 333.631 6.10097 0.398995 0
M  V30 3531 H 337.805 6.96352 -0.0814376 0
M  V30 3532 H 335.432 7.59063 -0.415579 0
M  V30 3533 N 337.007 -0.598083 1.45811 0
M  V30 3534 C 337.957 -1.70272 1.51629 0
M  V30 3535 C 338.941 -1.56382 0.378629 0
M  V30 3536 O 340.133 -1.65557 0.626087 0
M  V30 3537 C 337.262 -3.09042 1.49493 0
M  V30 3538 C 336.348 -3.28284 2.68496 0
M  V30 3539 N 336.739 -3.17748 3.93535 0
M  V30 3540 C 335.037 -3.59182 2.64394 0
M  V30 3541 C 335.738 -3.38579 4.7301 0
M  V30 3542 N 334.714 -3.63016 4.04624 0
M  V30 3543 H 338.516 -1.60634 2.46118 0
M  V30 3544 H 336.03 -0.801642 1.41235 0
M  V30 3545 H 338.027 -3.88302 1.51747 0
M  V30 3546 H 336.687 -3.19823 0.560683 0
M  V30 3547 H 337.698 -2.95944 4.25014 0
M  V30 3548 H 334.375 -3.76742 1.79922 0
M  V30 3549 H 335.765 -3.35747 5.82 0
M  V30 3550 N 338.485 -1.33259 -0.841409 0
M  V30 3551 C 339.71 -1.2775 -1.63385 0
M  V30 3552 C 340.135 0.149188 -1.87507 0
M  V30 3553 O 339.493 1.10498 -1.43736 0
M  V30 3554 C 339.541 -2.05571 -2.96265 0
M  V30 3555 O 338.645 -1.41257 -3.87453 0
M  V30 3556 H 337.986 -0.439627 -0.497618 0
M  V30 3557 H 340.516 -1.75782 -1.04699 0
M  V30 3558 H 340.526 -2.16241 -3.45982 0
M  V30 3559 H 339.201 -3.09309 -2.7803 0
M  V30 3560 H 337.778 -1.39217 -3.45938 0
M  V30 3561 N 339.963 1.05934 -1.16686 0
M  V30 3562 C 341.24 1.75643 -0.860747 0
M  V30 3563 C 341.62 2.01144 0.640641 0
M  V30 3564 O 340.968 1.64147 1.58959 0
M  V30 3565 C 341.178 3.05493 -1.68745 0
M  V30 3566 C 342.526 3.79581 -1.90271 0
M  V30 3567 O 343.55 3.15344 -1.65641 0
M  V30 3568 O 342.409 4.9499 -2.31618 0
M  V30 3569 H 339.503 0.763426 -0.317977 0
M  V30 3570 H 342.049 1.1217 -1.27342 0
M  V30 3571 H 340.821 2.8264 -2.70611 0
M  V30 3572 H 340.444 3.76702 -1.27206 0
M  V30 3573 N 341.441 0.965919 1.2453 0
M  V30 3574 C 342.681 0.634656 1.94297 0
M  V30 3575 C 343.045 -0.814822 1.73852 0
M  V30 3576 O 344.246 -1.25622 2.3764 0
M  V30 3577 C 342.517 0.99702 3.43212 0
M  V30 3578 S 344.076 0.780038 4.31811 0
M  V30 3579 H 340.894 0.232893 0.671775 0
M  V30 3580 H 343.496 1.24249 1.50938 0
M  V30 3581 H 342.2 2.04886 3.55598 0
M  V30 3582 H 341.731 0.379888 3.91562 0
M  V30 3583 H 343.746 -0.343512 4.9501 0
M  V30 3584 N 342.919 -1.39368 0.735821 0
M  V30 3585 C 344.165 -2.00794 0.284544 0
M  V30 3586 C 344.498 -1.58255 -1.12557 0
M  V30 3587 O 343.773 -0.811819 -1.76748 0
M  V30 3588 C 344.056 -3.58011 0.387337 0
M  V30 3589 C 343.909 -4.10566 1.83728 0
M  V30 3590 C 345.228 -4.395 -0.22975 0
M  V30 3591 H 342.347 -0.729501 0.104866 0
M  V30 3592 H 344.989 -1.65564 0.93213 0
M  V30 3593 H 343.139 -3.88154 -0.164006 0
M  V30 3594 H 344.811 -3.91139 2.44556 0
M  V30 3595 H 343.054 -3.64095 2.35833 0
M  V30 3596 H 343.725 -5.19702 1.86047 0
M  V30 3597 H 346.201 -4.15406 0.240257 0
M  V30 3598 H 345.077 -5.48752 -0.127485 0
M  V30 3599 H 345.338 -4.22062 -1.3159 0
M  V30 3600 N 344.397 -0.483516 -1.5 0
M  V30 3601 C 345.625 0.0644831 -2.06799 0
M  V30 3602 C 346.04 1.32399 -1.34596 0
M  V30 3603 O 345.397 1.77626 -0.418946 0
M  V30 3604 C 345.448 0.339927 -3.59898 0
M  V30 3605 O 345.169 -0.869635 -4.29382 0
M  V30 3606 C 346.67 0.933515 -4.33359 0
M  V30 3607 H 343.89 -0.0126333 -0.670881 0
M  V30 3608 H 346.434 -0.675864 -1.93009 0
M  V30 3609 H 344.589 1.03022 -3.7345 0
M  V30 3610 H 345.003 -0.62179 -5.20801 0
M  V30 3611 H 346.477 1.07593 -5.41413 0
M  V30 3612 H 346.954 1.92685 -3.94676 0
M  V30 3613 H 347.56 0.281221 -4.24369 0
M  V30 3614 N 345.875 1.56104 -0.216619 0
M  V30 3615 C 346.805 2.23063 0.690296 0
M  V30 3616 C 347.786 1.20072 1.20485 0
M  V30 3617 O 348.971 1.48643 1.24976 0
M  V30 3618 C 346.101 2.90672 1.90072 0
M  V30 3619 C 345.055 4.00092 1.5202 0
M  V30 3620 C 344.381 4.54972 2.80899 0
M  V30 3621 C 345.681 5.17398 0.71391 0
M  V30 3622 H 347.375 2.99109 0.132038 0
M  V30 3623 H 344.921 1.43866 0.0620664 0
M  V30 3624 H 346.874 3.36204 2.54057 0
M  V30 3625 H 345.598 2.12066 2.48386 0
M  V30 3626 H 344.257 3.55283 0.903839 0
M  V30 3627 H 343.905 3.73102 3.37348 0
M  V30 3628 H 343.605 5.28817 2.56176 0
M  V30 3629 H 345.129 5.0322 3.45836 0
M  V30 3630 H 346.543 5.59342 1.25735 0
M  V30 3631 H 344.94 5.97444 0.563951 0
M  V30 3632 H 346.01 4.84088 -0.280527 0
M  V30 3633 N 347.353 -0.0568162 1.57498 0
M  V30 3634 C 348.303 -1.07315 2.01166 0
M  V30 3635 C 349.287 -1.33632 0.896171 0
M  V30 3636 O 350.479 -1.33682 1.16009 0
M  V30 3637 C 347.608 -2.38257 2.47161 0
M  V30 3638 C 346.694 -2.1515 3.65474 0
M  V30 3639 N 347.085 -1.62014 4.7915 0
M  V30 3640 C 345.383 -2.45559 3.72313 0
M  V30 3641 C 346.084 -1.54069 5.60926 0
M  V30 3642 N 345.06 -2.00652 5.05213 0
M  V30 3643 H 348.862 -0.655878 2.86488 0
M  V30 3644 H 346.376 -0.263635 1.60246 0
M  V30 3645 H 348.373 -3.11845 2.76691 0
M  V30 3646 H 347.033 -2.80687 1.63232 0
M  V30 3647 H 348.044 -1.30667 5.01145 0
M  V30 3648 H 344.721 -2.91253 2.99129 0
M  V30 3649 H 346.111 -1.13712 6.62208 0
M  V30 3650 N 348.832 -1.54138 -0.328536 0
M  V30 3651 C 350.072 -1.73827 -1.07534 0
M  V30 3652 C 350.436 -0.498777 -1.85408 0
M  V30 3653 O 351.637 -0.572937 -2.62623 0
M  V30 3654 C 349.908 -2.97573 -1.97952 0
M  V30 3655 S 351.467 -3.38143 -2.79652 0
M  V30 3656 H 348.285 -0.611287 -0.36311 0
M  V30 3657 H 350.887 -1.92306 -0.351931 0
M  V30 3658 H 349.591 -3.85939 -1.39569 0
M  V30 3659 H 349.122 -2.81603 -2.74706 0
M  V30 3660 H 351.137 -2.93052 -4.00418 0
M  V30 3661 N 350.31 0.590341 -1.46126 0
M  V30 3662 C 351.558 1.34616 -1.50742 0
M  V30 3663 C 351.879 1.94363 -0.157486 0
M  V30 3664 O 351.149 1.78136 0.815136 0
M  V30 3665 H 349.729 0.499789 -0.555175 0
M  V30 3666 H 352.391 0.691953 -1.82203 0
M  V30 3667 H 351.487 2.15678 -2.25587 0
M  V30 3668 N 351.788 1.33704 0.83433 0
M  V30 3669 C 352.718 1.26967 1.95963 0
M  V30 3670 C 353.699 0.149337 1.69443 0
M  V30 3671 O 354.884 0.339852 1.91203 0
M  V30 3672 C 352.014 1.01275 3.32206 0
M  V30 3673 C 350.968 2.09652 3.73136 0
M  V30 3674 C 350.294 1.69166 5.07235 0
M  V30 3675 C 351.594 3.51372 3.86439 0
M  V30 3676 H 353.288 2.2112 2.01857 0
M  V30 3677 H 350.834 1.06447 0.969793 0
M  V30 3678 H 352.787 0.952106 4.10503 0
M  V30 3679 H 351.511 0.0356203 3.26581 0
M  V30 3680 H 350.17 2.14766 2.97104 0
M  V30 3681 H 349.818 0.701437 4.98085 0
M  V30 3682 H 349.518 2.41694 5.35591 0
M  V30 3683 H 351.042 1.64576 5.88003 0
M  V30 3684 H 352.456 3.48734 4.55036 0
M  V30 3685 H 350.853 4.22425 4.26236 0
M  V30 3686 H 351.923 3.89546 2.88759 0
M  V30 3687 N 353.266 -1.05314 1.17247 0
M  V30 3688 C 354.214 -2.15137 0.884238 0
M  V30 3689 C 355.208 -1.68729 -0.15063 0
M  V30 3690 O 356.414 -1.8 -0.00366673 0
M  V30 3691 H 352.789 -0.702471 0.2684 0
M  V30 3692 H 354.76 -2.36652 1.81764 0
M  V30 3693 C 353.509 -3.45243 0.412659 0
M  V30 3694 H 352.832 -3.81352 1.20043 0
M  V30 3695 H 354.272 -4.23263 0.249858 0
M  V30 3696 C 352.731 -3.25487 -0.86948 0
M  V30 3697 O 353.261 -3.51938 -1.93655 0
M  V30 3698 N 351.467 -2.78875 -0.817147 0
M  V30 3699 H 351.014 -2.57549 0.0514211 0
M  V30 3700 H 350.972 -2.66036 -1.67547 0
M  V30 3701 N 354.744 -0.972509 -1.24016 0
M  V30 3702 C 355.654 -0.5143 -2.28893 0
M  V30 3703 C 356.67 0.427078 -1.68677 0
M  V30 3704 O 357.846 0.298939 -1.99169 0
M  V30 3705 C 354.911 0.183598 -3.46214 0
M  V30 3706 C 353.972 -0.798202 -4.21814 0
M  V30 3707 C 353.205 -0.133514 -5.33533 0
M  V30 3708 O 353.428 1.07714 -5.60137 0
M  V30 3709 O 352.362 -0.828103 -5.96176 0
M  V30 3710 H 356.188 -1.38629 -2.70214 0
M  V30 3711 H 353.773 -0.739769 -1.29799 0
M  V30 3712 H 355.655 0.575433 -4.17453 0
M  V30 3713 H 354.33 1.03048 -3.0686 0
M  V30 3714 H 353.237 -1.24059 -3.52931 0
M  V30 3715 H 354.57 -1.61364 -4.64997 0
M  V30 3716 N 356.222 1.38976 -0.743202 0
M  V30 3717 C 357.172 2.27843 -0.084513 0
M  V30 3718 C 358.156 1.44677 0.704094 0
M  V30 3719 O 359.348 1.67511 0.571755 0
M  V30 3720 C 356.477 3.33466 0.815781 0
M  V30 3721 C 355.563 4.24095 0.0208844 0
M  V30 3722 N 355.954 4.95609 -1.0102 0
M  V30 3723 C 354.252 4.45303 0.249293 0
M  V30 3724 C 354.953 5.62287 -1.49024 0
M  V30 3725 N 353.929 5.37571 -0.807377 0
M  V30 3726 H 357.731 2.80593 -0.87436 0
M  V30 3727 H 355.245 1.51755 -0.578283 0
M  V30 3728 H 357.242 3.96008 1.30321 0
M  V30 3729 H 355.902 2.82276 1.6047 0
M  V30 3730 H 356.913 4.98849 -1.39176 0
M  V30 3731 H 353.59 4.0504 1.01237 0
M  V30 3732 H 354.98 6.29519 -2.34853 0
M  V30 3733 N 357.7 0.491464 1.49741 0
M  V30 3734 C 358.648 -0.305837 2.30581 0
M  V30 3735 C 359.642 -0.971642 1.38764 0
M  V30 3736 O 360.848 -0.90042 1.5586 0
M  V30 3737 H 357.223 -0.117482 0.742767 0
M  V30 3738 H 359.194 0.396093 2.95759 0
M  V30 3739 C 357.943 -1.36319 3.19863 0
M  V30 3740 H 357.266 -0.860258 3.90435 0
M  V30 3741 H 358.706 -1.89323 3.79385 0
M  V30 3742 C 357.165 -2.37621 2.38826 0
M  V30 3743 O 357.695 -3.43311 2.08567 0
M  V30 3744 N 355.901 -2.09849 2.01026 0
M  V30 3745 H 355.448 -1.23922 2.25834 0
M  V30 3746 H 355.406 -2.77859 1.47112 0
M  V30 3747 N 359.178 -1.55987 0.224894 0
M  V30 3748 C 360.128 -2.17076 -0.697296 0
M  V30 3749 C 361.112 -1.12006 -1.15514 0
M  V30 3750 O 362.304 -1.37985 -1.10857 0
M  V30 3751 C 359.433 -2.85679 -1.90374 0
M  V30 3752 C 358.519 -3.97977 -1.46543 0
M  V30 3753 N 358.91 -5.00359 -0.739909 0
M  V30 3754 C 357.208 -4.10128 -1.75245 0
M  V30 3755 C 357.909 -5.79407 -0.515939 0
M  V30 3756 N 356.885 -5.32892 -1.07364 0
M  V30 3757 H 360.687 -2.93592 -0.134594 0
M  V30 3758 H 358.201 -1.62379 0.0262885 0
M  V30 3759 H 360.198 -3.27857 -2.57518 0
M  V30 3760 H 358.858 -2.1066 -2.47088 0
M  V30 3761 H 359.869 -5.16412 -0.392253 0
M  V30 3762 H 356.546 -3.46263 -2.33255 0
M  V30 3763 H 357.936 -6.71872 0.0617349 0
M  V30 3764 N 360.656 0.0484629 -1.57525 0
M  V30 3765 C 361.606 1.06246 -2.01732 0
M  V30 3766 C 362.59 1.33155 -0.903245 0
M  V30 3767 O 363.782 1.33065 -1.16717 0
M  V30 3768 C 360.911 2.36943 -2.48421 0
M  V30 3769 C 359.997 2.13208 -3.6661 0
M  V30 3770 N 360.388 1.5947 -4.80003 0
M  V30 3771 C 358.686 2.43581 -3.7361 0
M  V30 3772 C 359.387 1.51092 -5.61735 0
M  V30 3773 N 358.363 1.9797 -5.0627 0
M  V30 3774 H 362.165 0.640675 -2.86832 0
M  V30 3775 H 359.679 0.255134 -1.60383 0
M  V30 3776 H 361.676 3.10374 -2.78341 0
M  V30 3777 H 360.336 2.79818 -1.64718 0
M  V30 3778 H 361.347 1.28008 -5.01831 0
M  V30 3779 H 358.024 2.89662 -3.00669 0
M  V30 3780 H 359.414 1.10199 -6.62801 0
M  V30 3781 N 362.134 1.5431 0.320358 0
M  V30 3782 C 363.064 1.86912 1.3995 0
M  V30 3783 C 364.045 0.726211 1.53819 0
M  V30 3784 O 365.23 0.980233 1.67646 0
M  V30 3785 C 362.36 2.09932 2.7667 0
M  V30 3786 C 361.314 3.25776 2.77586 0
M  V30 3787 C 360.64 3.34173 4.17412 0
M  V30 3788 C 361.94 4.6335 2.41048 0
M  V30 3789 H 363.634 2.77292 1.12914 0
M  V30 3790 H 361.18 1.33421 0.541738 0
M  V30 3791 H 363.133 2.31324 3.52232 0
M  V30 3792 H 361.857 1.16304 3.0519 0
M  V30 3793 H 360.516 3.04276 2.04479 0
M  V30 3794 H 360.164 2.38098 4.43078 0
M  V30 3795 H 359.864 4.12033 4.18931 0
M  V30 3796 H 361.388 3.57803 4.94782 0
M  V30 3797 H 362.802 4.84602 3.06324 0
M  V30 3798 H 361.199 5.43782 2.53813 0
M  V30 3799 H 362.269 4.65381 1.36193 0
M  V30 3800 N 363.613 -0.582584 1.46437 0
M  V30 3801 C 364.862 -1.337 1.5102 0
M  V30 3802 C 365.175 -1.94891 0.166359 0
M  V30 3803 O 366.381 -2.71351 0.0899954 0
M  V30 3804 C 364.837 -2.42315 2.66104 0
M  V30 3805 C 364.445 -1.87427 4.06909 0
M  V30 3806 C 366.189 -3.19099 2.79958 0
M  V30 3807 C 364.096 -2.93672 5.13333 0
M  V30 3808 H 363.026 -0.502619 0.562041 0
M  V30 3809 H 365.677 -0.621701 1.72647 0
M  V30 3810 H 364.059 -3.16645 2.37807 0
M  V30 3811 H 365.233 -1.19639 4.44998 0
M  V30 3812 H 363.548 -1.2331 3.97723 0
M  V30 3813 H 366.145 -3.9839 3.56636 0
M  V30 3814 H 366.488 -3.71695 1.87479 0
M  V30 3815 H 367.021 -2.51875 3.07902 0
M  V30 3816 H 363.76 -2.45962 6.07604 0
M  V30 3817 H 363.28 -3.59948 4.79789 0
M  V30 3818 H 364.959 -3.5762 5.39182 0
M  V30 3819 N 365.091 -1.34144 -0.827227 0
M  V30 3820 C 366.039 -1.25364 -1.95925 0
M  V30 3821 C 367.033 -0.152608 -1.68711 0
M  V30 3822 O 368.239 -0.317311 -1.77181 0
M  V30 3823 H 364.614 -0.389342 -0.643364 0
M  V30 3824 H 366.585 -2.21045 -2.00454 0
M  V30 3825 C 365.334 -1.02158 -3.32354 0
M  V30 3826 H 364.657 -1.86111 -3.5384 0
M  V30 3827 H 366.097 -1.00048 -4.12027 0
M  V30 3828 C 364.556 0.275244 -3.35774 0
M  V30 3829 O 365.086 1.27806 -3.80826 0
M  V30 3830 N 363.292 0.306853 -2.88975 0
M  V30 3831 H 362.839 -0.509777 -2.52506 0
M  V30 3832 H 362.797 1.17432 -2.91646 0
M  V30 3833 N 366.569 1.04691 -1.17803 0
M  V30 3834 C 367.846 1.7472 -0.879328 0
M  V30 3835 C 368.226 2.01812 0.619271 0
M  V30 3836 O 367.574 1.65824 1.57209 0
M  V30 3837 C 367.784 3.03686 -1.71976 0
M  V30 3838 C 369.132 3.77542 -1.94286 0
M  V30 3839 O 370.156 3.13569 -1.68976 0
M  V30 3840 O 369.015 4.92506 -2.36855 0
M  V30 3841 H 366.109 0.760011 -0.326056 0
M  V30 3842 H 368.655 1.10813 -1.28525 0
M  V30 3843 H 367.427 2.79754 -2.73594 0
M  V30 3844 H 367.05 3.75332 -1.31194 0
M  V30 3845 N 368.047 0.979072 1.23499 0
M  V30 3846 C 369.294 0.647219 1.91878 0
M  V30 3847 C 369.622 -0.819074 1.76413 0
M  V30 3848 O 368.877 -1.60616 1.11808 0
M  V30 3849 C 369.176 0.981932 3.43646 0
M  V30 3850 C 368.842 2.43822 3.79291 0
M  V30 3851 C 367.504 2.83622 3.88731 0
M  V30 3852 C 369.856 3.3828 3.96505 0
M  V30 3853 C 367.184 4.16897 4.12812 0
M  V30 3854 C 369.536 4.71197 4.22085 0
M  V30 3855 C 368.2 5.10758 4.29747 0
M  V30 3856 H 367.47 0.236834 0.702133 0
M  V30 3857 H 370.117 1.23268 1.46551 0
M  V30 3858 H 368.422 0.314365 3.90537 0
M  V30 3859 H 370.119 0.703395 3.94783 0
M  V30 3860 H 366.709 2.11966 3.72516 0
M  V30 3861 H 370.893 3.0871 3.88603 0
M  V30 3862 H 366.149 4.47157 4.16966 0
M  V30 3863 H 370.323 5.44348 4.34348 0
M  V30 3864 H 367.95 6.1405 4.48159 0
M  V30 3865 N 369.525 -1.3858 0.750561 0
M  V30 3866 C 370.753 -2.04471 0.316098 0
M  V30 3867 C 371.168 -1.56606 -1.05452 0
M  V30 3868 O 370.525 -0.737784 -1.66922 0
M  V30 3869 C 370.576 -3.60025 0.326275 0
M  V30 3870 O 370.297 -4.06133 1.6428 0
M  V30 3871 C 371.798 -4.43131 -0.122429 0
M  V30 3872 H 369.018 -0.65717 0.135528 0
M  V30 3873 H 371.562 -1.77329 1.01857 0
M  V30 3874 H 369.717 -3.86014 -0.327431 0
M  V30 3875 H 370.131 -5.00547 1.56693 0
M  V30 3876 H 371.605 -5.51963 -0.0641473 0
M  V30 3877 H 372.082 -4.23333 -1.16988 0
M  V30 3878 H 372.688 -4.22323 0.50229 0
M  V30 3879 N 371.003 -0.499398 -1.49478 0
M  V30 3880 C 372.249 0.0457576 -2.02748 0
M  V30 3881 C 372.582 1.36793 -1.37846 0
M  V30 3882 O 371.857 1.87596 -0.513601 0
M  V30 3883 C 372.14 0.199986 -3.59544 0
M  V30 3884 C 371.993 -1.1452 -4.34977 0
M  V30 3885 C 373.312 0.94137 -4.29914 0
M  V30 3886 H 370.431 0.0151552 -0.736844 0
M  V30 3887 H 373.073 -0.650498 -1.78518 0
M  V30 3888 H 371.223 0.793007 -3.8032 0
M  V30 3889 H 372.895 -1.77697 -4.25701 0
M  V30 3890 H 371.138 -1.73488 -3.97598 0
M  V30 3891 H 371.809 -0.990607 -5.43039 0
M  V30 3892 H 374.285 0.43844 -4.13784 0
M  V30 3893 H 373.161 1.01812 -5.39375 0
M  V30 3894 H 373.422 1.98471 -3.95046 0
M  V30 3895 N 372.481 1.55866 -0.233164 0
M  V30 3896 C 373.428 2.20796 0.67215 0
M  V30 3897 C 374.398 1.16731 1.18166 0
M  V30 3898 O 375.583 1.45129 1.23864 0
M  V30 3899 C 372.723 2.90072 1.86955 0
M  V30 3900 C 371.836 4.08759 1.39786 0
M  V30 3901 C 370.971 4.65787 2.55374 0
M  V30 3902 C 370.01 5.76752 2.04998 0
M  V30 3903 N 369.147 6.28021 3.13901 0
M  V30 3904 H 373.987 2.9779 0.111749 0
M  V30 3905 H 371.524 1.47036 0.0434007 0
M  V30 3906 H 373.482 3.28428 2.57276 0
M  V30 3907 H 372.112 2.15575 2.40265 0
M  V30 3908 H 371.164 3.7581 0.589173 0
M  V30 3909 H 372.476 4.88906 0.98856 0
M  V30 3910 H 371.63 5.06646 3.33758 0
M  V30 3911 H 370.369 3.84828 2.99598 0
M  V30 3912 H 369.374 5.35383 1.25079 0
M  V30 3913 H 370.599 6.59553 1.61759 0
M  V30 3914 H 368.545 5.49971 3.57586 0
M  V30 3915 H 368.462 7.03323 2.7726 0
M  V30 3916 H 369.73 6.73538 3.92386 0
M  V30 3917 N 373.959 -0.0401083 1.57549 0
M  V30 3918 C 374.891 -1.07149 2.02612 0
M  V30 3919 C 375.904 -1.33126 0.937085 0
M  V30 3920 O 377.093 -1.30808 1.21456 0
M  V30 3921 C 374.193 -2.41561 2.37701 0
M  V30 3922 C 373.366 -2.35096 3.68848 0
M  V30 3923 C 372.425 -3.51867 3.91249 0
M  V30 3924 O 371.451 -3.3186 4.62447 0
M  V30 3925 N 372.653 -4.73351 3.36035 0
M  V30 3926 H 375.418 -0.687485 2.91708 0
M  V30 3927 H 372.979 -0.228248 1.60283 0
M  V30 3928 H 374.971 -3.18379 2.49833 0
M  V30 3929 H 373.541 -2.71846 1.54332 0
M  V30 3930 H 372.761 -1.4345 3.67173 0
M  V30 3931 H 374.049 -2.27908 4.54901 0
M  V30 3932 H 373.447 -4.92507 2.78304 0
M  V30 3933 H 372.004 -5.47572 3.53565 0
M  V30 3934 N 375.437 -1.54477 -0.31217 0
M  V30 3935 C 376.37 -1.79519 -1.40884 0
M  V30 3936 C 377.348 -0.645753 -1.49227 0
M  V30 3937 O 378.532 -0.884468 -1.66461 0
M  V30 3938 C 375.659 -1.92194 -2.78889 0
M  V30 3939 C 374.705 -3.14555 -2.88023 0
M  V30 3940 S 375.538 -4.72893 -2.51262 0
M  V30 3941 C 376.694 -4.8849 -3.91317 0
M  V30 3942 H 376.927 -2.72256 -1.19432 0
M  V30 3943 H 374.46 -1.45746 -0.509654 0
M  V30 3944 H 376.418 -2.00182 -3.58382 0
M  V30 3945 H 375.079 -1.00414 -2.97617 0
M  V30 3946 H 374.272 -3.20193 -3.89221 0
M  V30 3947 H 373.874 -3.04955 -2.16514 0
M  V30 3948 H 376.166 -4.71826 -4.86196 0
M  V30 3949 H 377.109 -5.90588 -3.90656 0
M  V30 3950 H 377.517 -4.16715 -3.80801 0
M  V30 3951 N 376.915 0.57481 -1.46744 0
M  V30 3952 C 378.331 0.898981 -1.31873 0
M  V30 3953 C 378.531 1.99313 -0.29605 0
M  V30 3954 O 377.587 2.50728 0.298621 0
M  V30 3955 C 378.9 1.30886 -2.7072 0
M  V30 3956 C 380.448 1.42127 -2.78871 0
M  V30 3957 C 380.923 1.86478 -4.18318 0
M  V30 3958 N 382.414 1.93658 -4.20774 0
M  V30 3959 C 383.149 2.29267 -5.2557 0
M  V30 3960 N 382.645 2.63612 -6.40688 0
M  V30 3961 N 384.438 2.29889 -5.1294 0
M  V30 3962 H 376.589 -0.147839 -2.11885 0
M  V30 3963 H 378.852 -0.00347013 -0.947994 0
M  V30 3964 H 378.558 0.578853 -3.46904 0
M  V30 3965 H 378.432 2.26874 -3.01343 0
M  V30 3966 H 380.819 2.14213 -2.0297 0
M  V30 3967 H 380.9 0.443705 -2.51922 0
M  V30 3968 H 380.544 1.14968 -4.94717 0
M  V30 3969 H 380.474 2.85207 -4.42679 0
M  V30 3970 H 382.965 1.69574 -3.37718 0
M  V30 3971 H 383.278 2.89759 -7.16421 0
M  V30 3972 H 381.623 2.61232 -6.44036 0
M  V30 3973 H 384.814 2.02485 -4.22039 0
M  V30 3974 H 384.987 2.57312 -5.94722 0
M  V30 3975 N 378.394 1.34581 0.820102 0
M  V30 3976 C 379.326 1.22236 1.93884 0
M  V30 3977 C 380.339 0.148776 1.62119 0
M  V30 3978 O 381.528 0.400877 1.7394 0
M  V30 3979 C 378.628 0.856542 3.27897 0
M  V30 3980 C 377.801 2.02569 3.87666 0
M  V30 3981 C 376.86 1.63782 5.00062 0
M  V30 3982 O 375.886 2.35477 5.18208 0
M  V30 3983 N 377.088 0.553611 5.77854 0
M  V30 3984 H 379.853 2.18615 2.05006 0
M  V30 3985 H 377.414 1.27573 0.99683 0
M  V30 3986 H 379.406 0.578806 4.0054 0
M  V30 3987 H 377.976 -0.0171518 3.12595 0
M  V30 3988 H 377.196 2.468 3.07382 0
M  V30 3989 H 378.484 2.80752 4.24329 0
M  V30 3990 H 377.882 -0.0423528 5.65684 0
M  V30 3991 H 376.439 0.335614 6.50935 0
M  V30 3992 N 379.872 -1.04064 1.18357 0
M  V30 3993 C 381.12 -1.76915 0.977013 0
M  V30 3994 C 381.441 -1.88624 -0.494577 0
M  V30 3995 O 380.711 -1.41125 -1.3587 0
M  V30 3996 H 379.291 -0.65535 0.358504 0
M  V30 3997 H 381.953 -1.25592 1.49039 0
M  V30 3998 H 381.049 -2.78178 1.41504 0
M  V30 3999 N 381.35 -0.985608 -1.22978 0
M  V30 4000 C 382.313 -0.535071 -2.22867 0
M  V30 4001 C 383.313 0.378123 -1.56291 0
M  V30 4002 O 384.503 0.171092 -1.73358 0
M  V30 4003 C 381.635 0.222702 -3.40172 0
M  V30 4004 H 382.828 -1.41835 -2.6424 0
M  V30 4005 H 380.381 -0.772042 -1.35901 0
M  V30 4006 H 381.116 1.12229 -3.04262 0
M  V30 4007 H 380.901 -0.43288 -3.89703 0
M  V30 4008 H 382.391 0.526335 -4.1427 0
M  V30 4009 N 382.828 1.3818 -0.7579 0
M  V30 4010 C 384.075 2.00019 -0.315985 0
M  V30 4011 C 384.403 1.60163 1.10355 0
M  V30 4012 O 383.658 0.83264 1.77103 0
M  V30 4013 C 383.957 3.55252 -0.391218 0
M  V30 4014 C 383.623 4.14834 -1.76702 0
M  V30 4015 C 382.285 4.30821 -2.14353 0
M  V30 4016 C 384.637 4.47658 -2.66931 0
M  V30 4017 C 381.965 4.76928 -3.41696 0
M  V30 4018 C 384.317 4.95184 -3.93669 0
M  V30 4019 C 382.981 5.09377 -4.31383 0
M  V30 4020 H 382.251 0.731923 -0.115627 0
M  V30 4021 H 384.898 1.65161 -0.969223 0
M  V30 4022 H 383.203 3.90273 0.34558 0
M  V30 4023 H 384.9 4.00988 -0.030805 0
M  V30 4024 H 381.49 4.02808 -1.46435 0
M  V30 4025 H 385.674 4.34904 -2.39106 0
M  V30 4026 H 380.93 4.86103 -3.70829 0
M  V30 4027 H 385.104 5.19551 -4.63724 0
M  V30 4028 H 382.731 5.44865 -5.30119 0
M  V30 4029 N 384.306 0.507319 1.49211 0
M  V30 4030 C 385.236 -0.256939 2.32082 0
M  V30 4031 C 386.217 -0.956609 1.40652 0
M  V30 4032 O 387.402 -0.946788 1.69557 0
M  V30 4033 C 384.532 -1.31802 3.21318 0
M  V30 4034 C 383.486 -0.737855 4.21592 0
M  V30 4035 C 382.812 -1.89992 4.99807 0
M  V30 4036 C 384.112 0.275325 5.21574 0
M  V30 4037 H 385.806 0.434798 2.96226 0
M  V30 4038 H 383.352 0.210546 1.42452 0
M  V30 4039 H 385.305 -1.86045 3.78107 0
M  V30 4040 H 384.029 -2.03903 2.5513 0
M  V30 4041 H 382.688 -0.217126 3.65956 0
M  V30 4042 H 382.336 -2.60877 4.30061 0
M  V30 4043 H 382.036 -1.51777 5.6766 0
M  V30 4044 H 383.56 -2.44657 5.59442 0
M  V30 4045 H 384.974 -0.179193 5.7302 0
M  V30 4046 H 383.371 0.573649 5.97352 0
M  V30 4047 H 384.441 1.18903 4.70096 0
M  V30 4048 N 385.784 -1.5574 0.241426 0
M  V30 4049 C 387.03 -1.99104 -0.385406 0
M  V30 4050 C 387.363 -1.1293 -1.57988 0
M  V30 4051 O 386.638 -0.191449 -1.93555 0
M  V30 4052 C 386.921 -3.51087 -0.800616 0
M  V30 4053 C 386.774 -4.48028 0.398874 0
M  V30 4054 C 388.093 -4.08015 -1.64959 0
M  V30 4055 H 385.212 -0.723848 -0.138614 0
M  V30 4056 H 387.854 -1.86903 0.341642 0
M  V30 4057 H 386.004 -3.61615 -1.4201 0
M  V30 4058 H 387.676 -4.49487 1.03726 0
M  V30 4059 H 385.919 -4.21077 1.04293 0
M  V30 4060 H 386.59 -5.51962 0.0651056 0
M  V30 4061 H 389.066 -4.00555 -1.12672 0
M  V30 4062 H 387.942 -5.14635 -1.90898 0
M  V30 4063 H 388.203 -3.56131 -2.61961 0
M  V30 4064 N 387.262 0.0317525 -1.57568 0
M  V30 4065 C 388.21 1.05165 -2.07468 0
M  V30 4066 C 389.204 1.3761 -0.98792 0
M  V30 4067 O 390.41 1.36546 -1.17282 0
M  V30 4068 H 386.785 0.35666 -0.66204 0
M  V30 4069 H 388.756 0.604958 -2.92203 0
M  V30 4070 C 387.505 2.34488 -2.56731 0
M  V30 4071 H 386.828 2.10383 -3.39969 0
M  V30 4072 H 388.268 3.04203 -2.95358 0
M  V30 4073 C 386.727 3.03266 -1.46736 0
M  V30 4074 O 387.257 3.92988 -0.832069 0
M  V30 4075 N 385.463 2.6455 -1.20256 0
M  V30 4076 H 385.01 1.91674 -1.72102 0
M  V30 4077 H 384.968 3.10886 -0.468737 0
M  V30 4078 N 388.74 1.54641 0.303973 0
M  V30 4079 C 389.968 1.77768 1.05858 0
M  V30 4080 C 390.383 0.535722 1.8104 0
M  V30 4081 O 389.74 -0.494337 1.75677 0
M  V30 4082 C 389.791 2.9834 2.04146 0
M  V30 4083 O 389.512 4.17736 1.32015 0
M  V30 4084 C 391.013 3.33832 2.91669 0
M  V30 4085 H 388.233 0.592961 0.314067 0
M  V30 4086 H 390.777 2.01583 0.344149 0
M  V30 4087 H 388.932 2.76742 2.71096 0
M  V30 4088 H 389.346 4.85693 1.97998 0
M  V30 4089 H 390.82 4.21448 3.56491 0
M  V30 4090 H 391.297 2.51857 3.59812 0
M  V30 4091 H 391.903 3.57579 2.30254 0
M  V30 4092 N 390.218 -0.567019 1.47046 0
M  V30 4093 C 391.181 -1.65696 1.58359 0
M  V30 4094 C 392.181 -1.54097 0.459441 0
M  V30 4095 O 393.371 -1.58432 0.724225 0
M  V30 4096 C 390.503 -3.05197 1.51879 0
M  V30 4097 H 391.696 -1.57019 2.5551 0
M  V30 4098 H 389.249 -0.786148 1.3509 0
M  V30 4099 H 389.984 -3.19417 0.560673 0
M  V30 4100 H 389.769 -3.15025 2.33455 0
M  V30 4101 H 391.259 -3.84511 1.62913 0
M  V30 4102 N 391.696 -1.35014 -0.812953 0
M  V30 4103 C 393.112 -1.14914 -1.10757 0
M  V30 4104 C 393.312 0.0426818 -2.01455 0
M  V30 4105 O 392.368 0.715212 -2.42159 0
M  V30 4106 C 393.681 -2.44911 -1.74468 0
M  V30 4107 C 395.229 -2.5106 -1.86917 0
M  V30 4108 C 395.704 -3.81085 -2.54044 0
M  V30 4109 N 397.195 -3.82301 -2.61535 0
M  V30 4110 C 397.93 -4.79634 -3.14227 0
M  V30 4111 N 397.426 -5.87353 -3.67407 0
M  V30 4112 N 399.219 -4.67078 -3.12721 0
M  V30 4113 H 391.37 -2.1136 -0.20989 0
M  V30 4114 H 393.633 -0.935128 -0.155692 0
M  V30 4115 H 393.339 -3.32267 -1.15289 0
M  V30 4116 H 393.213 -2.58989 -2.74234 0
M  V30 4117 H 395.6 -1.64137 -2.45241 0
M  V30 4118 H 395.681 -2.40901 -0.860242 0
M  V30 4119 H 395.325 -4.68402 -1.96372 0
M  V30 4120 H 395.255 -3.88529 -3.55461 0
M  V30 4121 H 397.746 -3.04465 -2.23851 0
M  V30 4122 H 398.059 -6.57624 -4.05894 0
M  V30 4123 H 396.404 -5.91054 -3.65623 0
M  V30 4124 H 399.595 -3.82067 -2.70449 0
M  V30 4125 H 399.768 -5.43098 -3.53481 0
M  V30 4126 N 393.175 1.03435 -1.18907 0
M  V30 4127 C 394.423 1.76394 -0.986382 0
M  V30 4128 C 394.744 1.88883 0.484567 0
M  V30 4129 O 394.014 1.41843 1.3512 0
M  V30 4130 H 392.594 0.65344 -0.361975 0
M  V30 4131 H 395.256 1.248 -1.49703 0
M  V30 4132 H 394.352 2.77424 -1.42978 0
M  V30 4133 N 394.653 0.992116 1.22453 0
M  V30 4134 C 395.901 0.666215 1.90804 0
M  V30 4135 C 396.222 -0.804152 1.77647 0
M  V30 4136 O 395.492 -1.57629 1.16318 0
M  V30 4137 H 394.072 0.243423 0.706225 0
M  V30 4138 H 396.734 1.25845 1.48825 0
M  V30 4139 H 395.83 0.928069 2.97982 0
M  V30 4140 N 396.131 -1.37776 0.765217 0
M  V30 4141 C 397.061 -2.32945 0.160953 0
M  V30 4142 C 398.042 -1.55454 -0.690516 0
M  V30 4143 O 399.227 -1.83721 -0.629318 0
M  V30 4144 C 396.357 -3.39669 -0.724031 0
M  V30 4145 C 395.311 -4.27992 0.0256173 0
M  V30 4146 C 394.637 -5.25673 -0.978383 0
M  V30 4147 C 395.937 -5.08309 1.20082 0
M  V30 4148 H 397.631 -2.83728 0.955969 0
M  V30 4149 H 395.177 -1.36416 0.461149 0
M  V30 4150 H 397.13 -4.05219 -1.15652 0
M  V30 4151 H 395.854 -2.87396 -1.5515 0
M  V30 4152 H 394.513 -3.63964 0.438812 0
M  V30 4153 H 394.161 -4.69682 -1.80022 0
M  V30 4154 H 393.861 -5.85625 -0.481378 0
M  V30 4155 H 395.385 -5.94098 -1.40995 0
M  V30 4156 H 396.799 -5.67034 0.845307 0
M  V30 4157 H 395.196 -5.77554 1.62947 0
M  V30 4158 H 396.266 -4.41365 2.00811 0
M  V30 4159 N 397.609 -0.515225 -1.4894 0
M  V30 4160 C 398.855 0.0242508 -2.02785 0
M  V30 4161 C 399.188 1.35323 -1.39289 0
M  V30 4162 O 398.463 1.87041 -0.533469 0
M  V30 4163 C 398.746 0.16184 -3.59736 0
M  V30 4164 C 398.599 -1.19127 -4.33738 0
M  V30 4165 C 399.918 0.895719 -4.30888 0
M  V30 4166 H 397.037 0.00733914 -0.736963 0
M  V30 4167 H 399.679 -0.669395 -1.77818 0
M  V30 4168 H 397.829 0.752624 -3.8114 0
M  V30 4169 H 399.501 -1.82202 -4.23792 0
M  V30 4170 H 397.744 -1.77695 -3.95736 0
M  V30 4171 H 398.415 -1.04815 -5.41957 0
M  V30 4172 H 400.891 0.394528 -4.14225 0
M  V30 4173 H 399.767 0.960859 -5.40425 0
M  V30 4174 H 400.028 1.9427 -3.97129 0
M  V30 4175 N 399.087 1.5561 -0.249682 0
M  V30 4176 C 400.364 1.90932 0.424761 0
M  V30 4177 C 400.744 1.17078 1.75658 0
M  V30 4178 O 400.092 0.289176 2.26663 0
M  V30 4179 C 400.302 3.43975 0.590109 0
M  V30 4180 C 401.65 4.15281 0.884714 0
M  V30 4181 O 402.674 3.49729 0.67587 0
M  V30 4182 O 401.533 5.31236 1.28259 0
M  V30 4183 H 398.627 0.794815 0.228468 0
M  V30 4184 H 401.173 1.67135 -0.293954 0
M  V30 4185 H 399.945 3.89748 -0.34818 0
M  V30 4186 H 399.568 3.73644 1.35926 0
M  V30 4187 N 400.565 -0.0233959 1.57583 0
M  V30 4188 C 401.475 -1.03907 2.10334 0
M  V30 4189 C 402.491 -1.39257 1.04323 0
M  V30 4190 O 403.667 -1.48462 1.36091 0
M  V30 4191 C 400.732 -2.31938 2.57693 0
M  V30 4192 C 399.793 -2.03117 3.78209 0
M  V30 4193 C 399.026 -3.25043 4.233 0
M  V30 4194 O 399.249 -4.35916 3.67876 0
M  V30 4195 O 398.183 -3.10411 5.15683 0
M  V30 4196 H 402.009 -0.620748 2.97288 0
M  V30 4197 H 399.594 -0.240743 1.47448 0
M  V30 4198 H 401.476 -3.07196 2.88458 0
M  V30 4199 H 400.151 -2.73055 1.73847 0
M  V30 4200 H 399.058 -1.25408 3.52454 0
M  V30 4201 H 400.391 -1.66852 4.63056 0
M  V30 4202 N 402.043 -1.548 -0.295768 0
M  V30 4203 C 402.99 -1.86113 -1.36494 0
M  V30 4204 C 403.96 -0.7105 -1.50137 0
M  V30 4205 O 405.145 -0.959626 -1.64912 0
M  V30 4206 C 402.285 -2.11861 -2.72413 0
M  V30 4207 C 401.398 -3.39471 -2.67177 0
M  V30 4208 C 400.533 -3.55035 -3.95125 0
M  V30 4209 C 399.572 -4.76418 -3.84308 0
M  V30 4210 N 398.709 -4.8876 -5.04042 0
M  V30 4211 H 403.549 -2.77314 -1.09091 0
M  V30 4212 H 401.086 -1.37315 -0.52753 0
M  V30 4213 H 403.044 -2.24786 -3.51464 0
M  V30 4214 H 401.674 -1.2392 -2.98066 0
M  V30 4215 H 400.726 -3.35139 -1.79962 0
M  V30 4216 H 402.038 -4.28646 -2.55076 0
M  V30 4217 H 401.192 -3.67653 -4.82614 0
M  V30 4218 H 399.931 -2.64002 -4.10066 0
M  V30 4219 H 398.936 -4.63827 -2.95202 0
M  V30 4220 H 400.161 -5.68863 -3.70906 0
M  V30 4221 H 398.107 -4.00652 -5.19436 0
M  V30 4222 H 398.024 -5.71945 -4.94384 0
M  V30 4223 H 399.292 -5.0574 -5.93167 0
M  V30 4224 N 403.521 0.559213 -1.47345 0
M  V30 4225 C 404.484 1.64854 -1.59235 0
M  V30 4226 C 405.484 1.53851 -0.467607 0
M  V30 4227 O 406.674 1.58045 -0.732617 0
M  V30 4228 C 403.806 3.04388 -1.53496 0
M  V30 4229 H 404.999 1.55662 -2.56339 0
M  V30 4230 H 402.552 0.778973 -1.35505 0
M  V30 4231 H 403.287 3.19115 -0.577604 0
M  V30 4232 H 403.072 3.13783 -2.35123 0
M  V30 4233 H 404.562 3.83642 -1.6495 0
M  V30 4234 N 404.999 1.35443 0.805782 0
M  V30 4235 C 405.929 1.31095 1.93226 0
M  V30 4236 C 406.91 0.185244 1.69088 0
M  V30 4237 O 408.095 0.380332 1.90439 0
M  V30 4238 C 405.225 1.08299 3.29983 0
M  V30 4239 C 404.179 2.17519 3.68605 0
M  V30 4240 C 403.505 1.79887 5.03532 0
M  V30 4241 C 404.805 3.5949 3.78898 0
M  V30 4242 H 406.499 2.25352 1.97122 0
M  V30 4243 H 404.045 1.0848 0.946996 0
M  V30 4244 H 405.998 1.03897 4.08391 0
M  V30 4245 H 404.722 0.104885 3.26432 0
M  V30 4246 H 403.381 2.2102 2.92482 0
M  V30 4247 H 403.029 0.80693 4.96485 0
M  V30 4248 H 402.729 2.53001 5.30344 0
M  V30 4249 H 404.253 1.77011 5.84379 0
M  V30 4250 H 405.667 3.58307 4.47536 0
M  V30 4251 H 404.064 4.31371 4.1718 0
M  V30 4252 H 405.134 3.95584 2.80431 0
M  V30 4253 N 406.477 -1.02803 1.19454 0
M  V30 4254 C 407.44 -2.09264 0.934955 0
M  V30 4255 C 408.44 -1.60576 -0.0849015 0
M  V30 4256 O 409.63 -1.73554 0.149933 0
M  V30 4257 C 406.762 -3.38482 0.40531 0
M  V30 4258 H 407.955 -2.33726 1.87916 0
M  V30 4259 H 405.508 -1.19426 1.00832 0
M  V30 4260 H 406.243 -3.19689 -0.544899 0
M  V30 4261 H 406.028 -3.75142 1.14065 0
M  V30 4262 H 407.518 -4.16894 0.242806 0
M  V30 4263 N 407.956 -0.998596 -1.21925 0
M  V30 4264 C 408.888 -0.511879 -2.23411 0
M  V30 4265 C 409.901 0.396094 -1.57908 0
M  V30 4266 O 411.09 0.197316 -1.77406 0
M  V30 4267 C 408.19 0.276802 -3.37768 0
M  V30 4268 C 407.363 -0.628687 -4.32858 0
M  V30 4269 C 406.422 0.109272 -5.26087 0
M  V30 4270 O 405.448 -0.507237 -5.66935 0
M  V30 4271 N 406.65 1.38983 -5.63617 0
M  V30 4272 H 409.415 -1.38457 -2.658 0
M  V30 4273 H 406.976 -0.873981 -1.36283 0
M  V30 4274 H 408.968 0.77928 -3.97126 0
M  V30 4275 H 407.538 1.05063 -2.94415 0
M  V30 4276 H 406.758 -1.31175 -3.71735 0
M  V30 4277 H 408.046 -1.24514 -4.93329 0
M  V30 4278 H 407.444 1.91194 -5.32411 0
M  V30 4279 H 406.001 1.83739 -6.25367 0
M  V30 4280 N 409.434 1.37368 -0.772513 0
M  V30 4281 C 410.397 2.28601 -0.165541 0
M  V30 4282 C 411.397 1.48062 0.627238 0
M  V30 4283 O 412.587 1.68268 0.450715 0
M  V30 4284 C 409.719 3.32023 0.772897 0
M  V30 4285 H 410.912 2.83787 -0.969787 0
M  V30 4286 H 408.465 1.46647 -0.540775 0
M  V30 4287 H 409.2 2.81962 1.60212 0
M  V30 4288 H 408.985 3.91555 0.206585 0
M  V30 4289 H 410.475 4.00197 1.19298 0
M  V30 4290 N 410.912 0.523116 1.48665 0
M  V30 4291 C 411.842 -0.23231 2.32342 0
M  V30 4292 C 412.823 -0.941637 1.41659 0
M  V30 4293 O 414.008 -0.928751 1.70552 0
M  V30 4294 C 411.138 -1.28387 3.22698 0
M  V30 4295 C 410.092 -0.693098 4.22351 0
M  V30 4296 C 409.418 -1.8468 5.01794 0
M  V30 4297 C 410.718 0.33063 5.21252 0
M  V30 4298 H 412.412 0.466192 2.95748 0
M  V30 4299 H 409.958 0.225643 1.42221 0
M  V30 4300 H 411.911 -1.82024 3.80059 0
M  V30 4301 H 410.635 -2.01186 2.57278 0
M  V30 4302 H 409.294 -0.178299 3.66166 0
M  V30 4303 H 408.942 -2.56301 4.32804 0
M  V30 4304 H 408.642 -1.45747 5.69238 0
M  V30 4305 H 410.166 -2.38709 5.62006 0
M  V30 4306 H 411.58 -0.118407 5.73178 0
M  V30 4307 H 409.977 0.636974 5.9671 0
M  V30 4308 H 411.047 1.23883 4.68808 0
M  V30 4309 N 412.39 -1.55475 0.257931 0
M  V30 4310 C 413.337 -2.21837 -0.636939 0
M  V30 4311 C 414.307 -1.18596 -1.16294 0
M  V30 4312 O 415.492 -1.47081 -1.21539 0
M  V30 4313 C 412.632 -2.9301 -1.82317 0
M  V30 4314 C 411.745 -4.10931 -1.33265 0
M  V30 4315 C 410.88 -4.69791 -2.47931 0
M  V30 4316 C 409.919 -5.7994 -1.95796 0
M  V30 4317 N 409.056 -6.32935 -3.0387 0
M  V30 4318 H 413.896 -2.9793 -0.0643591 0
M  V30 4319 H 411.433 -1.47086 -0.0200031 0
M  V30 4320 H 413.391 -3.3248 -2.52018 0
M  V30 4321 H 412.021 -2.1937 -2.36805 0
M  V30 4322 H 411.073 -3.76699 -0.52931 0
M  V30 4323 H 412.385 -4.90417 -0.910654 0
M  V30 4324 H 411.539 -5.11892 -3.25656 0
M  V30 4325 H 410.278 -3.89545 -2.93438 0
M  V30 4326 H 409.283 -5.37305 -1.16546 0
M  V30 4327 H 410.508 -6.62043 -1.51246 0
M  V30 4328 H 408.454 -5.55591 -3.48791 0
M  V30 4329 H 408.371 -7.07645 -2.66035 0
M  V30 4330 H 409.639 -6.79695 -3.81621 0
M  V30 4331 N 413.868 0.0150385 -1.57593 0
M  V30 4332 C 414.778 1.02791 -2.10882 0
M  V30 4333 C 415.794 1.38702 -1.0506 0
M  V30 4334 O 416.97 1.47739 -1.36877 0
M  V30 4335 C 414.035 2.30568 -2.58919 0
M  V30 4336 C 413.096 2.01108 -3.79281 0
M  V30 4337 C 412.329 3.22794 -4.25018 0
M  V30 4338 O 412.552 4.33959 -3.70183 0
M  V30 4339 O 411.486 3.07672 -5.17322 0
M  V30 4340 H 415.312 0.604973 -2.97613 0
M  V30 4341 H 412.897 0.23292 -1.47573 0
M  V30 4342 H 414.779 3.05662 -2.90084 0
M  V30 4343 H 413.454 2.72129 -1.75293 0
M  V30 4344 H 412.361 1.23537 -3.53114 0
M  V30 4345 H 413.694 1.64394 -4.63935 0
M  V30 4346 N 415.346 1.54954 0.287554 0
M  V30 4347 C 416.594 1.74528 1.01904 0
M  V30 4348 C 416.915 0.541349 1.87335 0
M  V30 4349 O 416.185 -0.444108 1.908 0
M  V30 4350 H 414.765 0.643576 0.379235 0
M  V30 4351 H 417.427 1.92333 0.315294 0
M  V30 4352 H 416.523 2.64015 1.6644 0
M  V30 4353 N 416.824 -0.551391 1.4764 0
M  V30 4354 C 418.24 -0.877887 1.33287 0
M  V30 4355 C 418.44 -1.98817 0.327721 0
M  V30 4356 O 417.496 -2.51171 -0.258695 0
M  V30 4357 C 418.809 -1.26563 2.72768 0
M  V30 4358 C 420.357 -1.37673 2.81097 0
M  V30 4359 C 420.832 -1.79799 4.21232 0
M  V30 4360 N 422.323 -1.8694 4.23802 0
M  V30 4361 C 423.058 -2.20876 5.29151 0
M  V30 4362 N 422.554 -2.53386 6.448 0
M  V30 4363 N 424.347 -2.217 5.16532 0
M  V30 4364 H 416.498 0.18153 2.11623 0
M  V30 4365 H 418.761 0.0185514 0.947818 0
M  V30 4366 H 418.467 -0.523591 3.47781 0
M  V30 4367 H 418.341 -2.22052 3.04915 0
M  V30 4368 H 420.728 -2.10956 2.06353 0
M  V30 4369 H 420.809 -0.40357 2.52596 0
M  V30 4370 H 420.453 -1.07083 4.96483 0
M  V30 4371 H 420.383 -2.78128 4.4716 0
M  V30 4372 H 422.874 -1.64179 3.40373 0
M  V30 4373 H 423.187 -2.78325 7.20941 0
M  V30 4374 H 421.532 -2.50953 6.48111 0
M  V30 4375 H 424.723 -1.95745 4.25207 0
M  V30 4376 H 424.896 -2.47818 5.98741 0
M  V30 4377 N 418.302 -1.35869 -0.798587 0
M  V30 4378 C 419.551 -1.28921 -1.5512 0
M  V30 4379 C 419.864 0.13208 -1.95154 0
M  V30 4380 O 421.07 0.323879 -2.69561 0
M  V30 4381 C 419.526 -2.26141 -2.79979 0
M  V30 4382 C 419.134 -3.73658 -2.47151 0
M  V30 4383 C 420.878 -2.28152 -3.57976 0
M  V30 4384 C 418.785 -4.62679 -3.6835 0
M  V30 4385 H 417.715 -0.479031 -0.582276 0
M  V30 4386 H 420.366 -1.61179 -0.877125 0
M  V30 4387 H 418.748 -1.86865 -3.49138 0
M  V30 4388 H 419.922 -4.21616 -1.85947 0
M  V30 4389 H 418.237 -3.74333 -1.82383 0
M  V30 4390 H 420.834 -2.91875 -4.4801 0
M  V30 4391 H 421.177 -1.28748 -3.95891 0
M  V30 4392 H 421.71 -2.65998 -2.95787 0
M  V30 4393 H 418.449 -5.63111 -3.35538 0
M  V30 4394 H 417.969 -4.19442 -4.28752 0
M  V30 4395 H 419.648 -4.78498 -4.35487 0
M  V30 4396 N 419.78 1.02168 -1.19998 0
M  V30 4397 C 421.196 1.27969 -0.953737 0
M  V30 4398 C 421.396 1.98079 0.369703 0
M  V30 4399 O 420.452 2.27306 1.09947 0
M  V30 4400 C 421.765 2.11971 -2.13281 0
M  V30 4401 C 423.313 2.25255 -2.17323 0
M  V30 4402 C 423.788 3.12632 -3.34702 0
M  V30 4403 N 425.279 3.2022 -3.34684 0
M  V30 4404 C 426.014 3.88039 -4.22153 0
M  V30 4405 N 425.51 4.58027 -5.19791 0
M  V30 4406 N 427.303 3.84511 -4.10009 0
M  V30 4407 H 419.454 0.550794 -2.05134 0
M  V30 4408 H 421.717 0.305683 -0.897364 0
M  V30 4409 H 421.423 1.67785 -3.09097 0
M  V30 4410 H 421.297 3.12699 -2.10949 0
M  V30 4411 H 423.684 2.68667 -1.22073 0
M  V30 4412 H 423.765 1.24053 -2.23706 0
M  V30 4413 H 423.409 2.69926 -4.30235 0
M  V30 4414 H 423.339 4.13909 -3.25556 0
M  V30 4415 H 425.83 2.70382 -2.64012 0
M  V30 4416 H 426.143 5.07429 -5.82868 0
M  V30 4417 H 424.488 4.56869 -5.23733 0
M  V30 4418 H 427.679 3.28978 -3.33003 0
M  V30 4419 H 427.852 4.3709 -4.78389 0
M  V30 4420 N 421.258 1.00505 1.21394 0
M  V30 4421 C 422.506 0.686415 1.90086 0
M  V30 4422 C 422.827 -0.785264 1.7849 0
M  V30 4423 O 422.097 -1.56387 1.17983 0
M  V30 4424 H 420.677 0.2509 0.703604 0
M  V30 4425 H 423.339 1.27417 1.47482 0
M  V30 4426 H 422.435 0.959621 2.96981 0
M  V30 4427 N 422.737 -1.36956 0.779787 0
M  V30 4428 C 423.7 -2.2851 0.177662 0
M  V30 4429 C 424.7 -1.48393 -0.619377 0
M  V30 4430 O 425.89 -1.68505 -0.441785 0
M  V30 4431 C 423.022 -3.32428 -0.755279 0
M  V30 4432 H 424.215 -2.83269 0.984823 0
M  V30 4433 H 421.768 -1.46358 0.548544 0
M  V30 4434 H 422.503 -2.82808 -1.58714 0
M  V30 4435 H 422.288 -3.91659 -0.185817 0
M  V30 4436 H 423.778 -4.00824 -1.17174 0
M  V30 4437 N 424.215 -0.530993 -1.48385 0
M  V30 4438 C 425.178 0.220497 -2.28137 0
M  V30 4439 C 426.178 0.866851 -1.35434 0
M  V30 4440 O 427.368 0.726746 -1.58316 0
M  V30 4441 C 424.5 1.31921 -3.1434 0
M  V30 4442 H 425.693 -0.479714 -2.96038 0
M  V30 4443 H 423.246 -0.286968 -1.53643 0
M  V30 4444 H 423.981 2.05264 -2.51072 0
M  V30 4445 H 423.766 0.86085 -3.82533 0
M  V30 4446 H 425.256 1.84776 -3.74497 0
M  V30 4447 N 425.693 1.55336 -0.266172 0
M  V30 4448 C 426.623 2.25146 0.618981 0
M  V30 4449 C 427.604 1.23845 1.16604 0
M  V30 4450 O 428.789 1.52544 1.20183 0
M  V30 4451 C 425.919 2.96572 1.80728 0
M  V30 4452 C 424.873 4.04726 1.39215 0
M  V30 4453 C 424.199 4.63678 2.66283 0
M  V30 4454 C 425.499 5.19407 0.548942 0
M  V30 4455 H 427.193 2.99377 0.0368116 0
M  V30 4456 H 424.739 1.43991 0.0162651 0
M  V30 4457 H 426.692 3.44116 2.43232 0
M  V30 4458 H 425.416 2.19861 2.41514 0
M  V30 4459 H 424.075 3.57979 0.790351 0
M  V30 4460 H 423.723 3.83646 3.25308 0
M  V30 4461 H 423.423 5.367 2.39222 0
M  V30 4462 H 424.947 5.13967 3.29651 0
M  V30 4463 H 426.361 5.63059 1.07876 0
M  V30 4464 H 424.758 5.98936 0.373593 0
M  V30 4465 H 425.828 4.8295 -0.434394 0
M  V30 4466 N 427.171 -0.0066808 1.57599 0
M  V30 4467 C 428.448 -0.729586 1.81484 0
M  V30 4468 C 428.828 -1.92359 0.869558 0
M  V30 4469 O 428.176 -2.28348 -0.0832533 0
M  V30 4470 C 428.386 -1.1416 3.29801 0
M  V30 4471 C 429.734 -1.54823 3.95367 0
M  V30 4472 O 430.758 -1.23558 3.34084 0
M  V30 4473 O 429.617 -2.12937 5.03309 0
M  V30 4474 H 426.711 -0.354674 0.747085 0
M  V30 4475 H 429.257 0.0182609 1.6969 0
M  V30 4476 H 428.029 -0.290231 3.90222 0
M  V30 4477 H 427.652 -1.94876 3.46568 0
M  V30 4478 N 428.649 -1.55105 -0.279332 0
M  V30 4479 C 429.895 -1.75672 -1.01327 0
M  V30 4480 C 430.228 -0.552739 -1.86168 0
M  V30 4481 O 429.503 0.449827 -1.89227 0
M  V30 4482 C 429.786 -3.05825 -1.90114 0
M  V30 4483 C 429.639 -4.36565 -1.08309 0
M  V30 4484 C 430.958 -3.31975 -2.8893 0
M  V30 4485 H 428.077 -0.639149 -0.366957 0
M  V30 4486 H 430.719 -1.87833 -0.286154 0
M  V30 4487 H 428.869 -2.95588 -2.52111 0
M  V30 4488 H 430.541 -4.58751 -0.484314 0
M  V30 4489 H 428.784 -4.32076 -0.386362 0
M  V30 4490 H 429.455 -5.23946 -1.73737 0
M  V30 4491 H 431.931 -3.41963 -2.37067 0
M  V30 4492 H 430.807 -4.2432 -3.48201 0
M  V30 4493 H 431.068 -2.51309 -3.63725 0
M  V30 4494 N 430.127 0.543554 -1.4793 0
M  V30 4495 C 431.077 1.64527 -1.57844 0
M  V30 4496 C 432.061 1.54869 -0.436408 0
M  V30 4497 O 433.253 1.63119 -0.687101 0
M  V30 4498 C 430.382 3.03281 -1.6086 0
M  V30 4499 C 429.468 3.18093 -2.80495 0
M  V30 4500 N 429.859 3.02923 -4.05057 0
M  V30 4501 C 428.157 3.49121 -2.77543 0
M  V30 4502 C 428.858 3.20791 -4.85251 0
M  V30 4503 N 427.834 3.47749 -4.17818 0
M  V30 4504 H 431.636 1.51388 -2.5191 0
M  V30 4505 H 429.15 0.748671 -1.44113 0
M  V30 4506 H 431.147 3.82403 -1.66054 0
M  V30 4507 H 429.807 3.17521 -0.678996 0
M  V30 4508 H 430.818 2.79966 -4.35705 0
M  V30 4509 H 427.495 3.69804 -1.93781 0
M  V30 4510 H 428.885 3.13915 -5.9406 0
M  V30 4511 N 431.605 1.3629 0.791371 0
M  V30 4512 C 432.515 1.32606 1.93527 0
M  V30 4513 C 433.531 0.228541 1.72493 0
M  V30 4514 O 434.707 0.460571 1.96063 0
M  V30 4515 C 431.772 1.11271 3.28359 0
M  V30 4516 C 430.833 2.3048 3.62185 0
M  V30 4517 C 430.066 2.10154 4.90583 0
M  V30 4518 O 430.289 1.07572 5.60165 0
M  V30 4519 O 429.223 2.97884 5.23019 0
M  V30 4520 H 433.049 2.28909 1.99585 0
M  V30 4521 H 430.634 1.16818 0.931344 0
M  V30 4522 H 432.516 1.01283 4.09047 0
M  V30 4523 H 431.191 0.180292 3.23198 0
M  V30 4524 H 430.098 2.46036 2.81811 0
M  V30 4525 H 431.431 3.22221 3.72068 0
M  V30 4526 N 433.083 -1.0153 1.20538 0
M  V30 4527 C 434.308 -1.79283 1.04271 0
M  V30 4528 C 434.733 -1.8372 -0.403544 0
M  V30 4529 O 434.091 -1.27321 -1.2907 0
M  V30 4530 C 434.139 -3.21535 1.63241 0
M  V30 4531 O 433.243 -4.03099 0.870908 0
M  V30 4532 H 432.584 -0.55293 0.367647 0
M  V30 4533 H 435.114 -1.27696 1.59859 0
M  V30 4534 H 435.124 -3.72243 1.6703 0
M  V30 4535 H 433.799 -3.1762 2.68497 0
M  V30 4536 H 432.376 -3.61693 0.907323 0
M  V30 4537 N 434.561 -1.01147 -1.20859 0
M  V30 4538 C 435.471 -0.58686 -2.27141 0
M  V30 4539 C 436.487 0.373198 -1.69951 0
M  V30 4540 O 437.663 0.235423 -2.00019 0
M  V30 4541 C 434.728 0.0733602 -3.46622 0
M  V30 4542 C 433.789 -0.931995 -4.19061 0
M  V30 4543 C 433.022 -0.303186 -5.32838 0
M  V30 4544 O 433.245 0.898395 -5.63281 0
M  V30 4545 O 432.179 -1.01735 -5.9324 0
M  V30 4546 H 436.005 -1.47155 -2.65667 0
M  V30 4547 H 433.59 -0.780689 -1.2738 0
M  V30 4548 H 435.472 0.442333 -4.19072 0
M  V30 4549 H 434.147 0.932329 -3.09983 0
M  V30 4550 H 433.054 -1.35224 -3.48805 0
M  V30 4551 H 434.387 -1.76076 -4.59628 0
M  V30 4552 N 436.039 1.36541 -0.78704 0
M  V30 4553 C 437.45 1.81873 -0.421807 0
M  V30 4554 C 437.801 1.65487 1.05397 0
M  V30 4555 O 436.926 1.17448 1.81755 0
M  V30 4556 C 437.521 3.30192 -0.758841 0
M  V30 4557 C 436.08 3.73743 -0.446468 0
M  V30 4558 C 435.227 2.58844 -0.994728 0
M  V30 4559 H 438.178 1.24796 -0.98039 0
M  V30 4560 H 438.199 3.80468 -0.0490648 0
M  V30 4561 H 437.711 3.42087 -1.83299 0
M  V30 4562 H 435.812 3.6741 0.619739 0
M  V30 4563 H 435.925 4.69272 -0.965415 0
M  V30 4564 H 434.289 2.51245 -0.418087 0
M  V30 4565 H 435.072 2.73525 -2.07458 0
M  V30 4566 N 437.518 0.538854 1.48102 0
M  V30 4567 C 438.765 0.0080018 2.02498 0
M  V30 4568 C 439.093 -1.33437 1.41509 0
M  V30 4569 O 438.348 -1.87709 0.553507 0
M  V30 4570 C 438.647 -0.153808 3.57069 0
M  V30 4571 C 438.313 1.11533 4.36888 0
M  V30 4572 C 436.975 1.46314 4.58417 0
M  V30 4573 C 439.327 1.95718 4.83057 0
M  V30 4574 C 436.655 2.6516 5.23361 0
M  V30 4575 C 439.007 3.13751 5.49312 0
M  V30 4576 C 437.671 3.48866 5.69077 0
M  V30 4577 H 436.941 0.00292807 0.740994 0
M  V30 4578 H 439.588 0.706668 1.77984 0
M  V30 4579 H 437.893 -0.935309 3.80472 0
M  V30 4580 H 439.59 -0.579607 3.96789 0
M  V30 4581 H 436.18 0.834484 4.20398 0
M  V30 4582 H 440.364 1.70158 4.66219 0
M  V30 4583 H 435.62 2.92558 5.36861 0
M  V30 4584 H 439.794 3.79282 5.84053 0
M  V30 4585 H 437.421 4.41054 6.19173 0
M  V30 4586 N 438.996 -1.55193 0.274407 0
M  V30 4587 C 440.221 -2.04446 -0.348824 0
M  V30 4588 C 440.646 -1.15149 -1.48735 0
M  V30 4589 O 440.004 -0.149952 -1.80679 0
M  V30 4590 C 440.052 -3.51431 -0.808009 0
M  V30 4591 O 439.156 -3.65225 -1.91531 0
M  V30 4592 H 438.497 -0.66006 -0.0722276 0
M  V30 4593 H 441.027 -2.00481 0.408498 0
M  V30 4594 H 441.037 -3.92781 -1.10395 0
M  V30 4595 H 439.712 -4.15892 0.0249865 0
M  V30 4596 H 438.289 -3.35778 -1.62196 0
M  V30 4597 N 440.474 -0.00167713 -1.576 0
M  V30 4598 C 441.721 0.68282 -1.90641 0
M  V30 4599 C 442.049 1.73686 -0.875415 0
M  V30 4600 O 441.304 1.95334 0.119575 0
M  V30 4601 C 441.603 1.36189 -3.30435 0
M  V30 4602 C 441.269 0.440887 -4.48739 0
M  V30 4603 C 439.931 0.187312 -4.80835 0
M  V30 4604 C 442.283 -0.193134 -5.20842 0
M  V30 4605 C 439.611 -0.70855 -5.82406 0
M  V30 4606 C 441.963 -1.07688 -6.23367 0
M  V30 4607 C 440.627 -1.33962 -6.53919 0
M  V30 4608 H 439.897 0.249862 -0.697603 0
M  V30 4609 H 442.544 -0.0575642 -1.91413 0
M  V30 4610 H 440.849 2.17636 -3.25794 0
M  V30 4611 H 442.546 1.89759 -3.5326 0
M  V30 4612 H 439.136 0.648694 -4.23663 0
M  V30 4613 H 443.32 -0.0102445 -4.96299 0
M  V30 4614 H 438.576 -0.920097 -6.04437 0
M  V30 4615 H 442.75 -1.57451 -6.78367 0
M  V30 4616 H 440.377 -2.03549 -7.32442 0
M  V30 4617 N 441.952 1.55251 0.271103 0
M  V30 4618 C 443.177 1.80306 1.02491 0
M  V30 4619 C 443.602 0.575457 1.79081 0
M  V30 4620 O 442.96 -0.474987 1.74967 0
M  V30 4621 C 443.008 3.02832 1.95768 0
M  V30 4622 O 442.112 2.78051 3.04568 0
M  V30 4623 H 441.453 0.595896 0.292923 0
M  V30 4624 H 443.983 2.02397 0.299436 0
M  V30 4625 H 443.993 3.31616 2.37686 0
M  V30 4626 H 442.668 3.9183 1.39434 0
M  V30 4627 H 441.245 2.60369 2.66951 0
M  V30 4628 N 443.43 -0.535701 1.48216 0
M  V30 4629 C 444.362 -1.65662 1.58394 0
M  V30 4630 C 445.375 -1.5591 0.468607 0
M  V30 4631 O 446.564 -1.62475 0.7392 0
M  V30 4632 C 443.664 -3.04276 1.4923 0
M  V30 4633 C 442.837 -3.39567 2.75705 0
M  V30 4634 C 441.896 -4.57436 2.60075 0
M  V30 4635 O 440.922 -4.60942 3.33948 0
M  V30 4636 N 442.124 -5.55259 1.69315 0
M  V30 4637 H 444.889 -1.5737 2.55058 0
M  V30 4638 H 442.45 -0.722845 1.44867 0
M  V30 4639 H 444.442 -3.80994 1.36477 0
M  V30 4640 H 443.012 -3.06677 0.605632 0
M  V30 4641 H 442.232 -2.52083 3.03064 0
M  V30 4642 H 443.52 -3.59929 3.59623 0
M  V30 4643 H 442.918 -5.552 1.08489 0
M  V30 4644 H 441.475 -6.31218 1.62504 0
M  V30 4645 N 444.908 -1.36708 -0.784132 0
M  V30 4646 C 446.156 -1.30972 -1.53918 0
M  V30 4647 C 446.477 0.109086 -1.94695 0
M  V30 4648 O 445.747 1.05048 -1.65353 0
M  V30 4649 H 444.327 -0.481819 -0.570841 0
M  V30 4650 H 446.989 -1.71063 -0.934002 0
M  V30 4651 H 446.085 -1.94061 -2.44431 0
M  V30 4652 N 446.386 1.0089 -1.21074 0
M  V30 4653 C 447.797 1.56056 -1.02486 0
M  V30 4654 C 448.148 1.91728 0.416506 0
M  V30 4655 O 447.273 1.73066 1.29912 0
M  V30 4656 C 447.868 2.83563 -1.85411 0
M  V30 4657 C 446.427 3.3523 -1.71166 0
M  V30 4658 C 445.574 2.0846 -1.82865 0
M  V30 4659 H 448.525 0.831818 -1.35154 0
M  V30 4660 H 448.546 3.55286 -1.36205 0
M  V30 4661 H 448.058 2.57569 -2.9031 0
M  V30 4662 H 446.159 3.66167 -0.689361 0
M  V30 4663 H 446.272 4.06913 -2.52901 0
M  V30 4664 H 444.636 2.21275 -1.26132 0
M  V30 4665 H 445.419 1.84883 -2.89263 0
M  V30 4666 N 447.864 1.01787 1.20321 0
M  V30 4667 C 448.794 0.609625 2.25401 0
M  V30 4668 C 449.775 -0.375951 1.65893 0
M  V30 4669 O 450.96 -0.261101 1.92437 0
M  V30 4670 C 448.09 -0.0515995 3.47262 0
M  V30 4671 C 447.044 0.855095 4.19371 0
M  V30 4672 C 446.37 0.0595757 5.34667 0
M  V30 4673 C 447.67 2.16374 4.75373 0
M  V30 4674 H 449.364 1.48803 2.59804 0
M  V30 4675 H 446.91 0.716934 1.24884 0
M  V30 4676 H 448.863 -0.348764 4.19954 0
M  V30 4677 H 447.587 -0.964726 3.12027 0
M  V30 4678 H 446.246 1.13628 3.48546 0
M  V30 4679 H 445.894 -0.85524 4.95676 0
M  V30 4680 H 445.594 0.663406 5.83843 0
M  V30 4681 H 447.118 -0.231105 6.10162 0
M  V30 4682 H 448.532 1.92885 5.39878 0
M  V30 4683 H 446.929 2.71853 5.34991 0
M  V30 4684 H 447.999 2.82589 3.94045 0
M  V30 4685 N 449.342 -1.36122 0.79427 0
M  V30 4686 C 450.289 -2.29982 0.194101 0
M  V30 4687 C 451.259 -1.52214 -0.664833 0
M  V30 4688 O 452.444 -1.80702 -0.612498 0
M  V30 4689 C 449.584 -3.38706 -0.661244 0
M  V30 4690 C 448.697 -4.31456 0.216766 0
M  V30 4691 C 447.832 -5.27265 -0.645411 0
M  V30 4692 C 446.871 -6.11653 0.233756 0
M  V30 4693 N 446.008 -6.99636 -0.587682 0
M  V30 4694 H 450.848 -2.80722 0.999965 0
M  V30 4695 H 448.385 -1.38172 0.504677 0
M  V30 4696 H 450.343 -4.00394 -1.17219 0
M  V30 4697 H 448.973 -2.89274 -1.43249 0
M  V30 4698 H 448.025 -3.7088 0.845724 0
M  V30 4699 H 449.337 -4.90724 0.893973 0
M  V30 4700 H 448.491 -5.94266 -1.22198 0
M  V30 4701 H 447.23 -4.68463 -1.35623 0
M  V30 4702 H 446.235 -5.4361 0.82269 0
M  V30 4703 H 447.46 -6.72531 0.942247 0
M  V30 4704 H 445.406 -6.43337 -1.2827 0
M  V30 4705 H 445.323 -7.55993 0.0317402 0
M  V30 4706 H 446.591 -7.71001 -1.14792 0
M  V30 4707 N 450.82 -0.546701 -1.47814 0
M  V30 4708 C 452.097 0.0464413 -1.95545 0
M  V30 4709 C 452.477 1.4962 -1.48919 0
M  V30 4710 O 451.825 2.16752 -0.723232 0
M  V30 4711 C 452.035 -0.0881298 -3.48889 0
M  V30 4712 C 453.383 0.0626059 -4.24554 0
M  V30 4713 O 454.407 -0.0151555 -3.56197 0
M  V30 4714 O 453.266 0.228071 -5.46024 0
M  V30 4715 H 450.36 0.0700004 -0.824032 0
M  V30 4716 H 452.906 -0.612482 -1.58262 0
M  V30 4717 H 451.678 -1.09737 -3.75597 0
M  V30 4718 H 451.301 0.608886 -3.9291 0
M  V30 4719 N 452.299 1.55045 -0.282633 0
M  V30 4720 C 453.262 2.21515 0.588539 0
M  V30 4721 C 454.262 1.19535 1.07554 0
M  V30 4722 O 455.452 1.44391 0.974514 0
M  V30 4723 C 452.584 2.88704 1.8128 0
M  V30 4724 H 453.777 2.99899 0.00806397 0
M  V30 4725 H 451.33 1.56265 -0.0333067 0
M  V30 4726 H 452.065 2.14352 2.43359 0
M  V30 4727 H 451.85 3.63443 1.47144 0
M  V30 4728 H 453.34 3.39465 2.43214 0
M  V30 4729 N 453.777 0.010035 1.57597 0
M  V30 4730 C 455.188 -0.531426 1.78977 0
M  V30 4731 C 455.539 -1.73375 0.918454 0
M  V30 4732 O 454.664 -2.16047 0.123635 0
M  V30 4733 C 455.259 -0.97086 3.24592 0
M  V30 4734 C 453.818 -1.45756 3.47033 0
M  V30 4735 C 452.965 -0.413384 2.74201 0
M  V30 4736 H 455.916 0.236166 1.56933 0
M  V30 4737 H 455.937 -1.83633 3.33255 0
M  V30 4738 H 455.449 -0.0955893 3.87982 0
M  V30 4739 H 453.55 -2.35339 2.88871 0
M  V30 4740 H 453.663 -1.4781 4.55729 0
M  V30 4741 H 452.027 -0.877266 2.39115 0
M  V30 4742 H 452.81 0.453092 3.40297 0
M  V30 4743 N 455.255 -1.55392 -0.262866 0
M  V30 4744 C 456.203 -1.8977 -1.345 0
M  V30 4745 C 457.197 -0.775063 -1.50629 0
M  V30 4746 O 458.403 -0.959519 -1.52293 0
M  V30 4747 H 454.778 -0.602467 -0.450041 0
M  V30 4748 H 456.749 -2.80147 -1.02762 0
M  V30 4749 C 455.498 -2.19501 -2.69657 0
M  V30 4750 H 454.821 -3.05378 -2.5804 0
M  V30 4751 H 456.261 -2.47469 -3.44289 0
M  V30 4752 C 454.72 -1.00597 -3.21531 0
M  V30 4753 O 455.25 -0.245768 -4.00947 0
M  V30 4754 N 453.456 -0.800911 -2.79345 0
M  V30 4755 H 453.003 -1.42079 -2.14875 0
M  V30 4756 H 452.961 -0.00697996 -3.14399 0
M  V30 4757 N 456.733 0.527833 -1.48498 0
M  V30 4758 C 457.663 1.64136 -1.66077 0
M  V30 4759 C 458.644 1.62286 -0.509625 0
M  V30 4760 O 459.829 1.79449 -0.742413 0
M  V30 4761 C 456.959 3.02717 -1.70234 0
M  V30 4762 C 455.913 3.19426 -2.8487 0
M  V30 4763 C 455.239 4.5909 -2.74118 0
M  V30 4764 C 456.539 3.01993 -4.26142 0
M  V30 4765 H 458.233 1.4968 -2.593 0
M  V30 4766 H 455.779 0.718654 -1.24785 0
M  V30 4767 H 457.732 3.80491 -1.8112 0
M  V30 4768 H 456.456 3.18201 -0.735911 0
M  V30 4769 H 455.115 2.4407 -2.73542 0
M  V30 4770 H 454.763 4.71413 -1.7544 0
M  V30 4771 H 454.463 4.71214 -3.51042 0
M  V30 4772 H 455.987 5.3896 -2.86974 0
M  V30 4773 H 457.401 3.69558 -4.38292 0
M  V30 4774 H 455.798 3.2561 -5.04082 0
M  V30 4775 H 456.868 1.98396 -4.42456 0
M  V30 4776 N 458.211 1.37122 0.776871 0
M  V30 4777 C 459.46 1.31373 1.53049 0
M  V30 4778 C 459.773 -0.101016 1.95339 0
M  V30 4779 O 460.979 -0.280953 2.70042 0
M  V30 4780 C 459.435 2.30567 2.76346 0
M  V30 4781 C 459.043 3.77543 2.41175 0
M  V30 4782 C 460.787 2.33818 3.54301 0
M  V30 4783 C 458.694 4.68481 3.60943 0
M  V30 4784 H 457.624 0.488234 0.574581 0
M  V30 4785 H 460.275 1.62554 0.851372 0
M  V30 4786 H 458.657 1.92396 3.46121 0
M  V30 4787 H 459.831 4.24521 1.79216 0
M  V30 4788 H 458.146 3.77187 1.76405 0
M  V30 4789 H 460.743 2.98965 4.4331 0
M  V30 4790 H 461.086 1.3503 3.93793 0
M  V30 4791 H 461.619 2.7067 2.91518 0
M  V30 4792 H 458.358 5.68378 3.26537 0
M  V30 4793 H 457.878 4.2621 4.22025 0
M  V30 4794 H 459.557 4.85366 4.27819 0
M  V30 4795 N 459.689 -1.00246 1.21608 0
M  V30 4796 C 460.929 -1.75589 1.04631 0
M  V30 4797 C 461.293 -1.87513 -0.412648 0
M  V30 4798 O 462.494 -2.59444 -0.703003 0
M  V30 4799 C 460.765 -3.12893 1.72722 0
M  V30 4800 S 462.324 -4.04095 1.71034 0
M  V30 4801 H 459.142 -0.604133 0.374892 0
M  V30 4802 H 461.744 -1.19927 1.54395 0
M  V30 4803 H 460.448 -3.0185 2.78055 0
M  V30 4804 H 459.979 -3.73628 1.23149 0
M  V30 4805 H 461.994 -4.9045 0.753231 0
M  V30 4806 N 461.167 -1.02423 -1.1978 0
M  V30 4807 C 462.395 -0.737456 -1.93311 0
M  V30 4808 C 462.81 0.703023 -1.75223 0
M  V30 4809 O 462.167 1.47761 -1.07112 0
M  V30 4810 C 462.218 -1.0733 -3.45199 0
M  V30 4811 O 461.939 -2.4572 -3.62702 0
M  V30 4812 C 463.44 -0.80866 -4.35862 0
M  V30 4813 H 460.66 -0.2702 -0.614193 0
M  V30 4814 H 463.204 -1.36747 -1.52054 0
M  V30 4815 H 461.359 -0.488545 -3.84307 0
M  V30 4816 H 461.773 -2.58081 -4.56612 0
M  V30 4817 H 463.247 -1.09365 -5.41057 0
M  V30 4818 H 463.724 0.257025 -4.38447 0
M  V30 4819 H 464.33 -1.37592 -4.02428 0
M  V30 4820 N 462.645 1.35699 -0.801477 0
M  V30 4821 C 464.056 1.81415 -0.441073 0
M  V30 4822 C 464.407 1.66595 1.03636 0
M  V30 4823 O 463.532 1.19369 1.80499 0
M  V30 4824 C 464.127 3.29369 -0.793819 0
M  V30 4825 C 462.686 3.73248 -0.486083 0
M  V30 4826 C 461.833 2.57775 -1.02213 0
M  V30 4827 H 464.784 1.23749 -0.993572 0
M  V30 4828 H 464.805 3.80395 -0.0894158 0
M  V30 4829 H 464.317 3.40123 -1.86917 0
M  V30 4830 H 462.418 3.68046 0.580735 0
M  V30 4831 H 462.531 4.68222 -1.01513 0
M  V30 4832 H 460.895 2.50788 -0.444712 0
M  V30 4833 H 461.678 2.71309 -2.10348 0
M  V30 4834 N 464.123 0.554532 1.47522 0
M  V30 4835 C 465.073 -0.215008 2.26984 0
M  V30 4836 C 466.057 -0.88774 1.34194 0
M  V30 4837 O 467.249 -0.786489 1.58567 0
M  V30 4838 C 464.378 -1.24604 3.19889 0
M  V30 4839 C 463.464 -0.576857 4.20159 0
M  V30 4840 N 463.855 0.351541 5.04577 0
M  V30 4841 C 462.153 -0.831104 4.38188 0
M  V30 4842 C 462.854 0.739995 5.76974 0
M  V30 4843 N 461.83 0.0954407 5.43516 0
M  V30 4844 H 465.632 0.498843 2.89636 0
M  V30 4845 H 463.146 0.374279 1.58028 0
M  V30 4846 H 465.143 -1.81128 3.75498 0
M  V30 4847 H 463.803 -1.96101 2.58794 0
M  V30 4848 H 464.814 0.725556 5.12792 0
M  V30 4849 H 461.491 -1.53479 3.88266 0
M  V30 4850 H 462.881 1.50271 6.5488 0
M  V30 4851 N 465.601 -1.54893 0.290851 0
M  V30 4852 C 466.564 -2.21824 -0.576784 0
M  V30 4853 C 467.564 -1.20104 -1.06919 0
M  V30 4854 O 468.754 -1.44906 -0.966843 0
M  V30 4855 C 465.886 -2.89662 -1.79747 0
M  V30 4856 H 467.079 -2.99899 0.00784051 0
M  V30 4857 H 464.632 -1.56245 0.0415934 0
M  V30 4858 H 465.367 -2.15639 -2.42219 0
M  V30 4859 H 465.152 -3.64219 -1.45214 0
M  V30 4860 H 466.642 -3.4075 -2.4141 0
M  V30 4861 N 467.08 -0.0183926 -1.57589 0
M  V30 4862 C 468.043 0.951986 -2.08494 0
M  V30 4863 C 469.043 1.26092 -0.997874 0
M  V30 4864 O 470.233 1.20304 -1.25987 0
M  V30 4865 C 467.365 2.27165 -2.54182 0
M  V30 4866 H 468.558 0.511307 -2.95509 0
M  V30 4867 H 466.111 0.229444 -1.54607 0
M  V30 4868 H 466.846 2.75884 -1.70465 0
M  V30 4869 H 466.631 2.06057 -3.33591 0
M  V30 4870 H 468.121 2.9674 -2.93828 0
M  V30 4871 N 468.558 1.5553 0.254621 0
M  V30 4872 C 469.804 1.7818 0.980989 0
M  V30 4873 C 470.159 0.586059 1.83257 0
M  V30 4874 O 469.452 -0.420889 1.8692 0
M  V30 4875 C 469.646 3.03891 1.88109 0
M  V30 4876 C 469.475 4.35578 1.11812 0
M  V30 4877 C 468.245 4.98497 0.826343 0
M  V30 4878 C 470.443 5.11869 0.499486 0
M  V30 4879 N 468.425 6.13888 0.0385095 0
M  V30 4880 C 469.796 6.1981 -0.153292 0
M  V30 4881 C 471.851 4.96216 0.409175 0
M  V30 4882 C 470.554 7.13801 -0.8877 0
M  V30 4883 C 472.58 5.90578 -0.311683 0
M  V30 4884 C 471.942 6.97922 -0.953129 0
M  V30 4885 H 468.041 0.704057 0.340335 0
M  V30 4886 H 470.625 1.93025 0.254855 0
M  V30 4887 H 468.796 2.90389 2.57932 0
M  V30 4888 H 470.528 3.14869 2.54244 0
M  V30 4889 H 467.283 4.59769 1.13621 0
M  V30 4890 H 467.707 6.76129 -0.343275 0
M  V30 4891 H 472.349 4.1331 0.890765 0
M  V30 4892 H 470.067 7.96214 -1.38092 0
M  V30 4893 H 473.653 5.80544 -0.382125 0
M  V30 4894 H 472.533 7.69681 -1.50203 0
M  V30 4895 N 470.036 -0.519951 1.48776 0
M  V30 4896 C 471.266 -1.29783 1.60748 0
M  V30 4897 C 471.674 -1.87253 0.27072 0
M  V30 4898 O 471.017 -1.67628 -0.751438 0
M  V30 4899 C 471.079 -2.47984 2.60277 0
M  V30 4900 C 470.743 -2.11526 4.051 0
M  V30 4901 C 471.74 -1.66608 4.92481 0
M  V30 4902 C 469.425 -2.21742 4.50706 0
M  V30 4903 C 471.419 -1.32384 6.23501 0
M  V30 4904 C 469.106 -1.87129 5.81744 0
M  V30 4905 C 470.104 -1.42523 6.67964 0
M  V30 4906 O 469.792 -1.0837 7.96562 0
M  V30 4907 H 469.524 -0.400562 0.544542 0
M  V30 4908 H 472.078 -0.632879 1.95407 0
M  V30 4909 H 470.308 -3.17493 2.2076 0
M  V30 4910 H 471.997 -3.10036 2.61978 0
M  V30 4911 H 472.763 -1.58178 4.58481 0
M  V30 4912 H 468.642 -2.55415 3.83776 0
M  V30 4913 H 472.186 -0.974949 6.90754 0
M  V30 4914 H 468.083 -1.95204 6.15277 0
M  V30 4915 H 468.851 -1.21681 8.09405 0
M  V30 4916 N 471.514 -1.37532 -0.769588 0
M  V30 4917 C 472.739 -1.36231 -1.56384 0
M  V30 4918 C 473.164 0.0495849 -1.88035 0
M  V30 4919 O 472.522 1.02723 -1.49391 0
M  V30 4920 C 472.57 -2.20986 -2.84952 0
M  V30 4921 O 471.674 -1.61597 -3.79421 0
M  V30 4922 H 471.015 -0.465387 -0.473615 0
M  V30 4923 H 473.545 -1.81085 -0.952342 0
M  V30 4924 H 473.555 -2.34277 -3.34034 0
M  V30 4925 H 472.23 -3.23612 -2.61243 0
M  V30 4926 H 470.807 -1.57359 -3.38072 0
M  V30 4927 N 472.992 0.995999 -1.22138 0
M  V30 4928 C 473.902 2.11985 -1.00496 0
M  V30 4929 C 474.918 1.7394 0.0457701 0
M  V30 4930 O 476.094 2.00868 -0.146273 0
M  V30 4931 C 473.159 3.41779 -0.582086 0
M  V30 4932 C 472.22 3.93943 -1.70608 0
M  V30 4933 C 471.453 5.17542 -1.30328 0
M  V30 4934 O 471.676 5.70114 -0.180743 0
M  V30 4935 O 470.61 5.63382 -2.11861 0
M  V30 4936 H 474.436 2.33123 -1.94647 0
M  V30 4937 H 472.021 1.10358 -1.00705 0
M  V30 4938 H 473.903 4.1989 -0.356467 0
M  V30 4939 H 472.578 3.22007 0.330592 0
M  V30 4940 H 471.485 3.17019 -1.98619 0
M  V30 4941 H 472.818 4.18141 -2.59651 0
M  V30 4942 N 474.47 1.03057 1.19235 0
M  V30 4943 C 475.402 0.570932 2.21975 0
M  V30 4944 C 476.415 -0.354088 1.58903 0
M  V30 4945 O 477.604 -0.150211 1.77867 0
M  V30 4946 C 474.704 -0.187152 3.38383 0
M  V30 4947 C 473.877 0.743231 4.31039 0
M  V30 4948 C 472.936 0.0302493 5.26191 0
M  V30 4949 O 471.962 0.657371 5.65391 0
M  V30 4950 N 473.164 -1.23991 5.67104 0
M  V30 4951 H 475.929 1.45456 2.62036 0
M  V30 4952 H 473.49 0.909807 1.33918 0
M  V30 4953 H 475.482 -0.673715 3.99053 0
M  V30 4954 H 474.052 -0.972205 2.97098 0
M  V30 4955 H 473.272 1.40985 3.68126 0
M  V30 4956 H 474.56 1.3755 4.89854 0
M  V30 4957 H 473.958 -1.77011 5.37293 0
M  V30 4958 H 472.515 -1.67093 6.30018 0
M  V30 4959 N 475.948 -1.35272 0.808662 0
M  V30 4960 C 476.911 -2.28082 0.226093 0
M  V30 4961 C 477.911 -1.49673 -0.587762 0
M  V30 4962 O 479.101 -1.69404 -0.405943 0
M  V30 4963 C 476.233 -3.33955 -0.684596 0
M  V30 4964 H 477.426 -2.81116 1.04469 0
M  V30 4965 H 474.979 -1.45162 0.579466 0
M  V30 4966 H 475.714 -2.86111 -1.5268 0
M  V30 4967 H 475.499 -3.91965 -0.102699 0
M  V30 4968 H 476.989 -4.03219 -1.08646 0
M  V30 4969 N 477.426 -0.562348 -1.47226 0
M  V30 4970 C 478.651 -0.0432632 -2.07355 0
M  V30 4971 C 479.076 1.24332 -1.41149 0
M  V30 4972 O 478.434 1.74603 -0.488226 0
M  V30 4973 C 478.482 0.130288 -3.60365 0
M  V30 4974 O 477.586 1.19166 -3.94808 0
M  V30 4975 H 476.927 -0.0536334 -0.66183 0
M  V30 4976 H 479.457 -0.779495 -1.89169 0
M  V30 4977 H 479.467 0.342881 -4.06557 0
M  V30 4978 H 478.142 -0.809389 -4.07948 0
M  V30 4979 H 476.719 0.959153 -3.60354 0
M  V30 4980 N 478.904 1.54736 -0.299062 0
M  V30 4981 C 480.153 1.99279 0.311549 0
M  V30 4982 C 480.466 1.19107 1.55154 0
M  V30 4983 O 481.672 1.53908 2.23662 0
M  V30 4984 C 480.128 3.54768 0.605632 0
M  V30 4985 C 479.736 4.43746 -0.615914 0
M  V30 4986 C 481.48 4.07841 1.17754 0
M  V30 4987 C 479.387 5.90663 -0.29509 0
M  V30 4988 H 478.317 0.744359 0.120187 0
M  V30 4989 H 480.968 1.78919 -0.407464 0
M  V30 4990 H 479.35 3.71021 1.38419 0
M  V30 4991 H 480.524 4.39267 -1.39218 0
M  V30 4992 H 478.839 4.01434 -1.10633 0
M  V30 4993 H 481.436 5.15174 1.43179 0
M  V30 4994 H 481.779 3.58324 2.11918 0
M  V30 4995 H 482.312 3.95123 0.460739 0
M  V30 4996 H 479.051 6.44325 -1.20524 0
M  V30 4997 H 478.571 5.98155 0.44394 0
M  V30 4998 H 480.25 6.46916 0.104048 0
M  V30 4999 N 480.382 0.0267497 1.57577 0
M  V30 5000 C 481.292 -0.971633 2.13533 0
M  V30 5001 C 482.308 -1.35868 1.08701 0
M  V30 5002 O 483.484 -1.44058 1.40746 0
M  V30 5003 C 480.549 -2.23622 2.64941 0
M  V30 5004 C 479.61 -1.90982 3.8448 0
M  V30 5005 C 478.843 -3.11411 4.33427 0
M  V30 5006 O 479.066 -4.23992 3.81558 0
M  V30 5007 O 478 -2.93848 5.25297 0
M  V30 5008 H 481.826 -0.525853 2.99113 0
M  V30 5009 H 479.411 -0.193712 1.48139 0
M  V30 5010 H 481.293 -2.97864 2.98086 0
M  V30 5011 H 479.968 -2.67386 1.82446 0
M  V30 5012 H 478.875 -1.14132 3.56265 0
M  V30 5013 H 480.208 -1.52036 4.6813 0
M  V30 5014 N 481.861 -1.55662 -0.24637 0
M  V30 5015 C 482.794 -1.85332 -1.33143 0
M  V30 5016 C 483.772 -0.708464 -1.46354 0
M  V30 5017 O 484.956 -0.954274 -1.6256 0
M  V30 5018 C 482.083 -2.0385 -2.70487 0
M  V30 5019 C 481.129 -3.26488 -2.74423 0
M  V30 5020 S 481.962 -4.83124 -2.30979 0
M  V30 5021 C 483.118 -5.04647 -3.70246 0
M  V30 5022 H 483.351 -2.77077 -1.07777 0
M  V30 5023 H 480.884 -1.47776 -0.44738 0
M  V30 5024 H 482.842 -2.15202 -3.49569 0
M  V30 5025 H 481.503 -1.12947 -2.9309 0
M  V30 5026 H 480.696 -3.36413 -3.7529 0
M  V30 5027 H 480.298 -3.13864 -2.03385 0
M  V30 5028 H 482.59 -4.92023 -4.65746 0
M  V30 5029 H 483.533 -6.06625 -3.65255 0
M  V30 5030 H 483.941 -4.32491 -3.62784 0
M  V30 5031 N 483.339 0.512053 -1.4905 0
M  V30 5032 C 484.755 0.84224 -1.35567 0
M  V30 5033 C 484.955 1.97878 -0.380319 0
M  V30 5034 O 484.011 2.51769 0.19201 0
M  V30 5035 C 485.324 1.19286 -2.76028 0
M  V30 5036 C 486.872 1.30171 -2.84648 0
M  V30 5037 C 487.347 1.68568 -4.25851 0
M  V30 5038 N 488.838 1.75638 -4.28609 0
M  V30 5039 C 489.573 2.06769 -5.34821 0
M  V30 5040 N 489.069 2.36201 -6.51292 0
M  V30 5041 N 490.862 2.07927 -5.22229 0
M  V30 5042 H 483.013 -0.237574 -2.11067 0
M  V30 5043 H 485.276 -0.0436747 -0.946993 0
M  V30 5044 H 484.982 0.431199 -3.49047 0
M  V30 5045 H 484.856 2.13889 -3.10695 0
M  V30 5046 H 487.243 2.05411 -2.11873 0
M  V30 5047 H 487.324 0.336457 -2.53578 0
M  V30 5048 H 486.968 0.938824 -4.99148 0
M  V30 5049 H 486.898 2.66174 -4.54377 0
M  V30 5050 H 489.389 1.55097 -3.44606 0
M  V30 5051 H 489.702 2.59112 -7.28066 0
M  V30 5052 H 488.047 2.33681 -6.54536 0
M  V30 5053 H 491.238 1.84403 -4.30248 0
M  V30 5054 H 491.411 2.31856 -6.05101 0
M  V30 5055 N 484.817 1.37938 0.762283 0
M  V30 5056 C 485.727 1.36681 1.90671 0
M  V30 5057 C 486.743 0.265078 1.71969 0
M  V30 5058 O 487.919 0.502055 1.95042 0
M  V30 5059 C 484.984 1.18211 3.25925 0
M  V30 5060 C 484.045 2.3811 3.57214 0
M  V30 5061 C 483.278 2.20512 4.86014 0
M  V30 5062 O 483.501 1.19429 5.57757 0
M  V30 5063 O 482.435 3.08911 5.16583 0
M  V30 5064 H 486.261 2.33091 1.94685 0
M  V30 5065 H 483.846 1.18767 0.906356 0
M  V30 5066 H 485.728 1.09937 4.06807 0
M  V30 5067 H 484.403 0.248807 3.22742 0
M  V30 5068 H 483.31 2.51958 2.76529 0
M  V30 5069 H 484.643 3.30041 3.65149 0
M  V30 5070 N 486.295 -0.989507 1.22664 0
M  V30 5071 C 487.205 -2.11449 1.01619 0
M  V30 5072 C 488.221 -1.73962 -0.036545 0
M  V30 5073 O 489.397 -2.00788 0.156924 0
M  V30 5074 C 486.462 -3.41465 0.600204 0
M  V30 5075 C 485.523 -3.93033 1.72695 0
M  V30 5076 C 484.756 -5.16844 1.33071 0
M  V30 5077 O 484.979 -5.7001 0.210975 0
M  V30 5078 O 483.913 -5.6225 2.14845 0
M  V30 5079 H 487.739 -2.32088 1.9588 0
M  V30 5080 H 485.324 -1.09823 1.01289 0
M  V30 5081 H 487.206 -4.19695 0.37873 0
M  V30 5082 H 485.881 -3.22178 -0.313511 0
M  V30 5083 H 484.788 -3.15961 2.00298 0
M  V30 5084 H 486.121 -4.16758 2.61865 0
M  V30 5085 N 487.773 -1.03688 -1.18687 0
M  V30 5086 C 488.736 -0.629115 -2.20397 0
M  V30 5087 C 489.736 0.311495 -1.57754 0
M  V30 5088 O 490.926 0.0974107 -1.73927 0
M  V30 5089 C 488.058 0.0782231 -3.4081 0
M  V30 5090 H 489.251 -1.52915 -2.57987 0
M  V30 5091 H 486.804 -0.828988 -1.32505 0
M  V30 5092 H 487.539 0.992233 -3.08748 0
M  V30 5093 H 487.324 -0.597776 -3.87517 0
M  V30 5094 H 488.814 0.350156 -4.16129 0
M  V30 5095 N 489.251 1.34841 -0.815825 0
M  V30 5096 C 490.214 2.27959 -0.238185 0
M  V30 5097 C 491.214 1.49983 0.579816 0
M  V30 5098 O 492.404 1.69617 0.396953 0
M  V30 5099 C 489.536 3.34314 0.666876 0
M  V30 5100 H 490.729 2.80558 -1.05958 0
M  V30 5101 H 488.282 1.44852 -0.587156 0
M  V30 5102 H 489.017 2.86916 1.5116 0
M  V30 5103 H 488.802 3.92014 0.0819106 0
M  V30 5104 H 490.292 4.0379 1.06506 0
M  V30 5105 N 490.729 0.570148 1.46925 0
M  V30 5106 C 492.145 0.23087 1.57921 0
M  V30 5107 C 492.345 -1.26676 1.56702 0
M  V30 5108 O 491.401 -2.04774 1.47729 0
M  V30 5109 C 492.714 0.868973 2.8787 0
M  V30 5110 C 494.262 0.841397 3.01479 0
M  V30 5111 C 494.737 1.45881 4.34146 0
M  V30 5112 N 496.228 1.42258 4.40814 0
M  V30 5113 C 496.963 1.8698 5.42057 0
M  V30 5114 N 496.459 2.39618 6.50042 0
M  V30 5115 N 498.252 1.77972 5.33181 0
M  V30 5116 H 490.403 1.54301 1.45962 0
M  V30 5117 H 492.666 0.644224 0.69547 0
M  V30 5118 H 492.372 1.922 2.94537 0
M  V30 5119 H 492.246 0.369682 3.75384 0
M  V30 5120 H 494.633 -0.202973 2.94401 0
M  V30 5121 H 494.714 1.37858 2.15474 0
M  V30 5122 H 494.358 2.50231 4.4198 0
M  V30 5123 H 494.288 0.896958 5.18905 0
M  V30 5124 H 496.779 1.03768 3.63374 0
M  V30 5125 H 497.092 2.71633 7.23488 0
M  V30 5126 H 495.437 2.43636 6.50897 0
M  V30 5127 H 498.628 1.36617 4.4772 0
M  V30 5128 H 498.801 2.13143 6.11943 0
M  V30 5129 N 492.207 -1.54576 0.307264 0
M  V30 5130 C 493.117 -2.27435 -0.57536 0
M  V30 5131 C 494.133 -1.31183 -1.14311 0
M  V30 5132 O 495.309 -1.64175 -1.16656 0
M  V30 5133 C 492.374 -3.00566 -1.72803 0
M  V30 5134 C 491.435 -4.12369 -1.19373 0
M  V30 5135 C 490.668 -4.82003 -2.29147 0
M  V30 5136 O 490.891 -4.51038 -3.49171 0
M  V30 5137 O 489.825 -5.69271 -1.95485 0
M  V30 5138 H 493.651 -3.03696 0.0158558 0
M  V30 5139 H 491.236 -1.49219 0.0735064 0
M  V30 5140 H 493.118 -3.46416 -2.39946 0
M  V30 5141 H 491.793 -2.27195 -2.30574 0
M  V30 5142 H 490.7 -3.70905 -0.487851 0
M  V30 5143 H 492.033 -4.87736 -0.661376 0
M  V30 5144 N 493.685 -0.035106 -1.57561 0
M  V30 5145 C 494.934 0.641604 -1.91223 0
M  V30 5146 C 495.247 1.72944 -0.913761 0
M  V30 5147 O 496.453 2.46321 -1.14185 0
M  V30 5148 C 494.909 1.19249 -3.3957 0
M  V30 5149 C 494.517 0.137616 -4.47789 0
M  V30 5150 C 496.261 1.84537 -3.82291 0
M  V30 5151 C 494.168 0.700478 -5.87237 0
M  V30 5152 H 493.098 0.243417 -0.713627 0
M  V30 5153 H 495.749 -0.101382 -1.8322 0
M  V30 5154 H 494.131 1.98728 -3.42525 0
M  V30 5155 H 495.305 -0.635153 -4.56402 0
M  V30 5156 H 493.62 -0.416855 -4.14308 0
M  V30 5157 H 496.217 2.27616 -4.83834 0
M  V30 5158 H 496.56 2.69054 -3.17672 0
M  V30 5159 H 497.093 1.11739 -3.81784 0
M  V30 5160 H 493.832 -0.106693 -6.55413 0
M  V30 5161 H 493.352 1.4416 -5.82218 0
M  V30 5162 H 495.031 1.18837 -6.35993 0
M  V30 5163 N 495.163 1.55791 0.238111 0
M  V30 5164 C 496.579 1.48411 0.587045 0
M  V30 5165 C 496.779 0.72702 1.87927 0
M  V30 5166 O 495.835 0.259942 2.51158 0
M  V30 5167 C 497.148 2.92873 0.681623 0
M  V30 5168 C 498.696 3.03295 0.773363 0
M  V30 5169 C 499.171 4.49082 0.899428 0
M  V30 5170 N 500.662 4.53056 0.964075 0
M  V30 5171 C 501.397 5.63117 1.08104 0
M  V30 5172 N 500.893 6.82969 1.16299 0
M  V30 5173 N 502.686 5.50933 1.11488 0
M  V30 5174 H 494.837 2.0345 -0.610076 0
M  V30 5175 H 497.1 0.924034 -0.211813 0
M  V30 5176 H 496.806 3.51142 -0.19802 0
M  V30 5177 H 496.68 3.43851 1.55069 0
M  V30 5178 H 499.067 2.45101 1.64346 0
M  V30 5179 H 499.148 2.55513 -0.121034 0
M  V30 5180 H 498.792 5.07889 0.0338586 0
M  V30 5181 H 498.722 4.94553 1.809 0
M  V30 5182 H 501.213 3.66737 0.91173 0
M  V30 5183 H 501.526 7.62598 1.25155 0
M  V30 5184 H 499.871 6.85712 1.13241 0
M  V30 5185 H 503.062 4.56231 1.0474 0
M  V30 5186 H 503.235 6.36743 1.20259 0
M  V30 5187 N 496.642 -0.504142 1.49319 0
M  V30 5188 C 498.058 -0.835039 1.36012 0
M  V30 5189 C 498.258 -1.97674 0.390808 0
M  V30 5190 O 497.314 -2.51867 -0.178655 0
M  V30 5191 C 498.627 -1.17821 2.76656 0
M  V30 5192 C 500.175 -1.2866 2.85334 0
M  V30 5193 C 500.65 -1.66307 4.26739 0
M  V30 5194 N 502.141 -1.73362 4.29534 0
M  V30 5195 C 502.876 -2.0393 5.35911 0
M  V30 5196 N 502.372 -2.32744 6.52535 0
M  V30 5197 N 504.165 -2.05155 5.23324 0
M  V30 5198 H 496.316 0.248764 2.10938 0
M  V30 5199 H 498.579 0.0486962 0.946748 0
M  V30 5200 H 498.285 -0.412682 3.4927 0
M  V30 5201 H 498.159 -2.12239 3.11825 0
M  V30 5202 H 500.546 -2.04285 2.1296 0
M  V30 5203 H 500.627 -0.323004 2.53752 0
M  V30 5204 H 500.271 -0.91234 4.99639 0
M  V30 5205 H 500.201 -2.63761 4.55782 0
M  V30 5206 H 502.692 -1.53268 3.45424 0
M  V30 5207 H 503.005 -2.55248 7.2943 0
M  V30 5208 H 501.35 -2.30207 6.55767 0
M  V30 5209 H 504.541 -1.82119 4.3122 0
M  V30 5210 H 504.714 -2.28644 6.06322 0
M  V30 5211 N 498.12 -1.38341 -0.754957 0
M  V30 5212 C 499.083 -1.35262 -1.85032 0
M  V30 5213 C 500.083 -0.253393 -1.58791 0
M  V30 5214 O 501.273 -0.510205 -1.66561 0
M  V30 5215 C 498.405 -1.10544 -3.22479 0
M  V30 5216 H 499.598 -2.32712 -1.8917 0
M  V30 5217 H 497.151 -1.23614 -0.956515 0
M  V30 5218 H 497.886 -0.136952 -3.24011 0
M  V30 5219 H 497.671 -1.90127 -3.4292 0
M  V30 5220 H 499.161 -1.11082 -4.02555 0
M  V30 5221 N 499.598 0.982988 -1.23187 0
M  V30 5222 C 500.847 1.71817 -1.05649 0
M  V30 5223 C 501.16 1.91315 0.407176 0
M  V30 5224 O 502.366 2.62256 0.702436 0
M  V30 5225 C 500.822 3.09188 -1.84203 0
M  V30 5226 C 500.43 2.97586 -3.34882 0
M  V30 5227 C 502.174 3.86684 -1.75146 0
M  V30 5228 C 500.081 4.30173 -4.05839 0
M  V30 5229 H 499.011 0.644258 -0.391724 0
M  V30 5230 H 501.662 1.09659 -1.4713 0
M  V30 5231 H 500.044 3.72087 -1.35527 0
M  V30 5232 H 501.218 2.43793 -3.91026 0
M  V30 5233 H 499.533 2.33567 -3.44725 0
M  V30 5234 H 502.13 4.84836 -2.25473 0
M  V30 5235 H 502.473 4.10136 -0.713737 0
M  V30 5236 H 503.006 3.30482 -2.21419 0
M  V30 5237 H 499.745 4.11918 -5.09906 0
M  V30 5238 H 499.265 4.83841 -3.54482 0
M  V30 5239 H 500.944 4.98873 -4.11989 0
M  V30 5240 N 501.076 1.04316 1.18135 0
M  V30 5241 C 502.304 0.768117 1.92113 0
M  V30 5242 C 502.719 -0.675057 1.76319 0
M  V30 5243 O 502.076 -1.46038 1.09449 0
M  V30 5244 C 502.127 1.12808 3.43448 0
M  V30 5245 O 501.848 2.5146 3.58747 0
M  V30 5246 C 503.349 0.8779 4.3452 0
M  V30 5247 H 500.569 0.279937 0.609817 0
M  V30 5248 H 503.113 1.39149 1.49859 0
M  V30 5249 H 501.268 0.549623 3.83481 0
M  V30 5250 H 501.682 2.65313 4.52448 0
M  V30 5251 H 503.156 1.17959 5.39249 0
M  V30 5252 H 503.633 -0.187239 4.38801 0
M  V30 5253 H 504.239 1.43977 4.00188 0
M  V30 5254 N 502.554 -1.34406 0.822964 0
M  V30 5255 C 503.802 -1.97892 0.410245 0
M  V30 5256 C 504.123 -1.65567 -1.03017 0
M  V30 5257 O 503.393 -0.94642 -1.71522 0
M  V30 5258 H 501.973 -0.732049 0.148707 0
M  V30 5259 H 504.635 -1.64043 1.05242 0
M  V30 5260 H 503.731 -3.07579 0.529284 0
M  V30 5261 N 504.032 -0.577932 -1.46621 0
M  V30 5262 C 505.448 -0.239242 -1.57797 0
M  V30 5263 C 505.648 1.25843 -1.57371 0
M  V30 5264 O 504.704 2.03988 -1.48813 0
M  V30 5265 C 506.017 -0.884227 -2.87405 0
M  V30 5266 C 507.565 -0.857373 -3.01028 0
M  V30 5267 C 508.04 -1.48181 -4.33366 0
M  V30 5268 N 509.531 -1.44593 -4.40053 0
M  V30 5269 C 510.266 -1.89852 -5.41058 0
M  V30 5270 N 509.762 -2.43062 -6.48762 0
M  V30 5271 N 511.555 -1.80797 -5.3223 0
M  V30 5272 H 503.706 -1.55073 -1.45142 0
M  V30 5273 H 505.969 -0.647903 -0.692044 0
M  V30 5274 H 505.675 -1.93759 -2.93514 0
M  V30 5275 H 505.549 -0.389585 -3.75183 0
M  V30 5276 H 507.936 0.187357 -2.94505 0
M  V30 5277 H 508.017 -1.38999 -2.14739 0
M  V30 5278 H 507.661 -2.52572 -4.40647 0
M  V30 5279 H 507.591 -0.924464 -5.18422 0
M  V30 5280 H 510.082 -1.05694 -3.62819 0
M  V30 5281 H 510.395 -2.75466 -7.22038 0
M  V30 5282 H 508.74 -2.47085 -6.49595 0
M  V30 5283 H 511.931 -1.38989 -4.46989 0
M  V30 5284 H 512.104 -2.16385 -6.10804 0
M  V30 5285 N 505.51 1.54411 -0.315457 0
M  V30 5286 C 506.759 1.99599 0.290395 0
M  V30 5287 C 507.072 1.20746 1.53882 0
M  V30 5288 O 508.278 1.56272 2.22017 0
M  V30 5289 C 506.734 3.5539 0.56797 0
M  V30 5290 C 506.342 4.43068 -0.662945 0
M  V30 5291 C 508.086 4.09067 1.13422 0
M  V30 5292 C 505.993 5.90317 -0.357722 0
M  V30 5293 H 504.923 0.745592 0.112286 0
M  V30 5294 H 507.574 1.78477 -0.426418 0
M  V30 5295 H 505.956 3.72468 1.34476 0
M  V30 5296 H 507.13 4.37765 -1.43869 0
M  V30 5297 H 505.445 4.00238 -1.14884 0
M  V30 5298 H 508.042 5.16663 1.37707 0
M  V30 5299 H 508.385 3.60552 2.08106 0
M  V30 5300 H 508.918 3.95589 0.418805 0
M  V30 5301 H 505.657 6.4301 -1.27351 0
M  V30 5302 H 505.177 5.98592 0.380472 0
M  V30 5303 H 506.856 6.4699 0.0354284 0
M  V30 5304 N 506.988 0.0434614 1.5754 0
M  V30 5305 C 508.399 -0.493343 1.80064 0
M  V30 5306 C 508.75 -1.71388 0.955023 0
M  V30 5307 O 507.875 -2.15736 0.169434 0
M  V30 5308 C 508.47 -0.90179 3.26578 0
M  V30 5309 C 507.029 -1.38362 3.50047 0
M  V30 5310 C 506.176 -0.355129 2.75017 0
M  V30 5311 H 509.127 0.2694 1.56397 0
M  V30 5312 H 509.148 -1.76523 3.37075 0
M  V30 5313 H 508.66 -0.013271 3.88098 0
M  V30 5314 H 506.761 -2.29159 2.93798 0
M  V30 5315 H 506.874 -1.3811 4.58762 0
M  V30 5316 H 505.238 -0.826348 2.40922 0
M  V30 5317 H 506.021 0.525172 3.39259 0
M  V30 5318 N 508.466 -1.55915 -0.229846 0
M  V30 5319 C 509.743 -1.6932 -0.979295 0
M  V30 5320 C 510.123 -0.588321 -2.02736 0
M  V30 5321 O 509.471 0.40586 -2.24867 0
M  V30 5322 C 509.681 -3.10305 -1.59724 0
M  V30 5323 C 511.029 -3.6945 -2.09264 0
M  V30 5324 O 512.053 -3.13214 -1.69633 0
M  V30 5325 O 510.912 -4.68072 -2.82082 0
M  V30 5326 H 508.006 -0.689314 -0.456919 0
M  V30 5327 H 510.552 -1.68238 -0.222283 0
M  V30 5328 H 509.324 -3.82177 -0.840039 0
M  V30 5329 H 508.947 -3.1547 -2.42001 0
M  V30 5330 N 509.944 0.496216 -1.49584 0
M  V30 5331 C 511.169 1.27865 -1.63295 0
M  V30 5332 C 511.594 1.85592 -0.306156 0
M  V30 5333 O 510.952 1.66092 0.726851 0
M  V30 5334 C 511 2.38128 -2.7079 0
M  V30 5335 O 510.104 3.42108 -2.30296 0
M  V30 5336 H 509.445 0.377279 -0.546403 0
M  V30 5337 H 511.975 0.593497 -1.95803 0
M  V30 5338 H 511.985 2.8382 -2.93104 0
M  V30 5339 H 510.66 1.95479 -3.67098 0
M  V30 5340 H 509.237 3.02301 -2.18331 0
M  V30 5341 N 511.423 1.38739 0.74761 0
M  V30 5342 C 512.353 1.39173 1.87492 0
M  V30 5343 C 513.334 0.256794 1.6815 0
M  V30 5344 O 514.519 0.460762 1.88655 0
M  V30 5345 C 511.649 1.22197 3.25093 0
M  V30 5346 C 510.603 2.32957 3.59047 0
M  V30 5347 C 509.929 2.01082 4.95449 0
M  V30 5348 C 511.229 3.75237 3.6331 0
M  V30 5349 H 512.923 2.3351 1.87386 0
M  V30 5350 H 510.469 1.12399 0.900134 0
M  V30 5351 H 512.422 1.21124 4.03617 0
M  V30 5352 H 511.146 0.243241 3.25693 0
M  V30 5353 H 509.805 2.33226 2.82845 0
M  V30 5354 H 509.453 1.01678 4.92616 0
M  V30 5355 H 509.153 2.75267 5.19136 0
M  V30 5356 H 510.677 2.01638 5.76346 0
M  V30 5357 H 512.091 3.76966 4.31937 0
M  V30 5358 H 510.488 4.48677 3.98509 0
M  V30 5359 H 511.558 4.07122 2.634 0
M  V30 5360 N 512.901 -0.976442 1.23707 0
M  V30 5361 C 513.848 -2.06952 1.02174 0
M  V30 5362 C 514.818 -1.65984 -0.0621034 0
M  V30 5363 O 516.003 -1.90584 0.0907906 0
M  V30 5364 C 513.143 -3.39425 0.62327 0
M  V30 5365 C 512.256 -3.9364 1.77966 0
M  V30 5366 C 511.391 -5.14343 1.3276 0
M  V30 5367 C 510.43 -5.60733 2.45449 0
M  V30 5368 N 509.567 -6.72662 2.01172 0
M  V30 5369 H 514.407 -2.24704 1.95734 0
M  V30 5370 H 511.944 -1.10143 0.975034 0
M  V30 5371 H 513.902 -4.15526 0.37332 0
M  V30 5372 H 512.532 -3.21624 -0.275329 0
M  V30 5373 H 511.584 -3.14258 2.14351 0
M  V30 5374 H 512.896 -4.24035 2.62671 0
M  V30 5375 H 512.05 -5.97789 1.03601 0
M  V30 5376 H 510.789 -4.8561 0.450975 0
M  V30 5377 H 509.794 -4.75865 2.75378 0
M  V30 5378 H 511.019 -5.91483 3.33654 0
M  V30 5379 H 508.965 -6.45681 1.15895 0
M  V30 5380 H 508.882 -7.02462 2.79434 0
M  V30 5381 H 510.15 -7.59572 1.75129 0
M  V30 5382 N 514.379 -1.04941 -1.1758 0
M  V30 5383 C 515.327 -0.64204 -2.23563 0
M  V30 5384 C 516.321 0.335453 -1.66045 0
M  V30 5385 O 517.527 0.20179 -1.78865 0
M  V30 5386 H 513.902 -0.18944 -0.727748 0
M  V30 5387 H 515.873 -1.54609 -2.55223 0
M  V30 5388 C 514.622 -0.0301051 -3.47687 0
M  V30 5389 H 513.945 -0.773339 -3.92249 0
M  V30 5390 H 515.385 0.217592 -4.23441 0
M  V30 5391 C 513.844 1.2225 -3.13937 0
M  V30 5392 O 514.374 2.3122 -3.28482 0
M  V30 5393 N 512.58 1.11917 -2.68185 0
M  V30 5394 H 512.127 0.232403 -2.5655 0
M  V30 5395 H 512.085 1.95814 -2.45976 0
M  V30 5396 N 515.857 1.33968 -0.830081 0
M  V30 5397 C 517.097 1.99879 -0.427521 0
M  V30 5398 C 517.461 1.64355 0.992546 0
M  V30 5399 O 518.662 2.23164 1.49837 0
M  V30 5400 C 516.933 3.51771 -0.631815 0
M  V30 5401 S 518.492 4.37608 -0.323168 0
M  V30 5402 H 515.31 0.692485 -0.161202 0
M  V30 5403 H 517.912 1.63129 -1.07745 0
M  V30 5404 H 516.616 3.75113 -1.66488 0
M  V30 5405 H 516.147 3.93386 0.0325936 0
M  V30 5406 H 518.162 4.88683 0.860432 0
M  V30 5407 N 517.335 0.585699 1.46312 0
M  V30 5408 C 518.581 0.0725284 2.0267 0
M  V30 5409 C 518.914 -1.28523 1.45586 0
M  V30 5410 O 518.189 -1.84283 0.622101 0
M  V30 5411 C 518.472 0.0099788 3.60099 0
M  V30 5412 C 518.325 1.39685 4.27561 0
M  V30 5413 C 519.644 -0.689117 4.34671 0
M  V30 5414 H 516.763 0.0278307 0.736474 0
M  V30 5415 H 519.405 0.753472 1.74421 0
M  V30 5416 H 517.555 -0.56992 3.84297 0
M  V30 5417 H 519.227 2.02215 4.14617 0
M  V30 5418 H 517.47 1.96374 3.86807 0
M  V30 5419 H 518.141 1.30553 5.36339 0
M  V30 5420 H 520.617 -0.196446 4.15636 0
M  V30 5421 H 519.493 -0.701921 5.44393 0
M  V30 5422 H 519.754 -1.75101 4.05946 0
M  V30 5423 N 518.813 -1.54241 0.323641 0
M  V30 5424 C 519.761 -2.25813 -0.557804 0
M  V30 5425 C 520.755 -1.27225 -1.11849 0
M  V30 5426 O 521.961 -1.45001 -1.06652 0
M  V30 5427 H 518.336 -0.72532 -0.198532 0
M  V30 5428 H 520.307 -2.98322 0.0681112 0
M  V30 5429 C 519.056 -3.02913 -1.70701 0
M  V30 5430 H 518.379 -3.78593 -1.28482 0
M  V30 5431 H 519.819 -3.56238 -2.29935 0
M  V30 5432 C 518.278 -2.11217 -2.62467 0
M  V30 5433 O 518.808 -1.69508 -3.64184 0
M  V30 5434 N 517.014 -1.76704 -2.30703 0
M  V30 5435 H 516.561 -2.1082 -1.48029 0
M  V30 5436 H 516.519 -1.15631 -2.92364 0
M  V30 5437 N 520.291 -0.0518155 -1.57515 0
M  V30 5438 C 521.238 0.922352 -2.11569 0
M  V30 5439 C 522.208 1.30842 -1.02321 0
M  V30 5440 O 523.393 1.39778 -1.29872 0
M  V30 5441 C 520.533 2.19167 -2.6657 0
M  V30 5442 C 519.646 1.86003 -3.89906 0
M  V30 5443 C 518.781 3.07398 -4.33221 0
M  V30 5444 C 517.82 2.70158 -5.49255 0
M  V30 5445 N 516.957 3.84248 -5.8762 0
M  V30 5446 H 521.797 0.454506 -2.94514 0
M  V30 5447 H 519.334 0.212718 -1.45554 0
M  V30 5448 H 521.292 2.93443 -2.96559 0
M  V30 5449 H 519.922 2.63528 -1.86421 0
M  V30 5450 H 518.974 1.01874 -3.66505 0
M  V30 5451 H 520.286 1.54592 -4.74239 0
M  V30 5452 H 519.44 3.89972 -4.64765 0
M  V30 5453 H 518.179 3.41988 -3.477 0
M  V30 5454 H 517.184 1.86001 -5.17382 0
M  V30 5455 H 518.409 2.36759 -6.36492 0
M  V30 5456 H 516.355 4.18638 -5.05053 0
M  V30 5457 H 516.272 3.56538 -6.66646 0
M  V30 5458 H 517.54 4.6746 -6.2378 0
M  V30 5459 N 521.769 1.56035 0.221574 0
M  V30 5460 C 523.046 1.69837 0.970301 0
M  V30 5461 C 523.426 0.599065 2.02421 0
M  V30 5462 O 522.774 -0.393929 2.25079 0
M  V30 5463 C 522.984 3.11148 1.58076 0
M  V30 5464 C 524.332 3.70555 2.07302 0
M  V30 5465 O 525.356 3.14109 1.6797 0
M  V30 5466 O 524.215 4.69562 2.79596 0
M  V30 5467 H 521.309 0.691727 0.453257 0
M  V30 5468 H 523.855 1.68353 0.213358 0
M  V30 5469 H 522.627 3.82617 0.819759 0
M  V30 5470 H 522.25 3.16749 2.40324 0
M  V30 5471 N 523.247 -0.488276 1.49845 0
M  V30 5472 C 524.197 -1.58556 1.63842 0
M  V30 5473 C 525.181 -1.53142 0.493586 0
M  V30 5474 O 526.373 -1.60457 0.747169 0
M  V30 5475 C 523.502 -2.97101 1.72005 0
M  V30 5476 C 522.588 -3.07463 2.92108 0
M  V30 5477 N 522.979 -2.87681 4.16021 0
M  V30 5478 C 521.277 -3.3858 2.90309 0
M  V30 5479 C 521.978 -3.0256 4.96822 0
M  V30 5480 N 520.954 -3.32002 4.30437 0
M  V30 5481 H 524.756 -1.41935 2.57355 0
M  V30 5482 H 522.27 -0.694668 1.46793 0
M  V30 5483 H 524.267 -3.75976 1.80132 0
M  V30 5484 H 522.927 -3.14782 0.796375 0
M  V30 5485 H 523.938 -2.63603 4.45796 0
M  V30 5486 H 520.615 -3.62357 2.07372 0
M  V30 5487 H 522.005 -2.9165 6.05301 0
M  V30 5488 N 524.725 -1.39134 -0.740242 0
M  V30 5489 C 525.655 -1.40165 -1.86751 0
M  V30 5490 C 526.636 -0.265708 -1.68012 0
M  V30 5491 O 527.821 -0.47076 -1.88408 0
M  V30 5492 C 524.951 -1.2392 -3.2444 0
M  V30 5493 C 523.905 -2.34858 -3.57807 0
M  V30 5494 C 523.231 -2.03707 -4.94376 0
M  V30 5495 C 524.531 -3.77159 -3.61315 0
M  V30 5496 H 526.225 -2.345 -1.86145 0
M  V30 5497 H 523.771 -1.12875 -0.89416 0
M  V30 5498 H 525.724 -1.23263 -4.02969 0
M  V30 5499 H 524.448 -0.26051 -3.25559 0
M  V30 5500 H 523.107 -2.34723 -2.81604 0
M  V30 5501 H 522.755 -1.04289 -4.9207 0
M  V30 5502 H 522.455 -2.78016 -5.17669 0
M  V30 5503 H 523.979 -2.04691 -5.75268 0
M  V30 5504 H 525.393 -3.79252 -4.29931 0
M  V30 5505 H 523.79 -4.50784 -3.96124 0
M  V30 5506 H 524.86 -4.08513 -2.61238 0
M  V30 5507 N 526.204 0.969867 -1.24223 0
M  V30 5508 C 527.432 1.74756 -1.10761 0
M  V30 5509 C 527.847 1.85713 0.340041 0
M  V30 5510 O 527.204 1.34389 1.23474 0
M  V30 5511 C 527.255 3.16915 -1.73917 0
M  V30 5512 O 526.976 3.06511 -3.13021 0
M  V30 5513 C 528.477 4.11032 -1.66036 0
M  V30 5514 H 525.697 0.548092 -0.387087 0
M  V30 5515 H 528.241 1.2178 -1.64286 0
M  V30 5516 H 526.396 3.66884 -1.244 0
M  V30 5517 H 526.81 3.96079 -3.43834 0
M  V30 5518 H 528.284 5.08446 -2.14911 0
M  V30 5519 H 528.761 4.34785 -0.621159 0
M  V30 5520 H 529.367 3.66972 -2.14969 0
M  V30 5521 N 527.682 1.05563 1.17022 0
M  V30 5522 C 528.645 0.664098 2.19368 0
M  V30 5523 C 529.645 -0.286358 1.5823 0
M  V30 5524 O 530.835 -0.069728 1.7406 0
M  V30 5525 C 527.967 -0.0239932 3.40892 0
M  V30 5526 H 529.16 1.57 2.55521 0
M  V30 5527 H 526.713 0.849964 1.31169 0
M  V30 5528 H 527.448 -0.942988 3.10287 0
M  V30 5529 H 527.233 0.659351 3.86516 0
M  V30 5530 H 528.723 -0.283909 4.16634 0
M  V30 5531 N 529.16 -1.33526 0.837174 0
M  V30 5532 C 530.123 -2.27551 0.274421 0
M  V30 5533 C 531.123 -1.50886 -0.555881 0
M  V30 5534 O 532.313 -1.70227 -0.369918 0
M  V30 5535 C 529.445 -3.35332 -0.613605 0
M  V30 5536 H 530.638 -2.78837 1.10408 0
M  V30 5537 H 528.191 -1.439 0.610126 0
M  V30 5538 H 528.926 -2.89285 -1.46577 0
M  V30 5539 H 528.711 -3.92095 -0.0195341 0
M  V30 5540 H 530.201 -4.05433 -1.00068 0
M  V30 5541 N 530.638 -0.59345 -1.46 0
M  V30 5542 C 531.866 -0.0890934 -2.06708 0
M  V30 5543 C 532.281 1.2205 -1.44046 0
M  V30 5544 O 531.638 1.74029 -0.549551 0
M  V30 5545 C 531.689 0.0720263 -3.61428 0
M  V30 5546 O 531.41 -1.18574 -4.21748 0
M  V30 5547 C 532.911 0.609487 -4.3909 0
M  V30 5548 H 530.131 -0.0623628 -0.668096 0
M  V30 5549 H 532.675 -0.817171 -1.87464 0
M  V30 5550 H 530.83 0.750369 -3.80063 0
M  V30 5551 H 531.244 -1.0064 -5.14754 0
M  V30 5552 H 532.718 0.671363 -5.47902 0
M  V30 5553 H 533.195 1.62878 -4.07882 0
M  V30 5554 H 533.801 -0.03434 -4.25286 0
M  V30 5555 N 532.116 1.54067 -0.331816 0
M  V30 5556 C 533.066 2.21363 0.546101 0
M  V30 5557 C 534.05 1.19698 1.07523 0
M  V30 5558 O 535.242 1.45293 1.01088 0
M  V30 5559 C 532.371 2.98115 1.70242 0
M  V30 5560 C 531.457 4.07127 1.18779 0
M  V30 5561 N 531.848 5.04267 0.393465 0
M  V30 5562 C 530.146 4.21226 1.46576 0
M  V30 5563 C 530.847 5.81585 0.115572 0
M  V30 5564 N 529.823 5.39022 0.703987 0
M  V30 5565 H 533.625 2.93821 -0.0679751 0
M  V30 5566 H 531.139 1.61812 -0.138085 0
M  V30 5567 H 533.136 3.44818 2.34321 0
M  V30 5568 H 531.796 2.27181 2.31989 0
M  V30 5569 H 532.807 5.17888 0.0355757 0
M  V30 5570 H 529.484 3.61509 2.08848 0
M  V30 5571 H 530.874 6.6985 -0.524426 0
M  V30 5572 N 533.594 0.0601682 1.57485 0
M  V30 5573 C 534.84 -0.606552 1.94146 0
M  V30 5574 C 535.195 -1.67918 0.939225 0
M  V30 5575 O 534.488 -1.91558 -0.0402649 0
M  V30 5576 C 534.682 -1.23831 3.35262 0
M  V30 5577 C 534.511 -0.228408 4.4912 0
M  V30 5578 C 533.281 0.182813 5.04969 0
M  V30 5579 C 535.479 0.52975 5.11564 0
M  V30 5580 N 533.461 1.18464 6.02362 0
M  V30 5581 C 534.832 1.38439 6.04346 0
M  V30 5582 C 536.887 0.587084 4.94427 0
M  V30 5583 C 535.59 2.29125 6.81832 0
M  V30 5584 C 537.616 1.4814 5.72546 0
M  V30 5585 C 536.978 2.32375 6.64967 0
M  V30 5586 H 533.077 -0.193328 0.757726 0
M  V30 5587 H 535.661 0.1346 1.94234 0
M  V30 5588 H 533.832 -1.94944 3.35933 0
M  V30 5589 H 535.564 -1.86456 3.59188 0
M  V30 5590 H 532.319 -0.197968 4.73186 0
M  V30 5591 H 532.743 1.68271 6.55754 0
M  V30 5592 H 537.385 -0.049944 4.22771 0
M  V30 5593 H 535.103 2.93868 7.52773 0
M  V30 5594 H 538.689 1.53045 5.6131 0
M  V30 5595 H 537.569 3.00454 7.2436 0
M  V30 5596 N 535.072 -1.5615 -0.213296 0
M  V30 5597 C 536.035 -1.92249 -1.24792 0
M  V30 5598 C 537.035 -0.801828 -1.39382 0
M  V30 5599 O 538.225 -1.06948 -1.37506 0
M  V30 5600 C 535.357 -2.18056 -2.62039 0
M  V30 5601 H 536.55 -2.84793 -0.939845 0
M  V30 5602 H 534.103 -1.49559 -0.454062 0
M  V30 5603 H 534.838 -1.2809 -2.97932 0
M  V30 5604 H 534.623 -2.99703 -2.52825 0
M  V30 5605 H 536.113 -2.47051 -3.36683 0
M  V30 5606 N 536.55 0.480323 -1.50102 0
M  V30 5607 C 537.775 1.26126 -1.64642 0
M  V30 5608 C 538.2 1.85257 -0.325823 0
M  V30 5609 O 537.558 1.66854 0.709194 0
M  V30 5610 C 537.606 2.35243 -2.73301 0
M  V30 5611 O 536.71 3.39646 -2.33911 0
M  V30 5612 H 536.051 0.371463 -0.550374 0
M  V30 5613 H 538.581 0.572696 -1.96421 0
M  V30 5614 H 538.591 2.80695 -2.96098 0
M  V30 5615 H 537.266 1.91574 -3.6915 0
M  V30 5616 H 535.843 2.99969 -2.21525 0
M  V30 5617 N 538.028 1.39524 0.732853 0
M  V30 5618 C 538.961 1.32806 1.85574 0
M  V30 5619 C 539.939 0.201354 1.61348 0
M  V30 5620 O 541.123 0.38216 1.84585 0
M  V30 5621 C 538.25 1.06271 3.21596 0
M  V30 5622 C 537.296 2.21161 3.64678 0
M  V30 5623 S 538.129 3.83454 3.73796 0
M  V30 5624 C 539.285 3.59149 5.12604 0
M  V30 5625 H 539.518 2.27838 1.9099 0
M  V30 5626 H 537.051 1.25605 0.897927 0
M  V30 5627 H 539.009 0.916461 4.00139 0
M  V30 5628 H 537.67 0.129223 3.13834 0
M  V30 5629 H 536.863 1.98193 4.63396 0
M  V30 5630 H 536.465 2.32 2.93346 0
M  V30 5631 H 538.757 3.16547 5.99003 0
M  V30 5632 H 539.7 4.57335 5.40602 0
M  V30 5633 H 540.108 2.93203 4.82382 0
M  V30 5634 N 539.506 -0.963266 1.24736 0
M  V30 5635 C 540.783 -1.68248 0.9976 0
M  V30 5636 C 541.163 -2.05599 -0.478776 0
M  V30 5637 O 540.511 -1.7626 -1.45412 0
M  V30 5638 C 540.721 -2.91118 1.92487 0
M  V30 5639 C 542.069 -3.63261 2.19833 0
M  V30 5640 O 543.093 -3.01184 1.90176 0
M  V30 5641 O 541.952 -4.75019 2.7022 0
M  V30 5642 H 539.046 -0.735744 0.377637 0
M  V30 5643 H 541.592 -1.01696 1.35853 0
M  V30 5644 H 540.364 -2.60242 2.92215 0
M  V30 5645 H 539.987 -3.65402 1.56738 0
M  V30 5646 N 540.985 -1.06182 -1.16461 0
M  V30 5647 C 542.396 -0.802426 -1.68576 0
M  V30 5648 C 542.747 0.67412 -1.84255 0
M  V30 5649 O 541.872 1.52303 -1.5373 0
M  V30 5650 C 542.467 -1.45002 -3.06202 0
M  V30 5651 C 541.026 -1.23843 -3.55443 0
M  V30 5652 C 540.173 -1.52724 -2.31454 0
M  V30 5653 H 543.124 -1.22545 -1.00839 0
M  V30 5654 H 543.145 -0.864731 -3.70544 0
M  V30 5655 H 542.657 -2.52466 -2.94759 0
M  V30 5656 H 540.758 -0.183487 -3.72148 0
M  V30 5657 H 540.871 -1.95036 -4.37604 0
M  V30 5658 H 539.235 -0.947726 -2.36411 0
M  V30 5659 H 540.018 -2.61343 -2.22609 0
M  V30 5660 N 542.463 1.3308 -0.844243 0
M  V30 5661 C 543.426 2.27403 -0.286485 0
M  V30 5662 C 544.426 1.51179 0.547872 0
M  V30 5663 O 545.616 1.70421 0.360886 0
M  V30 5664 C 542.748 3.35653 0.595813 0
M  V30 5665 H 543.941 2.78248 -1.11885 0
M  V30 5666 H 541.494 1.43574 -0.617749 0
M  V30 5667 H 542.229 2.90058 1.4504 0
M  V30 5668 H 542.014 3.921 -0.00125994 0
M  V30 5669 H 543.504 4.05958 0.979168 0
M  V30 5670 N 543.941 0.601185 1.45683 0
M  V30 5671 C 545.187 0.0940202 2.02582 0
M  V30 5672 C 545.52 -1.26972 1.46941 0
M  V30 5673 O 544.795 -1.83613 0.641612 0
M  V30 5674 C 545.078 0.0481715 3.60068 0
M  V30 5675 C 544.931 1.44212 4.26055 0
M  V30 5676 C 546.25 -0.642975 4.35378 0
M  V30 5677 H 543.369 0.0356404 0.736138 0
M  V30 5678 H 546.011 0.771929 1.73612 0
M  V30 5679 H 544.161 -0.529128 3.8488 0
M  V30 5680 H 545.833 2.06601 4.12449 0
M  V30 5681 H 544.076 2.00465 3.84703 0
M  V30 5682 H 544.747 1.36234 5.34925 0
M  V30 5683 H 547.223 -0.152351 4.15821 0
M  V30 5684 H 546.099 -0.644141 5.45107 0
M  V30 5685 H 546.36 -1.70785 4.0778 0
M  V30 5686 N 545.419 -1.53889 0.339982 0
M  V30 5687 C 546.665 -2.01152 -0.258003 0
M  V30 5688 C 546.998 -1.22749 -1.50487 0
M  V30 5689 O 546.273 -0.314156 -1.91946 0
M  V30 5690 C 546.556 -3.55468 -0.575717 0
M  V30 5691 C 546.409 -4.44584 0.682996 0
M  V30 5692 C 547.728 -4.1768 -1.38677 0
M  V30 5693 H 544.847 -0.731198 -0.0922992 0
M  V30 5694 H 547.489 -1.84352 0.459814 0
M  V30 5695 H 545.639 -3.69914 -1.18725 0
M  V30 5696 H 547.311 -4.41981 1.32102 0
M  V30 5697 H 545.554 -4.13592 1.3086 0
M  V30 5698 H 546.225 -5.5043 0.416001 0
M  V30 5699 H 548.701 -4.0691 -0.869705 0
M  V30 5700 H 547.577 -5.25734 -1.57783 0
M  V30 5701 H 547.838 -3.72069 -2.38782 0
M  V30 5702 N 546.897 -0.0685191 -1.57451 0
M  V30 5703 C 547.847 0.909895 -2.09057 0
M  V30 5704 C 548.831 1.26088 -0.999528 0
M  V30 5705 O 550.023 1.24041 -1.26265 0
M  V30 5706 C 547.152 2.17863 -2.65312 0
M  V30 5707 C 546.238 1.85427 -3.81415 0
M  V30 5708 N 546.629 1.23426 -4.9051 0
M  V30 5709 C 544.927 2.15196 -3.90649 0
M  V30 5710 C 545.628 1.09008 -5.71395 0
M  V30 5711 N 544.604 1.59871 -5.1956 0
M  V30 5712 H 548.406 0.426145 -2.90794 0
M  V30 5713 H 545.92 0.135462 -1.61834 0
M  V30 5714 H 547.917 2.88872 -3.00597 0
M  V30 5715 H 546.577 2.66829 -1.85021 0
M  V30 5716 H 547.588 0.904305 -5.09944 0
M  V30 5717 H 544.265 2.66562 -3.21327 0
M  V30 5718 H 545.655 0.607305 -6.6915 0
M  V30 5719 N 548.375 1.56261 0.205012 0
M  V30 5720 C 549.786 1.70056 0.770574 0
M  V30 5721 C 550.137 0.673398 1.84282 0
M  V30 5722 O 549.262 -0.172196 2.15714 0
M  V30 5723 C 549.857 3.08316 1.40451 0
M  V30 5724 C 548.416 3.2391 1.91727 0
M  V30 5725 C 547.563 2.66001 0.783516 0
M  V30 5726 H 550.514 1.58688 -0.019911 0
M  V30 5727 H 550.535 3.05094 2.27371 0
M  V30 5728 H 550.047 3.83053 0.623882 0
M  V30 5729 H 548.148 2.54072 2.7254 0
M  V30 5730 H 548.261 4.3131 2.08588 0
M  V30 5731 H 546.625 2.24915 1.19521 0
M  V30 5732 H 547.408 3.43297 0.0152883 0
M  V30 5733 N 549.853 -0.472356 1.50355 0
M  V30 5734 C 550.763 -1.59637 1.7191 0
M  V30 5735 C 551.779 -1.63247 0.602195 0
M  V30 5736 O 552.955 -1.81139 0.880369 0
M  V30 5737 C 550.02 -2.9586 1.80742 0
M  V30 5738 C 549.081 -3.02649 3.04471 0
M  V30 5739 C 548.314 -4.32374 3.12872 0
M  V30 5740 O 548.537 -5.22807 2.28099 0
M  V30 5741 O 547.471 -4.44728 4.05587 0
M  V30 5742 H 551.297 -1.44373 2.67189 0
M  V30 5743 H 548.882 -0.651717 1.34436 0
M  V30 5744 H 550.764 -3.7677 1.88739 0
M  V30 5745 H 549.439 -3.11325 0.88647 0
M  V30 5746 H 548.346 -2.20821 3.01975 0
M  V30 5747 H 549.679 -2.92119 3.9614 0
M  V30 5748 N 551.331 -1.39911 -0.725443 0
M  V30 5749 C 552.261 -1.42138 -1.85254 0
M  V30 5750 C 553.242 -0.283513 -1.67721 0
M  V30 5751 O 554.427 -0.490717 -1.87898 0
M  V30 5752 C 551.557 -1.27354 -3.23107 0
M  V30 5753 C 550.511 -2.3864 -3.55296 0
M  V30 5754 C 549.837 -2.08939 -4.92188 0
M  V30 5755 C 551.137 -3.8097 -3.57295 0
M  V30 5756 H 552.831 -2.36461 -1.83648 0
M  V30 5757 H 550.377 -1.13817 -0.882138 0
M  V30 5758 H 552.33 -1.2753 -4.01639 0
M  V30 5759 H 551.054 -0.295025 -3.25265 0
M  V30 5760 H 549.713 -2.37696 -2.79099 0
M  V30 5761 H 549.361 -1.09502 -4.90936 0
M  V30 5762 H 549.061 -2.83491 -5.14691 0
M  V30 5763 H 550.585 -2.10781 -5.73065 0
M  V30 5764 H 551.999 -3.8379 -4.25885 0
M  V30 5765 H 550.396 -4.5496 -3.9132 0
M  V30 5766 H 551.466 -4.11261 -2.5689 0
M  V30 5767 N 552.809 0.956637 -1.25245 0
M  V30 5768 C 553.757 2.0743 -1.0524 0
M  V30 5769 C 554.751 1.69392 0.0160725 0
M  V30 5770 O 555.957 1.7946 -0.139382 0
M  V30 5771 H 552.332 0.678921 -0.323373 0
M  V30 5772 H 554.303 2.2146 -1.99995 0
M  V30 5773 C 553.052 3.40872 -0.685702 0
M  V30 5774 H 552.375 3.70607 -1.49968 0
M  V30 5775 H 553.815 4.19939 -0.585415 0
M  V30 5776 C 552.274 3.31367 0.608082 0
M  V30 5777 O 552.804 3.66214 1.65076 0
M  V30 5778 N 551.01 2.84486 0.592955 0
M  V30 5779 H 550.557 2.56326 -0.25592 0
M  V30 5780 H 550.515 2.78509 1.45877 0
M  V30 5781 N 554.287 1.06798 1.15896 0
M  V30 5782 C 555.535 0.786211 1.8618 0
M  V30 5783 C 555.856 -0.689547 1.82401 0
M  V30 5784 O 555.126 -1.49913 1.26107 0
M  V30 5785 H 553.706 0.287843 0.689315 0
M  V30 5786 H 556.368 1.35055 1.40521 0
M  V30 5787 H 555.464 1.1157 2.91477 0
M  V30 5788 N 555.766 -1.3263 0.851289 0
M  V30 5789 C 556.729 -2.27247 0.298541 0
M  V30 5790 C 557.729 -1.51467 -0.539847 0
M  V30 5791 O 558.919 -1.7061 -0.351843 0
M  V30 5792 C 556.051 -3.35964 -0.578004 0
M  V30 5793 H 557.244 -2.7765 1.13359 0
M  V30 5794 H 554.797 -1.43245 0.625354 0
M  V30 5795 H 555.532 -2.90823 -1.435 0
M  V30 5796 H 555.317 -3.92094 0.0220539 0
M  V30 5797 H 556.807 -4.06472 -0.957626 0
M  V30 5798 N 557.244 -0.608902 -1.45362 0
M  V30 5799 C 558.207 0.0992563 -2.28985 0
M  V30 5800 C 559.207 0.793841 -1.39838 0
M  V30 5801 O 560.397 0.641804 -1.61946 0
M  V30 5802 C 557.529 1.15073 -3.20891 0
M  V30 5803 H 558.722 -0.635964 -2.93079 0
M  V30 5804 H 556.275 -0.368007 -1.51906 0
M  V30 5805 H 557.01 1.91667 -2.616 0
M  V30 5806 H 556.795 0.656867 -3.86559 0
M  V30 5807 H 558.285 1.64665 -3.83765 0
M  V30 5808 N 558.722 1.53707 -0.348139 0
M  V30 5809 C 559.952 2.05108 0.247864 0
M  V30 5810 C 560.36 1.22252 1.44399 0
M  V30 5811 O 559.703 0.251853 1.81965 0
M  V30 5812 C 559.765 3.52171 0.722187 0
M  V30 5813 C 559.429 4.5562 -0.354902 0
M  V30 5814 C 560.426 5.05883 -1.19911 0
M  V30 5815 C 558.111 4.99703 -0.510145 0
M  V30 5816 C 560.105 5.98814 -2.18406 0
M  V30 5817 C 557.792 5.92443 -1.49848 0
M  V30 5818 C 558.79 6.41887 -2.33389 0
M  V30 5819 O 558.478 7.32802 -3.3054 0
M  V30 5820 H 558.21 0.674086 0.0508296 0
M  V30 5821 H 560.764 1.99229 -0.49968 0
M  V30 5822 H 558.994 3.55529 1.52105 0
M  V30 5823 H 560.683 3.8652 1.23925 0
M  V30 5824 H 561.449 4.72586 -1.09028 0
M  V30 5825 H 557.328 4.60816 0.130274 0
M  V30 5826 H 560.872 6.3733 -2.83649 0
M  V30 5827 H 556.769 6.25155 -1.60786 0
M  V30 5828 H 557.537 7.50749 -3.26064 0
M  V30 5829 N 560.2 0.0768682 1.57412 0
M  V30 5830 C 561.616 -0.279772 1.57129 0
M  V30 5831 C 561.816 -1.69688 1.08666 0
M  V30 5832 O 560.872 -2.40953 0.754843 0
M  V30 5833 C 562.185 -0.0848055 3.0058 0
M  V30 5834 C 563.733 -0.153954 3.12621 0
M  V30 5835 C 564.208 0.0127946 4.57998 0
M  V30 5836 N 565.699 -0.0426435 4.6318 0
M  V30 5837 C 566.434 0.0618892 5.73367 0
M  V30 5838 N 565.93 0.220229 6.9245 0
M  V30 5839 N 567.723 0.00446072 5.621 0
M  V30 5840 H 559.874 1.00297 1.87228 0
M  V30 5841 H 562.137 0.391565 0.863354 0
M  V30 5842 H 561.843 0.89325 3.40168 0
M  V30 5843 H 561.717 -0.834961 3.67843 0
M  V30 5844 H 564.104 -1.1225 2.72917 0
M  V30 5845 H 564.185 0.627389 2.47987 0
M  V30 5846 H 563.829 0.978128 4.98392 0
M  V30 5847 H 563.759 -0.788016 5.20671 0
M  V30 5848 H 566.25 -0.163226 3.77547 0
M  V30 5849 H 566.563 0.291999 7.72248 0
M  V30 5850 H 564.908 0.255658 6.9453 0
M  V30 5851 H 568.099 -0.117979 4.67951 0
M  V30 5852 H 568.272 0.0893796 6.47938 0
M  V30 5853 N 561.678 -1.56367 -0.196722 0
M  V30 5854 C 562.908 -1.84371 -0.932254 0
M  V30 5855 C 563.316 -0.657013 -1.77426 0
M  V30 5856 O 562.659 0.383576 -1.79651 0
M  V30 5857 C 562.721 -3.06454 -1.87952 0
M  V30 5858 C 562.385 -4.40425 -1.21962 0
M  V30 5859 C 563.382 -5.16457 -0.597343 0
M  V30 5860 C 561.067 -4.8716 -1.22396 0
M  V30 5861 C 563.061 -6.37399 0.0117913 0
M  V30 5862 C 560.748 -6.08038 -0.610995 0
M  V30 5863 C 561.746 -6.83 0.00580487 0
M  V30 5864 O 561.434 -8.01589 0.609173 0
M  V30 5865 H 561.166 -0.616377 -0.277589 0
M  V30 5866 H 563.72 -2.04329 -0.209452 0
M  V30 5867 H 561.95 -2.82377 -2.64197 0
M  V30 5868 H 563.639 -3.21118 -2.48271 0
M  V30 5869 H 564.405 -4.81445 -0.586142 0
M  V30 5870 H 560.284 -4.2877 -1.69345 0
M  V30 5871 H 563.828 -6.9585 0.493836 0
M  V30 5872 H 559.725 -6.42519 -0.619693 0
M  V30 5873 H 560.493 -8.16935 0.505919 0
M  V30 5874 N 563.156 0.464375 -1.50603 0
M  V30 5875 C 564.567 1.04507 -1.5471 0
M  V30 5876 C 564.918 1.9297 -0.354542 0
M  V30 5877 O 564.043 2.09763 0.531812 0
M  V30 5878 C 564.638 1.90207 -2.80369 0
M  V30 5879 C 563.197 2.43373 -2.87135 0
M  V30 5880 C 562.344 1.21886 -2.49076 0
M  V30 5881 H 565.295 0.246716 -1.56771 0
M  V30 5882 H 565.316 2.75353 -2.62604 0
M  V30 5883 H 564.828 1.25796 -3.67147 0
M  V30 5884 H 562.929 3.11318 -2.04724 0
M  V30 5885 H 563.042 2.7802 -3.90181 0
M  V30 5886 H 561.406 1.55575 -2.01664 0
M  V30 5887 H 562.189 0.591268 -3.3817 0
M  V30 5888 N 564.634 1.40294 0.718013 0
M  V30 5889 C 566.045 1.34289 1.29705 0
M  V30 5890 C 566.396 0.0152228 1.96194 0
M  V30 5891 O 565.521 -0.88682 1.97394 0
M  V30 5892 C 566.116 2.43219 2.3586 0
M  V30 5893 C 564.675 2.40682 2.89394 0
M  V30 5894 C 563.822 2.24223 1.63154 0
M  V30 5895 H 566.773 1.50135 0.514312 0
M  V30 5896 H 566.794 2.10986 3.16647 0
M  V30 5897 H 566.306 3.39836 1.87439 0
M  V30 5898 H 564.407 1.47756 3.42051 0
M  V30 5899 H 564.52 3.36177 3.41353 0
M  V30 5900 H 562.884 1.71696 1.88129 0
M  V30 5901 H 563.667 3.22834 1.16761 0
M  V30 5902 N 566.112 -0.949982 1.2575 0
M  V30 5903 C 567.36 -1.6918 1.10555 0
M  V30 5904 C 567.681 -1.91773 -0.353298 0
M  V30 5905 O 566.951 -1.50814 -1.25027 0
M  V30 5906 H 565.531 -0.626952 0.406129 0
M  V30 5907 H 568.193 -1.1419 1.57945 0
M  V30 5908 H 567.289 -2.66915 1.61749 0
M  V30 5909 N 567.59 -1.07411 -1.15328 0
M  V30 5910 C 568.836 -0.798831 -1.86404 0
M  V30 5911 C 569.169 0.673433 -1.8215 0
M  V30 5912 O 568.444 1.49428 -1.24505 0
M  V30 5913 C 568.727 -1.30846 -3.35487 0
M  V30 5914 C 568.58 -2.84532 -3.4837 0
M  V30 5915 C 569.899 -0.925486 -4.30259 0
M  V30 5916 H 567.018 -0.291659 -0.676834 0
M  V30 5917 H 569.66 -1.332 -1.35491 0
M  V30 5918 H 567.81 -0.854916 -3.78977 0
M  V30 5919 H 569.482 -3.3818 -3.13739 0
M  V30 5920 H 567.725 -3.22699 -2.8991 0
M  V30 5921 H 568.396 -3.15259 -4.53118 0
M  V30 5922 H 570.872 -1.3163 -3.94731 0
M  V30 5923 H 569.748 -1.3094 -5.33053 0
M  V30 5924 H 570.009 0.168525 -4.41779 0
M  V30 5925 N 569.068 1.32177 -0.85831 0
M  V30 5926 C 570.314 1.97417 -0.46417 0
M  V30 5927 C 570.647 1.67746 0.978514 0
M  V30 5928 O 569.922 0.967654 1.68721 0
M  V30 5929 C 570.205 3.53069 -0.708094 0
M  V30 5930 C 570.058 3.92357 -2.19946 0
M  V30 5931 C 571.377 4.39783 -0.166881 0
M  V30 5932 H 568.496 0.717097 -0.17012 0
M  V30 5933 H 571.138 1.56499 -1.07741 0
M  V30 5934 H 569.288 3.88054 -0.186128 0
M  V30 5935 H 570.96 3.67533 -2.78779 0
M  V30 5936 H 569.203 3.41384 -2.67656 0
M  V30 5937 H 569.874 5.00841 -2.32082 0
M  V30 5938 H 572.35 4.11556 -0.613285 0
M  V30 5939 H 571.226 5.47671 -0.367093 0
M  V30 5940 H 571.487 4.32196 0.930559 0
M  V30 5941 N 570.547 0.616602 1.45037 0
M  V30 5942 C 571.795 0.115103 2.01772 0
M  V30 5943 C 572.116 -1.2622 1.48639 0
M  V30 5944 O 571.386 -1.83563 0.684199 0
M  V30 5945 H 569.966 0.0395607 0.745952 0
M  V30 5946 H 572.628 0.800032 1.77723 0
M  V30 5947 H 571.724 0.0717274 3.12018 0
M  V30 5948 N 572.025 -1.5352 0.356285 0
M  V30 5949 C 573.271 -2.01414 -0.236653 0
M  V30 5950 C 573.604 -1.24339 -1.49176 0
M  V30 5951 O 572.879 -0.334496 -1.91602 0
M  V30 5952 C 573.162 -3.56059 -0.537982 0
M  V30 5953 C 573.015 -4.43835 0.730112 0
M  V30 5954 C 574.334 -4.19127 -1.34239 0
M  V30 5955 H 571.453 -0.732135 -0.0845386 0
M  V30 5956 H 574.095 -1.83854 0.479341 0
M  V30 5957 H 572.245 -3.71153 -1.14795 0
M  V30 5958 H 573.917 -4.40555 1.36782 0
M  V30 5959 H 572.16 -4.1218 1.3524 0
M  V30 5960 H 572.831 -5.49958 0.474358 0
M  V30 5961 H 575.307 -4.07809 -0.826498 0
M  V30 5962 H 574.183 -5.27378 -1.52198 0
M  V30 5963 H 574.444 -3.74581 -2.34822 0
M  V30 5964 N 573.503 -0.0852151 -1.57369 0
M  V30 5965 C 574.466 0.8627 -2.12344 0
M  V30 5966 C 575.466 1.21746 -1.05046 0
M  V30 5967 O 576.656 1.14852 -1.30976 0
M  V30 5968 C 573.788 2.1618 -2.63589 0
M  V30 5969 H 574.981 0.385511 -2.97412 0
M  V30 5970 H 572.534 0.163663 -1.55441 0
M  V30 5971 H 573.269 2.68406 -1.82013 0
M  V30 5972 H 573.054 1.91723 -3.4203 0
M  V30 5973 H 574.544 2.84011 -3.06149 0
M  V30 5974 N 574.981 1.5647 0.188427 0
M  V30 5975 C 576.392 1.70864 0.752494 0
M  V30 5976 C 576.743 0.692905 1.83557 0
M  V30 5977 O 575.868 -0.149307 2.15884 0
M  V30 5978 C 576.463 3.09789 1.37173 0
M  V30 5979 C 575.022 3.25925 1.88281 0
M  V30 5980 C 574.169 2.66817 0.755259 0
M  V30 5981 H 577.12 1.58657 -0.0367408 0
M  V30 5982 H 577.141 3.07489 2.24122 0
M  V30 5983 H 576.653 3.83693 0.583219 0
M  V30 5984 H 574.754 2.56948 2.6983 0
M  V30 5985 H 574.867 4.33498 2.04001 0
M  V30 5986 H 573.231 2.2617 1.17128 0
M  V30 5987 H 574.014 3.43294 -0.0211237 0
M  V30 5988 N 576.459 -0.456382 1.50847 0
M  V30 5989 C 577.687 -1.23026 1.66349 0
M  V30 5990 C 578.102 -1.85473 0.352868 0
M  V30 5991 O 577.459 -1.69885 -0.666739 0
M  V30 5992 C 577.51 -2.32827 2.76539 0
M  V30 5993 O 577.231 -1.72938 4.02522 0
M  V30 5994 C 578.732 -3.23448 3.03144 0
M  V30 5995 H 575.952 -0.371527 0.558756 0
M  V30 5996 H 578.496 -0.543082 1.97157 0
M  V30 5997 H 576.651 -2.97294 2.48384 0
M  V30 5998 H 577.065 -2.45357 4.63573 0
M  V30 5999 H 578.539 -3.96669 3.83872 0
M  V30 6000 H 579.016 -3.83094 2.14793 0
M  V30 6001 H 579.622 -2.64702 3.32886 0
M  V30 6002 N 577.937 -1.40673 -0.710563 0
M  V30 6003 C 579.185 -1.38947 -1.46759 0
M  V30 6004 C 579.506 0.00572879 -1.94999 0
M  V30 6005 O 578.776 0.961358 -1.70689 0
M  V30 6006 H 577.356 -0.5114 -0.544499 0
M  V30 6007 H 580.018 -1.75773 -0.842012 0
M  V30 6008 H 579.114 -2.06745 -2.33801 0
M  V30 6009 N 579.415 0.9433 -1.26252 0
M  V30 6010 C 580.664 1.68369 -1.11062 0
M  V30 6011 C 580.977 1.92514 0.346104 0
M  V30 6012 O 582.183 2.64358 0.618646 0
M  V30 6013 C 580.639 3.03171 -1.93946 0
M  V30 6014 C 580.247 2.86782 -3.4418 0
M  V30 6015 C 581.991 3.80916 -1.87359 0
M  V30 6016 C 579.898 4.17044 -4.19319 0
M  V30 6017 H 578.828 0.631469 -0.412023 0
M  V30 6018 H 581.479 1.04922 -1.50544 0
M  V30 6019 H 579.861 3.67587 -1.47296 0
M  V30 6020 H 581.035 2.31229 -3.98585 0
M  V30 6021 H 579.35 2.22482 -3.51981 0
M  V30 6022 H 581.947 4.77417 -2.40784 0
M  V30 6023 H 582.29 4.07658 -0.843857 0
M  V30 6024 H 582.823 3.2327 -2.31821 0
M  V30 6025 H 579.562 3.95487 -5.22753 0
M  V30 6026 H 579.082 4.72319 -3.69696 0
M  V30 6027 H 580.761 4.85513 -4.27651 0
M  V30 6028 N 580.893 1.08022 1.14757 0
M  V30 6029 C 582.304 0.829144 1.67279 0
M  V30 6030 C 582.655 -0.644721 1.85305 0
M  V30 6031 O 581.78 -1.49838 1.56133 0
M  V30 6032 C 582.375 1.49855 3.03857 0
M  V30 6033 C 580.934 1.29482 3.53428 0
M  V30 6034 C 580.081 1.56386 2.28995 0
M  V30 6035 H 583.032 1.24134 0.988762 0
M  V30 6036 H 583.053 0.923572 3.69121 0
M  V30 6037 H 582.565 2.57123 2.90705 0
M  V30 6038 H 580.666 0.242669 3.71809 0
M  V30 6039 H 580.779 2.01974 4.34446 0
M  V30 6040 H 579.143 0.985217 2.34874 0
M  V30 6041 H 579.926 2.64851 2.18423 0
M  V30 6042 N 582.371 -1.3172 0.865308 0
M  V30 6043 C 583.334 -2.26918 0.322627 0
M  V30 6044 C 584.334 -1.52031 -0.523751 0
M  V30 6045 O 585.524 -1.70973 -0.333727 0
M  V30 6046 C 582.656 -3.36558 -0.542338 0
M  V30 6047 H 583.849 -2.76432 1.16298 0
M  V30 6048 H 581.402 -1.42573 0.640512 0
M  V30 6049 H 582.137 -2.92329 -1.40407 0
M  V30 6050 H 581.922 -3.92048 0.0636395 0
M  V30 6051 H 583.412 -4.07465 -0.91446 0
M  V30 6052 N 583.85 -0.624285 -1.44708 0
M  V30 6053 C 584.812 0.0749638 -2.29077 0
M  V30 6054 C 585.812 0.778965 -1.40673 0
M  V30 6055 O 587.003 0.624591 -1.62618 0
M  V30 6056 C 584.135 1.11663 -3.22094 0
M  V30 6057 H 585.327 -0.667013 -2.92388 0
M  V30 6058 H 582.88 -0.384098 -1.51507 0
M  V30 6059 H 583.615 1.88881 -2.63618 0
M  V30 6060 H 583.401 0.61583 -3.87234 0
M  V30 6061 H 584.891 1.60585 -3.8549 0
M  V30 6062 N 585.328 1.53329 -0.364422 0
M  V30 6063 C 586.574 2.01537 0.225969 0
M  V30 6064 C 586.907 1.25128 1.48515 0
M  V30 6065 O 586.182 0.344653 1.91422 0
M  V30 6066 C 586.465 3.56339 0.519092 0
M  V30 6067 C 586.318 4.43441 -0.753639 0
M  V30 6068 C 587.637 4.19833 1.32015 0
M  V30 6069 H 584.756 0.732573 0.0806548 0
M  V30 6070 H 587.398 1.83597 -0.489084 0
M  V30 6071 H 585.548 3.71756 1.12825 0
M  V30 6072 H 587.22 4.39823 -1.39116 0
M  V30 6073 H 585.463 4.11457 -1.37424 0
M  V30 6074 H 586.134 5.49699 -0.503517 0
M  V30 6075 H 588.61 4.08242 0.804859 0
M  V30 6076 H 587.486 5.28177 1.49399 0
M  V30 6077 H 587.747 3.75821 2.32832 0
M  V30 6078 N 586.806 0.0935595 1.57322 0
M  V30 6079 C 587.716 -0.880192 2.17462 0
M  V30 6080 C 588.732 -1.31135 1.14366 0
M  V30 6081 O 589.908 -1.37958 1.46729 0
M  V30 6082 C 586.973 -2.12184 2.74188 0
M  V30 6083 C 586.034 -1.74503 3.92234 0
M  V30 6084 C 585.267 -2.92748 4.46245 0
M  V30 6085 O 585.49 -4.07427 3.99198 0
M  V30 6086 O 584.424 -2.71303 5.37288 0
M  V30 6087 H 588.25 -0.398516 3.01074 0
M  V30 6088 H 585.835 -0.130707 1.48827 0
M  V30 6089 H 587.717 -2.84953 3.10451 0
M  V30 6090 H 586.392 -2.59407 1.93623 0
M  V30 6091 H 585.299 -0.989186 3.60785 0
M  V30 6092 H 586.632 -1.32044 4.74157 0
M  V30 6093 N 588.284 -1.56567 -0.180126 0
M  V30 6094 C 589.532 -1.81133 -0.896392 0
M  V30 6095 C 589.853 -0.669114 -1.83161 0
M  V30 6096 O 589.123 0.311616 -1.93406 0
M  V30 6097 H 587.703 -0.668172 -0.333999 0
M  V30 6098 H 590.365 -1.94048 -0.182051 0
M  V30 6099 H 589.461 -2.74854 -1.47857 0
M  V30 6100 N 589.762 0.448376 -1.51087 0
M  V30 6101 C 591.011 1.19561 -1.62444 0
M  V30 6102 C 591.324 1.92602 -0.341151 0
M  V30 6103 O 592.53 2.69439 -0.333936 0
M  V30 6104 C 590.986 2.17373 -2.8684 0
M  V30 6105 C 590.594 1.5003 -4.22131 0
M  V30 6106 C 592.338 2.92597 -3.0755 0
M  V30 6107 C 590.245 2.46262 -5.37689 0
M  V30 6108 H 589.175 0.449975 -0.605011 0
M  V30 6109 H 591.826 0.463735 -1.77544 0
M  V30 6110 H 590.208 2.93948 -2.65349 0
M  V30 6111 H 591.382 0.790886 -4.53962 0
M  V30 6112 H 589.697 0.870011 -4.0721 0
M  V30 6113 H 592.294 3.64663 -3.91056 0
M  V30 6114 H 592.637 3.53306 -2.20183 0
M  V30 6115 H 593.17 2.23131 -3.29329 0
M  V30 6116 H 589.909 1.90258 -6.27281 0
M  V30 6117 H 589.429 3.15289 -5.10248 0
M  V30 6118 H 591.108 3.07623 -5.6919 0
M  V30 6119 N 591.24 1.41047 0.703093 0
M  V30 6120 C 592.486 1.40207 1.46526 0
M  V30 6121 C 592.819 0.00847763 1.94198 0
M  V30 6122 O 592.094 -0.962437 1.69019 0
M  V30 6123 C 592.377 2.40238 2.6825 0
M  V30 6124 C 592.23 3.88674 2.26391 0
M  V30 6125 C 593.549 2.37627 3.70434 0
M  V30 6126 H 590.668 0.510594 0.531472 0
M  V30 6127 H 593.31 1.72271 0.801422 0
M  V30 6128 H 591.46 2.13026 3.24888 0
M  V30 6129 H 593.132 4.2676 1.75138 0
M  V30 6130 H 591.375 4.03903 1.58255 0
M  V30 6131 H 592.046 4.542 3.13698 0
M  V30 6132 H 594.522 2.61759 3.23452 0
M  V30 6133 H 593.398 3.09645 4.53223 0
M  V30 6134 H 593.659 1.39223 4.19606 0
M  V30 6135 N 592.718 -0.936591 1.26751 0
M  V30 6136 C 594.129 -1.49816 1.1141 0
M  V30 6137 C 594.48 -1.9383 -0.304015 0
M  V30 6138 O 593.605 -1.80346 -1.196 0
M  V30 6139 C 594.2 -2.72271 2.01629 0
M  V30 6140 C 592.759 -3.2468 1.9042 0
M  V30 6141 C 591.906 -1.97444 1.94708 0
M  V30 6142 H 594.857 -0.751604 1.39773 0
M  V30 6143 H 594.878 -3.46741 1.56688 0
M  V30 6144 H 594.39 -2.40205 3.04833 0
M  V30 6145 H 592.491 -3.61525 0.901674 0
M  V30 6146 H 592.604 -3.91476 2.76195 0
M  V30 6147 H 590.968 -2.13545 1.38818 0
M  V30 6148 H 591.751 -1.67703 2.9955 0
M  V30 6149 N 594.196 -1.08629 -1.14182 0
M  V30 6150 C 595.421 -0.83902 -1.89671 0
M  V30 6151 C 595.846 0.603332 -1.78161 0
M  V30 6152 O 595.204 1.42301 -1.12339 0
M  V30 6153 C 595.252 -1.26854 -3.37551 0
M  V30 6154 O 594.356 -0.42188 -4.10236 0
M  V30 6155 H 593.697 -0.304545 -0.590041 0
M  V30 6156 H 596.227 -1.4483 -1.44518 0
M  V30 6157 H 596.237 -1.25038 -3.88368 0
M  V30 6158 H 594.912 -2.31901 -3.45246 0
M  V30 6159 H 593.489 -0.503654 -3.69483 0
M  V30 6160 N 595.674 1.31259 -0.872281 0
M  V30 6161 C 596.637 2.26744 -0.334656 0
M  V30 6162 C 597.637 1.52307 0.515681 0
M  V30 6163 O 598.827 1.71148 0.324656 0
M  V30 6164 C 595.959 3.36841 0.524482 0
M  V30 6165 H 597.152 2.75812 -1.17762 0
M  V30 6166 H 594.705 1.42232 -0.648064 0
M  V30 6167 H 595.44 2.93069 1.38855 0
M  V30 6168 H 595.225 3.92009 -0.0844299 0
M  V30 6169 H 596.715 4.07944 0.892838 0
M  V30 6170 N 597.152 0.631951 1.44375 0
M  V30 6171 C 598.085 -0.121822 2.27875 0
M  V30 6172 C 599.063 -0.850457 1.38586 0
M  V30 6173 O 600.247 -0.854378 1.68026 0
M  V30 6174 C 597.374 -1.17859 3.17533 0
M  V30 6175 C 596.42 -0.550391 4.22934 0
M  V30 6176 S 597.253 0.660145 5.31415 0
M  V30 6177 C 598.409 -0.396613 6.24642 0
M  V30 6178 H 598.642 0.586537 2.91457 0
M  V30 6179 H 596.175 0.420146 1.48574 0
M  V30 6180 H 598.133 -1.78335 3.69739 0
M  V30 6181 H 596.794 -1.85915 2.53169 0
M  V30 6182 H 595.987 -1.34631 4.85685 0
M  V30 6183 H 595.589 -0.0202306 3.73995 0
M  V30 6184 H 597.881 -1.26893 6.65511 0
M  V30 6185 H 598.824 0.195345 7.0783 0
M  V30 6186 H 599.232 -0.72288 5.59852 0
M  V30 6187 N 598.631 -1.53133 0.372548 0
M  V30 6188 C 599.856 -2.0625 -0.218098 0
M  V30 6189 C 600.281 -1.24375 -1.41111 0
M  V30 6190 O 599.639 -0.264554 -1.79359 0
M  V30 6191 C 599.687 -3.55858 -0.582876 0
M  V30 6192 O 598.791 -3.76667 -1.67917 0
M  V30 6193 H 598.132 -0.663317 -0.030104 0
M  V30 6194 H 600.662 -1.97477 0.535169 0
M  V30 6195 H 600.672 -3.99007 -0.851925 0
M  V30 6196 H 599.347 -4.14892 0.289428 0
M  V30 6197 H 597.924 -3.45413 -1.40513 0
M  V30 6198 N 600.109 -0.101901 -1.5727 0
M  V30 6199 C 601.039 0.851544 -2.17419 0
M  V30 6200 C 602.02 1.28942 -1.10941 0
M  V30 6201 O 603.205 1.35509 -1.39107 0
M  V30 6202 C 600.335 2.10816 -2.75996 0
M  V30 6203 C 599.289 1.80867 -3.87906 0
M  V30 6204 C 598.615 3.13413 -4.33216 0
M  V30 6205 C 599.915 1.0903 -5.10793 0
M  V30 6206 H 601.609 0.350381 -2.97343 0
M  V30 6207 H 599.155 0.16709 -1.43027 0
M  V30 6208 H 601.108 2.77959 -3.16729 0
M  V30 6209 H 599.832 2.63227 -1.93337 0
M  V30 6210 H 598.491 1.16119 -3.47724 0
M  V30 6211 H 598.139 3.63725 -3.47438 0
M  V30 6212 H 597.839 2.94155 -5.08671 0
M  V30 6213 H 599.363 3.81704 -4.76586 0
M  V30 6214 H 600.777 1.66295 -5.48652 0
M  V30 6215 H 599.174 0.99927 -5.91722 0
M  V30 6216 H 600.244 0.0741704 -4.84843 0
M  V30 6217 N 601.587 1.56661 0.17182 0
M  V30 6218 C 602.812 1.86459 0.908165 0
M  V30 6219 C 603.237 0.688181 1.75059 0
M  V30 6220 O 602.595 -0.362753 1.77634 0
M  V30 6221 C 602.643 3.14669 1.76112 0
M  V30 6222 O 601.747 2.96858 2.86268 0
M  V30 6223 H 601.088 0.613318 0.254434 0
M  V30 6224 H 603.618 2.03892 0.170113 0
M  V30 6225 H 603.628 3.46061 2.16115 0
M  V30 6226 H 602.303 3.99905 1.14233 0
M  V30 6227 H 600.88 2.76819 2.49852 0
M  V30 6228 N 603.065 -0.440357 1.51323 0
M  V30 6229 C 604.015 -1.53263 1.68803 0
M  V30 6230 C 604.999 -1.51494 0.542057 0
M  V30 6231 O 606.191 -1.57999 0.797839 0
M  V30 6232 C 603.32 -2.91479 1.8137 0
M  V30 6233 C 602.406 -2.98015 3.01742 0
M  V30 6234 N 602.797 -2.743 4.24962 0
M  V30 6235 C 601.095 -3.29173 3.00934 0
M  V30 6236 C 601.796 -2.86601 5.06197 0
M  V30 6237 N 600.772 -3.1814 4.40781 0
M  V30 6238 H 604.574 -1.33675 2.61741 0
M  V30 6239 H 602.088 -0.647616 1.48929 0
M  V30 6240 H 604.085 -3.70055 1.92002 0
M  V30 6241 H 602.745 -3.12089 0.896117 0
M  V30 6242 H 603.756 -2.49287 4.53957 0
M  V30 6243 H 600.433 -3.55577 2.18796 0
M  V30 6244 H 601.823 -2.72246 6.14274 0
M  V30 6245 N 604.543 -1.41418 -0.695603 0
M  V30 6246 C 605.791 -1.40496 -1.45277 0
M  V30 6247 C 606.112 -0.0149538 -1.94994 0
M  V30 6248 O 605.382 0.9432 -1.71699 0
M  V30 6249 H 603.962 -0.517147 -0.539044 0
M  V30 6250 H 606.624 -1.76656 -0.823321 0
M  V30 6251 H 605.72 -2.09214 -2.31595 0
M  V30 6252 N 606.021 0.929856 -1.27246 0
M  V30 6253 C 606.951 2.04722 -1.12299 0
M  V30 6254 C 607.932 1.70082 -0.0250464 0
M  V30 6255 O 609.117 1.93176 -0.199141 0
M  V30 6256 C 606.247 3.38721 -0.767145 0
M  V30 6257 C 605.201 3.87466 -1.81808 0
M  V30 6258 C 604.527 5.18246 -1.31626 0
M  V30 6259 C 605.827 4.11095 -3.22177 0
M  V30 6260 H 607.521 2.17485 -2.05769 0
M  V30 6261 H 605.067 1.04503 -0.990715 0
M  V30 6262 H 607.02 4.16366 -0.649413 0
M  V30 6263 H 605.744 3.25967 0.203259 0
M  V30 6264 H 604.403 3.12012 -1.92468 0
M  V30 6265 H 604.051 5.01881 -0.335378 0
M  V30 6266 H 603.751 5.51829 -2.01887 0
M  V30 6267 H 605.275 5.98462 -1.21143 0
M  V30 6268 H 606.689 4.79316 -3.1453 0
M  V30 6269 H 605.086 4.55982 -3.90129 0
M  V30 6270 H 606.156 3.16468 -3.67391 0
M  V30 6271 N 607.499 1.09233 1.13605 0
M  V30 6272 C 608.91 0.846839 1.6639 0
M  V30 6273 C 609.261 -0.625031 1.85978 0
M  V30 6274 O 608.386 -1.48173 1.57714 0
M  V30 6275 C 608.981 1.5307 3.0225 0
M  V30 6276 C 607.54 1.33223 3.52035 0
M  V30 6277 C 606.687 1.58806 2.27323 0
M  V30 6278 H 609.638 1.25175 0.975541 0
M  V30 6279 H 609.659 0.96267 3.68121 0
M  V30 6280 H 609.171 2.60192 2.87961 0
M  V30 6281 H 607.272 0.282091 3.71531 0
M  V30 6282 H 607.385 2.0657 4.32279 0
M  V30 6283 H 605.749 1.01007 2.33815 0
M  V30 6284 H 606.532 2.67153 2.15602 0
M  V30 6285 N 608.977 -1.30795 0.87923 0
M  V30 6286 C 610.388 -1.78535 0.546093 0
M  V30 6287 C 610.739 -1.72354 -0.937467 0
M  V30 6288 O 609.864 -1.2969 -1.73233 0
M  V30 6289 C 610.459 -3.24181 0.9845 0
M  V30 6290 C 609.018 -3.69779 0.702871 0
M  V30 6291 C 608.165 -2.51377 1.17068 0
M  V30 6292 H 611.116 -1.17746 1.06403 0
M  V30 6293 H 611.137 -3.79227 0.311045 0
M  V30 6294 H 610.649 -3.28647 2.06429 0
M  V30 6295 H 608.75 -3.70806 -0.365166 0
M  V30 6296 H 608.863 -4.61507 1.28639 0
M  V30 6297 H 607.227 -2.47768 0.590172 0
M  V30 6298 H 608.01 -2.58584 2.25808 0
M  V30 6299 N 610.455 -0.639598 -1.44038 0
M  V30 6300 C 611.701 -0.147698 -2.02261 0
M  V30 6301 C 612.034 1.23031 -1.50256 0
M  V30 6302 O 611.309 1.81847 -0.690068 0
M  V30 6303 C 611.592 -0.14362 -3.59813 0
M  V30 6304 C 611.445 -1.55458 -4.22082 0
M  V30 6305 C 612.764 0.527317 -4.36929 0
M  V30 6306 H 609.883 -0.0551453 -0.734934 0
M  V30 6307 H 612.525 -0.817688 -1.71505 0
M  V30 6308 H 610.675 0.426898 -3.86147 0
M  V30 6309 H 612.347 -2.17464 -4.06826 0
M  V30 6310 H 610.59 -2.10594 -3.79253 0
M  V30 6311 H 611.261 -1.50369 -5.31124 0
M  V30 6312 H 613.737 0.0420504 -4.16079 0
M  V30 6313 H 612.613 0.499389 -5.46624 0
M  V30 6314 H 612.874 1.59914 -4.12165 0
M  V30 6315 N 611.933 1.52934 -0.380664 0
M  V30 6316 C 612.896 2.24809 0.446473 0
M  V30 6317 C 613.896 1.26133 0.997347 0
M  V30 6318 O 615.086 1.50297 0.880714 0
M  V30 6319 C 612.218 2.99649 1.62553 0
M  V30 6320 H 613.411 2.99343 -0.182677 0
M  V30 6321 H 610.964 1.55736 -0.132618 0
M  V30 6322 H 611.699 2.29395 2.29235 0
M  V30 6323 H 611.484 3.72066 1.23732 0
M  V30 6324 H 612.974 3.54246 2.21133 0
M  V30 6325 N 613.412 0.11024 1.57214 0
M  V30 6326 C 614.362 -0.854147 2.11396 0
M  V30 6327 C 615.346 -1.23394 1.03261 0
M  V30 6328 O 616.538 -1.20649 1.2951 0
M  V30 6329 C 613.667 -2.10752 2.70995 0
M  V30 6330 C 612.753 -1.75249 3.86198 0
M  V30 6331 N 613.144 -1.10377 4.9361 0
M  V30 6332 C 611.442 -2.04763 3.96217 0
M  V30 6333 C 612.143 -0.938199 5.74084 0
M  V30 6334 N 611.119 -1.46039 5.23616 0
M  V30 6335 H 614.921 -0.348897 2.91822 0
M  V30 6336 H 612.435 -0.0925071 1.62136 0
M  V30 6337 H 614.432 -2.80801 3.0815 0
M  V30 6338 H 613.092 -2.61829 1.9203 0
M  V30 6339 H 614.103 -0.768785 5.12162 0
M  V30 6340 H 610.78 -2.57948 3.28282 0
M  V30 6341 H 612.17 -0.429678 6.70525 0
M  V30 6342 N 614.89 -1.56749 -0.16351 0
M  V30 6343 C 616.301 -1.72039 -0.725216 0
M  V30 6344 C 616.652 -0.72202 -1.82432 0
M  V30 6345 O 615.777 0.114942 -2.16095 0
M  V30 6346 C 616.372 -3.11932 -1.32227 0
M  V30 6347 C 614.931 -3.28879 -1.83072 0
M  V30 6348 C 614.078 -2.67984 -0.712716 0
M  V30 6349 H 617.029 -1.58579 0.0619772 0
M  V30 6350 H 617.05 -3.11015 -2.19202 0
M  V30 6351 H 616.562 -3.84572 -0.522103 0
M  V30 6352 H 614.663 -2.61209 -2.65708 0
M  V30 6353 H 614.776 -4.36688 -1.97079 0
M  V30 6354 H 613.14 -2.28005 -1.13515 0
M  V30 6355 H 613.923 -3.43216 0.0757361 0
M  V30 6356 N 616.368 0.432326 -1.51554 0
M  V30 6357 C 617.779 1.01202 -1.56892 0
M  V30 6358 C 618.13 1.92175 -0.395394 0
M  V30 6359 O 617.255 2.10844 0.487198 0
M  V30 6360 C 617.85 1.84217 -2.8434 0
M  V30 6361 C 616.409 2.37228 -2.92233 0
M  V30 6362 C 615.556 1.16576 -2.51606 0
M  V30 6363 H 618.507 0.213407 -1.57259 0
M  V30 6364 H 618.528 2.69721 -2.68385 0
M  V30 6365 H 618.04 1.17979 -3.69733 0
M  V30 6366 H 616.141 3.06905 -2.11282 0
M  V30 6367 H 616.254 2.69682 -3.95991 0
M  V30 6368 H 614.618 1.51263 -2.04919 0
M  V30 6369 H 615.401 0.519404 -3.39348 0
M  V30 6370 N 617.846 1.41785 0.688094 0
M  V30 6371 C 618.796 1.40684 1.79421 0
M  V30 6372 C 619.78 0.280096 1.58443 0
M  V30 6373 O 620.972 0.521332 1.69148 0
M  V30 6374 C 618.101 1.29874 3.17785 0
M  V30 6375 C 617.187 2.47442 3.44432 0
M  V30 6376 N 617.578 3.72895 3.41736 0
M  V30 6377 C 615.876 2.41416 3.75013 0
M  V30 6378 C 616.577 4.50912 3.67496 0
M  V30 6379 N 615.553 3.81131 3.87608 0
M  V30 6380 H 619.355 2.35591 1.7571 0
M  V30 6381 H 616.869 1.35946 0.888393 0
M  V30 6382 H 618.866 1.27168 3.97031 0
M  V30 6383 H 617.526 0.359587 3.22703 0
M  V30 6384 H 618.537 4.05676 3.21943 0
M  V30 6385 H 615.214 1.56011 3.87256 0
M  V30 6386 H 616.604 5.59865 3.71484 0
M  V30 6387 N 619.324 -0.923095 1.27737 0
M  V30 6388 C 620.287 -2.00587 1.10894 0
M  V30 6389 C 621.287 -1.60718 0.0514927 0
M  V30 6390 O 622.477 -1.71658 0.296481 0
M  V30 6391 C 619.609 -3.33829 0.690717 0
M  V30 6392 H 620.802 -2.16959 2.07048 0
M  V30 6393 H 618.355 -1.10451 1.1059 0
M  V30 6394 H 619.09 -3.23157 -0.272 0
M  V30 6395 H 618.875 -3.64125 1.45448 0
M  V30 6396 H 620.365 -4.13336 0.595252 0
M  V30 6397 N 620.802 -1.09834 -1.13024 0
M  V30 6398 C 622.213 -0.855651 -1.65938 0
M  V30 6399 C 622.564 0.615159 -1.86307 0
M  V30 6400 O 621.689 1.47335 -1.58497 0
M  V30 6401 C 622.284 -1.5467 -3.01434 0
M  V30 6402 C 620.843 -1.35088 -3.51323 0
M  V30 6403 C 619.99 -1.6001 -2.26478 0
M  V30 6404 H 622.941 -1.25691 -0.968889 0
M  V30 6405 H 622.962 -0.982179 -3.67605 0
M  V30 6406 H 622.474 -2.61715 -2.86578 0
M  V30 6407 H 620.575 -0.30179 -3.71376 0
M  V30 6408 H 620.688 -2.0886 -4.31178 0
M  V30 6409 H 619.052 -1.02246 -2.33276 0
M  V30 6410 H 619.835 -2.68293 -2.14182 0
M  V30 6411 N 622.28 1.30327 -0.886154 0
M  V30 6412 C 623.505 2.0079 -0.519425 0
M  V30 6413 C 623.93 1.65979 0.885013 0
M  V30 6414 O 623.288 0.877043 1.58675 0
M  V30 6415 C 623.336 3.53686 -0.702758 0
M  V30 6416 O 622.44 4.11637 0.250828 0
M  V30 6417 H 621.781 0.63171 -0.204544 0
M  V30 6418 H 624.311 1.66145 -1.19402 0
M  V30 6419 H 624.321 4.03531 -0.602207 0
M  V30 6420 H 622.996 3.78361 -1.72673 0
M  V30 6421 H 621.573 3.72755 0.103873 0
M  V30 6422 N 623.758 0.647228 1.43697 0
M  V30 6423 C 625.169 0.238689 1.85168 0
M  V30 6424 C 625.52 -1.21345 1.54175 0
M  V30 6425 O 624.645 -1.92542 0.987743 0
M  V30 6426 C 625.24 0.426422 3.36106 0
M  V30 6427 C 623.799 0.0722541 3.76331 0
M  V30 6428 C 622.946 0.732153 2.6746 0
M  V30 6429 H 625.897 0.851309 1.33934 0
M  V30 6430 H 625.918 -0.32987 3.79067 0
M  V30 6431 H 625.43 1.48339 3.58632 0
M  V30 6432 H 623.531 -0.982355 3.59417 0
M  V30 6433 H 623.644 0.493541 4.76551 0
M  V30 6434 H 622.008 0.16594 2.54159 0
M  V30 6435 H 622.791 1.79204 2.92816 0
M  V30 6436 N 625.236 -1.5273 0.388769 0
M  V30 6437 C 626.484 -2.01174 -0.193208 0
M  V30 6438 C 626.805 -1.27705 -1.47365 0
M  V30 6439 O 626.075 -0.396966 -1.91836 0
M  V30 6440 H 624.655 -0.743287 -0.0743871 0
M  V30 6441 H 627.317 -1.87826 0.520336 0
M  V30 6442 H 626.413 -3.09477 -0.403803 0
M  V30 6443 N 626.714 -0.118576 -1.57153 0
M  V30 6444 C 627.646 0.862247 -2.12363 0
M  V30 6445 C 628.659 1.23025 -1.06625 0
M  V30 6446 O 629.848 1.17927 -1.33998 0
M  V30 6447 C 626.948 2.16425 -2.60794 0
M  V30 6448 C 626.121 1.96801 -3.90626 0
M  V30 6449 C 625.18 3.10726 -4.2466 0
M  V30 6450 O 624.206 2.83659 -4.93484 0
M  V30 6451 N 625.408 4.37147 -3.81946 0
M  V30 6452 H 628.173 0.390564 -2.97144 0
M  V30 6453 H 625.734 0.0658591 -1.61766 0
M  V30 6454 H 627.726 2.91633 -2.80593 0
M  V30 6455 H 626.296 2.54943 -1.80895 0
M  V30 6456 H 625.516 1.05787 -3.7974 0
M  V30 6457 H 626.804 1.80993 -4.7552 0
M  V30 6458 H 626.202 4.62014 -3.26435 0
M  V30 6459 H 624.759 5.09229 -4.06853 0
M  V30 6460 N 628.193 1.56834 0.155195 0
M  V30 6461 C 629.421 1.87049 0.884326 0
M  V30 6462 C 629.836 0.705839 1.7511 0
M  V30 6463 O 629.193 -0.324641 1.79589 0
M  V30 6464 C 629.244 3.1644 1.74781 0
M  V30 6465 O 628.965 4.28417 0.915978 0
M  V30 6466 C 630.466 3.60113 2.58522 0
M  V30 6467 H 627.686 0.620196 0.25612 0
M  V30 6468 H 630.23 2.03946 0.150445 0
M  V30 6469 H 628.385 3.01321 2.43484 0
M  V30 6470 H 628.799 5.02353 1.50803 0
M  V30 6471 H 630.273 4.53508 3.14698 0
M  V30 6472 H 630.75 2.85005 3.34169 0
M  V30 6473 H 631.356 3.77898 1.95124 0
M  V30 6474 N 629.671 -0.424282 1.51781 0
M  V30 6475 C 630.917 -1.17434 1.6534 0
M  V30 6476 C 631.25 -1.90549 0.374806 0
M  V30 6477 O 630.525 -1.84145 -0.626179 0
M  V30 6478 C 630.808 -2.18093 2.86544 0
M  V30 6479 C 630.661 -1.48975 4.24413 0
M  V30 6480 C 631.98 -3.18934 3.03264 0
M  V30 6481 H 629.099 -0.425566 0.601716 0
M  V30 6482 H 631.741 -0.461921 1.84299 0
M  V30 6483 H 629.891 -2.78849 2.7051 0
M  V30 6484 H 631.563 -0.914551 4.52143 0
M  V30 6485 H 629.806 -0.791893 4.26511 0
M  V30 6486 H 630.477 -2.22347 5.05238 0
M  V30 6487 H 632.953 -2.68243 3.18096 0
M  V30 6488 H 631.829 -3.86645 3.89611 0
M  V30 6489 H 632.09 -3.85793 2.15908 0
M  V30 6490 N 631.149 -1.42148 -0.680565 0
M  V30 6491 C 632.096 -1.45175 -1.79424 0
M  V30 6492 C 633.066 -0.304352 -1.63288 0
M  V30 6493 O 634.251 -0.507591 -1.83924 0
M  V30 6494 C 631.391 -1.35429 -3.17416 0
M  V30 6495 C 630.504 -2.60158 -3.4488 0
M  V30 6496 C 629.639 -2.42596 -4.72568 0
M  V30 6497 C 628.678 -3.62727 -4.93047 0
M  V30 6498 N 627.815 -3.44143 -6.11973 0
M  V30 6499 H 632.655 -2.40349 -1.76172 0
M  V30 6500 H 630.192 -1.19334 -0.860107 0
M  V30 6501 H 632.15 -1.27777 -3.97151 0
M  V30 6502 H 630.78 -0.438536 -3.19807 0
M  V30 6503 H 629.832 -2.78199 -2.5944 0
M  V30 6504 H 631.144 -3.49473 -3.55908 0
M  V30 6505 H 630.298 -2.32497 -5.60384 0
M  V30 6506 H 629.037 -1.50761 -4.63813 0
M  V30 6507 H 628.042 -3.73264 -4.03676 0
M  V30 6508 H 629.267 -4.55534 -5.03652 0
M  V30 6509 H 627.213 -2.5502 -6.04401 0
M  V30 6510 H 627.13 -4.27041 -6.23836 0
M  V30 6511 H 628.398 -3.37845 -7.02482 0
M  V30 6512 N 632.627 0.916307 -1.28225 0
M  V30 6513 C 634.038 1.48024 -1.13779 0
M  V30 6514 C 634.389 1.94289 0.273139 0
M  V30 6515 O 633.514 1.82226 1.16716 0
M  V30 6516 C 634.109 2.69029 -2.05935 0
M  V30 6517 C 632.668 3.2161 -1.95561 0
M  V30 6518 C 631.815 1.94321 -1.97825 0
M  V30 6519 H 634.766 0.729272 -1.40951 0
M  V30 6520 H 634.787 3.44204 -1.62184 0
M  V30 6521 H 634.299 2.35325 -3.08616 0
M  V30 6522 H 632.4 3.60045 -0.959076 0
M  V30 6523 H 632.513 3.87032 -2.82388 0
M  V30 6524 H 630.877 2.1131 -1.42198 0
M  V30 6525 H 631.66 1.62917 -3.0218 0
M  V30 6526 N 634.105 1.10431 1.1244 0
M  V30 6527 C 635.015 0.765502 2.21759 0
M  V30 6528 C 636.031 -0.236966 1.72379 0
M  V30 6529 O 637.207 -0.0757329 2.01258 0
M  V30 6530 C 634.272 0.202316 3.46109 0
M  V30 6531 C 633.333 1.26205 4.1033 0
M  V30 6532 C 632.566 0.725648 5.28744 0
M  V30 6533 O 632.789 -0.447942 5.68638 0
M  V30 6534 O 631.723 1.48555 5.83279 0
M  V30 6535 H 635.549 1.67801 2.53133 0
M  V30 6536 H 633.134 0.879443 1.20773 0
M  V30 6537 H 635.016 -0.107918 4.21262 0
M  V30 6538 H 633.691 -0.683052 3.16411 0
M  V30 6539 H 632.598 1.62514 3.36957 0
M  V30 6540 H 633.931 2.12044 4.44183 0
M  V30 6541 N 635.583 -1.29855 0.893053 0
M  V30 6542 C 636.546 -2.26183 0.370687 0
M  V30 6543 C 637.546 -1.53108 -0.491385 0
M  V30 6544 O 638.736 -1.71643 -0.297386 0
M  V30 6545 C 635.868 -3.37633 -0.470827 0
M  V30 6546 H 637.061 -2.73903 1.22135 0
M  V30 6547 H 634.614 -1.41183 0.67061 0
M  V30 6548 H 635.349 -2.95241 -1.34175 0
M  V30 6549 H 635.134 -3.91825 0.146784 0
M  V30 6550 H 636.624 -4.09313 -0.827825 0
M  V30 6551 N 637.061 -0.65484 -1.43351 0
M  V30 6552 C 638.338 -0.0987371 -1.95351 0
M  V30 6553 C 638.718 1.38161 -1.59608 0
M  V30 6554 O 638.066 2.10791 -0.882021 0
M  V30 6555 C 638.276 -0.346684 -3.47274 0
M  V30 6556 C 639.624 -0.25249 -4.23849 0
M  V30 6557 O 640.648 -0.279332 -3.55103 0
M  V30 6558 O 639.507 -0.177584 -5.46211 0
M  V30 6559 H 636.601 0.0086829 -0.826954 0
M  V30 6560 H 639.147 -0.728189 -1.53282 0
M  V30 6561 H 637.919 -1.37296 -3.66423 0
M  V30 6562 H 637.542 0.315757 -3.96344 0
M  V30 6563 N 638.539 1.52521 -0.396863 0
M  V30 6564 C 639.955 1.5953 -0.0471659 0
M  V30 6565 C 640.155 1.41044 1.43906 0
M  V30 6566 O 639.211 1.23122 2.20448 0
M  V30 6567 C 640.524 2.95972 -0.531113 0
M  V30 6568 C 642.072 3.09172 -0.488024 0
M  V30 6569 C 642.547 4.48075 -0.948281 0
M  V30 6570 N 644.038 4.54281 -0.9046 0
M  V30 6571 C 644.773 5.60007 -1.23205 0
M  V30 6572 N 644.269 6.73343 -1.63036 0
M  V30 6573 N 646.062 5.50151 -1.15282 0
M  V30 6574 H 638.213 1.62786 -1.36435 0
M  V30 6575 H 640.476 0.76514 -0.559701 0
M  V30 6576 H 640.182 3.14741 -1.56942 0
M  V30 6577 H 640.056 3.77143 0.0657922 0
M  V30 6578 H 642.443 2.90095 0.541211 0
M  V30 6579 H 642.524 2.29937 -1.12083 0
M  V30 6580 H 642.168 4.67894 -1.97578 0
M  V30 6581 H 642.098 5.25788 -0.292412 0
M  V30 6582 H 644.589 3.72918 -0.6116 0
M  V30 6583 H 644.902 7.49992 -1.86365 0
M  V30 6584 H 643.247 6.74655 -1.66929 0
M  V30 6585 H 646.438 4.6049 -0.840602 0
M  V30 6586 H 646.611 6.32444 -1.41133 0
M  V30 6587 N 640.017 0.126909 1.57088 0
M  V30 6588 C 641.294 -0.573152 1.87014 0
M  V30 6589 C 641.674 -1.84297 1.02945 0
M  V30 6590 O 641.022 -2.28232 0.110573 0
M  V30 6591 C 641.232 -0.857984 3.38289 0
M  V30 6592 C 642.58 -1.20759 4.07066 0
M  V30 6593 O 643.604 -0.947992 3.43353 0
M  V30 6594 O 642.463 -1.69516 5.19545 0
M  V30 6595 H 639.557 -0.290082 0.774456 0
M  V30 6596 H 642.103 0.162008 1.68925 0
M  V30 6597 H 640.875 0.0415286 3.91278 0
M  V30 6598 H 640.498 -1.64803 3.61837 0
M  V30 6599 N 641.495 -1.56914 -0.146875 0
M  V30 6600 C 642.445 -1.94693 -1.18653 0
M  V30 6601 C 643.429 -0.81821 -1.38543 0
M  V30 6602 O 644.621 -1.08167 -1.40103 0
M  V30 6603 C 641.75 -2.33117 -2.52014 0
M  V30 6604 C 640.836 -3.5256 -2.35717 0
M  V30 6605 N 641.227 -4.69091 -1.89175 0
M  V30 6606 C 639.525 -3.57647 -2.66467 0
M  V30 6607 C 640.226 -5.51187 -1.85924 0
M  V30 6608 N 639.202 -4.92899 -2.29242 0
M  V30 6609 H 643.004 -2.82264 -0.81879 0
M  V30 6610 H 640.518 -1.58474 -0.354929 0
M  V30 6611 H 642.515 -2.58387 -3.27172 0
M  V30 6612 H 641.175 -1.46898 -2.89571 0
M  V30 6613 H 642.186 -4.92844 -1.59139 0
M  V30 6614 H 638.863 -2.81967 -3.07898 0
M  V30 6615 H 640.253 -6.54613 -1.51431 0
M  V30 6616 N 642.974 0.416227 -1.52004 0
M  V30 6617 C 643.937 1.48926 -1.74223 0
M  V30 6618 C 644.937 1.48693 -0.612119 0
M  V30 6619 O 646.127 1.50343 -0.879921 0
M  V30 6620 C 643.259 2.88372 -1.81809 0
M  V30 6621 H 644.452 1.3052 -2.70008 0
M  V30 6622 H 642.005 0.646271 -1.42313 0
M  V30 6623 H 642.74 3.12157 -0.879135 0
M  V30 6624 H 642.525 2.89944 -2.6396 0
M  V30 6625 H 644.015 3.66173 -2.00766 0
M  V30 6626 N 644.452 1.42507 0.673017 0
M  V30 6627 C 645.677 1.4668 1.46627 0
M  V30 6628 C 646.102 0.080066 1.8793 0
M  V30 6629 O 645.46 -0.921879 1.56112 0
M  V30 6630 C 645.508 2.40091 2.69051 0
M  V30 6631 O 644.612 1.8735 3.67387 0
M  V30 6632 H 643.953 0.496908 0.44043 0
M  V30 6633 H 646.483 1.87215 0.825334 0
M  V30 6634 H 646.493 2.56731 3.17101 0
M  V30 6635 H 645.168 3.4084 2.3833 0
M  V30 6636 H 643.745 1.80274 3.26429 0
M  V30 6637 N 645.93 -0.909495 1.28709 0
M  V30 6638 C 647.207 -1.63865 1.06806 0
M  V30 6639 C 647.587 -2.07445 -0.391143 0
M  V30 6640 O 646.935 -1.82269 -1.37805 0
M  V30 6641 C 647.145 -2.82692 2.04661 0
M  V30 6642 C 648.493 -3.5361 2.35042 0
M  V30 6643 O 649.517 -2.92847 2.02779 0
M  V30 6644 O 648.376 -4.63131 2.90124 0
M  V30 6645 H 645.47 -0.719065 0.408502 0
M  V30 6646 H 648.016 -0.958424 1.40044 0
M  V30 6647 H 646.788 -2.47614 3.0299 0
M  V30 6648 H 646.411 -3.58426 1.72095 0
M  V30 6649 N 647.408 -1.11026 -1.11852 0
M  V30 6650 C 648.34 -0.72249 -2.17515 0
M  V30 6651 C 649.353 0.243782 -1.60964 0
M  V30 6652 O 650.542 0.0273252 -1.78479 0
M  V30 6653 C 647.642 -0.0463979 -3.38868 0
M  V30 6654 C 646.815 -1.0384 -4.24895 0
M  V30 6655 C 645.874 -0.392659 -5.24733 0
M  V30 6656 O 644.9 -1.0453 -5.5952 0
M  V30 6657 N 646.102 0.846296 -5.74298 0
M  V30 6658 H 648.867 -1.63161 -2.51393 0
M  V30 6659 H 646.428 -0.999899 -1.27333 0
M  V30 6660 H 648.42 0.397215 -4.02746 0
M  V30 6661 H 646.99 0.765231 -3.03089 0
M  V30 6662 H 646.21 -1.6601 -3.57539 0
M  V30 6663 H 647.498 -1.70968 -4.79215 0
M  V30 6664 H 646.896 1.39578 -5.4821 0
M  V30 6665 H 645.453 1.23296 -6.40032 0
M  V30 6666 N 648.886 1.2938 -0.899927 0
M  V30 6667 C 649.816 2.30144 -0.39446 0
M  V30 6668 C 650.797 1.61611 0.530639 0
M  V30 6669 O 651.982 1.89119 0.441319 0
M  V30 6670 C 649.112 3.45229 0.37868 0
M  V30 6671 C 648.066 4.25564 -0.456012 0
M  V30 6672 C 647.392 5.32848 0.444637 0
M  V30 6673 C 648.692 4.93651 -1.70605 0
M  V30 6674 H 650.386 2.72673 -1.23653 0
M  V30 6675 H 647.932 1.31086 -0.596034 0
M  V30 6676 H 649.885 4.14797 0.743037 0
M  V30 6677 H 648.609 3.01545 1.25453 0
M  V30 6678 H 647.268 3.57704 -0.802704 0
M  V30 6679 H 646.916 4.85408 1.31863 0
M  V30 6680 H 646.616 5.87497 -0.110154 0
M  V30 6681 H 648.14 6.05268 0.805182 0
M  V30 6682 H 649.554 5.55655 -1.41141 0
M  V30 6683 H 647.951 5.58233 -2.20217 0
M  V30 6684 H 649.021 4.18926 -2.4419 0
M  V30 6685 O 650.403 0.801822 1.40189 0
M  V30 6686 H 651.094 0.376359 1.90008 0
M  V30 END ATOM
M  V30 BEGIN BOND
M  V30 END BOND
M  V30 END CTAB
M  END
$$$$
