drugbank_target|P46828 Catabolite control protein A (DB02283)
 OpenBabel12092119553D

  0  0  0     0  0            999 V3000
M  V30 BEGIN CTAB
M  V30 COUNTS 5177 5215 0 0 0
M  V30 BEGIN ATOM
M  V30 1 H -0.908 1.98254 -0.117106 0
M  V30 2 N 0 1.576 0 0
M  V30 3 C 0.933 2.03868 1.02534 0
M  V30 4 C 1.911 0.928543 1.3348 0
M  V30 5 O 3.095 1.19667 1.45644 0
M  V30 6 C 0.222 2.43627 2.35294 0
M  V30 7 C -0.732 3.65373 2.2001 0
M  V30 8 S 0.101 5.13292 1.52614 0
M  V30 9 C 1.257 5.56322 2.86805 0
M  V30 10 H 1.49 2.90518 0.631377 0
M  V30 11 H -0.977 1.52953 0.210867 0
M  V30 12 H 0.981 2.67203 3.11629 0
M  V30 13 H -0.358 1.57376 2.7183 0
M  V30 14 H -1.165 3.90944 3.18086 0
M  V30 15 H -1.563 3.418 1.51819 0
M  V30 16 H 0.729 5.58782 3.83104 0
M  V30 17 H 1.672 6.56266 2.65933 0
M  V30 18 H 2.08 4.83886 2.90714 0
M  V30 19 N 1.4781 -0.272755 1.55222 0
M  V30 20 C 2.4261 -1.35705 1.88909 0
M  V30 21 C 3.4201 -1.5112 0.765456 0
M  V30 22 O 4.6261 -1.52901 0.949802 0
M  V30 23 H 1.0011 -0.453868 0.59959 0
M  V30 24 H 2.9721 -1.04544 2.79487 0
M  V30 25 C 1.7211 -2.71049 2.17779 0
M  V30 26 H 1.0441 -2.59979 3.03728 0
M  V30 27 H 2.4841 -3.45858 2.45272 0
M  V30 28 C 0.9431 -3.22165 0.985473 0
M  V30 29 O 1.4731 -4.01096 0.220233 0
M  V30 30 N -0.3209 -2.7985 0.783108 0
M  V30 31 H -0.7739 -2.15775 1.40708 0
M  V30 32 H -0.8159 -3.14397 -0.0130392 0
M  V30 33 N 2.9562 -1.48159 -0.537278 0
M  V30 34 C 4.2022 -1.56035 -1.29541 0
M  V30 35 C 4.5352 -0.230377 -1.92829 0
M  V30 36 O 3.8102 0.762952 -1.78911 0
M  V30 37 C 4.0932 -2.69323 -2.39034 0
M  V30 38 C 3.9462 -4.12002 -1.80485 0
M  V30 39 C 5.2652 -2.78408 -3.40847 0
M  V30 40 H 2.3842 -0.567992 -0.469632 0
M  V30 41 H 5.0262 -1.80302 -0.599277 0
M  V30 42 H 3.1762 -2.48763 -2.98412 0
M  V30 43 H 4.8482 -4.43981 -1.25215 0
M  V30 44 H 3.0912 -4.19344 -1.11055 0
M  V30 45 H 3.7622 -4.87077 -2.59731 0
M  V30 46 H 6.2382 -2.97012 -2.91416 0
M  V30 47 H 5.1142 -3.59416 -4.14863 0
M  V30 48 H 5.3752 -1.86269 -4.00944 0
M  V30 49 N 4.4343 0.785586 -1.36625 0
M  V30 50 C 5.6623 1.57448 -1.3423 0
M  V30 51 C 6.0773 1.88649 0.0755653 0
M  V30 52 O 5.4343 1.50414 1.03354 0
M  V30 53 C 5.4853 2.89316 -2.16745 0
M  V30 54 O 5.2063 2.59459 -3.53005 0
M  V30 55 C 6.7073 3.83606 -2.22174 0
M  V30 56 H 3.9273 0.488226 -0.4603 0
M  V30 57 H 6.4713 0.974733 -1.79775 0
M  V30 58 H 4.6263 3.4575 -1.74745 0
M  V30 59 H 5.0403 3.43804 -3.96105 0
M  V30 60 H 6.5143 4.73181 -2.8426 0
M  V30 61 H 6.9913 4.21734 -1.22627 0
M  V30 62 H 7.5973 3.33104 -2.64427 0
M  V30 63 N 5.9124 1.20967 1.01018 0
M  V30 64 C 7.1614 1.01796 1.74128 0
M  V30 65 C 7.4744 -0.449691 1.90361 0
M  V30 66 O 8.6804 -0.76068 2.60626 0
M  V30 67 C 7.1364 1.7727 3.13215 0
M  V30 68 C 6.7444 3.28171 3.04972 0
M  V30 69 C 8.4884 1.66489 3.90489 0
M  V30 70 C 6.3954 3.96156 4.39107 0
M  V30 71 H 5.3254 0.377276 0.652824 0
M  V30 72 H 7.9764 1.44651 1.12909 0
M  V30 73 H 6.3584 1.27205 3.75013 0
M  V30 74 H 7.5324 3.85499 2.52443 0
M  V30 75 H 5.8474 3.39437 2.41188 0
M  V30 76 H 8.4444 2.14617 4.89738 0
M  V30 77 H 8.7874 0.6222 4.11624 0
M  V30 78 H 9.3204 2.14003 3.35332 0
M  V30 79 H 6.0594 5.00604 4.23174 0
M  V30 80 H 5.5794 3.43617 4.91617 0
M  V30 81 H 7.2584 4.00774 5.07926 0
M  V30 82 N 7.3905 -1.2043 1.01659 0
M  V30 83 C 8.6205 -1.93496 0.724081 0
M  V30 84 C 9.0285 -1.74998 -0.71918 0
M  V30 85 O 8.3715 -1.06118 -1.49949 0
M  V30 86 C 8.4335 -3.45886 0.97994 0
M  V30 87 C 8.0975 -3.88145 2.41232 0
M  V30 88 C 9.0945 -3.93907 3.39313 0
M  V30 89 C 6.7795 -4.20134 2.75305 0
M  V30 90 C 8.7735 -4.31069 4.6953 0
M  V30 91 C 6.4605 -4.56971 4.05735 0
M  V30 92 C 7.4585 -4.62411 5.02658 0
M  V30 93 O 7.1465 -4.98403 6.30754 0
M  V30 94 H 6.8785 -0.621824 0.265162 0
M  V30 95 H 9.4325 -1.53867 1.36066 0
M  V30 96 H 7.6625 -3.85639 0.286198 0
M  V30 97 H 9.3515 -4.0018 0.679021 0
M  V30 98 H 10.1175 -3.69357 3.14325 0
M  V30 99 H 5.9965 -4.1509 2.00551 0
M  V30 100 H 9.5405 -4.3523 5.45179 0
M  V30 101 H 5.4375 -4.80977 4.30502 0
M  V30 102 H 6.2055 -5.16395 6.35042 0
M  V30 103 N 8.8686 -0.792821 -1.36206 0
M  V30 104 C 10.1456 -0.290627 -1.93429 0
M  V30 105 C 10.5256 1.21773 -1.72437 0
M  V30 106 O 9.8736 2.0108 -1.08531 0
M  V30 107 C 10.0836 -0.686973 -3.42172 0
M  V30 108 C 11.4316 -0.668643 -4.19302 0
M  V30 109 O 12.4556 -0.627658 -3.50626 0
M  V30 110 O 11.3146 -0.714597 -5.41808 0
M  V30 111 H 8.4086 -0.0727927 -0.82379 0
M  V30 112 H 10.9546 -0.875593 -1.45367 0
M  V30 113 H 9.7266 -1.72711 -3.51122 0
M  V30 114 H 9.3496 -0.0760733 -3.97527 0
M  V30 115 N 10.3467 1.47872 -0.545128 0
M  V30 116 C 11.5927 2.02793 -0.0166104 0
M  V30 117 C 11.9257 1.41987 1.32489 0
M  V30 118 O 11.2007 0.571045 1.85928 0
M  V30 119 C 11.4837 3.59989 0.0893294 0
M  V30 120 C 11.3367 4.3125 -1.27841 0
M  V30 121 C 12.6557 4.32606 0.808724 0
M  V30 122 H 9.7747 0.736962 -0.00751035 0
M  V30 123 H 12.4167 1.76433 -0.705085 0
M  V30 124 H 10.5667 3.82579 0.675681 0
M  V30 125 H 12.2387 4.20035 -1.90704 0
M  V30 126 H 10.4817 3.92076 -1.85632 0
M  V30 127 H 11.1527 5.39736 -1.15713 0
M  V30 128 H 13.6287 4.14936 0.310992 0
M  V30 129 H 12.5047 5.42251 0.851782 0
M  V30 130 H 12.7657 4.00963 1.86229 0
M  V30 131 N 11.8248 0.280983 1.55075 0
M  V30 132 C 12.7878 -0.590896 2.21452 0
M  V30 133 C 13.7878 -1.07682 1.19421 0
M  V30 134 O 14.9778 -0.97605 1.44288 0
M  V30 135 C 12.1098 -1.81587 2.88511 0
M  V30 136 H 13.3028 -0.0112554 2.99898 0
M  V30 137 H 10.8558 0.0316438 1.56268 0
M  V30 138 H 11.5908 -2.43587 2.14093 0
M  V30 139 H 11.3758 -1.4753 3.63287 0
M  V30 140 H 12.8658 -2.43575 3.39206 0
M  V30 141 N 13.3029 -1.57598 0.00835791 0
M  V30 142 C 14.7189 -1.55764 -0.347822 0
M  V30 143 C 14.9189 -1.01186 -1.74252 0
M  V30 144 O 13.9749 -0.649371 -2.44007 0
M  V30 145 C 15.2879 -2.99927 -0.215407 0
M  V30 146 C 16.8359 -3.11656 -0.289725 0
M  V30 147 C 17.3109 -4.57621 -0.18634 0
M  V30 148 N 18.8019 -4.62557 -0.243978 0
M  V30 149 C 19.5369 -5.73094 -0.18745 0
M  V30 150 N 19.0329 -6.92753 -0.0810331 0
M  V30 151 N 20.8259 -5.61588 -0.239925 0
M  V30 152 H 12.9769 -1.91411 0.92062 0
M  V30 153 H 15.2399 -0.879562 0.353659 0
M  V30 154 H 14.9459 -3.43729 0.744512 0
M  V30 155 H 14.8199 -3.63865 -0.994097 0
M  V30 156 H 17.2069 -2.67779 -1.24009 0
M  V30 157 H 17.2879 -2.5048 0.51898 0
M  V30 158 H 16.9319 -5.02174 0.760519 0
M  V30 159 H 16.8619 -5.16752 -1.01364 0
M  V30 160 H 19.3529 -3.76481 -0.327217 0
M  V30 161 H 19.6659 -7.72787 -0.0440241 0
M  V30 162 H 18.0109 -6.94984 -0.0465419 0
M  V30 163 H 21.2019 -4.66996 -0.321317 0
M  V30 164 H 21.3749 -6.47714 -0.192407 0
M  V30 165 N 14.781 0.264519 -1.55364 0
M  V30 166 C 15.691 1.34902 -1.91934 0
M  V30 167 C 16.707 1.53595 -0.817593 0
M  V30 168 O 17.883 1.67558 -1.11742 0
M  V30 169 C 14.948 2.68676 -2.19121 0
M  V30 170 C 14.009 2.58657 -3.4263 0
M  V30 171 C 13.242 3.86051 -3.68511 0
M  V30 172 O 13.465 4.87126 -2.96757 0
M  V30 173 O 12.399 3.85744 -4.62045 0
M  V30 174 H 16.225 1.06883 -2.8427 0
M  V30 175 H 13.81 0.463775 -1.42019 0
M  V30 176 H 15.692 3.47759 -2.37995 0
M  V30 177 H 14.367 2.96463 -1.29966 0
M  V30 178 H 13.274 1.7792 -3.29082 0
M  V30 179 H 14.607 2.35818 -4.32031 0
M  V30 180 N 16.2591 1.48442 0.529413 0
M  V30 181 C 17.2221 1.62524 1.61612 0
M  V30 182 C 18.2221 0.498509 1.52877 0
M  V30 183 O 19.4121 0.76431 1.56537 0
M  V30 184 C 16.5441 1.59597 3.01233 0
M  V30 185 H 17.7371 2.59423 1.50465 0
M  V30 186 H 15.2901 1.37047 0.751514 0
M  V30 187 H 16.0251 0.641781 3.17886 0
M  V30 188 H 15.8101 2.41397 3.08982 0
M  V30 189 H 17.3001 1.72646 3.80241 0
M  V30 190 N 17.7372 -0.778329 1.37039 0
M  V30 191 C 18.9622 -1.57248 1.35233 0
M  V30 192 C 19.3872 -1.87999 -0.0615568 0
M  V30 193 O 18.7452 -1.48734 -1.03672 0
M  V30 194 C 18.7932 -2.86353 2.19167 0
M  V30 195 O 17.8972 -3.80442 1.59178 0
M  V30 196 H 17.2382 -0.476569 0.462362 0
M  V30 197 H 19.7682 -0.963853 1.80474 0
M  V30 198 H 19.7782 -3.35519 2.32145 0
M  V30 199 H 18.4532 -2.63299 3.21942 0
M  V30 200 H 17.0302 -3.39067 1.55203 0
M  V30 201 N 19.2153 -1.21501 -1.00376 0
M  V30 202 C 20.4613 -1.03452 -1.74429 0
M  V30 203 C 20.7943 0.430764 -1.89362 0
M  V30 204 O 20.0693 1.31962 -1.42886 0
M  V30 205 C 20.3523 -1.73375 -3.15615 0
M  V30 206 C 20.2053 -3.27431 -3.08397 0
M  V30 207 C 21.5243 -1.47732 -4.14564 0
M  V30 208 H 18.6433 -0.377226 -0.633143 0
M  V30 209 H 21.2853 -1.49693 -1.17013 0
M  V30 210 H 19.4353 -1.34064 -3.64636 0
M  V30 211 H 21.1073 -3.76119 -2.67081 0
M  V30 212 H 19.3503 -3.5767 -2.45468 0
M  V30 213 H 20.0213 -3.71524 -4.08258 0
M  V30 214 H 22.4973 -1.8186 -3.74254 0
M  V30 215 H 21.3733 -1.99169 -5.11491 0
M  V30 216 H 21.6343 -0.407589 -4.40217 0
M  V30 217 N 20.6934 1.19889 -1.02296 0
M  V30 218 C 21.9184 1.9393 -0.735237 0
M  V30 219 C 22.3434 1.74639 0.698782 0
M  V30 220 O 21.7014 1.04481 1.48167 0
M  V30 221 C 21.7494 3.43916 -1.08417 0
M  V30 222 O 20.8534 4.11917 -0.199446 0
M  V30 223 H 20.1944 0.605645 -0.272196 0
M  V30 224 H 22.7244 1.52137 -1.36804 0
M  V30 225 H 22.7344 3.9456 -1.03856 0
M  V30 226 H 21.4094 3.5728 -2.12894 0
M  V30 227 H 19.9864 3.71666 -0.303136 0
M  V30 228 N 22.1715 0.800033 1.35784 0
M  V30 229 C 23.1045 0.151499 2.27697 0
M  V30 230 C 24.0825 -0.678663 1.4776 0
M  V30 231 O 25.2665 -0.647358 1.77035 0
M  V30 232 C 22.3935 -0.790492 3.29346 0
M  V30 233 C 21.4395 -0.0407832 4.26481 0
M  V30 234 S 22.2725 1.29077 5.19711 0
M  V30 235 C 23.4285 0.353055 6.24903 0
M  V30 236 H 23.6615 0.930796 2.82353 0
M  V30 237 H 21.1945 0.594767 1.42485 0
M  V30 238 H 23.1525 -1.3285 3.88409 0
M  V30 239 H 21.8135 -1.54312 2.73581 0
M  V30 240 H 21.0065 -0.755971 4.98298 0
M  V30 241 H 20.6085 0.427063 3.71554 0
M  V30 242 H 22.9005 -0.464147 6.75908 0
M  V30 243 H 23.8435 1.04023 7.00418 0
M  V30 244 H 24.2515 -0.0483344 5.64479 0
M  V30 245 N 23.6496 -1.47581 0.552962 0
M  V30 246 C 24.6126 -2.28439 -0.186605 0
M  V30 247 C 25.6126 -1.36706 -0.84665 0
M  V30 248 O 26.8026 -1.59378 -0.703164 0
M  V30 249 C 23.9346 -3.16264 -1.2724 0
M  V30 250 H 25.1276 -2.95294 0.523609 0
M  V30 251 H 22.6806 -1.532 0.309745 0
M  V30 252 H 23.4156 -2.54091 -2.01514 0
M  V30 253 H 23.2006 -3.83769 -0.803968 0
M  V30 254 H 24.6906 -3.77198 -1.79196 0
M  V30 255 N 25.1277 -0.289203 -1.54924 0
M  V30 256 C 26.3557 0.326463 -2.04308 0
M  V30 257 C 26.7707 1.48413 -1.16701 0
M  V30 258 O 26.1277 1.81507 -0.190087 0
M  V30 259 C 26.1787 0.794014 -3.52672 0
M  V30 260 O 25.8997 -0.317564 -4.36948 0
M  V30 261 C 27.4007 1.47605 -4.18004 0
M  V30 262 H 24.6207 0.0726272 -0.667058 0
M  V30 263 H 27.1647 -0.425401 -2.00026 0
M  V30 264 H 25.3197 1.49593 -3.57352 0
M  V30 265 H 25.7337 0.0443186 -5.24481 0
M  V30 266 H 27.2077 1.75447 -5.23376 0
M  V30 267 H 27.6847 2.41224 -3.67025 0
M  V30 268 H 28.2907 0.81762 -4.17367 0
M  V30 269 N 26.6058 1.57591 -0.0167156 0
M  V30 270 C 27.8518 1.91567 0.665582 0
M  V30 271 C 28.1848 0.892298 1.72487 0
M  V30 272 O 27.4598 -0.0867127 1.94307 0
M  V30 273 C 27.7428 3.36069 1.29342 0
M  V30 274 C 27.5958 4.49135 0.244541 0
M  V30 275 C 28.9148 3.803 2.21495 0
M  V30 276 H 26.0338 0.69666 0.240488 0
M  V30 277 H 28.6758 1.89866 -0.0714356 0
M  V30 278 H 26.8258 3.3765 1.92158 0
M  V30 279 H 28.4978 4.59689 -0.385228 0
M  V30 280 H 26.7408 4.3165 -0.431379 0
M  V30 281 H 27.4118 5.47242 0.723207 0
M  V30 282 H 29.8878 3.80377 1.68678 0
M  V30 283 H 28.7638 4.82127 2.62382 0
M  V30 284 H 29.0248 3.15104 3.101 0
M  V30 285 N 28.0839 -0.256276 1.55502 0
M  V30 286 C 29.3089 -1.00766 1.81276 0
M  V30 287 C 29.7339 -1.78524 0.59252 0
M  V30 288 O 29.0919 -1.75413 -0.45827 0
M  V30 289 C 29.1399 -1.92869 3.04687 0
M  V30 290 O 28.2439 -3.019 2.80945 0
M  V30 291 H 27.5849 -0.287224 0.598664 0
M  V30 292 H 30.1149 -0.280109 2.02674 0
M  V30 293 H 30.1249 -2.34511 3.33869 0
M  V30 294 H 28.7999 -1.35689 3.93143 0
M  V30 295 H 27.3769 -2.64454 2.62904 0
M  V30 296 N 29.562 -1.4872 -0.521534 0
M  V30 297 C 30.978 -1.35028 -0.850855 0
M  V30 298 C 31.178 -0.367712 -1.98116 0
M  V30 299 O 30.234 0.208037 -2.51642 0
M  V30 300 C 31.547 -2.75263 -1.21041 0
M  V30 301 C 33.095 -2.83813 -1.31981 0
M  V30 302 C 33.57 -4.24769 -1.71276 0
M  V30 303 N 35.061 -4.27482 -1.78363 0
M  V30 304 C 35.796 -5.33494 -2.1017 0
M  V30 305 N 35.292 -6.49775 -2.40343 0
M  V30 306 N 37.085 -5.20894 -2.11248 0
M  V30 307 H 29.236 -2.11214 0.22413 0
M  V30 308 H 31.499 -0.947252 0.0376439 0
M  V30 309 H 31.205 -3.48765 -0.453415 0
M  V30 310 H 31.079 -3.09327 -2.15863 0
M  V30 311 H 33.466 -2.10561 -2.06756 0
M  V30 312 H 33.547 -2.53358 -0.352596 0
M  V30 313 H 33.191 -4.9854 -0.970588 0
M  V30 314 H 33.121 -4.52673 -2.69062 0
M  V30 315 H 35.612 -3.43611 -1.57288 0
M  V30 316 H 35.925 -7.26402 -2.63743 0
M  V30 317 H 34.27 -6.53035 -2.37844 0
M  V30 318 H 37.461 -4.29065 -1.87139 0
M  V30 319 H 37.634 -6.03612 -2.35704 0
M  V30 320 N 31.0401 0.771051 -1.3745 0
M  V30 321 C 32.2861 1.5319 -1.32894 0
M  V30 322 C 32.6191 1.94008 0.0862511 0
M  V30 323 O 31.8941 1.64124 1.04373 0
M  V30 324 C 32.1771 2.79648 -2.26868 0
M  V30 325 C 32.0301 2.45079 -3.77169 0
M  V30 326 C 33.3491 3.81583 -2.19277 0
M  V30 327 H 30.4681 0.555744 -0.484064 0
M  V30 328 H 33.1101 0.884492 -1.68157 0
M  V30 329 H 31.2601 3.34891 -1.96926 0
M  V30 330 H 32.9321 1.95745 -4.1771 0
M  V30 331 H 31.1751 1.77767 -3.95704 0
M  V30 332 H 31.8461 3.35478 -4.38359 0
M  V30 333 H 34.3221 3.35835 -2.45671 0
M  V30 334 H 33.1981 4.67787 -2.87171 0
M  V30 335 H 33.4591 4.25897 -1.18592 0
M  V30 336 N 32.5182 1.22032 0.997298 0
M  V30 337 C 33.7642 1.04376 1.73878 0
M  V30 338 C 34.0972 -0.420716 1.89588 0
M  V30 339 O 33.3722 -1.31202 1.43583 0
M  V30 340 C 33.6552 1.75047 3.14691 0
M  V30 341 C 33.5082 3.29062 3.06656 0
M  V30 342 C 34.8272 1.49928 4.13775 0
M  V30 343 H 31.9462 0.380578 0.631133 0
M  V30 344 H 34.5882 1.50312 1.16217 0
M  V30 345 H 32.7382 1.35996 3.63919 0
M  V30 346 H 34.4102 3.7753 2.65083 0
M  V30 347 H 32.6532 3.58967 2.43568 0
M  V30 348 H 33.3242 3.73683 4.06282 0
M  V30 349 H 35.8002 1.83842 3.73285 0
M  V30 350 H 34.6762 2.01878 5.10428 0
M  V30 351 H 34.9372 0.430929 4.39995 0
M  V30 352 N 33.9963 -1.19345 1.0293 0
M  V30 353 C 34.9443 -2.24621 0.604001 0
M  V30 354 C 35.9383 -1.65452 -0.363587 0
M  V30 355 O 37.1443 -1.78497 -0.23212 0
M  V30 356 H 33.5193 -0.730858 0.177061 0
M  V30 357 H 35.4903 -2.5781 1.50255 0
M  V30 358 C 34.2393 -3.47688 -0.0289127 0
M  V30 359 H 33.5623 -3.93505 0.706651 0
M  V30 360 H 35.0023 -4.23011 -0.289432 0
M  V30 361 C 33.4613 -3.11817 -1.2756 0
M  V30 362 O 33.9913 -3.2451 -2.36762 0
M  V30 363 N 32.1973 -2.66246 -1.16453 0
M  V30 364 H 31.7443 -2.56118 -0.275914 0
M  V30 365 H 31.7023 -2.42617 -1.99961 0
M  V30 366 N 35.4744 -0.807222 -1.35358 0
M  V30 367 C 36.7224 -0.387122 -1.98358 0
M  V30 368 C 37.0434 1.04942 -1.64354 0
M  V30 369 O 36.3134 1.72615 -0.926339 0
M  V30 370 H 34.8934 -0.140154 -0.733734 0
M  V30 371 H 37.5554 -1.0332 -1.6526 0
M  V30 372 H 36.6514 -0.493352 -3.08176 0
M  V30 373 N 36.9525 1.47285 -0.560781 0
M  V30 374 C 37.9005 2.31756 0.197942 0
M  V30 375 C 38.8945 1.43146 0.905854 0
M  V30 376 O 40.1005 1.59891 0.826733 0
M  V30 377 H 36.4755 0.747438 0.0827049 0
M  V30 378 H 38.4465 2.9359 -0.533629 0
M  V30 379 C 37.1955 3.25874 1.21249 0
M  V30 380 H 36.5185 3.94023 0.67719 0
M  V30 381 H 37.9585 3.87803 1.71419 0
M  V30 382 C 36.4175 2.49651 2.26221 0
M  V30 383 O 36.9475 2.24355 3.33208 0
M  V30 384 N 35.1535 2.10597 2.00243 0
M  V30 385 H 34.7005 2.31369 1.13252 0
M  V30 386 H 34.6585 1.59913 2.70694 0
M  V30 387 N 38.4306 0.297415 1.54768 0
M  V30 388 C 39.8416 -0.195947 1.85669 0
M  V30 389 C 40.1926 -1.53707 1.21937 0
M  V30 390 O 39.3176 -2.10164 0.515754 0
M  V30 391 C 39.9126 -0.362318 3.36857 0
M  V30 392 C 38.4716 -0.799901 3.67802 0
M  V30 393 C 37.6186 0.0938578 2.77141 0
M  V30 394 H 40.5696 0.518538 1.4999 0
M  V30 395 H 40.5906 -1.19745 3.61167 0
M  V30 396 H 40.1026 0.613921 3.83214 0
M  V30 397 H 38.2036 -1.78682 3.26961 0
M  V30 398 H 38.3166 -0.621773 4.75048 0
M  V30 399 H 36.6806 -0.426254 2.51108 0
M  V30 400 H 37.4636 1.06639 3.26318 0
M  V30 401 N 39.9087 -1.5758 0.0250728 0
M  V30 402 C 40.8567 -2.11125 -0.97617 0
M  V30 403 C 41.8507 -1.03689 -1.33959 0
M  V30 404 O 43.0567 -1.22128 -1.3223 0
M  V30 405 H 39.4317 -0.674468 -0.332561 0
M  V30 406 H 41.4027 -2.94194 -0.499223 0
M  V30 407 C 40.1517 -2.65017 -2.2508 0
M  V30 408 H 39.4747 -3.47333 -1.9799 0
M  V30 409 H 40.9147 -3.06133 -2.93357 0
M  V30 410 C 39.3737 -1.57574 -2.97779 0
M  V30 411 O 39.9037 -0.973203 -3.89733 0
M  V30 412 N 38.1097 -1.29716 -2.60043 0
M  V30 413 H 37.6567 -1.789 -1.85345 0
M  V30 414 H 37.6147 -0.58051 -3.08994 0
M  V30 415 N 41.3868 0.248026 -1.55636 0
M  V30 416 C 42.6328 0.97767 -1.77678 0
M  V30 417 C 42.9658 1.85016 -0.590135 0
M  V30 418 O 42.2408 1.90095 0.411611 0
M  V30 419 C 42.5238 1.83914 -3.09593 0
M  V30 420 C 42.3768 0.99491 -4.38659 0
M  V30 421 C 43.6958 2.82183 -3.37729 0
M  V30 422 H 40.8148 0.354005 -0.646413 0
M  V30 423 H 43.4568 0.248253 -1.88371 0
M  V30 424 H 41.6068 2.46104 -3.00608 0
M  V30 425 H 43.2788 0.391789 -4.59633 0
M  V30 426 H 41.5218 0.299231 -4.32767 0
M  V30 427 H 42.1928 1.63145 -5.2734 0
M  V30 428 H 44.6688 2.30129 -3.4667 0
M  V30 429 H 43.5448 3.39582 -4.31249 0
M  V30 430 H 43.8058 3.58588 -2.58586 0
M  V30 431 N 42.8649 1.48995 0.513639 0
M  V30 432 C 43.8119 1.6473 1.61656 0
M  V30 433 C 44.7819 0.488984 1.58739 0
M  V30 434 O 45.9669 0.714478 1.76918 0
M  V30 435 C 43.1069 1.7082 2.99858 0
M  V30 436 C 42.2199 2.9787 3.12885 0
M  V30 437 C 41.3549 2.95017 4.41744 0
M  V30 438 C 40.3939 4.16702 4.48359 0
M  V30 439 N 39.5309 4.11832 5.68629 0
M  V30 440 H 44.3709 2.58909 1.47547 0
M  V30 441 H 41.9079 1.28382 0.71808 0
M  V30 442 H 43.8659 1.72331 3.79944 0
M  V30 443 H 42.4959 0.801181 3.12699 0
M  V30 444 H 41.5479 3.06029 2.25944 0
M  V30 445 H 42.8599 3.8786 3.13633 0
M  V30 446 H 42.0139 2.95021 5.30139 0
M  V30 447 H 40.7529 2.02784 4.43542 0
M  V30 448 H 39.7579 4.16955 3.58369 0
M  V30 449 H 40.9829 5.10113 4.48287 0
M  V30 450 H 38.9289 3.22428 5.71293 0
M  V30 451 H 38.8459 4.95543 5.7094 0
M  V30 452 H 40.1139 4.1592 6.59266 0
M  V30 453 N 44.343 -0.763751 1.37857 0
M  V30 454 C 45.754 -1.3405 1.29952 0
M  V30 455 C 46.105 -1.96138 -0.0492898 0
M  V30 456 O 45.23 -1.94372 -0.951239 0
M  V30 457 C 45.825 -2.43729 2.35333 0
M  V30 458 C 44.384 -2.97151 2.31037 0
M  V30 459 C 43.531 -1.70438 2.18738 0
M  V30 460 H 46.482 -0.563396 1.48363 0
M  V30 461 H 46.503 -3.23412 2.00462 0
M  V30 462 H 46.015 -1.9851 3.33489 0
M  V30 463 H 44.116 -3.46724 1.3643 0
M  V30 464 H 44.229 -3.52221 3.24772 0
M  V30 465 H 42.593 -1.93673 1.65418 0
M  V30 466 H 43.376 -1.27312 3.18821 0
M  V30 467 N 45.8211 -1.22559 -0.990812 0
M  V30 468 C 47.0461 -1.07862 -1.77145 0
M  V30 469 C 47.4711 0.366447 -1.84496 0
M  V30 470 O 46.8291 1.26478 -1.29896 0
M  V30 471 C 46.8771 -1.69686 -3.18181 0
M  V30 472 O 45.9811 -0.951946 -4.01263 0
M  V30 473 H 45.3221 -0.378712 -0.545411 0
M  V30 474 H 47.8521 -1.62399 -1.2445 0
M  V30 475 H 47.8621 -1.74496 -3.68802 0
M  V30 476 H 46.5371 -2.74841 -3.12146 0
M  V30 477 H 45.1141 -0.980011 -3.59792 0
M  V30 478 N 47.2992 1.18797 -1.03562 0
M  V30 479 C 48.5272 1.92599 -0.755869 0
M  V30 480 C 48.9422 1.75886 0.686271 0
M  V30 481 O 48.2992 1.08517 1.46732 0
M  V30 482 C 48.3502 3.44159 -1.10619 0
M  V30 483 O 48.0712 3.60341 -2.4917 0
M  V30 484 C 49.5722 4.3507 -0.850214 0
M  V30 485 H 46.7922 0.611587 -0.276048 0
M  V30 486 H 49.3362 1.50742 -1.38192 0
M  V30 487 H 47.4912 3.83823 -0.525194 0
M  V30 488 H 47.9052 4.54128 -2.62427 0
M  V30 489 H 49.3792 5.39989 -1.14523 0
M  V30 490 H 49.8562 4.38673 0.215176 0
M  V30 491 H 50.4622 4.01097 -1.41426 0
M  V30 492 N 48.7773 0.814389 1.34928 0
M  V30 493 C 50.1933 0.499084 1.51596 0
M  V30 494 C 50.3933 -0.978319 1.76157 0
M  V30 495 O 49.4493 -1.76309 1.80752 0
M  V30 496 C 50.7623 1.35121 2.68631 0
M  V30 497 C 52.3103 1.34746 2.82511 0
M  V30 498 C 52.7853 2.18388 4.0258 0
M  V30 499 N 54.2763 2.15966 4.09772 0
M  V30 500 C 55.0113 2.77437 5.01813 0
M  V30 501 N 54.5073 3.47866 5.99134 0
M  V30 502 N 56.3003 2.67037 4.94619 0
M  V30 503 H 48.4513 1.7711 1.17243 0
M  V30 504 H 50.7143 0.754256 0.574284 0
M  V30 505 H 50.4203 2.40001 2.57085 0
M  V30 506 H 50.2943 1.00991 3.63429 0
M  V30 507 H 52.6813 0.30648 2.93504 0
M  V30 508 H 52.7623 1.72869 1.88547 0
M  V30 509 H 52.4063 3.2253 3.92347 0
M  V30 510 H 52.3363 1.77621 4.9574 0
M  V30 511 H 54.8273 1.64729 3.40107 0
M  V30 512 H 55.1403 3.92038 6.65977 0
M  V30 513 H 53.4853 3.51972 5.99284 0
M  V30 514 H 56.6763 2.11597 4.17546 0
M  V30 515 H 56.8493 3.15232 5.66156 0
M  V30 516 N 50.2554 -1.46986 0.568584 0
M  V30 517 C 51.2024 -2.30153 -0.172707 0
M  V30 518 C 52.1724 -1.39759 -0.897586 0
M  V30 519 O 53.3574 -1.68716 -0.891044 0
M  V30 520 C 50.4974 -3.23952 -1.1895 0
M  V30 521 C 49.6104 -4.29441 -0.469517 0
M  V30 522 C 48.7454 -5.1038 -1.47259 0
M  V30 523 C 47.7844 -6.07632 -0.738225 0
M  V30 524 N 46.9214 -6.8149 -1.68868 0
M  V30 525 H 51.7614 -2.93019 0.542596 0
M  V30 526 H 49.2984 -1.44422 0.279401 0
M  V30 527 H 51.2564 -3.76767 -1.79173 0
M  V30 528 H 49.8864 -2.62926 -1.87269 0
M  V30 529 H 48.9384 -3.79594 0.247467 0
M  V30 530 H 50.2504 -4.98689 0.105241 0
M  V30 531 H 49.4044 -5.67402 -2.14803 0
M  V30 532 H 48.1434 -4.4106 -2.08128 0
M  V30 533 H 47.1484 -5.49778 -0.0489293 0
M  V30 534 H 48.3734 -6.78966 -0.135129 0
M  V30 535 H 46.3194 -6.14891 -2.28573 0
M  V30 536 H 46.2364 -7.46948 -1.16636 0
M  V30 537 H 47.5044 -7.43078 -2.3549 0
M  V30 538 N 51.7335 -0.305618 -1.54608 0
M  V30 539 C 52.6805 0.568421 -2.23691 0
M  V30 540 C 53.6505 1.12592 -1.22116 0
M  V30 541 O 54.8355 1.16959 -1.50749 0
M  V30 542 C 51.9755 1.7322 -2.98477 0
M  V30 543 C 51.0885 1.20566 -4.14835 0
M  V30 544 C 50.2235 2.33368 -4.77193 0
M  V30 545 C 49.2625 1.7787 -5.85686 0
M  V30 546 N 48.3995 2.84263 -6.4198 0
M  V30 547 H 53.2395 -0.0272867 -2.97988 0
M  V30 548 H 50.7765 -0.0252363 -1.47078 0
M  V30 549 H 52.7345 2.41675 -3.40072 0
M  V30 550 H 51.3645 2.29947 -2.26548 0
M  V30 551 H 50.4165 0.413223 -3.78149 0
M  V30 552 H 51.7285 0.759417 -4.92985 0
M  V30 553 H 50.8825 3.09761 -5.21664 0
M  V30 554 H 49.6215 2.8132 -3.98385 0
M  V30 555 H 48.6265 0.99968 -5.40635 0
M  V30 556 H 49.8515 1.30816 -6.66381 0
M  V30 557 H 47.7975 3.31541 -5.66053 0
M  V30 558 H 47.7145 2.44149 -7.15491 0
M  V30 559 H 48.9825 3.6054 -6.91109 0
M  V30 560 N 53.2116 1.57565 -0.0334293 0
M  V30 561 C 54.4576 1.92262 0.645226 0
M  V30 562 C 54.7906 0.910543 1.71531 0
M  V30 563 O 54.0656 -0.066099 1.94388 0
M  V30 564 C 54.3486 3.37422 1.2577 0
M  V30 565 C 54.2016 4.49369 0.196891 0
M  V30 566 C 55.5206 3.82628 2.17449 0
M  V30 567 H 52.6396 0.699171 0.233085 0
M  V30 568 H 55.2816 1.89779 -0.0915694 0
M  V30 569 H 53.4316 3.39669 1.88566 0
M  V30 570 H 55.1036 4.59254 -0.433962 0
M  V30 571 H 53.3466 4.31168 -0.477137 0
M  V30 572 H 54.0176 5.47978 0.665124 0
M  V30 573 H 56.4936 3.82145 1.64634 0
M  V30 574 H 55.3696 4.84883 2.57254 0
M  V30 575 H 55.6306 3.18376 3.0674 0
M  V30 576 N 54.6897 -0.239769 1.55765 0
M  V30 577 C 55.6197 -1.30052 1.9393 0
M  V30 578 C 56.6007 -1.49839 0.805132 0
M  V30 579 O 57.7857 -1.62328 1.06599 0
M  V30 580 C 54.9157 -2.65391 2.2402 0
M  V30 581 C 53.8697 -2.60289 3.39755 0
M  V30 582 C 53.1957 -3.99489 3.55405 0
M  V30 583 C 54.4957 -2.16654 4.75246 0
M  V30 584 H 56.1897 -0.983573 2.82783 0
M  V30 585 H 53.7357 -0.471701 1.36055 0
M  V30 586 H 55.6887 -3.3974 2.49308 0
M  V30 587 H 54.4127 -2.98736 1.32 0
M  V30 588 H 53.0717 -1.88398 3.14487 0
M  V30 589 H 52.7197 -4.30112 2.60793 0
M  V30 590 H 52.4197 -3.96962 4.33238 0
M  V30 591 H 53.9437 -4.75528 3.83022 0
M  V30 592 H 55.3577 -2.80737 4.99859 0
M  V30 593 H 53.7547 -2.25223 5.56232 0
M  V30 594 H 54.8247 -1.11835 4.71827 0
M  V30 595 N 56.1678 -1.49265 -0.50573 0
M  V30 596 C 57.0778 -1.68312 -1.63427 0
M  V30 597 C 58.0938 -0.565682 -1.64548 0
M  V30 598 O 59.2698 -0.839801 -1.83055 0
M  V30 599 C 56.3348 -1.74107 -2.99813 0
M  V30 600 C 55.3958 -2.97653 -3.09356 0
M  V30 601 C 54.6288 -3.03163 -4.39236 0
M  V30 602 O 54.8518 -2.16396 -5.27758 0
M  V30 603 O 53.7858 -3.9558 -4.53652 0
M  V30 604 H 57.6118 -2.63907 -1.50289 0
M  V30 605 H 55.1968 -1.32951 -0.681502 0
M  V30 606 H 57.0788 -1.803 -3.80881 0
M  V30 607 H 55.7538 -0.816901 -3.13223 0
M  V30 608 H 54.6608 -2.96981 -2.27493 0
M  V30 609 H 55.9938 -3.89535 -3.00871 0
M  V30 610 N 57.6459 0.756429 -1.3826 0
M  V30 611 C 58.8739 1.54565 -1.3754 0
M  V30 612 C 59.2889 1.88767 0.0355331 0
M  V30 613 O 58.6459 1.52572 1.0014 0
M  V30 614 C 58.6969 2.84654 -2.22833 0
M  V30 615 O 58.4179 2.51912 -3.5843 0
M  V30 616 C 59.9189 3.78807 -2.30261 0
M  V30 617 H 57.1389 0.478353 -0.470553 0
M  V30 618 H 59.6829 0.936381 -1.81803 0
M  V30 619 H 57.8379 3.41965 -1.8204 0
M  V30 620 H 58.2519 3.35325 -4.03308 0
M  V30 621 H 59.7259 4.67045 -2.94233 0
M  V30 622 H 60.2029 4.19038 -1.31545 0
M  V30 623 H 60.8089 3.2742 -2.71433 0
M  V30 624 N 59.124 1.23083 0.984299 0
M  V30 625 C 60.373 1.05466 1.71929 0
M  V30 626 C 60.686 -0.409211 1.91272 0
M  V30 627 O 61.892 -0.705226 2.62181 0
M  V30 628 C 60.348 1.83874 3.09384 0
M  V30 629 C 59.956 3.34566 2.97943 0
M  V30 630 C 61.7 1.74734 3.8687 0
M  V30 631 C 59.607 4.05381 4.30605 0
M  V30 632 H 58.537 0.391039 0.644674 0
M  V30 633 H 61.188 1.47013 1.09815 0
M  V30 634 H 59.57 1.35131 3.72231 0
M  V30 635 H 60.744 3.90767 2.44209 0
M  V30 636 H 59.059 3.44476 2.33934 0
M  V30 637 H 61.656 2.24957 4.85076 0
M  V30 638 H 61.999 0.709372 4.10212 0
M  V30 639 H 62.532 2.21067 3.30717 0
M  V30 640 H 59.271 5.09467 4.1246 0
M  V30 641 H 58.791 3.53967 4.84218 0
M  V30 642 H 60.47 4.11458 4.99311 0
M  V30 643 N 60.6021 -1.18246 1.0419 0
M  V30 644 C 61.5121 -2.25574 0.644476 0
M  V30 645 C 62.5281 -1.70845 -0.329826 0
M  V30 646 O 63.7041 -2.00554 -0.184443 0
M  V30 647 C 60.7691 -3.46697 0.014877 0
M  V30 648 C 59.8301 -4.16554 1.03834 0
M  V30 649 C 59.0631 -5.31894 0.438692 0
M  V30 650 O 59.2861 -5.65385 -0.754752 0
M  V30 651 O 58.2201 -5.90459 1.168 0
M  V30 652 H 62.0461 -2.61836 1.53869 0
M  V30 653 H 59.6311 -1.25352 0.812854 0
M  V30 654 H 61.5131 -4.20062 -0.335538 0
M  V30 655 H 60.1881 -3.12255 -0.853138 0
M  V30 656 H 59.0951 -3.45251 1.44057 0
M  V30 657 H 60.4281 -4.54998 1.87716 0
M  V30 658 N 62.0802 -0.821533 -1.34494 0
M  V30 659 C 63.4962 -0.507117 -1.51329 0
M  V30 660 C 63.6962 0.968964 -1.76673 0
M  V30 661 O 62.7522 1.75348 -1.81685 0
M  V30 662 C 64.0652 -1.36544 -2.67911 0
M  V30 663 C 65.6132 -1.36242 -2.81793 0
M  V30 664 C 66.0882 -2.2052 -4.01416 0
M  V30 665 N 67.5792 -2.18136 -4.08621 0
M  V30 666 C 68.3142 -2.80095 -5.00334 0
M  V30 667 N 67.8102 -3.51039 -5.9728 0
M  V30 668 N 69.6032 -2.69656 -4.93196 0
M  V30 669 H 61.7542 -1.77729 -1.16302 0
M  V30 670 H 64.0172 -0.757291 -0.570276 0
M  V30 671 H 63.7232 -2.41361 -2.55808 0
M  V30 672 H 63.5972 -1.02917 -3.62888 0
M  V30 673 H 65.9842 -0.322041 -2.93338 0
M  V30 674 H 66.0652 -1.73866 -1.87628 0
M  V30 675 H 65.7092 -3.24607 -3.90631 0
M  V30 676 H 65.6392 -1.80247 -4.94791 0
M  V30 677 H 68.1302 -1.6653 -3.39229 0
M  V30 678 H 68.4432 -3.95565 -6.63889 0
M  V30 679 H 66.7882 -3.55145 -5.97409 0
M  V30 680 H 69.9792 -2.13808 -4.16418 0
M  V30 681 H 70.1522 -3.1823 -5.64476 0
M  V30 682 N 63.5583 1.46682 -0.576371 0
M  V30 683 C 64.4883 2.33028 0.148397 0
M  V30 684 C 65.4693 1.44961 0.889956 0
M  V30 685 O 66.6543 1.73789 0.866662 0
M  V30 686 C 63.7843 3.27117 1.1667 0
M  V30 687 C 62.7383 4.24575 0.540386 0
M  V30 688 C 62.0643 5.08126 1.6647 0
M  V30 689 C 63.3643 5.19722 -0.518331 0
M  V30 690 H 65.0583 2.93875 -0.572509 0
M  V30 691 H 62.6043 1.41315 -0.276768 0
M  V30 692 H 64.5573 3.86374 1.68204 0
M  V30 693 H 63.2813 2.64364 1.9178 0
M  V30 694 H 61.9403 3.66571 0.0461769 0
M  V30 695 H 61.5883 4.41762 2.40531 0
M  V30 696 H 61.2883 5.74122 1.25131 0
M  V30 697 H 62.8123 5.70246 2.18293 0
M  V30 698 H 64.2263 5.73232 -0.0883058 0
M  V30 699 H 62.6233 5.94026 -0.851679 0
M  V30 700 H 63.6933 4.64037 -1.40703 0
M  V30 701 N 65.0364 0.313813 1.54444 0
M  V30 702 C 66.2844 -0.291099 1.99993 0
M  V30 703 C 66.6054 -1.53418 1.20366 0
M  V30 704 O 65.8754 -1.93544 0.302927 0
M  V30 705 H 64.4554 -0.110552 0.738774 0
M  V30 706 H 67.1174 0.428106 1.9014 0
M  V30 707 H 66.2134 -0.554268 3.07139 0
M  V30 708 N 66.5145 -1.57545 0.0417849 0
M  V30 709 C 67.7445 -1.96339 -0.642995 0
M  V30 710 C 68.1525 -0.917536 -1.65463 0
M  V30 711 O 67.4955 0.107747 -1.83384 0
M  V30 712 C 67.5575 -3.31333 -1.39494 0
M  V30 713 C 67.2215 -4.53796 -0.540204 0
M  V30 714 C 68.2185 -5.19553 0.189806 0
M  V30 715 C 65.9035 -5.0006 -0.473886 0
M  V30 716 C 67.8975 -6.29904 0.974674 0
M  V30 717 C 65.5845 -6.10289 0.314677 0
M  V30 718 C 66.5825 -6.75072 1.03765 0
M  V30 719 O 66.2705 -7.83183 1.81327 0
M  V30 720 H 66.0025 -0.651241 -0.181277 0
M  V30 721 H 68.5565 -2.05148 0.101665 0
M  V30 722 H 66.7865 -3.19052 -2.18502 0
M  V30 723 H 68.4755 -3.54942 -1.96904 0
M  V30 724 H 69.2415 -4.84774 0.147981 0
M  V30 725 H 65.1205 -4.49433 -1.0262 0
M  V30 726 H 68.6645 -6.80401 1.5395 0
M  V30 727 H 64.5615 -6.44506 0.358174 0
M  V30 728 H 65.3295 -7.99913 1.73438 0
M  V30 729 N 67.9926 0.231505 -1.5589 0
M  V30 730 C 69.4086 0.580748 -1.48659 0
M  V30 731 C 69.6086 1.87617 -0.73498 0
M  V30 732 O 68.6646 2.51046 -0.270586 0
M  V30 733 C 69.9776 0.669202 -2.93159 0
M  V30 734 C 71.5256 0.760499 -3.03621 0
M  V30 735 C 72.0006 0.880383 -4.49459 0
M  V30 736 N 73.4916 0.944861 -4.53461 0
M  V30 737 C 74.2266 1.05716 -5.63571 0
M  V30 738 N 73.7226 1.13403 -6.83456 0
M  V30 739 N 75.5156 1.09152 -5.514 0
M  V30 740 H 67.6666 -0.618695 -2.03189 0
M  V30 741 H 69.9296 -0.215728 -0.923128 0
M  V30 742 H 69.6356 -0.212904 -3.51055 0
M  V30 743 H 69.5096 1.5361 -3.44505 0
M  V30 744 H 71.8966 1.63305 -2.45796 0
M  V30 745 H 71.9776 -0.131864 -2.5546 0
M  V30 746 H 71.6216 0.0123284 -5.07899 0
M  V30 747 H 71.5516 1.78802 -4.95316 0
M  V30 748 H 74.0426 0.896176 -3.6712 0
M  V30 749 H 74.3556 1.21921 -7.63122 0
M  V30 750 H 72.7006 1.10333 -6.86186 0
M  V30 751 H 75.8916 1.02805 -4.56671 0
M  V30 752 H 76.0646 1.17558 -6.37247 0
M  V30 753 N 69.4707 1.49531 0.497807 0
M  V30 754 C 70.8817 1.52344 1.07927 0
M  V30 755 C 71.2327 0.311469 1.93712 0
M  V30 756 O 70.3577 -0.578405 2.08527 0
M  V30 757 C 70.9527 2.76062 1.96405 0
M  V30 758 C 69.5117 2.81643 2.49709 0
M  V30 759 C 68.6587 2.46299 1.27404 0
M  V30 760 H 71.6097 1.56182 0.281576 0
M  V30 761 H 71.6307 2.56405 2.81135 0
M  V30 762 H 71.1427 3.64254 1.33943 0
M  V30 763 H 69.2437 1.97739 3.15801 0
M  V30 764 H 69.3567 3.83891 2.86643 0
M  V30 765 H 67.7207 1.98148 1.60029 0
M  V30 766 H 68.5037 3.36769 0.66645 0
M  V30 767 N 70.9488 -0.749086 1.3866 0
M  V30 768 C 71.8968 -1.88428 1.36373 0
M  V30 769 C 72.8908 -1.67561 0.248929 0
M  V30 770 O 74.0968 -1.75074 0.41821 0
M  V30 771 H 70.4718 -0.620023 0.42553 0
M  V30 772 H 72.4428 -1.87473 2.32156 0
M  V30 773 C 71.1918 -3.25961 1.21014 0
M  V30 774 H 70.5148 -3.42607 2.06059 0
M  V30 775 H 71.9548 -4.05625 1.23469 0
M  V30 776 C 70.4138 -3.36799 -0.0825941 0
M  V30 777 O 70.9438 -3.87517 -1.05797 0
M  V30 778 N 69.1498 -2.90258 -0.140939 0
M  V30 779 H 68.6968 -2.49174 0.653477 0
M  V30 780 H 68.6548 -2.97889 -1.00545 0
M  V30 781 N 72.4269 -1.23603 -0.977757 0
M  V30 782 C 73.3899 -1.02069 -2.05218 0
M  V30 783 C 74.3899 0.0184305 -1.60789 0
M  V30 784 O 75.5799 -0.221569 -1.72785 0
M  V30 785 C 72.7119 -0.544926 -3.36517 0
M  V30 786 H 73.9049 -1.9742 -2.25755 0
M  V30 787 H 71.4579 -1.05684 -1.15155 0
M  V30 788 H 72.1929 0.412241 -3.21669 0
M  V30 789 H 71.9779 -1.2948 -3.70105 0
M  V30 790 H 73.4679 -0.414985 -4.15533 0
M  V30 791 N 73.905 1.17692 -1.04816 0
M  V30 792 C 75.151 1.88137 -0.75711 0
M  V30 793 C 75.484 1.80604 0.713841 0
M  V30 794 O 74.759 1.21146 1.52164 0
M  V30 795 C 75.042 3.38318 -1.2334 0
M  V30 796 C 74.895 3.54622 -2.76701 0
M  V30 797 C 76.214 4.32214 -0.829415 0
M  V30 798 H 73.333 0.683163 -0.27651 0
M  V30 799 H 75.975 1.38424 -1.30149 0
M  V30 800 H 74.125 3.80787 -0.770286 0
M  V30 801 H 75.797 3.21194 -3.31107 0
M  V30 802 H 74.04 2.97026 -3.16161 0
M  V30 803 H 74.711 4.60028 -3.05088 0
M  V30 804 H 77.187 3.97565 -1.22805 0
M  V30 805 H 76.063 5.35838 -1.19033 0
M  V30 806 H 76.324 4.41294 0.266891 0
M  V30 807 N 75.3831 0.828654 1.34056 0
M  V30 808 C 76.3461 0.259927 2.27721 0
M  V30 809 C 77.3461 -0.565478 1.50529 0
M  V30 810 O 78.5361 -0.38075 1.69988 0
M  V30 811 C 75.6681 -0.634944 3.34935 0
M  V30 812 H 76.8611 1.0863 2.79534 0
M  V30 813 H 74.4141 0.600951 1.44285 0
M  V30 814 H 75.1491 -1.48416 2.88346 0
M  V30 815 H 74.9341 -0.0444999 3.92075 0
M  V30 816 H 76.4241 -1.02648 4.04788 0
M  V30 817 N 76.8612 -1.46375 0.584142 0
M  V30 818 C 78.2772 -1.57694 0.245929 0
M  V30 819 C 78.4772 -1.57903 -1.25175 0
M  V30 820 O 77.5332 -1.49676 -2.03355 0
M  V30 821 C 78.8462 -2.87028 0.896402 0
M  V30 822 C 80.3942 -3.00662 0.870127 0
M  V30 823 C 80.8692 -4.32734 1.50017 0
M  V30 824 N 82.3602 -4.39436 1.46458 0
M  V30 825 C 83.0952 -5.40248 1.92144 0
M  V30 826 N 82.5912 -6.47726 2.4581 0
M  V30 827 N 84.3842 -5.31459 1.83052 0
M  V30 828 H 76.5352 -1.44483 1.55687 0
M  V30 829 H 78.7982 -0.689291 0.650831 0
M  V30 830 H 78.5042 -2.9269 1.95002 0
M  V30 831 H 78.3782 -3.75014 0.405486 0
M  V30 832 H 80.7652 -2.94581 -0.174871 0
M  V30 833 H 80.8462 -2.14148 1.39908 0
M  V30 834 H 80.4902 -4.39573 2.54437 0
M  V30 835 H 80.4202 -5.18025 0.946432 0
M  V30 836 H 82.9112 -3.62367 1.07231 0
M  V30 837 H 83.2242 -7.20863 2.78525 0
M  V30 838 H 81.5692 -6.48542 2.49836 0
M  V30 839 H 84.7602 -4.46396 1.40883 0
M  V30 840 H 84.9332 -6.09881 2.18973 0
M  V30 841 N 78.3393 -0.321999 -1.54275 0
M  V30 842 C 79.5873 0.280489 -2.00144 0
M  V30 843 C 79.9083 1.52777 -1.21178 0
M  V30 844 O 79.1783 1.9338 -0.313187 0
M  V30 845 H 77.7583 0.106632 -0.73935 0
M  V30 846 H 80.4203 -0.438184 -1.8991 0
M  V30 847 H 79.5163 0.537972 -3.07428 0
M  V30 848 N 79.8174 1.5752 -0.0501392 0
M  V30 849 C 80.7474 2.14502 0.922566 0
M  V30 850 C 81.7284 1.06642 1.3252 0
M  V30 851 O 82.9134 1.34577 1.4001 0
M  V30 852 C 80.0434 2.68916 2.19776 0
M  V30 853 C 78.9974 3.8175 1.93523 0
M  V30 854 C 78.3234 4.22677 3.27487 0
M  V30 855 C 79.6234 5.06932 1.25765 0
M  V30 856 H 81.3174 2.9603 0.447952 0
M  V30 857 H 78.8634 1.42401 0.214024 0
M  V30 858 H 80.8164 3.07419 2.88222 0
M  V30 859 H 79.5404 1.84578 2.69441 0
M  V30 860 H 78.1994 3.43718 1.27489 0
M  V30 861 H 77.8474 3.35291 3.74952 0
M  V30 862 H 77.5474 4.98725 3.1072 0
M  V30 863 H 79.0714 4.63779 3.97166 0
M  V30 864 H 80.4854 5.42888 1.84244 0
M  V30 865 H 78.8824 5.88116 1.19328 0
M  V30 866 H 79.9524 4.84337 0.233536 0
M  V30 867 N 81.2955 -0.223234 1.56011 0
M  V30 868 C 82.2585 -1.26014 1.9145 0
M  V30 869 C 83.2585 -1.3989 0.792937 0
M  V30 870 O 84.4485 -1.38184 1.0607 0
M  V30 871 C 81.5805 -2.63422 2.16383 0
M  V30 872 H 82.7735 -0.95796 2.84189 0
M  V30 873 H 80.3265 -0.463576 1.49267 0
M  V30 874 H 81.0615 -2.98741 1.2619 0
M  V30 875 H 80.8465 -2.54728 2.98088 0
M  V30 876 H 82.3365 -3.38249 2.44903 0
M  V30 877 N 82.7736 -1.49793 -0.48987 0
M  V30 878 C 83.9986 -1.63836 -1.27172 0
M  V30 879 C 84.4236 -0.31402 -1.8546 0
M  V30 880 O 83.7816 0.719803 -1.66399 0
M  V30 881 C 83.8296 -2.71797 -2.36978 0
M  V30 882 O 82.9336 -2.31744 -3.41128 0
M  V30 883 H 82.2746 -0.547997 -0.37496 0
M  V30 884 H 84.8046 -1.96053 -0.585191 0
M  V30 885 H 84.8146 -2.94305 -2.82575 0
M  V30 886 H 83.4896 -3.67923 -1.93921 0
M  V30 887 H 82.0666 -2.1961 -3.01373 0
M  V30 888 N 84.2517 0.741722 -1.39055 0
M  V30 889 C 85.1987 1.85566 -1.37237 0
M  V30 890 C 86.1687 1.64457 -0.233072 0
M  V30 891 O 87.3537 1.85957 -0.427147 0
M  V30 892 C 84.4937 3.23004 -1.215 0
M  V30 893 C 83.6067 3.55864 -2.44918 0
M  V30 894 C 82.7417 4.82669 -2.21821 0
M  V30 895 C 81.7807 5.08351 -3.40948 0
M  V30 896 N 80.9177 6.26356 -3.17211 0
M  V30 897 H 85.7577 1.86455 -2.32462 0
M  V30 898 H 83.2947 0.911176 -1.15482 0
M  V30 899 H 85.2527 4.02331 -1.10389 0
M  V30 900 H 83.8827 3.21411 -0.29908 0
M  V30 901 H 82.9347 2.7129 -2.66657 0
M  V30 902 H 84.2467 3.70765 -3.33668 0
M  V30 903 H 83.4007 5.69962 -2.07914 0
M  V30 904 H 82.1397 4.69929 -1.30454 0
M  V30 905 H 81.1447 4.19522 -3.55361 0
M  V30 906 H 82.3697 5.22981 -4.33207 0
M  V30 907 H 80.3157 6.14917 -2.28502 0
M  V30 908 H 80.2327 6.41813 -3.99515 0
M  V30 909 H 81.5007 7.16506 -3.06984 0
M  V30 910 N 85.7298 1.2412 0.971189 0
M  V30 911 C 86.6768 1.0305 2.06517 0
M  V30 912 C 87.6468 -0.0550666 1.66009 0
M  V30 913 O 88.8318 0.0988688 1.90544 0
M  V30 914 C 85.9718 0.637653 3.39158 0
M  V30 915 C 85.0848 1.79633 3.92882 0
M  V30 916 C 84.2198 1.34939 5.13775 0
M  V30 917 C 83.2588 2.47823 5.59687 0
M  V30 918 N 82.3958 2.04022 6.71803 0
M  V30 919 H 87.2358 1.96685 2.23873 0
M  V30 920 H 84.7728 0.979694 1.09729 0
M  V30 921 H 86.7308 0.390931 4.15364 0
M  V30 922 H 85.3608 -0.261693 3.21737 0
M  V30 923 H 84.4128 2.15681 3.13346 0
M  V30 924 H 85.7248 2.64466 4.22918 0
M  V30 925 H 84.8788 1.06134 5.97345 0
M  V30 926 H 83.6178 0.471557 4.85415 0
M  V30 927 H 82.6228 2.77392 4.74693 0
M  V30 928 H 83.8478 3.36158 5.90063 0
M  V30 929 H 81.7938 1.18632 6.45184 0
M  V30 930 H 81.7108 2.82409 7.01271 0
M  V30 931 H 82.9788 1.78347 7.58823 0
M  V30 932 N 87.2079 -1.17134 1.05439 0
M  V30 933 C 88.4359 -1.91372 0.786414 0
M  V30 934 C 88.8509 -1.76955 -0.658202 0
M  V30 935 O 88.2079 -1.10838 -1.44987 0
M  V30 936 C 88.2589 -3.42356 1.1608 0
M  V30 937 O 87.9799 -3.56332 2.54871 0
M  V30 938 C 89.4809 -4.33663 0.919322 0
M  V30 939 H 86.7009 -0.607118 0.285743 0
M  V30 940 H 89.2449 -1.48525 1.40572 0
M  V30 941 H 87.3999 -3.82939 0.586191 0
M  V30 942 H 87.8139 -4.49896 2.69618 0
M  V30 943 H 89.2879 -5.38099 1.231 0
M  V30 944 H 89.7649 -4.38959 -0.145359 0
M  V30 945 H 90.3709 -3.98796 1.47789 0
M  V30 946 N 88.686 -0.835752 -1.33615 0
M  V30 947 C 89.914 -0.443344 -2.02094 0
M  V30 948 C 90.329 0.954522 -1.62894 0
M  V30 949 O 89.686 1.61982 -0.840723 0
M  V30 950 C 89.737 -0.550775 -3.5728 0
M  V30 951 O 89.458 -1.89356 -3.95065 0
M  V30 952 C 90.959 -0.154919 -4.43029 0
M  V30 953 H 88.179 -0.176359 -0.647409 0
M  V30 954 H 90.723 -1.12746 -1.70612 0
M  V30 955 H 88.878 0.0853997 -3.87306 0
M  V30 956 H 89.292 -1.87687 -4.89769 0
M  V30 957 H 90.766 -0.281144 -5.51284 0
M  V30 958 H 91.243 0.902863 -4.2982 0
M  V30 959 H 91.849 -0.765404 -4.18356 0
M  V30 960 N 90.1641 1.46063 -0.591896 0
M  V30 961 C 91.3921 2.06717 -0.0868936 0
M  V30 962 C 91.8071 1.43916 1.22203 0
M  V30 963 O 91.1641 0.547698 1.74088 0
M  V30 964 C 91.2151 3.6142 0.0758725 0
M  V30 965 O 90.9361 4.21874 -1.18126 0
M  V30 966 C 92.4371 4.39025 0.61416 0
M  V30 967 H 89.6571 0.668162 -0.0616518 0
M  V30 968 H 92.2011 1.8755 -0.815175 0
M  V30 969 H 90.3561 3.79983 0.754413 0
M  V30 970 H 90.7701 5.14861 -1.00092 0
M  V30 971 H 92.2441 5.4783 0.677193 0
M  V30 972 H 92.7211 4.07708 1.63312 0
M  V30 973 H 93.3271 4.2529 -0.0298142 0
M  V30 974 N 91.6422 0.330177 1.54103 0
M  V30 975 C 92.8882 -0.270806 2.00984 0
M  V30 976 C 93.2212 -1.51265 1.21789 0
M  V30 977 O 92.4962 -1.92142 0.301927 0
M  V30 978 C 92.7792 -0.598339 3.55094 0
M  V30 979 C 92.6322 0.654674 4.4501 0
M  V30 980 C 93.9512 -1.41334 4.16789 0
M  V30 981 H 91.0702 -0.0969531 0.730595 0
M  V30 982 H 93.7122 0.448066 1.84641 0
M  V30 983 H 91.8622 -1.21078 3.69151 0
M  V30 984 H 93.5342 1.29285 4.42813 0
M  V30 985 H 91.7772 1.28224 4.14416 0
M  V30 986 H 92.4482 0.380944 5.50684 0
M  V30 987 H 94.9242 -0.895597 4.06347 0
M  V30 988 H 93.8002 -1.61127 5.24718 0
M  V30 989 H 94.0612 -2.41146 3.70541 0
M  V30 990 N 93.1203 -1.57491 0.0584922 0
M  V30 991 C 94.3683 -1.92597 -0.612436 0
M  V30 992 C 94.6893 -0.938162 -1.70949 0
M  V30 993 O 93.9593 0.0158301 -1.95894 0
M  V30 994 H 92.5393 -0.710964 -0.229214 0
M  V30 995 H 95.2013 -1.94571 0.113218 0
M  V30 996 H 94.2973 -2.94038 -1.04633 0
M  V30 997 N 94.5984 0.214957 -1.56127 0
M  V30 998 C 95.8444 0.939762 -1.79712 0
M  V30 999 C 96.1774 1.83723 -0.629247 0
M  V30 1000 O 95.4524 1.90925 0.371197 0
M  V30 1001 C 95.7354 1.77306 -3.13424 0
M  V30 1002 C 95.5884 0.90164 -4.40671 0
M  V30 1003 C 96.9074 2.74956 -3.43638 0
M  V30 1004 H 94.0264 0.340214 -0.653776 0
M  V30 1005 H 96.6684 0.20824 -1.88855 0
M  V30 1006 H 94.8184 2.39673 -3.0576 0
M  V30 1007 H 96.4904 0.294206 -4.60361 0
M  V30 1008 H 94.7334 0.207368 -4.33304 0
M  V30 1009 H 95.4044 1.51923 -5.30682 0
M  V30 1010 H 97.8804 2.22724 -3.51473 0
M  V30 1011 H 96.7564 3.30358 -4.38355 0
M  V30 1012 H 97.0174 3.53023 -2.66134 0
M  V30 1013 N 96.0765 1.50051 0.48192 0
M  V30 1014 C 97.3255 1.59741 1.23149 0
M  V30 1015 C 97.6385 0.298163 1.93314 0
M  V30 1016 O 98.8445 0.273835 2.70116 0
M  V30 1017 C 97.3005 2.81926 2.23708 0
M  V30 1018 C 96.9085 4.18685 1.59396 0
M  V30 1019 C 98.6525 3.00956 2.99375 0
M  V30 1020 C 96.5595 5.3207 2.58178 0
M  V30 1021 H 95.4895 0.594838 0.46334 0
M  V30 1022 H 98.1405 1.76467 0.503169 0
M  V30 1023 H 96.5225 2.58736 2.99786 0
M  V30 1024 H 97.6965 4.52088 0.891811 0
M  V30 1025 H 96.0115 4.05171 0.960503 0
M  V30 1026 H 98.6085 3.82836 3.73283 0
M  V30 1027 H 98.9515 2.12258 3.58123 0
M  V30 1028 H 99.4845 3.24277 2.30411 0
M  V30 1029 H 96.2235 6.22888 2.04184 0
M  V30 1030 H 95.7435 5.03098 3.26577 0
M  V30 1031 H 97.4225 5.62196 3.20225 0
M  V30 1032 N 97.5546 -0.734337 1.39446 0
M  V30 1033 C 98.8036 -1.48937 1.36017 0
M  V30 1034 C 99.1166 -1.95557 -0.0409005 0
M  V30 1035 O 100.323 -2.70779 -0.19778 0
M  V30 1036 C 98.7786 -2.69125 2.38955 0
M  V30 1037 C 98.3866 -2.29452 3.8478 0
M  V30 1038 C 100.131 -3.46944 2.44603 0
M  V30 1039 C 98.0376 -3.46366 4.79358 0
M  V30 1040 H 96.9676 -0.559296 0.505672 0
M  V30 1041 H 99.6186 -0.800983 1.65095 0
M  V30 1042 H 98.0006 -3.40041 2.02948 0
M  V30 1043 H 99.1746 -1.66077 4.29831 0
M  V30 1044 H 97.4896 -1.64723 3.82433 0
M  V30 1045 H 100.087 -4.33907 3.12456 0
M  V30 1046 H 100.43 -3.89454 1.47076 0
M  V30 1047 H 100.963 -2.83056 2.79507 0
M  V30 1048 H 97.7016 -3.08905 5.78151 0
M  V30 1049 H 97.2216 -4.08719 4.38986 0
M  V30 1050 H 98.9006 -4.12691 4.98292 0
M  V30 1051 N 99.0327 -1.24633 -0.964593 0
M  V30 1052 C 100.444 -1.08045 -1.5226 0
M  V30 1053 C 100.795 0.347116 -1.93105 0
M  V30 1054 O 99.9197 1.23588 -1.77637 0
M  V30 1055 C 100.515 -1.95514 -2.76695 0
M  V30 1056 C 99.0737 -1.8314 -3.28841 0
M  V30 1057 C 98.2207 -1.90262 -2.01732 0
M  V30 1058 H 101.172 -1.38064 -0.782553 0
M  V30 1059 H 101.193 -1.48925 -3.50145 0
M  V30 1060 H 100.705 -2.99407 -2.46936 0
M  V30 1061 H 98.8057 -0.82092 -3.63444 0
M  V30 1062 H 98.9187 -2.67406 -3.97531 0
M  V30 1063 H 97.2827 -1.34027 -2.16584 0
M  V30 1064 H 98.0657 -2.9574 -1.74334 0
M  V30 1065 N 100.511 1.16574 -1.06058 0
M  V30 1066 C 101.788 1.83048 -0.689416 0
M  V30 1067 C 102.168 1.94122 0.829443 0
M  V30 1068 O 101.516 1.48249 1.7388 0
M  V30 1069 C 101.726 3.20186 -1.38859 0
M  V30 1070 C 103.074 3.95989 -1.53226 0
M  V30 1071 O 104.098 3.29696 -1.3483 0
M  V30 1072 O 102.957 5.14813 -1.83384 0
M  V30 1073 H 100.051 0.790258 -0.243764 0
M  V30 1074 H 102.597 1.23797 -1.16071 0
M  V30 1075 H 101.369 3.07146 -2.4244 0
M  V30 1076 H 100.992 3.87112 -0.907216 0
M  V30 1077 N 101.989 0.842826 1.3317 0
M  V30 1078 C 103.238 0.436738 1.96915 0
M  V30 1079 C 103.551 -1.01025 1.67491 0
M  V30 1080 O 104.757 -1.5212 2.24881 0
M  V30 1081 C 103.213 0.730021 3.52418 0
M  V30 1082 C 102.821 2.19195 3.90714 0
M  V30 1083 C 104.565 0.391076 4.22695 0
M  V30 1084 C 102.472 2.42907 5.39212 0
M  V30 1085 H 101.402 0.15958 0.736919 0
M  V30 1086 H 104.053 1.03196 1.51733 0
M  V30 1087 H 102.435 0.0643755 3.95948 0
M  V30 1088 H 103.609 2.8984 3.58231 0
M  V30 1089 H 101.924 2.49425 3.33431 0
M  V30 1090 H 104.521 0.545817 5.31907 0
M  V30 1091 H 104.864 -0.666294 4.10933 0
M  V30 1092 H 105.397 1.01212 3.84709 0
M  V30 1093 H 102.136 3.47224 5.55982 0
M  V30 1094 H 101.656 1.76827 5.73142 0
M  V30 1095 H 103.335 2.2626 6.06148 0
M  V30 1096 N 103.467 -1.45747 0.599634 0
M  V30 1097 C 104.692 -2.07178 0.0960198 0
M  V30 1098 C 105.117 -1.44268 -1.207 0
M  V30 1099 O 104.475 -0.532503 -1.73303 0
M  V30 1100 C 104.523 -3.60579 -0.0385348 0
M  V30 1101 O 103.627 -3.97713 -1.0908 0
M  V30 1102 H 102.968 -0.660251 0.0704593 0
M  V30 1103 H 105.498 -1.87124 0.827385 0
M  V30 1104 H 105.508 -4.07298 -0.239304 0
M  V30 1105 H 104.183 -4.05756 0.912947 0
M  V30 1106 H 102.76 -3.62678 -0.867135 0
M  V30 1107 N 104.945 -0.338344 -1.53925 0
M  V30 1108 C 105.893 0.536231 -2.26335 0
M  V30 1109 C 106.887 1.1063 -1.28286 0
M  V30 1110 O 108.093 1.05264 -1.46012 0
M  V30 1111 H 104.468 0.191602 -0.727181 0
M  V30 1112 H 106.439 -0.0965747 -2.98244 0
M  V30 1113 C 105.188 1.67803 -3.04528 0
M  V30 1114 H 104.511 1.24864 -3.79801 0
M  V30 1115 H 105.951 2.26526 -3.58416 0
M  V30 1116 C 104.41 2.60439 -2.13712 0
M  V30 1117 O 104.94 3.6255 -1.72975 0
M  V30 1118 N 103.146 2.29006 -1.78898 0
M  V30 1119 H 102.693 1.46011 -2.12223 0
M  V30 1120 H 102.651 2.91248 -1.18416 0
M  V30 1121 N 106.423 1.57458 -0.0668435 0
M  V30 1122 C 107.672 1.92477 0.602947 0
M  V30 1123 C 107.985 0.948419 1.71068 0
M  V30 1124 O 109.191 1.19124 2.43971 0
M  V30 1125 C 107.647 3.41903 1.12383 0
M  V30 1126 C 107.255 4.47975 0.04737 0
M  V30 1127 C 108.999 3.85931 1.76797 0
M  V30 1128 C 106.906 5.88529 0.582022 0
M  V30 1129 H 105.836 0.718387 0.22899 0
M  V30 1130 H 108.487 1.82978 -0.138276 0
M  V30 1131 H 106.869 3.46459 1.91787 0
M  V30 1132 H 108.043 4.55029 -0.726978 0
M  V30 1133 H 106.358 4.13384 -0.500243 0
M  V30 1134 H 108.955 4.88322 2.17821 0
M  V30 1135 H 109.298 3.23029 2.62599 0
M  V30 1136 H 109.831 3.83958 1.04024 0
M  V30 1137 H 106.57 6.55065 -0.238721 0
M  V30 1138 H 106.09 5.85004 1.324 0
M  V30 1139 H 107.769 6.38258 1.05999 0
M  V30 1140 N 107.901 -0.206675 1.56239 0
M  V30 1141 C 109.148 -0.928842 1.79941 0
M  V30 1142 C 109.476 -1.83734 0.638131 0
M  V30 1143 O 108.731 -1.92039 -0.376746 0
M  V30 1144 C 109.03 -1.78675 3.09532 0
M  V30 1145 C 108.696 -1.03022 4.38973 0
M  V30 1146 C 107.358 -0.821302 4.74139 0
M  V30 1147 C 109.71 -0.497081 5.18824 0
M  V30 1148 C 107.038 -0.0675719 5.86661 0
M  V30 1149 C 109.39 0.24338 6.32132 0
M  V30 1150 C 108.054 0.463422 6.65889 0
M  V30 1151 H 107.324 -0.339887 0.658451 0
M  V30 1152 H 109.971 -0.195977 1.90495 0
M  V30 1153 H 108.276 -2.58794 2.94165 0
M  V30 1154 H 109.973 -2.34792 3.25075 0
M  V30 1155 H 106.563 -1.20306 4.11369 0
M  V30 1156 H 110.747 -0.645921 4.92079 0
M  V30 1157 H 106.003 0.112995 6.11296 0
M  V30 1158 H 110.177 0.66393 6.93228 0
M  V30 1159 H 107.804 1.04938 7.52922 0
M  V30 1160 N 109.379 -1.50304 -0.473955 0
M  V30 1161 C 110.609 -1.64663 -1.24778 0
M  V30 1162 C 111.017 -0.328174 -1.86332 0
M  V30 1163 O 110.36 0.699536 -1.69859 0
M  V30 1164 C 110.422 -2.6778 -2.39863 0
M  V30 1165 C 110.086 -4.11413 -1.98969 0
M  V30 1166 C 111.083 -4.97372 -1.51385 0
M  V30 1167 C 108.768 -4.57312 -2.07777 0
M  V30 1168 C 110.762 -6.27277 -1.13148 0
M  V30 1169 C 108.449 -5.87223 -1.69152 0
M  V30 1170 C 109.447 -6.72031 -1.21915 0
M  V30 1171 O 109.135 -7.99518 -0.838237 0
M  V30 1172 H 108.867 -0.556602 -0.383627 0
M  V30 1173 H 111.421 -1.9726 -0.572491 0
M  V30 1174 H 109.651 -2.30419 -3.10554 0
M  V30 1175 H 111.34 -2.71388 -3.01833 0
M  V30 1176 H 112.106 -4.63128 -1.44004 0
M  V30 1177 H 107.985 -3.91449 -2.43493 0
M  V30 1178 H 111.529 -6.93425 -0.762077 0
M  V30 1179 H 107.426 -6.20989 -1.76191 0
M  V30 1180 H 108.194 -8.12764 -0.967339 0
M  V30 1181 N 110.857 0.726932 -1.39834 0
M  V30 1182 C 111.82 1.82269 -1.38962 0
M  V30 1183 C 112.82 1.58248 -0.285334 0
M  V30 1184 O 114.01 1.65499 -0.54366 0
M  V30 1185 C 111.142 3.20186 -1.17019 0
M  V30 1186 H 112.335 1.84443 -2.36476 0
M  V30 1187 H 109.888 0.931416 -1.25516 0
M  V30 1188 H 110.623 3.23669 -0.202204 0
M  V30 1189 H 110.408 3.3902 -1.96998 0
M  V30 1190 H 111.898 4.00235 -1.1917 0
M  V30 1191 N 112.336 1.25143 0.95797 0
M  V30 1192 C 113.246 1.06968 2.08794 0
M  V30 1193 C 114.262 0.00773911 1.73998 0
M  V30 1194 O 115.438 0.207972 2.00323 0
M  V30 1195 C 112.503 0.68691 3.39827 0
M  V30 1196 C 111.564 1.82641 3.88511 0
M  V30 1197 C 110.797 1.46181 5.1329 0
M  V30 1198 O 111.02 0.355971 5.69288 0
M  V30 1199 O 109.954 2.29085 5.566 0
M  V30 1200 H 113.78 2.01723 2.27027 0
M  V30 1201 H 111.365 1.04051 1.07209 0
M  V30 1202 H 113.247 0.485417 4.18595 0
M  V30 1203 H 111.922 -0.231417 3.22872 0
M  V30 1204 H 110.829 2.08274 3.10762 0
M  V30 1205 H 112.162 2.72386 4.09959 0
M  V30 1206 N 113.814 -1.1601 1.06675 0
M  V30 1207 C 114.744 -2.22688 0.702307 0
M  V30 1208 C 115.725 -1.67306 -0.307032 0
M  V30 1209 O 116.91 -1.93352 -0.181305 0
M  V30 1210 C 114.04 -3.47178 0.092038 0
M  V30 1211 C 112.994 -4.15477 1.02777 0
M  V30 1212 C 112.32 -5.33963 0.28061 0
M  V30 1213 C 113.62 -4.66019 2.35846 0
M  V30 1214 H 115.314 -2.53429 1.59419 0
M  V30 1215 H 112.86 -1.21813 0.767961 0
M  V30 1216 H 114.813 -4.21037 -0.174814 0
M  V30 1217 H 113.537 -3.15749 -0.834877 0
M  V30 1218 H 112.196 -3.43549 1.27944 0
M  V30 1219 H 111.844 -4.98788 -0.649545 0
M  V30 1220 H 111.544 -5.806 0.904258 0
M  V30 1221 H 113.068 -6.10596 0.021396 0
M  V30 1222 H 114.482 -5.3144 2.15045 0
M  V30 1223 H 112.879 -5.23293 2.93743 0
M  V30 1224 H 113.949 -3.82023 2.98641 0
M  V30 1225 N 115.292 -0.849877 -1.32721 0
M  V30 1226 C 116.255 -0.296122 -2.27279 0
M  V30 1227 C 117.255 0.541458 -1.5141 0
M  V30 1228 O 118.445 0.353658 -1.70572 0
M  V30 1229 C 115.577 0.581579 -3.35902 0
M  V30 1230 H 116.77 -1.13064 -2.77771 0
M  V30 1231 H 114.323 -0.62383 -1.43311 0
M  V30 1232 H 115.058 1.43809 -2.9067 0
M  V30 1233 H 114.843 -0.0178814 -3.92096 0
M  V30 1234 H 116.333 0.961951 -4.0637 0
M  V30 1235 N 116.77 1.45427 -0.607355 0
M  V30 1236 C 118.186 1.57283 -0.270985 0
M  V30 1237 C 118.386 1.59875 1.22647 0
M  V30 1238 O 117.442 1.52893 2.00948 0
M  V30 1239 C 118.755 2.85566 -0.941952 0
M  V30 1240 C 120.303 2.9924 -0.917849 0
M  V30 1241 C 120.778 4.30293 -1.56882 0
M  V30 1242 N 122.269 4.37051 -1.5343 0
M  V30 1243 C 123.004 5.37123 -2.00715 0
M  V30 1244 N 122.5 6.43734 -2.56084 0
M  V30 1245 N 124.293 5.28479 -1.91484 0
M  V30 1246 H 116.444 1.41988 -1.57966 0
M  V30 1247 H 118.707 0.67885 -0.661715 0
M  V30 1248 H 118.413 2.8955 -1.99633 0
M  V30 1249 H 118.287 3.74322 -0.465096 0
M  V30 1250 H 120.674 2.94822 0.127984 0
M  V30 1251 H 120.755 2.11895 -1.43297 0
M  V30 1252 H 120.399 4.35469 -2.61398 0
M  V30 1253 H 120.329 5.16454 -1.02873 0
M  V30 1254 H 122.82 3.60615 -1.12982 0
M  V30 1255 H 123.133 7.16341 -2.89958 0
M  V30 1256 H 121.478 6.44485 -2.60122 0
M  V30 1257 H 124.669 4.44098 -1.47967 0
M  V30 1258 H 124.842 6.0632 -2.28648 0
M  V30 1259 N 118.248 0.346503 1.53744 0
M  V30 1260 C 119.496 -0.248612 2.00565 0
M  V30 1261 C 119.817 -1.5083 1.23593 0
M  V30 1262 O 119.087 -1.92858 0.343912 0
M  V30 1263 H 117.667 -0.0948564 0.740953 0
M  V30 1264 H 120.329 0.468341 1.89189 0
M  V30 1265 H 119.425 -0.488994 3.08245 0
M  V30 1266 N 119.726 -1.57421 0.075193 0
M  V30 1267 C 120.975 -1.92794 -0.592731 0
M  V30 1268 C 121.288 -0.957478 -1.70563 0
M  V30 1269 O 122.494 -1.20417 -2.43335 0
M  V30 1270 C 120.95 -3.42495 -1.10569 0
M  V30 1271 C 120.558 -4.47994 -0.0236121 0
M  V30 1272 C 122.302 -3.86864 -1.74748 0
M  V30 1273 C 120.209 -5.88829 -0.550803 0
M  V30 1274 H 119.139 -0.719591 -0.225177 0
M  V30 1275 H 121.79 -1.82902 0.147978 0
M  V30 1276 H 120.172 -3.47471 -1.89947 0
M  V30 1277 H 121.346 -4.54637 0.751099 0
M  V30 1278 H 119.661 -4.13113 0.522159 0
M  V30 1279 H 122.258 -4.8947 -2.15229 0
M  V30 1280 H 122.601 -3.24417 -2.60882 0
M  V30 1281 H 123.134 -3.84504 -1.01986 0
M  V30 1282 H 119.873 -6.54929 0.273457 0
M  V30 1283 H 119.393 -5.85698 -1.29296 0
M  V30 1284 H 121.072 -6.38811 -1.02613 0
M  V30 1285 N 121.204 0.198386 -1.56346 0
M  V30 1286 C 122.114 1.2664 -1.97483 0
M  V30 1287 C 123.13 1.49989 -0.882002 0
M  V30 1288 O 124.306 1.62668 -1.18748 0
M  V30 1289 C 121.371 2.59141 -2.30319 0
M  V30 1290 C 120.432 2.43892 -3.53292 0
M  V30 1291 C 119.665 3.70074 -3.84553 0
M  V30 1292 O 119.888 4.74101 -3.1715 0
M  V30 1293 O 118.822 3.658 -4.7799 0
M  V30 1294 H 122.648 0.947304 -2.88548 0
M  V30 1295 H 120.233 0.403123 -1.43859 0
M  V30 1296 H 122.115 3.37352 -2.5253 0
M  V30 1297 H 120.79 2.90684 -1.42423 0
M  V30 1298 H 119.697 1.63803 -3.36332 0
M  V30 1299 H 121.03 2.17282 -4.41644 0
M  V30 1300 N 122.682 1.50554 0.465978 0
M  V30 1301 C 123.959 1.5232 1.22712 0
M  V30 1302 C 124.339 0.270807 2.09356 0
M  V30 1303 O 123.687 -0.745541 2.15995 0
M  V30 1304 C 123.897 2.82175 2.05374 0
M  V30 1305 C 125.245 3.33033 2.6339 0
M  V30 1306 O 126.269 2.83531 2.15612 0
M  V30 1307 O 125.128 4.19336 3.50456 0
M  V30 1308 H 122.222 0.611183 0.557122 0
M  V30 1309 H 124.768 1.62847 0.477381 0
M  V30 1310 H 123.54 3.64797 1.41558 0
M  V30 1311 H 123.163 2.74675 2.87471 0
M  V30 1312 N 124.16 -0.719506 1.40217 0
M  V30 1313 C 125.409 -1.47486 1.37589 0
M  V30 1314 C 125.722 -1.9559 -0.0201568 0
M  V30 1315 O 126.928 -2.70973 -0.169049 0
M  V30 1316 C 125.384 -2.66575 2.41796 0
M  V30 1317 C 124.992 -2.25358 3.87192 0
M  V30 1318 C 126.736 -3.4433 2.48269 0
M  V30 1319 C 124.643 -3.41262 4.83005 0
M  V30 1320 H 123.573 -0.553901 0.511576 0
M  V30 1321 H 126.224 -0.783427 1.65936 0
M  V30 1322 H 124.606 -3.3787 2.06543 0
M  V30 1323 H 125.78 -1.61509 4.31569 0
M  V30 1324 H 124.095 -1.60657 3.84159 0
M  V30 1325 H 126.692 -4.30569 3.17041 0
M  V30 1326 H 127.035 -3.87872 1.51198 0
M  V30 1327 H 127.568 -2.80076 2.82493 0
M  V30 1328 H 124.307 -3.02755 5.81394 0
M  V30 1329 H 123.827 -4.0404 4.43297 0
M  V30 1330 H 125.506 -4.07383 5.02641 0
M  V30 1331 N 125.638 -1.25649 -0.95132 0
M  V30 1332 C 126.601 -1.06399 -2.03007 0
M  V30 1333 C 127.601 -0.0156794 -1.60792 0
M  V30 1334 O 128.791 -0.25817 -1.72276 0
M  V30 1335 C 125.923 -0.616184 -3.35285 0
M  V30 1336 H 127.116 -2.02164 -2.21517 0
M  V30 1337 H 124.669 -1.08103 -1.12887 0
M  V30 1338 H 125.404 0.343917 -3.22471 0
M  V30 1339 H 125.189 -1.37301 -3.67275 0
M  V30 1340 H 126.679 -0.503032 -4.14559 0
M  V30 1341 N 127.117 1.15442 -1.07289 0
M  V30 1342 C 128.345 1.90096 -0.81676 0
M  V30 1343 C 128.76 1.7798 0.629966 0
M  V30 1344 O 128.117 1.1313 1.43206 0
M  V30 1345 C 128.168 3.40466 -1.21512 0
M  V30 1346 O 127.889 3.52232 -2.60508 0
M  V30 1347 C 129.39 4.32145 -0.988198 0
M  V30 1348 H 126.61 0.602495 -0.295366 0
M  V30 1349 H 129.154 1.4627 -1.42918 0
M  V30 1350 H 127.309 3.81958 -0.647039 0
M  V30 1351 H 127.723 4.45549 -2.76742 0
M  V30 1352 H 129.197 5.36072 -1.31645 0
M  V30 1353 H 129.674 4.39135 0.0755063 0
M  V30 1354 H 130.28 3.96395 -1.54115 0
M  V30 1355 N 128.595 0.856903 1.32268 0
M  V30 1356 C 129.528 0.247937 2.26849 0
M  V30 1357 C 130.506 -0.615382 1.50505 0
M  V30 1358 O 131.69 -0.571689 1.79622 0
M  V30 1359 C 128.817 -0.650093 3.32403 0
M  V30 1360 C 127.863 0.140138 4.2627 0
M  V30 1361 S 128.696 1.51004 5.13769 0
M  V30 1362 C 129.852 0.61778 6.22844 0
M  V30 1363 H 130.085 1.04971 2.78152 0
M  V30 1364 H 127.618 0.654665 1.39834 0
M  V30 1365 H 129.576 -1.16256 3.93694 0
M  V30 1366 H 128.237 -1.4257 2.7988 0
M  V30 1367 H 127.43 -0.543945 5.01056 0
M  V30 1368 H 127.032 0.584267 3.69408 0
M  V30 1369 H 129.324 -0.177053 6.77269 0
M  V30 1370 H 130.267 1.33636 6.95375 0
M  V30 1371 H 130.675 0.191124 5.64176 0
M  V30 1372 N 130.073 -1.45103 0.615059 0
M  V30 1373 C 131.303 -2.06254 0.119596 0
M  V30 1374 C 131.711 -1.4591 -1.20445 0
M  V30 1375 O 131.054 -0.570384 -1.7462 0
M  V30 1376 C 131.116 -3.59396 -0.0865591 0
M  V30 1377 C 130.78 -4.42116 1.15683 0
M  V30 1378 C 131.777 -4.7662 2.07676 0
M  V30 1379 C 129.462 -4.82749 1.38775 0
M  V30 1380 C 131.456 -5.50622 3.21082 0
M  V30 1381 C 129.143 -5.56504 2.52481 0
M  V30 1382 C 130.141 -5.90358 3.43463 0
M  V30 1383 O 129.829 -6.62615 4.55189 0
M  V30 1384 H 129.561 -0.672423 0.0694512 0
M  V30 1385 H 132.115 -1.87219 0.844885 0
M  V30 1386 H 130.345 -3.76859 -0.866823 0
M  V30 1387 H 132.034 -4.02365 -0.534555 0
M  V30 1388 H 132.8 -4.4578 1.91063 0
M  V30 1389 H 128.679 -4.55829 0.688545 0
M  V30 1390 H 132.223 -5.76965 3.92119 0
M  V30 1391 H 128.12 -5.86759 2.69043 0
M  V30 1392 H 128.888 -6.81071 4.53966 0
M  V30 1393 N 131.551 -0.354651 -1.53558 0
M  V30 1394 C 132.498 0.496968 -2.25386 0
M  V30 1395 C 133.468 1.0865 -1.25636 0
M  V30 1396 O 134.653 1.12104 -1.54394 0
M  V30 1397 C 131.793 1.63637 -3.03837 0
M  V30 1398 C 130.906 1.07307 -4.18461 0
M  V30 1399 C 130.041 2.18068 -4.84376 0
M  V30 1400 C 129.08 1.59147 -5.91049 0
M  V30 1401 N 128.217 2.63695 -6.50699 0
M  V30 1402 H 133.057 -0.122075 -2.9775 0
M  V30 1403 H 130.594 -0.0720154 -1.46924 0
M  V30 1404 H 132.552 2.30734 -3.47589 0
M  V30 1405 H 131.182 2.22623 -2.33749 0
M  V30 1406 H 130.234 0.292708 -3.79272 0
M  V30 1407 H 131.546 0.602193 -4.95152 0
M  V30 1408 H 130.7 2.93007 -5.31255 0
M  V30 1409 H 129.439 2.68504 -4.07133 0
M  V30 1410 H 128.444 0.827175 -5.43542 0
M  V30 1411 H 129.669 1.09549 -6.70206 0
M  V30 1412 H 127.615 3.13365 -5.76315 0
M  V30 1413 H 127.532 2.21263 -7.22896 0
M  V30 1414 H 128.8 3.3837 -7.02229 0
M  V30 1415 N 133.029 1.57378 -0.0835403 0
M  V30 1416 C 134.259 1.97975 0.590713 0
M  V30 1417 C 134.667 0.961083 1.62972 0
M  V30 1418 O 134.01 -0.0590879 1.83605 0
M  V30 1419 C 134.072 3.34915 1.3066 0
M  V30 1420 C 133.736 4.55069 0.419698 0
M  V30 1421 C 134.733 5.18868 -0.32749 0
M  V30 1422 C 132.418 5.0114 0.341137 0
M  V30 1423 C 134.412 6.27098 -1.14134 0
M  V30 1424 C 132.099 6.0924 -0.476374 0
M  V30 1425 C 133.097 6.72083 -1.21627 0
M  V30 1426 O 132.785 7.781 -2.02028 0
M  V30 1427 H 132.517 0.655818 0.163947 0
M  V30 1428 H 135.071 2.04807 -0.156021 0
M  V30 1429 H 133.301 3.24733 2.09966 0
M  V30 1430 H 134.99 3.60037 1.87424 0
M  V30 1431 H 135.756 4.84211 -0.276459 0
M  V30 1432 H 131.635 4.51996 0.90668 0
M  V30 1433 H 135.179 6.7608 -1.71935 0
M  V30 1434 H 131.076 6.43329 -0.528927 0
M  V30 1435 H 131.844 7.95034 -1.94586 0
M  V30 1436 N 134.507 -0.190092 1.56449 0
M  V30 1437 C 135.455 -1.25501 1.95837 0
M  V30 1438 C 136.449 -1.4685 0.844485 0
M  V30 1439 O 137.655 -1.47651 1.02952 0
M  V30 1440 H 134.03 -0.421447 0.622805 0
M  V30 1441 H 136.001 -0.895821 2.84636 0
M  V30 1442 C 134.75 -2.59124 2.31841 0
M  V30 1443 H 134.073 -2.43514 3.17082 0
M  V30 1444 H 135.513 -3.32371 2.6326 0
M  V30 1445 C 133.972 -3.16488 1.15486 0
M  V30 1446 O 134.502 -3.99365 0.432535 0
M  V30 1447 N 132.708 -2.75305 0.930349 0
M  V30 1448 H 132.255 -2.08013 1.51948 0
M  V30 1449 H 132.213 -3.14024 0.153634 0
M  V30 1450 N 135.985 -1.50799 -0.457987 0
M  V30 1451 C 137.234 -1.6168 -1.20593 0
M  V30 1452 C 137.547 -0.32888 -1.92815 0
M  V30 1453 O 138.753 -0.316773 -2.69646 0
M  V30 1454 C 137.209 -2.8545 -2.19195 0
M  V30 1455 C 136.817 -4.21168 -1.52715 0
M  V30 1456 C 138.561 -3.05681 -2.94549 0
M  V30 1457 C 136.468 -5.3611 -2.4968 0
M  V30 1458 H 135.398 -0.602134 -0.453818 0
M  V30 1459 H 138.049 -1.77245 -0.475031 0
M  V30 1460 H 136.431 -2.63472 -2.95632 0
M  V30 1461 H 137.605 -4.53449 -0.819775 0
M  V30 1462 H 135.92 -4.06648 -0.895922 0
M  V30 1463 H 138.517 -3.88727 -3.67145 0
M  V30 1464 H 138.86 -2.17929 -3.54701 0
M  V30 1465 H 139.393 -3.27901 -2.25223 0
M  V30 1466 H 136.132 -6.26057 -1.94249 0
M  V30 1467 H 135.652 -5.0823 -3.18532 0
M  V30 1468 H 137.331 -5.6722 -3.11241 0
M  V30 1469 N 137.463 0.71206 -1.40597 0
M  V30 1470 C 138.712 1.46754 -1.38369 0
M  V30 1471 C 139.025 1.95598 0.0097839 0
M  V30 1472 O 140.231 2.71059 0.154677 0
M  V30 1473 C 138.687 2.65289 -2.43207 0
M  V30 1474 C 138.295 2.23301 -3.88382 0
M  V30 1475 C 140.039 3.43008 -2.50091 0
M  V30 1476 C 137.946 3.38696 -4.84808 0
M  V30 1477 H 136.876 0.55118 -0.514506 0
M  V30 1478 H 139.527 0.774616 -1.66349 0
M  V30 1479 H 137.909 3.36769 -2.08332 0
M  V30 1480 H 139.083 1.59218 -4.32419 0
M  V30 1481 H 137.398 1.58618 -3.85006 0
M  V30 1482 H 139.995 4.28881 -3.1932 0
M  V30 1483 H 140.338 3.87065 -1.53253 0
M  V30 1484 H 140.871 2.78574 -2.83974 0
M  V30 1485 H 137.61 2.99668 -5.82992 0
M  V30 1486 H 137.13 4.01683 -4.45433 0
M  V30 1487 H 138.809 4.04712 -5.04794 0
M  V30 1488 N 138.941 1.26152 0.944643 0
M  V30 1489 C 139.871 1.09902 2.06019 0
M  V30 1490 C 140.852 0.00519538 1.70099 0
M  V30 1491 O 142.037 0.176583 1.93396 0
M  V30 1492 C 139.167 0.727562 3.39594 0
M  V30 1493 C 138.121 1.77274 3.89561 0
M  V30 1494 C 137.447 1.25569 5.19747 0
M  V30 1495 C 138.747 3.17357 4.14827 0
M  V30 1496 H 140.441 2.03217 2.19871 0
M  V30 1497 H 137.987 0.978452 1.05652 0
M  V30 1498 H 139.94 0.600777 4.17095 0
M  V30 1499 H 138.664 -0.241287 3.25707 0
M  V30 1500 H 137.323 1.88814 3.14237 0
M  V30 1501 H 136.971 0.276783 5.02238 0
M  V30 1502 H 136.671 1.95433 5.54148 0
M  V30 1503 H 138.195 1.1415 5.99835 0
M  V30 1504 H 139.609 3.08914 4.82954 0
M  V30 1505 H 138.006 3.84781 4.60504 0
M  V30 1506 H 139.076 3.63673 3.20734 0
M  V30 1507 N 140.419 -1.14872 1.07899 0
M  V30 1508 C 141.644 -1.90202 0.826926 0
M  V30 1509 C 142.069 -1.77774 -0.614664 0
M  V30 1510 O 141.427 -1.11431 -1.43013 0
M  V30 1511 C 141.475 -3.38352 1.24702 0
M  V30 1512 O 140.579 -4.10497 0.39575 0
M  V30 1513 H 139.92 -0.591968 0.300782 0
M  V30 1514 H 142.45 -1.45437 1.43907 0
M  V30 1515 H 142.46 -3.89156 1.22563 0
M  V30 1516 H 141.135 -3.46715 2.29698 0
M  V30 1517 H 139.712 -3.69796 0.480117 0
M  V30 1518 N 141.898 -0.863906 -1.31812 0
M  V30 1519 C 142.846 -0.30422 -2.30602 0
M  V30 1520 C 143.84 0.577419 -1.59255 0
M  V30 1521 O 145.046 0.464194 -1.73912 0
M  V30 1522 H 141.421 -0.0796877 -0.747766 0
M  V30 1523 H 143.392 -1.15148 -2.75288 0
M  V30 1524 C 142.141 0.484617 -3.44306 0
M  V30 1525 H 141.464 -0.18451 -3.99374 0
M  V30 1526 H 142.904 0.841664 -4.15562 0
M  V30 1527 C 141.363 1.6735 -2.92396 0
M  V30 1528 O 141.893 2.77273 -2.90659 0
M  V30 1529 N 140.099 1.50362 -2.48676 0
M  V30 1530 H 139.646 0.609402 -2.50288 0
M  V30 1531 H 139.604 2.30051 -2.14299 0
M  V30 1532 N 143.376 1.44774 -0.622745 0
M  V30 1533 C 144.601 2.06999 -0.128968 0
M  V30 1534 C 145.026 1.4617 1.1839 0
M  V30 1535 O 144.384 0.560007 1.72434 0
M  V30 1536 C 144.432 3.60595 -0.0188351 0
M  V30 1537 O 143.536 3.99398 1.02739 0
M  V30 1538 H 142.877 0.659047 -0.0809544 0
M  V30 1539 H 145.407 1.85784 -0.85705 0
M  V30 1540 H 145.417 4.07627 0.174476 0
M  V30 1541 H 144.092 4.04252 -0.977384 0
M  V30 1542 H 142.669 3.64011 0.809326 0
M  V30 1543 N 144.854 0.36279 1.53368 0
M  V30 1544 C 146.131 -0.284021 1.93527 0
M  V30 1545 C 146.511 -1.66628 1.29608 0
M  V30 1546 O 145.859 -2.23942 0.45413 0
M  V30 1547 C 146.069 -0.337028 3.47369 0
M  V30 1548 C 147.417 -0.578708 4.20638 0
M  V30 1549 O 148.441 -0.418352 3.53735 0
M  V30 1550 O 147.3 -0.89074 5.39192 0
M  V30 1551 H 144.394 -0.169743 0.809393 0
M  V30 1552 H 146.94 0.41537 1.64538 0
M  V30 1553 H 145.712 0.632217 3.86159 0
M  V30 1554 H 145.335 -1.08243 3.82582 0
M  V30 1555 N 146.332 -1.57332 0.0918853 0
M  V30 1556 C 147.264 -2.10869 -0.898168 0
M  V30 1557 C 148.277 -1.04521 -1.24817 0
M  V30 1558 O 149.466 -1.31977 -1.20184 0
M  V30 1559 C 146.566 -2.57083 -2.2082 0
M  V30 1560 C 145.739 -3.87229 -2.03402 0
M  V30 1561 C 144.798 -4.19324 -3.17889 0
M  V30 1562 O 143.824 -4.88598 -2.91994 0
M  V30 1563 N 145.026 -3.74471 -4.43567 0
M  V30 1564 H 147.791 -2.96439 -0.440943 0
M  V30 1565 H 145.352 -1.61631 -0.0933064 0
M  V30 1566 H 147.344 -2.75602 -2.96354 0
M  V30 1567 H 145.914 -1.76541 -2.57977 0
M  V30 1568 H 145.134 -3.7789 -1.12218 0
M  V30 1569 H 146.422 -4.72379 -1.89038 0
M  V30 1570 H 145.82 -3.18546 -4.67488 0
M  V30 1571 H 144.377 -3.98151 -5.16061 0
M  V30 1572 N 147.81 0.181792 -1.56548 0
M  V30 1573 C 148.758 1.24461 -1.965 0
M  V30 1574 C 149.752 1.464 -0.852261 0
M  V30 1575 O 150.958 1.47103 -1.03733 0
M  V30 1576 H 147.333 0.418138 -0.625031 0
M  V30 1577 H 149.304 0.880714 -2.85107 0
M  V30 1578 C 148.053 2.57891 -2.33212 0
M  V30 1579 H 147.376 2.41829 -3.18369 0
M  V30 1580 H 148.816 3.3097 -2.65019 0
M  V30 1581 C 147.275 3.15871 -1.17163 0
M  V30 1582 O 147.805 3.9913 -0.453708 0
M  V30 1583 N 146.011 2.74808 -0.944936 0
M  V30 1584 H 145.558 2.07205 -1.53049 0
M  V30 1585 H 145.516 3.13939 -0.170286 0
M  V30 1586 N 149.288 1.51039 0.449983 0
M  V30 1587 C 150.22 1.67617 1.56324 0
M  V30 1588 C 151.233 0.557083 1.52972 0
M  V30 1589 O 152.422 0.830989 1.57977 0
M  V30 1590 C 149.522 1.66402 2.95235 0
M  V30 1591 C 148.695 2.9469 3.23229 0
M  V30 1592 C 147.754 2.85832 4.41799 0
M  V30 1593 O 146.78 3.59785 4.41071 0
M  V30 1594 N 147.982 2.00821 5.44657 0
M  V30 1595 H 150.747 2.63648 1.42512 0
M  V30 1596 H 148.308 1.48767 0.638737 0
M  V30 1597 H 150.3 1.58062 3.72557 0
M  V30 1598 H 148.87 0.780182 3.02708 0
M  V30 1599 H 148.09 3.16996 2.34323 0
M  V30 1600 H 149.378 3.79636 3.38754 0
M  V30 1601 H 148.776 1.40091 5.48079 0
M  V30 1602 H 147.333 1.98368 6.20881 0
M  V30 1603 N 150.766 -0.704594 1.40972 0
M  V30 1604 C 152.043 -1.45847 1.30338 0
M  V30 1605 C 152.423 -2.10973 -0.0732344 0
M  V30 1606 O 151.771 -2.00997 -1.08685 0
M  V30 1607 C 151.981 -2.48525 2.45023 0
M  V30 1608 C 153.329 -3.1404 2.8577 0
M  V30 1609 O 154.353 -2.58848 2.44696 0
M  V30 1610 O 153.212 -4.13981 3.56766 0
M  V30 1611 H 150.306 -0.649092 0.512454 0
M  V30 1612 H 152.852 -0.735836 1.52917 0
M  V30 1613 H 151.624 -1.98994 3.36923 0
M  V30 1614 H 151.247 -3.2831 2.24272 0
M  V30 1615 N 152.244 -1.26651 -0.937939 0
M  V30 1616 C 153.191 -1.0849 -2.03712 0
M  V30 1617 C 154.161 0.011033 -1.66096 0
M  V30 1618 O 155.346 -0.149353 -1.90215 0
M  V30 1619 C 152.486 -0.72735 -3.37348 0
M  V30 1620 C 151.599 -1.89986 -3.87981 0
M  V30 1621 C 150.734 -1.48513 -5.10017 0
M  V30 1622 C 149.773 -2.62575 -5.5292 0
M  V30 1623 N 148.91 -2.21762 -6.66158 0
M  V30 1624 H 153.75 -2.02551 -2.18579 0
M  V30 1625 H 151.287 -1.00844 -1.07093 0
M  V30 1626 H 153.245 -0.50092 -4.14182 0
M  V30 1627 H 151.875 0.176298 -3.22318 0
M  V30 1628 H 150.927 -2.23913 -3.07518 0
M  V30 1629 H 152.239 -2.75586 -4.15757 0
M  V30 1630 H 151.393 -1.21934 -5.94321 0
M  V30 1631 H 150.132 -0.60009 -4.83994 0
M  V30 1632 H 149.137 -2.8988 -4.67172 0
M  V30 1633 H 150.362 -3.51685 -5.80943 0
M  V30 1634 H 148.308 -1.35696 -6.41812 0
M  V30 1635 H 148.225 -3.00903 -6.93537 0
M  V30 1636 H 149.493 -1.98403 -7.53828 0
M  V30 1637 N 153.722 1.14298 -1.08507 0
M  V30 1638 C 154.632 2.23027 -0.727753 0
M  V30 1639 C 155.648 1.71952 0.26619 0
M  V30 1640 O 156.824 2.011 0.109882 0
M  V30 1641 C 153.889 3.46403 -0.143541 0
M  V30 1642 C 152.95 4.12413 -1.19223 0
M  V30 1643 C 152.183 5.29899 -0.635798 0
M  V30 1644 O 152.406 5.67796 0.544393 0
M  V30 1645 O 151.34 5.85717 -1.38634 0
M  V30 1646 H 155.166 2.55945 -1.63481 0
M  V30 1647 H 152.751 1.22248 -0.858817 0
M  V30 1648 H 154.633 4.21018 0.179404 0
M  V30 1649 H 153.308 3.15206 0.736659 0
M  V30 1650 H 152.215 3.39667 -1.56772 0
M  V30 1651 H 153.548 4.47718 -2.04474 0
M  V30 1652 N 155.201 0.870884 1.31352 0
M  V30 1653 C 156.131 0.343096 2.30966 0
M  V30 1654 C 157.112 -0.566507 1.60389 0
M  V30 1655 O 158.297 -0.483336 1.88089 0
M  V30 1656 C 155.427 -0.455487 3.443 0
M  V30 1657 C 154.381 0.361103 4.26474 0
M  V30 1658 C 153.707 -0.563221 5.31725 0
M  V30 1659 C 155.007 1.59566 4.97329 0
M  V30 1660 H 156.701 1.17548 2.75359 0
M  V30 1661 H 154.247 0.566686 1.32381 0
M  V30 1662 H 156.2 -0.83525 4.13039 0
M  V30 1663 H 154.924 -1.32139 2.98675 0
M  V30 1664 H 153.583 0.722825 3.59403 0
M  V30 1665 H 153.231 -1.42643 4.82351 0
M  V30 1666 H 152.931 -0.0207409 5.87596 0
M  V30 1667 H 154.455 -0.939808 6.03324 0
M  V30 1668 H 155.869 1.28728 5.58661 0
M  V30 1669 H 154.266 2.07728 5.63 0
M  V30 1670 H 155.336 2.34798 4.24262 0
M  V30 1671 N 156.679 -1.44442 0.630414 0
M  V30 1672 C 157.629 -2.27794 -0.0968103 0
M  V30 1673 C 158.613 -1.38624 -0.816834 0
M  V30 1674 O 159.805 -1.62438 -0.70306 0
M  V30 1675 C 156.934 -3.25929 -1.07819 0
M  V30 1676 C 156.02 -4.22588 -0.357826 0
M  V30 1677 N 156.411 -5.0207 0.613169 0
M  V30 1678 C 154.709 -4.41914 -0.602365 0
M  V30 1679 C 155.41 -5.72351 1.03871 0
M  V30 1680 N 154.386 -5.42287 0.377642 0
M  V30 1681 H 158.188 -2.86653 0.648621 0
M  V30 1682 H 155.702 -1.55871 0.455862 0
M  V30 1683 H 157.699 -3.84399 -1.61378 0
M  V30 1684 H 156.359 -2.68631 -1.82393 0
M  V30 1685 H 157.37 -5.08331 0.990947 0
M  V30 1686 H 154.047 -3.95714 -1.33103 0
M  V30 1687 H 155.437 -6.4619 1.84086 0
M  V30 1688 N 158.157 -0.370918 -1.53173 0
M  V30 1689 C 159.087 0.464847 -2.28826 0
M  V30 1690 C 160.068 1.07936 -1.31468 0
M  V30 1691 O 161.253 1.0956 -1.60344 0
M  V30 1692 C 158.383 1.60196 -3.08147 0
M  V30 1693 C 157.337 1.11443 -4.13237 0
M  V30 1694 C 156.663 2.3422 -4.80672 0
M  V30 1695 C 157.963 0.195384 -5.21934 0
M  V30 1696 H 159.657 -0.166329 -2.98938 0
M  V30 1697 H 157.203 -0.0814359 -1.4377 0
M  V30 1698 H 159.156 2.19332 -3.59822 0
M  V30 1699 H 157.88 2.26045 -2.35735 0
M  V30 1700 H 156.539 0.545727 -3.62515 0
M  V30 1701 H 156.187 2.98537 -4.04827 0
M  V30 1702 H 155.887 2.02269 -5.51689 0
M  V30 1703 H 157.411 2.94032 -5.35143 0
M  V30 1704 H 158.825 0.694375 -5.69079 0
M  V30 1705 H 157.222 -0.0335027 -6.00091 0
M  V30 1706 H 158.292 -0.760961 -4.78892 0
M  V30 1707 N 159.635 1.57281 -0.100228 0
M  V30 1708 C 160.565 2.17328 0.853857 0
M  V30 1709 C 161.546 1.10804 1.2906 0
M  V30 1710 O 162.731 1.38963 1.35657 0
M  V30 1711 C 159.861 2.75772 2.11109 0
M  V30 1712 C 158.815 3.87713 1.81279 0
M  V30 1713 C 158.141 4.32882 3.13874 0
M  V30 1714 C 159.441 5.10677 1.09574 0
M  V30 1715 H 161.135 2.97305 0.353545 0
M  V30 1716 H 158.681 1.43009 0.168612 0
M  V30 1717 H 160.634 3.16433 2.78296 0
M  V30 1718 H 159.358 1.93057 2.63432 0
M  V30 1719 H 158.017 3.476 1.16489 0
M  V30 1720 H 157.665 3.47051 3.64095 0
M  V30 1721 H 157.365 5.08358 2.94696 0
M  V30 1722 H 158.889 4.7618 3.82211 0
M  V30 1723 H 160.303 5.48474 1.66879 0
M  V30 1724 H 158.7 5.91615 1.00557 0
M  V30 1725 H 159.77 4.84835 0.0793299 0
M  V30 1726 N 161.113 -0.173488 1.56642 0
M  V30 1727 C 162.061 -1.23417 1.97157 0
M  V30 1728 C 163.055 -1.45946 0.860013 0
M  V30 1729 O 164.261 -1.46551 1.04512 0
M  V30 1730 H 160.636 -0.414818 0.62724 0
M  V30 1731 H 162.607 -0.865582 2.8557 0
M  V30 1732 C 161.356 -2.5665 2.34576 0
M  V30 1733 H 160.679 -2.40137 3.19647 0
M  V30 1734 H 162.119 -3.2956 2.6677 0
M  V30 1735 C 160.578 -3.15245 1.18836 0
M  V30 1736 O 161.108 -3.98883 0.474869 0
M  V30 1737 N 159.314 -2.74303 0.959497 0
M  V30 1738 H 158.861 -2.0639 1.54146 0
M  V30 1739 H 158.819 -3.13844 0.186932 0
M  V30 1740 N 162.591 -1.51276 -0.441967 0
M  V30 1741 C 163.539 -1.72823 -1.55676 0
M  V30 1742 C 164.533 -0.59445 -1.58627 0
M  V30 1743 O 165.739 -0.775715 -1.62427 0
M  V30 1744 H 162.114 -0.545983 -0.517113 0
M  V30 1745 H 164.085 -2.6628 -1.34675 0
M  V30 1746 C 162.834 -1.86619 -2.93375 0
M  V30 1747 H 162.157 -2.73264 -2.91834 0
M  V30 1748 H 163.597 -2.05709 -3.70756 0
M  V30 1749 C 162.056 -0.624842 -3.31055 0
M  V30 1750 O 162.586 0.222636 -4.01083 0
M  V30 1751 N 160.792 -0.470288 -2.86769 0
M  V30 1752 H 160.339 -1.161 -2.29953 0
M  V30 1753 H 160.297 0.359051 -3.12343 0
M  V30 1754 N 164.069 0.697108 -1.41344 0
M  V30 1755 C 165.002 1.82134 -1.37486 0
M  V30 1756 C 165.98 1.60784 -0.242351 0
M  V30 1757 O 167.164 1.83553 -0.429012 0
M  V30 1758 C 164.291 3.18788 -1.14421 0
M  V30 1759 C 163.337 3.58932 -2.3037 0
M  V30 1760 S 164.17 3.63916 -3.92843 0
M  V30 1761 C 165.326 5.03298 -3.72078 0
M  V30 1762 H 165.559 1.85129 -2.32625 0
M  V30 1763 H 163.092 0.865671 -1.2785 0
M  V30 1764 H 165.05 3.97677 -1.018 0
M  V30 1765 H 163.711 3.13404 -0.20905 0
M  V30 1766 H 162.904 4.58202 -2.09922 0
M  V30 1767 H 162.506 2.87347 -2.39391 0
M  V30 1768 H 164.798 5.90753 -3.31688 0
M  V30 1769 H 165.741 5.28788 -4.70945 0
M  V30 1770 H 166.149 4.74764 -3.05384 0
M  V30 1771 N 165.547 1.27147 0.931209 0
M  V30 1772 C 166.477 1.12081 2.04842 0
M  V30 1773 C 167.458 0.0232364 1.70084 0
M  V30 1774 O 168.643 0.197085 1.93197 0
M  V30 1775 C 165.773 0.76354 3.38803 0
M  V30 1776 C 164.727 1.81396 3.87659 0
M  V30 1777 C 164.053 1.31075 5.18385 0
M  V30 1778 C 165.353 3.21739 4.11438 0
M  V30 1779 H 167.047 2.05537 2.17703 0
M  V30 1780 H 164.593 0.989603 1.04608 0
M  V30 1781 H 166.546 0.644982 4.16435 0
M  V30 1782 H 165.27 -0.206727 3.25945 0
M  V30 1783 H 163.929 1.92136 3.12217 0
M  V30 1784 H 163.577 0.330037 5.01916 0
M  V30 1785 H 163.277 2.013 5.52044 0
M  V30 1786 H 164.801 1.20506 5.98591 0
M  V30 1787 H 166.215 3.14019 4.79651 0
M  V30 1788 H 164.612 3.89644 4.56397 0
M  V30 1789 H 165.682 3.67054 3.16859 0
M  V30 1790 N 167.025 -1.13721 1.09112 0
M  V30 1791 C 168.273 -1.84559 0.823562 0
M  V30 1792 C 168.594 -1.83754 -0.652658 0
M  V30 1793 O 167.864 -1.29102 -1.47342 0
M  V30 1794 H 166.444 -0.683376 0.301673 0
M  V30 1795 H 169.106 -1.37771 1.37859 0
M  V30 1796 H 168.202 -2.8917 1.17419 0
M  V30 1797 N 168.503 -0.877838 -1.30888 0
M  V30 1798 C 169.45 -0.337538 -2.28318 0
M  V30 1799 C 170.42 0.568346 -1.56074 0
M  V30 1800 O 171.605 0.498298 -1.84178 0
M  V30 1801 C 168.745 0.448142 -3.42178 0
M  V30 1802 C 167.858 -0.48615 -4.29256 0
M  V30 1803 C 166.993 0.314427 -5.30269 0
M  V30 1804 C 166.032 -0.615791 -6.08995 0
M  V30 1805 N 165.169 0.14902 -7.01942 0
M  V30 1806 H 170.009 -1.17356 -2.73919 0
M  V30 1807 H 167.546 -0.590094 -1.34745 0
M  V30 1808 H 169.504 0.919517 -4.06941 0
M  V30 1809 H 168.134 1.24879 -2.97666 0
M  V30 1810 H 167.186 -1.076 -3.64865 0
M  V30 1811 H 168.498 -1.19909 -4.84173 0
M  V30 1812 H 167.652 0.847969 -6.00745 0
M  V30 1813 H 166.391 1.06062 -4.76027 0
M  V30 1814 H 165.396 -1.16102 -5.37401 0
M  V30 1815 H 166.621 -1.36097 -6.65323 0
M  V30 1816 H 164.567 0.877884 -6.50099 0
M  V30 1817 H 164.484 -0.504433 -7.54315 0
M  V30 1818 H 165.752 0.663537 -7.76671 0
M  V30 1819 N 169.982 1.44106 -0.638065 0
M  V30 1820 C 170.914 2.28976 0.101205 0
M  V30 1821 C 171.927 1.4167 0.802088 0
M  V30 1822 O 173.116 1.65755 0.662375 0
M  V30 1823 C 170.216 3.18217 1.16581 0
M  V30 1824 C 169.389 4.33978 0.546066 0
M  V30 1825 C 168.448 5.04202 1.50554 0
M  V30 1826 O 167.474 5.59986 1.01999 0
M  V30 1827 N 168.676 5.06296 2.8398 0
M  V30 1828 H 171.441 2.93064 -0.627186 0
M  V30 1829 H 169.002 1.54629 -0.479731 0
M  V30 1830 H 170.994 3.62061 1.80815 0
M  V30 1831 H 169.564 2.55833 1.79634 0
M  V30 1832 H 168.784 3.93239 -0.275046 0
M  V30 1833 H 170.072 5.08675 0.112793 0
M  V30 1834 H 169.47 4.62319 3.26002 0
M  V30 1835 H 168.027 5.53907 3.43556 0
M  V30 1836 N 171.46 0.379036 1.52974 0
M  V30 1837 C 172.706 -0.206727 2.01744 0
M  V30 1838 C 173.039 -1.47314 1.26539 0
M  V30 1839 O 172.314 -1.91084 0.362903 0
M  V30 1840 C 172.597 -0.485066 3.56818 0
M  V30 1841 C 172.45 0.795919 4.42702 0
M  V30 1842 C 173.769 -1.28003 4.21074 0
M  V30 1843 H 170.888 -0.0736607 0.73331 0
M  V30 1844 H 173.53 0.506581 1.83122 0
M  V30 1845 H 171.68 -1.09272 3.72816 0
M  V30 1846 H 173.352 1.43307 4.38476 0
M  V30 1847 H 171.595 1.41344 4.10127 0
M  V30 1848 H 172.266 0.555947 5.49193 0
M  V30 1849 H 174.742 -0.765867 4.08991 0
M  V30 1850 H 173.618 -1.44352 5.29579 0
M  V30 1851 H 173.879 -2.29236 3.78026 0
M  V30 1852 N 172.938 -1.57226 0.108567 0
M  V30 1853 C 174.215 -1.86333 -0.594939 0
M  V30 1854 C 174.595 -1.00788 -1.85486 0
M  V30 1855 O 173.943 -0.0839293 -2.28346 0
M  V30 1856 C 174.153 -3.37265 -0.897405 0
M  V30 1857 C 175.501 -4.05629 -1.25501 0
M  V30 1858 O 176.525 -3.42224 -0.987998 0
M  V30 1859 O 175.384 -5.17531 -1.75567 0
M  V30 1860 H 172.478 -0.771018 -0.2991 0
M  V30 1861 H 175.024 -1.69102 0.142283 0
M  V30 1862 H 173.796 -3.913 -0.00413806 0
M  V30 1863 H 173.419 -3.59889 -1.69014 0
M  V30 1864 N 174.416 0.165178 -1.56732 0
M  V30 1865 C 175.664 0.879068 -1.8198 0
M  V30 1866 C 175.985 1.82514 -0.686561 0
M  V30 1867 O 175.255 1.93694 0.293146 0
M  V30 1868 H 173.835 0.327608 -0.671329 0
M  V30 1869 H 176.497 0.163526 -1.94213 0
M  V30 1870 H 175.593 1.45228 -2.76252 0
M  V30 1871 N 175.894 1.51508 0.433938 0
M  V30 1872 C 177.143 1.63578 1.18005 0
M  V30 1873 C 177.456 0.359514 1.92268 0
M  V30 1874 O 178.662 0.359632 2.69108 0
M  V30 1875 C 177.118 2.88901 2.14626 0
M  V30 1876 C 176.726 4.23544 1.45995 0
M  V30 1877 C 178.47 3.10328 2.89649 0
M  V30 1878 C 176.377 5.40014 2.4112 0
M  V30 1879 H 175.307 0.609277 0.444182 0
M  V30 1880 H 177.958 1.77978 0.446773 0
M  V30 1881 H 176.34 2.68142 2.91403 0
M  V30 1882 H 177.514 4.54696 0.747532 0
M  V30 1883 H 175.829 4.08021 0.831115 0
M  V30 1884 H 178.426 3.94518 3.60915 0
M  V30 1885 H 178.769 2.23544 3.51189 0
M  V30 1886 H 179.302 3.31443 2.19978 0
M  V30 1887 H 176.041 6.29068 1.84264 0
M  V30 1888 H 175.561 5.13233 3.10406 0
M  V30 1889 H 177.24 5.72099 3.02177 0
M  V30 1890 N 177.372 -0.689602 1.41712 0
M  V30 1891 C 178.621 -1.44534 1.40686 0
M  V30 1892 C 178.934 -1.95588 0.0213352 0
M  V30 1893 O 180.14 -2.71271 -0.111534 0
M  V30 1894 C 178.596 -2.61387 2.47396 0
M  V30 1895 C 178.204 -2.17094 3.91885 0
M  V30 1896 C 179.948 -3.38986 2.55517 0
M  V30 1897 C 177.855 -3.3094 4.90135 0
M  V30 1898 H 176.785 -0.542925 0.52321 0
M  V30 1899 H 179.436 -0.748054 1.6756 0
M  V30 1900 H 177.818 -3.33412 2.13664 0
M  V30 1901 H 178.992 -1.52318 4.34897 0
M  V30 1902 H 177.307 -1.52473 3.8748 0
M  V30 1903 H 179.904 -4.23747 3.26102 0
M  V30 1904 H 180.247 -3.84578 1.59391 0
M  V30 1905 H 180.78 -2.74021 2.8837 0
M  V30 1906 H 177.519 -2.90355 5.87685 0
M  V30 1907 H 177.039 -3.94546 4.51767 0
M  V30 1908 H 178.718 -3.9663 5.11169 0
M  V30 1909 N 178.85 -1.27639 -0.924453 0
M  V30 1910 C 180.097 -1.14167 -1.67249 0
M  V30 1911 C 180.425 0.311863 -1.91984 0
M  V30 1912 O 179.68 1.24425 -1.51053 0
M  V30 1913 C 179.979 -1.87407 -3.04325 0
M  V30 1914 C 179.645 -3.37249 -2.99289 0
M  V30 1915 C 178.307 -3.7812 -2.97622 0
M  V30 1916 C 180.659 -4.32845 -2.90336 0
M  V30 1917 C 177.987 -5.12944 -2.8479 0
M  V30 1918 C 180.339 -5.6773 -2.79045 0
M  V30 1919 C 179.003 -6.07889 -2.7573 0
M  V30 1920 H 178.273 -0.417766 -0.612007 0
M  V30 1921 H 180.92 -1.58286 -1.07786 0
M  V30 1922 H 179.225 -1.35805 -3.67511 0
M  V30 1923 H 180.922 -1.74408 -3.61086 0
M  V30 1924 H 177.512 -3.04748 -3.01374 0
M  V30 1925 H 181.696 -4.02239 -2.90719 0
M  V30 1926 H 176.952 -5.432 -2.80612 0
M  V30 1927 H 181.126 -6.41472 -2.71083 0
M  V30 1928 H 178.753 -7.12314 -2.65544 0
M  V30 1929 N 180.328 1.1314 -1.09713 0
M  V30 1930 C 181.261 2.17735 -0.683137 0
M  V30 1931 C 182.239 1.59582 0.311841 0
M  V30 1932 O 183.423 1.87298 0.212514 0
M  V30 1933 C 180.55 3.38699 -0.00684324 0
M  V30 1934 C 179.596 4.1546 -0.964102 0
M  V30 1935 S 180.429 4.74733 -2.47767 0
M  V30 1936 C 181.585 5.9904 -1.81387 0
M  V30 1937 H 181.818 2.52515 -1.56918 0
M  V30 1938 H 179.351 1.24484 -0.913404 0
M  V30 1939 H 181.309 4.08765 0.377044 0
M  V30 1940 H 179.97 3.02214 0.85589 0
M  V30 1941 H 179.163 5.02093 -0.43803 0
M  V30 1942 H 178.765 3.51066 -1.28953 0
M  V30 1943 H 181.057 6.67846 -1.13967 0
M  V30 1944 H 182 6.56261 -2.65947 0
M  V30 1945 H 182.408 5.4976 -1.28155 0
M  V30 1946 N 181.806 0.884767 1.30421 0
M  V30 1947 C 183.031 0.517288 2.00845 0
M  V30 1948 C 183.456 -0.886779 1.65885 0
M  V30 1949 O 182.814 -1.58768 0.875354 0
M  V30 1950 C 182.862 0.698994 3.5376 0
M  V30 1951 O 181.966 -0.255208 4.1161 0
M  V30 1952 H 181.307 0.203872 0.631927 0
M  V30 1953 H 183.837 1.19225 1.66272 0
M  V30 1954 H 183.847 0.597912 4.03595 0
M  V30 1955 H 182.522 1.72271 3.78544 0
M  V30 1956 H 181.099 -0.10784 3.72744 0
M  V30 1957 N 183.284 -1.43765 0.645699 0
M  V30 1958 C 184.532 -2.01499 0.155731 0
M  V30 1959 C 184.853 -1.51151 -1.232 0
M  V30 1960 O 184.123 -0.721044 -1.82148 0
M  V30 1961 H 182.703 -0.745003 0.0545817 0
M  V30 1962 H 185.365 -1.76075 0.835677 0
M  V30 1963 H 184.461 -3.1181 0.134577 0
M  V30 1964 N 184.763 -0.387143 -1.52771 0
M  V30 1965 C 185.711 0.463953 -2.27926 0
M  V30 1966 C 186.705 1.06493 -1.31741 0
M  V30 1967 O 187.911 1.00565 -1.49287 0
M  V30 1968 H 184.286 0.16837 -0.732909 0
M  V30 1969 H 186.257 -0.19141 -2.97785 0
M  V30 1970 C 185.006 1.5803 -3.09713 0
M  V30 1971 H 184.329 1.12718 -3.83581 0
M  V30 1972 H 185.769 2.15008 -3.65442 0
M  V30 1973 C 184.228 2.53509 -2.2189 0
M  V30 1974 O 184.758 3.56863 -1.84422 0
M  V30 1975 N 182.964 2.23199 -1.86093 0
M  V30 1976 H 182.511 1.39185 -2.16761 0
M  V30 1977 H 182.469 2.87333 -1.27621 0
M  V30 1978 N 186.241 1.57166 -0.116904 0
M  V30 1979 C 187.487 1.95412 0.542405 0
M  V30 1980 C 187.82 1.00019 1.66463 0
M  V30 1981 O 187.095 0.0370346 1.94465 0
M  V30 1982 C 187.378 3.43615 1.07708 0
M  V30 1983 C 187.231 4.49781 -0.0415868 0
M  V30 1984 C 188.55 3.93616 1.96861 0
M  V30 1985 H 185.669 0.710543 0.195696 0
M  V30 1986 H 188.311 1.89027 -0.192038 0
M  V30 1987 H 186.461 3.49187 1.70296 0
M  V30 1988 H 188.133 4.56308 -0.676793 0
M  V30 1989 H 186.376 4.28033 -0.705019 0
M  V30 1990 H 187.047 5.50733 0.373717 0
M  V30 1991 H 189.523 3.90335 1.44146 0
M  V30 1992 H 188.399 4.97838 2.3119 0
M  V30 1993 H 188.66 3.34188 2.89432 0
M  V30 1994 N 187.719 -0.156864 1.56817 0
M  V30 1995 C 188.947 -0.886316 1.86955 0
M  V30 1996 C 189.362 -1.75185 0.703975 0
M  V30 1997 O 188.719 -1.79555 -0.326552 0
M  V30 1998 C 188.77 -1.75117 3.16253 0
M  V30 1999 O 188.491 -0.920537 4.2832 0
M  V30 2000 C 189.992 -2.58905 3.59837 0
M  V30 2001 H 187.212 -0.25678 0.619923 0
M  V30 2002 H 189.756 -0.152615 2.0393 0
M  V30 2003 H 187.911 -2.43805 3.01062 0
M  V30 2004 H 188.325 -1.51337 5.02192 0
M  V30 2005 H 189.799 -3.1518 4.53172 0
M  V30 2006 H 190.276 -3.34472 2.84649 0
M  V30 2007 H 190.882 -1.95526 3.7769 0
M  V30 2008 N 189.197 -1.51736 -0.425897 0
M  V30 2009 C 190.107 -1.76738 -1.54275 0
M  V30 2010 C 191.123 -0.65211 -1.61318 0
M  V30 2011 O 192.299 -0.935654 -1.78346 0
M  V30 2012 C 189.364 -1.89755 -2.90162 0
M  V30 2013 C 188.425 -3.13633 -2.93143 0
M  V30 2014 C 187.658 -3.2602 -4.22548 0
M  V30 2015 O 187.881 -2.44067 -5.15546 0
M  V30 2016 O 186.815 -4.19071 -4.32046 0
M  V30 2017 H 190.641 -2.71502 -1.36089 0
M  V30 2018 H 188.226 -1.36376 -0.610069 0
M  V30 2019 H 190.108 -2.00236 -3.70788 0
M  V30 2020 H 188.783 -0.981785 -3.08452 0
M  V30 2021 H 187.69 -3.08622 -2.11431 0
M  V30 2022 H 189.023 -4.04936 -2.798 0
M  V30 2023 N 190.675 0.682077 -1.42076 0
M  V30 2024 C 191.585 1.82535 -1.47371 0
M  V30 2025 C 192.601 1.7017 -0.363079 0
M  V30 2026 O 193.777 1.91848 -0.612875 0
M  V30 2027 C 190.842 3.18624 -1.36674 0
M  V30 2028 C 189.903 3.42999 -2.58167 0
M  V30 2029 C 189.136 4.72595 -2.4797 0
M  V30 2030 O 189.359 5.50006 -1.5116 0
M  V30 2031 O 188.293 4.98054 -3.37974 0
M  V30 2032 H 192.119 1.81023 -2.43853 0
M  V30 2033 H 189.704 0.836887 -1.2376 0
M  V30 2034 H 191.586 3.99847 -1.33043 0
M  V30 2035 H 190.261 3.20789 -0.433138 0
M  V30 2036 H 189.168 2.61653 -2.67373 0
M  V30 2037 H 190.501 3.45659 -3.50401 0
M  V30 2038 N 192.153 1.28127 0.917671 0
M  V30 2039 C 193.103 1.08361 2.00604 0
M  V30 2040 C 194.087 0.00847518 1.60898 0
M  V30 2041 O 195.279 0.228167 1.75523 0
M  V30 2042 C 192.408 0.743376 3.35155 0
M  V30 2043 C 191.494 1.85716 3.81275 0
M  V30 2044 N 191.885 3.09822 3.99805 0
M  V30 2045 C 190.183 1.74612 4.10398 0
M  V30 2046 C 190.884 3.82368 4.38372 0
M  V30 2047 N 189.86 3.10192 4.4641 0
M  V30 2048 H 193.662 2.02531 2.12975 0
M  V30 2049 H 191.176 1.18989 1.10523 0
M  V30 2050 H 193.173 0.582859 4.12805 0
M  V30 2051 H 191.833 -0.190595 3.2414 0
M  V30 2052 H 192.844 3.45475 3.85833 0
M  V30 2053 H 189.521 0.883657 4.08041 0
M  V30 2054 H 190.911 4.89082 4.60704 0
M  V30 2055 N 193.631 -1.12557 1.10312 0
M  V30 2056 C 194.877 -1.84311 0.846011 0
M  V30 2057 C 195.21 -1.83805 -0.626859 0
M  V30 2058 O 194.485 -1.28268 -1.46211 0
M  V30 2059 C 194.768 -3.32048 1.39341 0
M  V30 2060 C 194.621 -3.41016 2.93305 0
M  V30 2061 C 195.94 -4.27764 1.03468 0
M  V30 2062 H 193.059 -0.669192 0.30879 0
M  V30 2063 H 195.701 -1.32057 1.36605 0
M  V30 2064 H 193.851 -3.76678 0.951087 0
M  V30 2065 H 195.523 -3.05031 3.46055 0
M  V30 2066 H 193.766 -2.81603 3.29973 0
M  V30 2067 H 194.437 -4.44948 3.26689 0
M  V30 2068 H 196.913 -3.91253 1.41633 0
M  V30 2069 H 195.789 -5.29549 1.44463 0
M  V30 2070 H 196.05 -4.42064 -0.0560404 0
M  V30 2071 N 195.109 -0.891671 -1.2995 0
M  V30 2072 C 196.019 -0.367691 -2.31701 0
M  V30 2073 C 197.035 0.533486 -1.6562 0
M  V30 2074 O 198.211 0.424997 -1.96865 0
M  V30 2075 C 195.276 0.403406 -3.44345 0
M  V30 2076 C 194.337 -0.528328 -4.26037 0
M  V30 2077 C 193.57 0.206063 -5.33302 0
M  V30 2078 O 193.793 1.43119 -5.52153 0
M  V30 2079 O 192.727 -0.447281 -6.00236 0
M  V30 2080 H 196.553 -1.21163 -2.78484 0
M  V30 2081 H 194.138 -0.655725 -1.34241 0
M  V30 2082 H 196.02 0.839753 -4.12948 0
M  V30 2083 H 194.695 1.22354 -2.99685 0
M  V30 2084 H 193.602 -1.01362 -3.60106 0
M  V30 2085 H 194.935 -1.31465 -4.74318 0
M  V30 2086 N 196.587 1.43421 -0.653314 0
M  V30 2087 C 197.497 2.34568 0.0388565 0
M  V30 2088 C 198.513 1.53888 0.81207 0
M  V30 2089 O 199.689 1.86539 0.759294 0
M  V30 2090 C 196.754 3.32167 0.993269 0
M  V30 2091 C 195.815 4.28751 0.216977 0
M  V30 2092 C 195.048 5.21688 1.12593 0
M  V30 2093 O 195.271 5.19052 2.36519 0
M  V30 2094 O 194.205 5.98919 0.598284 0
M  V30 2095 H 198.031 2.95251 -0.711386 0
M  V30 2096 H 195.616 1.43564 -0.413502 0
M  V30 2097 H 197.498 3.92183 1.54176 0
M  V30 2098 H 196.173 2.73987 1.72374 0
M  V30 2099 H 195.08 3.72215 -0.375101 0
M  V30 2100 H 196.413 4.89913 -0.473924 0
M  V30 2101 N 198.065 0.39524 1.52563 0
M  V30 2102 C 198.995 -0.428384 2.29537 0
M  V30 2103 C 199.976 -1.05831 1.33169 0
M  V30 2104 O 201.161 -1.06995 1.62067 0
M  V30 2105 C 198.291 -1.55274 3.10656 0
M  V30 2106 C 197.245 -1.04855 4.14957 0
M  V30 2107 C 196.571 -2.26543 4.84337 0
M  V30 2108 C 197.871 -0.112324 5.22179 0
M  V30 2109 H 199.565 0.213867 2.98635 0
M  V30 2110 H 197.111 0.104298 1.43622 0
M  V30 2111 H 199.064 -2.1358 3.63265 0
M  V30 2112 H 197.788 -2.22266 2.39302 0
M  V30 2113 H 196.447 -0.487985 3.63338 0
M  V30 2114 H 196.095 -2.92059 4.09525 0
M  V30 2115 H 195.795 -1.93466 5.54837 0
M  V30 2116 H 197.319 -2.85481 5.39753 0
M  V30 2117 H 198.733 -0.603752 5.70112 0
M  V30 2118 H 197.13 0.128968 5.99961 0
M  V30 2119 H 198.2 0.837052 4.77621 0
M  V30 2120 N 199.544 -1.57102 0.125237 0
M  V30 2121 C 200.491 -2.15641 -0.822655 0
M  V30 2122 C 201.461 -1.08313 -1.25927 0
M  V30 2123 O 202.646 -1.36251 -1.33567 0
M  V30 2124 C 199.786 -2.76504 -2.06494 0
M  V30 2125 C 198.899 -3.98158 -1.67612 0
M  V30 2126 C 198.034 -4.47088 -2.86854 0
M  V30 2127 C 197.073 -5.6126 -2.44242 0
M  V30 2128 N 196.21 -6.04905 -3.56419 0
M  V30 2129 H 201.05 -2.96313 -0.316625 0
M  V30 2130 H 198.587 -1.46388 -0.144588 0
M  V30 2131 H 200.545 -3.09925 -2.79289 0
M  V30 2132 H 199.175 -1.98512 -2.54545 0
M  V30 2133 H 198.227 -3.70858 -0.846661 0
M  V30 2134 H 199.539 -4.80934 -1.32301 0
M  V30 2135 H 198.693 -4.82451 -3.67867 0
M  V30 2136 H 197.432 -3.63275 -3.25396 0
M  V30 2137 H 196.437 -5.25495 -1.61663 0
M  V30 2138 H 197.662 -6.46843 -2.0681 0
M  V30 2139 H 195.608 -5.24032 -3.94623 0
M  V30 2140 H 195.525 -6.82552 -3.25051 0
M  V30 2141 H 196.793 -6.44907 -4.37853 0
M  V30 2142 N 201.022 0.148545 -1.56898 0
M  V30 2143 C 201.969 1.18345 -1.98149 0
M  V30 2144 C 202.939 1.42772 -0.848848 0
M  V30 2145 O 204.124 1.55132 -1.11079 0
M  V30 2146 C 201.264 2.51231 -2.36594 0
M  V30 2147 C 200.377 2.33991 -3.63142 0
M  V30 2148 C 199.512 3.59902 -3.90697 0
M  V30 2149 C 198.551 3.37692 -5.1052 0
M  V30 2150 N 197.688 4.5573 -5.34092 0
M  V30 2151 H 202.528 0.82467 -2.86362 0
M  V30 2152 H 200.065 0.395756 -1.41676 0
M  V30 2153 H 202.023 3.28713 -2.56912 0
M  V30 2154 H 200.653 2.85059 -1.51463 0
M  V30 2155 H 199.705 1.47572 -3.50609 0
M  V30 2156 H 201.017 2.13539 -4.5078 0
M  V30 2157 H 200.171 4.45813 -4.11505 0
M  V30 2158 H 198.91 3.83357 -3.01477 0
M  V30 2159 H 197.915 2.5017 -4.89587 0
M  V30 2160 H 199.14 3.15637 -6.0129 0
M  V30 2161 H 197.086 4.79361 -4.47827 0
M  V30 2162 H 197.003 4.38274 -6.15996 0
M  V30 2163 H 198.271 5.42858 -5.59397 0
M  V30 2164 N 202.5 1.5196 0.417844 0
M  V30 2165 C 203.725 1.69717 1.1921 0
M  V30 2166 C 204.15 0.402148 1.83751 0
M  V30 2167 O 203.508 -0.639593 1.69643 0
M  V30 2168 C 203.556 2.82794 2.2374 0
M  V30 2169 O 202.66 2.47756 3.29683 0
M  V30 2170 H 202.001 0.565263 0.348387 0
M  V30 2171 H 204.531 1.98621 0.490985 0
M  V30 2172 H 204.541 3.07452 2.68212 0
M  V30 2173 H 203.216 3.76756 1.76146 0
M  V30 2174 H 201.793 2.33739 2.90552 0
M  V30 2175 N 203.978 -0.674533 1.42435 0
M  V30 2176 C 205.389 -1.25514 1.38214 0
M  V30 2177 C 205.74 -1.96055 0.0755464 0
M  V30 2178 O 204.865 -2.00028 -0.8257 0
M  V30 2179 C 205.46 -2.28269 2.50357 0
M  V30 2180 C 204.019 -2.81856 2.49467 0
M  V30 2181 C 203.166 -1.56182 2.29134 0
M  V30 2182 H 206.117 -0.467902 1.51646 0
M  V30 2183 H 206.138 -3.10009 2.20624 0
M  V30 2184 H 205.65 -1.769 3.45439 0
M  V30 2185 H 203.751 -3.37346 1.58204 0
M  V30 2186 H 203.864 -3.30854 3.46515 0
M  V30 2187 H 202.228 -1.82761 1.774 0
M  V30 2188 H 203.011 -1.06778 3.26272 0
M  V30 2189 N 205.456 -1.28612 -0.910864 0
M  V30 2190 C 206.702 -1.16106 -1.66274 0
M  V30 2191 C 207.035 0.289113 -1.92036 0
M  V30 2192 O 206.31 1.21 -1.52281 0
M  V30 2193 C 206.593 -1.96309 -3.01885 0
M  V30 2194 C 206.446 -3.49405 -2.8326 0
M  V30 2195 C 207.765 -1.78076 -4.02463 0
M  V30 2196 H 204.884 -0.423152 -0.603417 0
M  V30 2197 H 207.526 -1.57961 -1.05586 0
M  V30 2198 H 205.676 -1.60742 -3.53687 0
M  V30 2199 H 207.348 -3.94894 -2.38446 0
M  V30 2200 H 205.591 -3.74893 -2.18261 0
M  V30 2201 H 206.262 -4.00784 -3.79574 0
M  V30 2202 H 208.738 -2.0912 -3.59733 0
M  V30 2203 H 207.614 -2.36561 -4.95308 0
M  V30 2204 H 207.875 -0.733008 -4.35981 0
M  V30 2205 N 206.934 1.1197 -1.10907 0
M  V30 2206 C 208.345 1.65114 -0.871446 0
M  V30 2207 C 208.696 1.86885 0.597353 0
M  V30 2208 O 207.821 1.59896 1.45816 0
M  V30 2209 C 208.416 2.99944 -1.5754 0
M  V30 2210 C 206.975 3.50018 -1.38435 0
M  V30 2211 C 206.122 2.24941 -1.62164 0
M  V30 2212 H 209.073 0.956851 -1.2661 0
M  V30 2213 H 209.094 3.66651 -1.01721 0
M  V30 2214 H 208.606 2.84067 -2.64438 0
M  V30 2215 H 206.707 3.71071 -0.337214 0
M  V30 2216 H 206.82 4.29165 -2.12965 0
M  V30 2217 H 205.184 2.3229 -1.04467 0
M  V30 2218 H 205.967 2.11612 -2.70324 0
M  V30 2219 N 208.412 0.89855 1.29475 0
M  V30 2220 C 209.658 0.524658 1.95896 0
M  V30 2221 C 209.991 -0.926468 1.70676 0
M  V30 2222 O 209.266 -1.65665 1.01908 0
M  V30 2223 C 209.549 0.81633 3.50725 0
M  V30 2224 C 209.402 2.31907 3.85408 0
M  V30 2225 C 210.721 0.302038 4.39062 0
M  V30 2226 H 207.84 0.19209 0.711527 0
M  V30 2227 H 210.482 1.12502 1.53112 0
M  V30 2228 H 208.632 0.305369 3.87298 0
M  V30 2229 H 210.304 2.89949 3.58786 0
M  V30 2230 H 208.547 2.78027 3.32992 0
M  V30 2231 H 209.218 2.47373 4.93468 0
M  V30 2232 H 211.694 0.739551 4.09475 0
M  V30 2233 H 210.57 0.535331 5.46283 0
M  V30 2234 H 210.831 -0.797216 4.34853 0
M  V30 2235 N 209.89 -1.43072 0.660911 0
M  V30 2236 C 211.136 -2.0202 0.177708 0
M  V30 2237 C 211.469 -1.52066 -1.20787 0
M  V30 2238 O 210.744 -0.716987 -1.80802 0
M  V30 2239 C 211.027 -3.59561 0.197019 0
M  V30 2240 C 210.88 -4.19727 1.61706 0
M  V30 2241 C 212.199 -4.37664 -0.462396 0
M  V30 2242 H 209.318 -0.734034 0.0660494 0
M  V30 2243 H 211.96 -1.70272 0.843058 0
M  V30 2244 H 210.11 -3.86739 -0.369527 0
M  V30 2245 H 211.782 -4.03553 2.23479 0
M  V30 2246 H 210.025 -3.76084 2.16201 0
M  V30 2247 H 210.696 -5.28834 1.58237 0
M  V30 2248 H 213.172 -4.16095 0.0197215 0
M  V30 2249 H 212.048 -5.47305 -0.418188 0
M  V30 2250 H 212.309 -4.14493 -1.53778 0
M  V30 2251 N 211.368 -0.403325 -1.52352 0
M  V30 2252 C 212.298 0.416205 -2.29761 0
M  V30 2253 C 213.279 1.05123 -1.33728 0
M  V30 2254 O 214.464 1.06134 -1.62632 0
M  V30 2255 C 211.594 1.53624 -3.11475 0
M  V30 2256 C 210.548 1.02653 -4.15507 0
M  V30 2257 C 209.874 2.23971 -4.85532 0
M  V30 2258 C 211.174 0.08463 -5.22231 0
M  V30 2259 H 212.868 -0.229701 -2.98518 0
M  V30 2260 H 210.414 -0.111913 -1.43564 0
M  V30 2261 H 212.367 2.1165 -3.64393 0
M  V30 2262 H 211.091 2.20994 -2.40477 0
M  V30 2263 H 209.75 0.46871 -3.63591 0
M  V30 2264 H 209.398 2.89883 -4.11068 0
M  V30 2265 H 209.098 1.90521 -5.55856 0
M  V30 2266 H 210.622 2.82614 -5.41259 0
M  V30 2267 H 212.036 0.573509 -5.70424 0
M  V30 2268 H 210.433 -0.160783 -5.99885 0
M  V30 2269 H 211.503 -0.86237 -4.7717 0
M  V30 2270 N 212.846 1.57033 -0.133567 0
M  V30 2271 C 213.809 2.14897 0.796995 0
M  V30 2272 C 214.809 1.0874 1.18458 0
M  V30 2273 O 215.999 1.34446 1.1077 0
M  V30 2274 C 213.131 2.70112 2.07973 0
M  V30 2275 H 214.324 2.98457 0.293873 0
M  V30 2276 H 211.877 1.55871 0.115787 0
M  V30 2277 H 212.612 1.9018 2.62682 0
M  V30 2278 H 212.397 3.47764 1.81115 0
M  V30 2279 H 213.887 3.14738 2.74462 0
M  V30 2280 N 214.325 -0.140222 1.56975 0
M  V30 2281 C 215.288 -1.15689 1.97861 0
M  V30 2282 C 216.288 -1.3549 0.865974 0
M  V30 2283 O 217.478 -1.32367 1.13246 0
M  V30 2284 C 214.61 -2.51582 2.30042 0
M  V30 2285 H 215.803 -0.805971 2.88867 0
M  V30 2286 H 213.356 -0.383801 1.51515 0
M  V30 2287 H 214.091 -2.91632 1.41849 0
M  V30 2288 H 213.876 -2.38569 3.11171 0
M  V30 2289 H 215.366 -3.24792 2.62488 0
M  V30 2290 N 215.803 -1.52179 -0.40978 0
M  V30 2291 C 217.028 -1.70347 -1.18308 0
M  V30 2292 C 217.453 -0.411887 -1.83535 0
M  V30 2293 O 216.811 0.630587 -1.6998 0
M  V30 2294 C 216.859 -2.83977 -2.22238 0
M  V30 2295 O 215.963 -2.495 -3.28365 0
M  V30 2296 H 215.304 -0.567103 -0.345384 0
M  V30 2297 H 217.834 -1.98879 -0.480445 0
M  V30 2298 H 217.844 -3.0887 -2.66577 0
M  V30 2299 H 216.519 -3.77685 -1.74146 0
M  V30 2300 H 215.096 -2.35277 -2.89308 0
M  V30 2301 N 217.281 0.66697 -1.42791 0
M  V30 2302 C 218.53 1.42278 -1.42968 0
M  V30 2303 C 218.843 1.9553 -0.0524489 0
M  V30 2304 O 220.049 2.71414 0.068363 0
M  V30 2305 C 218.505 2.57418 -2.51524 0
M  V30 2306 C 218.113 2.10832 -3.9529 0
M  V30 2307 C 219.857 3.34878 -2.60877 0
M  V30 2308 C 217.764 3.23101 -4.95338 0
M  V30 2309 H 216.694 0.534533 -0.531781 0
M  V30 2310 H 219.345 0.721302 -1.68729 0
M  V30 2311 H 217.727 3.29971 -2.18941 0
M  V30 2312 H 218.901 1.4538 -4.37266 0
M  V30 2313 H 217.216 1.46289 -3.89857 0
M  V30 2314 H 219.813 4.18505 -3.32802 0
M  V30 2315 H 220.156 3.81993 -1.6549 0
M  V30 2316 H 220.689 2.69398 -2.92693 0
M  V30 2317 H 217.428 2.80969 -5.9223 0
M  V30 2318 H 216.948 3.87309 -4.57987 0
M  V30 2319 H 218.627 3.88447 -5.17415 0
M  V30 2320 N 218.759 1.29093 0.90403 0
M  V30 2321 C 219.669 1.15727 2.0407 0
M  V30 2322 C 220.685 0.0815308 1.73809 0
M  V30 2323 O 221.861 0.292749 1.99261 0
M  V30 2324 C 218.926 0.830424 3.36608 0
M  V30 2325 C 217.987 1.98955 3.80415 0
M  V30 2326 C 217.22 1.6782 5.06628 0
M  V30 2327 O 217.443 0.597105 5.67266 0
M  V30 2328 O 216.377 2.52486 5.46383 0
M  V30 2329 H 220.203 2.11171 2.18267 0
M  V30 2330 H 217.788 1.08504 1.027 0
M  V30 2331 H 219.67 0.662521 4.16159 0
M  V30 2332 H 218.345 -0.0942678 3.23563 0
M  V30 2333 H 217.252 2.21267 3.01648 0
M  V30 2334 H 218.585 2.89529 3.98037 0
M  V30 2335 N 220.237 -1.11381 1.11499 0
M  V30 2336 C 221.462 -1.87475 0.887019 0
M  V30 2337 C 221.887 -1.79639 -0.557796 0
M  V30 2338 O 221.245 -1.15924 -1.39396 0
M  V30 2339 C 221.293 -3.34213 1.35403 0
M  V30 2340 O 220.397 -4.0903 0.526146 0
M  V30 2341 H 219.738 -0.582099 0.319463 0
M  V30 2342 H 222.268 -1.40785 1.48461 0
M  V30 2343 H 222.278 -3.8506 1.34881 0
M  V30 2344 H 220.953 -3.39232 2.40612 0
M  V30 2345 H 219.53 -3.68082 0.597522 0
M  V30 2346 N 221.715 -0.905404 -1.28997 0
M  V30 2347 C 222.943 -0.549846 -1.9946 0
M  V30 2348 C 223.358 0.866834 -1.67724 0
M  V30 2349 O 222.715 1.57298 -0.925404 0
M  V30 2350 C 222.766 -0.739387 -3.53858 0
M  V30 2351 O 222.487 -2.10031 -3.84472 0
M  V30 2352 C 223.988 -0.389541 -4.41585 0
M  V30 2353 H 221.208 -0.210429 -0.637151 0
M  V30 2354 H 223.752 -1.21632 -1.64396 0
M  V30 2355 H 221.907 -0.120023 -3.87214 0
M  V30 2356 H 222.321 -2.13385 -4.79132 0
M  V30 2357 H 223.795 -0.572972 -5.49018 0
M  V30 2358 H 224.272 0.673756 -4.34001 0
M  V30 2359 H 224.878 -0.986089 -4.1371 0
M  V30 2360 N 223.193 1.4272 -0.668489 0
M  V30 2361 C 224.141 2.32586 0.0254857 0
M  V30 2362 C 225.135 1.49471 0.797176 0
M  V30 2363 O 226.341 1.65583 0.705853 0
M  V30 2364 H 222.716 0.751514 0.0270339 0
M  V30 2365 H 224.687 2.88823 -0.749936 0
M  V30 2366 C 223.436 3.3397 0.967427 0
M  V30 2367 H 222.759 3.97961 0.383048 0
M  V30 2368 H 224.199 3.9945 1.42181 0
M  V30 2369 C 222.658 2.65744 2.0708 0
M  V30 2370 O 223.188 2.48454 3.15648 0
M  V30 2371 N 221.394 2.2487 1.8407 0
M  V30 2372 H 220.941 2.39132 0.95778 0
M  V30 2373 H 220.899 1.79552 2.58086 0
M  V30 2374 N 224.671 0.411399 1.52136 0
M  V30 2375 C 225.603 -0.448386 2.24771 0
M  V30 2376 C 226.616 -1.00828 1.27818 0
M  V30 2377 O 227.805 -0.906841 1.53749 0
M  V30 2378 C 224.905 -1.63636 2.96777 0
M  V30 2379 C 224.078 -1.19995 4.20618 0
M  V30 2380 C 223.137 -2.25509 4.75428 0
M  V30 2381 O 222.163 -1.86007 5.3795 0
M  V30 2382 N 223.365 -3.577 4.57199 0
M  V30 2383 H 226.13 0.174025 2.99194 0
M  V30 2384 H 223.691 0.238897 1.60128 0
M  V30 2385 H 225.683 -2.33793 3.30338 0
M  V30 2386 H 224.253 -2.16465 2.25526 0
M  V30 2387 H 223.473 -0.326421 3.92846 0
M  V30 2388 H 224.761 -0.885365 5.01038 0
M  V30 2389 H 224.159 -3.92543 4.07341 0
M  V30 2390 H 222.716 -4.23827 4.95191 0
M  V30 2391 N 226.149 -1.5696 0.141893 0
M  V30 2392 C 227.398 -1.95135 -0.510427 0
M  V30 2393 C 227.711 -1.02896 -1.66348 0
M  V30 2394 O 228.917 -1.30629 -2.38009 0
M  V30 2395 C 227.373 -3.46876 -0.959427 0
M  V30 2396 C 226.981 -4.47691 0.166419 0
M  V30 2397 C 228.725 -3.93927 -1.58183 0
M  V30 2398 C 226.632 -5.90636 -0.300565 0
M  V30 2399 H 225.562 -0.728494 -0.194454 0
M  V30 2400 H 228.213 -1.8211 0.22542 0
M  V30 2401 H 226.595 -3.55215 -1.75038 0
M  V30 2402 H 227.769 -4.51043 0.94325 0
M  V30 2403 H 226.084 -4.10527 0.696905 0
M  V30 2404 H 228.681 -4.98158 -1.94275 0
M  V30 2405 H 229.024 -3.3519 -2.46888 0
M  V30 2406 H 229.557 -3.88484 -0.855863 0
M  V30 2407 H 226.296 -6.5318 0.550989 0
M  V30 2408 H 225.816 -5.90655 -1.04338 0
M  V30 2409 H 227.495 -6.42588 -0.754265 0
M  V30 2410 N 227.627 0.131896 -1.57047 0
M  V30 2411 C 229.038 0.690407 -1.73465 0
M  V30 2412 C 229.389 1.8094 -0.758629 0
M  V30 2413 O 228.514 2.16282 0.0713813 0
M  V30 2414 C 229.109 1.25916 -3.14532 0
M  V30 2415 C 227.668 1.76409 -3.32501 0
M  V30 2416 C 226.815 0.658579 -2.69366 0
M  V30 2417 H 229.766 -0.0939144 -1.58422 0
M  V30 2418 H 229.787 2.12892 -3.15369 0
M  V30 2419 H 229.299 0.444515 -3.85546 0
M  V30 2420 H 227.4 2.60391 -2.66509 0
M  V30 2421 H 227.513 1.88241 -4.4057 0
M  V30 2422 H 225.877 1.08899 -2.30246 0
M  V30 2423 H 226.66 -0.14487 -3.42994 0
M  V30 2424 N 229.106 1.52395 0.401703 0
M  V30 2425 C 230.331 1.70972 1.17403 0
M  V30 2426 C 230.756 0.421615 1.83314 0
M  V30 2427 O 230.114 -0.621564 1.70312 0
M  V30 2428 C 230.162 2.85151 2.20728 0
M  V30 2429 O 229.266 2.51238 3.27037 0
M  V30 2430 H 228.607 0.568927 0.342372 0
M  V30 2431 H 231.137 1.99131 0.469891 0
M  V30 2432 H 231.147 3.10279 2.64936 0
M  V30 2433 H 229.822 3.78603 1.7214 0
M  V30 2434 H 228.399 2.36808 2.88057 0
M  V30 2435 N 230.584 -0.659388 1.43143 0
M  V30 2436 C 231.83 -1.42145 1.44647 0
M  V30 2437 C 232.163 -1.9408 0.0681907 0
M  V30 2438 O 231.438 -1.71899 -0.910007 0
M  V30 2439 C 231.721 -2.60735 2.48373 0
M  V30 2440 C 231.574 -2.14332 3.95451 0
M  V30 2441 C 232.893 -3.62951 2.48906 0
M  V30 2442 H 230.012 -0.51552 0.526696 0
M  V30 2443 H 232.654 -0.748069 1.74654 0
M  V30 2444 H 230.804 -3.18184 2.22916 0
M  V30 2445 H 232.476 -1.61932 4.31944 0
M  V30 2446 H 230.719 -1.4576 4.08578 0
M  V30 2447 H 231.39 -2.99583 4.63631 0
M  V30 2448 H 233.866 -3.1525 2.71582 0
M  V30 2449 H 232.742 -4.43487 3.23435 0
M  V30 2450 H 233.003 -4.15126 1.52061 0
M  V30 2451 N 232.062 -1.29571 -0.897171 0
M  V30 2452 C 233.29 -1.20583 -1.68129 0
M  V30 2453 C 233.705 0.233181 -1.87354 0
M  V30 2454 O 233.062 1.15579 -1.41236 0
M  V30 2455 C 233.113 -1.91772 -3.06441 0
M  V30 2456 O 232.834 -3.30053 -2.88091 0
M  V30 2457 C 234.335 -1.89291 -4.00854 0
M  V30 2458 H 231.555 -0.417826 -0.525036 0
M  V30 2459 H 234.099 -1.70987 -1.12177 0
M  V30 2460 H 232.254 -1.45196 -3.59161 0
M  V30 2461 H 232.668 -3.65942 -3.75748 0
M  V30 2462 H 234.142 -2.43662 -4.95311 0
M  V30 2463 H 234.619 -0.869014 -4.30517 0
M  V30 2464 H 235.225 -2.35622 -3.54066 0
M  V30 2465 N 233.54 1.10788 -1.12088 0
M  V30 2466 C 234.789 1.82036 -0.868659 0
M  V30 2467 C 235.102 1.85929 0.607426 0
M  V30 2468 O 236.308 2.53346 0.97613 0
M  V30 2469 C 234.764 3.26951 -1.50435 0
M  V30 2470 C 234.372 3.31367 -3.01496 0
M  V30 2471 C 236.116 4.03053 -1.33225 0
M  V30 2472 C 234.023 4.7072 -3.58017 0
M  V30 2473 H 232.953 0.682108 -0.321318 0
M  V30 2474 H 235.604 1.24618 -1.34694 0
M  V30 2475 H 233.986 3.84343 -0.953735 0
M  V30 2476 H 235.16 2.83819 -3.6302 0
M  V30 2477 H 233.475 2.6875 -3.18061 0
M  V30 2478 H 236.072 5.05981 -1.72878 0
M  V30 2479 H 236.415 4.15387 -0.275529 0
M  V30 2480 H 236.948 3.52066 -1.85188 0
M  V30 2481 H 233.687 4.63585 -4.63432 0
M  V30 2482 H 233.207 5.1865 -3.01268 0
M  V30 2483 H 234.886 5.39685 -3.56859 0
M  V30 2484 N 235.018 0.912232 1.28515 0
M  V30 2485 C 236.295 0.463597 1.90027 0
M  V30 2486 C 236.675 -1.05753 1.82701 0
M  V30 2487 O 236.023 -1.90492 1.26194 0
M  V30 2488 C 236.233 0.992253 3.34597 0
M  V30 2489 C 237.581 1.04344 4.11579 0
M  V30 2490 O 238.605 0.94079 3.43551 0
M  V30 2491 O 237.464 1.1995 5.33174 0
M  V30 2492 H 234.558 0.146666 0.813891 0
M  V30 2493 H 237.104 1.00292 1.36893 0
M  V30 2494 H 235.876 2.03623 3.34146 0
M  V30 2495 H 235.499 0.433672 3.95228 0
M  V30 2496 N 236.496 -1.42363 0.676048 0
M  V30 2497 C 237.726 -2.05561 0.206967 0
M  V30 2498 C 238.134 -1.50887 -1.14148 0
M  V30 2499 O 237.477 -0.643933 -1.72044 0
M  V30 2500 C 237.539 -3.5944 0.0659508 0
M  V30 2501 C 237.203 -4.36812 1.34331 0
M  V30 2502 C 238.2 -4.67383 2.27704 0
M  V30 2503 C 235.885 -4.76429 1.59125 0
M  V30 2504 C 237.879 -5.36509 3.44147 0
M  V30 2505 C 235.566 -5.45294 2.75857 0
M  V30 2506 C 236.564 -5.75259 3.68193 0
M  V30 2507 O 236.252 -6.42712 4.82883 0
M  V30 2508 H 235.984 -0.668872 0.0979084 0
M  V30 2509 H 238.538 -1.83467 0.923531 0
M  V30 2510 H 236.768 -3.80197 -0.706204 0
M  V30 2511 H 238.457 -4.0427 -0.363418 0
M  V30 2512 H 239.223 -4.37275 2.09799 0
M  V30 2513 H 235.102 -4.52498 0.881258 0
M  V30 2514 H 238.646 -5.59814 4.16238 0
M  V30 2515 H 234.543 -5.7482 2.93688 0
M  V30 2516 H 235.311 -6.61204 4.82444 0
M  V30 2517 N 237.974 -0.419461 -1.51915 0
M  V30 2518 C 238.884 0.407528 -2.31033 0
M  V30 2519 C 239.9 1.04413 -1.3919 0
M  V30 2520 O 241.076 1.0434 -1.72265 0
M  V30 2521 C 238.141 1.50365 -3.12396 0
M  V30 2522 C 237.202 0.889029 -4.19994 0
M  V30 2523 C 236.435 1.93291 -4.97468 0
M  V30 2524 O 236.658 3.15259 -4.75361 0
M  V30 2525 O 235.592 1.53339 -5.8204 0
M  V30 2526 H 239.418 -0.237865 -3.02767 0
M  V30 2527 H 237.003 -0.182413 -1.48282 0
M  V30 2528 H 238.885 2.13975 -3.63032 0
M  V30 2529 H 237.56 2.13345 -2.43445 0
M  V30 2530 H 236.467 0.215353 -3.7348 0
M  V30 2531 H 237.8 0.302991 -4.91267 0
M  V30 2532 N 239.452 1.56882 -0.150215 0
M  V30 2533 C 240.384 2.14057 0.819286 0
M  V30 2534 C 241.397 1.09082 1.20851 0
M  V30 2535 O 242.586 1.36347 1.15203 0
M  V30 2536 C 239.686 2.65102 2.11127 0
M  V30 2537 C 238.859 3.94511 1.88891 0
M  V30 2538 C 237.918 4.30834 3.02107 0
M  V30 2539 O 236.944 4.99099 2.73659 0
M  V30 2540 N 238.146 3.90676 4.29363 0
M  V30 2541 H 240.911 2.97871 0.330618 0
M  V30 2542 H 238.472 1.61866 0.0332538 0
M  V30 2543 H 240.464 2.86411 2.85921 0
M  V30 2544 H 239.034 1.85994 2.51247 0
M  V30 2545 H 238.254 3.81795 0.981152 0
M  V30 2546 H 239.542 4.7907 1.71376 0
M  V30 2547 H 238.94 3.35677 4.55343 0
M  V30 2548 H 237.497 4.1703 5.00928 0
M  V30 2549 N 240.93 -0.123565 1.57115 0
M  V30 2550 C 241.893 -1.13583 1.99076 0
M  V30 2551 C 242.893 -1.34564 0.880296 0
M  V30 2552 O 244.083 -1.31158 1.14644 0
M  V30 2553 C 241.215 -2.49128 2.32698 0
M  V30 2554 H 242.408 -0.775287 2.89706 0
M  V30 2555 H 239.961 -0.36771 1.51913 0
M  V30 2556 H 240.696 -2.90111 1.44934 0
M  V30 2557 H 240.481 -2.35255 3.13684 0
M  V30 2558 H 241.971 -3.2199 2.65918 0
M  V30 2559 N 242.408 -1.52605 -0.393616 0
M  V30 2560 C 243.371 -1.76415 -1.46323 0
M  V30 2561 C 244.371 -0.634126 -1.47768 0
M  V30 2562 O 245.561 -0.902142 -1.4902 0
M  V30 2563 C 242.693 -1.8607 -2.85641 0
M  V30 2564 H 243.886 -2.71916 -1.26498 0
M  V30 2565 H 241.439 -1.43257 -0.625073 0
M  V30 2566 H 242.174 -0.925378 -3.10817 0
M  V30 2567 H 241.959 -2.68235 -2.85993 0
M  V30 2568 H 243.449 -2.06179 -3.63153 0
M  V30 2569 N 243.887 0.651787 -1.4349 0
M  V30 2570 C 245.134 1.41167 -1.45183 0
M  V30 2571 C 245.462 1.94349 -0.0766601 0
M  V30 2572 O 244.717 1.72804 0.918555 0
M  V30 2573 C 245.016 2.60914 -2.44251 0
M  V30 2574 C 244.682 2.26142 -3.9009 0
M  V30 2575 C 243.344 2.16371 -4.2981 0
M  V30 2576 C 245.696 1.98334 -4.81989 0
M  V30 2577 C 243.024 1.7695 -5.5938 0
M  V30 2578 C 245.376 1.6041 -6.11924 0
M  V30 2579 C 244.04 1.49166 -6.5062 0
M  V30 2580 H 243.31 0.516566 -0.531263 0
M  V30 2581 H 245.957 0.741099 -1.76579 0
M  V30 2582 H 244.262 3.3311 -2.06265 0
M  V30 2583 H 245.959 3.19127 -2.42815 0
M  V30 2584 H 242.549 2.34658 -3.58655 0
M  V30 2585 H 246.733 2.04803 -4.52072 0
M  V30 2586 H 241.989 1.66831 -5.88198 0
M  V30 2587 H 246.163 1.37925 -6.82605 0
M  V30 2588 H 243.79 1.1839 -7.50925 0
M  V30 2589 N 245.365 1.30045 0.890287 0
M  V30 2590 C 246.642 1.09227 1.62262 0
M  V30 2591 C 247.022 -0.360305 2.08002 0
M  V30 2592 O 246.37 -1.35084 1.84295 0
M  V30 2593 C 246.58 2.08835 2.79623 0
M  V30 2594 C 247.928 2.40266 3.50082 0
M  V30 2595 O 248.952 2.07104 2.89804 0
M  V30 2596 O 247.811 2.96967 4.58773 0
M  V30 2597 H 244.905 0.419132 0.712922 0
M  V30 2598 H 247.451 1.41451 0.937529 0
M  V30 2599 H 246.223 3.06633 2.43089 0
M  V30 2600 H 245.846 1.77397 3.55832 0
M  V30 2601 N 246.843 -1.10192 1.12674 0
M  V30 2602 C 247.806 -2.14786 0.799979 0
M  V30 2603 C 248.806 -1.59711 -0.18685 0
M  V30 2604 O 249.996 -1.74156 0.0392558 0
M  V30 2605 C 247.128 -3.40374 0.189228 0
M  V30 2606 H 248.321 -2.45203 1.72671 0
M  V30 2607 H 245.874 -1.25597 0.930326 0
M  V30 2608 H 246.609 -3.15577 -0.747107 0
M  V30 2609 H 246.394 -3.81637 0.899766 0
M  V30 2610 H 247.884 -4.17594 -0.0228143 0
M  V30 2611 N 248.321 -0.919034 -1.28029 0
M  V30 2612 C 249.567 -0.555757 -1.95036 0
M  V30 2613 C 249.9 0.899198 -1.72128 0
M  V30 2614 O 249.175 1.64023 -1.04531 0
M  V30 2615 C 249.458 -0.872024 -3.49382 0
M  V30 2616 C 249.311 -2.3801 -3.81669 0
M  V30 2617 C 250.63 -0.37185 -4.38526 0
M  V30 2618 H 247.749 -0.203386 -0.708381 0
M  V30 2619 H 250.391 -1.14924 -1.51303 0
M  V30 2620 H 248.541 -0.366946 -3.86763 0
M  V30 2621 H 250.213 -2.9562 -3.54128 0
M  V30 2622 H 248.456 -2.83289 -3.28526 0
M  V30 2623 H 249.127 -2.55192 -4.8947 0
M  V30 2624 H 251.603 -0.804602 -4.08247 0
M  V30 2625 H 250.479 -0.622173 -5.45362 0
M  V30 2626 H 250.74 0.727934 -4.36066 0
M  V30 2627 N 249.799 1.42003 -0.683588 0
M  V30 2628 C 250.731 2.29183 0.0283068 0
M  V30 2629 C 251.744 1.4415 0.756611 0
M  V30 2630 O 252.933 1.67779 0.609306 0
M  V30 2631 C 250.033 3.21765 1.06398 0
M  V30 2632 C 249.206 4.35496 0.407723 0
M  V30 2633 C 248.265 5.08737 1.34437 0
M  V30 2634 O 247.291 5.62948 0.841318 0
M  V30 2635 N 248.493 5.15075 2.67728 0
M  V30 2636 H 251.258 2.9092 -0.720105 0
M  V30 2637 H 248.819 1.53025 -0.528682 0
M  V30 2638 H 250.811 3.6763 1.69204 0
M  V30 2639 H 249.381 2.61418 1.71404 0
M  V30 2640 H 248.601 3.92165 -0.400012 0
M  V30 2641 H 249.889 5.08776 -0.0490956 0
M  V30 2642 H 249.287 4.72457 3.11129 0
M  V30 2643 H 247.844 5.64556 3.2576 0
M  V30 2644 N 251.277 0.427512 1.51691 0
M  V30 2645 C 252.502 -0.143601 2.06902 0
M  V30 2646 C 252.927 -1.36536 1.29382 0
M  V30 2647 O 252.285 -1.78289 0.329043 0
M  V30 2648 C 252.333 -0.454207 3.57728 0
M  V30 2649 O 251.437 -1.54228 3.82475 0
M  V30 2650 H 250.778 -0.00617128 0.663971 0
M  V30 2651 H 253.308 0.606014 1.95419 0
M  V30 2652 H 253.318 -0.707525 4.01818 0
M  V30 2653 H 251.993 0.438812 4.13579 0
M  V30 2654 H 250.57 -1.2797 3.50254 0
M  V30 2655 N 252.755 -1.56801 0.158532 0
M  V30 2656 C 253.685 -2.20347 -0.772609 0
M  V30 2657 C 254.666 -1.15518 -1.24859 0
M  V30 2658 O 255.851 -1.43902 -1.30406 0
M  V30 2659 C 252.981 -2.83417 -2.00729 0
M  V30 2660 C 251.935 -3.94174 -1.66765 0
M  V30 2661 C 251.261 -4.44233 -2.97592 0
M  V30 2662 C 252.561 -5.14392 -0.905447 0
M  V30 2663 H 254.255 -2.98413 -0.242959 0
M  V30 2664 H 251.801 -1.43537 -0.115419 0
M  V30 2665 H 253.754 -3.26543 -2.6636 0
M  V30 2666 H 252.478 -2.02701 -2.56086 0
M  V30 2667 H 251.137 -3.51684 -1.03508 0
M  V30 2668 H 250.785 -3.60325 -3.50963 0
M  V30 2669 H 250.485 -5.18945 -2.75626 0
M  V30 2670 H 252.009 -4.90037 -3.64274 0
M  V30 2671 H 253.423 -5.5429 -1.46408 0
M  V30 2672 H 251.82 -5.9494 -0.7853 0
M  V30 2673 H 252.89 -4.84795 0.100668 0
M  V30 2674 N 254.233 0.115231 -1.57178 0
M  V30 2675 C 255.482 0.820945 -1.84237 0
M  V30 2676 C 255.795 1.80866 -0.744761 0
M  V30 2677 O 257.001 2.56083 -0.901871 0
M  V30 2678 C 255.457 1.51072 -3.26658 0
M  V30 2679 C 255.065 0.563795 -4.44438 0
M  V30 2680 C 256.809 2.20134 -3.62962 0
M  V30 2681 C 254.716 1.25701 -5.77887 0
M  V30 2682 H 253.646 0.310328 -0.687177 0
M  V30 2683 H 256.297 0.0737134 -1.83352 0
M  V30 2684 H 254.679 2.30471 -3.22024 0
M  V30 2685 H 255.853 -0.197247 -4.60378 0
M  V30 2686 H 254.168 -0.0200638 -4.16395 0
M  V30 2687 H 256.765 2.72696 -4.59936 0
M  V30 2688 H 257.108 2.98107 -2.90582 0
M  V30 2689 H 257.641 1.47619 -3.69396 0
M  V30 2690 H 254.38 0.518493 -6.53446 0
M  V30 2691 H 253.9 1.98997 -5.65827 0
M  V30 2692 H 255.579 1.78915 -6.2177 0
M  V30 2693 N 255.711 1.52812 0.385517 0
M  V30 2694 C 256.988 1.5861 1.14465 0
M  V30 2695 C 257.368 0.381402 2.07626 0
M  V30 2696 O 256.716 -0.629999 2.19643 0
M  V30 2697 C 256.926 2.92664 1.90128 0
M  V30 2698 C 258.274 3.46526 2.45367 0
M  V30 2699 O 259.298 2.94562 2.0028 0
M  V30 2700 O 258.157 4.37323 3.27736 0
M  V30 2701 H 255.251 0.639855 0.523941 0
M  V30 2702 H 257.797 1.65149 0.390389 0
M  V30 2703 H 256.569 3.71788 1.22022 0
M  V30 2704 H 256.192 2.89527 2.72507 0
M  V30 2705 N 257.189 -0.644168 1.43834 0
M  V30 2706 C 258.414 -1.43642 1.49605 0
M  V30 2707 C 258.839 -1.8773 0.117913 0
M  V30 2708 O 258.197 -1.57938 -0.890239 0
M  V30 2709 C 258.245 -2.6416 2.45463 0
M  V30 2710 O 257.349 -3.63538 1.94714 0
M  V30 2711 H 256.69 -0.430329 0.50568 0
M  V30 2712 H 259.22 -0.787448 1.8884 0
M  V30 2713 H 259.23 -3.11864 2.63068 0
M  V30 2714 H 257.905 -2.31414 3.45572 0
M  V30 2715 H 256.482 -3.2273 1.86814 0
M  V30 2716 N 258.668 -1.30515 -0.883378 0
M  V30 2717 C 259.916 -1.19194 -1.63209 0
M  V30 2718 C 260.237 0.253205 -1.93349 0
M  V30 2719 O 259.507 1.17025 -1.57105 0
M  V30 2720 H 258.087 -0.438148 -0.605009 0
M  V30 2721 H 260.749 -1.63663 -1.05832 0
M  V30 2722 H 259.845 -1.75396 -2.58153 0
M  V30 2723 N 260.146 1.09593 -1.13257 0
M  V30 2724 C 261.096 2.14345 -0.777179 0
M  V30 2725 C 262.08 1.59277 0.227966 0
M  V30 2726 O 263.272 1.76971 0.0321413 0
M  V30 2727 C 260.401 3.42439 -0.242991 0
M  V30 2728 C 259.487 4.04419 -1.27694 0
M  V30 2729 N 259.878 4.40979 -2.47732 0
M  V30 2730 C 258.176 4.31596 -1.12432 0
M  V30 2731 C 258.877 4.89784 -3.13826 0
M  V30 2732 N 257.853 4.87133 -2.41252 0
M  V30 2733 H 261.655 2.40415 -1.69049 0
M  V30 2734 H 259.169 1.26803 -1.01463 0
M  V30 2735 H 261.166 4.16889 0.0298496 0
M  V30 2736 H 259.826 3.17824 0.66467 0
M  V30 2737 H 260.837 4.32396 -2.85051 0
M  V30 2738 H 257.514 4.16595 -0.274684 0
M  V30 2739 H 258.904 5.2755 -4.16102 0
M  V30 2740 N 261.624 0.925811 1.2754 0
M  V30 2741 C 262.571 0.422045 2.26908 0
M  V30 2742 C 263.541 -0.510029 1.58076 0
M  V30 2743 O 264.726 -0.429599 1.85901 0
M  V30 2744 C 261.866 -0.320837 3.43605 0
M  V30 2745 C 260.979 0.64513 4.27156 0
M  V30 2746 C 260.114 -0.117405 5.3107 0
M  V30 2747 C 259.153 0.841391 6.0629 0
M  V30 2748 N 258.29 0.111604 7.02011 0
M  V30 2749 H 263.13 1.27441 2.69375 0
M  V30 2750 H 260.667 0.639697 1.32462 0
M  V30 2751 H 262.625 -0.76785 4.10073 0
M  V30 2752 H 261.255 -1.13745 3.02096 0
M  V30 2753 H 260.307 1.21067 3.6062 0
M  V30 2754 H 261.619 1.37797 4.79389 0
M  V30 2755 H 260.773 -0.624422 6.03478 0
M  V30 2756 H 259.512 -0.883219 4.79636 0
M  V30 2757 H 258.517 1.35967 5.32722 0
M  V30 2758 H 259.742 1.60696 6.59813 0
M  V30 2759 H 257.688 -0.635999 6.5291 0
M  V30 2760 H 257.605 0.784044 7.51923 0
M  V30 2761 H 258.873 -0.374823 7.78598 0
M  V30 2762 N 263.102 -1.41638 0.69111 0
M  V30 2763 C 264.05 -2.32597 0.0115199 0
M  V30 2764 C 265.044 -1.5072 -0.773296 0
M  V30 2765 O 266.25 -1.66685 -0.67942 0
M  V30 2766 H 262.625 -0.751849 -0.0150746 0
M  V30 2767 H 264.596 -2.87593 0.795791 0
M  V30 2768 C 263.345 -3.35467 -0.914172 0
M  V30 2769 H 262.668 -3.9852 -0.319687 0
M  V30 2770 H 264.108 -4.01662 -1.35808 0
M  V30 2771 C 262.567 -2.69004 -2.02826 0
M  V30 2772 O 263.097 -2.53444 -3.11655 0
M  V30 2773 N 261.303 -2.2777 -1.80469 0
M  V30 2774 H 260.85 -2.40626 -0.919615 0
M  V30 2775 H 260.808 -1.83635 -2.55197 0
M  V30 2776 N 264.58 -0.43555 -1.51462 0
M  V30 2777 C 265.829 0.133007 -2.01261 0
M  V30 2778 C 266.142 1.43942 -1.32439 0
M  V30 2779 O 267.348 2.09081 -1.73198 0
M  V30 2780 C 265.804 0.287581 -3.58749 0
M  V30 2781 C 265.412 -1.00829 -4.36506 0
M  V30 2782 C 267.156 0.810004 -4.167 0
M  V30 2783 C 265.063 -0.819454 -5.85695 0
M  V30 2784 H 263.993 0.0534822 -0.752101 0
M  V30 2785 H 266.644 -0.565038 -1.74584 0
M  V30 2786 H 265.026 1.04859 -3.81865 0
M  V30 2787 H 266.2 -1.77749 -4.25138 0
M  V30 2788 H 264.515 -1.45911 -3.89999 0
M  V30 2789 H 267.112 0.967743 -5.2587 0
M  V30 2790 H 267.455 1.79196 -3.75758 0
M  V30 2791 H 267.988 0.107357 -3.97655 0
M  V30 2792 H 264.727 -1.77374 -6.31046 0
M  V30 2793 H 264.247 -0.0900208 -5.99732 0
M  V30 2794 H 265.926 -0.471949 -6.45276 0
M  V30 2795 N 266.058 1.56714 -0.166846 0
M  V30 2796 C 267.021 2.16539 0.751232 0
M  V30 2797 C 268.021 1.11228 1.16125 0
M  V30 2798 O 269.211 1.36765 1.07894 0
M  V30 2799 C 266.343 2.74462 2.02196 0
M  V30 2800 H 267.536 2.99013 0.230499 0
M  V30 2801 H 265.089 1.56081 0.0826982 0
M  V30 2802 H 265.824 1.95709 2.58589 0
M  V30 2803 H 265.609 3.51527 1.73698 0
M  V30 2804 H 267.099 3.20489 2.67725 0
M  V30 2805 N 267.536 -0.106894 1.57237 0
M  V30 2806 C 268.783 -0.812526 1.85484 0
M  V30 2807 C 269.111 -1.79304 0.753687 0
M  V30 2808 O 268.366 -1.94047 -0.253853 0
M  V30 2809 C 268.665 -1.58628 3.20268 0
M  V30 2810 C 268.331 -0.748967 4.44636 0
M  V30 2811 C 266.993 -0.518104 4.78403 0
M  V30 2812 C 269.345 -0.166122 5.20935 0
M  V30 2813 C 266.673 0.305659 5.85903 0
M  V30 2814 C 269.025 0.644899 6.29304 0
M  V30 2815 C 267.689 0.885965 6.61594 0
M  V30 2816 H 266.959 -0.297324 0.678734 0
M  V30 2817 H 269.606 -0.0744332 1.91355 0
M  V30 2818 H 267.911 -2.39562 3.10028 0
M  V30 2819 H 269.608 -2.13643 3.39349 0
M  V30 2820 H 266.198 -0.939006 4.18187 0
M  V30 2821 H 270.382 -0.33167 4.95191 0
M  V30 2822 H 265.638 0.501528 6.0934 0
M  V30 2823 H 269.812 1.10345 6.87602 0
M  V30 2824 H 267.439 1.52609 7.44725 0
M  V30 2825 N 269.014 -1.53014 -0.377408 0
M  V30 2826 C 270.26 -1.68872 -1.12294 0
M  V30 2827 C 270.593 -0.433224 -1.89306 0
M  V30 2828 O 269.868 0.569258 -1.85983 0
M  V30 2829 C 270.151 -2.93115 -2.09179 0
M  V30 2830 C 270.004 -4.28794 -1.35853 0
M  V30 2831 C 271.323 -3.12928 -3.09458 0
M  V30 2832 H 268.442 -0.614518 -0.406862 0
M  V30 2833 H 271.084 -1.85633 -0.40503 0
M  V30 2834 H 269.234 -2.78956 -2.70399 0
M  V30 2835 H 270.906 -4.54742 -0.775082 0
M  V30 2836 H 269.149 -4.28744 -0.660364 0
M  V30 2837 H 269.82 -5.11837 -2.06706 0
M  V30 2838 H 272.296 -3.26194 -2.58334 0
M  V30 2839 H 271.172 -4.01316 -3.74482 0
M  V30 2840 H 271.433 -2.27669 -3.78971 0
M  V30 2841 N 270.492 0.636531 -1.44174 0
M  V30 2842 C 271.717 1.42847 -1.50364 0
M  V30 2843 C 272.142 1.87665 -0.127867 0
M  V30 2844 O 271.5 1.58408 0.88185 0
M  V30 2845 C 271.548 2.62854 -2.4686 0
M  V30 2846 O 270.652 3.62501 -1.9664 0
M  V30 2847 H 269.993 0.427642 -0.507955 0
M  V30 2848 H 272.523 0.777422 -1.89255 0
M  V30 2849 H 272.533 3.10465 -2.64718 0
M  V30 2850 H 271.208 2.29578 -3.46795 0
M  V30 2851 H 269.785 3.21735 -1.88523 0
M  V30 2852 N 271.97 1.30982 0.876444 0
M  V30 2853 C 273.218 1.20058 1.62575 0
M  V30 2854 C 273.539 -0.242947 1.93481 0
M  V30 2855 O 272.809 -1.1619 1.57724 0
M  V30 2856 H 271.389 0.44135 0.602677 0
M  V30 2857 H 274.051 1.64222 1.04962 0
M  V30 2858 H 273.147 1.76762 2.57219 0
M  V30 2859 N 273.449 -1.08991 1.13837 0
M  V30 2860 C 274.677 -1.85011 0.926202 0
M  V30 2861 C 275.092 -1.8135 -0.525127 0
M  V30 2862 O 274.449 -1.21287 -1.36366 0
M  V30 2863 C 274.5 -3.32802 1.41155 0
M  V30 2864 O 274.221 -3.36444 2.80601 0
M  V30 2865 C 275.722 -4.25649 1.23847 0
M  V30 2866 H 272.942 -0.584249 0.32999 0
M  V30 2867 H 275.486 -1.37688 1.51202 0
M  V30 2868 H 273.641 -3.77536 0.868631 0
M  V30 2869 H 274.055 -4.28657 3.02248 0
M  V30 2870 H 275.529 -5.27485 1.62675 0
M  V30 2871 H 276.006 -4.38828 0.18065 0
M  V30 2872 H 276.612 -3.86735 1.76964 0
M  V30 2873 N 274.927 -0.932562 -1.27047 0
M  V30 2874 C 275.857 -0.452902 -2.29066 0
M  V30 2875 C 276.838 0.489338 -1.62909 0
M  V30 2876 O 278.023 0.393046 -1.90181 0
M  V30 2877 C 275.153 0.290698 -3.46081 0
M  V30 2878 C 274.107 -0.564168 -4.24265 0
M  V30 2879 C 273.433 0.308886 -5.33807 0
M  V30 2880 C 274.733 -1.83112 -4.89149 0
M  V30 2881 H 276.427 -1.30552 -2.69437 0
M  V30 2882 H 273.973 -0.629201 -1.29526 0
M  V30 2883 H 275.926 0.637233 -4.16554 0
M  V30 2884 H 274.65 1.17738 -3.0464 0
M  V30 2885 H 273.309 -0.893477 -3.55545 0
M  V30 2886 H 272.957 1.19467 -4.88607 0
M  V30 2887 H 272.657 -0.259633 -5.87026 0
M  V30 2888 H 274.181 0.650884 -6.07121 0
M  V30 2889 H 275.595 -1.55236 -5.51883 0
M  V30 2890 H 273.992 -2.34353 -5.52448 0
M  V30 2891 H 275.062 -2.54772 -4.12576 0
M  V30 2892 N 276.405 1.4127 -0.698611 0
M  V30 2893 C 277.315 2.34573 -0.0357891 0
M  V30 2894 C 278.331 1.56393 0.762701 0
M  V30 2895 O 279.507 1.8886 0.699564 0
M  V30 2896 C 276.572 3.35159 0.887089 0
M  V30 2897 C 275.633 4.29225 0.0804634 0
M  V30 2898 C 274.866 5.25006 0.959387 0
M  V30 2899 O 275.089 5.26314 2.19886 0
M  V30 2900 O 274.023 6.00519 0.407439 0
M  V30 2901 H 277.849 2.92838 -0.804957 0
M  V30 2902 H 275.434 1.42175 -0.458966 0
M  V30 2903 H 277.316 3.9689 1.41621 0
M  V30 2904 H 275.991 2.79333 1.6357 0
M  V30 2905 H 274.898 3.70833 -0.493328 0
M  V30 2906 H 276.231 4.88157 -0.629547 0
M  V30 2907 N 277.883 0.443576 1.51229 0
M  V30 2908 C 278.793 -0.370721 2.31652 0
M  V30 2909 C 279.809 -1.02186 1.40833 0
M  V30 2910 O 280.985 -1.01586 1.73903 0
M  V30 2911 C 278.05 -1.45376 3.14749 0
M  V30 2912 C 277.111 -0.822099 4.21355 0
M  V30 2913 C 276.344 -1.85353 5.0048 0
M  V30 2914 O 276.567 -3.07656 4.80316 0
M  V30 2915 O 275.501 -1.4406 5.84406 0
M  V30 2916 H 279.327 0.286002 3.0235 0
M  V30 2917 H 276.912 0.20598 1.47973 0
M  V30 2918 H 278.794 -2.08173 3.66391 0
M  V30 2919 H 277.469 -2.09445 2.46809 0
M  V30 2920 H 276.376 -0.155909 3.73775 0
M  V30 2921 H 277.709 -0.224797 4.91686 0
M  V30 2922 N 279.361 -1.56624 0.175154 0
M  V30 2923 C 280.772 -1.83561 -0.340916 0
M  V30 2924 C 281.123 -1.09511 -1.62794 0
M  V30 2925 O 280.248 -0.349389 -2.13561 0
M  V30 2926 C 280.843 -3.32979 -0.625313 0
M  V30 2927 C 279.402 -3.60399 -1.08581 0
M  V30 2928 C 278.549 -2.77024 -0.123722 0
M  V30 2929 H 281.5 -1.53593 0.399344 0
M  V30 2930 H 281.521 -3.50666 -1.47694 0
M  V30 2931 H 281.033 -3.86847 0.311575 0
M  V30 2932 H 279.134 -3.11945 -2.03767 0
M  V30 2933 H 279.247 -4.68711 -0.992317 0
M  V30 2934 H 277.611 -2.46993 -0.621821 0
M  V30 2935 H 278.394 -3.33674 0.807256 0
M  V30 2936 N 280.839 0.0985539 -1.57292 0
M  V30 2937 C 282.088 0.801358 -1.85098 0
M  V30 2938 C 282.401 1.80066 -0.763902 0
M  V30 2939 O 283.607 2.55112 -0.928981 0
M  V30 2940 C 282.063 1.47599 -3.28242 0
M  V30 2941 C 281.671 0.516624 -4.45011 0
M  V30 2942 C 283.415 2.16272 -3.65276 0
M  V30 2943 C 281.322 1.19564 -5.79188 0
M  V30 2944 H 280.252 0.303022 -0.69043 0
M  V30 2945 H 282.903 0.0542623 -1.8342 0
M  V30 2946 H 281.285 2.27042 -3.2445 0
M  V30 2947 H 282.459 -0.246065 -4.60143 0
M  V30 2948 H 280.774 -0.064227 -4.1635 0
M  V30 2949 H 283.371 2.67802 -4.62803 0
M  V30 2950 H 283.714 2.95009 -2.93727 0
M  V30 2951 H 284.247 1.43693 -3.70941 0
M  V30 2952 H 280.986 0.449157 -6.53959 0
M  V30 2953 H 280.506 1.92984 -5.67906 0
M  V30 2954 H 282.185 1.7231 -6.23633 0
M  V30 2955 N 282.317 1.53212 0.369288 0
M  V30 2956 C 283.265 1.80054 1.47253 0
M  V30 2957 C 284.259 0.669456 1.55611 0
M  V30 2958 O 285.465 0.852328 1.58541 0
M  V30 2959 H 281.84 0.570034 0.490475 0
M  V30 2960 H 283.811 2.72403 1.21817 0
M  V30 2961 C 282.56 2.00403 2.84137 0
M  V30 2962 H 281.883 2.86876 2.78464 0
M  V30 2963 H 283.323 2.23164 3.60519 0
M  V30 2964 C 281.782 0.782081 3.27697 0
M  V30 2965 O 282.312 -0.0310205 4.01688 0
M  V30 2966 N 280.518 0.606573 2.84199 0
M  V30 2967 H 280.065 1.26939 2.24152 0
M  V30 2968 H 280.023 -0.20962 3.137 0
M  V30 2969 N 283.795 -0.628877 1.44509 0
M  V30 2970 C 284.745 -1.7345 1.47983 0
M  V30 2971 C 285.729 -1.5715 0.345373 0
M  V30 2972 O 286.921 -1.66848 0.590829 0
M  V30 2973 C 284.05 -3.12143 1.42904 0
M  V30 2974 C 283.136 -3.33906 2.61472 0
M  V30 2975 N 283.527 -3.26024 3.86706 0
M  V30 2976 C 281.825 -3.64709 2.56716 0
M  V30 2977 C 282.526 -3.48536 4.65722 0
M  V30 2978 N 281.502 -3.71517 3.96832 0
M  V30 2979 H 285.304 -1.65818 2.42655 0
M  V30 2980 H 282.818 -0.831419 1.39503 0
M  V30 2981 H 284.815 -3.91433 1.43476 0
M  V30 2982 H 283.475 -3.2094 0.492717 0
M  V30 2983 H 284.486 -3.04893 4.18641 0
M  V30 2984 H 281.163 -3.80473 1.71891 0
M  V30 2985 H 282.553 -3.48016 5.74747 0
M  V30 2986 N 285.273 -1.31445 -0.869486 0
M  V30 2987 C 286.236 -1.19094 -1.9583 0
M  V30 2988 C 287.236 -0.117906 -1.60367 0
M  V30 2989 O 288.426 -0.367208 -1.70286 0
M  V30 2990 C 285.558 -0.828165 -3.30688 0
M  V30 2991 H 286.751 -2.15842 -2.08212 0
M  V30 2992 H 284.304 -1.15063 -1.05784 0
M  V30 2993 H 285.039 0.138142 -3.24006 0
M  V30 2994 H 284.824 -1.6038 -3.578 0
M  V30 2995 H 286.314 -0.765658 -4.10521 0
M  V30 2996 N 286.751 1.08385 -1.14413 0
M  V30 2997 C 287.698 2.15311 -0.831265 0
M  V30 2998 C 288.668 1.64751 0.211292 0
M  V30 2999 O 289.853 1.90627 0.0811674 0
M  V30 3000 C 286.993 3.43658 -0.315143 0
M  V30 3001 C 286.106 4.08064 -1.41802 0
M  V30 3002 C 285.241 5.24207 -0.859126 0
M  V30 3003 C 284.28 5.80554 -1.93967 0
M  V30 3004 N 283.417 6.88042 -1.39793 0
M  V30 3005 H 288.257 2.41415 -1.74708 0
M  V30 3006 H 285.794 1.18474 -0.871909 0
M  V30 3007 H 287.752 4.172 0.00230884 0
M  V30 3008 H 286.382 3.17839 0.56378 0
M  V30 3009 H 285.434 3.3228 -1.85187 0
M  V30 3010 H 286.746 4.45962 -2.23427 0
M  V30 3011 H 285.9 6.04689 -0.49359 0
M  V30 3012 H 284.639 4.87699 -0.011932 0
M  V30 3013 H 283.644 4.98725 -2.31415 0
M  V30 3014 H 284.869 6.19121 -2.79046 0
M  V30 3015 H 282.815 6.53493 -0.572919 0
M  V30 3016 H 282.732 7.24767 -2.15054 0
M  V30 3017 H 284 7.72255 -1.0603 0
M  V30 3018 N 288.23 0.939286 1.26551 0
M  V30 3019 C 289.177 0.446088 2.26448 0
M  V30 3020 C 290.147 -0.493234 1.58608 0
M  V30 3021 O 291.332 -0.409857 1.86346 0
M  V30 3022 C 288.472 -0.284375 3.43926 0
M  V30 3023 C 287.585 0.690399 4.26448 0
M  V30 3024 C 286.72 -0.0610712 5.31165 0
M  V30 3025 C 285.759 0.905649 6.05363 0
M  V30 3026 N 284.896 0.186055 7.01853 0
M  V30 3027 H 289.736 1.30291 2.68008 0
M  V30 3028 H 287.273 0.65371 1.31776 0
M  V30 3029 H 289.231 -0.724313 4.10864 0
M  V30 3030 H 287.861 -1.10535 3.03285 0
M  V30 3031 H 286.913 1.24885 3.59316 0
M  V30 3032 H 288.225 1.42873 4.779 0
M  V30 3033 H 287.379 -0.56038 6.04106 0
M  V30 3034 H 286.118 -0.832297 4.80546 0
M  V30 3035 H 285.123 1.4161 5.3125 0
M  V30 3036 H 286.348 1.67685 6.58072 0
M  V30 3037 H 284.294 -0.566714 6.53548 0
M  V30 3038 H 284.211 0.863752 7.51049 0
M  V30 3039 H 285.479 -0.292221 7.78952 0
M  V30 3040 N 289.708 -1.40897 0.706093 0
M  V30 3041 C 290.954 -2.01352 0.241889 0
M  V30 3042 C 291.287 -1.55832 -1.15888 0
M  V30 3043 O 290.562 -0.774145 -1.7843 0
M  V30 3044 C 290.845 -3.58752 0.311311 0
M  V30 3045 C 290.698 -4.1437 1.74978 0
M  V30 3046 C 292.017 -4.38914 -0.322922 0
M  V30 3047 H 289.136 -0.731562 0.0893687 0
M  V30 3048 H 291.778 -1.67504 0.896802 0
M  V30 3049 H 289.928 -3.87718 -0.246302 0
M  V30 3050 H 291.6 -3.96239 2.36205 0
M  V30 3051 H 289.843 -3.69016 2.28057 0
M  V30 3052 H 290.514 -5.23532 1.74981 0
M  V30 3053 H 292.99 -4.15822 0.152089 0
M  V30 3054 H 291.866 -5.48358 -0.243855 0
M  V30 3055 H 292.127 -4.19176 -1.40513 0
M  V30 3056 N 291.186 -0.45159 -1.50991 0
M  V30 3057 C 292.133 0.352625 -2.2809 0
M  V30 3058 C 293.103 1.0044 -1.32291 0
M  V30 3059 O 294.288 1.02058 -1.6121 0
M  V30 3060 C 291.428 1.43983 -3.13629 0
M  V30 3061 C 290.541 0.804772 -4.24438 0
M  V30 3062 C 289.676 1.86822 -4.97263 0
M  V30 3063 C 288.715 1.21236 -5.99973 0
M  V30 3064 N 287.852 2.2178 -6.66152 0
M  V30 3065 H 292.692 -0.311186 -2.96371 0
M  V30 3066 H 290.229 -0.165308 -1.46168 0
M  V30 3067 H 292.187 2.08161 -3.61559 0
M  V30 3068 H 290.817 2.07307 -2.47434 0
M  V30 3069 H 289.869 0.0509129 -3.80366 0
M  V30 3070 H 291.181 0.286076 -4.97979 0
M  V30 3071 H 290.335 2.58628 -5.48813 0
M  V30 3072 H 289.074 2.42068 -4.23385 0
M  V30 3073 H 288.079 0.479828 -5.47702 0
M  V30 3074 H 289.304 0.667051 -6.75816 0
M  V30 3075 H 287.25 2.76079 -5.95077 0
M  V30 3076 H 287.167 1.74841 -7.35504 0
M  V30 3077 H 288.435 2.93026 -7.22327 0
M  V30 3078 N 292.664 1.56529 -0.183458 0
M  V30 3079 C 293.912 1.96855 0.457452 0
M  V30 3080 C 294.233 1.07104 1.62953 0
M  V30 3081 O 293.503 0.139887 1.954 0
M  V30 3082 H 292.083 0.72693 0.171992 0
M  V30 3083 H 294.745 1.93056 -0.267476 0
M  V30 3084 H 293.841 3.01423 0.809368 0
M  V30 3085 N 294.142 -0.090211 1.57342 0
M  V30 3086 C 295.372 -0.805055 1.90269 0
M  V30 3087 C 295.78 -1.72561 0.775842 0
M  V30 3088 O 295.123 -1.81839 -0.260843 0
M  V30 3089 C 295.185 -1.66734 3.18497 0
M  V30 3090 C 294.849 -0.918092 4.47683 0
M  V30 3091 C 295.846 -0.245674 5.19319 0
M  V30 3092 C 293.531 -0.890724 4.94339 0
M  V30 3093 C 295.525 0.444088 6.35851 0
M  V30 3094 C 293.212 -0.197179 6.10782 0
M  V30 3095 C 294.21 0.469044 6.81388 0
M  V30 3096 O 293.898 1.15146 7.95611 0
M  V30 3097 H 293.63 -0.235143 0.633785 0
M  V30 3098 H 296.184 -0.0703805 2.05279 0
M  V30 3099 H 294.414 -2.44437 2.99646 0
M  V30 3100 H 296.103 -2.25919 3.37217 0
M  V30 3101 H 296.869 -0.258246 4.84312 0
M  V30 3102 H 292.748 -1.39873 4.39268 0
M  V30 3103 H 296.292 0.964667 6.90898 0
M  V30 3104 H 292.189 -0.18247 6.45242 0
M  V30 3105 H 292.957 1.05885 8.11622 0
M  V30 3106 N 295.62 -1.53406 -0.361157 0
M  V30 3107 C 296.567 -1.80156 -1.44265 0
M  V30 3108 C 297.537 -0.646183 -1.53015 0
M  V30 3109 O 298.722 -0.888818 -1.68833 0
M  V30 3110 C 295.862 -2.00116 -2.81154 0
M  V30 3111 C 294.975 -3.27833 -2.81335 0
M  V30 3112 C 294.11 -3.37957 -4.09828 0
M  V30 3113 C 293.149 -4.59689 -4.04168 0
M  V30 3114 N 292.286 -4.66942 -5.24318 0
M  V30 3115 H 297.126 -2.72438 -1.20754 0
M  V30 3116 H 294.663 -1.34954 -0.585296 0
M  V30 3117 H 296.621 -2.09677 -3.60682 0
M  V30 3118 H 295.251 -1.11167 -3.03054 0
M  V30 3119 H 294.303 -3.27204 -1.94014 0
M  V30 3120 H 295.615 -4.17442 -2.73027 0
M  V30 3121 H 294.769 -3.46853 -4.97773 0
M  V30 3122 H 293.508 -2.46372 -4.20894 0
M  V30 3123 H 292.513 -4.50889 -3.14609 0
M  V30 3124 H 293.738 -5.5262 -3.947 0
M  V30 3125 H 291.684 -3.7826 -5.35962 0
M  V30 3126 H 291.601 -5.50462 -5.18197 0
M  V30 3127 H 292.869 -4.80127 -6.14084 0
M  V30 3128 N 297.098 0.621204 -1.44841 0
M  V30 3129 C 298.514 0.94048 -1.28946 0
M  V30 3130 C 298.714 2.00154 -0.23249 0
M  V30 3131 O 297.77 2.49651 0.378237 0
M  V30 3132 C 299.083 1.39433 -2.66419 0
M  V30 3133 C 300.631 1.50927 -2.74208 0
M  V30 3134 C 301.106 1.99692 -4.12174 0
M  V30 3135 N 302.597 2.06947 -4.144 0
M  V30 3136 C 303.332 2.45871 -5.1801 0
M  V30 3137 N 302.828 2.83862 -6.31977 0
M  V30 3138 N 304.621 2.46092 -5.05366 0
M  V30 3139 H 296.772 -0.0803548 -2.12248 0
M  V30 3140 H 299.035 0.0266913 -0.947624 0
M  V30 3141 H 298.741 0.688925 -3.44887 0
M  V30 3142 H 298.615 2.36347 -2.93973 0
M  V30 3143 H 301.002 2.20561 -1.96053 0
M  V30 3144 H 301.083 0.523627 -2.50383 0
M  V30 3145 H 300.727 1.30649 -4.90809 0
M  V30 3146 H 300.657 2.99146 -4.33381 0
M  V30 3147 H 303.148 1.80232 -3.32152 0
M  V30 3148 H 303.461 3.12405 -7.0684 0
M  V30 3149 H 301.806 2.8159 -6.35399 0
M  V30 3150 H 304.997 2.1581 -4.15384 0
M  V30 3151 H 305.17 2.76102 -5.86235 0
M  V30 3152 N 298.576 1.31904 0.862503 0
M  V30 3153 C 299.539 1.20131 1.95195 0
M  V30 3154 C 300.539 0.126409 1.60302 0
M  V30 3155 O 301.729 0.376234 1.70089 0
M  V30 3156 C 298.861 0.845691 3.30244 0
M  V30 3157 H 300.054 2.16943 2.07064 0
M  V30 3158 H 297.607 1.15622 1.05172 0
M  V30 3159 H 298.342 -0.120957 3.24074 0
M  V30 3160 H 298.127 1.62276 3.56944 0
M  V30 3161 H 299.617 0.787418 4.10109 0
M  V30 3162 N 300.054 -1.07777 1.14986 0
M  V30 3163 C 300.984 -2.16865 0.865557 0
M  V30 3164 C 301.965 -1.69123 -0.182083 0
M  V30 3165 O 303.15 -1.94164 -0.0373815 0
M  V30 3166 C 300.28 -3.45539 0.349313 0
M  V30 3167 C 299.234 -4.06708 1.33313 0
M  V30 3168 C 298.56 -5.30411 0.675918 0
M  V30 3169 C 299.86 -4.47241 2.69764 0
M  V30 3170 H 301.554 -2.40905 1.77778 0
M  V30 3171 H 299.1 -1.15781 0.856203 0
M  V30 3172 H 301.053 -4.21174 0.137983 0
M  V30 3173 H 299.777 -3.21072 -0.598362 0
M  V30 3174 H 298.436 -3.33112 1.53075 0
M  V30 3175 H 298.084 -5.02232 -0.277767 0
M  V30 3176 H 297.784 -5.72293 1.33244 0
M  V30 3177 H 299.308 -6.08755 0.474262 0
M  V30 3178 H 300.722 -5.14025 2.53873 0
M  V30 3179 H 299.119 -5.00062 3.3175 0
M  V30 3180 H 300.189 -3.58818 3.26156 0
M  V30 3181 N 301.532 -0.945985 -1.26051 0
M  V30 3182 C 302.76 -0.613025 -1.9761 0
M  V30 3183 C 303.175 0.813035 -1.70397 0
M  V30 3184 O 302.532 1.54274 -0.974979 0
M  V30 3185 C 302.583 -0.85159 -3.51326 0
M  V30 3186 O 302.304 -2.22157 -3.77595 0
M  V30 3187 C 303.805 -0.529831 -4.40122 0
M  V30 3188 H 301.025 -0.230593 -0.630133 0
M  V30 3189 H 303.569 -1.268 -1.60443 0
M  V30 3190 H 301.724 -0.243151 -3.86636 0
M  V30 3191 H 302.138 -2.2852 -4.721 0
M  V30 3192 H 303.612 -0.747348 -5.46917 0
M  V30 3193 H 304.089 0.535341 -4.35925 0
M  V30 3194 H 304.695 -1.11721 -4.10364 0
M  V30 3195 N 303.011 1.40521 -0.713556 0
M  V30 3196 C 303.921 2.34522 -0.0606667 0
M  V30 3197 C 304.937 1.57193 0.74607 0
M  V30 3198 O 306.113 1.89591 0.679493 0
M  V30 3199 C 303.178 3.36081 0.851491 0
M  V30 3200 C 302.239 4.29286 0.0349339 0
M  V30 3201 C 301.472 5.25994 0.903649 0
M  V30 3202 O 301.695 5.28616 2.14292 0
M  V30 3203 O 300.629 6.00918 0.343723 0
M  V30 3204 H 304.455 2.91968 -0.835972 0
M  V30 3205 H 302.04 1.41681 -0.47402 0
M  V30 3206 H 303.922 3.98369 1.37404 0
M  V30 3207 H 302.597 2.81052 1.60598 0
M  V30 3208 H 301.504 3.70289 -0.532633 0
M  V30 3209 H 302.837 4.87462 -0.681287 0
M  V30 3210 N 304.489 0.459591 1.5075 0
M  V30 3211 C 305.714 -0.0996819 2.0716 0
M  V30 3212 C 306.139 -1.33761 1.32249 0
M  V30 3213 O 305.497 -1.77551 0.366786 0
M  V30 3214 C 305.545 -0.378226 3.58611 0
M  V30 3215 O 304.649 -1.46081 3.85661 0
M  V30 3216 H 303.99 0.00791392 0.663953 0
M  V30 3217 H 306.52 0.647329 1.9409 0
M  V30 3218 H 306.53 -0.622135 4.03229 0
M  V30 3219 H 305.205 0.526439 4.12555 0
M  V30 3220 H 303.782 -1.20511 3.5289 0
M  V30 3221 N 305.967 -1.56429 0.191757 0
M  V30 3222 C 307.215 -1.97095 -0.447006 0
M  V30 3223 C 307.536 -1.07967 -1.62383 0
M  V30 3224 O 306.806 -0.150248 -1.95323 0
M  V30 3225 H 305.386 -0.727832 -0.168135 0
M  V30 3226 H 308.048 -1.92911 0.27771 0
M  V30 3227 H 307.144 -3.01848 -0.793371 0
M  V30 3228 N 307.445 0.0818655 -1.57387 0
M  V30 3229 C 308.375 1.09885 -2.06028 0
M  V30 3230 C 309.356 1.4098 -0.951774 0
M  V30 3231 O 310.541 1.50781 -1.22387 0
M  V30 3232 C 307.671 2.4151 -2.4958 0
M  V30 3233 C 306.625 2.24792 -3.64215 0
M  V30 3234 C 305.951 3.61712 -3.93787 0
M  V30 3235 C 307.251 1.67749 -4.94629 0
M  V30 3236 H 308.945 0.694128 -2.91243 0
M  V30 3237 H 306.491 0.332448 -1.4011 0
M  V30 3238 H 308.444 3.12939 -2.82219 0
M  V30 3239 H 307.168 2.83943 -1.61381 0
M  V30 3240 H 305.827 1.55807 -3.31843 0
M  V30 3241 H 305.475 4.01697 -3.02735 0
M  V30 3242 H 305.175 3.51368 -4.70971 0
M  V30 3243 H 306.699 4.34587 -4.28913 0
M  V30 3244 H 308.113 2.29032 -5.25564 0
M  V30 3245 H 306.51 1.68128 -5.76067 0
M  V30 3246 H 307.58 0.638059 -4.80684 0
M  V30 3247 N 308.923 1.53595 0.353017 0
M  V30 3248 C 310.334 1.61937 0.929153 0
M  V30 3249 C 310.685 0.494686 1.89861 0
M  V30 3250 O 309.81 -0.377017 2.1309 0
M  V30 3251 C 310.405 2.93526 1.69199 0
M  V30 3252 C 308.964 3.04161 2.21727 0
M  V30 3253 C 308.111 2.57322 1.03348 0
M  V30 3254 H 311.062 1.58155 0.131431 0
M  V30 3255 H 311.083 2.82034 2.55416 0
M  V30 3256 H 310.595 3.75362 0.986144 0
M  V30 3257 H 308.696 2.26938 2.95516 0
M  V30 3258 H 308.809 4.09465 2.48748 0
M  V30 3259 H 307.173 2.12499 1.40414 0
M  V30 3260 H 307.956 3.41588 0.342428 0
M  V30 3261 N 310.401 -0.613514 1.45168 0
M  V30 3262 C 311.647 -1.37471 1.49096 0
M  V30 3263 C 311.98 -1.93765 0.129901 0
M  V30 3264 O 311.255 -1.74707 -0.854858 0
M  V30 3265 C 311.538 -2.52701 2.56542 0
M  V30 3266 C 311.391 -2.01643 4.0207 0
M  V30 3267 C 312.71 -3.54849 2.60327 0
M  V30 3268 H 309.829 -0.498502 0.54283 0
M  V30 3269 H 312.471 -0.692125 1.76945 0
M  V30 3270 H 310.621 -3.10931 2.32926 0
M  V30 3271 H 312.293 -1.48108 4.36877 0
M  V30 3272 H 310.536 -1.32688 4.13009 0
M  V30 3273 H 311.207 -2.84681 4.72928 0
M  V30 3274 H 313.683 -3.0645 2.81474 0
M  V30 3275 H 312.559 -4.32973 3.37381 0
M  V30 3276 H 312.82 -4.10079 1.6519 0
M  V30 3277 N 311.879 -1.3236 -0.855495 0
M  V30 3278 C 313.295 -1.11332 -1.14356 0
M  V30 3279 C 313.495 0.106751 -2.01217 0
M  V30 3280 O 312.551 0.791891 -2.39761 0
M  V30 3281 C 313.864 -2.39237 -1.82171 0
M  V30 3282 C 315.412 -2.44986 -1.9481 0
M  V30 3283 C 315.887 -3.7281 -2.66039 0
M  V30 3284 N 317.378 -3.73787 -2.73565 0
M  V30 3285 C 318.113 -4.69394 -3.29327 0
M  V30 3286 N 317.609 -5.75367 -3.85907 0
M  V30 3287 N 319.402 -4.56893 -3.27423 0
M  V30 3288 H 311.553 -2.10586 -0.277027 0
M  V30 3289 H 313.816 -0.929701 -0.185364 0
M  V30 3290 H 313.522 -3.28431 -1.25802 0
M  V30 3291 H 313.396 -2.50134 -2.82335 0
M  V30 3292 H 315.783 -1.56252 -2.50338 0
M  V30 3293 H 315.864 -2.38043 -0.936448 0
M  V30 3294 H 315.508 -4.61918 -2.11174 0
M  V30 3295 H 315.438 -3.77024 -3.67642 0
M  V30 3296 H 317.929 -2.97189 -2.33424 0
M  V30 3297 H 318.242 -6.44378 -4.26611 0
M  V30 3298 H 316.587 -5.79123 -3.84242 0
M  V30 3299 H 319.778 -3.73269 -2.82467 0
M  V30 3300 H 319.951 -5.31577 -3.7058 0
M  V30 3301 N 313.357 1.07166 -1.15556 0
M  V30 3302 C 314.634 1.76546 -0.842069 0
M  V30 3303 C 315.014 2.00453 0.661939 0
M  V30 3304 O 314.362 1.62452 1.60691 0
M  V30 3305 C 314.572 3.07266 -1.65495 0
M  V30 3306 C 315.92 3.81578 -1.86234 0
M  V30 3307 O 316.944 3.17083 -1.62287 0
M  V30 3308 O 315.803 4.97419 -2.26355 0
M  V30 3309 H 312.897 0.766756 -0.309862 0
M  V30 3310 H 315.443 1.13514 -1.26145 0
M  V30 3311 H 314.215 2.85494 -2.67598 0
M  V30 3312 H 313.838 3.7803 -1.23203 0
M  V30 3313 N 314.835 0.952656 1.25548 0
M  V30 3314 C 316.06 0.623025 1.97821 0
M  V30 3315 C 316.485 -0.7976 1.70352 0
M  V30 3316 O 315.843 -1.53905 0.958283 0
M  V30 3317 C 315.891 0.885532 3.49558 0
M  V30 3318 O 314.995 -0.0366641 4.12384 0
M  V30 3319 H 314.336 0.237082 0.620232 0
M  V30 3320 H 316.866 1.27871 1.59719 0
M  V30 3321 H 316.876 0.811009 3.99858 0
M  V30 3322 H 315.551 1.92094 3.6888 0
M  V30 3323 H 314.128 0.0898954 3.72792 0
M  V30 3324 N 316.313 -1.40141 0.720998 0
M  V30 3325 C 317.543 -2.04798 0.27226 0
M  V30 3326 C 317.951 -1.54442 -1.09289 0
M  V30 3327 O 317.294 -0.698342 -1.69908 0
M  V30 3328 C 317.356 -3.59048 0.18027 0
M  V30 3329 C 317.02 -4.32317 1.48159 0
M  V30 3330 C 318.017 -4.59902 2.42458 0
M  V30 3331 C 315.702 -4.71125 1.74202 0
M  V30 3332 C 317.696 -5.25288 3.61042 0
M  V30 3333 C 315.383 -5.36242 2.93066 0
M  V30 3334 C 316.381 -5.63254 3.86308 0
M  V30 3335 O 316.069 -6.27024 5.03086 0
M  V30 3336 H 315.801 -0.665419 0.119139 0
M  V30 3337 H 318.355 -1.80436 0.981432 0
M  V30 3338 H 316.585 -3.82251 -0.58489 0
M  V30 3339 H 318.274 -4.05221 -0.234618 0
M  V30 3340 H 319.04 -4.30379 2.23604 0
M  V30 3341 H 314.919 -4.49466 1.02477 0
M  V30 3342 H 318.463 -5.46289 4.33837 0
M  V30 3343 H 314.36 -5.65185 3.11826 0
M  V30 3344 H 315.128 -6.4552 5.03235 0
M  V30 3345 N 317.792 -0.46758 -1.50504 0
M  V30 3346 C 319.041 0.0902868 -2.01498 0
M  V30 3347 C 319.354 1.411 -1.35463 0
M  V30 3348 O 320.56 2.0536 -1.77594 0
M  V30 3349 C 319.016 0.21142 -3.59278 0
M  V30 3350 C 318.624 -1.10065 -4.34269 0
M  V30 3351 C 320.368 0.721433 -4.18325 0
M  V30 3352 C 318.275 -0.943505 -5.83825 0
M  V30 3353 H 317.205 0.037517 -0.753066 0
M  V30 3354 H 319.856 -0.601943 -1.73346 0
M  V30 3355 H 318.238 0.967352 -3.84003 0
M  V30 3356 H 319.412 -1.86726 -4.21272 0
M  V30 3357 H 317.727 -1.5415 -3.86816 0
M  V30 3358 H 320.324 0.85598 -5.27804 0
M  V30 3359 H 320.667 1.71186 -3.79475 0
M  V30 3360 H 321.2 0.0229843 -3.97793 0
M  V30 3361 H 317.939 -1.90719 -6.27141 0
M  V30 3362 H 317.459 -0.217213 -5.99407 0
M  V30 3363 H 319.138 -0.608715 -6.4413 0
M  V30 3364 N 319.27 1.56325 -0.20005 0
M  V30 3365 C 320.516 1.98012 0.438059 0
M  V30 3366 C 320.849 1.08702 1.60927 0
M  V30 3367 O 320.124 0.140064 1.93995 0
M  V30 3368 C 320.407 3.48841 0.893419 0
M  V30 3369 C 320.26 4.48928 -0.279947 0
M  V30 3370 C 321.579 4.03498 1.75719 0
M  V30 3371 H 318.698 0.719918 0.157757 0
M  V30 3372 H 321.34 1.87743 -0.291968 0
M  V30 3373 H 319.49 3.57723 1.51547 0
M  V30 3374 H 321.162 4.52079 -0.91772 0
M  V30 3375 H 319.405 4.23694 -0.930919 0
M  V30 3376 H 320.076 5.5194 0.0812601 0
M  V30 3377 H 322.552 3.97427 1.23253 0
M  V30 3378 H 321.428 5.09393 2.04476 0
M  V30 3379 H 321.689 3.4906 2.71311 0
M  V30 3380 N 320.748 -0.0735177 1.57428 0
M  V30 3381 C 321.658 -1.10547 2.06922 0
M  V30 3382 C 322.674 -1.42506 0.998402 0
M  V30 3383 O 323.85 -1.52717 1.31299 0
M  V30 3384 C 320.915 -2.40019 2.50184 0
M  V30 3385 C 319.976 -2.15046 3.71556 0
M  V30 3386 C 319.209 -3.38345 4.12745 0
M  V30 3387 O 319.432 -4.47399 3.53822 0
M  V30 3388 O 318.366 -3.2666 5.05546 0
M  V30 3389 H 322.192 -0.715013 2.95163 0
M  V30 3390 H 319.777 -0.287531 1.46607 0
M  V30 3391 H 321.659 -3.16218 2.78539 0
M  V30 3392 H 320.334 -2.78447 1.65072 0
M  V30 3393 H 319.241 -1.36558 3.48285 0
M  V30 3394 H 320.574 -1.81499 4.57514 0
M  V30 3395 N 322.226 -1.5378 -0.344866 0
M  V30 3396 C 323.474 -1.70625 -1.08311 0
M  V30 3397 C 323.795 -0.471447 -1.89215 0
M  V30 3398 O 323.065 0.514616 -1.8902 0
M  V30 3399 H 321.645 -0.629058 -0.402859 0
M  V30 3400 H 324.307 -1.9103 -0.386459 0
M  V30 3401 H 323.403 -2.57656 -1.76124 0
M  V30 3402 N 323.704 0.605807 -1.45491 0
M  V30 3403 C 324.981 1.36522 -1.40075 0
M  V30 3404 C 325.361 2.10976 -0.0722744 0
M  V30 3405 O 324.709 2.08007 0.945808 0
M  V30 3406 C 324.919 2.31056 -2.61561 0
M  V30 3407 C 326.267 2.93608 -3.06724 0
M  V30 3408 O 327.291 2.41376 -2.61946 0
M  V30 3409 O 326.15 3.88421 -3.84437 0
M  V30 3410 H 323.244 0.612248 -0.555951 0
M  V30 3411 H 325.79 0.628747 -1.57623 0
M  V30 3412 H 324.562 1.75311 -3.49831 0
M  V30 3413 H 324.185 3.12081 -2.46356 0
M  V30 3414 N 325.182 1.32811 0.848464 0
M  V30 3415 C 326.412 1.26556 1.63301 0
M  V30 3416 C 326.82 -0.1676 1.88456 0
M  V30 3417 O 326.163 -1.11713 1.45828 0
M  V30 3418 C 326.225 1.96202 3.01239 0
M  V30 3419 C 325.889 3.45528 2.99098 0
M  V30 3420 C 326.886 4.40903 2.75501 0
M  V30 3421 C 324.571 3.87558 3.19537 0
M  V30 3422 C 326.565 5.76282 2.72356 0
M  V30 3423 C 324.252 5.23044 3.16019 0
M  V30 3424 C 325.25 6.17217 2.92458 0
M  V30 3425 O 324.938 7.50223 2.88825 0
M  V30 3426 H 324.67 0.43771 0.515156 0
M  V30 3427 H 327.224 1.7559 1.0657 0
M  V30 3428 H 325.454 1.41746 3.59785 0
M  V30 3429 H 327.143 1.83573 3.62016 0
M  V30 3430 H 327.909 4.09756 2.5947 0
M  V30 3431 H 323.788 3.14674 3.369 0
M  V30 3432 H 327.332 6.4976 2.53886 0
M  V30 3433 H 323.229 5.53818 3.31596 0
M  V30 3434 H 323.997 7.59657 3.04735 0
M  V30 3435 N 326.66 -1.06551 1.16123 0
M  V30 3436 C 327.888 -1.83005 0.965237 0
M  V30 3437 C 328.303 -1.82423 -0.486542 0
M  V30 3438 O 327.66 -1.24152 -1.33763 0
M  V30 3439 C 327.711 -3.29733 1.48183 0
M  V30 3440 O 327.432 -3.30416 2.87674 0
M  V30 3441 C 328.933 -4.22926 1.32848 0
M  V30 3442 H 326.153 -0.577118 0.342309 0
M  V30 3443 H 328.697 -1.3445 1.54089 0
M  V30 3444 H 326.852 -3.75609 0.948517 0
M  V30 3445 H 327.266 -4.22149 3.11272 0
M  V30 3446 H 328.74 -5.23916 1.73827 0
M  V30 3447 H 329.217 -4.38346 0.273692 0
M  V30 3448 H 329.823 -3.82894 1.85127 0
M  V30 3449 N 328.138 -0.959301 -1.25041 0
M  V30 3450 C 329.368 -0.63303 -1.96663 0
M  V30 3451 C 329.776 0.800031 -1.71453 0
M  V30 3452 O 329.119 1.54736 -0.99008 0
M  V30 3453 C 329.181 -0.817523 -3.50081 0
M  V30 3454 C 328.845 -2.22863 -3.98975 0
M  V30 3455 C 329.842 -3.20569 -4.09306 0
M  V30 3456 C 327.527 -2.55407 -4.32519 0
M  V30 3457 C 329.521 -4.4891 -4.52503 0
M  V30 3458 C 327.208 -3.83976 -4.754 0
M  V30 3459 C 328.206 -4.8054 -4.85356 0
M  V30 3460 O 327.894 -6.06817 -5.27284 0
M  V30 3461 H 327.626 -0.235866 -0.633516 0
M  V30 3462 H 330.18 -1.2874 -1.60047 0
M  V30 3463 H 328.41 -0.105992 -3.86555 0
M  V30 3464 H 330.099 -0.491604 -4.02912 0
M  V30 3465 H 330.865 -2.96753 -3.83618 0
M  V30 3466 H 326.744 -1.8097 -4.23994 0
M  V30 3467 H 330.288 -5.24283 -4.60188 0
M  V30 3468 H 326.185 -4.07596 -5.00535 0
M  V30 3469 H 326.953 -6.10262 -5.45457 0
M  V30 3470 N 329.616 1.39756 -0.72842 0
M  V30 3471 C 330.893 1.94574 -0.200079 0
M  V30 3472 C 331.273 1.66569 1.29684 0
M  V30 3473 O 330.621 0.990326 2.05924 0
M  V30 3474 C 330.831 3.45004 -0.526608 0
M  V30 3475 C 332.179 4.21965 -0.472318 0
M  V30 3476 O 333.203 3.53173 -0.463413 0
M  V30 3477 O 332.062 5.44552 -0.461075 0
M  V30 3478 H 329.156 0.826289 -0.0342851 0
M  V30 3479 H 331.702 1.49293 -0.806829 0
M  V30 3480 H 330.474 3.58796 -1.56144 0
M  V30 3481 H 330.097 3.97449 0.109449 0
M  V30 3482 N 331.094 0.475555 1.50254 0
M  V30 3483 C 332.319 -0.0777042 2.07254 0
M  V30 3484 C 332.744 -1.3235 1.3366 0
M  V30 3485 O 332.102 -1.77152 0.385597 0
M  V30 3486 C 332.15 -0.340169 3.58992 0
M  V30 3487 O 331.254 -1.41982 3.87188 0
M  V30 3488 H 330.595 0.0149556 0.663832 0
M  V30 3489 H 333.125 0.667878 1.93392 0
M  V30 3490 H 333.135 -0.579332 4.03866 0
M  V30 3491 H 331.81 0.570167 4.11973 0
M  V30 3492 H 330.387 -1.16762 3.54148 0
M  V30 3493 N 332.573 -1.56217 0.208337 0
M  V30 3494 C 333.821 -1.97558 -0.426076 0
M  V30 3495 C 334.142 -1.09683 -1.61229 0
M  V30 3496 O 333.412 -0.170956 -1.95153 0
M  V30 3497 H 331.992 -0.729575 -0.160405 0
M  V30 3498 H 334.654 -1.92606 0.298155 0
M  V30 3499 H 333.75 -3.02672 -0.761312 0
M  V30 3500 N 334.051 0.0651679 -1.57465 0
M  V30 3501 C 335.3 0.761916 -1.86756 0
M  V30 3502 C 335.613 1.78406 -0.801925 0
M  V30 3503 O 336.819 2.53084 -0.982885 0
M  V30 3504 C 335.275 1.40603 -3.31299 0
M  V30 3505 C 334.883 0.422115 -4.46007 0
M  V30 3506 C 336.627 2.08476 -3.69781 0
M  V30 3507 C 334.534 1.07252 -5.81593 0
M  V30 3508 H 333.464 0.288308 -0.696702 0
M  V30 3509 H 336.115 0.015344 -1.83494 0
M  V30 3510 H 334.497 2.20109 -3.29193 0
M  V30 3511 H 335.671 -0.343613 -4.59517 0
M  V30 3512 H 333.986 -0.152527 -4.16121 0
M  V30 3513 H 336.583 2.57925 -4.68379 0
M  V30 3514 H 336.926 2.88712 -2.99919 0
M  V30 3515 H 337.459 1.35792 -3.73905 0
M  V30 3516 H 334.198 0.310342 -6.54765 0
M  V30 3517 H 333.718 1.80895 -5.71872 0
M  V30 3518 H 335.397 1.59043 -6.27148 0
M  V30 3519 N 335.529 1.53961 0.336706 0
M  V30 3520 C 336.439 1.85432 1.43708 0
M  V30 3521 C 337.455 0.745053 1.57242 0
M  V30 3522 O 338.631 1.03804 1.72588 0
M  V30 3523 C 335.696 2.06349 2.78605 0
M  V30 3524 C 334.757 3.30191 2.74358 0
M  V30 3525 C 333.99 3.50101 4.02822 0
M  V30 3526 O 334.213 2.7371 5.00439 0
M  V30 3527 O 333.147 4.43547 4.06878 0
M  V30 3528 H 336.973 2.78975 1.20028 0
M  V30 3529 H 334.558 1.39701 0.52952 0
M  V30 3530 H 336.44 2.21513 3.58483 0
M  V30 3531 H 335.115 1.15995 3.02203 0
M  V30 3532 H 334.022 3.20425 1.93078 0
M  V30 3533 H 335.355 4.2056 2.55715 0
M  V30 3534 N 337.007 -0.598083 1.45811 0
M  V30 3535 C 337.97 -1.69018 1.54808 0
M  V30 3536 C 338.97 -1.55037 0.426652 0
M  V30 3537 O 340.16 -1.59932 0.690456 0
M  V30 3538 C 337.292 -3.0835 1.45371 0
M  V30 3539 H 338.485 -1.62403 2.52121 0
M  V30 3540 H 336.038 -0.814626 1.33392 0
M  V30 3541 H 336.773 -3.20534 0.492793 0
M  V30 3542 H 336.558 -3.19907 2.26721 0
M  V30 3543 H 338.048 -3.8788 1.54721 0
M  V30 3544 N 338.485 -1.33259 -0.841409 0
M  V30 3545 C 339.731 -1.24757 -1.59886 0
M  V30 3546 C 340.064 0.186913 -1.93298 0
M  V30 3547 O 339.339 1.12757 -1.5848 0
M  V30 3548 C 339.622 -2.12036 -2.91055 0
M  V30 3549 C 339.475 -3.63929 -2.6434 0
M  V30 3550 C 340.794 -1.9916 -3.92458 0
M  V30 3551 H 337.913 -0.454542 -0.580138 0
M  V30 3552 H 340.555 -1.63335 -0.970647 0
M  V30 3553 H 338.705 -1.79265 -3.44669 0
M  V30 3554 H 340.377 -4.06978 -2.17178 0
M  V30 3555 H 338.62 -3.85935 -1.98082 0
M  V30 3556 H 339.291 -4.20341 -3.57796 0
M  V30 3557 H 341.767 -2.27895 -3.48143 0
M  V30 3558 H 340.643 -2.62484 -4.82072 0
M  V30 3559 H 340.904 -0.963082 -4.31482 0
M  V30 3560 N 339.963 1.05934 -1.16686 0
M  V30 3561 C 340.873 2.17014 -0.891183 0
M  V30 3562 C 341.889 1.73453 0.137907 0
M  V30 3563 O 343.065 2.01361 -0.039592 0
M  V30 3564 C 340.13 3.44384 -0.400099 0
M  V30 3565 C 339.191 4.02433 -1.49486 0
M  V30 3566 C 338.424 5.23723 -1.02711 0
M  V30 3567 O 338.647 5.7027 0.121716 0
M  V30 3568 O 337.581 5.7382 -1.81699 0
M  V30 3569 H 341.407 2.43113 -1.82015 0
M  V30 3570 H 338.992 1.15541 -0.947132 0
M  V30 3571 H 340.874 4.21189 -0.133392 0
M  V30 3572 H 339.549 3.19802 0.500817 0
M  V30 3573 H 338.456 3.27102 -1.81535 0
M  V30 3574 H 339.789 4.31317 -2.37121 0
M  V30 3575 N 341.441 0.965919 1.2453 0
M  V30 3576 C 342.388 0.49402 2.25451 0
M  V30 3577 C 343.358 -0.45948 1.59618 0
M  V30 3578 O 344.543 -0.370238 1.87173 0
M  V30 3579 C 341.683 -0.211359 3.44452 0
M  V30 3580 C 340.796 0.7807 4.24887 0
M  V30 3581 C 339.931 0.0516105 5.31175 0
M  V30 3582 C 338.97 1.03385 6.03306 0
M  V30 3583 N 338.107 0.334887 7.01301 0
M  V30 3584 H 342.947 1.35946 2.65184 0
M  V30 3585 H 340.484 0.681515 1.3036 0
M  V30 3586 H 342.442 -0.637 4.12308 0
M  V30 3587 H 341.072 -1.04077 3.05562 0
M  V30 3588 H 340.124 1.32479 3.56586 0
M  V30 3589 H 341.436 1.52978 4.74762 0
M  V30 3590 H 340.59 -0.432114 6.05159 0
M  V30 3591 H 339.329 -0.730179 4.82203 0
M  V30 3592 H 338.334 1.52847 5.28127 0
M  V30 3593 H 339.559 1.81606 6.54367 0
M  V30 3594 H 337.505 -0.427959 6.54603 0
M  V30 3595 H 337.422 1.02287 7.49048 0
M  V30 3596 H 338.69 -0.126928 7.79397 0
M  V30 3597 N 342.919 -1.39368 0.735821 0
M  V30 3598 C 343.849 -2.33234 0.111506 0
M  V30 3599 C 344.83 -1.53954 -0.723334 0
M  V30 3600 O 346.015 -1.82344 -0.668147 0
M  V30 3601 C 343.145 -3.38057 -0.795917 0
M  V30 3602 C 342.099 -4.2795 -0.065172 0
M  V30 3603 C 341.425 -5.23479 -1.08967 0
M  V30 3604 C 342.725 -5.10741 1.09273 0
M  V30 3605 H 344.419 -2.85692 0.895571 0
M  V30 3606 H 341.965 -1.37364 0.432109 0
M  V30 3607 H 343.918 -4.02675 -1.24221 0
M  V30 3608 H 342.642 -2.8404 -1.61211 0
M  V30 3609 H 341.301 -3.64813 0.361511 0
M  V30 3610 H 340.949 -4.65758 -1.89944 0
M  V30 3611 H 340.649 -5.84472 -0.605489 0
M  V30 3612 H 342.173 -5.90974 -1.53565 0
M  V30 3613 H 343.587 -5.68699 0.724841 0
M  V30 3614 H 341.984 -5.8088 1.50659 0
M  V30 3615 H 343.054 -4.45525 1.91404 0
M  V30 3616 N 344.397 -0.483516 -1.5 0
M  V30 3617 C 345.327 0.293829 -2.31644 0
M  V30 3618 C 346.308 0.978864 -1.39112 0
M  V30 3619 O 347.493 0.973644 -1.68029 0
M  V30 3620 C 344.623 1.36897 -3.19181 0
M  V30 3621 C 343.577 0.804833 -4.20365 0
M  V30 3622 C 342.903 1.9792 -4.96721 0
M  V30 3623 C 344.203 -0.192313 -5.21946 0
M  V30 3624 H 345.897 -0.387616 -2.9688 0
M  V30 3625 H 343.443 -0.187856 -1.42769 0
M  V30 3626 H 345.396 1.92037 -3.751 0
M  V30 3627 H 344.12 2.07936 -2.51853 0
M  V30 3628 H 342.779 0.275319 -3.65565 0
M  V30 3629 H 342.427 2.67686 -4.25856 0
M  V30 3630 H 342.127 1.60789 -5.65173 0
M  V30 3631 H 343.651 2.53526 -5.55479 0
M  V30 3632 H 345.065 0.270333 -5.72662 0
M  V30 3633 H 343.462 -0.478543 -5.98189 0
M  V30 3634 H 344.532 -1.11409 -4.71928 0
M  V30 3635 N 345.875 1.56104 -0.216619 0
M  V30 3636 C 346.785 2.23694 0.706982 0
M  V30 3637 C 347.801 1.24295 1.21765 0
M  V30 3638 O 348.977 1.57094 1.2603 0
M  V30 3639 C 346.042 2.8998 1.90033 0
M  V30 3640 C 345.103 4.04708 1.43213 0
M  V30 3641 C 344.336 4.67824 2.56859 0
M  V30 3642 O 344.559 4.29913 3.74874 0
M  V30 3643 O 343.493 5.56905 2.28343 0
M  V30 3644 H 347.319 3.03272 0.161235 0
M  V30 3645 H 344.904 1.49394 0.0136177 0
M  V30 3646 H 346.786 3.31837 2.59735 0
M  V30 3647 H 345.461 2.13365 2.43428 0
M  V30 3648 H 344.368 3.6743 0.70327 0
M  V30 3649 H 345.701 4.83051 0.944615 0
M  V30 3650 N 347.353 -0.0568162 1.57498 0
M  V30 3651 C 348.263 -1.08346 2.08083 0
M  V30 3652 C 349.279 -1.41439 1.01346 0
M  V30 3653 O 350.455 -1.51316 1.32912 0
M  V30 3654 C 347.52 -2.37352 2.52715 0
M  V30 3655 C 346.581 -2.11093 3.73816 0
M  V30 3656 C 345.814 -3.33949 4.1631 0
M  V30 3657 O 346.037 -4.43622 3.58547 0
M  V30 3658 O 344.971 -3.21279 5.08983 0
M  V30 3659 H 348.797 -0.683667 2.95905 0
M  V30 3660 H 346.382 -0.271965 1.46904 0
M  V30 3661 H 348.264 -3.13246 2.81877 0
M  V30 3662 H 346.939 -2.76681 1.68016 0
M  V30 3663 H 345.846 -1.32856 3.49714 0
M  V30 3664 H 347.179 -1.76637 4.59413 0
M  V30 3665 N 348.832 -1.54138 -0.328536 0
M  V30 3666 C 350.109 -1.62749 -1.08499 0
M  V30 3667 C 350.489 -0.458198 -2.06067 0
M  V30 3668 O 349.837 0.548046 -2.2183 0
M  V30 3669 C 350.047 -2.99519 -1.79135 0
M  V30 3670 C 351.395 -3.55394 -2.32337 0
M  V30 3671 O 352.419 -3.01792 -1.89209 0
M  V30 3672 O 351.278 -4.49186 -3.11279 0
M  V30 3673 H 348.372 -0.65886 -0.499832 0
M  V30 3674 H 350.918 -1.66484 -0.328826 0
M  V30 3675 H 349.69 -3.76061 -1.08139 0
M  V30 3676 H 349.313 -2.99441 -2.61574 0
M  V30 3677 N 350.31 0.590341 -1.46126 0
M  V30 3678 C 351.22 1.72793 -1.58681 0
M  V30 3679 C 352.236 1.67516 -0.470566 0
M  V30 3680 O 353.412 1.87562 -0.733642 0
M  V30 3681 C 350.477 3.09287 -1.5666 0
M  V30 3682 C 349.538 3.25886 -2.79458 0
M  V30 3683 C 348.771 4.55869 -2.77524 0
M  V30 3684 O 348.994 5.3928 -1.85832 0
M  V30 3685 O 347.928 4.75552 -3.68964 0
M  V30 3686 H 351.754 1.65149 -2.54872 0
M  V30 3687 H 349.339 0.756486 -1.28832 0
M  V30 3688 H 351.221 3.90577 -1.58202 0
M  V30 3689 H 349.896 3.17385 -0.636271 0
M  V30 3690 H 348.803 2.44119 -2.83472 0
M  V30 3691 H 350.136 3.22675 -3.71674 0
M  V30 3692 N 351.788 1.33704 0.83433 0
M  V30 3693 C 352.735 1.24335 1.94447 0
M  V30 3694 C 353.705 0.120991 1.65659 0
M  V30 3695 O 354.89 0.300035 1.88426 0
M  V30 3696 C 352.03 0.993124 3.30501 0
M  V30 3697 C 351.143 2.20217 3.71657 0
M  V30 3698 C 350.278 1.88572 4.96602 0
M  V30 3699 C 349.317 3.05683 5.30306 0
M  V30 3700 N 348.454 2.73997 6.46429 0
M  V30 3701 H 353.294 2.1928 2.01792 0
M  V30 3702 H 350.831 1.09035 0.987404 0
M  V30 3703 H 352.789 0.828467 4.08892 0
M  V30 3704 H 351.419 0.0803902 3.227 0
M  V30 3705 H 350.471 2.47642 2.88752 0
M  V30 3706 H 351.783 3.07752 3.92543 0
M  V30 3707 H 350.937 1.68776 5.82752 0
M  V30 3708 H 349.676 0.982799 4.77695 0
M  V30 3709 H 348.681 3.26088 4.42659 0
M  V30 3710 H 349.906 3.96737 5.51159 0
M  V30 3711 H 347.852 1.86268 6.28999 0
M  V30 3712 H 347.769 3.55064 6.67432 0
M  V30 3713 H 349.037 2.57679 7.35678 0
M  V30 3714 N 353.266 -1.05314 1.17247 0
M  V30 3715 C 354.677 -1.59753 0.96623 0
M  V30 3716 C 355.028 -1.9005 -0.487378 0
M  V30 3717 O 354.153 -1.68126 -1.36245 0
M  V30 3718 C 354.748 -2.90249 1.74759 0
M  V30 3719 C 353.307 -3.41352 1.58606 0
M  V30 3720 C 352.454 -2.15103 1.75002 0
M  V30 3721 H 355.405 -0.881406 1.31973 0
M  V30 3722 H 355.426 -3.60097 1.22925 0
M  V30 3723 H 354.938 -2.68166 2.8055 0
M  V30 3724 H 353.039 -3.68474 0.552985 0
M  V30 3725 H 353.152 -4.16019 2.37624 0
M  V30 3726 H 351.516 -2.25804 1.17833 0
M  V30 3727 H 352.299 -1.95491 2.82202 0
M  V30 3728 N 354.744 -0.972509 -1.24016 0
M  V30 3729 C 355.972 -0.654803 -1.96265 0
M  V30 3730 C 356.387 0.776708 -1.72083 0
M  V30 3731 O 355.744 1.52171 -1.00748 0
M  V30 3732 C 355.795 -0.92592 -3.49441 0
M  V30 3733 O 355.516 -2.30116 -3.72798 0
M  V30 3734 C 357.017 -0.623068 -4.38899 0
M  V30 3735 H 354.237 -0.243907 -0.6251 0
M  V30 3736 H 356.781 -1.30175 -1.57717 0
M  V30 3737 H 354.936 -0.325108 -3.86033 0
M  V30 3738 H 355.35 -2.38483 -4.67147 0
M  V30 3739 H 356.824 -0.863189 -5.45209 0
M  V30 3740 H 357.301 0.442754 -4.36963 0
M  V30 3741 H 357.907 -1.204 -4.07902 0
M  V30 3742 N 356.222 1.38976 -0.743202 0
M  V30 3743 C 357.185 2.28901 -0.117014 0
M  V30 3744 C 358.185 1.46698 0.658503 0
M  V30 3745 O 359.375 1.67274 0.486305 0
M  V30 3746 C 356.507 3.30309 0.84315 0
M  V30 3747 H 357.7 2.8578 -0.909373 0
M  V30 3748 H 355.253 1.47761 -0.509547 0
M  V30 3749 H 355.988 2.785 1.66157 0
M  V30 3750 H 355.773 3.91029 0.289594 0
M  V30 3751 H 357.263 3.97577 1.2776 0
M  V30 3752 N 357.7 0.491464 1.49741 0
M  V30 3753 C 358.949 -0.0582189 2.01616 0
M  V30 3754 C 359.262 -1.38927 1.3769 0
M  V30 3755 O 360.468 -2.02509 1.80838 0
M  V30 3756 C 358.924 -0.154235 3.59569 0
M  V30 3757 C 358.532 1.1696 4.32463 0
M  V30 3758 C 360.276 -0.65479 4.1942 0
M  V30 3759 C 358.183 1.03627 5.8225 0
M  V30 3760 H 357.113 -0.0255317 0.753568 0
M  V30 3761 H 359.764 0.629445 1.72367 0
M  V30 3762 H 358.146 -0.906138 3.85493 0
M  V30 3763 H 359.32 1.93405 4.18248 0
M  V30 3764 H 357.635 1.60285 3.84315 0
M  V30 3765 H 360.232 -0.771903 5.29099 0
M  V30 3766 H 360.575 -1.65127 3.8215 0
M  V30 3767 H 361.108 0.040304 3.9778 0
M  V30 3768 H 357.847 2.00672 6.24028 0
M  V30 3769 H 357.367 0.312546 5.98985 0
M  V30 3770 H 359.046 0.711114 6.4308 0
M  V30 3771 N 359.178 -1.55987 0.224894 0
M  V30 3772 C 360.425 -1.9839 -0.4059 0
M  V30 3773 C 360.753 -1.11261 -1.59535 0
M  V30 3774 O 360.008 -0.158314 -1.95059 0
M  V30 3775 C 360.307 -3.46394 -0.880106 0
M  V30 3776 C 359.973 -4.5046 0.19918 0
M  V30 3777 C 358.635 -4.7864 0.495661 0
M  V30 3778 C 360.987 -5.12855 0.928939 0
M  V30 3779 C 358.315 -5.66497 1.52636 0
M  V30 3780 C 360.667 -6.01828 1.949 0
M  V30 3781 C 359.331 -6.28351 2.25236 0
M  V30 3782 H 358.601 -0.725961 -0.148529 0
M  V30 3783 H 361.248 -1.88668 0.328113 0
M  V30 3784 H 359.553 -3.53337 -1.69294 0
M  V30 3785 H 361.25 -3.76577 -1.37808 0
M  V30 3786 H 357.84 -4.28579 -0.0420526 0
M  V30 3787 H 362.024 -4.9115 0.713129 0
M  V30 3788 H 357.28 -5.8531 1.76698 0
M  V30 3789 H 361.454 -6.49225 2.51951 0
M  V30 3790 H 359.081 -6.96226 3.05244 0
M  V30 3791 N 360.656 0.0484629 -1.57525 0
M  V30 3792 C 361.902 0.744226 -1.88651 0
M  V30 3793 C 362.235 1.76029 -0.820212 0
M  V30 3794 O 361.51 1.93782 0.166985 0
M  V30 3795 C 361.793 1.43128 -3.30434 0
M  V30 3796 C 361.646 0.43005 -4.47739 0
M  V30 3797 C 362.965 2.37031 -3.70816 0
M  V30 3798 H 360.084 0.269089 -0.68612 0
M  V30 3799 H 362.726 0.00713532 -1.89999 0
M  V30 3800 H 360.876 2.05956 -3.29415 0
M  V30 3801 H 362.548 -0.194816 -4.60888 0
M  V30 3802 H 360.791 -0.252522 -4.33064 0
M  V30 3803 H 361.462 0.948874 -5.43783 0
M  V30 3804 H 363.938 1.84263 -3.73077 0
M  V30 3805 H 362.814 2.82094 -4.70865 0
M  V30 3806 H 363.075 3.22864 -3.02012 0
M  V30 3807 N 362.134 1.5431 0.320358 0
M  V30 3808 C 363.382 1.72327 1.05583 0
M  V30 3809 C 363.703 0.50149 1.88441 0
M  V30 3810 O 362.973 -0.48448 1.89815 0
M  V30 3811 H 361.553 0.635387 0.3928 0
M  V30 3812 H 364.215 1.91621 0.356019 0
M  V30 3813 H 363.311 2.60426 1.72003 0
M  V30 3814 N 363.613 -0.582584 1.46437 0
M  V30 3815 C 364.841 -1.36682 1.55324 0
M  V30 3816 C 365.256 -1.87796 0.194409 0
M  V30 3817 O 364.613 -1.63623 -0.808318 0
M  V30 3818 C 364.664 -2.55426 2.55812 0
M  V30 3819 O 364.385 -2.0643 3.86417 0
M  V30 3820 C 365.886 -3.47976 2.74641 0
M  V30 3821 H 363.106 -0.417545 0.525259 0
M  V30 3822 H 365.65 -0.708219 1.91845 0
M  V30 3823 H 363.805 -3.17275 2.22295 0
M  V30 3824 H 364.219 -2.83762 4.41111 0
M  V30 3825 H 365.693 -4.27775 3.48874 0
M  V30 3826 H 366.17 -3.99919 1.81553 0
M  V30 3827 H 366.776 -2.91962 3.09255 0
M  V30 3828 N 365.091 -1.34144 -0.827227 0
M  V30 3829 C 366.368 -1.16844 -1.56865 0
M  V30 3830 C 366.748 0.260654 -2.09485 0
M  V30 3831 O 366.096 1.26138 -1.9053 0
M  V30 3832 C 366.306 -2.21939 -2.6934 0
M  V30 3833 C 367.654 -2.56695 -3.3822 0
M  V30 3834 O 368.678 -2.20695 -2.79593 0
M  V30 3835 O 367.537 -3.18518 -4.44082 0
M  V30 3836 H 364.631 -0.452669 -0.692112 0
M  V30 3837 H 367.177 -1.45763 -0.868973 0
M  V30 3838 H 365.949 -3.17882 -2.28182 0
M  V30 3839 H 365.572 -1.94172 -3.46962 0
M  V30 3840 N 366.569 1.04691 -1.17803 0
M  V30 3841 C 367.479 2.16057 -0.914151 0
M  V30 3842 C 368.495 1.73589 0.119503 0
M  V30 3843 O 369.671 2.01308 -0.0609468 0
M  V30 3844 C 366.736 3.4394 -0.436603 0
M  V30 3845 C 365.797 4.00825 -1.53746 0
M  V30 3846 C 365.03 5.22604 -1.0826 0
M  V30 3847 O 365.253 5.70367 0.0612244 0
M  V30 3848 O 364.187 5.7186 -1.87775 0
M  V30 3849 H 368.013 2.41169 -1.84584 0
M  V30 3850 H 365.598 1.1453 -0.959334 0
M  V30 3851 H 367.48 4.21024 -0.178057 0
M  V30 3852 H 366.155 3.20316 0.466869 0
M  V30 3853 H 365.062 3.25158 -1.84995 0
M  V30 3854 H 366.395 4.28778 -2.41683 0
M  V30 3855 N 368.047 0.979072 1.23499 0
M  V30 3856 C 368.98 0.463027 2.23453 0
M  V30 3857 C 369.958 -0.469128 1.55685 0
M  V30 3858 O 371.142 -0.397882 1.84253 0
M  V30 3859 C 368.269 -0.330308 3.37086 0
M  V30 3860 C 367.315 0.545795 4.22993 0
M  V30 3861 S 368.148 1.99285 4.97037 0
M  V30 3862 C 369.304 1.20862 6.1412 0
M  V30 3863 H 369.537 1.31005 2.6688 0
M  V30 3864 H 367.07 0.784965 1.32957 0
M  V30 3865 H 369.028 -0.782027 4.02982 0
M  V30 3866 H 367.689 -1.15244 2.92194 0
M  V30 3867 H 366.882 -0.0638928 5.03959 0
M  V30 3868 H 366.484 0.933705 3.62157 0
M  V30 3869 H 368.776 0.469284 6.75873 0
M  V30 3870 H 369.719 1.99307 6.79472 0
M  V30 3871 H 370.127 0.727992 5.59786 0
M  V30 3872 N 369.525 -1.3858 0.750561 0
M  V30 3873 C 370.488 -2.28836 0.129152 0
M  V30 3874 C 371.488 -1.47045 -0.650714 0
M  V30 3875 O 372.678 -1.6753 -0.477428 0
M  V30 3876 C 369.81 -3.30751 -0.825622 0
M  V30 3877 H 371.003 -2.85294 0.924516 0
M  V30 3878 H 368.556 -1.47489 0.517376 0
M  V30 3879 H 369.291 -2.79378 -1.64677 0
M  V30 3880 H 369.076 -3.91177 -0.268852 0
M  V30 3881 H 370.566 -3.98249 -1.2565 0
M  V30 3882 N 371.003 -0.499398 -1.49478 0
M  V30 3883 C 371.933 0.269244 -2.31943 0
M  V30 3884 C 372.914 0.964054 -1.40143 0
M  V30 3885 O 374.099 0.955767 -1.69052 0
M  V30 3886 C 371.229 1.33504 -3.20615 0
M  V30 3887 C 370.183 0.760202 -4.21195 0
M  V30 3888 C 369.509 1.9264 -4.98792 0
M  V30 3889 C 370.809 -0.247661 -5.21712 0
M  V30 3890 H 372.503 -0.419082 -2.96452 0
M  V30 3891 H 370.049 -0.202988 -1.42562 0
M  V30 3892 H 372.002 1.88048 -3.77115 0
M  V30 3893 H 370.726 2.05253 -2.54045 0
M  V30 3894 H 369.385 0.23653 -3.65836 0
M  V30 3895 H 369.033 2.63154 -4.28671 0
M  V30 3896 H 368.733 1.54785 -5.66847 0
M  V30 3897 H 370.257 2.4762 -5.58137 0
M  V30 3898 H 371.671 0.209579 -5.72917 0
M  V30 3899 H 370.068 -0.541962 -5.97648 0
M  V30 3900 H 371.138 -1.16409 -4.7072 0
M  V30 3901 N 372.481 1.55866 -0.233164 0
M  V30 3902 C 373.729 1.9821 0.394593 0
M  V30 3903 C 374.05 1.12234 1.59463 0
M  V30 3904 O 373.32 0.201981 1.94856 0
M  V30 3905 H 371.9 0.732034 0.148778 0
M  V30 3906 H 374.562 1.92107 -0.32876 0
M  V30 3907 H 373.658 3.03845 0.713063 0
M  V30 3908 N 373.959 -0.0401083 1.57549 0
M  V30 3909 C 375.205 -0.734211 1.89043 0
M  V30 3910 C 375.538 -1.75591 0.829535 0
M  V30 3911 O 374.813 -1.93868 -0.156706 0
M  V30 3912 C 375.096 -1.41374 3.31188 0
M  V30 3913 C 374.949 -0.406299 4.47961 0
M  V30 3914 C 376.268 -2.35061 3.72068 0
M  V30 3915 H 373.387 -0.265447 0.687537 0
M  V30 3916 H 376.029 0.00294087 1.9 0
M  V30 3917 H 374.179 -2.04206 3.30503 0
M  V30 3918 H 375.851 0.219255 4.60779 0
M  V30 3919 H 374.094 0.275485 4.32924 0
M  V30 3920 H 374.765 -0.920022 5.44279 0
M  V30 3921 H 377.241 -1.82282 3.74049 0
M  V30 3922 H 376.117 -2.79593 4.72355 0
M  V30 3923 H 376.378 -3.21258 3.0372 0
M  V30 3924 N 375.437 -1.54477 -0.31217 0
M  V30 3925 C 376.686 -1.72438 -1.04633 0
M  V30 3926 C 376.999 -0.511163 -1.88803 0
M  V30 3927 O 378.205 -0.572341 -2.65399 0
M  V30 3928 C 376.661 -3.05043 -1.9099 0
M  V30 3929 C 376.269 -4.33806 -1.11877 0
M  V30 3930 C 378.013 -3.32364 -2.64073 0
M  V30 3931 C 375.92 -5.57467 -1.97445 0
M  V30 3932 H 374.85 -0.642647 -0.394361 0
M  V30 3933 H 377.501 -1.80966 -0.303929 0
M  V30 3934 H 375.883 -2.90451 -2.69173 0
M  V30 3935 H 377.057 -4.59199 -0.383843 0
M  V30 3936 H 375.372 -4.13336 -0.504252 0
M  V30 3937 H 377.969 -4.21951 -3.28423 0
M  V30 3938 H 378.312 -2.50745 -3.32314 0
M  V30 3939 H 378.845 -3.47875 -1.92944 0
M  V30 3940 H 375.584 -6.41722 -1.33692 0
M  V30 3941 H 375.104 -5.36277 -2.6864 0
M  V30 3942 H 376.783 -5.94303 -2.5576 0
M  V30 3943 N 376.915 0.57481 -1.46744 0
M  V30 3944 C 377.865 1.67838 -1.54319 0
M  V30 3945 C 378.849 1.55759 -0.40346 0
M  V30 3946 O 380.041 1.6454 -0.652347 0
M  V30 3947 C 377.17 3.06624 -1.5439 0
M  V30 3948 C 376.256 3.23971 -2.73685 0
M  V30 3949 N 376.647 3.11447 -3.9854 0
M  V30 3950 C 374.945 3.5493 -2.70075 0
M  V30 3951 C 375.646 3.31011 -4.78337 0
M  V30 3952 N 374.622 3.56533 -4.10348 0
M  V30 3953 H 378.424 1.56698 -2.48642 0
M  V30 3954 H 375.938 0.779071 -1.42493 0
M  V30 3955 H 377.935 3.85839 -1.57905 0
M  V30 3956 H 376.595 3.1889 -0.611493 0
M  V30 3957 H 377.606 2.89145 -4.29669 0
M  V30 3958 H 374.283 3.73832 -1.85893 0
M  V30 3959 H 375.673 3.26445 -5.87268 0
M  V30 3960 N 378.394 1.34581 0.820102 0
M  V30 3961 C 379.642 1.26845 1.57336 0
M  V30 3962 C 379.963 -0.160667 1.94337 0
M  V30 3963 O 379.233 -1.09396 1.6251 0
M  V30 3964 H 377.813 0.466514 0.583415 0
M  V30 3965 H 380.475 1.68526 0.979027 0
M  V30 3966 H 379.571 1.87513 2.4949 0
M  V30 3967 N 379.872 -1.04064 1.18357 0
M  V30 3968 C 380.835 -2.10243 0.912707 0
M  V30 3969 C 381.835 -1.60477 -0.101928 0
M  V30 3970 O 383.025 -1.73703 0.131517 0
M  V30 3971 C 380.157 -3.38893 0.369387 0
M  V30 3972 H 381.35 -2.35706 1.85426 0
M  V30 3973 H 378.903 -1.20489 0.995594 0
M  V30 3974 H 379.638 -3.19094 -0.578776 0
M  V30 3975 H 379.423 -3.76331 1.1008 0
M  V30 3976 H 380.913 -4.17128 0.198575 0
M  V30 3977 N 381.35 -0.985608 -1.22978 0
M  V30 3978 C 382.282 -0.488154 -2.23941 0
M  V30 3979 C 383.295 0.41282 -1.57479 0
M  V30 3980 O 384.484 0.216121 -1.77187 0
M  V30 3981 C 381.584 0.312611 -3.37455 0
M  V30 3982 C 380.757 -0.582741 -4.33501 0
M  V30 3983 C 379.816 0.165064 -5.25941 0
M  V30 3984 O 378.842 -0.447077 -5.67442 0
M  V30 3985 N 380.044 1.44953 -5.62111 0
M  V30 3986 H 382.809 -1.3563 -2.67254 0
M  V30 3987 H 380.37 -0.859477 -1.37203 0
M  V30 3988 H 382.362 0.821357 -3.96277 0
M  V30 3989 H 380.932 1.0818 -2.93285 0
M  V30 3990 H 380.152 -1.27225 -3.73105 0
M  V30 3991 H 381.44 -1.19275 -4.94622 0
M  V30 3992 H 380.838 1.9683 -5.30353 0
M  V30 3993 H 379.395 1.90361 -6.23383 0
M  V30 3994 N 382.828 1.3818 -0.7579 0
M  V30 3995 C 384.105 1.94106 -0.241306 0
M  V30 3996 C 384.485 1.69282 1.26122 0
M  V30 3997 O 383.833 1.03378 2.03777 0
M  V30 3998 C 384.043 3.43809 -0.59967 0
M  V30 3999 C 385.391 4.20868 -0.561717 0
M  V30 4000 O 386.415 3.5211 -0.538222 0
M  V30 4001 O 385.274 5.43451 -0.576478 0
M  V30 4002 H 382.368 0.825376 -0.0518042 0
M  V30 4003 H 384.914 1.47548 -0.838315 0
M  V30 4004 H 383.686 3.55403 -1.6372 0
M  V30 4005 H 383.309 3.97592 0.0251197 0
M  V30 4006 N 384.306 0.507319 1.49211 0
M  V30 4007 C 385.722 0.163682 1.58758 0
M  V30 4008 C 385.922 -1.33208 1.51188 0
M  V30 4009 O 384.978 -2.10855 1.38911 0
M  V30 4010 C 386.291 0.746095 2.91297 0
M  V30 4011 C 387.839 0.712773 3.04776 0
M  V30 4012 C 388.314 1.27336 4.39943 0
M  V30 4013 N 389.805 1.23433 4.46451 0
M  V30 4014 C 390.54 1.63821 5.495 0
M  V30 4015 N 390.036 2.11832 6.5962 0
M  V30 4016 N 391.829 1.55198 5.4025 0
M  V30 4017 H 383.98 1.47972 1.52375 0
M  V30 4018 H 386.243 0.614147 0.722168 0
M  V30 4019 H 385.949 1.79534 3.02424 0
M  V30 4020 H 385.823 0.210137 3.76614 0
M  V30 4021 H 388.21 -0.327656 2.93275 0
M  V30 4022 H 388.291 1.28595 2.21127 0
M  V30 4023 H 387.935 2.3126 4.52196 0
M  V30 4024 H 387.865 0.676066 5.22242 0
M  V30 4025 H 390.356 0.882627 3.67448 0
M  V30 4026 H 390.669 2.40703 7.34358 0
M  V30 4027 H 389.014 2.1581 6.60644 0
M  V30 4028 H 392.205 1.17505 4.53112 0
M  V30 4029 H 392.378 1.86997 6.20432 0
M  V30 4030 N 385.784 -1.5574 0.241426 0
M  V30 4031 C 387.032 -1.98417 -0.384075 0
M  V30 4032 C 387.353 -1.13078 -1.58866 0
M  V30 4033 O 386.623 -0.212312 -1.94746 0
M  V30 4034 H 385.203 -0.732813 -0.144894 0
M  V30 4035 H 387.865 -1.9193 0.338943 0
M  V30 4036 H 386.961 -3.04219 -0.696939 0
M  V30 4037 N 387.262 0.0317525 -1.57568 0
M  V30 4038 C 388.192 1.03274 -2.0942 0
M  V30 4039 C 389.173 1.3788 -0.996143 0
M  V30 4040 O 390.358 1.46811 -1.27122 0
M  V30 4041 C 387.488 2.33448 -2.57137 0
M  V30 4042 C 386.442 2.13091 -3.71182 0
M  V30 4043 C 385.768 3.49001 -4.05095 0
M  V30 4044 C 387.068 1.51928 -4.99715 0
M  V30 4045 H 388.762 0.60112 -2.93303 0
M  V30 4046 H 386.308 0.287705 -1.41097 0
M  V30 4047 H 388.261 3.03802 -2.92032 0
M  V30 4048 H 386.985 2.78665 -1.70333 0
M  V30 4049 H 385.644 1.45171 -3.36632 0
M  V30 4050 H 385.292 3.91862 -3.15362 0
M  V30 4051 H 384.992 3.36207 -4.81911 0
M  V30 4052 H 386.516 4.20721 -4.42522 0
M  V30 4053 H 387.93 2.12196 -5.32584 0
M  V30 4054 H 386.327 1.49716 -5.81124 0
M  V30 4055 H 387.397 0.484811 -4.8247 0
M  V30 4056 N 388.74 1.54641 0.303973 0
M  V30 4057 C 389.688 1.86137 1.39484 0
M  V30 4058 C 390.682 0.734854 1.52631 0
M  V30 4059 O 391.888 0.918803 1.54784 0
M  V30 4060 H 388.263 0.590324 0.465856 0
M  V30 4061 H 390.234 2.77324 1.10154 0
M  V30 4062 C 388.983 2.12274 2.75382 0
M  V30 4063 H 388.306 2.98429 2.66046 0
M  V30 4064 H 389.746 2.38254 3.5073 0
M  V30 4065 C 388.205 0.920365 3.24085 0
M  V30 4066 O 388.735 0.139377 4.01458 0
M  V30 4067 N 386.941 0.726566 2.81371 0
M  V30 4068 H 386.488 1.36332 2.18567 0
M  V30 4069 H 386.446 -0.0763799 3.14307 0
M  V30 4070 N 390.218 -0.567019 1.47046 0
M  V30 4071 C 391.464 -1.32658 1.53394 0
M  V30 4072 C 391.797 -1.93254 0.19148 0
M  V30 4073 O 391.072 -1.77338 -0.798844 0
M  V30 4074 C 391.355 -2.44412 2.64452 0
M  V30 4075 C 391.208 -1.88749 4.08282 0
M  V30 4076 C 392.527 -3.46387 2.71485 0
M  V30 4077 H 389.646 -0.48098 0.558415 0
M  V30 4078 H 392.288 -0.635481 1.79058 0
M  V30 4079 H 390.438 -3.03363 2.427 0
M  V30 4080 H 392.11 -1.34134 4.41368 0
M  V30 4081 H 390.353 -1.19481 4.17021 0
M  V30 4082 H 391.024 -2.69491 4.81745 0
M  V30 4083 H 393.5 -2.9734 2.91081 0
M  V30 4084 H 392.376 -4.2202 3.50985 0
M  V30 4085 H 392.637 -4.04616 1.78153 0
M  V30 4086 N 391.696 -1.35014 -0.812953 0
M  V30 4087 C 393.107 -1.25035 -1.38648 0
M  V30 4088 C 393.458 0.119967 -1.95833 0
M  V30 4089 O 392.583 1.02069 -1.90816 0
M  V30 4090 C 393.178 -2.26394 -2.52054 0
M  V30 4091 C 391.737 -2.20175 -3.05287 0
M  V30 4092 C 390.884 -2.12451 -1.78213 0
M  V30 4093 H 393.835 -1.46235 -0.616516 0
M  V30 4094 H 393.856 -1.88672 -3.30429 0
M  V30 4095 H 393.368 -3.26116 -2.10404 0
M  V30 4096 H 391.469 -1.23841 -3.51417 0
M  V30 4097 H 391.582 -3.11863 -3.63701 0
M  V30 4098 H 389.946 -1.58328 -1.9951 0
M  V30 4099 H 390.729 -3.14024 -1.38723 0
M  V30 4100 N 393.175 1.03435 -1.18907 0
M  V30 4101 C 394.123 2.13703 -0.918353 0
M  V30 4102 C 395.117 1.68947 0.123767 0
M  V30 4103 O 396.323 1.79983 -0.0249701 0
M  V30 4104 H 392.698 0.698112 -0.279542 0
M  V30 4105 H 394.669 2.33731 -1.85506 0
M  V30 4106 C 393.418 3.44542 -0.467532 0
M  V30 4107 H 392.741 3.79394 -1.26095 0
M  V30 4108 H 394.181 4.22812 -0.317164 0
M  V30 4109 C 392.64 3.26829 0.817588 0
M  V30 4110 O 393.17 3.54975 1.88031 0
M  V30 4111 N 391.376 2.80139 0.772677 0
M  V30 4112 H 390.923 2.57434 -0.0923883 0
M  V30 4113 H 390.881 2.68668 1.63294 0
M  V30 4114 N 394.653 0.992116 1.22453 0
M  V30 4115 C 395.93 0.583508 1.86694 0
M  V30 4116 C 396.31 -0.9392 1.89056 0
M  V30 4117 O 395.658 -1.82081 1.38053 0
M  V30 4118 C 395.868 1.20304 3.2761 0
M  V30 4119 C 397.216 1.30308 4.0411 0
M  V30 4120 O 398.24 1.15737 3.36873 0
M  V30 4121 O 397.099 1.53615 5.24466 0
M  V30 4122 H 394.193 0.198129 0.802916 0
M  V30 4123 H 396.739 1.08794 1.30238 0
M  V30 4124 H 395.511 2.24461 3.2052 0
M  V30 4125 H 395.134 0.684144 3.9167 0
M  V30 4126 N 396.131 -1.37776 0.765217 0
M  V30 4127 C 397.061 -2.32945 0.160953 0
M  V30 4128 C 398.042 -1.55454 -0.690516 0
M  V30 4129 O 399.227 -1.83721 -0.629318 0
M  V30 4130 C 396.357 -3.39669 -0.724031 0
M  V30 4131 C 395.311 -4.27992 0.0256173 0
M  V30 4132 C 394.637 -5.25673 -0.978383 0
M  V30 4133 C 395.937 -5.08309 1.20082 0
M  V30 4134 H 397.631 -2.83728 0.955969 0
M  V30 4135 H 395.177 -1.36416 0.461149 0
M  V30 4136 H 397.13 -4.05219 -1.15652 0
M  V30 4137 H 395.854 -2.87396 -1.5515 0
M  V30 4138 H 394.513 -3.63964 0.438812 0
M  V30 4139 H 394.161 -4.69682 -1.80022 0
M  V30 4140 H 393.861 -5.85625 -0.481378 0
M  V30 4141 H 395.385 -5.94098 -1.40995 0
M  V30 4142 H 396.799 -5.67034 0.845307 0
M  V30 4143 H 395.196 -5.77554 1.62947 0
M  V30 4144 H 396.266 -4.41365 2.00811 0
M  V30 4145 N 397.609 -0.515225 -1.4894 0
M  V30 4146 C 398.519 0.259774 -2.33157 0
M  V30 4147 C 399.535 0.953501 -1.45548 0
M  V30 4148 O 400.711 0.931735 -1.78552 0
M  V30 4149 C 397.776 1.30193 -3.21326 0
M  V30 4150 C 396.837 0.620129 -4.24797 0
M  V30 4151 C 396.07 1.61263 -5.08753 0
M  V30 4152 O 396.293 2.84389 -4.94448 0
M  V30 4153 O 395.227 1.16013 -5.90614 0
M  V30 4154 H 399.053 -0.429932 -3.00641 0
M  V30 4155 H 396.638 -0.276346 -1.46822 0
M  V30 4156 H 398.52 1.90455 -3.75905 0
M  V30 4157 H 397.195 1.97431 -2.56521 0
M  V30 4158 H 396.102 -0.0226019 -3.74093 0
M  V30 4159 H 397.435 -0.0100493 -4.92199 0
M  V30 4160 N 399.087 1.5561 -0.249682 0
M  V30 4161 C 400.336 1.98187 0.37479 0
M  V30 4162 C 400.649 1.14111 1.58865 0
M  V30 4163 O 401.855 1.46714 2.28445 0
M  V30 4164 C 400.311 3.52661 0.718192 0
M  V30 4165 C 399.919 4.45481 -0.474428 0
M  V30 4166 C 401.663 4.03888 1.3067 0
M  V30 4167 C 399.57 5.91303 -0.107026 0
M  V30 4168 H 398.5 0.740159 0.143808 0
M  V30 4169 H 401.151 1.80125 -0.350336 0
M  V30 4170 H 399.533 3.66429 1.50152 0
M  V30 4171 H 400.707 4.43473 -1.25172 0
M  V30 4172 H 399.022 4.04751 -0.978052 0
M  V30 4173 H 401.619 5.10358 1.59496 0
M  V30 4174 H 401.962 3.51401 2.23211 0
M  V30 4175 H 402.495 3.93457 0.586211 0
M  V30 4176 H 399.234 6.47833 -0.999642 0
M  V30 4177 H 398.754 5.9644 0.634013 0
M  V30 4178 H 400.433 6.46258 0.309807 0
M  V30 4179 N 400.565 -0.0233959 1.57583 0
M  V30 4180 C 401.814 -0.712133 1.8871 0
M  V30 4181 C 402.127 -1.76217 0.848944 0
M  V30 4182 O 403.333 -2.50389 1.04964 0
M  V30 4183 C 401.789 -1.3177 3.3491 0
M  V30 4184 C 401.397 -0.303715 4.46969 0
M  V30 4185 C 403.141 -1.98598 3.75179 0
M  V30 4186 C 401.048 -0.917945 5.84233 0
M  V30 4187 H 399.978 -0.269735 0.704101 0
M  V30 4188 H 402.629 0.0333114 1.8347 0
M  V30 4189 H 401.011 -2.11304 3.34913 0
M  V30 4190 H 402.185 0.465325 4.58445 0
M  V30 4191 H 400.5 0.2628 4.1557 0
M  V30 4192 H 403.097 -2.45416 4.75053 0
M  V30 4193 H 403.44 -2.80659 3.07468 0
M  V30 4194 H 403.973 -1.25831 3.77374 0
M  V30 4195 H 400.712 -0.136633 6.55358 0
M  V30 4196 H 400.232 -1.65669 5.76467 0
M  V30 4197 H 401.911 -1.4236 6.31144 0
M  V30 4198 N 402.043 -1.548 -0.295768 0
M  V30 4199 C 403.291 -1.73985 -1.02828 0
M  V30 4200 C 403.612 -0.531406 -1.87619 0
M  V30 4201 O 402.882 0.454221 -1.90561 0
M  V30 4202 H 401.462 -0.641556 -0.382642 0
M  V30 4203 H 404.124 -1.92163 -0.325489 0
M  V30 4204 H 403.22 -2.63129 -1.67838 0
M  V30 4205 N 403.521 0.559213 -1.47345 0
M  V30 4206 C 404.768 1.31648 -1.53867 0
M  V30 4207 C 405.096 1.93468 -0.200104 0
M  V30 4208 O 404.351 1.78295 0.806799 0
M  V30 4209 C 404.65 2.44853 -2.6035 0
M  V30 4210 C 404.316 2.00876 -4.03683 0
M  V30 4211 C 402.978 1.88599 -4.42701 0
M  V30 4212 C 405.33 1.67279 -4.93626 0
M  V30 4213 C 402.658 1.41017 -5.69501 0
M  V30 4214 C 405.01 1.21169 -6.20887 0
M  V30 4215 C 403.674 1.07487 -6.58789 0
M  V30 4216 H 402.944 0.481734 -0.56304 0
M  V30 4217 H 405.591 0.627301 -1.80934 0
M  V30 4218 H 403.896 3.19318 -2.27032 0
M  V30 4219 H 405.593 3.03039 -2.62619 0
M  V30 4220 H 402.183 2.11374 -3.72853 0
M  V30 4221 H 406.367 1.75638 -4.64182 0
M  V30 4222 H 401.623 1.29086 -5.97618 0
M  V30 4223 H 405.797 0.942345 -6.89995 0
M  V30 4224 H 403.424 0.703946 -7.56934 0
M  V30 4225 N 404.999 1.35443 0.805782 0
M  V30 4226 C 406.276 1.19325 1.54987 0
M  V30 4227 C 406.656 -0.227294 2.09873 0
M  V30 4228 O 406.004 -1.2309 1.92512 0
M  V30 4229 C 406.214 2.26196 2.65775 0
M  V30 4230 C 407.562 2.62043 3.34094 0
M  V30 4231 O 408.586 2.25115 2.76046 0
M  V30 4232 O 407.445 3.25542 4.38958 0
M  V30 4233 H 404.539 0.463623 0.684823 0
M  V30 4234 H 407.085 1.47127 0.845674 0
M  V30 4235 H 405.857 3.21471 2.23096 0
M  V30 4236 H 405.48 1.99667 3.43829 0
M  V30 4237 N 406.477 -1.02803 1.19454 0
M  V30 4238 C 407.425 -2.13213 0.929673 0
M  V30 4239 C 408.419 -1.69011 -0.114806 0
M  V30 4240 O 409.625 -1.79967 0.0345147 0
M  V30 4241 H 406 -0.69662 0.28324 0
M  V30 4242 H 407.971 -2.32744 1.86743 0
M  V30 4243 C 406.72 -3.4429 0.485797 0
M  V30 4244 H 406.043 -3.7872 1.28105 0
M  V30 4245 H 407.483 -4.22638 0.339582 0
M  V30 4246 C 405.942 -3.27258 -0.800244 0
M  V30 4247 O 406.472 -3.55967 -1.86146 0
M  V30 4248 N 404.678 -2.80545 -0.75781 0
M  V30 4249 H 404.225 -2.57382 0.106039 0
M  V30 4250 H 404.183 -2.6953 -1.61867 0
M  V30 4251 N 407.956 -0.998596 -1.21925 0
M  V30 4252 C 409.184 -0.696286 -1.94832 0
M  V30 4253 C 409.599 0.740032 -1.73692 0
M  V30 4254 O 408.956 1.5 -1.03953 0
M  V30 4255 C 409.007 -0.999833 -3.47398 0
M  V30 4256 O 408.728 -2.37972 -3.67833 0
M  V30 4257 C 410.229 -0.716025 -4.37479 0
M  V30 4258 H 407.449 -0.257111 -0.619786 0
M  V30 4259 H 409.993 -1.33491 -1.54921 0
M  V30 4260 H 408.148 -0.406918 -3.85257 0
M  V30 4261 H 408.562 -2.48338 -4.61983 0
M  V30 4262 H 410.036 -0.978642 -5.43256 0
M  V30 4263 H 410.513 0.349968 -4.37803 0
M  V30 4264 H 411.119 -1.29025 -4.05256 0
M  V30 4265 N 409.434 1.37368 -0.772513 0
M  V30 4266 C 410.85 1.53059 -0.452231 0
M  V30 4267 C 411.05 1.73065 1.03203 0
M  V30 4268 O 410.106 1.75245 1.81784 0
M  V30 4269 C 411.419 2.72659 -1.26797 0
M  V30 4270 C 412.967 2.86521 -1.25995 0
M  V30 4271 C 413.442 4.09105 -2.05905 0
M  V30 4272 N 414.933 4.16219 -2.03263 0
M  V30 4273 C 415.668 5.10107 -2.61875 0
M  V30 4274 N 415.164 6.09547 -3.29278 0
M  V30 4275 N 416.957 5.02596 -2.51701 0
M  V30 4276 H 409.108 1.22634 -1.7342 0
M  V30 4277 H 411.371 0.597206 -0.736239 0
M  V30 4278 H 411.077 2.64343 -2.31982 0
M  V30 4279 H 410.951 3.66363 -0.897672 0
M  V30 4280 H 413.338 2.94308 -0.216081 0
M  V30 4281 H 413.419 1.93774 -1.66989 0
M  V30 4282 H 413.063 4.0208 -3.10313 0
M  V30 4283 H 412.993 5.00968 -1.62292 0
M  V30 4284 H 415.484 3.45012 -1.54192 0
M  V30 4285 H 415.797 6.77718 -3.71374 0
M  V30 4286 H 414.142 6.09824 -3.33377 0
M  V30 4287 H 417.333 4.23855 -1.98657 0
M  V30 4288 H 417.506 5.75582 -2.97673 0
M  V30 4289 N 410.912 0.523116 1.48665 0
M  V30 4290 C 411.842 -0.23231 2.32342 0
M  V30 4291 C 412.823 -0.941637 1.41659 0
M  V30 4292 O 414.008 -0.928751 1.70552 0
M  V30 4293 C 411.138 -1.28387 3.22698 0
M  V30 4294 C 410.092 -0.693098 4.22351 0
M  V30 4295 C 409.418 -1.8468 5.01794 0
M  V30 4296 C 410.718 0.33063 5.21252 0
M  V30 4297 H 412.412 0.466192 2.95748 0
M  V30 4298 H 409.958 0.225643 1.42221 0
M  V30 4299 H 411.911 -1.82024 3.80059 0
M  V30 4300 H 410.635 -2.01186 2.57278 0
M  V30 4301 H 409.294 -0.178299 3.66166 0
M  V30 4302 H 408.942 -2.56301 4.32804 0
M  V30 4303 H 408.642 -1.45747 5.69238 0
M  V30 4304 H 410.166 -2.38709 5.62006 0
M  V30 4305 H 411.58 -0.118407 5.73178 0
M  V30 4306 H 409.977 0.636974 5.9671 0
M  V30 4307 H 411.047 1.23883 4.68808 0
M  V30 4308 N 412.39 -1.55475 0.257931 0
M  V30 4309 C 413.615 -2.04064 -0.370488 0
M  V30 4310 C 414.04 -1.13565 -1.49948 0
M  V30 4311 O 413.398 -0.130781 -1.80828 0
M  V30 4312 C 413.446 -3.50554 -0.845237 0
M  V30 4313 O 412.55 -3.63173 -1.95394 0
M  V30 4314 H 411.891 -0.659257 -0.0792243 0
M  V30 4315 H 414.421 -2.00903 0.387212 0
M  V30 4316 H 414.431 -3.91588 -1.14555 0
M  V30 4317 H 413.106 -4.15896 -0.0191259 0
M  V30 4318 H 411.683 -3.34039 -1.65748 0
M  V30 4319 N 413.868 0.0150385 -1.57593 0
M  V30 4320 C 415.096 0.714395 -1.94175 0
M  V30 4321 C 415.511 1.68135 -0.858841 0
M  V30 4322 O 414.868 1.81766 0.163567 0
M  V30 4323 C 414.919 1.45933 -3.30735 0
M  V30 4324 O 414.64 0.531167 -4.34868 0
M  V30 4325 C 416.141 2.25456 -3.81686 0
M  V30 4326 H 413.361 0.199923 -0.640525 0
M  V30 4327 H 415.905 -0.0316096 -2.04476 0
M  V30 4328 H 414.06 2.15709 -3.21789 0
M  V30 4329 H 414.474 1.05509 -5.13778 0
M  V30 4330 H 415.948 2.731 -4.79709 0
M  V30 4331 H 416.425 3.07485 -3.13607 0
M  V30 4332 H 417.031 1.60727 -3.9376 0
M  V30 4333 N 415.346 1.54954 0.287554 0
M  V30 4334 C 416.279 1.81737 1.3801 0
M  V30 4335 C 417.257 0.669412 1.48181 0
M  V30 4336 O 418.441 0.910839 1.65033 0
M  V30 4337 C 415.568 1.96606 2.75796 0
M  V30 4338 C 414.614 3.19098 2.82982 0
M  V30 4339 S 415.447 4.7683 2.43707 0
M  V30 4340 C 416.603 4.94653 3.83496 0
M  V30 4341 H 416.836 2.74122 1.15085 0
M  V30 4342 H 414.369 1.46538 0.486403 0
M  V30 4343 H 416.327 2.05858 3.55152 0
M  V30 4344 H 414.988 1.05136 2.95982 0
M  V30 4345 H 414.181 3.26344 3.84077 0
M  V30 4346 H 413.783 3.08361 2.11635 0
M  V30 4347 H 416.075 4.79502 4.78628 0
M  V30 4348 H 417.018 5.96728 3.8121 0
M  V30 4349 H 417.426 4.2272 3.74123 0
M  V30 4350 N 416.824 -0.551391 1.4764 0
M  V30 4351 C 418.07 -1.31024 1.54792 0
M  V30 4352 C 418.403 -1.9304 0.211967 0
M  V30 4353 O 417.678 -1.78175 -0.77999 0
M  V30 4354 C 417.961 -2.41593 2.67029 0
M  V30 4355 C 417.814 -1.84408 4.10261 0
M  V30 4356 C 419.133 -3.43488 2.75143 0
M  V30 4357 H 416.252 -0.475031 0.563485 0
M  V30 4358 H 418.894 -0.616454 1.79722 0
M  V30 4359 H 417.044 -3.00772 2.45904 0
M  V30 4360 H 418.716 -1.29445 4.42766 0
M  V30 4361 H 416.959 -1.15051 4.18265 0
M  V30 4362 H 417.63 -2.64367 4.84576 0
M  V30 4363 H 420.106 -2.94236 2.94218 0
M  V30 4364 H 418.982 -4.18274 3.55441 0
M  V30 4365 H 419.243 -4.02703 1.82435 0
M  V30 4366 N 418.302 -1.35869 -0.798587 0
M  V30 4367 C 419.718 -1.16082 -1.09532 0
M  V30 4368 C 419.918 0.0213124 -2.01489 0
M  V30 4369 O 418.974 0.689488 -2.42904 0
M  V30 4370 C 420.287 -2.46748 -1.7186 0
M  V30 4371 C 421.835 -2.53028 -1.84244 0
M  V30 4372 C 422.31 -3.83758 -2.49988 0
M  V30 4373 N 423.801 -3.85053 -2.57465 0
M  V30 4374 C 424.536 -4.8294 -3.09122 0
M  V30 4375 N 424.032 -5.91217 -3.61157 0
M  V30 4376 N 425.825 -4.70369 -3.0775 0
M  V30 4377 H 417.976 -2.11571 -0.187461 0
M  V30 4378 H 420.239 -0.936726 -0.145765 0
M  V30 4379 H 419.945 -3.33471 -1.11759 0
M  V30 4380 H 419.819 -2.61883 -2.71472 0
M  V30 4381 H 422.206 -1.66729 -2.43486 0
M  V30 4382 H 422.287 -2.418 -0.834643 0
M  V30 4383 H 421.931 -4.70459 -1.91393 0
M  V30 4384 H 421.861 -3.92278 -3.5132 0
M  V30 4385 H 424.352 -3.06822 -2.20609 0
M  V30 4386 H 424.665 -6.61892 -3.98896 0
M  V30 4387 H 423.01 -5.94899 -3.59333 0
M  V30 4388 H 426.201 -3.84914 -2.66381 0
M  V30 4389 H 426.374 -5.46816 -3.47701 0
M  V30 4390 N 419.78 1.02168 -1.19998 0
M  V30 4391 C 421.191 1.57135 -1.00825 0
M  V30 4392 C 421.542 1.91276 0.436818 0
M  V30 4393 O 420.667 1.71679 1.3174 0
M  V30 4394 C 421.262 2.85514 -1.82393 0
M  V30 4395 C 419.821 3.37027 -1.67601 0
M  V30 4396 C 418.968 2.10388 -1.80644 0
M  V30 4397 H 421.919 0.846106 -1.34264 0
M  V30 4398 H 421.94 3.56711 -1.32429 0
M  V30 4399 H 421.452 2.60634 -2.87561 0
M  V30 4400 H 419.553 3.66878 -0.650485 0
M  V30 4401 H 419.666 4.09572 -2.4857 0
M  V30 4402 H 418.03 2.22601 -1.23778 0
M  V30 4403 H 418.813 1.8794 -2.87286 0
M  V30 4404 N 421.258 1.00505 1.21394 0
M  V30 4405 C 422.19 0.52372 2.23136 0
M  V30 4406 C 423.203 -0.387714 1.58116 0
M  V30 4407 O 424.392 -0.187905 1.77508 0
M  V30 4408 C 421.492 -0.258885 3.3791 0
M  V30 4409 C 420.665 0.651634 4.32519 0
M  V30 4410 C 419.724 -0.0813705 5.26137 0
M  V30 4411 O 418.75 0.537295 5.66658 0
M  V30 4412 N 419.952 -1.35992 5.64346 0
M  V30 4413 H 422.717 1.39865 2.65062 0
M  V30 4414 H 420.278 0.881196 1.35818 0
M  V30 4415 H 422.27 -0.758208 3.97534 0
M  V30 4416 H 420.84 -1.035 2.94968 0
M  V30 4417 H 420.06 1.33145 3.71034 0
M  V30 4418 H 421.348 1.27129 4.92662 0
M  V30 4419 H 420.746 -1.88368 5.33417 0
M  V30 4420 H 419.303 -1.8042 6.26332 0
M  V30 4421 N 422.737 -1.36956 0.779787 0
M  V30 4422 C 423.667 -2.32761 0.185651 0
M  V30 4423 C 424.648 -1.56177 -0.673989 0
M  V30 4424 O 425.833 -1.84378 -0.609797 0
M  V30 4425 C 422.963 -3.40418 -0.687964 0
M  V30 4426 C 421.917 -4.27941 0.0710102 0
M  V30 4427 C 421.243 -5.26681 -0.922573 0
M  V30 4428 C 422.543 -5.07006 1.25467 0
M  V30 4429 H 424.237 -2.82698 0.986008 0
M  V30 4430 H 421.783 -1.3592 0.475592 0
M  V30 4431 H 423.736 -4.06423 -1.11348 0
M  V30 4432 H 422.46 -2.89025 -1.52093 0
M  V30 4433 H 421.119 -3.63478 0.47739 0
M  V30 4434 H 420.767 -4.71565 -1.7503 0
M  V30 4435 H 420.467 -5.86103 -0.419237 0
M  V30 4436 H 421.991 -5.9556 -1.34686 0
M  V30 4437 H 423.405 -5.66105 0.905401 0
M  V30 4438 H 421.802 -5.75793 1.69063 0
M  V30 4439 H 422.872 -4.3921 2.05481 0
M  V30 4440 N 424.215 -0.530993 -1.48385 0
M  V30 4441 C 425.443 -0.00134122 -2.069 0
M  V30 4442 C 425.858 1.2805 -1.3874 0
M  V30 4443 O 425.215 1.76204 -0.475244 0
M  V30 4444 C 425.266 0.225256 -3.60798 0
M  V30 4445 O 424.987 -1.0058 -4.26398 0
M  V30 4446 C 426.488 0.795172 -4.3611 0
M  V30 4447 H 423.708 -0.0339704 -0.67014 0
M  V30 4448 H 426.252 -0.736926 -1.90761 0
M  V30 4449 H 424.407 0.910891 -3.76539 0
M  V30 4450 H 424.821 -0.787165 -5.1856 0
M  V30 4451 H 426.295 0.903143 -5.44562 0
M  V30 4452 H 426.772 1.80031 -4.00606 0
M  V30 4453 H 427.378 0.146069 -4.25049 0
M  V30 4454 N 425.693 1.55336 -0.266172 0
M  V30 4455 C 426.918 2.04258 0.359661 0
M  V30 4456 C 427.343 1.14359 1.49344 0
M  V30 4457 O 426.701 0.140369 1.80756 0
M  V30 4458 C 426.749 3.50997 0.826635 0
M  V30 4459 O 425.853 3.64204 1.93466 0
M  V30 4460 H 425.194 0.659668 0.075727 0
M  V30 4461 H 427.724 2.00694 -0.39786 0
M  V30 4462 H 427.734 3.9219 1.12477 0
M  V30 4463 H 426.409 4.159 -0.00293032 0
M  V30 4464 H 424.986 3.34913 1.63974 0
M  V30 4465 N 427.171 -0.0066808 1.57599 0
M  V30 4466 C 428.417 -0.693947 1.90558 0
M  V30 4467 C 428.75 -1.73792 0.866594 0
M  V30 4468 O 428.025 -1.94156 -0.115548 0
M  V30 4469 C 428.308 -1.34317 3.34112 0
M  V30 4470 C 428.161 -0.311189 4.48722 0
M  V30 4471 C 429.48 -2.27116 3.7697 0
M  V30 4472 H 426.599 -0.250803 0.693013 0
M  V30 4473 H 429.241 0.043242 1.89951 0
M  V30 4474 H 427.391 -1.9715 3.3476 0
M  V30 4475 H 429.063 0.316944 4.6021 0
M  V30 4476 H 427.306 0.367253 4.32243 0
M  V30 4477 H 427.977 -0.804366 5.46108 0
M  V30 4478 H 430.453 -1.74306 3.77831 0
M  V30 4479 H 429.329 -2.69511 4.78179 0
M  V30 4480 H 429.59 -3.14743 3.10466 0
M  V30 4481 N 428.649 -1.55105 -0.279332 0
M  V30 4482 C 429.895 -1.75672 -1.01327 0
M  V30 4483 C 430.228 -0.552739 -1.86168 0
M  V30 4484 O 429.503 0.449827 -1.89227 0
M  V30 4485 C 429.786 -3.05825 -1.90114 0
M  V30 4486 C 429.639 -4.36565 -1.08309 0
M  V30 4487 C 430.958 -3.31975 -2.8893 0
M  V30 4488 H 428.077 -0.639149 -0.366957 0
M  V30 4489 H 430.719 -1.87833 -0.286154 0
M  V30 4490 H 428.869 -2.95588 -2.52111 0
M  V30 4491 H 430.541 -4.58751 -0.484314 0
M  V30 4492 H 428.784 -4.32076 -0.386362 0
M  V30 4493 H 429.455 -5.23946 -1.73737 0
M  V30 4494 H 431.931 -3.41963 -2.37067 0
M  V30 4495 H 430.807 -4.2432 -3.48201 0
M  V30 4496 H 431.068 -2.51309 -3.63725 0
M  V30 4497 N 430.127 0.543554 -1.4793 0
M  V30 4498 C 431.059 1.665 -1.57513 0
M  V30 4499 C 432.072 1.56156 -0.460333 0
M  V30 4500 O 433.261 1.62865 -0.730573 0
M  V30 4501 C 430.361 3.05063 -1.47614 0
M  V30 4502 C 429.534 3.41024 -2.739 0
M  V30 4503 C 428.593 4.58809 -2.57645 0
M  V30 4504 O 427.619 4.62707 -3.31498 0
M  V30 4505 N 428.821 5.56149 -1.66368 0
M  V30 4506 H 431.586 1.5872 -2.5422 0
M  V30 4507 H 429.147 0.730517 -1.44482 0
M  V30 4508 H 431.139 3.81712 -1.34455 0
M  V30 4509 H 429.709 3.06994 -0.589359 0
M  V30 4510 H 428.929 2.53687 -3.01723 0
M  V30 4511 H 430.217 3.61831 -3.57709 0
M  V30 4512 H 429.615 5.55767 -1.05543 0
M  V30 4513 H 428.172 6.32071 -1.59154 0
M  V30 4514 N 431.605 1.3629 0.791371 0
M  V30 4515 C 433.016 1.27225 1.36641 0
M  V30 4516 C 433.367 -0.0887968 1.95999 0
M  V30 4517 O 432.492 -0.990207 1.92416 0
M  V30 4518 C 433.087 2.30375 2.48421 0
M  V30 4519 C 431.646 2.25004 3.01746 0
M  V30 4520 C 430.793 2.15259 1.7481 0
M  V30 4521 H 433.744 1.47198 0.593173 0
M  V30 4522 H 433.765 1.93905 3.27385 0
M  V30 4523 H 433.277 3.29422 2.05189 0
M  V30 4524 H 431.378 1.29417 3.49403 0
M  V30 4525 H 431.491 3.1761 3.58693 0
M  V30 4526 H 429.855 1.61482 1.96966 0
M  V30 4527 H 430.638 3.16191 1.33709 0
M  V30 4528 N 433.083 -1.0153 1.20538 0
M  V30 4529 C 434.016 -2.09759 0.898695 0
M  V30 4530 C 434.994 -1.61909 -0.149733 0
M  V30 4531 O 436.178 -1.88486 -0.0230293 0
M  V30 4532 C 433.305 -3.36913 0.347512 0
M  V30 4533 C 432.351 -4.03655 1.37713 0
M  V30 4534 S 433.184 -4.47402 2.94265 0
M  V30 4535 C 434.34 -5.77756 2.40726 0
M  V30 4536 H 434.573 -2.3545 1.81523 0
M  V30 4537 H 432.106 -1.14665 1.03399 0
M  V30 4538 H 434.064 -4.10484 0.0360518 0
M  V30 4539 H 432.725 -3.09291 -0.547546 0
M  V30 4540 H 431.918 -4.9514 0.940872 0
M  V30 4541 H 431.52 -3.36313 1.63614 0
M  V30 4542 H 433.812 -6.52994 1.80569 0
M  V30 4543 H 434.755 -6.2618 3.30612 0
M  V30 4544 H 435.163 -5.34081 1.82806 0
M  V30 4545 N 434.561 -1.01147 -1.20859 0
M  V30 4546 C 435.791 -0.715872 -1.93801 0
M  V30 4547 C 436.199 0.726592 -1.74692 0
M  V30 4548 O 435.542 1.50397 -1.05482 0
M  V30 4549 C 435.604 -0.965269 -3.46299 0
M  V30 4550 C 435.268 -2.39584 -3.89164 0
M  V30 4551 C 436.265 -3.3764 -3.95342 0
M  V30 4552 C 433.95 -2.73522 -4.21297 0
M  V30 4553 C 435.944 -4.67698 -4.33056 0
M  V30 4554 C 433.631 -4.03794 -4.58687 0
M  V30 4555 C 434.629 -5.00693 -4.64538 0
M  V30 4556 O 434.317 -6.28635 -5.01072 0
M  V30 4557 H 434.049 -0.262524 -0.622942 0
M  V30 4558 H 436.603 -1.35413 -1.54443 0
M  V30 4559 H 434.833 -0.269847 -3.85757 0
M  V30 4560 H 436.522 -0.662051 -4.00464 0
M  V30 4561 H 437.288 -3.12757 -3.70686 0
M  V30 4562 H 433.167 -1.9879 -4.15937 0
M  V30 4563 H 436.711 -5.4333 -4.37537 0
M  V30 4564 H 432.608 -4.28459 -4.82797 0
M  V30 4565 H 433.376 -6.32847 -5.19083 0
M  V30 4566 N 436.039 1.36541 -0.78704 0
M  V30 4567 C 437.316 1.9355 -0.282424 0
M  V30 4568 C 437.696 1.71919 1.22503 0
M  V30 4569 O 437.044 1.07677 2.01539 0
M  V30 4570 C 437.254 3.4246 -0.672462 0
M  V30 4571 C 438.602 4.19582 -0.650863 0
M  V30 4572 O 439.626 3.50889 -0.612789 0
M  V30 4573 O 438.485 5.42106 -0.691623 0
M  V30 4574 H 435.579 0.824091 -0.0693 0
M  V30 4575 H 438.125 1.45736 -0.869423 0
M  V30 4576 H 436.897 3.51851 -1.71221 0
M  V30 4577 H 436.52 3.97556 -0.0592211 0
M  V30 4578 N 437.518 0.538854 1.48102 0
M  V30 4579 C 438.767 0.0059532 2.01699 0
M  V30 4580 C 439.08 -1.34476 1.42041 0
M  V30 4581 O 440.286 -1.96653 1.87189 0
M  V30 4582 C 438.742 -0.0397627 3.59878 0
M  V30 4583 C 438.35 1.30659 4.28523 0
M  V30 4584 C 440.094 -0.521024 4.2129 0
M  V30 4585 C 438.001 1.22098 5.78659 0
M  V30 4586 H 436.931 -0.00154456 0.753998 0
M  V30 4587 H 439.582 0.683963 1.70277 0
M  V30 4588 H 437.964 -0.783037 3.88181 0
M  V30 4589 H 439.138 2.06613 4.11883 0
M  V30 4590 H 437.453 1.7243 3.79021 0
M  V30 4591 H 440.05 -0.603184 5.31287 0
M  V30 4592 H 440.393 -1.52885 3.8721 0
M  V30 4593 H 440.926 0.166834 3.9745 0
M  V30 4594 H 437.665 2.20424 6.17328 0
M  V30 4595 H 437.185 0.50295 5.97688 0
M  V30 4596 H 438.864 0.915345 6.40492 0
M  V30 4597 N 438.996 -1.55193 0.274407 0
M  V30 4598 C 440.244 -1.99187 -0.341902 0
M  V30 4599 C 440.565 -1.16422 -1.56431 0
M  V30 4600 O 439.835 -0.253573 -1.94252 0
M  V30 4601 H 438.415 -0.735721 -0.129317 0
M  V30 4602 H 441.077 -1.91168 0.379578 0
M  V30 4603 H 440.173 -3.05629 -0.632253 0
M  V30 4604 N 440.474 -0.00167713 -1.576 0
M  V30 4605 C 441.437 0.974046 -2.07473 0
M  V30 4606 C 442.437 1.27143 -0.984444 0
M  V30 4607 O 443.627 1.21633 -1.24703 0
M  V30 4608 C 440.759 2.29849 -2.51759 0
M  V30 4609 H 441.952 0.54262 -2.9495 0
M  V30 4610 H 439.505 0.245829 -1.54355 0
M  V30 4611 H 440.24 2.77677 -1.67529 0
M  V30 4612 H 440.025 2.09584 -3.31386 0
M  V30 4613 H 441.515 2.9984 -2.90664 0
M  V30 4614 N 441.952 1.55251 0.271103 0
M  V30 4615 C 443.198 1.76207 1.00394 0
M  V30 4616 C 443.531 0.562604 1.85872 0
M  V30 4617 O 442.806 -0.439785 1.89463 0
M  V30 4618 C 443.089 3.06828 1.8849 0
M  V30 4619 C 442.942 4.37134 1.05992 0
M  V30 4620 C 444.261 3.33503 2.87165 0
M  V30 4621 H 441.38 0.641086 0.363562 0
M  V30 4622 H 444.022 1.87982 0.276189 0
M  V30 4623 H 442.172 2.96921 2.5054 0
M  V30 4624 H 443.844 4.59001 0.459978 0
M  V30 4625 H 442.087 4.32275 0.363443 0
M  V30 4626 H 442.758 5.2486 1.70955 0
M  V30 4627 H 445.234 3.43215 2.3525 0
M  V30 4628 H 444.11 4.2616 3.45946 0
M  V30 4629 H 444.371 2.53235 3.62387 0
M  V30 4630 N 443.43 -0.535701 1.48216 0
M  V30 4631 C 444.393 -1.623 1.61838 0
M  V30 4632 C 445.393 -1.53087 0.492024 0
M  V30 4633 O 446.583 -1.5686 0.757668 0
M  V30 4634 C 443.715 -3.01907 1.58319 0
M  V30 4635 H 444.908 -1.51564 2.58783 0
M  V30 4636 H 442.461 -0.757317 1.36727 0
M  V30 4637 H 443.196 -3.18155 0.628299 0
M  V30 4638 H 442.981 -3.10003 2.40085 0
M  V30 4639 H 444.471 -3.80969 1.71033 0
M  V30 4640 N 444.908 -1.36708 -0.784132 0
M  V30 4641 C 445.841 -1.25827 -1.90375 0
M  V30 4642 C 446.819 -0.141331 -1.61985 0
M  V30 4643 O 448.003 -0.313389 -1.85877 0
M  V30 4644 C 445.13 -0.942621 -3.25319 0
M  V30 4645 C 444.176 -2.07474 -3.72635 0
M  V30 4646 S 445.009 -3.69317 -3.8777 0
M  V30 4647 C 446.165 -3.39876 -5.25581 0
M  V30 4648 H 446.398 -2.20593 -1.99314 0
M  V30 4649 H 443.931 -1.22186 -0.943926 0
M  V30 4650 H 445.889 -0.767321 -4.03265 0
M  V30 4651 H 444.55 -0.0126566 -3.14097 0
M  V30 4652 H 443.743 -1.80858 -4.70432 0
M  V30 4653 H 443.345 -2.20953 -3.01754 0
M  V30 4654 H 445.637 -2.94097 -6.10339 0
M  V30 4655 H 446.58 -4.36956 -5.57203 0
M  V30 4656 H 446.988 -2.75098 -4.92931 0
M  V30 4657 N 446.386 1.0089 -1.21074 0
M  V30 4658 C 447.802 1.2695 -0.967257 0
M  V30 4659 C 448.002 1.9846 0.348673 0
M  V30 4660 O 447.058 2.28459 1.0753 0
M  V30 4661 C 448.371 2.09697 -2.15517 0
M  V30 4662 C 449.919 2.22937 -2.197 0
M  V30 4663 C 450.394 3.09064 -3.37999 0
M  V30 4664 N 451.885 3.16653 -3.38061 0
M  V30 4665 C 452.62 3.8354 -4.26245 0
M  V30 4666 N 452.116 4.52488 -5.2462 0
M  V30 4667 N 453.909 3.80141 -4.14064 0
M  V30 4668 H 446.06 0.529005 -2.05707 0
M  V30 4669 H 448.323 0.296148 -0.900556 0
M  V30 4670 H 448.029 1.64497 -3.10859 0
M  V30 4671 H 447.903 3.10444 -2.14253 0
M  V30 4672 H 450.29 2.67357 -1.24916 0
M  V30 4673 H 450.371 1.21673 -2.2501 0
M  V30 4674 H 450.015 2.65347 -4.33074 0
M  V30 4675 H 449.945 4.10433 -3.29928 0
M  V30 4676 H 452.436 2.67566 -2.66865 0
M  V30 4677 H 452.749 5.01219 -5.88217 0
M  V30 4678 H 451.094 4.51288 -5.28549 0
M  V30 4679 H 454.285 3.25427 -3.36474 0
M  V30 4680 H 454.458 4.31992 -4.82998 0
M  V30 4681 N 447.864 1.01787 1.20321 0
M  V30 4682 C 448.794 0.609625 2.25401 0
M  V30 4683 C 449.775 -0.375951 1.65893 0
M  V30 4684 O 450.96 -0.261101 1.92437 0
M  V30 4685 C 448.09 -0.0515995 3.47262 0
M  V30 4686 C 447.044 0.855095 4.19371 0
M  V30 4687 C 446.37 0.0595757 5.34667 0
M  V30 4688 C 447.67 2.16374 4.75373 0
M  V30 4689 H 449.364 1.48803 2.59804 0
M  V30 4690 H 446.91 0.716934 1.24884 0
M  V30 4691 H 448.863 -0.348764 4.19954 0
M  V30 4692 H 447.587 -0.964726 3.12027 0
M  V30 4693 H 446.246 1.13628 3.48546 0
M  V30 4694 H 445.894 -0.85524 4.95676 0
M  V30 4695 H 445.594 0.663406 5.83843 0
M  V30 4696 H 447.118 -0.231105 6.10162 0
M  V30 4697 H 448.532 1.92885 5.39878 0
M  V30 4698 H 446.929 2.71853 5.34991 0
M  V30 4699 H 447.999 2.82589 3.94045 0
M  V30 4700 N 449.342 -1.36122 0.79427 0
M  V30 4701 C 450.272 -2.32551 0.210328 0
M  V30 4702 C 451.253 -1.56884 -0.657386 0
M  V30 4703 O 452.438 -1.85014 -0.590207 0
M  V30 4704 C 449.568 -3.41128 -0.651819 0
M  V30 4705 C 448.522 -4.27842 0.116395 0
M  V30 4706 C 447.848 -5.2763 -0.86666 0
M  V30 4707 C 449.148 -5.05647 1.30837 0
M  V30 4708 H 450.842 -2.81636 1.01594 0
M  V30 4709 H 448.388 -1.35407 0.489981 0
M  V30 4710 H 450.341 -4.07581 -1.07031 0
M  V30 4711 H 449.065 -2.90622 -1.49019 0
M  V30 4712 H 447.724 -3.62952 0.515915 0
M  V30 4713 H 447.372 -4.73395 -1.70019 0
M  V30 4714 H 447.072 -5.86514 -0.35705 0
M  V30 4715 H 448.596 -5.96955 -1.28361 0
M  V30 4716 H 450.01 -5.65113 0.965393 0
M  V30 4717 H 448.407 -5.73967 1.75161 0
M  V30 4718 H 449.477 -4.37006 2.10128 0
M  V30 4719 N 450.82 -0.546701 -1.47814 0
M  V30 4720 C 452.048 -0.0232857 -2.06887 0
M  V30 4721 C 452.463 1.26571 -1.4009 0
M  V30 4722 O 451.82 1.7569 -0.493906 0
M  V30 4723 C 451.871 0.186975 -3.61016 0
M  V30 4724 O 451.592 -1.05097 -4.25307 0
M  V30 4725 C 453.093 0.748872 -4.36929 0
M  V30 4726 H 450.313 -0.0410763 -0.669742 0
M  V30 4727 H 452.857 -0.757117 -1.89968 0
M  V30 4728 H 451.012 0.870903 -3.77484 0
M  V30 4729 H 451.426 -0.842121 -5.17695 0
M  V30 4730 H 452.9 0.845334 -5.45489 0
M  V30 4731 H 453.377 1.75772 -4.02493 0
M  V30 4732 H 453.983 0.100979 -4.2518 0
M  V30 4733 N 452.299 1.55045 -0.282633 0
M  V30 4734 C 453.246 2.22822 0.601566 0
M  V30 4735 C 454.216 1.20431 1.14392 0
M  V30 4736 O 455.401 1.48996 1.19184 0
M  V30 4737 C 452.541 2.95873 1.77632 0
M  V30 4738 C 451.654 4.12999 1.26711 0
M  V30 4739 C 450.789 4.73676 2.40426 0
M  V30 4740 C 449.828 5.82981 1.86545 0
M  V30 4741 N 448.965 6.3769 2.93762 0
M  V30 4742 H 453.805 2.97995 0.0169528 0
M  V30 4743 H 451.342 1.471 -0.00339964 0
M  V30 4744 H 453.3 3.36447 2.46697 0
M  V30 4745 H 451.93 2.2311 2.33285 0
M  V30 4746 H 450.982 3.77494 0.469314 0
M  V30 4747 H 452.294 4.91803 0.832518 0
M  V30 4748 H 451.448 5.17008 3.17471 0
M  V30 4749 H 450.187 3.94164 2.87203 0
M  V30 4750 H 449.192 5.39092 1.07983 0
M  V30 4751 H 450.417 6.64366 1.40694 0
M  V30 4752 H 448.363 5.61069 3.39908 0
M  V30 4753 H 448.28 7.11788 2.54744 0
M  V30 4754 H 449.548 6.8568 3.7076 0
M  V30 4755 N 453.777 0.010035 1.57597 0
M  V30 4756 C 455.007 -0.682422 1.95004 0
M  V30 4757 C 455.415 -1.67278 0.884014 0
M  V30 4758 O 454.758 -1.83129 -0.144672 0
M  V30 4759 C 454.82 -1.46141 3.28456 0
M  V30 4760 C 454.484 -0.631523 4.52615 0
M  V30 4761 C 455.481 0.0850905 5.1983 0
M  V30 4762 C 453.166 -0.574539 4.99003 0
M  V30 4763 C 455.16 0.847566 6.3174 0
M  V30 4764 C 452.847 0.191655 6.10799 0
M  V30 4765 C 453.845 0.901432 6.77025 0
M  V30 4766 O 453.533 1.65511 7.86677 0
M  V30 4767 H 453.265 -0.194361 0.647456 0
M  V30 4768 H 455.819 0.060312 2.05311 0
M  V30 4769 H 454.049 -2.24885 3.14585 0
M  V30 4770 H 455.738 -2.04016 3.50902 0
M  V30 4771 H 456.504 0.0502812 4.84974 0
M  V30 4772 H 452.383 -1.11654 4.47274 0
M  V30 4773 H 455.927 1.4021 6.83364 0
M  V30 4774 H 451.824 0.228249 6.45096 0
M  V30 4775 H 452.592 1.57287 8.03245 0
M  V30 4776 N 455.255 -1.55392 -0.262866 0
M  V30 4777 C 456.188 -1.8391 -1.35101 0
M  V30 4778 C 457.166 -0.692901 -1.47097 0
M  V30 4779 O 458.35 -0.936979 -1.63563 0
M  V30 4780 C 455.477 -2.00969 -2.72634 0
M  V30 4781 C 454.523 -3.23559 -2.7787 0
M  V30 4782 S 455.356 -4.80647 -2.3609 0
M  V30 4783 C 456.512 -5.00692 -3.75578 0
M  V30 4784 H 456.745 -2.75918 -1.1071 0
M  V30 4785 H 454.278 -1.47294 -0.463029 0
M  V30 4786 H 456.236 -2.11482 -3.51832 0
M  V30 4787 H 454.897 -1.09832 -2.94272 0
M  V30 4788 H 454.09 -3.32413 -3.78837 0
M  V30 4789 H 453.692 -3.11689 -2.06702 0
M  V30 4790 H 455.984 -4.87055 -4.70939 0
M  V30 4791 H 456.927 -6.02717 -3.71669 0
M  V30 4792 H 457.335 -4.28619 -3.6735 0
M  V30 4793 N 456.733 0.527833 -1.48498 0
M  V30 4794 C 457.681 1.65313 -1.63628 0
M  V30 4795 C 458.675 1.6177 -0.502676 0
M  V30 4796 O 459.881 1.66601 -0.681469 0
M  V30 4797 H 456.256 0.547518 -0.515488 0
M  V30 4798 H 458.227 1.49696 -2.58135 0
M  V30 4799 C 456.976 3.03576 -1.6952 0
M  V30 4800 H 456.299 3.06997 -2.56111 0
M  V30 4801 H 457.739 3.81923 -1.84149 0
M  V30 4802 C 456.198 3.34089 -0.43432 0
M  V30 4803 O 456.728 3.99151 0.451852 0
M  V30 4804 N 454.934 2.88991 -0.305368 0
M  V30 4805 H 454.481 2.36222 -1.02747 0
M  V30 4806 H 454.439 3.09776 0.537249 0
M  V30 4807 N 458.211 1.37122 0.776871 0
M  V30 4808 C 459.158 1.3247 1.88998 0
M  V30 4809 C 460.128 0.191143 1.64997 0
M  V30 4810 O 461.313 0.379683 1.86984 0
M  V30 4811 C 458.453 1.13241 3.25992 0
M  V30 4812 C 457.566 2.35782 3.61982 0
M  V30 4813 C 456.701 2.09465 4.88158 0
M  V30 4814 C 455.74 3.279 5.16864 0
M  V30 4815 N 454.877 3.01167 6.34226 0
M  V30 4816 H 459.717 2.27642 1.9231 0
M  V30 4817 H 457.254 1.13125 0.94027 0
M  V30 4818 H 459.212 1.00115 4.0501 0
M  V30 4819 H 457.842 0.217186 3.22069 0
M  V30 4820 H 456.894 2.59666 2.77989 0
M  V30 4821 H 458.206 3.24125 3.79137 0
M  V30 4822 H 457.36 1.93341 5.75069 0
M  V30 4823 H 456.099 1.18452 4.73097 0
M  V30 4824 H 455.104 3.44569 4.2843 0
M  V30 4825 H 456.329 4.19757 5.33836 0
M  V30 4826 H 454.275 2.12779 6.20533 0
M  V30 4827 H 454.192 3.83052 6.51772 0
M  V30 4828 H 455.46 2.88649 7.24087 0
M  V30 4829 N 459.689 -1.00246 1.21608 0
M  V30 4830 C 460.599 -2.12515 0.993709 0
M  V30 4831 C 461.615 -1.73913 -0.0549939 0
M  V30 4832 O 462.791 -2.00943 0.135619 0
M  V30 4833 C 459.856 -3.42083 0.563953 0
M  V30 4834 C 458.917 -3.94843 1.68516 0
M  V30 4835 C 458.15 -5.18226 1.27582 0
M  V30 4836 O 458.373 -5.70201 0.150506 0
M  V30 4837 O 457.307 -5.64497 2.0887 0
M  V30 4838 H 461.133 -2.34152 1.93407 0
M  V30 4839 H 458.718 -1.10891 1.00118 0
M  V30 4840 H 460.6 -4.20073 0.334194 0
M  V30 4841 H 459.275 -3.21828 -0.347665 0
M  V30 4842 H 458.182 -3.18068 1.96935 0
M  V30 4843 H 459.515 -4.19512 2.5743 0
M  V30 4844 N 461.167 -1.02423 -1.1978 0
M  V30 4845 C 462.395 -0.737456 -1.93311 0
M  V30 4846 C 462.81 0.703023 -1.75223 0
M  V30 4847 O 462.167 1.47761 -1.07112 0
M  V30 4848 C 462.218 -1.0733 -3.45199 0
M  V30 4849 O 461.939 -2.4572 -3.62702 0
M  V30 4850 C 463.44 -0.80866 -4.35862 0
M  V30 4851 H 460.66 -0.2702 -0.614193 0
M  V30 4852 H 463.204 -1.36747 -1.52054 0
M  V30 4853 H 461.359 -0.488545 -3.84307 0
M  V30 4854 H 461.773 -2.58081 -4.56612 0
M  V30 4855 H 463.247 -1.09365 -5.41057 0
M  V30 4856 H 463.724 0.257025 -4.38447 0
M  V30 4857 H 464.33 -1.37592 -4.02428 0
M  V30 4858 N 462.645 1.35699 -0.801477 0
M  V30 4859 C 463.891 1.99208 -0.380022 0
M  V30 4860 C 464.224 1.63445 1.04878 0
M  V30 4861 O 463.499 0.895223 1.72673 0
M  V30 4862 C 463.782 3.55755 -0.557708 0
M  V30 4863 C 463.635 4.01332 -2.03107 0
M  V30 4864 C 464.954 4.40096 0.0197968 0
M  V30 4865 H 462.073 0.723667 -0.139552 0
M  V30 4866 H 464.715 1.60928 -1.01006 0
M  V30 4867 H 462.865 3.88494 -0.0213741 0
M  V30 4868 H 464.537 3.79026 -2.62939 0
M  V30 4869 H 462.78 3.52429 -2.52936 0
M  V30 4870 H 463.451 5.10234 -2.1063 0
M  V30 4871 H 465.927 4.13786 -0.438179 0
M  V30 4872 H 464.803 5.48735 -0.134477 0
M  V30 4873 H 465.064 4.2786 1.11303 0
M  V30 4874 N 464.123 0.554532 1.47522 0
M  V30 4875 C 465.4 -0.0360704 1.95567 0
M  V30 4876 C 465.78 -1.48828 1.49711 0
M  V30 4877 O 465.128 -2.16366 0.734717 0
M  V30 4878 C 465.338 0.106631 3.48837 0
M  V30 4879 C 466.686 -0.0400899 4.24581 0
M  V30 4880 O 467.71 0.0340453 3.56184 0
M  V30 4881 O 466.569 -0.199111 5.46137 0
M  V30 4882 H 463.663 -0.0656294 0.824392 0
M  V30 4883 H 466.209 0.620867 1.57935 0
M  V30 4884 H 464.981 1.11727 3.7501 0
M  V30 4885 H 464.604 -0.58804 3.93227 0
M  V30 4886 N 465.601 -1.54893 0.290851 0
M  V30 4887 C 466.826 -2.04804 -0.32712 0
M  V30 4888 C 467.251 -1.16721 -1.47506 0
M  V30 4889 O 466.609 -0.169107 -1.8051 0
M  V30 4890 C 466.657 -3.52268 -0.770689 0
M  V30 4891 O 465.761 -3.67236 -1.87647 0
M  V30 4892 H 465.102 -0.660789 -0.0652227 0
M  V30 4893 H 467.632 -2.00036 0.429739 0
M  V30 4894 H 467.642 -3.9393 -1.06223 0
M  V30 4895 H 466.317 -4.15843 0.069096 0
M  V30 4896 H 464.894 -3.37479 -1.58626 0
M  V30 4897 N 467.08 -0.0183926 -1.57589 0
M  V30 4898 C 468.305 0.676634 -1.96052 0
M  V30 4899 C 468.73 1.6548 -0.894307 0
M  V30 4900 O 468.088 1.80712 0.145849 0
M  V30 4901 C 468.136 1.36872 -3.33614 0
M  V30 4902 O 467.24 2.48372 -3.29219 0
M  V30 4903 H 466.581 0.1786 -0.63953 0
M  V30 4904 H 469.111 -0.077056 -2.04455 0
M  V30 4905 H 469.121 1.72797 -3.69601 0
M  V30 4906 H 467.796 0.651636 -4.10763 0
M  V30 4907 H 466.373 2.14639 -3.04934 0
M  V30 4908 N 468.558 1.5553 0.254621 0
M  V30 4909 C 469.807 1.76202 0.981612 0
M  V30 4910 C 470.12 0.580883 1.86776 0
M  V30 4911 O 471.326 0.670448 2.63092 0
M  V30 4912 C 469.782 3.11921 1.79537 0
M  V30 4913 C 469.39 4.37659 0.956991 0
M  V30 4914 C 471.134 3.41936 2.51555 0
M  V30 4915 C 469.041 5.64411 1.76619 0
M  V30 4916 H 467.971 0.656841 0.370237 0
M  V30 4917 H 470.622 1.81969 0.236556 0
M  V30 4918 H 469.004 3.00241 2.58208 0
M  V30 4919 H 470.178 4.60307 0.21315 0
M  V30 4920 H 468.493 4.14922 0.350497 0
M  V30 4921 H 471.09 4.33849 3.12536 0
M  V30 4922 H 471.433 2.62905 3.22779 0
M  V30 4923 H 471.966 3.54797 1.799 0
M  V30 4924 H 468.705 6.46241 1.09783 0
M  V30 4925 H 468.225 5.45877 2.48551 0
M  V30 4926 H 469.904 6.03386 2.33527 0
M  V30 4927 N 470.036 -0.519951 1.48776 0
M  V30 4928 C 471.282 -1.27711 1.57536 0
M  V30 4929 C 471.615 -1.92547 0.252866 0
M  V30 4930 O 470.89 -1.7979 -0.742021 0
M  V30 4931 C 471.173 -2.35875 2.72094 0
M  V30 4932 C 471.026 -1.75664 4.1408 0
M  V30 4933 C 472.345 -3.37575 2.82367 0
M  V30 4934 H 469.464 -0.462971 0.573434 0
M  V30 4935 H 472.106 -0.578194 1.80989 0
M  V30 4936 H 470.256 -2.95488 2.52228 0
M  V30 4937 H 471.928 -1.20025 4.45412 0
M  V30 4938 H 470.171 -1.06154 4.20611 0
M  V30 4939 H 470.842 -2.54029 4.90075 0
M  V30 4940 H 473.318 -2.87929 3.00393 0
M  V30 4941 H 472.194 -4.1064 3.64233 0
M  V30 4942 H 472.455 -3.98743 1.90936 0
M  V30 4943 N 471.514 -1.37532 -0.769588 0
M  V30 4944 C 472.446 -1.29347 -1.89214 0
M  V30 4945 C 473.459 -0.208842 -1.61455 0
M  V30 4946 O 474.648 -0.465158 -1.72333 0
M  V30 4947 C 471.748 -0.977649 -3.24492 0
M  V30 4948 C 470.921 -2.16817 -3.7988 0
M  V30 4949 C 469.98 -1.82229 -4.93639 0
M  V30 4950 O 469.006 -2.54548 -5.09111 0
M  V30 4951 N 470.208 -0.767696 -5.75401 0
M  V30 4952 H 472.973 -2.26073 -1.96751 0
M  V30 4953 H 470.534 -1.31185 -0.948795 0
M  V30 4954 H 472.526 -0.727065 -3.98115 0
M  V30 4955 H 471.096 -0.0988777 -3.12444 0
M  V30 4956 H 470.316 -2.58038 -2.9801 0
M  V30 4957 H 471.604 -2.96308 -4.13617 0
M  V30 4958 H 471.002 -0.167626 -5.65452 0
M  V30 4959 H 469.559 -0.576973 -6.49241 0
M  V30 4960 N 472.992 0.995999 -1.22138 0
M  V30 4961 C 473.922 2.10387 -1.01289 0
M  V30 4962 C 474.903 1.69975 0.0651454 0
M  V30 4963 O 476.088 1.9396 -0.0964628 0
M  V30 4964 C 473.218 3.42312 -0.586517 0
M  V30 4965 C 472.172 3.96558 -1.61014 0
M  V30 4966 C 471.498 5.24494 -1.0397 0
M  V30 4967 C 472.798 4.27595 -2.99933 0
M  V30 4968 H 474.492 2.28086 -1.93951 0
M  V30 4969 H 472.038 1.09607 -0.933928 0
M  V30 4970 H 473.991 4.19223 -0.427793 0
M  V30 4971 H 472.715 3.24431 0.375761 0
M  V30 4972 H 471.374 3.21776 -1.75658 0
M  V30 4973 H 471.022 5.02953 -0.0688703 0
M  V30 4974 H 470.722 5.61755 -1.72352 0
M  V30 4975 H 472.246 6.04042 -0.892494 0
M  V30 4976 H 473.66 4.95315 -2.8868 0
M  V30 4977 H 472.057 4.76021 -3.6541 0
M  V30 4978 H 473.127 3.35498 -3.50099 0
M  V30 4979 N 474.47 1.03057 1.19235 0
M  V30 4980 C 475.881 0.757449 1.70645 0
M  V30 4981 C 476.232 -0.722735 1.82403 0
M  V30 4982 O 475.357 -1.56325 1.49638 0
M  V30 4983 C 475.952 1.36833 3.09939 0
M  V30 4984 C 474.511 1.14375 3.58602 0
M  V30 4985 C 473.658 1.46533 2.35422 0
M  V30 4986 H 476.609 1.19828 1.04052 0
M  V30 4987 H 476.63 0.766184 3.72706 0
M  V30 4988 H 476.142 2.44562 3.01349 0
M  V30 4989 H 474.243 0.0847542 3.72504 0
M  V30 4990 H 474.356 1.83366 4.42622 0
M  V30 4991 H 472.72 0.884712 2.38841 0
M  V30 4992 H 473.503 2.55349 2.2946 0
M  V30 4993 N 475.948 -1.35272 0.808662 0
M  V30 4994 C 476.898 -2.27181 0.193124 0
M  V30 4995 C 477.882 -1.47871 -0.634265 0
M  V30 4996 O 479.074 -1.70048 -0.491182 0
M  V30 4997 C 476.203 -3.36979 -0.655751 0
M  V30 4998 C 475.289 -4.23712 0.181481 0
M  V30 4999 N 475.68 -4.90225 1.24551 0
M  V30 5000 C 473.978 -4.45985 -0.0365493 0
M  V30 5001 C 474.679 -5.54537 1.75682 0
M  V30 5002 N 473.655 -5.33107 1.06294 0
M  V30 5003 H 477.457 -2.76101 1.00724 0
M  V30 5004 H 474.971 -1.48823 0.650029 0
M  V30 5005 H 476.968 -4.01774 -1.11279 0
M  V30 5006 H 475.628 -2.89611 -1.46819 0
M  V30 5007 H 476.639 -4.91641 1.62818 0
M  V30 5008 H 473.316 -4.09409 -0.817964 0
M  V30 5009 H 474.706 -6.17597 2.64621 0
M  V30 5010 N 477.426 -0.562348 -1.47226 0
M  V30 5011 C 478.842 -0.222492 -1.58042 0
M  V30 5012 C 479.042 1.27505 -1.56028 0
M  V30 5013 O 478.098 2.05555 -1.46641 0
M  V30 5014 C 479.411 -0.853694 -2.88327 0
M  V30 5015 C 480.959 -0.825397 -3.01921 0
M  V30 5016 C 481.434 -1.43576 -4.34914 0
M  V30 5017 N 482.925 -1.39918 -4.41562 0
M  V30 5018 C 483.66 -1.84103 -5.43041 0
M  V30 5019 N 483.156 -2.36167 -6.51304 0
M  V30 5020 N 484.949 -1.75142 -5.34118 0
M  V30 5021 H 477.1 -1.53525 -1.46778 0
M  V30 5022 H 479.363 -0.640527 -0.698877 0
M  V30 5023 H 479.069 -1.90635 -2.95552 0
M  V30 5024 H 478.943 -0.34977 -3.75575 0
M  V30 5025 H 481.33 0.218583 -2.94289 0
M  V30 5026 H 481.411 -1.36713 -2.16202 0
M  V30 5027 H 481.055 -2.47884 -4.43301 0
M  V30 5028 H 480.985 -0.869427 -5.19373 0
M  V30 5029 H 483.476 -1.0184 -3.63919 0
M  V30 5030 H 483.789 -2.67793 -7.24919 0
M  V30 5031 H 482.134 -2.40181 -6.52179 0
M  V30 5032 H 485.325 -1.34241 -4.48439 0
M  V30 5033 H 485.498 -2.09895 -6.13065 0
M  V30 5034 N 478.904 1.54736 -0.299062 0
M  V30 5035 C 480.153 1.99279 0.311549 0
M  V30 5036 C 480.466 1.19107 1.55154 0
M  V30 5037 O 481.672 1.53908 2.23662 0
M  V30 5038 C 480.128 3.54768 0.605632 0
M  V30 5039 C 479.736 4.43746 -0.615914 0
M  V30 5040 C 481.48 4.07841 1.17754 0
M  V30 5041 C 479.387 5.90663 -0.29509 0
M  V30 5042 H 478.317 0.744359 0.120187 0
M  V30 5043 H 480.968 1.78919 -0.407464 0
M  V30 5044 H 479.35 3.71021 1.38419 0
M  V30 5045 H 480.524 4.39267 -1.39218 0
M  V30 5046 H 478.839 4.01434 -1.10633 0
M  V30 5047 H 481.436 5.15174 1.43179 0
M  V30 5048 H 481.779 3.58324 2.11918 0
M  V30 5049 H 482.312 3.95123 0.460739 0
M  V30 5050 H 479.051 6.44325 -1.20524 0
M  V30 5051 H 478.571 5.98155 0.44394 0
M  V30 5052 H 480.25 6.46916 0.104048 0
M  V30 5053 N 480.382 0.0267497 1.57577 0
M  V30 5054 C 481.292 -0.971633 2.13533 0
M  V30 5055 C 482.308 -1.35868 1.08701 0
M  V30 5056 O 483.484 -1.44058 1.40746 0
M  V30 5057 C 480.549 -2.23622 2.64941 0
M  V30 5058 C 479.61 -1.90982 3.8448 0
M  V30 5059 C 478.843 -3.11411 4.33427 0
M  V30 5060 O 479.066 -4.23992 3.81558 0
M  V30 5061 O 478 -2.93848 5.25297 0
M  V30 5062 H 481.826 -0.525853 2.99113 0
M  V30 5063 H 479.411 -0.193712 1.48139 0
M  V30 5064 H 481.293 -2.97864 2.98086 0
M  V30 5065 H 479.968 -2.67386 1.82446 0
M  V30 5066 H 478.875 -1.14132 3.56265 0
M  V30 5067 H 480.208 -1.52036 4.6813 0
M  V30 5068 N 481.861 -1.55662 -0.24637 0
M  V30 5069 C 483.108 -1.77519 -0.974335 0
M  V30 5070 C 483.436 -0.591165 -1.85298 0
M  V30 5071 O 482.691 0.425497 -1.91018 0
M  V30 5072 C 482.99 -3.04885 -1.86494 0
M  V30 5073 C 482.656 -4.36209 -1.14161 0
M  V30 5074 C 481.318 -4.71896 -0.941701 0
M  V30 5075 C 483.67 -5.17391 -0.628957 0
M  V30 5076 C 480.998 -5.86299 -0.216852 0
M  V30 5077 C 483.35 -6.32546 0.0824273 0
M  V30 5078 C 482.014 -6.66853 0.293807 0
M  V30 5079 H 481.284 -0.649588 -0.356535 0
M  V30 5080 H 483.931 -1.89934 -0.244394 0
M  V30 5081 H 482.236 -2.87484 -2.66196 0
M  V30 5082 H 483.933 -3.18994 -2.42989 0
M  V30 5083 H 480.523 -4.08174 -1.30736 0
M  V30 5084 H 484.707 -4.90276 -0.770943 0
M  V30 5085 H 479.963 -6.11385 -0.0426124 0
M  V30 5086 H 484.137 -6.94693 0.487292 0
M  V30 5087 H 481.764 -7.55349 0.857428 0
M  V30 5088 N 483.339 0.512053 -1.4905 0
M  V30 5089 C 484.755 0.84224 -1.35567 0
M  V30 5090 C 484.955 1.97878 -0.380319 0
M  V30 5091 O 484.011 2.51769 0.19201 0
M  V30 5092 C 485.324 1.19286 -2.76028 0
M  V30 5093 C 486.872 1.30171 -2.84648 0
M  V30 5094 C 487.347 1.68568 -4.25851 0
M  V30 5095 N 488.838 1.75638 -4.28609 0
M  V30 5096 C 489.573 2.06769 -5.34821 0
M  V30 5097 N 489.069 2.36201 -6.51292 0
M  V30 5098 N 490.862 2.07927 -5.22229 0
M  V30 5099 H 483.013 -0.237574 -2.11067 0
M  V30 5100 H 485.276 -0.0436747 -0.946993 0
M  V30 5101 H 484.982 0.431199 -3.49047 0
M  V30 5102 H 484.856 2.13889 -3.10695 0
M  V30 5103 H 487.243 2.05411 -2.11873 0
M  V30 5104 H 487.324 0.336457 -2.53578 0
M  V30 5105 H 486.968 0.938824 -4.99148 0
M  V30 5106 H 486.898 2.66174 -4.54377 0
M  V30 5107 H 489.389 1.55097 -3.44606 0
M  V30 5108 H 489.702 2.59112 -7.28066 0
M  V30 5109 H 488.047 2.33681 -6.54536 0
M  V30 5110 H 491.238 1.84403 -4.30248 0
M  V30 5111 H 491.411 2.31856 -6.05101 0
M  V30 5112 N 484.817 1.37938 0.762283 0
M  V30 5113 C 485.749 1.30349 1.88525 0
M  V30 5114 C 486.762 0.217402 1.61342 0
M  V30 5115 O 487.951 0.474291 1.72084 0
M  V30 5116 C 485.051 0.994844 3.23969 0
M  V30 5117 C 484.224 2.18829 3.78725 0
M  V30 5118 C 483.283 1.84844 4.92665 0
M  V30 5119 O 482.309 2.57244 5.07754 0
M  V30 5120 N 483.511 0.798201 5.74986 0
M  V30 5121 H 486.276 2.27114 1.95549 0
M  V30 5122 H 483.837 1.31686 0.941825 0
M  V30 5123 H 485.829 0.748168 3.97724 0
M  V30 5124 H 484.399 0.115446 3.12387 0
M  V30 5125 H 483.619 2.59615 2.96637 0
M  V30 5126 H 484.907 2.98497 4.1204 0
M  V30 5127 H 484.305 0.197611 5.65355 0
M  V30 5128 H 482.862 0.611396 6.48926 0
M  V30 5129 N 486.295 -0.989507 1.22664 0
M  V30 5130 C 487.52 -1.77031 1.08051 0
M  V30 5131 C 487.945 -1.84535 -0.364483 0
M  V30 5132 O 487.303 -1.3003 -1.2634 0
M  V30 5133 C 487.351 -3.18 1.70024 0
M  V30 5134 O 486.455 -4.01161 0.956216 0
M  V30 5135 H 485.796 -0.545008 0.379292 0
M  V30 5136 H 488.326 -1.24277 1.62531 0
M  V30 5137 H 488.336 -3.68616 1.74888 0
M  V30 5138 H 487.011 -3.11853 2.75174 0
M  V30 5139 H 485.588 -3.59687 0.98384 0
M  V30 5140 N 487.773 -1.03688 -1.18687 0
M  V30 5141 C 489.001 -0.757918 -1.92518 0
M  V30 5142 C 489.416 0.684398 -1.75959 0
M  V30 5143 O 488.773 1.46617 -1.08673 0
M  V30 5144 C 488.824 -1.10985 -3.44042 0
M  V30 5145 O 488.545 -2.49554 -3.60076 0
M  V30 5146 C 490.046 -0.854844 -4.3498 0
M  V30 5147 H 487.266 -0.276699 -0.611293 0
M  V30 5148 H 489.81 -1.38352 -1.50595 0
M  V30 5149 H 487.965 -0.529279 -3.83767 0
M  V30 5150 H 488.379 -2.6291 -4.53849 0
M  V30 5151 H 489.853 -1.15098 -5.39867 0
M  V30 5152 H 490.33 0.210507 -4.38695 0
M  V30 5153 H 490.936 -1.41853 -4.00946 0
M  V30 5154 N 489.251 1.34841 -0.815825 0
M  V30 5155 C 490.198 2.29644 -0.230664 0
M  V30 5156 C 491.168 1.53253 0.640533 0
M  V30 5157 O 492.353 1.81653 0.583672 0
M  V30 5158 C 489.493 3.39715 0.607275 0
M  V30 5159 C 488.606 4.31056 -0.28538 0
M  V30 5160 C 487.741 5.28225 0.561446 0
M  V30 5161 C 486.78 6.11204 -0.331035 0
M  V30 5162 N 485.917 7.00483 0.476302 0
M  V30 5163 H 490.757 2.79095 -1.0445 0
M  V30 5164 H 488.294 1.37351 -0.526595 0
M  V30 5165 H 490.252 4.02208 1.10835 0
M  V30 5166 H 488.882 2.91517 1.38629 0
M  V30 5167 H 487.934 3.69487 -0.904621 0
M  V30 5168 H 489.246 4.89239 -0.97193 0
M  V30 5169 H 488.4 5.96135 1.12728 0
M  V30 5170 H 487.139 4.70562 1.28153 0
M  V30 5171 H 486.144 5.42232 -0.909069 0
M  V30 5172 H 487.369 6.70947 -1.04912 0
M  V30 5173 H 485.315 6.45296 1.18019 0
M  V30 5174 H 485.232 7.55847 -0.152008 0
M  V30 5175 H 486.5 7.7273 1.02512 0
M  V30 5176 O 490.768 0.711044 1.45005 0
M  V30 5177 H 491.459 0.254759 1.92017 0
M  V30 END ATOM
M  V30 BEGIN BOND
M  V30 END BOND
M  V30 END CTAB
M  END
$$$$
