drugbank_target|P08908 5-hydroxytryptamine receptor 1A (DB00216; DB00246; DB00247; DB00248; DB00315; DB00321; DB00363; DB00408; DB00413; DB00422; DB00458; DB00477; DB00490; DB00502; DB00540; DB00543; DB00571; DB00574; DB00589; DB00656; DB00669; DB00696; DB00714; DB00726; DB00734; DB00866; DB00904; DB00952; DB00960; DB00988; DB01142; DB01149; DB01151; DB01175; DB01186; DB01200; DB01224; DB01238; DB01267; DB01359; DB01392; DB01614; DB01616; DB01618; DB01621; DB01622; DB04829; DB04884; DB04888; DB04908; DB04946; DB04948; DB04970; DB05271; DB05339; DB05509; DB05562; DB06016; DB06148; DB06153; DB06216; DB06393; DB06446; DB06454; DB06506; DB06538; DB06684; DB08807; DB08810; DB08815; DB08922; DB09061; DB09068; DB09128; DB09167; DB09244; DB09289; DB11755; DB12061; DB14009; DB14010; DB14011; DB14185; DB15665)
 OpenBabel12092119283D

  0  0  0     0  0            999 V3000
M  V30 BEGIN CTAB
M  V30 COUNTS 6563 6635 0 0 0
M  V30 BEGIN ATOM
M  V30 1 H -0.908 1.98254 -0.117106 0
M  V30 2 N 0 1.576 0 0
M  V30 3 C 0.933 2.03868 1.02534 0
M  V30 4 C 1.911 0.928543 1.3348 0
M  V30 5 O 3.095 1.19667 1.45644 0
M  V30 6 C 0.222 2.43627 2.35294 0
M  V30 7 C -0.732 3.65373 2.2001 0
M  V30 8 S 0.101 5.13292 1.52614 0
M  V30 9 C 1.257 5.56322 2.86805 0
M  V30 10 H 1.49 2.90518 0.631377 0
M  V30 11 H -0.977 1.52953 0.210867 0
M  V30 12 H 0.981 2.67203 3.11629 0
M  V30 13 H -0.358 1.57376 2.7183 0
M  V30 14 H -1.165 3.90944 3.18086 0
M  V30 15 H -1.563 3.418 1.51819 0
M  V30 16 H 0.729 5.58782 3.83104 0
M  V30 17 H 1.672 6.56266 2.65933 0
M  V30 18 H 2.08 4.83886 2.90714 0
M  V30 19 N 1.4781 -0.272755 1.55222 0
M  V30 20 C 2.7551 -1.02562 1.66555 0
M  V30 21 C 3.1351 -2.04282 0.532189 0
M  V30 22 O 2.4831 -2.23662 -0.467717 0
M  V30 23 C 2.6931 -1.6822 3.05782 0
M  V30 24 C 4.0411 -2.19373 3.63539 0
M  V30 25 O 5.0651 -1.78206 3.08417 0
M  V30 26 O 3.9241 -2.94883 4.60115 0
M  V30 27 H 1.0181 -0.475755 0.676451 0
M  V30 28 H 3.5641 -0.268593 1.67561 0
M  V30 29 H 2.3361 -0.945112 3.79715 0
M  V30 30 H 1.9591 -2.50609 3.08676 0
M  V30 31 N 2.9562 -1.48159 -0.537278 0
M  V30 32 C 4.2022 -1.56035 -1.29541 0
M  V30 33 C 4.5352 -0.230377 -1.92829 0
M  V30 34 O 3.8102 0.762952 -1.78911 0
M  V30 35 C 4.0932 -2.69323 -2.39034 0
M  V30 36 C 3.9462 -4.12002 -1.80485 0
M  V30 37 C 5.2652 -2.78408 -3.40847 0
M  V30 38 H 2.3842 -0.567992 -0.469632 0
M  V30 39 H 5.0262 -1.80302 -0.599277 0
M  V30 40 H 3.1762 -2.48763 -2.98412 0
M  V30 41 H 4.8482 -4.43981 -1.25215 0
M  V30 42 H 3.0912 -4.19344 -1.11055 0
M  V30 43 H 3.7622 -4.87077 -2.59731 0
M  V30 44 H 6.2382 -2.97012 -2.91416 0
M  V30 45 H 5.1142 -3.59416 -4.14863 0
M  V30 46 H 5.3752 -1.86269 -4.00944 0
M  V30 47 N 4.4343 0.785586 -1.36625 0
M  V30 48 C 5.3643 1.91259 -1.33949 0
M  V30 49 C 6.3453 1.68795 -0.210325 0
M  V30 50 O 7.5303 1.89854 -0.408561 0
M  V30 51 C 4.6603 3.28339 -1.13186 0
M  V30 52 C 3.6143 3.65335 -2.22967 0
M  V30 53 C 2.9403 5.00806 -1.87342 0
M  V30 54 C 4.2403 3.7352 -3.65075 0
M  V30 55 H 5.9343 1.93755 -2.28253 0
M  V30 56 H 3.4803 0.930788 -1.09874 0
M  V30 57 H 5.4333 4.06804 -1.09948 0
M  V30 58 H 4.1573 3.2624 -0.153332 0
M  V30 59 H 2.8163 2.89169 -2.25337 0
M  V30 60 H 2.4643 4.95233 -0.880545 0
M  V30 61 H 2.1643 5.26529 -2.60846 0
M  V30 62 H 3.6883 5.81687 -1.85667 0
M  V30 63 H 5.1023 4.42168 -3.64911 0
M  V30 64 H 3.4993 4.10731 -4.37516 0
M  V30 65 H 4.5693 2.74527 -3.99703 0
M  V30 66 N 5.9124 1.20967 1.01018 0
M  V30 67 C 7.1374 1.0503 1.78839 0
M  V30 68 C 7.5624 -0.395752 1.8389 0
M  V30 69 O 6.9204 -1.28529 1.27867 0
M  V30 70 C 6.9684 1.64602 3.2084 0
M  V30 71 O 6.0724 0.887988 4.02726 0
M  V30 72 H 5.4134 0.369987 0.551367 0
M  V30 73 H 7.9434 1.60399 1.27018 0
M  V30 74 H 7.9534 1.68607 3.71532 0
M  V30 75 H 6.6284 2.69841 3.16479 0
M  V30 76 H 5.2054 0.922648 3.61305 0
M  V30 77 N 7.3905 -1.2043 1.01659 0
M  V30 78 C 8.8015 -1.71517 0.737482 0
M  V30 79 C 9.1525 -1.81547 -0.743973 0
M  V30 80 O 8.2775 -1.47803 -1.58061 0
M  V30 81 C 8.8725 -3.11515 1.33206 0
M  V30 82 C 7.4315 -3.59912 1.10183 0
M  V30 83 C 6.5785 -2.37116 1.43776 0
M  V30 84 H 9.5295 -1.05444 1.18606 0
M  V30 85 H 9.5505 -3.73575 0.722636 0
M  V30 86 H 9.0625 -3.04182 2.41028 0
M  V30 87 H 7.1635 -3.72577 0.0412756 0
M  V30 88 H 7.2765 -4.44731 1.78188 0
M  V30 89 H 5.6405 -2.39857 0.856778 0
M  V30 90 H 6.4235 -2.32424 2.52654 0
M  V30 91 N 8.8686 -0.792821 -1.36206 0
M  V30 92 C 10.1166 -0.366062 -1.98757 0
M  V30 93 C 10.4376 1.0668 -1.63231 0
M  V30 94 O 9.7076 1.73587 -0.907978 0
M  V30 95 H 8.2876 -0.132364 -0.735179 0
M  V30 96 H 10.9496 -1.01562 -1.66347 0
M  V30 97 H 10.0456 -0.460638 -3.08682 0
M  V30 98 N 10.3467 1.47872 -0.545128 0
M  V30 99 C 11.2787 2.27869 0.246621 0
M  V30 100 C 12.2917 1.36282 0.890561 0
M  V30 101 O 13.4807 1.61207 0.766449 0
M  V30 102 C 10.5807 3.10159 1.36582 0
M  V30 103 C 9.7537 4.29627 0.820954 0
M  V30 104 C 8.8127 4.93607 1.82314 0
M  V30 105 O 7.8387 5.52366 1.37406 0
M  V30 106 N 9.0407 4.87211 3.15603 0
M  V30 107 H 11.8057 2.96459 -0.439539 0
M  V30 108 H 9.3667 1.57367 -0.380421 0
M  V30 109 H 11.3587 3.49829 2.03474 0
M  V30 110 H 9.9287 2.43891 1.9554 0
M  V30 111 H 9.1487 3.94192 -0.0244032 0
M  V30 112 H 10.4367 5.06928 0.436063 0
M  V30 113 H 9.8347 4.40651 3.54744 0
M  V30 114 H 8.3917 5.30937 3.78087 0
M  V30 115 N 11.8248 0.280983 1.55075 0
M  V30 116 C 13.0728 -0.333455 1.9933 0
M  V30 117 C 13.3938 -1.55937 1.17085 0
M  V30 118 O 12.6638 -1.94143 0.261805 0
M  V30 119 H 11.2438 -0.126197 0.736263 0
M  V30 120 H 13.9058 0.387678 1.91005 0
M  V30 121 H 13.0018 -0.619292 3.05894 0
M  V30 122 N 13.3029 -1.57598 0.00835791 0
M  V30 123 C 14.2509 -2.10078 -0.998508 0
M  V30 124 C 15.2449 -1.02262 -1.35051 0
M  V30 125 O 16.4509 -1.20719 -1.33518 0
M  V30 126 H 12.8259 -0.670903 -0.339696 0
M  V30 127 H 14.7969 -2.93648 -0.530398 0
M  V30 128 C 13.5459 -2.62615 -2.27879 0
M  V30 129 H 12.8689 -3.45213 -2.01662 0
M  V30 130 H 14.3089 -3.03004 -2.96588 0
M  V30 131 C 12.7679 -1.54407 -2.99433 0
M  V30 132 O 13.2979 -0.931812 -3.90743 0
M  V30 133 N 11.5039 -1.2695 -2.61404 0
M  V30 134 H 11.0509 -1.76924 -1.87232 0
M  V30 135 H 11.0089 -0.547704 -3.09593 0
M  V30 136 N 14.781 0.264519 -1.55364 0
M  V30 137 C 15.729 1.34702 -1.89626 0
M  V30 138 C 16.723 1.50712 -0.773459 0
M  V30 139 O 17.929 1.52395 -0.957897 0
M  V30 140 H 14.304 0.450682 -0.601988 0
M  V30 141 H 16.275 1.0306 -2.80038 0
M  V30 142 C 15.024 2.6989 -2.19214 0
M  V30 143 H 14.347 2.58365 -3.05103 0
M  V30 144 H 15.787 3.44553 -2.47102 0
M  V30 145 C 14.246 3.21637 -1.00254 0
M  V30 146 O 14.776 4.00973 -0.241501 0
M  V30 147 N 12.982 2.7943 -0.797938 0
M  V30 148 H 12.529 2.15026 -1.4185 0
M  V30 149 H 12.487 3.144 -0.00363422 0
M  V30 150 N 16.2591 1.48442 0.529413 0
M  V30 151 C 17.4871 1.60151 1.30994 0
M  V30 152 C 17.9021 0.261985 1.86973 0
M  V30 153 O 17.2591 -0.748805 1.66431 0
M  V30 154 C 17.3101 2.64854 2.46038 0
M  V30 155 O 17.0311 3.93608 1.92365 0
M  V30 156 C 18.5321 2.87007 3.37849 0
M  V30 157 H 15.7521 0.539971 0.398338 0
M  V30 158 H 18.2961 1.94273 0.638597 0
M  V30 159 H 16.4511 2.33589 3.09055 0
M  V30 160 H 16.8651 4.51055 2.67675 0
M  V30 161 H 18.3391 3.64068 4.14919 0
M  V30 162 H 18.8161 1.95852 3.93114 0
M  V30 163 H 19.4221 3.19579 2.80623 0
M  V30 164 N 17.7372 -0.778329 1.37039 0
M  V30 165 C 18.9652 -1.56734 1.35063 0
M  V30 166 C 19.3802 -1.88686 -0.0655597 0
M  V30 167 O 18.7372 -1.5096 -1.02554 0
M  V30 168 C 18.7882 -2.88163 2.18276 0
M  V30 169 O 18.5092 -2.57583 3.54376 0
M  V30 170 C 20.0102 -3.82422 2.24206 0
M  V30 171 H 17.2302 -0.485778 0.462883 0
M  V30 172 H 19.7742 -0.965185 1.8029 0
M  V30 173 H 17.9292 -3.44818 1.76576 0
M  V30 174 H 18.3432 -3.41699 3.97922 0
M  V30 175 H 19.8172 -4.71667 2.86765 0
M  V30 176 H 20.2942 -4.21078 1.24861 0
M  V30 177 H 20.9002 -3.31697 2.6619 0
M  V30 178 N 19.2153 -1.21501 -1.00376 0
M  V30 179 C 20.4403 -1.05977 -1.78279 0
M  V30 180 C 20.8653 0.385994 -1.84097 0
M  V30 181 O 20.2233 1.27849 -1.28547 0
M  V30 182 C 20.2713 -1.66302 -3.19963 0
M  V30 183 O 19.3753 -0.909333 -4.0225 0
M  V30 184 H 18.7163 -0.372906 -0.549397 0
M  V30 185 H 21.2463 -1.6107 -1.26165 0
M  V30 186 H 21.2563 -1.70574 -3.70632 0
M  V30 187 H 19.9313 -2.71515 -3.15043 0
M  V30 188 H 18.5083 -0.941795 -3.60811 0
M  V30 189 N 20.6934 1.19889 -1.02296 0
M  V30 190 C 22.1044 1.71124 -0.746568 0
M  V30 191 C 22.4554 1.81939 0.734335 0
M  V30 192 O 21.5804 1.48639 1.57275 0
M  V30 193 C 22.1754 3.10804 -1.34857 0
M  V30 194 C 20.7344 3.59323 -1.1209 0
M  V30 195 C 19.8814 2.3635 -1.45031 0
M  V30 196 H 22.8324 1.04813 -1.19163 0
M  V30 197 H 22.8534 3.73186 -0.742437 0
M  V30 198 H 22.3654 3.029 -2.42638 0
M  V30 199 H 20.4664 3.7255 -0.0610337 0
M  V30 200 H 20.5794 4.4378 -1.80544 0
M  V30 201 H 18.9434 2.39399 -0.869487 0
M  V30 202 H 19.7264 2.31081 -2.53883 0
M  V30 203 N 22.1715 0.800033 1.35784 0
M  V30 204 C 23.5825 0.439142 1.81462 0
M  V30 205 C 23.9335 -1.03813 1.66485 0
M  V30 206 O 23.0585 -1.80626 1.19177 0
M  V30 207 C 23.6535 0.790314 3.29453 0
M  V30 208 C 22.2125 0.482111 3.733 0
M  V30 209 C 21.3595 1.01938 2.57883 0
M  V30 210 H 24.3105 0.992254 1.23855 0
M  V30 211 H 24.3315 0.0853677 3.80404 0
M  V30 212 H 23.8435 1.86554 3.40322 0
M  V30 213 H 21.9445 -0.584652 3.67984 0
M  V30 214 H 22.0575 1.01015 4.6833 0
M  V30 215 H 20.4215 0.442043 2.50835 0
M  V30 216 H 21.2045 2.10059 2.71533 0
M  V30 217 N 23.6496 -1.47581 0.552962 0
M  V30 218 C 24.6126 -2.28439 -0.186605 0
M  V30 219 C 25.6126 -1.36706 -0.84665 0
M  V30 220 O 26.8026 -1.59378 -0.703164 0
M  V30 221 C 23.9346 -3.16264 -1.2724 0
M  V30 222 H 25.1276 -2.95294 0.523609 0
M  V30 223 H 22.6806 -1.532 0.309745 0
M  V30 224 H 23.4156 -2.54091 -2.01514 0
M  V30 225 H 23.2006 -3.83769 -0.803968 0
M  V30 226 H 24.6906 -3.77198 -1.79196 0
M  V30 227 N 25.1277 -0.289203 -1.54924 0
M  V30 228 C 26.5387 0.205791 -1.85562 0
M  V30 229 C 26.8897 1.54351 -1.2112 0
M  V30 230 O 26.0147 2.10435 -0.504601 0
M  V30 231 C 26.6097 0.380177 -3.3666 0
M  V30 232 C 25.1687 0.819395 -3.67373 0
M  V30 233 C 24.3157 -0.079159 -2.77187 0
M  V30 234 H 27.2667 -0.510577 -1.50262 0
M  V30 235 H 27.2877 1.21659 -3.60526 0
M  V30 236 H 26.7997 -0.593589 -3.83534 0
M  V30 237 H 24.9007 1.80413 -3.26009 0
M  V30 238 H 25.0137 0.646957 -4.74712 0
M  V30 239 H 23.3777 0.439565 -2.50878 0
M  V30 240 H 24.1607 -1.04906 -3.26878 0
M  V30 241 N 26.6058 1.57591 -0.0167156 0
M  V30 242 C 27.8528 1.91283 0.664597 0
M  V30 243 C 28.1808 0.891949 1.72842 0
M  V30 244 O 27.4358 -0.100931 1.9544 0
M  V30 245 C 27.7348 3.3172 1.33029 0
M  V30 246 C 27.4008 4.4914 0.398047 0
M  V30 247 C 26.0628 4.80992 0.141421 0
M  V30 248 C 28.4148 5.20634 -0.242825 0
M  V30 249 C 25.7428 5.81703 -0.764092 0
M  V30 250 C 28.0948 6.22311 -1.13632 0
M  V30 251 C 26.7588 6.52611 -1.40196 0
M  V30 252 H 26.0288 0.699956 0.243193 0
M  V30 253 H 28.6758 1.9135 -0.0758267 0
M  V30 254 H 26.9808 3.27856 2.14517 0
M  V30 255 H 28.6778 3.55055 1.86379 0
M  V30 256 H 25.2678 4.24262 0.608238 0
M  V30 257 H 29.4518 4.96267 -0.0576019 0
M  V30 258 H 24.7078 6.03532 -0.977732 0
M  V30 259 H 28.8818 6.76834 -1.63917 0
M  V30 260 H 26.5088 7.30467 -2.10529 0
M  V30 261 N 28.0839 -0.256276 1.55502 0
M  V30 262 C 28.9939 -1.33882 1.92647 0
M  V30 263 C 30.0099 -1.53159 0.825727 0
M  V30 264 O 31.1859 -1.66963 1.12629 0
M  V30 265 C 28.2509 -2.6751 2.20543 0
M  V30 266 C 27.3119 -2.56836 3.43997 0
M  V30 267 C 26.5449 -3.84092 3.70553 0
M  V30 268 O 26.7679 -4.85545 2.99336 0
M  V30 269 O 25.7019 -3.83288 4.64084 0
M  V30 270 H 29.5279 -1.05374 2.84833 0
M  V30 271 H 27.1129 -0.456237 1.42263 0
M  V30 272 H 28.9949 -3.46492 2.39835 0
M  V30 273 H 27.6699 -2.9577 1.31536 0
M  V30 274 H 26.5769 -1.76172 3.30021 0
M  V30 275 H 27.9099 -2.33523 4.33275 0
M  V30 276 N 29.562 -1.4872 -0.521534 0
M  V30 277 C 30.79 -1.60843 -1.30142 0
M  V30 278 C 31.205 -0.271897 -1.86832 0
M  V30 279 O 30.562 0.739969 -1.66825 0
M  V30 280 C 30.613 -2.66155 -2.4463 0
M  V30 281 O 30.334 -3.94623 -1.90275 0
M  V30 282 C 31.835 -2.88795 -3.36322 0
M  V30 283 H 29.055 -0.542075 -0.395468 0
M  V30 284 H 31.599 -1.94609 -0.628285 0
M  V30 285 H 29.754 -2.35224 -3.07812 0
M  V30 286 H 30.168 -4.52468 -2.65279 0
M  V30 287 H 31.642 -3.66264 -4.12983 0
M  V30 288 H 32.119 -1.97934 -3.9207 0
M  V30 289 H 32.725 -3.21063 -2.78924 0
M  V30 290 N 31.0401 0.771051 -1.3745 0
M  V30 291 C 32.2881 1.52661 -1.32435 0
M  V30 292 C 32.6091 1.9479 0.0905024 0
M  V30 293 O 31.8791 1.66348 1.03466 0
M  V30 294 H 30.4591 0.566218 -0.487244 0
M  V30 295 H 33.1211 0.917636 -1.71946 0
M  V30 296 H 32.2171 2.42568 -1.96385 0
M  V30 297 N 32.5182 1.22032 0.997298 0
M  V30 298 C 33.7662 1.04016 1.73278 0
M  V30 299 C 34.0872 -0.426255 1.90284 0
M  V30 300 O 33.3572 -1.30694 1.45931 0
M  V30 301 H 31.9372 0.381897 0.642 0
M  V30 302 H 34.5992 1.5347 1.20137 0
M  V30 303 H 33.6952 1.51441 2.72896 0
M  V30 304 N 33.9963 -1.19345 1.0293 0
M  V30 305 C 34.9443 -2.24621 0.604001 0
M  V30 306 C 35.9383 -1.65452 -0.363587 0
M  V30 307 O 37.1443 -1.78497 -0.23212 0
M  V30 308 H 33.5193 -0.730858 0.177061 0
M  V30 309 H 35.4903 -2.5781 1.50255 0
M  V30 310 C 34.2393 -3.47688 -0.0289127 0
M  V30 311 H 33.5623 -3.93505 0.706651 0
M  V30 312 H 35.0023 -4.23011 -0.289432 0
M  V30 313 C 33.4613 -3.11817 -1.2756 0
M  V30 314 O 33.9913 -3.2451 -2.36762 0
M  V30 315 N 32.1973 -2.66246 -1.16453 0
M  V30 316 H 31.7443 -2.56118 -0.275914 0
M  V30 317 H 31.7023 -2.42617 -1.99961 0
M  V30 318 N 35.4744 -0.807222 -1.35358 0
M  V30 319 C 36.7024 -0.400377 -2.02989 0
M  V30 320 C 37.1174 0.988859 -1.60832 0
M  V30 321 O 36.4744 1.63729 -0.806175 0
M  V30 322 C 36.5254 -0.474867 -3.58368 0
M  V30 323 O 36.2464 -1.80933 -3.98992 0
M  V30 324 C 37.7474 -0.0609112 -4.43258 0
M  V30 325 H 34.9674 -0.162587 -0.651004 0
M  V30 326 H 37.5114 -1.09102 -1.72965 0
M  V30 327 H 35.6664 0.167534 -3.87038 0
M  V30 328 H 36.0804 -1.77256 -4.9364 0
M  V30 329 H 37.5544 -0.164145 -5.51756 0
M  V30 330 H 38.0314 0.993831 -4.27808 0
M  V30 331 H 38.6374 -0.676492 -4.19885 0
M  V30 332 N 36.9525 1.47285 -0.560781 0
M  V30 333 C 38.1805 2.06855 -0.0430262 0
M  V30 334 C 38.5955 1.41291 1.25229 0
M  V30 335 O 37.9525 0.510648 1.7521 0
M  V30 336 C 38.0035 3.61178 0.152518 0
M  V30 337 O 37.7245 4.24285 -1.0915 0
M  V30 338 C 39.2255 4.37624 0.707145 0
M  V30 339 H 36.4455 0.669319 -0.0474652 0
M  V30 340 H 38.9895 1.89237 -0.77521 0
M  V30 341 H 37.1445 3.78298 0.834843 0
M  V30 342 H 37.5585 5.16868 -0.891482 0
M  V30 343 H 39.0325 5.46271 0.793244 0
M  V30 344 H 39.5095 4.04152 1.71923 0
M  V30 345 H 40.1155 4.25257 0.0604027 0
M  V30 346 N 38.4306 0.297415 1.54768 0
M  V30 347 C 39.6786 -0.312295 1.99673 0
M  V30 348 C 39.9996 -1.54686 1.18732 0
M  V30 349 O 39.2696 -1.93854 0.282382 0
M  V30 350 H 37.8496 -0.118381 0.73756 0
M  V30 351 H 40.5116 0.407915 1.90583 0
M  V30 352 H 39.6076 -0.586813 3.06534 0
M  V30 353 N 39.9087 -1.5758 0.0250728 0
M  V30 354 C 41.1577 -1.90811 -0.653767 0
M  V30 355 C 41.4707 -0.90273 -1.73523 0
M  V30 356 O 42.6767 -1.12614 -2.47043 0
M  V30 357 C 41.1327 -3.38804 -1.21409 0
M  V30 358 C 40.7407 -4.47692 -0.166126 0
M  V30 359 C 42.4847 -3.81108 -1.86967 0
M  V30 360 C 40.3917 -5.86779 -0.737856 0
M  V30 361 H 39.3217 -0.712063 -0.247956 0
M  V30 362 H 41.9727 -1.83281 0.0897137 0
M  V30 363 H 40.3547 -3.41252 -2.00905 0
M  V30 364 H 41.5287 -4.56797 0.606079 0
M  V30 365 H 39.8437 -4.14565 0.390466 0
M  V30 366 H 42.4407 -4.82375 -2.30692 0
M  V30 367 H 42.7837 -3.15953 -2.71071 0
M  V30 368 H 43.3167 -3.81065 -1.14167 0
M  V30 369 H 40.0557 -6.55468 0.0649577 0
M  V30 370 H 39.5757 -5.81288 -1.47864 0
M  V30 371 H 41.2547 -6.35223 -1.22884 0
M  V30 372 N 41.3868 0.248026 -1.55636 0
M  V30 373 C 42.6118 0.998028 -1.81808 0
M  V30 374 C 43.0368 1.78207 -0.601979 0
M  V30 375 O 42.3948 1.75653 0.448961 0
M  V30 376 C 42.4428 1.9125 -3.05705 0
M  V30 377 O 41.5468 3.00406 -2.82542 0
M  V30 378 H 40.8878 0.284045 -0.600179 0
M  V30 379 H 43.4178 0.269357 -2.02819 0
M  V30 380 H 43.4278 2.32737 -3.35108 0
M  V30 381 H 42.1028 1.33602 -3.93857 0
M  V30 382 H 40.6798 2.63056 -2.64303 0
M  V30 383 N 42.8649 1.48995 0.513639 0
M  V30 384 C 44.1419 1.48338 1.27495 0
M  V30 385 C 44.5219 0.204065 2.10111 0
M  V30 386 O 43.8699 -0.813881 2.13514 0
M  V30 387 C 44.0799 2.75498 2.14247 0
M  V30 388 C 45.4279 3.24484 2.73852 0
M  V30 389 O 46.4519 2.76528 2.24523 0
M  V30 390 O 45.3109 4.07974 3.6362 0
M  V30 391 H 42.4049 0.593149 0.576284 0
M  V30 392 H 44.9509 1.61246 0.528948 0
M  V30 393 H 43.7229 3.60109 1.53092 0
M  V30 394 H 43.3459 2.6539 2.96064 0
M  V30 395 N 44.343 -0.763751 1.37857 0
M  V30 396 C 45.589 -1.52483 1.33704 0
M  V30 397 C 45.922 -1.94051 -0.0759612 0
M  V30 398 O 45.197 -1.64675 -1.03501 0
M  V30 399 C 45.48 -2.78441 2.28348 0
M  V30 400 C 45.333 -2.43075 3.78463 0
M  V30 401 C 46.652 -3.80415 2.21298 0
M  V30 402 H 43.771 -0.553169 0.487005 0
M  V30 403 H 46.413 -0.875562 1.68624 0
M  V30 404 H 44.563 -3.33842 1.987 0
M  V30 405 H 46.235 -1.93527 4.18742 0
M  V30 406 H 44.478 -1.75666 3.96641 0
M  V30 407 H 45.149 -3.33149 4.40132 0
M  V30 408 H 47.625 -3.34527 2.47449 0
M  V30 409 H 46.501 -4.66257 2.89647 0
M  V30 410 H 46.762 -4.25262 1.20849 0
M  V30 411 N 45.8211 -1.22559 -0.990812 0
M  V30 412 C 47.0491 -1.07779 -1.76611 0
M  V30 413 C 47.4641 0.371513 -1.85109 0
M  V30 414 O 46.8211 1.25737 -1.32274 0
M  V30 415 C 46.8721 -1.68512 -3.19822 0
M  V30 416 O 46.5931 -3.07774 -3.1178 0
M  V30 417 C 48.0941 -1.59035 -4.13791 0
M  V30 418 H 45.3141 -0.377729 -0.554583 0
M  V30 419 H 47.8581 -1.62195 -1.24551 0
M  V30 420 H 46.0131 -1.18154 -3.68942 0
M  V30 421 H 46.4271 -3.37062 -4.01858 0
M  V30 422 H 47.9011 -2.0625 -5.1202 0
M  V30 423 H 48.3781 -0.547273 -4.35777 0
M  V30 424 H 48.9841 -2.08709 -3.70568 0
M  V30 425 N 47.2992 1.18797 -1.03562 0
M  V30 426 C 48.5452 1.8893 -0.737113 0
M  V30 427 C 48.8782 1.79837 0.732956 0
M  V30 428 O 48.1532 1.19525 1.5344 0
M  V30 429 C 48.4362 3.39607 -1.19745 0
M  V30 430 C 48.2892 3.57537 -2.72924 0
M  V30 431 C 49.6082 4.33069 -0.783526 0
M  V30 432 H 46.7272 0.686057 -0.269249 0
M  V30 433 H 49.3692 1.39797 -1.28673 0
M  V30 434 H 47.5192 3.81583 -0.729855 0
M  V30 435 H 49.1912 3.24688 -3.27682 0
M  V30 436 H 47.4342 3.00363 -3.12993 0
M  V30 437 H 48.1052 4.63238 -3.00191 0
M  V30 438 H 50.5812 3.98846 -1.18581 0
M  V30 439 H 49.4572 5.3707 -1.13343 0
M  V30 440 H 49.7182 4.40986 0.313681 0
M  V30 441 N 48.7773 0.814389 1.34928 0
M  V30 442 C 50.0023 0.410097 2.03305 0
M  V30 443 C 50.4273 -0.973464 1.60951 0
M  V30 444 O 49.7853 -1.63185 0.789964 0
M  V30 445 C 49.8333 0.51049 3.56968 0
M  V30 446 O 48.9373 -0.473035 4.09678 0
M  V30 447 H 48.2783 0.170088 0.641846 0
M  V30 448 H 50.8083 1.10244 1.72358 0
M  V30 449 H 50.8183 0.383135 4.06197 0
M  V30 450 H 49.4933 1.51963 3.87144 0
M  V30 451 H 48.0703 -0.305272 3.71648 0
M  V30 452 N 50.2554 -1.46986 0.568584 0
M  V30 453 C 51.4854 -2.0653 0.0539173 0
M  V30 454 C 51.8934 -1.42004 -1.25026 0
M  V30 455 O 51.2364 -0.514541 -1.76347 0
M  V30 456 C 51.2984 -3.58938 -0.200854 0
M  V30 457 C 50.9624 -4.45572 1.01559 0
M  V30 458 C 51.9594 -4.82986 1.92407 0
M  V30 459 C 49.6444 -4.8692 1.23346 0
M  V30 460 C 51.6384 -5.60559 3.03402 0
M  V30 461 C 49.3254 -5.64255 2.34649 0
M  V30 462 C 50.3234 -6.00986 3.24507 0
M  V30 463 O 50.0114 -6.76761 4.33878 0
M  V30 464 H 49.7434 -0.674292 0.0480234 0
M  V30 465 H 52.2974 -1.89812 0.784896 0
M  V30 466 H 50.5274 -3.73911 -0.986279 0
M  V30 467 H 52.2164 -4.0046 -0.662294 0
M  V30 468 H 52.9824 -4.51633 1.76785 0
M  V30 469 H 48.8614 -4.57789 0.543178 0
M  V30 470 H 52.4054 -5.89147 3.73565 0
M  V30 471 H 48.3024 -5.95021 2.5024 0
M  V30 472 H 49.0704 -6.95168 4.32068 0
M  V30 473 N 51.7335 -0.305618 -1.54608 0
M  V30 474 C 52.6655 0.602161 -2.21149 0
M  V30 475 C 53.6785 1.09394 -1.20569 0
M  V30 476 O 54.8675 1.0106 -1.47136 0
M  V30 477 C 51.9675 1.83692 -2.84799 0
M  V30 478 C 51.1405 1.48686 -4.11353 0
M  V30 479 C 50.1995 2.57725 -4.58764 0
M  V30 480 O 49.2255 2.22623 -5.23858 0
M  V30 481 N 50.4275 3.88346 -4.31471 0
M  V30 482 H 53.1925 0.0324966 -2.99682 0
M  V30 483 H 50.7535 -0.128021 -1.61393 0
M  V30 484 H 52.7455 2.55994 -3.13448 0
M  V30 485 H 51.3155 2.31486 -2.10078 0
M  V30 486 H 50.5355 0.596269 -3.89664 0
M  V30 487 H 51.8235 1.22842 -4.93748 0
M  V30 488 H 51.2215 4.19671 -3.79331 0
M  V30 489 H 49.7785 4.56932 -4.64818 0
M  V30 490 N 53.2116 1.57565 -0.0334293 0
M  V30 491 C 54.4576 1.92262 0.645226 0
M  V30 492 C 54.7906 0.910543 1.71531 0
M  V30 493 O 54.0656 -0.066099 1.94388 0
M  V30 494 C 54.3486 3.37422 1.2577 0
M  V30 495 C 54.2016 4.49369 0.196891 0
M  V30 496 C 55.5206 3.82628 2.17449 0
M  V30 497 H 52.6396 0.699171 0.233085 0
M  V30 498 H 55.2816 1.89779 -0.0915694 0
M  V30 499 H 53.4316 3.39669 1.88566 0
M  V30 500 H 55.1036 4.59254 -0.433962 0
M  V30 501 H 53.3466 4.31168 -0.477137 0
M  V30 502 H 54.0176 5.47978 0.665124 0
M  V30 503 H 56.4936 3.82145 1.64634 0
M  V30 504 H 55.3696 4.84883 2.57254 0
M  V30 505 H 55.6306 3.18376 3.0674 0
M  V30 506 N 54.6897 -0.239769 1.55765 0
M  V30 507 C 55.9387 -0.964754 1.77131 0
M  V30 508 C 56.2517 -1.86213 0.59868 0
M  V30 509 O 57.4577 -2.6244 0.695522 0
M  V30 510 C 55.9137 -1.76552 3.1362 0
M  V30 511 C 55.5217 -0.915185 4.38553 0
M  V30 512 C 57.2657 -2.48281 3.44321 0
M  V30 513 C 55.1727 -1.71225 5.66071 0
M  V30 514 H 54.1027 -0.363953 0.660344 0
M  V30 515 H 56.7537 -0.219181 1.82186 0
M  V30 516 H 55.1357 -2.55331 3.02691 0
M  V30 517 H 56.3097 -0.169217 4.60489 0
M  V30 518 H 54.6247 -0.310889 4.15238 0
M  V30 519 H 57.2217 -3.08382 4.36812 0
M  V30 520 H 57.5647 -3.20256 2.65973 0
M  V30 521 H 58.0977 -1.76507 3.56497 0
M  V30 522 H 54.8367 -1.03612 6.4726 0
M  V30 523 H 54.3567 -2.43331 5.48224 0
M  V30 524 H 56.0357 -2.27758 6.05587 0
M  V30 525 N 56.1678 -1.49265 -0.50573 0
M  V30 526 C 57.3958 -1.62215 -1.28429 0
M  V30 527 C 57.8108 -0.291697 -1.86533 0
M  V30 528 O 57.1678 0.722233 -1.67601 0
M  V30 529 C 57.2188 -2.68735 -2.41793 0
M  V30 530 O 56.9398 -3.96619 -1.86078 0
M  V30 531 C 58.4408 -2.92346 -3.3324 0
M  V30 532 H 55.6608 -0.546239 -0.389697 0
M  V30 533 H 58.2048 -1.95265 -0.607609 0
M  V30 534 H 56.3598 -2.38476 -3.053 0
M  V30 535 H 56.7738 -4.55256 -2.60465 0
M  V30 536 H 58.2478 -3.70623 -4.09075 0
M  V30 537 H 58.7248 -2.02081 -3.89948 0
M  V30 538 H 59.3308 -3.24003 -2.75503 0
M  V30 539 N 57.6459 0.756429 -1.3826 0
M  V30 540 C 58.8709 1.55077 -1.37717 0
M  V30 541 C 59.2959 1.88073 0.03164 0
M  V30 542 O 58.6539 1.50364 1.01293 0
M  V30 543 C 58.7019 2.8283 -2.23695 0
M  V30 544 O 57.8059 3.77862 -1.6521 0
M  V30 545 H 57.1469 0.469152 -0.469885 0
M  V30 546 H 59.6769 0.935019 -1.81985 0
M  V30 547 H 59.6869 3.31783 -2.37453 0
M  V30 548 H 58.3619 2.58144 -3.2609 0
M  V30 549 H 56.9389 3.36555 -1.60578 0
M  V30 550 N 59.124 1.23083 0.984299 0
M  V30 551 C 60.054 1.03292 2.09411 0
M  V30 552 C 61.035 -0.048923 1.7003 0
M  V30 553 O 62.22 0.114967 1.93859 0
M  V30 554 C 59.35 0.619155 3.41736 0
M  V30 555 C 58.304 1.64791 3.95004 0
M  V30 556 C 57.63 1.0897 5.23478 0
M  V30 557 C 58.93 3.03999 4.24714 0
M  V30 558 H 60.624 1.96119 2.26225 0
M  V30 559 H 58.17 0.944344 1.08711 0
M  V30 560 H 60.123 0.467777 4.18796 0
M  V30 561 H 58.847 -0.344786 3.24775 0
M  V30 562 H 57.506 1.78721 3.20085 0
M  V30 563 H 57.154 0.11686 5.02864 0
M  V30 564 H 56.854 1.77704 5.60085 0
M  V30 565 H 58.378 0.950093 6.03163 0
M  V30 566 H 59.792 2.93393 4.92538 0
M  V30 567 H 58.189 3.69936 4.72512 0
M  V30 568 H 59.259 3.53285 3.32142 0
M  V30 569 N 60.6021 -1.18246 1.0419 0
M  V30 570 C 61.5321 -2.24127 0.654914 0
M  V30 571 C 62.5131 -1.66617 -0.342451 0
M  V30 572 O 63.6981 -1.92924 -0.222277 0
M  V30 573 C 60.8281 -3.47295 0.0183757 0
M  V30 574 C 59.7821 -4.17563 0.939414 0
M  V30 575 C 59.1081 -5.34438 0.167286 0
M  V30 576 C 60.4081 -4.70917 2.25908 0
M  V30 577 H 62.1021 -2.56753 1.54007 0
M  V30 578 H 59.6481 -1.23414 0.74195 0
M  V30 579 H 61.6011 -4.20572 -0.264082 0
M  V30 580 H 60.3251 -3.13907 -0.901664 0
M  V30 581 H 58.9841 -3.46186 1.20628 0
M  V30 582 H 58.6321 -4.97298 -0.7552 0
M  V30 583 H 58.3321 -5.82388 0.780901 0
M  V30 584 H 59.8561 -6.10504 -0.108125 0
M  V30 585 H 61.2701 -5.35882 2.03724 0
M  V30 586 H 59.6671 -5.29406 2.82577 0
M  V30 587 H 60.7371 -3.88272 2.9047 0
M  V30 588 N 62.0802 -0.821533 -1.34494 0
M  V30 589 C 63.0102 -0.257138 -2.3208 0
M  V30 590 C 63.9912 0.625645 -1.58176 0
M  V30 591 O 65.1762 0.552811 -1.86166 0
M  V30 592 C 62.3062 0.582958 -3.42372 0
M  V30 593 C 61.2602 -0.202571 -4.2752 0
M  V30 594 C 60.5862 0.760179 -5.29269 0
M  V30 595 C 61.8862 -1.40998 -5.02908 0
M  V30 596 H 63.5802 -1.07247 -2.79532 0
M  V30 597 H 61.1262 -0.517163 -1.34393 0
M  V30 598 H 63.0792 0.987972 -4.09655 0
M  V30 599 H 61.8032 1.43133 -2.93565 0
M  V30 600 H 60.4622 -0.588936 -3.61838 0
M  V30 601 H 60.1102 1.60447 -4.76724 0
M  V30 602 H 59.8102 0.238809 -5.87115 0
M  V30 603 H 61.3342 1.16308 -5.9942 0
M  V30 604 H 62.7482 -1.07905 -5.63054 0
M  V30 605 H 61.1452 -1.86689 -5.70322 0
M  V30 606 H 62.2152 -2.1889 -4.32684 0
M  V30 607 N 63.5583 1.46682 -0.576371 0
M  V30 608 C 64.8063 2.02013 -0.0594163 0
M  V30 609 C 65.1273 1.45101 1.30271 0
M  V30 610 O 64.3973 0.633317 1.8538 0
M  V30 611 H 62.9773 0.746759 -0.0189745 0
M  V30 612 H 65.6393 1.79862 -0.750717 0
M  V30 613 H 64.7353 3.12097 0.014345 0
M  V30 614 N 65.0364 0.313813 1.54444 0
M  V30 615 C 66.2644 -0.293918 2.04802 0
M  V30 616 C 66.6794 -1.46537 1.19047 0
M  V30 617 O 66.0364 -1.81182 0.218939 0
M  V30 618 C 66.0874 -0.737806 3.53891 0
M  V30 619 O 65.8084 0.387038 4.36387 0
M  V30 620 C 67.3094 -1.40936 4.203 0
M  V30 621 H 64.5294 -0.0620057 0.668129 0
M  V30 622 H 67.0734 0.457169 1.99324 0
M  V30 623 H 65.2284 -1.43889 3.59687 0
M  V30 624 H 65.6424 0.0391274 5.24485 0
M  V30 625 H 67.1164 -1.67099 5.26101 0
M  V30 626 H 67.5934 -2.35355 3.70816 0
M  V30 627 H 68.1994 -0.751117 4.18615 0
M  V30 628 N 66.5145 -1.57545 0.0417849 0
M  V30 629 C 67.4445 -2.14009 -0.933929 0
M  V30 630 C 68.4255 -1.05938 -1.33083 0
M  V30 631 O 69.6105 -1.33833 -1.40721 0
M  V30 632 C 66.7405 -2.67747 -2.21199 0
M  V30 633 C 65.6945 -3.80718 -1.95544 0
M  V30 634 C 65.0205 -4.20935 -3.29724 0
M  V30 635 C 66.3205 -5.06258 -1.28452 0
M  V30 636 H 68.0145 -2.95788 -0.463645 0
M  V30 637 H 65.5605 -1.42285 -0.221573 0
M  V30 638 H 67.5135 -3.05886 -2.89848 0
M  V30 639 H 66.2375 -1.83147 -2.70416 0
M  V30 640 H 64.8965 -3.43037 -1.2931 0
M  V30 641 H 64.5445 -3.33298 -3.76724 0
M  V30 642 H 64.2445 -4.9707 -3.13361 0
M  V30 643 H 65.7685 -4.61666 -3.9962 0
M  V30 644 H 67.1825 -5.41903 -1.8712 0
M  V30 645 H 65.5795 -5.87475 -1.22445 0
M  V30 646 H 66.6495 -4.84207 -0.259219 0
M  V30 647 N 67.9926 0.231505 -1.5589 0
M  V30 648 C 69.2416 0.955346 -1.7764 0
M  V30 649 C 69.5546 1.85893 -0.608546 0
M  V30 650 O 70.7606 2.62067 -0.70943 0
M  V30 651 C 69.2166 1.74886 -3.14552 0
M  V30 652 C 68.8246 0.891915 -4.39032 0
M  V30 653 C 70.5686 2.46452 -3.45633 0
M  V30 654 C 68.4756 1.68221 -5.66971 0
M  V30 655 H 67.4056 0.360446 -0.662265 0
M  V30 656 H 70.0566 0.209516 -1.823 0
M  V30 657 H 68.4386 2.53723 -3.04041 0
M  V30 658 H 69.6126 0.144793 -4.60572 0
M  V30 659 H 67.9276 0.288863 -4.15397 0
M  V30 660 H 70.5246 3.06061 -4.38441 0
M  V30 661 H 70.8676 3.18841 -2.67668 0
M  V30 662 H 71.4006 1.74613 -3.57428 0
M  V30 663 H 68.1396 1.00178 -6.478 0
M  V30 664 H 67.6596 2.4042 -5.49507 0
M  V30 665 H 69.3386 2.24544 -6.06786 0
M  V30 666 N 69.4707 1.49531 0.497807 0
M  V30 667 C 70.7177 1.59179 1.25173 0
M  V30 668 C 71.0457 0.279932 1.92475 0
M  V30 669 O 70.3007 -0.732383 1.81479 0
M  V30 670 C 70.5997 2.70252 2.33878 0
M  V30 671 C 70.2657 4.11644 1.84012 0
M  V30 672 C 68.9277 4.50121 1.70132 0
M  V30 673 C 71.2797 5.00121 1.46725 0
M  V30 674 C 68.6077 5.74845 1.17348 0
M  V30 675 C 70.9597 6.25366 0.95392 0
M  V30 676 C 69.6237 6.6267 0.801538 0
M  V30 677 H 68.8937 0.582478 0.45804 0
M  V30 678 H 71.5407 1.83373 0.551948 0
M  V30 679 H 69.8457 2.40041 3.09657 0
M  V30 680 H 71.5427 2.74925 2.9192 0
M  V30 681 H 68.1327 3.81274 1.95775 0
M  V30 682 H 72.3167 4.71048 1.56294 0
M  V30 683 H 67.5727 6.02444 1.04264 0
M  V30 684 H 71.7467 6.93301 0.656225 0
M  V30 685 H 69.3737 7.59197 0.390351 0
M  V30 686 N 70.9488 -0.749086 1.3866 0
M  V30 687 C 72.1888 -1.52112 1.36534 0
M  V30 688 C 72.5528 -1.91951 -0.0432316 0
M  V30 689 O 73.7538 -2.68132 -0.189396 0
M  V30 690 C 72.0248 -2.73704 2.29828 0
M  V30 691 S 73.5838 -3.63519 2.45763 0
M  V30 692 H 70.4018 -0.520482 0.484375 0
M  V30 693 H 73.0038 -0.878963 1.74627 0
M  V30 694 H 71.7078 -2.42552 3.31054 0
M  V30 695 H 71.2388 -3.4286 1.929 0
M  V30 696 H 73.2538 -4.66712 1.68505 0
M  V30 697 N 72.4269 -1.23603 -0.977757 0
M  V30 698 C 73.3899 -1.02069 -2.05218 0
M  V30 699 C 74.3899 0.0184305 -1.60789 0
M  V30 700 O 75.5799 -0.221569 -1.72785 0
M  V30 701 C 72.7119 -0.544926 -3.36517 0
M  V30 702 H 73.9049 -1.9742 -2.25755 0
M  V30 703 H 71.4579 -1.05684 -1.15155 0
M  V30 704 H 72.1929 0.412241 -3.21669 0
M  V30 705 H 71.9779 -1.2948 -3.70105 0
M  V30 706 H 73.4679 -0.414985 -4.15533 0
M  V30 707 N 73.905 1.17692 -1.04816 0
M  V30 708 C 75.151 1.88137 -0.75711 0
M  V30 709 C 75.484 1.80604 0.713841 0
M  V30 710 O 74.759 1.21146 1.52164 0
M  V30 711 C 75.042 3.38318 -1.2334 0
M  V30 712 C 74.895 3.54622 -2.76701 0
M  V30 713 C 76.214 4.32214 -0.829415 0
M  V30 714 H 73.333 0.683163 -0.27651 0
M  V30 715 H 75.975 1.38424 -1.30149 0
M  V30 716 H 74.125 3.80787 -0.770286 0
M  V30 717 H 75.797 3.21194 -3.31107 0
M  V30 718 H 74.04 2.97026 -3.16161 0
M  V30 719 H 74.711 4.60028 -3.05088 0
M  V30 720 H 77.187 3.97565 -1.22805 0
M  V30 721 H 76.063 5.35838 -1.19033 0
M  V30 722 H 76.324 4.41294 0.266891 0
M  V30 723 N 75.3831 0.828654 1.34056 0
M  V30 724 C 76.3131 0.269443 2.3194 0
M  V30 725 C 77.2941 -0.617247 1.58506 0
M  V30 726 O 78.4791 -0.542931 1.86456 0
M  V30 727 C 75.6091 -0.564793 3.42677 0
M  V30 728 C 74.5631 0.225241 4.27407 0
M  V30 729 C 73.8891 -0.7321 5.29664 0
M  V30 730 C 75.1891 1.43663 5.02154 0
M  V30 731 H 76.8831 1.08728 2.7896 0
M  V30 732 H 74.4291 0.524283 1.34117 0
M  V30 733 H 76.3821 -0.966233 4.10173 0
M  V30 734 H 75.1061 -1.41574 2.9432 0
M  V30 735 H 73.7651 0.608117 3.61521 0
M  V30 736 H 73.4131 -1.57916 4.77568 0
M  V30 737 H 73.1131 -0.20767 5.87233 0
M  V30 738 H 74.6371 -1.13128 6.00029 0
M  V30 739 H 76.0511 1.1089 5.62473 0
M  V30 740 H 74.4481 1.89711 5.69324 0
M  V30 741 H 75.5181 2.21181 4.31517 0
M  V30 742 N 76.8612 -1.46375 0.584142 0
M  V30 743 C 78.1092 -2.01978 0.0701287 0
M  V30 744 C 78.4302 -1.4579 -1.295 0
M  V30 745 O 77.7002 -0.64314 -1.85042 0
M  V30 746 H 76.2802 -0.746648 0.0229345 0
M  V30 747 H 78.9422 -1.79461 0.760245 0
M  V30 748 H 78.0382 -3.121 0.0022064 0
M  V30 749 N 78.3393 -0.321999 -1.54275 0
M  V30 750 C 79.2873 0.560206 -2.25753 0
M  V30 751 C 80.2813 1.11984 -1.27106 0
M  V30 752 O 81.4873 1.06806 -1.44888 0
M  V30 753 H 77.8623 0.199304 -0.725108 0
M  V30 754 H 79.8333 -0.0649365 -2.98329 0
M  V30 755 C 78.5823 1.71023 -3.02731 0
M  V30 756 H 77.9053 1.28885 -3.78456 0
M  V30 757 H 79.3453 2.30314 -3.55993 0
M  V30 758 C 77.8043 2.62692 -2.10938 0
M  V30 759 O 78.3343 3.64364 -1.6912 0
M  V30 760 N 76.5403 2.30891 -1.76459 0
M  V30 761 H 76.0873 1.48253 -2.10663 0
M  V30 762 H 76.0453 2.92487 -1.1532 0
M  V30 763 N 79.8174 1.5752 -0.0501392 0
M  V30 764 C 80.7804 2.1037 0.909786 0
M  V30 765 C 81.7804 1.02308 1.24056 0
M  V30 766 O 82.9704 1.28385 1.17741 0
M  V30 767 C 80.1024 2.58708 2.21998 0
M  V30 768 H 81.2954 2.96479 0.451665 0
M  V30 769 H 78.8484 1.55038 0.198248 0
M  V30 770 H 79.5834 1.75989 2.72394 0
M  V30 771 H 79.3684 3.37675 1.99295 0
M  V30 772 H 80.8584 2.99747 2.9076 0
M  V30 773 N 81.2955 -0.223234 1.56011 0
M  V30 774 C 82.5355 -0.954962 1.8072 0
M  V30 775 C 82.8995 -1.81598 0.623384 0
M  V30 776 O 84.1005 -2.58132 0.749745 0
M  V30 777 C 82.3715 -1.77313 3.10314 0
M  V30 778 S 83.9305 -2.56073 3.56332 0
M  V30 779 H 80.7485 -0.320812 0.634508 0
M  V30 780 H 83.3505 -0.220686 1.9425 0
M  V30 781 H 82.0545 -1.13071 3.94516 0
M  V30 782 H 81.5855 -2.54974 2.99586 0
M  V30 783 H 83.6005 -3.79619 3.19536 0
M  V30 784 N 82.7736 -1.49793 -0.48987 0
M  V30 785 C 84.0196 -1.60078 -1.24511 0
M  V30 786 C 84.3526 -0.291608 -1.91998 0
M  V30 787 O 83.6276 0.705647 -1.81248 0
M  V30 788 C 83.9106 -2.76791 -2.30345 0
M  V30 789 C 83.7636 -4.17535 -1.67286 0
M  V30 790 C 85.0826 -2.89111 -3.31817 0
M  V30 791 H 82.2016 -0.582645 -0.451324 0
M  V30 792 H 84.8436 -1.82117 -0.541612 0
M  V30 793 H 82.9936 -2.5813 -2.90346 0
M  V30 794 H 84.6656 -4.4774 -1.11026 0
M  V30 795 H 82.9086 -4.22665 -0.976577 0
M  V30 796 H 83.5796 -4.95094 -2.44103 0
M  V30 797 H 86.0556 -3.06133 -2.81819 0
M  V30 798 H 84.9316 -3.72433 -4.03219 0
M  V30 799 H 85.1926 -1.9893 -3.94815 0
M  V30 800 N 84.2517 0.741722 -1.39055 0
M  V30 801 C 85.4977 1.50336 -1.36113 0
M  V30 802 C 85.8307 1.94148 0.0450796 0
M  V30 803 O 85.1057 1.66301 1.00868 0
M  V30 804 C 85.3887 2.74773 -2.32749 0
M  V30 805 C 85.2417 2.37023 -3.82283 0
M  V30 806 C 86.5607 3.76846 -2.27322 0
M  V30 807 H 83.6797 0.545351 -0.495743 0
M  V30 808 H 86.3217 0.848624 -1.69995 0
M  V30 809 H 84.4717 3.30639 -2.03986 0
M  V30 810 H 86.1437 1.8684 -4.21768 0
M  V30 811 H 84.3867 1.69334 -3.99385 0
M  V30 812 H 85.0577 3.26104 -4.45376 0
M  V30 813 H 87.5337 3.30548 -2.5274 0
M  V30 814 H 86.4097 4.6159 -2.97028 0
M  V30 815 H 86.6707 4.23286 -1.27599 0
M  V30 816 N 85.7298 1.2412 0.971189 0
M  V30 817 C 86.6928 1.03156 2.04674 0
M  V30 818 C 87.6928 -0.00990322 1.60797 0
M  V30 819 O 88.8828 0.230729 1.72665 0
M  V30 820 C 86.0148 0.562765 3.36223 0
M  V30 821 H 87.2078 1.98614 2.24705 0
M  V30 822 H 84.7608 1.06293 1.14593 0
M  V30 823 H 85.4958 -0.395176 3.21883 0
M  V30 824 H 85.2808 1.31441 3.69413 0
M  V30 825 H 86.7708 0.437015 4.15307 0
M  V30 826 N 87.2079 -1.17134 1.05439 0
M  V30 827 C 88.1709 -2.19439 0.661764 0
M  V30 828 C 89.1709 -1.58199 -0.288042 0
M  V30 829 O 90.3609 -1.74053 -0.0715803 0
M  V30 830 C 87.4929 -3.40889 -0.0276209 0
M  V30 831 H 88.6859 -2.55688 1.56728 0
M  V30 832 H 86.2389 -1.31259 0.848567 0
M  V30 833 H 86.9739 -3.10187 -0.94629 0
M  V30 834 H 86.7589 -3.86586 0.655238 0
M  V30 835 H 88.2489 -4.16603 -0.288342 0
M  V30 836 N 88.686 -0.835752 -1.33615 0
M  V30 837 C 89.935 -0.426289 -1.97144 0
M  V30 838 C 90.248 1.01912 -1.66953 0
M  V30 839 O 91.454 1.53311 -2.24072 0
M  V30 840 C 89.91 -0.711321 -3.52801 0
M  V30 841 C 89.518 -2.1712 -3.91871 0
M  V30 842 C 91.262 -0.368654 -4.22896 0
M  V30 843 C 89.169 -2.40044 -5.40493 0
M  V30 844 H 88.099 -0.15567 -0.737755 0
M  V30 845 H 90.75 -1.0239 -1.52278 0
M  V30 846 H 89.132 -0.0433766 -3.95976 0
M  V30 847 H 90.306 -2.87936 -3.59763 0
M  V30 848 H 88.621 -2.47654 -3.34749 0
M  V30 849 H 91.218 -0.517601 -5.32189 0
M  V30 850 H 91.561 0.688078 -4.10574 0
M  V30 851 H 92.094 -0.991702 -3.8524 0
M  V30 852 H 88.833 -3.44271 -5.57815 0
M  V30 853 H 88.353 -1.73785 -5.74072 0
M  V30 854 H 90.032 -2.23042 -6.0734 0
M  V30 855 N 90.1641 1.46063 -0.591896 0
M  V30 856 C 91.1271 2.28854 0.125973 0
M  V30 857 C 92.1271 1.38903 0.810107 0
M  V30 858 O 93.3171 1.61186 0.66066 0
M  V30 859 C 90.4491 3.19526 1.1881 0
M  V30 860 H 91.6421 2.93802 -0.601717 0
M  V30 861 H 89.1951 1.52325 -0.350254 0
M  V30 862 H 89.9301 2.59345 1.94707 0
M  V30 863 H 89.7151 3.85766 0.701936 0
M  V30 864 H 91.2051 3.81817 1.69132 0
M  V30 865 N 91.6422 0.330177 1.54103 0
M  V30 866 C 92.5722 -0.525353 2.27513 0
M  V30 867 C 93.5532 -1.11383 1.2856 0
M  V30 868 O 94.7382 -1.13773 1.57383 0
M  V30 869 C 91.8682 -1.6831 3.03791 0
M  V30 870 C 90.8222 -1.2236 4.10137 0
M  V30 871 C 90.1482 -2.46882 4.74293 0
M  V30 872 C 91.4482 -0.333697 5.21233 0
M  V30 873 H 93.1422 0.087013 2.99274 0
M  V30 874 H 90.6882 0.0432893 1.43935 0
M  V30 875 H 92.6412 -2.28795 3.5388 0
M  V30 876 H 91.3652 -2.32216 2.29659 0
M  V30 877 H 90.0242 -0.64165 3.60941 0
M  V30 878 H 89.6722 -3.09165 3.96769 0
M  V30 879 H 89.3722 -2.16825 5.46133 0
M  V30 880 H 90.8962 -3.08117 5.27159 0
M  V30 881 H 92.3102 -0.845013 5.67038 0
M  V30 882 H 90.7072 -0.125612 5.99969 0
M  V30 883 H 91.7772 0.633724 4.80741 0
M  V30 884 N 93.1203 -1.57491 0.0584922 0
M  V30 885 C 94.0303 -2.15448 -0.928414 0
M  V30 886 C 95.0463 -1.11416 -1.3365 0
M  V30 887 O 96.2223 -1.4362 -1.41193 0
M  V30 888 C 93.2873 -2.69393 -2.18239 0
M  V30 889 C 92.3483 -3.88249 -1.83196 0
M  V30 890 C 91.5813 -4.39613 -3.02616 0
M  V30 891 O 91.8043 -3.90023 -4.16219 0
M  V30 892 O 90.7383 -5.31111 -2.83204 0
M  V30 893 H 94.5643 -3.00112 -0.465483 0
M  V30 894 H 92.1493 -1.48499 -0.163826 0
M  V30 895 H 94.0313 -3.04026 -2.91798 0
M  V30 896 H 92.7063 -1.87796 -2.63656 0
M  V30 897 H 91.6133 -3.58492 -1.06931 0
M  V30 898 H 92.9463 -4.71098 -1.42573 0
M  V30 899 N 94.5984 0.214957 -1.56127 0
M  V30 900 C 96.0144 0.564948 -1.49267 0
M  V30 901 C 96.2144 1.86827 -0.754838 0
M  V30 902 O 95.2704 2.50745 -0.297198 0
M  V30 903 C 96.5834 0.638071 -2.93852 0
M  V30 904 C 98.1314 0.728253 -3.0441 0
M  V30 905 C 98.6064 0.832663 -4.50367 0
M  V30 906 N 100.097 0.896712 -4.54437 0
M  V30 907 C 100.832 0.997324 -5.6466 0
M  V30 908 N 100.328 1.06147 -6.8462 0
M  V30 909 N 102.121 1.03297 -5.52527 0
M  V30 910 H 94.2724 -0.640211 -2.02522 0
M  V30 911 H 96.5354 -0.225507 -0.920788 0
M  V30 912 H 96.2414 -0.250126 -3.50809 0
M  V30 913 H 96.1154 1.49947 -3.46115 0
M  V30 914 H 98.5024 1.60689 -2.47514 0
M  V30 915 H 98.5834 -0.158952 -2.55306 0
M  V30 916 H 98.2274 -0.0415417 -5.07883 0
M  V30 917 H 98.1574 1.73538 -4.97184 0
M  V30 918 H 100.648 0.857188 -3.6805 0
M  V30 919 H 100.961 1.1382 -7.64372 0
M  V30 920 H 99.3064 1.03049 -6.87318 0
M  V30 921 H 102.497 0.979558 -4.57736 0
M  V30 922 H 102.67 1.10793 -6.38458 0
M  V30 923 N 96.0765 1.50051 0.48192 0
M  V30 924 C 97.3015 1.64508 1.26301 0
M  V30 925 C 97.7265 0.323851 1.85291 0
M  V30 926 O 97.0845 -0.710969 1.66778 0
M  V30 927 C 97.1325 2.7305 2.35533 0
M  V30 928 O 96.2365 2.3355 3.39895 0
M  V30 929 H 95.5775 0.549978 0.372048 0
M  V30 930 H 98.1075 1.9636 0.574786 0
M  V30 931 H 98.1175 2.95799 2.8101 0
M  V30 932 H 96.7925 3.68946 1.91967 0
M  V30 933 H 95.3695 2.21205 3.00204 0
M  V30 934 N 97.5546 -0.734337 1.39446 0
M  V30 935 C 98.4846 -1.86155 1.40955 0
M  V30 936 C 99.4656 -1.67898 0.272827 0
M  V30 937 O 100.651 -1.88207 0.478743 0
M  V30 938 C 97.7806 -3.23912 1.25294 0
M  V30 939 C 96.7346 -3.56808 2.36373 0
M  V30 940 C 96.0606 -4.93508 2.058 0
M  V30 941 C 97.3606 -3.59713 3.78687 0
M  V30 942 H 99.0546 -1.8515 2.35287 0
M  V30 943 H 96.6006 -0.889367 1.13253 0
M  V30 944 H 98.5536 -4.02443 1.2497 0
M  V30 945 H 97.2776 -3.25446 0.274308 0
M  V30 946 H 95.9366 -2.80606 2.35914 0
M  V30 947 H 95.5846 -4.91623 1.06374 0
M  V30 948 H 95.2846 -5.16486 2.80208 0
M  V30 949 H 96.8086 -5.74396 2.07128 0
M  V30 950 H 98.2226 -4.2832 3.81071 0
M  V30 951 H 96.6196 -3.94209 4.52459 0
M  V30 952 H 97.6896 -2.59504 4.09617 0
M  V30 953 N 99.0327 -1.24633 -0.964593 0
M  V30 954 C 99.9647 -0.999302 -2.06268 0
M  V30 955 C 100.978 0.0323226 -1.62768 0
M  V30 956 O 102.167 -0.205079 -1.77318 0
M  V30 957 C 99.2667 -0.486816 -3.35385 0
M  V30 958 C 98.4397 -1.5823 -4.07777 0
M  V30 959 C 97.4987 -1.07191 -5.15166 0
M  V30 960 O 96.5247 -1.76426 -5.41168 0
M  V30 961 N 97.7267 0.0920373 -5.80427 0
M  V30 962 H 100.492 -1.94477 -2.28033 0
M  V30 963 H 98.0527 -1.15704 -1.13244 0
M  V30 964 H 100.045 -0.130066 -4.04491 0
M  V30 965 H 98.6147 0.364459 -3.10468 0
M  V30 966 H 97.8347 -2.11109 -3.32906 0
M  V30 967 H 99.1227 -2.31854 -4.52903 0
M  V30 968 H 98.5207 0.670784 -5.61709 0
M  V30 969 H 97.0777 0.389905 -6.50633 0
M  V30 970 N 100.511 1.16574 -1.06058 0
M  V30 971 C 101.459 2.22941 -0.663343 0
M  V30 972 C 102.453 1.66358 0.319593 0
M  V30 973 O 103.659 1.7905 0.184713 0
M  V30 974 H 100.034 0.725907 -0.196376 0
M  V30 975 H 102.005 2.53736 -1.57037 0
M  V30 976 C 100.754 3.47642 -0.0632808 0
M  V30 977 H 100.077 3.91493 -0.810733 0
M  V30 978 H 101.517 4.2363 0.177177 0
M  V30 979 C 99.9758 3.1509 1.19248 0
M  V30 980 O 100.506 3.30673 2.28075 0
M  V30 981 N 98.7118 2.6924 1.09353 0
M  V30 982 H 98.2588 2.5676 0.207912 0
M  V30 983 H 98.2168 2.47833 1.93458 0
M  V30 984 N 101.989 0.842826 1.3317 0
M  V30 985 C 103.235 0.441099 1.97945 0
M  V30 986 C 103.568 -0.998024 1.66593 0
M  V30 987 O 102.843 -1.69839 0.947898 0
M  V30 988 C 103.126 0.666841 3.53872 0
M  V30 989 C 102.979 2.15352 3.94897 0
M  V30 990 C 104.298 0.115544 4.39948 0
M  V30 991 H 101.417 0.161739 0.719034 0
M  V30 992 H 104.059 1.05907 1.57746 0
M  V30 993 H 102.209 0.140828 3.88245 0
M  V30 994 H 103.881 2.7447 3.70761 0
M  V30 995 H 102.124 2.63653 3.44484 0
M  V30 996 H 102.795 2.26221 5.03516 0
M  V30 997 H 105.271 0.565213 4.12243 0
M  V30 998 H 104.147 0.303152 5.48062 0
M  V30 999 H 104.408 -0.980935 4.3108 0
M  V30 1000 N 103.467 -1.45747 0.599634 0
M  V30 1001 C 104.43 -2.28917 -0.113835 0
M  V30 1002 C 105.43 -1.3933 -0.802729 0
M  V30 1003 O 106.62 -1.61534 -0.652103 0
M  V30 1004 C 103.752 -3.20152 -1.17114 0
M  V30 1005 H 104.945 -2.93478 0.617289 0
M  V30 1006 H 102.498 -1.52137 0.358327 0
M  V30 1007 H 103.233 -2.60374 -1.93329 0
M  V30 1008 H 103.018 -3.86133 -0.681468 0
M  V30 1009 H 104.508 -3.82708 -1.67105 0
M  V30 1010 N 104.945 -0.338344 -1.53925 0
M  V30 1011 C 105.893 0.536231 -2.26335 0
M  V30 1012 C 106.887 1.1063 -1.28286 0
M  V30 1013 O 108.093 1.05264 -1.46012 0
M  V30 1014 H 104.468 0.191602 -0.727181 0
M  V30 1015 H 106.439 -0.0965747 -2.98244 0
M  V30 1016 C 105.188 1.67803 -3.04528 0
M  V30 1017 H 104.511 1.24864 -3.79801 0
M  V30 1018 H 105.951 2.26526 -3.58416 0
M  V30 1019 C 104.41 2.60439 -2.13712 0
M  V30 1020 O 104.94 3.6255 -1.72975 0
M  V30 1021 N 103.146 2.29006 -1.78898 0
M  V30 1022 H 102.693 1.46011 -2.12223 0
M  V30 1023 H 102.651 2.91248 -1.18416 0
M  V30 1024 N 106.423 1.57458 -0.0668435 0
M  V30 1025 C 107.653 1.97337 0.611677 0
M  V30 1026 C 108.061 0.943744 1.63982 0
M  V30 1027 O 107.404 -0.0785584 1.83532 0
M  V30 1028 C 107.466 3.33511 1.34205 0
M  V30 1029 C 107.13 4.54598 0.467941 0
M  V30 1030 C 108.127 5.19186 -0.272439 0
M  V30 1031 C 105.812 5.0075 0.39427 0
M  V30 1032 C 107.806 6.28274 -1.07476 0
M  V30 1033 C 105.493 6.09711 -0.411729 0
M  V30 1034 C 106.491 6.73335 -1.14492 0
M  V30 1035 O 106.179 7.80199 -1.93763 0
M  V30 1036 H 105.911 0.654042 0.170893 0
M  V30 1037 H 108.465 2.04961 -0.134289 0
M  V30 1038 H 106.695 3.22487 2.13398 0
M  V30 1039 H 108.384 3.58029 1.91233 0
M  V30 1040 H 109.15 4.84477 -0.225086 0
M  V30 1041 H 105.029 4.51009 0.954569 0
M  V30 1042 H 108.573 6.77866 -1.64755 0
M  V30 1043 H 104.47 6.43854 -0.460664 0
M  V30 1044 H 105.238 7.97053 -1.86142 0
M  V30 1045 N 107.901 -0.206675 1.56239 0
M  V30 1046 C 108.831 -1.25909 1.96645 0
M  V30 1047 C 109.812 -1.48097 0.836734 0
M  V30 1048 O 110.997 -1.6003 1.10019 0
M  V30 1049 C 108.127 -2.6058 2.29599 0
M  V30 1050 C 107.081 -2.53024 3.452 0
M  V30 1051 C 106.407 -3.91861 3.63798 0
M  V30 1052 C 107.707 -2.06524 4.79734 0
M  V30 1053 H 109.401 -0.923369 2.84806 0
M  V30 1054 H 106.947 -0.442735 1.37025 0
M  V30 1055 H 108.9 -3.34375 2.56459 0
M  V30 1056 H 107.624 -2.95869 1.38307 0
M  V30 1057 H 106.283 -1.81684 3.18412 0
M  V30 1058 H 105.931 -4.24483 2.69857 0
M  V30 1059 H 105.631 -3.87683 4.4156 0
M  V30 1060 H 107.155 -4.67296 3.93022 0
M  V30 1061 H 108.569 -2.70072 5.05702 0
M  V30 1062 H 106.966 -2.13374 5.60885 0
M  V30 1063 H 108.036 -1.01802 4.74093 0
M  V30 1064 N 109.379 -1.50304 -0.473955 0
M  V30 1065 C 110.628 -1.60392 -1.22301 0
M  V30 1066 C 110.941 -0.308411 -1.93153 0
M  V30 1067 O 112.147 -0.288156 -2.69966 0
M  V30 1068 C 110.603 -2.83109 -2.2221 0
M  V30 1069 C 110.211 -4.19524 -1.57173 0
M  V30 1070 C 111.955 -3.0254 -2.97775 0
M  V30 1071 C 109.862 -5.33431 -2.55353 0
M  V30 1072 H 108.792 -0.597286 -0.460179 0
M  V30 1073 H 111.443 -1.76731 -0.493803 0
M  V30 1074 H 109.825 -2.60322 -2.9841 0
M  V30 1075 H 110.999 -4.52554 -0.867824 0
M  V30 1076 H 109.314 -4.05674 -0.939002 0
M  V30 1077 H 111.911 -3.84811 -3.71248 0
M  V30 1078 H 112.254 -2.14154 -3.56992 0
M  V30 1079 H 112.787 -3.25494 -2.28688 0
M  V30 1080 H 109.526 -6.23962 -2.00878 0
M  V30 1081 H 109.046 -5.04823 -3.23904 0
M  V30 1082 H 110.725 -5.63887 -3.17239 0
M  V30 1083 N 110.857 0.726932 -1.39834 0
M  V30 1084 C 112.105 1.4837 -1.37225 0
M  V30 1085 C 112.426 1.94979 0.0284857 0
M  V30 1086 O 111.696 1.69555 0.981213 0
M  V30 1087 H 110.276 0.55043 -0.505011 0
M  V30 1088 H 112.938 0.862468 -1.74778 0
M  V30 1089 H 112.034 2.36198 -2.04003 0
M  V30 1090 N 112.336 1.25143 0.95797 0
M  V30 1091 C 113.561 1.12521 1.74223 0
M  V30 1092 C 113.986 -0.317402 1.85403 0
M  V30 1093 O 113.344 -1.2299 1.33204 0
M  V30 1094 C 113.392 1.78062 3.1357 0
M  V30 1095 O 112.496 1.058 3.98598 0
M  V30 1096 H 111.837 0.39304 0.535178 0
M  V30 1097 H 114.367 1.65641 1.201 0
M  V30 1098 H 114.377 1.84213 3.64046 0
M  V30 1099 H 113.052 2.83021 3.04749 0
M  V30 1100 H 111.629 1.07506 3.57067 0
M  V30 1101 N 113.814 -1.1601 1.06675 0
M  V30 1102 C 114.744 -2.22688 0.702307 0
M  V30 1103 C 115.725 -1.67306 -0.307032 0
M  V30 1104 O 116.91 -1.93352 -0.181305 0
M  V30 1105 C 114.04 -3.47178 0.092038 0
M  V30 1106 C 112.994 -4.15477 1.02777 0
M  V30 1107 C 112.32 -5.33963 0.28061 0
M  V30 1108 C 113.62 -4.66019 2.35846 0
M  V30 1109 H 115.314 -2.53429 1.59419 0
M  V30 1110 H 112.86 -1.21813 0.767961 0
M  V30 1111 H 114.813 -4.21037 -0.174814 0
M  V30 1112 H 113.537 -3.15749 -0.834877 0
M  V30 1113 H 112.196 -3.43549 1.27944 0
M  V30 1114 H 111.844 -4.98788 -0.649545 0
M  V30 1115 H 111.544 -5.806 0.904258 0
M  V30 1116 H 113.068 -6.10596 0.021396 0
M  V30 1117 H 114.482 -5.3144 2.15045 0
M  V30 1118 H 112.879 -5.23293 2.93743 0
M  V30 1119 H 113.949 -3.82023 2.98641 0
M  V30 1120 N 115.292 -0.849877 -1.32721 0
M  V30 1121 C 116.255 -0.296122 -2.27279 0
M  V30 1122 C 117.255 0.541458 -1.5141 0
M  V30 1123 O 118.445 0.353658 -1.70572 0
M  V30 1124 C 115.577 0.581579 -3.35902 0
M  V30 1125 H 116.77 -1.13064 -2.77771 0
M  V30 1126 H 114.323 -0.62383 -1.43311 0
M  V30 1127 H 115.058 1.43809 -2.9067 0
M  V30 1128 H 114.843 -0.0178814 -3.92096 0
M  V30 1129 H 116.333 0.961951 -4.0637 0
M  V30 1130 N 116.77 1.45427 -0.607355 0
M  V30 1131 C 118.016 2.0254 -0.102607 0
M  V30 1132 C 118.349 1.47478 1.26348 0
M  V30 1133 O 117.624 0.64939 1.83339 0
M  V30 1134 C 117.907 3.60044 -0.0634347 0
M  V30 1135 C 117.76 4.2544 -1.46017 0
M  V30 1136 C 119.079 4.35646 0.624514 0
M  V30 1137 H 116.198 0.73598 -0.0387607 0
M  V30 1138 H 118.84 1.73284 -0.779282 0
M  V30 1139 H 116.99 3.85101 0.512808 0
M  V30 1140 H 118.662 4.11569 -2.08347 0
M  V30 1141 H 116.905 3.83849 -2.02094 0
M  V30 1142 H 117.576 5.34342 -1.385 0
M  V30 1143 H 120.052 4.15882 0.134723 0
M  V30 1144 H 118.928 5.45376 0.621028 0
M  V30 1145 H 119.189 4.08501 1.69055 0
M  V30 1146 N 118.248 0.346503 1.53744 0
M  V30 1147 C 119.476 -0.25041 2.05379 0
M  V30 1148 C 119.891 -1.43979 1.22129 0
M  V30 1149 O 119.248 -1.80677 0.257321 0
M  V30 1150 C 119.299 -0.662575 3.55376 0
M  V30 1151 O 119.02 0.479515 4.35468 0
M  V30 1152 C 120.521 -1.31989 4.23195 0
M  V30 1153 H 117.741 -0.0478198 0.669294 0
M  V30 1154 H 120.285 0.499346 1.9831 0
M  V30 1155 H 118.44 -1.36227 3.62658 0
M  V30 1156 H 118.854 0.15037 5.24284 0
M  V30 1157 H 120.328 -1.55902 5.29527 0
M  V30 1158 H 120.805 -2.27436 3.75725 0
M  V30 1159 H 121.411 -0.662154 4.20114 0
M  V30 1160 N 119.726 -1.57421 0.075193 0
M  V30 1161 C 121.003 -1.85029 -0.634329 0
M  V30 1162 C 121.383 -0.968305 -1.87582 0
M  V30 1163 O 120.731 -0.0354749 -2.28472 0
M  V30 1164 C 120.941 -3.35286 -0.968742 0
M  V30 1165 C 122.289 -4.02875 -1.34077 0
M  V30 1166 O 123.313 -3.40051 -1.06037 0
M  V30 1167 O 122.172 -5.13691 -1.86506 0
M  V30 1168 H 119.266 -0.7645 -0.315387 0
M  V30 1169 H 121.812 -1.69366 0.106382 0
M  V30 1170 H 120.584 -3.91203 -0.0871376 0
M  V30 1171 H 120.207 -3.56223 -1.7661 0
M  V30 1172 N 121.204 0.198386 -1.56346 0
M  V30 1173 C 122.134 1.24865 -1.9731 0
M  V30 1174 C 123.115 1.47651 -0.844576 0
M  V30 1175 O 124.3 1.59444 -1.10866 0
M  V30 1176 C 121.43 2.59358 -2.30977 0
M  V30 1177 C 120.384 2.5119 -3.46537 0
M  V30 1178 C 119.71 3.89926 -3.65871 0
M  V30 1179 C 121.01 2.03977 -4.80823 0
M  V30 1180 H 122.704 0.908252 -2.85291 0
M  V30 1181 H 120.25 0.435462 -1.37258 0
M  V30 1182 H 122.203 3.33011 -2.58228 0
M  V30 1183 H 120.927 2.95132 -1.39874 0
M  V30 1184 H 119.586 1.79993 -3.19371 0
M  V30 1185 H 119.234 4.23046 -2.72105 0
M  V30 1186 H 118.934 3.85336 -4.4361 0
M  V30 1187 H 120.458 4.65205 -3.95495 0
M  V30 1188 H 121.872 2.67386 -5.07127 0
M  V30 1189 H 120.269 2.10397 -5.62008 0
M  V30 1190 H 121.339 0.992861 -4.74626 0
M  V30 1191 N 122.682 1.50554 0.465978 0
M  V30 1192 C 123.615 1.64436 1.58227 0
M  V30 1193 C 124.593 0.492367 1.54966 0
M  V30 1194 O 125.777 0.712536 1.74514 0
M  V30 1195 C 122.904 1.63165 2.96808 0
M  V30 1196 C 121.95 2.83987 3.18204 0
M  V30 1197 S 122.783 4.45219 2.97557 0
M  V30 1198 C 123.939 4.46649 4.3847 0
M  V30 1199 H 124.172 2.58861 1.46213 0
M  V30 1200 H 121.705 1.3988 0.653678 0
M  V30 1201 H 123.663 1.63116 3.76701 0
M  V30 1202 H 122.324 0.69967 3.06208 0
M  V30 1203 H 121.517 2.79416 4.19455 0
M  V30 1204 H 121.119 2.81629 2.46092 0
M  V30 1205 H 123.411 4.20526 5.31191 0
M  V30 1206 H 124.354 5.48295 4.48082 0
M  V30 1207 H 124.762 3.76296 4.20787 0
M  V30 1208 N 124.16 -0.719506 1.40217 0
M  V30 1209 C 125.406 -1.48152 1.38488 0
M  V30 1210 C 125.739 -1.94195 -0.0141867 0
M  V30 1211 O 125.014 -1.67884 -0.982096 0
M  V30 1212 C 125.297 -2.71035 2.37091 0
M  V30 1213 C 125.15 -2.30912 3.86005 0
M  V30 1214 C 126.469 -3.73182 2.33288 0
M  V30 1215 H 123.588 -0.537395 0.504357 0
M  V30 1216 H 126.23 -0.821472 1.71324 0
M  V30 1217 H 124.38 -3.27352 2.0922 0
M  V30 1218 H 126.052 -1.80107 4.24687 0
M  V30 1219 H 124.295 -1.62958 4.02029 0
M  V30 1220 H 124.966 -3.18978 4.50508 0
M  V30 1221 H 127.442 -3.26485 2.57966 0
M  V30 1222 H 126.318 -4.56806 3.04334 0
M  V30 1223 H 126.579 -4.21202 1.34317 0
M  V30 1224 N 125.638 -1.25649 -0.95132 0
M  V30 1225 C 126.863 -1.13443 -1.73624 0
M  V30 1226 C 127.288 0.307565 -1.85568 0
M  V30 1227 O 126.646 1.22282 -1.33854 0
M  V30 1228 C 126.694 -1.79723 -3.12621 0
M  V30 1229 O 125.798 -1.07912 -3.98031 0
M  V30 1230 H 125.139 -0.395872 -0.533086 0
M  V30 1231 H 127.669 -1.66276 -1.1922 0
M  V30 1232 H 127.679 -1.86141 -3.63064 0
M  V30 1233 H 126.354 -2.84633 -3.03244 0
M  V30 1234 H 124.931 -1.09398 -3.56492 0
M  V30 1235 N 127.117 1.15442 -1.07289 0
M  V30 1236 C 128.363 1.86489 -0.796846 0
M  V30 1237 C 128.696 1.82078 0.675371 0
M  V30 1238 O 127.971 1.24346 1.4956 0
M  V30 1239 C 128.254 3.35626 -1.30489 0
M  V30 1240 C 128.107 3.48673 -2.84161 0
M  V30 1241 C 129.426 4.30357 -0.920907 0
M  V30 1242 H 126.545 0.677144 -0.290939 0
M  V30 1243 H 129.187 1.35633 -1.33056 0
M  V30 1244 H 127.337 3.79068 -0.850883 0
M  V30 1245 H 129.009 3.14099 -3.37846 0
M  V30 1246 H 127.252 2.90253 -3.22391 0
M  V30 1247 H 127.923 4.53453 -3.14777 0
M  V30 1248 H 130.399 3.94871 -1.3121 0
M  V30 1249 H 129.275 5.33193 -1.30372 0
M  V30 1250 H 129.536 4.4176 0.173226 0
M  V30 1251 N 128.595 0.856903 1.32268 0
M  V30 1252 C 129.525 0.31858 2.31316 0
M  V30 1253 C 130.506 -0.583487 1.59779 0
M  V30 1254 O 131.691 -0.503259 1.87566 0
M  V30 1255 C 128.821 -0.491979 3.43798 0
M  V30 1256 C 127.775 0.315849 4.26833 0
M  V30 1257 C 127.101 -0.619586 5.31098 0
M  V30 1258 C 128.401 1.54282 4.98993 0
M  V30 1259 H 130.095 1.14621 2.76591 0
M  V30 1260 H 127.641 0.552613 1.32974 0
M  V30 1261 H 129.594 -0.879012 4.1213 0
M  V30 1262 H 128.318 -1.35299 2.97257 0
M  V30 1263 H 126.977 0.684664 3.6015 0
M  V30 1264 H 126.625 -1.47751 4.8081 0
M  V30 1265 H 126.325 -0.0830621 5.87541 0
M  V30 1266 H 127.849 -1.00375 6.02293 0
M  V30 1267 H 129.263 1.22796 5.59995 0
M  V30 1268 H 127.66 2.01745 5.65172 0
M  V30 1269 H 128.73 2.30285 4.26728 0
M  V30 1270 N 130.073 -1.45103 0.615059 0
M  V30 1271 C 131.319 -2.02483 0.113347 0
M  V30 1272 C 131.652 -1.48146 -1.25564 0
M  V30 1273 O 130.927 -0.659104 -1.82992 0
M  V30 1274 C 131.21 -3.60005 0.0825278 0
M  V30 1275 C 131.063 -4.2466 1.48271 0
M  V30 1276 C 132.382 -4.35972 -0.601401 0
M  V30 1277 H 129.501 -0.735764 0.0426632 0
M  V30 1278 H 132.143 -1.72868 0.788461 0
M  V30 1279 H 130.293 -3.85367 -0.492378 0
M  V30 1280 H 131.965 -4.10458 2.10527 0
M  V30 1281 H 130.208 -3.82772 2.04127 0
M  V30 1282 H 130.879 -5.336 1.41332 0
M  V30 1283 H 133.355 -4.15947 -0.112666 0
M  V30 1284 H 132.231 -5.45697 -0.592097 0
M  V30 1285 H 132.492 -4.09391 -1.66887 0
M  V30 1286 N 131.551 -0.354651 -1.53558 0
M  V30 1287 C 132.481 0.489091 -2.2832 0
M  V30 1288 C 133.462 1.09324 -1.30316 0
M  V30 1289 O 134.647 1.11255 -1.59173 0
M  V30 1290 C 131.777 1.63456 -3.0643 0
M  V30 1291 C 130.731 1.1582 -4.12031 0
M  V30 1292 C 130.057 2.39305 -4.7816 0
M  V30 1293 C 131.357 0.250731 -5.21698 0
M  V30 1294 H 133.051 -0.134614 -2.99097 0
M  V30 1295 H 130.597 -0.0661826 -1.43848 0
M  V30 1296 H 132.55 2.23136 -3.57475 0
M  V30 1297 H 131.274 2.28533 -2.33325 0
M  V30 1298 H 129.933 0.584146 -3.61916 0
M  V30 1299 H 129.581 3.02814 -4.01637 0
M  V30 1300 H 129.281 2.08109 -5.49513 0
M  V30 1301 H 130.805 2.99691 -5.31994 0
M  V30 1302 H 132.219 0.754695 -5.68311 0
M  V30 1303 H 130.616 0.0301468 -6.00092 0
M  V30 1304 H 131.686 -0.710125 -4.79672 0
M  V30 1305 N 133.029 1.57378 -0.0835403 0
M  V30 1306 C 134.44 1.81261 0.447358 0
M  V30 1307 C 134.791 0.998331 1.68902 0
M  V30 1308 O 133.916 0.224282 2.15235 0
M  V30 1309 C 134.511 3.28767 0.818386 0
M  V30 1310 C 133.07 3.53455 1.29409 0
M  V30 1311 C 132.217 2.75831 0.285024 0
M  V30 1312 H 135.168 1.5566 -0.309115 0
M  V30 1313 H 135.189 3.41459 1.67887 0
M  V30 1314 H 134.701 3.88006 -0.0855019 0
M  V30 1315 H 132.802 2.99534 2.21608 0
M  V30 1316 H 132.915 4.62128 1.2639 0
M  V30 1317 H 131.279 2.42947 0.764767 0
M  V30 1318 H 132.062 3.37813 -0.611341 0
M  V30 1319 N 134.507 -0.190092 1.56449 0
M  V30 1320 C 135.44 -1.26375 1.90012 0
M  V30 1321 C 136.418 -1.43705 0.760765 0
M  V30 1322 O 137.602 -1.59014 1.01226 0
M  V30 1323 C 134.729 -2.62962 2.13468 0
M  V30 1324 C 133.775 -2.62474 3.36169 0
M  V30 1325 S 134.608 -2.13412 4.91137 0
M  V30 1326 C 135.764 -3.51812 5.17667 0
M  V30 1327 H 135.997 -0.977181 2.80782 0
M  V30 1328 H 133.53 -0.393814 1.49293 0
M  V30 1329 H 135.488 -3.41583 2.27664 0
M  V30 1330 H 134.149 -2.88828 1.23439 0
M  V30 1331 H 133.342 -3.62918 3.49723 0
M  V30 1332 H 132.944 -1.91937 3.20992 0
M  V30 1333 H 135.236 -4.47706 5.08494 0
M  V30 1334 H 136.179 -3.43148 6.19399 0
M  V30 1335 H 136.587 -3.46956 4.45288 0
M  V30 1336 N 135.985 -1.50799 -0.457987 0
M  V30 1337 C 136.948 -1.7005 -1.53674 0
M  V30 1338 C 137.948 -0.570881 -1.50325 0
M  V30 1339 O 139.138 -0.838126 -1.52712 0
M  V30 1340 C 136.27 -1.73788 -2.93276 0
M  V30 1341 H 137.463 -2.66306 -1.37917 0
M  V30 1342 H 135.016 -1.40477 -0.685271 0
M  V30 1343 H 135.751 -0.792717 -3.14462 0
M  V30 1344 H 135.536 -2.55864 -2.97113 0
M  V30 1345 H 137.026 -1.90591 -3.71571 0
M  V30 1346 N 137.463 0.71206 -1.40597 0
M  V30 1347 C 138.426 1.80785 -1.40888 0
M  V30 1348 C 139.426 1.57937 -0.302103 0
M  V30 1349 O 140.616 1.64913 -0.561182 0
M  V30 1350 C 137.748 3.18927 -1.20409 0
M  V30 1351 H 138.941 1.81924 -2.38419 0
M  V30 1352 H 136.494 0.91805 -1.26497 0
M  V30 1353 H 137.229 3.23436 -0.236522 0
M  V30 1354 H 137.014 3.36911 -2.00582 0
M  V30 1355 H 138.504 3.98949 -1.23408 0
M  V30 1356 N 138.941 1.26152 0.944643 0
M  V30 1357 C 139.871 1.09902 2.06019 0
M  V30 1358 C 140.852 0.00519538 1.70099 0
M  V30 1359 O 142.037 0.176583 1.93396 0
M  V30 1360 C 139.167 0.727562 3.39594 0
M  V30 1361 C 138.121 1.77274 3.89561 0
M  V30 1362 C 137.447 1.25569 5.19747 0
M  V30 1363 C 138.747 3.17357 4.14827 0
M  V30 1364 H 140.441 2.03217 2.19871 0
M  V30 1365 H 137.987 0.978452 1.05652 0
M  V30 1366 H 139.94 0.600777 4.17095 0
M  V30 1367 H 138.664 -0.241287 3.25707 0
M  V30 1368 H 137.323 1.88814 3.14237 0
M  V30 1369 H 136.971 0.276783 5.02238 0
M  V30 1370 H 136.671 1.95433 5.54148 0
M  V30 1371 H 138.195 1.1415 5.99835 0
M  V30 1372 H 139.609 3.08914 4.82954 0
M  V30 1373 H 138.006 3.84781 4.60504 0
M  V30 1374 H 139.076 3.63673 3.20734 0
M  V30 1375 N 140.419 -1.14872 1.07899 0
M  V30 1376 C 141.649 -1.89386 0.825631 0
M  V30 1377 C 142.057 -1.78565 -0.625406 0
M  V30 1378 O 141.4 -1.13918 -1.44113 0
M  V30 1379 C 141.462 -3.40206 1.16191 0
M  V30 1380 C 141.126 -3.74812 2.61467 0
M  V30 1381 C 142.123 -3.75367 3.59716 0
M  V30 1382 C 139.808 -4.0495 2.97189 0
M  V30 1383 C 141.802 -4.05574 4.9172 0
M  V30 1384 C 139.489 -4.34821 4.29388 0
M  V30 1385 C 140.487 -4.35116 5.26463 0
M  V30 1386 O 140.175 -4.64267 6.56286 0
M  V30 1387 H 139.907 -0.606894 0.297751 0
M  V30 1388 H 142.461 -1.46438 1.44031 0
M  V30 1389 H 140.691 -3.8358 0.490214 0
M  V30 1390 H 142.38 -3.96018 0.890193 0
M  V30 1391 H 143.146 -3.52176 3.33462 0
M  V30 1392 H 139.025 -4.03876 2.22273 0
M  V30 1393 H 142.569 -4.05719 5.67484 0
M  V30 1394 H 138.466 -4.5748 4.55392 0
M  V30 1395 H 139.234 -4.82007 6.61522 0
M  V30 1396 N 141.898 -0.863906 -1.31812 0
M  V30 1397 C 142.83 -0.272485 -2.27575 0
M  V30 1398 C 143.843 0.56104 -1.52827 0
M  V30 1399 O 145.032 0.384021 -1.7432 0
M  V30 1400 C 142.132 0.63283 -3.32939 0
M  V30 1401 C 141.305 -0.166902 -4.37081 0
M  V30 1402 C 140.364 0.665608 -5.21973 0
M  V30 1403 O 139.39 0.0958091 -5.69119 0
M  V30 1404 N 140.592 1.9787 -5.45736 0
M  V30 1405 H 143.357 -1.0954 -2.78964 0
M  V30 1406 H 140.918 -0.724791 -1.4477 0
M  V30 1407 H 142.91 1.19532 -3.86645 0
M  V30 1408 H 141.48 1.35642 -2.81638 0
M  V30 1409 H 140.7 -0.910838 -3.83533 0
M  V30 1410 H 141.988 -0.715874 -5.03739 0
M  V30 1411 H 141.386 2.46484 -5.09178 0
M  V30 1412 H 139.943 2.48911 -6.024 0
M  V30 1413 N 143.376 1.44774 -0.622745 0
M  V30 1414 C 144.622 2.0242 -0.124083 0
M  V30 1415 C 144.955 1.4881 1.24777 0
M  V30 1416 O 144.23 0.668799 1.8264 0
M  V30 1417 C 144.513 3.59957 -0.101619 0
M  V30 1418 C 144.366 4.23867 -1.50521 0
M  V30 1419 C 145.685 4.36284 0.578272 0
M  V30 1420 H 142.804 0.735528 -0.0465645 0
M  V30 1421 H 145.446 1.72447 -0.797617 0
M  V30 1422 H 143.596 3.85623 0.471934 0
M  V30 1423 H 145.268 4.09336 -2.12701 0
M  V30 1424 H 143.511 3.81684 -2.06154 0
M  V30 1425 H 144.182 5.32843 -1.4416 0
M  V30 1426 H 146.658 4.16001 0.0906057 0
M  V30 1427 H 145.534 5.46004 0.563149 0
M  V30 1428 H 145.795 4.10271 1.64713 0
M  V30 1429 N 144.854 0.36279 1.53368 0
M  V30 1430 C 145.784 -0.476976 2.28576 0
M  V30 1431 C 146.765 -1.08631 1.30894 0
M  V30 1432 O 147.95 -1.10409 1.59761 0
M  V30 1433 C 145.08 -1.61828 3.07293 0
M  V30 1434 C 144.034 -1.13633 4.1264 0
M  V30 1435 C 143.36 -2.36766 4.79423 0
M  V30 1436 C 144.66 -0.223061 5.21823 0
M  V30 1437 H 146.354 0.150474 2.99022 0
M  V30 1438 H 143.9 0.0738103 1.43811 0
M  V30 1439 H 145.853 -2.21237 3.58653 0
M  V30 1440 H 144.577 -2.27292 2.34533 0
M  V30 1441 H 143.236 -0.564945 3.62221 0
M  V30 1442 H 142.884 -3.0068 4.03238 0
M  V30 1443 H 142.584 -2.05192 5.50609 0
M  V30 1444 H 144.108 -2.96865 5.33576 0
M  V30 1445 H 145.522 -0.724545 5.68703 0
M  V30 1446 H 143.919 0.001678 6.001 0
M  V30 1447 H 144.989 0.735553 4.79289 0
M  V30 1448 N 146.332 -1.57332 0.0918853 0
M  V30 1449 C 147.28 -2.15075 -0.885747 0
M  V30 1450 C 148.274 -1.09277 -1.29441 0
M  V30 1451 O 149.48 -1.27627 -1.26931 0
M  V30 1452 H 145.855 -0.687966 -0.303656 0
M  V30 1453 H 147.826 -2.96047 -0.373995 0
M  V30 1454 C 146.575 -2.74325 -2.13638 0
M  V30 1455 H 145.898 -3.55418 -1.8308 0
M  V30 1456 H 147.338 -3.183 -2.80109 0
M  V30 1457 C 145.797 -1.70062 -2.90827 0
M  V30 1458 O 146.327 -1.13763 -3.85254 0
M  V30 1459 N 144.533 -1.40628 -2.54307 0
M  V30 1460 H 144.08 -1.866 -1.7759 0
M  V30 1461 H 144.038 -0.711043 -3.06254 0
M  V30 1462 N 147.81 0.181792 -1.56548 0
M  V30 1463 C 148.757 1.22521 -1.95595 0
M  V30 1464 C 149.727 1.4454 -0.818373 0
M  V30 1465 O 150.912 1.57454 -1.07763 0
M  V30 1466 C 148.052 2.56193 -2.31212 0
M  V30 1467 C 147.165 2.41641 -3.58097 0
M  V30 1468 C 146.3 3.68108 -3.82975 0
M  V30 1469 C 145.339 3.48445 -5.03242 0
M  V30 1470 N 144.476 4.66956 -5.24306 0
M  V30 1471 H 149.316 0.885226 -2.84548 0
M  V30 1472 H 146.853 0.425718 -1.40805 0
M  V30 1473 H 148.811 3.34088 -2.49882 0
M  V30 1474 H 147.441 2.88208 -1.45382 0
M  V30 1475 H 146.493 1.54976 -3.474 0
M  V30 1476 H 147.805 2.23052 -4.46149 0
M  V30 1477 H 146.959 4.54441 -4.01956 0
M  V30 1478 H 145.698 3.89666 -2.93278 0
M  V30 1479 H 144.703 2.60499 -4.8417 0
M  V30 1480 H 145.928 3.2832 -5.9446 0
M  V30 1481 H 143.874 4.88752 -4.37559 0
M  V30 1482 H 143.791 4.51242 -6.06561 0
M  V30 1483 H 145.059 5.54602 -5.47756 0
M  V30 1484 N 149.288 1.51039 0.449983 0
M  V30 1485 C 150.534 1.64287 1.19923 0
M  V30 1486 C 150.889 0.348701 1.89214 0
M  V30 1487 O 150.182 -0.654751 1.80065 0
M  V30 1488 C 150.376 2.77556 2.25161 0
M  V30 1489 C 150.205 4.17862 1.66198 0
M  V30 1490 C 148.975 4.83976 1.45243 0
M  V30 1491 C 151.173 5.01388 1.14519 0
M  V30 1492 N 149.155 6.08433 0.817437 0
M  V30 1493 C 150.526 6.16743 0.634705 0
M  V30 1494 C 152.581 4.87008 1.03574 0
M  V30 1495 C 151.284 7.19295 0.0255452 0
M  V30 1496 C 153.31 5.89757 0.440489 0
M  V30 1497 C 152.672 7.04375 -0.0595112 0
M  V30 1498 H 148.771 0.655161 0.426952 0
M  V30 1499 H 151.355 1.88228 0.49781 0
M  V30 1500 H 149.526 2.553 2.92706 0
M  V30 1501 H 151.258 2.80049 2.92155 0
M  V30 1502 H 148.013 4.41627 1.71063 0
M  V30 1503 H 148.437 6.75017 0.517747 0
M  V30 1504 H 153.079 3.9866 1.4082 0
M  V30 1505 H 150.797 8.07302 -0.359071 0
M  V30 1506 H 154.383 5.80698 0.35788 0
M  V30 1507 H 153.263 7.82521 -0.512882 0
M  V30 1508 N 150.766 -0.704594 1.40972 0
M  V30 1509 C 151.994 -1.49354 1.43182 0
M  V30 1510 C 152.409 -1.88768 0.0345508 0
M  V30 1511 O 151.766 -1.56184 -0.944081 0
M  V30 1512 C 151.817 -2.76187 2.33244 0
M  V30 1513 O 151.538 -2.38436 3.67532 0
M  V30 1514 C 153.039 -3.7 2.44162 0
M  V30 1515 H 150.259 -0.460559 0.487982 0
M  V30 1516 H 152.803 -0.868261 1.85153 0
M  V30 1517 H 150.958 -3.34974 1.94606 0
M  V30 1518 H 151.372 -3.20126 4.15475 0
M  V30 1519 H 152.846 -4.55803 3.11364 0
M  V30 1520 H 153.323 -4.13867 1.47006 0
M  V30 1521 H 153.929 -3.17121 2.83398 0
M  V30 1522 N 152.244 -1.26651 -0.937939 0
M  V30 1523 C 153.174 -1.10993 -2.05433 0
M  V30 1524 C 154.155 -0.0142161 -1.70094 0
M  V30 1525 O 155.34 -0.186837 -1.93299 0
M  V30 1526 C 152.47 -0.745561 -3.39203 0
M  V30 1527 C 151.424 -1.79337 -3.88616 0
M  V30 1528 C 150.75 -1.28324 -5.19073 0
M  V30 1529 C 152.05 -3.19553 -4.13138 0
M  V30 1530 H 153.744 -2.0438 -2.1879 0
M  V30 1531 H 151.29 -0.984041 -1.05131 0
M  V30 1532 H 153.243 -0.622888 -4.16771 0
M  V30 1533 H 151.967 0.22401 -3.25831 0
M  V30 1534 H 150.626 -1.90477 -3.13231 0
M  V30 1535 H 150.274 -0.303414 -5.02084 0
M  V30 1536 H 149.974 -1.98369 -5.53103 0
M  V30 1537 H 151.498 -1.1733 -5.99221 0
M  V30 1538 H 152.912 -3.11471 -4.81309 0
M  V30 1539 H 151.309 -3.87218 -4.58457 0
M  V30 1540 H 152.379 -3.65368 -3.18801 0
M  V30 1541 N 153.722 1.14298 -1.08507 0
M  V30 1542 C 154.97 1.84993 -0.813763 0
M  V30 1543 C 155.291 1.83405 0.662393 0
M  V30 1544 O 154.561 1.28319 1.48024 0
M  V30 1545 H 153.141 0.684966 -0.298045 0
M  V30 1546 H 155.803 1.385 -1.37126 0
M  V30 1547 H 154.899 2.89788 -1.15884 0
M  V30 1548 N 155.201 0.870884 1.31352 0
M  V30 1549 C 156.133 0.28455 2.27427 0
M  V30 1550 C 157.146 -0.552927 1.53123 0
M  V30 1551 O 158.335 -0.374771 1.74521 0
M  V30 1552 C 155.435 -0.615164 3.3327 0
M  V30 1553 C 154.608 0.190079 4.36987 0
M  V30 1554 C 153.667 -0.637917 5.22319 0
M  V30 1555 O 152.693 -0.065626 5.69162 0
M  V30 1556 N 153.895 -1.94973 5.46778 0
M  V30 1557 H 156.66 1.11017 2.7838 0
M  V30 1558 H 154.221 0.732458 1.44384 0
M  V30 1559 H 156.213 -1.1748 3.87273 0
M  V30 1560 H 154.783 -1.34146 2.82354 0
M  V30 1561 H 154.003 0.931165 3.83044 0
M  V30 1562 H 155.291 0.742579 5.03352 0
M  V30 1563 H 154.689 -2.4378 5.10478 0
M  V30 1564 H 153.246 -2.45713 6.03712 0
M  V30 1565 N 156.679 -1.44442 0.630414 0
M  V30 1566 C 157.925 -2.02351 0.134816 0
M  V30 1567 C 158.258 -1.4947 -1.23986 0
M  V30 1568 O 157.533 -0.678475 -1.82283 0
M  V30 1569 C 157.816 -3.59898 0.120707 0
M  V30 1570 C 157.669 -4.23063 1.52767 0
M  V30 1571 C 158.988 -4.36585 -0.555127 0
M  V30 1572 H 156.107 -0.73527 0.0504646 0
M  V30 1573 H 158.749 -1.72022 0.806751 0
M  V30 1574 H 156.899 -3.85868 -0.451477 0
M  V30 1575 H 158.571 -4.08202 2.14869 0
M  V30 1576 H 156.814 -3.80586 2.08175 0
M  V30 1577 H 157.485 -5.32071 1.46984 0
M  V30 1578 H 159.961 -4.16044 -0.0685429 0
M  V30 1579 H 158.837 -5.46294 -0.534185 0
M  V30 1580 H 159.098 -4.11138 -1.62535 0
M  V30 1581 N 158.157 -0.370918 -1.53173 0
M  V30 1582 C 159.385 0.217704 -2.05751 0
M  V30 1583 C 159.8 1.42018 -1.24404 0
M  V30 1584 O 159.157 1.80245 -0.286033 0
M  V30 1585 C 159.208 0.605954 -3.56385 0
M  V30 1586 O 158.929 -0.548734 -4.3465 0
M  V30 1587 C 160.43 1.2524 -4.25241 0
M  V30 1588 H 157.65 0.0371659 -0.66997 0
M  V30 1589 H 160.194 -0.530832 -1.9749 0
M  V30 1590 H 158.349 1.3044 -3.6478 0
M  V30 1591 H 158.763 -0.23376 -5.23979 0
M  V30 1592 H 160.237 1.47458 -5.3194 0
M  V30 1593 H 160.714 2.2143 -3.79296 0
M  V30 1594 H 161.32 0.595233 -4.21114 0
M  V30 1595 N 159.635 1.57281 -0.100228 0
M  V30 1596 C 160.875 1.96419 0.56558 0
M  V30 1597 C 161.239 0.981265 1.65031 0
M  V30 1598 O 162.44 1.26133 2.37369 0
M  V30 1599 C 160.711 3.39996 1.10171 0
M  V30 1600 S 162.27 4.01134 1.77867 0
M  V30 1601 H 159.088 0.68667 0.184406 0
M  V30 1602 H 161.69 1.94662 -0.180851 0
M  V30 1603 H 160.394 4.09296 0.300803 0
M  V30 1604 H 159.925 3.45361 1.88385 0
M  V30 1605 H 161.94 3.90358 3.06326 0
M  V30 1606 N 161.113 -0.173488 1.56642 0
M  V30 1607 C 162.39 -0.917617 1.7274 0
M  V30 1608 C 162.77 -2.00484 0.661027 0
M  V30 1609 O 162.118 -2.26184 -0.32453 0
M  V30 1610 C 162.328 -1.48433 3.15862 0
M  V30 1611 C 163.676 -1.95809 3.76754 0
M  V30 1612 O 164.7 -1.58231 3.19126 0
M  V30 1613 O 163.559 -2.65024 4.77938 0
M  V30 1614 H 160.653 -0.431772 0.705338 0
M  V30 1615 H 163.199 -0.161487 1.6893 0
M  V30 1616 H 161.971 -0.701715 3.84957 0
M  V30 1617 H 161.594 -2.30471 3.23989 0
M  V30 1618 N 162.591 -1.51276 -0.441967 0
M  V30 1619 C 163.521 -1.752 -1.54361 0
M  V30 1620 C 164.502 -0.601682 -1.59103 0
M  V30 1621 O 165.687 -0.843913 -1.74905 0
M  V30 1622 C 162.817 -1.87282 -2.92477 0
M  V30 1623 C 161.771 -3.02687 -3.02596 0
M  V30 1624 C 161.097 -2.99947 -4.42647 0
M  V30 1625 C 162.397 -4.4273 -2.77106 0
M  V30 1626 H 164.091 -2.67442 -1.34592 0
M  V30 1627 H 161.637 -1.28694 -0.646048 0
M  V30 1628 H 163.59 -2.02602 -3.695 0
M  V30 1629 H 162.314 -0.916844 -3.13467 0
M  V30 1630 H 160.973 -2.87065 -2.28012 0
M  V30 1631 H 160.621 -2.02136 -4.60597 0
M  V30 1632 H 160.321 -3.77439 -4.50348 0
M  V30 1633 H 161.845 -3.17354 -5.2165 0
M  V30 1634 H 163.259 -4.58727 -3.43864 0
M  V30 1635 H 161.656 -5.21893 -2.96222 0
M  V30 1636 H 162.726 -4.53087 -1.72744 0
M  V30 1637 N 164.069 0.697108 -1.41344 0
M  V30 1638 C 165.316 1.45714 -1.40619 0
M  V30 1639 C 165.644 1.94494 -0.0147907 0
M  V30 1640 O 164.899 1.69794 0.973066 0
M  V30 1641 C 165.198 2.68553 -2.35826 0
M  V30 1642 C 164.864 2.38438 -3.82698 0
M  V30 1643 C 163.526 2.29936 -4.22709 0
M  V30 1644 C 165.878 2.13567 -4.75435 0
M  V30 1645 C 163.206 1.94656 -5.53467 0
M  V30 1646 C 165.558 1.79797 -6.06511 0
M  V30 1647 C 164.222 1.69789 -6.45545 0
M  V30 1648 H 163.492 0.533206 -0.51456 0
M  V30 1649 H 166.139 0.796901 -1.74131 0
M  V30 1650 H 164.444 3.39503 -1.95563 0
M  V30 1651 H 166.141 3.2669 -2.32539 0
M  V30 1652 H 162.731 2.4595 -3.51008 0
M  V30 1653 H 166.915 2.19082 -4.45328 0
M  V30 1654 H 162.171 1.8546 -5.82593 0
M  V30 1655 H 166.345 1.59572 -6.77872 0
M  V30 1656 H 163.972 1.4222 -7.46778 0
M  V30 1657 N 165.547 1.27147 0.931209 0
M  V30 1658 C 166.796 1.12664 1.67302 0
M  V30 1659 C 167.109 -0.327718 1.92835 0
M  V30 1660 O 168.315 -0.593392 2.64936 0
M  V30 1661 C 166.771 1.9683 3.01307 0
M  V30 1662 C 166.379 3.46901 2.83485 0
M  V30 1663 C 168.123 1.90985 3.79111 0
M  V30 1664 C 166.03 4.23279 4.13024 0
M  V30 1665 H 164.96 0.41803 0.627509 0
M  V30 1666 H 167.611 1.51539 1.03481 0
M  V30 1667 H 165.993 1.50797 3.66164 0
M  V30 1668 H 167.167 4.00773 2.27415 0
M  V30 1669 H 165.482 3.54088 2.19113 0
M  V30 1670 H 168.079 2.45328 4.75098 0
M  V30 1671 H 168.422 0.882718 4.06834 0
M  V30 1672 H 168.955 2.34895 3.21044 0
M  V30 1673 H 165.694 5.26503 3.90481 0
M  V30 1674 H 165.214 3.74186 4.6877 0
M  V30 1675 H 166.893 4.32265 4.81411 0
M  V30 1676 N 167.025 -1.13721 1.09112 0
M  V30 1677 C 167.988 -2.17222 0.731241 0
M  V30 1678 C 168.988 -1.59035 -0.237566 0
M  V30 1679 O 170.178 -1.74192 -0.0161704 0
M  V30 1680 C 167.31 -3.40804 0.0808443 0
M  V30 1681 H 168.503 -2.50573 1.64783 0
M  V30 1682 H 166.056 -1.28493 0.889897 0
M  V30 1683 H 166.791 -3.1304 -0.847127 0
M  V30 1684 H 166.576 -3.84306 0.777896 0
M  V30 1685 H 168.066 -4.1731 -0.155657 0
M  V30 1686 N 168.503 -0.877838 -1.30888 0
M  V30 1687 C 169.433 -0.35534 -2.3078 0
M  V30 1688 C 170.414 0.557994 -1.60687 0
M  V30 1689 O 171.599 0.473355 -1.88343 0
M  V30 1690 C 168.729 0.437221 -3.44537 0
M  V30 1691 C 167.683 -0.383715 -4.26276 0
M  V30 1692 C 167.009 0.535014 -5.32017 0
M  V30 1693 C 168.309 -1.62201 -4.96476 0
M  V30 1694 H 170.003 -1.19007 -2.74732 0
M  V30 1695 H 167.549 -0.573698 -1.32078 0
M  V30 1696 H 169.502 0.813334 -4.13477 0
M  V30 1697 H 168.226 1.30553 -2.99372 0
M  V30 1698 H 166.885 -0.741874 -3.59015 0
M  V30 1699 H 166.533 1.40083 -4.831 0
M  V30 1700 H 166.233 -0.0104211 -5.87599 0
M  V30 1701 H 167.757 0.907799 -6.03814 0
M  V30 1702 H 169.171 -1.31689 -5.5797 0
M  V30 1703 H 167.568 -2.10711 -5.61891 0
M  V30 1704 H 168.638 -2.37044 -4.23011 0
M  V30 1705 N 169.982 1.44106 -0.638065 0
M  V30 1706 C 171.259 1.95453 -0.0759321 0
M  V30 1707 C 171.639 1.57984 1.40015 0
M  V30 1708 O 170.987 0.857361 2.11806 0
M  V30 1709 C 171.197 3.47655 -0.306132 0
M  V30 1710 C 172.545 4.24114 -0.203008 0
M  V30 1711 O 173.569 3.55405 -0.237871 0
M  V30 1712 O 172.428 5.46381 -0.113827 0
M  V30 1713 H 169.522 0.826797 0.0183332 0
M  V30 1714 H 172.068 1.54122 -0.710251 0
M  V30 1715 H 170.84 3.68 -1.3301 0
M  V30 1716 H 170.463 3.95949 0.361991 0
M  V30 1717 N 171.46 0.379036 1.52974 0
M  V30 1718 C 172.706 -0.206727 2.01744 0
M  V30 1719 C 173.039 -1.47314 1.26539 0
M  V30 1720 O 172.314 -1.91084 0.362903 0
M  V30 1721 C 172.597 -0.485066 3.56818 0
M  V30 1722 C 172.45 0.795919 4.42702 0
M  V30 1723 C 173.769 -1.28003 4.21074 0
M  V30 1724 H 170.888 -0.0736607 0.73331 0
M  V30 1725 H 173.53 0.506581 1.83122 0
M  V30 1726 H 171.68 -1.09272 3.72816 0
M  V30 1727 H 173.352 1.43307 4.38476 0
M  V30 1728 H 171.595 1.41344 4.10127 0
M  V30 1729 H 172.266 0.555947 5.49193 0
M  V30 1730 H 174.742 -0.765867 4.08991 0
M  V30 1731 H 173.618 -1.44352 5.29579 0
M  V30 1732 H 173.879 -2.29236 3.78026 0
M  V30 1733 N 172.938 -1.57226 0.108567 0
M  V30 1734 C 173.868 -2.17778 -0.84232 0
M  V30 1735 C 174.849 -1.11487 -1.2847 0
M  V30 1736 O 176.034 -1.39681 -1.34918 0
M  V30 1737 C 173.164 -2.76888 -2.09644 0
M  V30 1738 C 172.118 -3.88669 -1.79221 0
M  V30 1739 C 171.444 -4.34541 -3.11574 0
M  V30 1740 C 172.744 -5.11251 -1.06864 0
M  V30 1741 H 174.438 -2.97489 -0.337774 0
M  V30 1742 H 171.984 -1.43097 -0.161025 0
M  V30 1743 H 173.937 -3.17904 -2.76614 0
M  V30 1744 H 172.661 -1.94451 -2.62405 0
M  V30 1745 H 171.32 -3.48213 -1.14644 0
M  V30 1746 H 170.968 -3.48977 -3.62249 0
M  V30 1747 H 170.668 -5.09914 -2.91996 0
M  V30 1748 H 172.192 -4.782 -3.7968 0
M  V30 1749 H 173.606 -5.49352 -1.63968 0
M  V30 1750 H 172.003 -5.9214 -0.974178 0
M  V30 1751 H 173.073 -4.8487 -0.0536168 0
M  V30 1752 N 174.416 0.165178 -1.56732 0
M  V30 1753 C 175.656 0.887231 -1.8414 0
M  V30 1754 C 176.02 1.79159 -0.690353 0
M  V30 1755 O 177.221 2.55172 -0.845032 0
M  V30 1756 C 175.492 1.65674 -3.16681 0
M  V30 1757 S 177.051 2.42671 -3.6559 0
M  V30 1758 H 173.869 0.297042 -0.645978 0
M  V30 1759 H 176.471 0.148439 -1.94936 0
M  V30 1760 H 175.175 0.983507 -3.98441 0
M  V30 1761 H 174.706 2.43679 -3.08843 0
M  V30 1762 H 176.721 3.67499 -3.33406 0
M  V30 1763 N 175.894 1.51508 0.433938 0
M  V30 1764 C 177.134 1.66006 1.19253 0
M  V30 1765 C 177.498 0.369868 1.88404 0
M  V30 1766 O 178.699 0.39066 2.65946 0
M  V30 1767 C 176.97 2.83229 2.17981 0
M  V30 1768 S 178.529 3.18075 3.02281 0
M  V30 1769 H 175.347 0.584821 0.404358 0
M  V30 1770 H 177.949 1.89425 0.48357 0
M  V30 1771 H 176.653 3.75407 1.65824 0
M  V30 1772 H 176.184 2.6201 2.93453 0
M  V30 1773 H 178.199 2.64772 4.19655 0
M  V30 1774 N 177.372 -0.689602 1.41712 0
M  V30 1775 C 178.6 -1.47827 1.44758 0
M  V30 1776 C 179.015 -1.88721 0.0545703 0
M  V30 1777 O 178.372 -1.57176 -0.927463 0
M  V30 1778 C 178.423 -2.73698 2.3616 0
M  V30 1779 O 178.144 -2.34524 3.7004 0
M  V30 1780 C 179.645 -3.67389 2.48072 0
M  V30 1781 H 176.865 -0.455357 0.49284 0
M  V30 1782 H 179.409 -0.848574 1.86063 0
M  V30 1783 H 177.564 -3.32891 1.98148 0
M  V30 1784 H 177.978 -3.15701 4.18847 0
M  V30 1785 H 179.452 -4.52475 3.16181 0
M  V30 1786 H 179.929 -4.12284 1.51388 0
M  V30 1787 H 180.535 -3.14097 2.86746 0
M  V30 1788 N 178.85 -1.27639 -0.924453 0
M  V30 1789 C 180.075 -1.17101 -1.71179 0
M  V30 1790 C 180.5 0.268134 -1.86179 0
M  V30 1791 O 179.858 1.19415 -1.36418 0
M  V30 1792 C 179.906 -1.86313 -3.08739 0
M  V30 1793 O 179.01 -1.16331 -3.95652 0
M  V30 1794 H 178.351 -0.407091 -0.524569 0
M  V30 1795 H 180.881 -1.68767 -1.15666 0
M  V30 1796 H 180.891 -1.938 -3.59034 0
M  V30 1797 H 179.566 -2.91001 -2.97138 0
M  V30 1798 H 178.143 -1.16935 -3.54091 0
M  V30 1799 N 180.328 1.1314 -1.09713 0
M  V30 1800 C 181.553 1.88862 -0.857081 0
M  V30 1801 C 181.978 1.78729 0.586304 0
M  V30 1802 O 181.336 1.13692 1.41222 0
M  V30 1803 C 181.384 3.36325 -1.30069 0
M  V30 1804 O 180.488 4.09815 -0.461007 0
M  V30 1805 H 179.829 0.587108 -0.310162 0
M  V30 1806 H 182.359 1.43129 -1.46203 0
M  V30 1807 H 182.369 3.87157 -1.28738 0
M  V30 1808 H 181.044 3.43017 -2.35185 0
M  V30 1809 H 179.621 3.68986 -0.538888 0
M  V30 1810 N 181.806 0.884767 1.30421 0
M  V30 1811 C 183.055 0.499164 1.95426 0
M  V30 1812 C 183.368 -0.95645 1.70621 0
M  V30 1813 O 184.574 -1.44889 2.29607 0
M  V30 1814 C 183.03 0.84177 3.49917 0
M  V30 1815 C 182.638 2.31514 3.83543 0
M  V30 1816 C 184.382 0.525355 4.21237 0
M  V30 1817 C 182.289 2.59939 5.31212 0
M  V30 1818 H 181.219 0.182944 0.73147 0
M  V30 1819 H 183.87 1.07971 1.48373 0
M  V30 1820 H 182.252 0.190311 3.95542 0
M  V30 1821 H 183.426 3.0109 3.48829 0
M  V30 1822 H 181.741 2.59907 3.25326 0
M  V30 1823 H 184.338 0.714762 5.29901 0
M  V30 1824 H 184.681 -0.535222 4.12845 0
M  V30 1825 H 185.214 1.134 3.81294 0
M  V30 1826 H 181.953 3.64736 5.44654 0
M  V30 1827 H 181.473 1.94972 5.67227 0
M  V30 1828 H 183.152 2.45429 5.98643 0
M  V30 1829 N 183.284 -1.43765 0.645699 0
M  V30 1830 C 184.214 -2.33471 -0.0370477 0
M  V30 1831 C 185.195 -1.49042 -0.819779 0
M  V30 1832 O 186.38 -1.77726 -0.782758 0
M  V30 1833 C 183.51 -3.32311 -1.0093 0
M  V30 1834 C 182.464 -4.2667 -0.337201 0
M  V30 1835 C 181.79 -5.1549 -1.42037 0
M  V30 1836 C 183.09 -5.16657 0.765706 0
M  V30 1837 H 184.784 -2.90809 0.712069 0
M  V30 1838 H 182.33 -1.39834 0.343876 0
M  V30 1839 H 184.283 -3.9396 -1.49578 0
M  V30 1840 H 183.007 -2.73213 -1.78948 0
M  V30 1841 H 181.666 -3.66374 0.128771 0
M  V30 1842 H 181.314 -4.52735 -2.1918 0
M  V30 1843 H 181.014 -5.79438 -0.975966 0
M  V30 1844 H 182.538 -5.80012 -1.90838 0
M  V30 1845 H 183.952 -5.72158 0.361702 0
M  V30 1846 H 182.349 -5.89286 1.13413 0
M  V30 1847 H 183.419 -4.56796 1.62683 0
M  V30 1848 N 184.763 -0.387143 -1.52771 0
M  V30 1849 C 185.713 0.465942 -2.23188 0
M  V30 1850 C 186.697 1.03138 -1.23496 0
M  V30 1851 O 187.889 0.957845 -1.48843 0
M  V30 1852 C 185.018 1.59384 -3.04059 0
M  V30 1853 C 184.104 1.04024 -4.11144 0
M  V30 1854 N 184.495 0.211416 -5.05358 0
M  V30 1855 C 182.793 1.31295 -4.26237 0
M  V30 1856 C 183.494 -0.0941698 -5.81624 0
M  V30 1857 N 182.47 0.509207 -5.4121 0
M  V30 1858 H 186.272 -0.173856 -2.93385 0
M  V30 1859 H 183.786 -0.19633 -1.61209 0
M  V30 1860 H 185.783 2.21738 -3.53041 0
M  V30 1861 H 184.443 2.23648 -2.35397 0
M  V30 1862 H 185.454 -0.151151 -5.17679 0
M  V30 1863 H 182.131 1.95679 -3.68803 0
M  V30 1864 H 183.521 -0.765572 -6.67524 0
M  V30 1865 N 186.241 1.57166 -0.116904 0
M  V30 1866 C 187.171 2.18222 0.830759 0
M  V30 1867 C 188.152 1.12167 1.27877 0
M  V30 1868 O 189.337 1.40394 1.34176 0
M  V30 1869 C 186.467 2.77996 2.08172 0
M  V30 1870 C 185.421 3.89614 1.77157 0
M  V30 1871 C 184.747 4.36187 3.09265 0
M  V30 1872 C 186.047 5.1181 1.04151 0
M  V30 1873 H 187.741 2.97664 0.321992 0
M  V30 1874 H 185.287 1.4318 0.153434 0
M  V30 1875 H 187.24 3.19366 2.74924 0
M  V30 1876 H 185.964 1.9584 2.6137 0
M  V30 1877 H 184.623 3.48816 1.12796 0
M  V30 1878 H 184.271 3.50893 3.60393 0
M  V30 1879 H 183.971 5.11455 2.89288 0
M  V30 1880 H 185.495 4.80207 3.77139 0
M  V30 1881 H 186.909 5.50214 1.61052 0
M  V30 1882 H 185.306 5.92648 0.942762 0
M  V30 1883 H 186.376 4.84892 0.0279022 0
M  V30 1884 N 187.719 -0.156864 1.56817 0
M  V30 1885 C 188.959 -0.877453 1.84608 0
M  V30 1886 C 189.323 -1.78791 0.699845 0
M  V30 1887 O 190.524 -2.5472 0.858553 0
M  V30 1888 C 188.795 -1.63992 3.17555 0
M  V30 1889 S 190.354 -2.40729 3.66872 0
M  V30 1890 H 187.172 -0.293612 0.647544 0
M  V30 1891 H 189.774 -0.138099 1.95012 0
M  V30 1892 H 188.478 -0.962363 3.98957 0
M  V30 1893 H 188.009 -2.42038 3.10131 0
M  V30 1894 H 190.024 -3.65725 3.3535 0
M  V30 1895 N 189.197 -1.51736 -0.425897 0
M  V30 1896 C 190.16 -1.73271 -1.50032 0
M  V30 1897 C 191.16 -0.602639 -1.4908 0
M  V30 1898 O 192.35 -0.87033 -1.509 0
M  V30 1899 C 189.482 -1.79969 -2.89523 0
M  V30 1900 H 190.675 -2.69172 -1.32237 0
M  V30 1901 H 188.228 -1.41899 -0.65532 0
M  V30 1902 H 188.963 -0.859241 -3.1271 0
M  V30 1903 H 188.748 -2.62109 -2.91619 0
M  V30 1904 H 190.238 -1.9843 -3.67444 0
M  V30 1905 N 190.675 0.682077 -1.42076 0
M  V30 1906 C 191.924 1.43786 -1.41451 0
M  V30 1907 C 192.237 1.95574 -0.0317074 0
M  V30 1908 O 193.443 2.71326 0.0971462 0
M  V30 1909 C 191.899 2.60071 -2.48779 0
M  V30 1910 C 191.507 2.15013 -3.93031 0
M  V30 1911 C 193.251 3.37626 -2.57311 0
M  V30 1912 C 191.158 3.28336 -4.91883 0
M  V30 1913 H 190.088 0.540143 -0.526082 0
M  V30 1914 H 192.739 0.739157 -1.67955 0
M  V30 1915 H 191.121 3.32275 -2.15429 0
M  V30 1916 H 192.295 1.5001 -4.35699 0
M  V30 1917 H 190.61 1.50416 -3.88284 0
M  V30 1918 H 193.207 4.22012 -3.28345 0
M  V30 1919 H 193.55 3.83727 -1.61429 0
M  V30 1920 H 194.083 2.72488 -2.89819 0
M  V30 1921 H 190.822 2.87234 -5.89217 0
M  V30 1922 H 190.342 3.92145 -4.53853 0
M  V30 1923 H 192.021 3.93913 -5.13265 0
M  V30 1924 N 192.153 1.28127 0.917671 0
M  V30 1925 C 193.116 1.11744 2.00115 0
M  V30 1926 C 194.116 0.0583052 1.60694 0
M  V30 1927 O 195.306 0.303755 1.71531 0
M  V30 1928 C 192.438 0.704862 3.33533 0
M  V30 1929 H 193.631 2.07966 2.16079 0
M  V30 1930 H 191.184 1.11058 1.09981 0
M  V30 1931 H 191.919 -0.258299 3.2327 0
M  V30 1932 H 191.704 1.4699 3.63505 0
M  V30 1933 H 193.194 0.612768 4.1308 0
M  V30 1934 N 193.631 -1.12557 1.10312 0
M  V30 1935 C 194.561 -2.20341 0.772798 0
M  V30 1936 C 195.542 -1.68198 -0.25365 0
M  V30 1937 O 196.727 -1.93831 -0.119699 0
M  V30 1938 C 193.857 -3.46709 0.202443 0
M  V30 1939 C 192.811 -4.11996 1.15943 0
M  V30 1940 C 192.137 -5.328 0.450345 0
M  V30 1941 C 193.437 -4.5828 2.50552 0
M  V30 1942 H 195.131 -2.48229 1.674 0
M  V30 1943 H 192.677 -1.19308 0.806326 0
M  V30 1944 H 194.63 -4.2138 -0.0407752 0
M  V30 1945 H 193.354 -3.18245 -0.734001 0
M  V30 1946 H 192.013 -3.39305 1.38808 0
M  V30 1947 H 191.661 -5.00602 -0.490531 0
M  V30 1948 H 191.361 -5.7743 1.08851 0
M  V30 1949 H 192.885 -6.10219 0.215642 0
M  V30 1950 H 194.299 -5.2433 2.31843 0
M  V30 1951 H 192.696 -5.13683 3.10242 0
M  V30 1952 H 193.766 -3.72329 3.10643 0
M  V30 1953 N 195.109 -0.891671 -1.2995 0
M  V30 1954 C 196.386 -0.433307 -1.9074 0
M  V30 1955 C 196.766 1.08646 -1.80995 0
M  V30 1956 O 196.114 1.92476 -1.23147 0
M  V30 1957 C 196.324 -0.938895 -3.36134 0
M  V30 1958 C 197.672 -0.977829 -4.13187 0
M  V30 1959 O 198.696 -0.886015 -3.45005 0
M  V30 1960 O 197.555 -1.11453 -5.35015 0
M  V30 1961 H 194.649 -0.133699 -0.816121 0
M  V30 1962 H 197.195 -0.981011 -1.38471 0
M  V30 1963 H 195.967 -1.98281 -3.37343 0
M  V30 1964 H 195.59 -0.37074 -3.95868 0
M  V30 1965 N 196.587 1.43421 -0.653314 0
M  V30 1966 C 198.003 1.56341 -0.320886 0
M  V30 1967 C 198.203 1.63696 1.17499 0
M  V30 1968 O 197.259 1.59208 1.95982 0
M  V30 1969 C 198.572 2.82424 -1.03233 0
M  V30 1970 C 200.12 2.96168 -1.01259 0
M  V30 1971 C 200.595 4.25084 -1.70492 0
M  V30 1972 N 202.086 4.31948 -1.67257 0
M  V30 1973 C 202.821 5.30466 -2.17701 0
M  V30 1974 N 202.317 6.35261 -2.76434 0
M  V30 1975 N 204.11 5.2212 -2.082 0
M  V30 1976 H 196.261 1.3689 -1.62403 0
M  V30 1977 H 198.524 0.657455 -0.682977 0
M  V30 1978 H 198.23 2.83053 -2.08744 0
M  V30 1979 H 198.104 3.72653 -0.583948 0
M  V30 1980 H 200.491 2.9508 0.0341235 0
M  V30 1981 H 200.572 2.07229 -1.49966 0
M  V30 1982 H 200.216 4.26932 -2.7512 0
M  V30 1983 H 200.146 5.1292 -1.19251 0
M  V30 1984 H 202.637 3.56838 -1.24398 0
M  V30 1985 H 202.95 7.06754 -3.12601 0
M  V30 1986 H 201.295 6.35884 -2.80495 0
M  V30 1987 H 204.486 4.39166 -1.62021 0
M  V30 1988 H 204.659 5.98739 -2.47822 0
M  V30 1989 N 198.065 0.39524 1.52563 0
M  V30 1990 C 199.295 -0.184675 2.05773 0
M  V30 1991 C 199.703 -1.40571 1.26635 0
M  V30 1992 O 199.046 -1.81105 0.30769 0
M  V30 1993 C 199.108 -0.613551 3.54226 0
M  V30 1994 C 198.772 0.49484 4.54313 0
M  V30 1995 C 199.769 1.3541 5.01956 0
M  V30 1996 C 197.454 0.663565 4.97898 0
M  V30 1997 C 199.448 2.36716 5.91814 0
M  V30 1998 C 197.135 1.67996 5.87555 0
M  V30 1999 C 198.133 2.53017 6.34406 0
M  V30 2000 O 197.821 3.52917 7.22291 0
M  V30 2001 H 197.553 -0.030077 0.675331 0
M  V30 2002 H 200.107 0.560708 1.97599 0
M  V30 2003 H 198.337 -1.411 3.60038 0
M  V30 2004 H 200.026 -1.11981 3.90148 0
M  V30 2005 H 200.792 1.23509 4.6901 0
M  V30 2006 H 196.671 0.0114913 4.60999 0
M  V30 2007 H 200.215 3.03113 6.28306 0
M  V30 2008 H 196.112 1.79933 6.19915 0
M  V30 2009 H 196.88 3.48996 7.40367 0
M  V30 2010 N 199.544 -1.57102 0.125237 0
M  V30 2011 C 200.79 -1.96488 -0.525753 0
M  V30 2012 C 201.145 -1.00786 -1.6389 0
M  V30 2013 O 200.438 -0.038979 -1.9156 0
M  V30 2014 C 200.632 -3.40096 -1.09862 0
M  V30 2015 C 200.461 -4.4968 -0.0425004 0
M  V30 2016 C 199.231 -5.03781 0.391463 0
M  V30 2017 C 201.429 -5.08936 0.740829 0
M  V30 2018 N 199.411 -5.96948 1.4327 0
M  V30 2019 C 200.782 -5.98105 1.6331 0
M  V30 2020 C 202.837 -4.91576 0.791029 0
M  V30 2021 C 201.54 -6.71774 2.57122 0
M  V30 2022 C 203.566 -5.6593 1.71688 0
M  V30 2023 C 202.928 -6.5479 2.59672 0
M  V30 2024 H 199.027 -0.765072 -0.161831 0
M  V30 2025 H 201.611 -1.93511 0.214801 0
M  V30 2026 H 199.782 -3.43707 -1.80887 0
M  V30 2027 H 201.514 -3.66591 -1.71444 0
M  V30 2028 H 198.269 -4.736 -0.00213584 0
M  V30 2029 H 198.693 -6.48236 1.95243 0
M  V30 2030 H 203.335 -4.22615 0.124915 0
M  V30 2031 H 201.053 -7.39977 3.24744 0
M  V30 2032 H 204.639 -5.54501 1.76125 0
M  V30 2033 H 203.519 -7.11316 3.30149 0
M  V30 2034 N 201.022 0.148545 -1.56898 0
M  V30 2035 C 201.985 1.16736 -1.97244 0
M  V30 2036 C 202.985 1.35947 -0.858777 0
M  V30 2037 O 204.175 1.32966 -1.12542 0
M  V30 2038 C 201.307 2.52798 -2.28705 0
M  V30 2039 H 202.5 0.821279 -2.88435 0
M  V30 2040 H 200.053 0.391831 -1.51309 0
M  V30 2041 H 200.788 2.92381 -1.403 0
M  V30 2042 H 200.573 2.40216 -3.09901 0
M  V30 2043 H 202.063 3.26179 -2.60762 0
M  V30 2044 N 202.5 1.5196 0.417844 0
M  V30 2045 C 203.749 1.6482 1.16264 0
M  V30 2046 C 204.062 0.379886 1.91876 0
M  V30 2047 O 205.268 0.388154 2.68711 0
M  V30 2048 C 203.724 2.91161 2.1155 0
M  V30 2049 C 203.332 4.25068 1.41495 0
M  V30 2050 C 205.076 3.13383 2.86341 0
M  V30 2051 C 202.983 5.42541 2.35379 0
M  V30 2052 H 201.913 0.613954 0.437694 0
M  V30 2053 H 204.564 1.78442 0.427871 0
M  V30 2054 H 202.946 2.71218 2.88543 0
M  V30 2055 H 204.12 4.55463 0.699263 0
M  V30 2056 H 202.435 4.0888 0.787792 0
M  V30 2057 H 205.032 3.98324 3.5671 0
M  V30 2058 H 205.375 2.27256 3.48798 0
M  V30 2059 H 205.908 3.33757 2.1645 0
M  V30 2060 H 202.647 6.30987 1.77582 0
M  V30 2061 H 202.167 5.16497 3.04945 0
M  V30 2062 H 203.846 5.75272 2.96093 0
M  V30 2063 N 203.978 -0.674533 1.42435 0
M  V30 2064 C 205.206 -1.46283 1.46317 0
M  V30 2065 C 205.621 -1.88653 0.0745836 0
M  V30 2066 O 204.978 -1.58151 -0.91074 0
M  V30 2067 C 205.029 -2.71178 2.3905 0
M  V30 2068 O 204.75 -2.30586 3.72507 0
M  V30 2069 C 206.251 -3.64738 2.51955 0
M  V30 2070 H 203.471 -0.450104 0.497642 0
M  V30 2071 H 206.015 -0.828792 1.86953 0
M  V30 2072 H 204.17 -3.3077 2.01667 0
M  V30 2073 H 204.584 -3.11241 4.22172 0
M  V30 2074 H 206.058 -4.49096 3.20962 0
M  V30 2075 H 206.535 -4.10656 1.55752 0
M  V30 2076 H 207.141 -3.11038 2.90061 0
M  V30 2077 N 205.456 -1.28612 -0.910864 0
M  V30 2078 C 206.733 -1.06632 -1.63979 0
M  V30 2079 C 207.113 0.393351 -2.07403 0
M  V30 2080 O 206.461 1.37999 -1.82122 0
M  V30 2081 C 206.671 -2.0436 -2.8291 0
M  V30 2082 C 208.019 -2.34666 -3.5386 0
M  V30 2083 O 209.043 -2.02467 -2.93062 0
M  V30 2084 O 207.902 -2.89631 -4.63439 0
M  V30 2085 H 204.996 -0.407737 -0.7195 0
M  V30 2086 H 207.542 -1.39942 -0.959914 0
M  V30 2087 H 206.314 -3.02727 -2.47936 0
M  V30 2088 H 205.937 -1.71714 -3.58609 0
M  V30 2089 N 206.934 1.1197 -1.10907 0
M  V30 2090 C 208.345 1.65114 -0.871446 0
M  V30 2091 C 208.696 1.86885 0.597353 0
M  V30 2092 O 207.821 1.59896 1.45816 0
M  V30 2093 C 208.416 2.99944 -1.5754 0
M  V30 2094 C 206.975 3.50018 -1.38435 0
M  V30 2095 C 206.122 2.24941 -1.62164 0
M  V30 2096 H 209.073 0.956851 -1.2661 0
M  V30 2097 H 209.094 3.66651 -1.01721 0
M  V30 2098 H 208.606 2.84067 -2.64438 0
M  V30 2099 H 206.707 3.71071 -0.337214 0
M  V30 2100 H 206.82 4.29165 -2.12965 0
M  V30 2101 H 205.184 2.3229 -1.04467 0
M  V30 2102 H 205.967 2.11612 -2.70324 0
M  V30 2103 N 208.412 0.89855 1.29475 0
M  V30 2104 C 209.661 0.519863 1.94885 0
M  V30 2105 C 209.974 -0.9383 1.71625 0
M  V30 2106 O 211.18 -1.42445 2.31131 0
M  V30 2107 C 209.636 0.878836 3.49005 0
M  V30 2108 C 209.244 2.35569 3.81066 0
M  V30 2109 C 210.988 0.570004 4.20656 0
M  V30 2110 C 208.895 2.65558 5.28425 0
M  V30 2111 H 207.825 0.190692 0.729488 0
M  V30 2112 H 210.476 1.09539 1.47219 0
M  V30 2113 H 208.858 0.232253 3.95318 0
M  V30 2114 H 210.032 3.04773 3.45616 0
M  V30 2115 H 208.347 2.63343 3.22552 0
M  V30 2116 H 210.944 0.770925 5.29113 0
M  V30 2117 H 211.287 -0.491404 4.1339 0
M  V30 2118 H 211.82 1.17438 3.8007 0
M  V30 2119 H 208.559 3.70493 5.40754 0
M  V30 2120 H 208.079 2.00977 5.65127 0
M  V30 2121 H 209.758 2.51765 5.96006 0
M  V30 2122 N 209.89 -1.43072 0.660911 0
M  V30 2123 C 211.167 -1.95307 0.107017 0
M  V30 2124 C 211.547 -1.60192 -1.37484 0
M  V30 2125 O 210.895 -0.890949 -2.10415 0
M  V30 2126 C 211.105 -3.47124 0.361402 0
M  V30 2127 C 212.453 -4.23738 0.270455 0
M  V30 2128 O 213.477 -3.54981 0.294382 0
M  V30 2129 O 212.336 -5.46131 0.200737 0
M  V30 2130 H 209.43 -0.826984 -0.00517729 0
M  V30 2131 H 211.976 -1.52972 0.734681 0
M  V30 2132 H 210.748 -3.65837 1.38848 0
M  V30 2133 H 210.371 -3.96475 -0.298953 0
M  V30 2134 N 211.368 -0.403325 -1.52352 0
M  V30 2135 C 212.598 0.17376 -2.05868 0
M  V30 2136 C 213.006 1.39898 -1.27378 0
M  V30 2137 O 212.349 1.80939 -0.31729 0
M  V30 2138 C 212.411 0.594756 -3.54546 0
M  V30 2139 C 212.075 -0.518926 -4.54044 0
M  V30 2140 C 213.072 -1.3807 -5.01231 0
M  V30 2141 C 210.757 -0.689961 -4.97539 0
M  V30 2142 C 212.751 -2.39852 -5.90551 0
M  V30 2143 C 210.438 -1.71109 -5.86656 0
M  V30 2144 C 211.436 -2.56378 -6.33056 0
M  V30 2145 O 211.124 -3.56743 -7.20409 0
M  V30 2146 H 210.856 0.0264951 -0.675481 0
M  V30 2147 H 213.41 -0.571179 -1.97299 0
M  V30 2148 H 211.64 1.39189 -3.60782 0
M  V30 2149 H 213.329 1.0991 -3.90736 0
M  V30 2150 H 214.095 -1.25994 -4.68349 0
M  V30 2151 H 209.974 -0.035939 -4.60986 0
M  V30 2152 H 213.518 -3.06441 -6.26689 0
M  V30 2153 H 209.415 -1.83218 -6.18952 0
M  V30 2154 H 210.183 -3.52918 -7.38506 0
M  V30 2155 N 212.846 1.57033 -0.133567 0
M  V30 2156 C 214.092 1.95976 0.521649 0
M  V30 2157 C 214.425 1.01779 1.65393 0
M  V30 2158 O 213.7 0.0576581 1.94415 0
M  V30 2159 C 213.983 3.44738 1.04057 0
M  V30 2160 C 213.836 4.49711 -0.0892897 0
M  V30 2161 C 215.155 3.95682 1.92675 0
M  V30 2162 H 212.274 0.712579 0.188149 0
M  V30 2163 H 214.916 1.88813 -0.212076 0
M  V30 2164 H 213.066 3.50973 1.66583 0
M  V30 2165 H 214.738 4.55565 -0.725152 0
M  V30 2166 H 212.981 4.27261 -0.750378 0
M  V30 2167 H 213.652 5.51099 0.315284 0
M  V30 2168 H 216.128 3.91841 1.39998 0
M  V30 2169 H 215.004 5.00262 2.25897 0
M  V30 2170 H 215.265 3.37239 2.85872 0
M  V30 2171 N 214.325 -0.140222 1.56975 0
M  V30 2172 C 215.273 -1.19207 1.99731 0
M  V30 2173 C 216.267 -1.44089 0.890777 0
M  V30 2174 O 217.473 -1.44301 1.07597 0
M  V30 2175 H 213.848 -0.40142 0.635898 0
M  V30 2176 H 215.819 -0.804813 2.87342 0
M  V30 2177 C 214.568 -2.51617 2.39967 0
M  V30 2178 H 213.891 -2.33303 3.24669 0
M  V30 2179 H 215.331 -3.23827 2.73701 0
M  V30 2180 C 213.79 -3.12654 1.25496 0
M  V30 2181 O 214.32 -3.97786 0.559371 0
M  V30 2182 N 212.526 -2.72206 1.01746 0
M  V30 2183 H 212.073 -2.03074 1.58489 0
M  V30 2184 H 212.031 -3.13377 0.253461 0
M  V30 2185 N 215.803 -1.52179 -0.40978 0
M  V30 2186 C 216.75 -1.75475 -1.49924 0
M  V30 2187 C 217.72 -0.597175 -1.54994 0
M  V30 2188 O 218.905 -0.834655 -1.71575 0
M  V30 2189 C 216.045 -1.9107 -2.87378 0
M  V30 2190 C 215.158 -3.18717 -2.91622 0
M  V30 2191 C 214.293 -3.24747 -4.20372 0
M  V30 2192 C 213.332 -4.46598 -4.18588 0
M  V30 2193 N 212.469 -4.50025 -5.38908 0
M  V30 2194 H 217.309 -2.68458 -1.29361 0
M  V30 2195 H 214.846 -1.33024 -0.627934 0
M  V30 2196 H 216.804 -1.98096 -3.6717 0
M  V30 2197 H 215.434 -1.01469 -3.06437 0
M  V30 2198 H 214.486 -3.20866 -2.04326 0
M  V30 2199 H 215.798 -4.08544 -2.86169 0
M  V30 2200 H 214.952 -3.30841 -5.08556 0
M  V30 2201 H 213.691 -2.32857 -4.28519 0
M  V30 2202 H 212.696 -4.40652 -3.28794 0
M  V30 2203 H 213.921 -5.39783 -4.12081 0
M  V30 2204 H 211.867 -3.61017 -5.47725 0
M  V30 2205 H 211.784 -5.33697 -5.35447 0
M  V30 2206 H 213.052 -4.60347 -6.29048 0
M  V30 2207 N 217.281 0.66697 -1.42791 0
M  V30 2208 C 218.697 0.981027 -1.25889 0
M  V30 2209 C 218.897 2.00793 -0.168695 0
M  V30 2210 O 217.953 2.48321 0.45747 0
M  V30 2211 C 219.266 1.47838 -2.61848 0
M  V30 2212 C 220.814 1.59575 -2.69267 0
M  V30 2213 C 221.289 2.12704 -4.05612 0
M  V30 2214 N 222.78 2.20026 -4.07606 0
M  V30 2215 C 223.515 2.62227 -5.09926 0
M  V30 2216 N 223.011 3.03824 -6.22626 0
M  V30 2217 N 224.804 2.62045 -4.97281 0
M  V30 2218 H 216.955 -0.0127891 -2.12396 0
M  V30 2219 H 219.218 0.0568258 -0.946295 0
M  V30 2220 H 218.924 0.798299 -3.4252 0
M  V30 2221 H 218.798 2.45579 -2.86305 0
M  V30 2222 H 221.185 2.26687 -1.88936 0
M  V30 2223 H 221.266 0.60302 -2.48591 0
M  V30 2224 H 220.91 1.46198 -4.86404 0
M  V30 2225 H 220.84 3.12782 -4.23645 0
M  V30 2226 H 223.331 1.90708 -3.2625 0
M  V30 2227 H 223.644 3.34734 -6.96544 0
M  V30 2228 H 221.989 3.01662 -6.26119 0
M  V30 2229 H 225.18 2.28916 -4.08308 0
M  V30 2230 H 225.353 2.94613 -5.77154 0
M  V30 2231 N 218.759 1.29093 0.90403 0
M  V30 2232 C 219.987 1.19689 1.68766 0
M  V30 2233 C 220.402 -0.243113 1.87228 0
M  V30 2234 O 219.759 -1.16326 1.40621 0
M  V30 2235 C 219.81 1.90144 3.07453 0
M  V30 2236 O 219.531 3.2852 2.89838 0
M  V30 2237 C 221.032 1.87162 4.01852 0
M  V30 2238 H 218.252 0.415035 0.527244 0
M  V30 2239 H 220.796 1.7039 1.13082 0
M  V30 2240 H 218.951 1.43289 3.59926 0
M  V30 2241 H 219.365 3.63944 3.77684 0
M  V30 2242 H 220.839 2.41032 4.96596 0
M  V30 2243 H 221.316 0.84617 4.30972 0
M  V30 2244 H 221.922 2.33741 3.5531 0
M  V30 2245 N 220.237 -1.11381 1.11499 0
M  V30 2246 C 221.648 -1.6465 0.880191 0
M  V30 2247 C 221.999 -1.87199 -0.587434 0
M  V30 2248 O 221.124 -1.60667 -1.44966 0
M  V30 2249 C 221.719 -2.99105 1.59128 0
M  V30 2250 C 220.278 -3.49279 1.40289 0
M  V30 2251 C 219.425 -2.24077 1.63354 0
M  V30 2252 H 222.376 -0.950123 1.27116 0
M  V30 2253 H 222.397 -3.66107 1.03664 0
M  V30 2254 H 221.909 -2.82661 2.65941 0
M  V30 2255 H 220.01 -3.70887 0.356888 0
M  V30 2256 H 220.123 -4.2803 2.15238 0
M  V30 2257 H 218.487 -2.31733 1.05698 0
M  V30 2258 H 219.27 -2.10175 2.71443 0
M  V30 2259 N 221.715 -0.905404 -1.28997 0
M  V30 2260 C 223.131 -0.60233 -1.47798 0
M  V30 2261 C 223.331 0.854645 -1.82478 0
M  V30 2262 O 222.387 1.63439 -1.92468 0
M  V30 2263 C 223.7 -1.53306 -2.58685 0
M  V30 2264 C 225.248 -1.53887 -2.72558 0
M  V30 2265 C 225.723 -2.45602 -3.86579 0
M  V30 2266 N 227.214 -2.43681 -3.93921 0
M  V30 2267 C 227.949 -3.11347 -4.81509 0
M  V30 2268 N 227.445 -3.88313 -5.73746 0
M  V30 2269 N 229.238 -3.00476 -4.75048 0
M  V30 2270 H 221.389 -1.84765 -1.04764 0
M  V30 2271 H 223.652 -0.792025 -0.520961 0
M  V30 2272 H 223.358 -2.57141 -2.39941 0
M  V30 2273 H 223.232 -1.25787 -3.55609 0
M  V30 2274 H 225.619 -0.507941 -2.90696 0
M  V30 2275 H 225.7 -1.85447 -1.76191 0
M  V30 2276 H 225.344 -3.48792 -3.69197 0
M  V30 2277 H 225.274 -2.11349 -4.82327 0
M  V30 2278 H 227.765 -1.87767 -3.27951 0
M  V30 2279 H 228.078 -4.36985 -6.37389 0
M  V30 2280 H 226.423 -3.92419 -5.73614 0
M  V30 2281 H 229.614 -2.39858 -4.01977 0
M  V30 2282 H 229.787 -3.53485 -5.43095 0
M  V30 2283 N 223.193 1.4272 -0.668489 0
M  V30 2284 C 224.609 1.55992 -0.33745 0
M  V30 2285 C 224.809 1.64933 1.15756 0
M  V30 2286 O 223.865 1.61278 1.94282 0
M  V30 2287 C 225.178 2.81314 -1.06222 0
M  V30 2288 C 226.726 2.95078 -1.04394 0
M  V30 2289 C 227.201 4.23252 -1.74991 0
M  V30 2290 N 228.692 4.3015 -1.71829 0
M  V30 2291 C 229.427 5.28127 -2.23315 0
M  V30 2292 N 228.923 6.32293 -2.83156 0
M  V30 2293 N 230.716 5.19882 -2.13726 0
M  V30 2294 H 222.867 1.3516 -1.63846 0
M  V30 2295 H 225.13 0.650174 -0.689912 0
M  V30 2296 H 224.836 2.80823 -2.11734 0
M  V30 2297 H 224.71 3.72012 -0.62344 0
M  V30 2298 H 227.097 2.951 0.0028244 0
M  V30 2299 H 227.178 2.05627 -1.52155 0
M  V30 2300 H 226.822 4.2399 -2.79633 0
M  V30 2301 H 226.752 5.11626 -1.24685 0
M  V30 2302 H 229.243 3.55499 -1.28175 0
M  V30 2303 H 229.556 7.03398 -3.20079 0
M  V30 2304 H 227.901 6.32873 -2.87223 0
M  V30 2305 H 231.092 4.37423 -1.66669 0
M  V30 2306 H 231.265 5.96077 -2.54158 0
M  V30 2307 N 224.671 0.411399 1.52136 0
M  V30 2308 C 225.634 -0.401089 2.25663 0
M  V30 2309 C 226.634 -0.971732 1.28117 0
M  V30 2310 O 227.824 -0.850254 1.52041 0
M  V30 2311 C 224.956 -1.56483 3.02863 0
M  V30 2312 H 226.149 0.24295 2.98914 0
M  V30 2313 H 223.702 0.163968 1.55438 0
M  V30 2314 H 224.437 -2.24567 2.33967 0
M  V30 2315 H 224.222 -1.16211 3.74483 0
M  V30 2316 H 225.712 -2.13951 3.58629 0
M  V30 2317 N 226.149 -1.5696 0.141893 0
M  V30 2318 C 227.112 -2.15316 -0.785587 0
M  V30 2319 C 228.112 -1.09366 -1.1788 0
M  V30 2320 O 229.302 -1.35031 -1.10056 0
M  V30 2321 C 226.434 -2.71211 -2.06537 0
M  V30 2322 H 227.627 -2.98608 -0.278041 0
M  V30 2323 H 225.18 -1.5593 -0.107519 0
M  V30 2324 H 225.915 -1.91571 -2.6167 0
M  V30 2325 H 225.7 -3.4872 -1.79268 0
M  V30 2326 H 227.19 -3.16189 -2.72789 0
M  V30 2327 N 227.627 0.131896 -1.57047 0
M  V30 2328 C 228.59 1.14638 -1.98471 0
M  V30 2329 C 229.59 1.35029 -0.873148 0
M  V30 2330 O 230.78 1.31764 -1.13946 0
M  V30 2331 C 227.912 2.50358 -2.31373 0
M  V30 2332 H 229.105 0.79064 -2.8929 0
M  V30 2333 H 226.658 0.375761 -1.51716 0
M  V30 2334 H 227.393 2.90876 -1.43393 0
M  V30 2335 H 227.178 2.36915 -3.12432 0
M  V30 2336 H 228.668 3.23395 -2.64207 0
M  V30 2337 N 229.106 1.52395 0.401703 0
M  V30 2338 C 230.036 1.79231 1.49661 0
M  V30 2339 C 231.017 0.643654 1.57452 0
M  V30 2340 O 232.202 0.889989 1.72606 0
M  V30 2341 C 229.332 1.94971 2.87409 0
M  V30 2342 C 228.286 3.10604 2.94465 0
M  V30 2343 C 227.612 3.11577 4.34538 0
M  V30 2344 C 228.912 4.49921 2.6527 0
M  V30 2345 H 230.606 2.70917 1.27454 0
M  V30 2346 H 228.152 1.30362 0.6117 0
M  V30 2347 H 230.105 2.12328 3.63999 0
M  V30 2348 H 228.829 0.999632 3.10926 0
M  V30 2349 H 227.488 2.93009 2.20321 0
M  V30 2350 H 227.136 2.14277 4.55076 0
M  V30 2351 H 226.836 3.89247 4.40183 0
M  V30 2352 H 228.36 3.31073 5.13053 0
M  V30 2353 H 229.774 4.67683 3.31581 0
M  V30 2354 H 228.171 5.29564 2.82281 0
M  V30 2355 H 229.241 4.57507 1.60671 0
M  V30 2356 N 230.584 -0.659388 1.43143 0
M  V30 2357 C 231.833 -1.41518 1.43721 0
M  V30 2358 C 232.146 -1.95499 0.0628176 0
M  V30 2359 O 233.352 -2.71446 -0.0539683 0
M  V30 2360 C 231.808 -2.5608 2.52885 0
M  V30 2361 C 231.416 -2.08733 3.96402 0
M  V30 2362 C 233.16 -3.3349 2.62649 0
M  V30 2363 C 231.067 -3.20469 4.97045 0
M  V30 2364 H 229.997 -0.531705 0.534608 0
M  V30 2365 H 232.648 -0.712343 1.69109 0
M  V30 2366 H 231.03 -3.28805 2.20688 0
M  V30 2367 H 232.204 -1.43059 4.3803 0
M  V30 2368 H 230.519 -1.44219 3.90627 0
M  V30 2369 H 233.116 -4.16734 3.35017 0
M  V30 2370 H 233.459 -3.8111 1.67513 0
M  V30 2371 H 233.992 -2.67842 2.94118 0
M  V30 2372 H 230.731 -2.77824 5.93712 0
M  V30 2373 H 230.251 -3.84874 4.60034 0
M  V30 2374 H 231.93 -3.85698 5.19467 0
M  V30 2375 N 232.062 -1.29571 -0.897171 0
M  V30 2376 C 233.287 -1.20705 -1.68656 0
M  V30 2377 C 233.712 0.228582 -1.86706 0
M  V30 2378 O 233.07 1.16494 -1.3892 0
M  V30 2379 C 233.118 -1.9282 -3.04717 0
M  V30 2380 O 232.222 -1.24697 -3.93096 0
M  V30 2381 H 231.563 -0.418126 -0.515816 0
M  V30 2382 H 234.093 -1.71183 -1.12061 0
M  V30 2383 H 234.103 -2.01372 -3.54843 0
M  V30 2384 H 232.778 -2.97239 -2.90899 0
M  V30 2385 H 231.355 -1.2442 -3.51531 0
M  V30 2386 N 233.54 1.10788 -1.12088 0
M  V30 2387 C 234.47 2.19083 -0.807755 0
M  V30 2388 C 235.451 1.6858 0.226859 0
M  V30 2389 O 236.636 1.93997 0.0888475 0
M  V30 2390 C 233.766 3.46344 -0.257576 0
M  V30 2391 C 232.72 4.101 -1.22483 0
M  V30 2392 C 232.046 5.32016 -0.535052 0
M  V30 2393 C 233.346 4.54236 -2.57811 0
M  V30 2394 H 235.04 2.45534 -1.71328 0
M  V30 2395 H 232.586 1.1801 -0.825205 0
M  V30 2396 H 234.539 4.21392 -0.0262679 0
M  V30 2397 H 233.263 3.19373 0.683278 0
M  V30 2398 H 231.922 3.37054 -1.44189 0
M  V30 2399 H 231.57 5.01319 0.410827 0
M  V30 2400 H 231.27 5.75625 -1.18024 0
M  V30 2401 H 232.794 6.09799 -0.312695 0
M  V30 2402 H 234.208 5.20575 -2.40155 0
M  V30 2403 H 232.605 5.08682 -3.18375 0
M  V30 2404 H 233.675 3.6734 -3.16528 0
M  V30 2405 N 235.018 0.912232 1.28515 0
M  V30 2406 C 236.246 0.560416 1.99166 0
M  V30 2407 C 236.661 -0.857927 1.68182 0
M  V30 2408 O 236.018 -1.56805 0.933733 0
M  V30 2409 C 236.069 0.758142 3.53461 0
M  V30 2410 O 235.79 2.12067 3.83352 0
M  V30 2411 C 237.291 0.412954 4.41372 0
M  V30 2412 H 234.511 0.213805 0.636026 0
M  V30 2413 H 237.055 1.22502 1.63749 0
M  V30 2414 H 235.21 0.140556 3.87145 0
M  V30 2415 H 235.624 2.15923 4.77993 0
M  V30 2416 H 237.098 0.60208 5.48707 0
M  V30 2417 H 237.575 -0.65073 4.34353 0
M  V30 2418 H 238.181 1.00802 4.13182 0
M  V30 2419 N 236.496 -1.42363 0.676048 0
M  V30 2420 C 237.742 -2.02336 0.207809 0
M  V30 2421 C 238.097 -1.52506 -1.17302 0
M  V30 2422 O 237.39 -0.718048 -1.77636 0
M  V30 2423 C 237.584 -3.56929 0.183431 0
M  V30 2424 C 237.413 -4.21762 1.56036 0
M  V30 2425 C 236.183 -4.56881 2.15842 0
M  V30 2426 C 238.381 -4.49267 2.50327 0
M  V30 2427 N 236.363 -5.069 3.46303 0
M  V30 2428 C 237.734 -5.00851 3.65443 0
M  V30 2429 C 239.789 -4.31257 2.48841 0
M  V30 2430 C 238.492 -5.36317 4.79329 0
M  V30 2431 C 240.518 -4.678 3.61824 0
M  V30 2432 C 239.88 -5.19537 4.75668 0
M  V30 2433 H 235.979 -0.772583 0.120993 0
M  V30 2434 H 238.563 -1.73203 0.889306 0
M  V30 2435 H 236.734 -3.85576 -0.467483 0
M  V30 2436 H 238.466 -4.03603 -0.297808 0
M  V30 2437 H 235.221 -4.4268 1.68319 0
M  V30 2438 H 235.645 -5.36338 4.13123 0
M  V30 2439 H 240.287 -3.90511 1.62051 0
M  V30 2440 H 238.005 -5.75995 5.66794 0
M  V30 2441 H 241.591 -4.55541 3.61903 0
M  V30 2442 H 240.471 -5.47287 5.61646 0
M  V30 2443 N 237.974 -0.419461 -1.51915 0
M  V30 2444 C 238.904 0.391813 -2.30189 0
M  V30 2445 C 239.885 1.03699 -1.34836 0
M  V30 2446 O 241.07 1.04403 -1.63748 0
M  V30 2447 C 238.2 1.50312 -3.13087 0
M  V30 2448 C 237.154 0.9824 -4.16573 0
M  V30 2449 C 236.48 2.18809 -4.8788 0
M  V30 2450 C 237.78 0.0292356 -5.22292 0
M  V30 2451 H 239.474 -0.26135 -2.98257 0
M  V30 2452 H 237.02 -0.127134 -1.43438 0
M  V30 2453 H 238.973 2.07773 -3.66617 0
M  V30 2454 H 237.697 2.18431 -2.42807 0
M  V30 2455 H 236.356 0.430119 -3.64068 0
M  V30 2456 H 236.004 2.85507 -4.14119 0
M  V30 2457 H 235.704 1.84615 -5.57845 0
M  V30 2458 H 237.228 2.76858 -5.44226 0
M  V30 2459 H 238.642 0.512976 -5.71 0
M  V30 2460 H 237.039 -0.2244 -5.9968 0
M  V30 2461 H 238.109 -0.912931 -4.76228 0
M  V30 2462 N 239.452 1.56882 -0.150215 0
M  V30 2463 C 240.701 1.95403 0.500071 0
M  V30 2464 C 241.014 1.03777 1.658 0
M  V30 2465 O 242.22 1.31889 2.37313 0
M  V30 2466 C 240.676 3.4738 0.941018 0
M  V30 2467 C 240.284 4.47596 -0.190158 0
M  V30 2468 C 242.028 3.9476 1.56091 0
M  V30 2469 C 239.935 5.90787 0.269237 0
M  V30 2470 H 238.865 0.729515 0.190588 0
M  V30 2471 H 241.516 1.81988 -0.235074 0
M  V30 2472 H 239.898 3.56138 1.73152 0
M  V30 2473 H 241.072 4.50536 -0.967157 0
M  V30 2474 H 239.387 4.10151 -0.718666 0
M  V30 2475 H 241.984 4.99181 1.9163 0
M  V30 2476 H 242.327 3.36494 2.45107 0
M  V30 2477 H 242.86 3.88932 0.835249 0
M  V30 2478 H 239.599 6.52879 -0.585621 0
M  V30 2479 H 239.119 5.912 1.01204 0
M  V30 2480 H 240.798 6.42979 0.720176 0
M  V30 2481 N 240.93 -0.123565 1.57115 0
M  V30 2482 C 242.178 -0.83051 1.84247 0
M  V30 2483 C 242.499 -1.80629 0.73471 0
M  V30 2484 O 241.769 -1.94403 -0.241688 0
M  V30 2485 H 240.349 -0.309694 0.679778 0
M  V30 2486 H 243.011 -0.111976 1.94578 0
M  V30 2487 H 242.107 -1.37852 2.80006 0
M  V30 2488 N 242.408 -1.52605 -0.393616 0
M  V30 2489 C 243.655 -1.67424 -1.1391 0
M  V30 2490 C 243.983 -0.411859 -1.90089 0
M  V30 2491 O 243.238 0.605626 -1.86093 0
M  V30 2492 C 243.537 -2.85721 -2.14705 0
M  V30 2493 C 243.203 -4.23342 -1.55218 0
M  V30 2494 C 241.865 -4.60771 -1.3872 0
M  V30 2495 C 244.217 -5.09041 -1.11924 0
M  V30 2496 C 241.545 -5.81563 -0.774689 0
M  V30 2497 C 243.897 -6.30452 -0.520853 0
M  V30 2498 C 242.561 -6.66617 -0.343134 0
M  V30 2499 H 241.831 -0.612648 -0.416826 0
M  V30 2500 H 244.478 -1.8674 -0.424315 0
M  V30 2501 H 242.783 -2.60803 -2.92385 0
M  V30 2502 H 244.48 -2.94382 -2.72288 0
M  V30 2503 H 241.07 -3.93855 -1.69045 0
M  V30 2504 H 245.254 -4.80695 -1.23473 0
M  V30 2505 H 240.51 -6.08196 -0.625154 0
M  V30 2506 H 244.684 -6.96175 -0.177065 0
M  V30 2507 H 242.311 -7.60083 0.133571 0
M  V30 2508 N 243.887 0.651787 -1.4349 0
M  V30 2509 C 244.817 1.77621 -1.51569 0
M  V30 2510 C 245.798 1.66022 -0.370253 0
M  V30 2511 O 246.983 1.85095 -0.587658 0
M  V30 2512 C 244.113 3.16056 -1.43966 0
M  V30 2513 C 243.067 3.4242 -2.56774 0
M  V30 2514 C 242.393 4.8067 -2.34223 0
M  V30 2515 C 243.693 3.37023 -3.99015 0
M  V30 2516 H 245.387 1.71117 -2.45681 0
M  V30 2517 H 242.933 0.821825 -1.18246 0
M  V30 2518 H 244.886 3.94472 -1.48221 0
M  V30 2519 H 243.61 3.23293 -0.463586 0
M  V30 2520 H 242.269 2.66375 -2.51873 0
M  V30 2521 H 241.917 4.84585 -1.34856 0
M  V30 2522 H 241.617 4.9927 -3.09844 0
M  V30 2523 H 243.141 5.61342 -2.40265 0
M  V30 2524 H 244.555 4.05374 -4.05395 0
M  V30 2525 H 242.952 3.67159 -4.74673 0
M  V30 2526 H 244.022 2.3518 -4.2405 0
M  V30 2527 N 245.365 1.30045 0.890287 0
M  V30 2528 C 246.614 1.17929 1.63633 0
M  V30 2529 C 246.927 -0.266204 1.9378 0
M  V30 2530 O 248.133 -0.508804 2.6669 0
M  V30 2531 C 246.589 2.06317 2.94892 0
M  V30 2532 C 246.197 3.55745 2.72305 0
M  V30 2533 C 247.941 2.0295 3.72843 0
M  V30 2534 C 245.848 4.36205 3.99348 0
M  V30 2535 H 244.778 0.437782 0.613892 0
M  V30 2536 H 247.429 1.54754 0.986075 0
M  V30 2537 H 245.811 1.6237 3.61182 0
M  V30 2538 H 246.985 4.07805 2.1455 0
M  V30 2539 H 245.3 3.6088 2.07737 0
M  V30 2540 H 247.897 2.60319 4.67053 0
M  V30 2541 H 248.24 1.0117 4.0382 0
M  V30 2542 H 248.773 2.4499 3.13408 0
M  V30 2543 H 245.512 5.38659 3.73533 0
M  V30 2544 H 245.032 3.8891 4.56628 0
M  V30 2545 H 246.711 4.47362 4.67415 0
M  V30 2546 N 246.843 -1.10192 1.12674 0
M  V30 2547 C 248.068 -1.86523 0.906853 0
M  V30 2548 C 248.493 -1.80221 -0.538711 0
M  V30 2549 O 247.851 -1.17396 -1.38158 0
M  V30 2550 C 247.899 -3.32758 1.3894 0
M  V30 2551 O 247.003 -4.08449 0.5695 0
M  V30 2552 H 246.344 -0.578678 0.325619 0
M  V30 2553 H 248.874 -1.39203 1.49946 0
M  V30 2554 H 248.884 -3.83608 1.38958 0
M  V30 2555 H 247.559 -3.36661 2.44197 0
M  V30 2556 H 246.136 -3.67427 0.636528 0
M  V30 2557 N 248.321 -0.919034 -1.28029 0
M  V30 2558 C 249.57 -0.550802 -1.94034 0
M  V30 2559 C 249.883 0.910877 -1.73096 0
M  V30 2560 O 251.089 1.3875 -2.33368 0
M  V30 2561 C 249.545 -0.934249 -3.47563 0
M  V30 2562 C 249.153 -2.41602 -3.7727 0
M  V30 2563 C 250.897 -0.636854 -4.19696 0
M  V30 2564 C 248.804 -2.73932 -5.24133 0
M  V30 2565 H 247.734 -0.202273 -0.726362 0
M  V30 2566 H 250.385 -1.11867 -1.45458 0
M  V30 2567 H 248.767 -0.295115 -3.94899 0
M  V30 2568 H 249.941 -3.10233 -3.40723 0
M  V30 2569 H 248.256 -2.68441 -3.18321 0
M  V30 2570 H 250.853 -0.855005 -5.2782 0
M  V30 2571 H 251.196 0.425575 -4.14119 0
M  V30 2572 H 251.729 -1.23469 -3.78154 0
M  V30 2573 H 248.468 -3.79049 -5.34792 0
M  V30 2574 H 247.988 -2.09942 -5.61858 0
M  V30 2575 H 249.667 -2.61215 -5.91925 0
M  V30 2576 N 249.799 1.42003 -0.683588 0
M  V30 2577 C 251.21 1.84501 -0.285736 0
M  V30 2578 C 251.561 1.57213 1.17382 0
M  V30 2579 O 250.686 1.03642 1.89966 0
M  V30 2580 C 251.281 3.34912 -0.511821 0
M  V30 2581 C 249.84 3.76025 -0.168005 0
M  V30 2582 C 248.987 2.6551 -0.799983 0
M  V30 2583 H 251.938 1.31724 -0.885119 0
M  V30 2584 H 251.959 3.79784 0.233292 0
M  V30 2585 H 251.471 3.54741 -1.57418 0
M  V30 2586 H 249.572 3.61801 0.890567 0
M  V30 2587 H 249.685 4.75141 -0.614661 0
M  V30 2588 H 248.049 2.53654 -0.230568 0
M  V30 2589 H 248.832 2.8816 -1.86597 0
M  V30 2590 N 251.277 0.427512 1.51691 0
M  V30 2591 C 252.688 -0.0378867 1.86662 0
M  V30 2592 C 253.039 -1.42819 1.34525 0
M  V30 2593 O 252.164 -2.05037 0.692014 0
M  V30 2594 C 252.759 -0.0755266 3.38716 0
M  V30 2595 C 251.318 -0.485309 3.73258 0
M  V30 2596 C 250.465 0.328399 2.75349 0
M  V30 2597 H 253.416 0.64379 1.45055 0
M  V30 2598 H 253.437 -0.887056 3.70016 0
M  V30 2599 H 252.949 0.936487 3.76632 0
M  V30 2600 H 251.05 -1.50329 3.40928 0
M  V30 2601 H 251.163 -0.21693 4.78609 0
M  V30 2602 H 249.527 -0.211905 2.53817 0
M  V30 2603 H 250.31 1.3391 3.16106 0
M  V30 2604 N 252.755 -1.56801 0.158532 0
M  V30 2605 C 253.688 -2.13148 -0.815065 0
M  V30 2606 C 254.666 -1.0581 -1.23462 0
M  V30 2607 O 255.85 -1.3371 -1.32868 0
M  V30 2608 C 252.977 -2.6606 -2.09594 0
M  V30 2609 C 252.023 -3.85651 -1.82141 0
M  V30 2610 S 252.856 -5.26041 -1.00207 0
M  V30 2611 C 254.012 -5.8235 -2.29389 0
M  V30 2612 H 254.245 -2.95396 -0.335937 0
M  V30 2613 H 251.778 -1.54299 -0.0559391 0
M  V30 2614 H 253.736 -2.97195 -2.8317 0
M  V30 2615 H 252.397 -1.83921 -2.54621 0
M  V30 2616 H 251.59 -4.20958 -2.77147 0
M  V30 2617 H 251.192 -3.55338 -1.16667 0
M  V30 2618 H 253.484 -5.94485 -3.24952 0
M  V30 2619 H 254.427 -6.79688 -1.9857 0
M  V30 2620 H 254.835 -5.10675 -2.40564 0
M  V30 2621 N 254.233 0.115231 -1.57178 0
M  V30 2622 C 255.163 1.1423 -2.03651 0
M  V30 2623 C 256.144 1.42967 -0.921655 0
M  V30 2624 O 257.329 1.53343 -1.19162 0
M  V30 2625 C 254.459 2.4675 -2.44401 0
M  V30 2626 C 253.413 2.32467 -3.59365 0
M  V30 2627 C 252.739 3.69984 -3.86026 0
M  V30 2628 C 254.039 1.78203 -4.90959 0
M  V30 2629 H 255.733 0.755749 -2.89705 0
M  V30 2630 H 253.279 0.362093 -1.39373 0
M  V30 2631 H 255.232 3.18854 -2.75517 0
M  V30 2632 H 253.956 2.87302 -1.55322 0
M  V30 2633 H 252.615 1.62811 -3.28463 0
M  V30 2634 H 252.263 4.08028 -2.94147 0
M  V30 2635 H 251.963 3.61279 -4.63412 0
M  V30 2636 H 253.487 4.43587 -4.19599 0
M  V30 2637 H 254.901 2.40128 -5.20587 0
M  V30 2638 H 253.298 1.8031 -5.72371 0
M  V30 2639 H 254.368 0.739876 -4.79222 0
M  V30 2640 N 255.711 1.52812 0.385517 0
M  V30 2641 C 256.959 1.67694 1.12797 0
M  V30 2642 C 257.28 0.421115 1.90399 0
M  V30 2643 O 256.55 -0.564551 1.87589 0
M  V30 2644 H 255.13 0.618155 0.419396 0
M  V30 2645 H 257.792 1.89938 0.436972 0
M  V30 2646 H 256.888 2.52896 1.82894 0
M  V30 2647 N 257.189 -0.644168 1.43834 0
M  V30 2648 C 258.435 -1.40431 1.47141 0
M  V30 2649 C 258.79 -1.92153 0.0975577 0
M  V30 2650 O 258.083 -1.69924 -0.885232 0
M  V30 2651 C 258.277 -2.59615 2.45631 0
M  V30 2652 C 258.106 -2.1956 3.92458 0
M  V30 2653 C 256.876 -2.07456 4.60749 0
M  V30 2654 C 259.074 -1.79281 4.8204 0
M  V30 2655 N 257.056 -1.60827 5.92459 0
M  V30 2656 C 258.427 -1.43801 6.03093 0
M  V30 2657 C 260.482 -1.66545 4.6922 0
M  V30 2658 C 259.185 -0.968599 7.12749 0
M  V30 2659 C 261.211 -1.21008 5.78888 0
M  V30 2660 C 260.573 -0.864711 6.99072 0
M  V30 2661 H 256.672 -0.509182 0.593513 0
M  V30 2662 H 259.256 -0.740351 1.80075 0
M  V30 2663 H 257.427 -3.23658 2.1471 0
M  V30 2664 H 259.159 -3.26357 2.39318 0
M  V30 2665 H 255.914 -2.275 4.1538 0
M  V30 2666 H 256.338 -1.39848 6.62398 0
M  V30 2667 H 260.98 -1.91883 3.7675 0
M  V30 2668 H 258.698 -0.702715 8.05039 0
M  V30 2669 H 262.284 -1.11631 5.7099 0
M  V30 2670 H 261.164 -0.517736 7.82489 0
M  V30 2671 N 258.668 -1.30515 -0.883378 0
M  V30 2672 C 260.084 -1.08881 -1.16692 0
M  V30 2673 C 260.284 0.149409 -2.00945 0
M  V30 2674 O 259.34 0.84257 -2.38027 0
M  V30 2675 C 260.653 -2.35319 -1.87204 0
M  V30 2676 C 262.201 -2.40799 -1.99962 0
M  V30 2677 C 262.676 -3.67083 -2.73887 0
M  V30 2678 N 264.167 -3.679 -2.81432 0
M  V30 2679 C 264.902 -4.62303 -3.3921 0
M  V30 2680 N 264.398 -5.67052 -3.98025 0
M  V30 2681 N 266.191 -4.49845 -3.3704 0
M  V30 2682 H 258.342 -2.09951 -0.321633 0
M  V30 2683 H 260.605 -0.92556 -0.205043 0
M  V30 2684 H 260.311 -3.25689 -1.3274 0
M  V30 2685 H 260.185 -2.44089 -2.87577 0
M  V30 2686 H 262.572 -1.50907 -2.53597 0
M  V30 2687 H 262.653 -2.36003 -0.98673 0
M  V30 2688 H 262.297 -4.57334 -2.20925 0
M  V30 2689 H 262.227 -3.69141 -3.75556 0
M  V30 2690 H 264.718 -2.92171 -2.39676 0
M  V30 2691 H 265.031 -6.35184 -4.40183 0
M  V30 2692 H 263.376 -5.70842 -3.96439 0
M  V30 2693 H 266.567 -3.67194 -2.90321 0
M  V30 2694 H 266.74 -5.23597 -3.81772 0
M  V30 2695 N 260.146 1.09593 -1.13257 0
M  V30 2696 C 261.374 1.855 -0.916378 0
M  V30 2697 C 261.789 1.81069 0.534738 0
M  V30 2698 O 261.146 1.20562 1.37007 0
M  V30 2699 C 261.197 3.33546 -1.39388 0
M  V30 2700 O 260.918 3.37927 -2.78813 0
M  V30 2701 C 262.419 4.26299 -1.21588 0
M  V30 2702 H 259.639 0.585991 -0.326887 0
M  V30 2703 H 262.183 1.38488 -1.5047 0
M  V30 2704 H 260.338 3.77992 -0.848597 0
M  V30 2705 H 260.752 4.30254 -2.9997 0
M  V30 2706 H 262.226 5.28341 -1.59876 0
M  V30 2707 H 262.703 4.38918 -0.157376 0
M  V30 2708 H 263.309 3.87668 -1.7491 0
M  V30 2709 N 261.624 0.925811 1.2754 0
M  V30 2710 C 263.035 0.610102 1.7645 0
M  V30 2711 C 263.386 -0.874723 1.75622 0
M  V30 2712 O 262.511 -1.68444 1.35851 0
M  V30 2713 C 263.106 1.10073 3.20421 0
M  V30 2714 C 261.665 0.835723 3.67005 0
M  V30 2715 C 260.812 1.26054 2.46993 0
M  V30 2716 H 263.763 1.10579 1.13833 0
M  V30 2717 H 263.784 0.447557 3.77859 0
M  V30 2718 H 263.296 2.18143 3.20991 0
M  V30 2719 H 261.397 -0.231249 3.71882 0
M  V30 2720 H 261.51 1.45193 4.56569 0
M  V30 2721 H 259.874 0.679111 2.45479 0
M  V30 2722 H 260.657 2.34984 2.50275 0
M  V30 2723 N 263.102 -1.41638 0.69111 0
M  V30 2724 C 264.012 -2.34588 0.0233487 0
M  V30 2725 C 265.028 -1.55987 -0.770984 0
M  V30 2726 O 266.204 -1.88486 -0.709569 0
M  V30 2727 C 263.269 -3.34684 -0.904851 0
M  V30 2728 C 262.33 -4.29176 -0.103225 0
M  V30 2729 C 261.563 -5.2449 -0.987216 0
M  V30 2730 O 261.786 -5.2514 -2.22674 0
M  V30 2731 O 260.72 -6.00295 -0.439281 0
M  V30 2732 H 264.546 -2.93261 0.789416 0
M  V30 2733 H 262.131 -1.42417 0.45142 0
M  V30 2734 H 264.013 -3.96133 -1.43724 0
M  V30 2735 H 262.688 -2.78461 -1.65049 0
M  V30 2736 H 261.595 -3.71089 0.473655 0
M  V30 2737 H 262.928 -4.88484 0.60365 0
M  V30 2738 N 264.58 -0.43555 -1.51462 0
M  V30 2739 C 265.857 0.191364 -1.94662 0
M  V30 2740 C 266.237 1.60254 -1.37411 0
M  V30 2741 O 265.585 2.2152 -0.560458 0
M  V30 2742 C 265.795 0.17091 -3.48581 0
M  V30 2743 C 267.143 0.377357 -4.2292 0
M  V30 2744 O 268.167 0.249104 -3.55328 0
M  V30 2745 O 267.026 0.63247 -5.42828 0
M  V30 2746 H 264.12 0.130932 -0.816569 0
M  V30 2747 H 266.666 -0.4934 -1.62369 0
M  V30 2748 H 265.438 -0.815738 -3.82703 0
M  V30 2749 H 265.061 0.898659 -3.87311 0
M  V30 2750 N 266.058 1.56714 -0.166846 0
M  V30 2751 C 267.474 1.58473 0.189372 0
M  V30 2752 C 267.674 1.18201 1.63189 0
M  V30 2753 O 266.73 0.891528 2.36237 0
M  V30 2754 C 268.043 3.00573 -0.0873872 0
M  V30 2755 C 269.591 3.1299 -0.0252443 0
M  V30 2756 C 270.066 4.57174 -0.274934 0
M  V30 2757 N 271.557 4.62665 -0.222553 0
M  V30 2758 C 272.292 5.72072 -0.389985 0
M  V30 2759 N 271.788 6.90054 -0.616229 0
M  V30 2760 N 273.581 5.61153 -0.326202 0
M  V30 2761 H 265.732 1.8118 -1.10849 0
M  V30 2762 H 267.995 0.839525 -0.440342 0
M  V30 2763 H 267.701 3.34497 -1.0865 0
M  V30 2764 H 267.575 3.72019 0.623037 0
M  V30 2765 H 269.962 2.78895 0.96444 0
M  V30 2766 H 270.043 2.43989 -0.768309 0
M  V30 2767 H 269.687 4.91976 -1.26181 0
M  V30 2768 H 269.617 5.24328 0.48869 0
M  V30 2769 H 272.108 3.77863 -0.0531512 0
M  V30 2770 H 272.421 7.69311 -0.733559 0
M  V30 2771 H 270.766 6.91927 -0.652791 0
M  V30 2772 H 273.957 4.67859 -0.150072 0
M  V30 2773 H 274.13 6.46364 -0.460116 0
M  V30 2774 N 267.536 -0.106894 1.57237 0
M  V30 2775 C 268.761 -0.830287 1.90055 0
M  V30 2776 C 269.186 -1.72064 0.75998 0
M  V30 2777 O 268.544 -1.78982 -0.288991 0
M  V30 2778 C 268.592 -1.6295 3.21683 0
M  V30 2779 O 267.696 -2.73748 3.08441 0
M  V30 2780 H 267.037 -0.228855 0.623315 0
M  V30 2781 H 269.567 -0.085658 2.04421 0
M  V30 2782 H 269.577 -2.01621 3.54701 0
M  V30 2783 H 268.252 -0.975989 4.04286 0
M  V30 2784 H 266.829 -2.38192 2.86913 0
M  V30 2785 N 269.014 -1.53014 -0.377408 0
M  V30 2786 C 270.291 -1.59215 -1.13622 0
M  V30 2787 C 270.671 -0.392407 -2.07421 0
M  V30 2788 O 270.019 0.618342 -2.19975 0
M  V30 2789 C 270.229 -2.93669 -1.88573 0
M  V30 2790 C 271.577 -3.47822 -2.43526 0
M  V30 2791 O 272.601 -2.9562 -1.98715 0
M  V30 2792 O 271.46 -4.39055 -3.25412 0
M  V30 2793 H 268.554 -0.642625 -0.52054 0
M  V30 2794 H 271.1 -1.65353 -0.381625 0
M  V30 2795 H 269.872 -3.7243 -1.20048 0
M  V30 2796 H 269.495 -2.90968 -2.70968 0
M  V30 2797 N 270.492 0.636531 -1.44174 0
M  V30 2798 C 271.903 1.21806 -1.41493 0
M  V30 2799 C 272.254 1.95785 -0.1275 0
M  V30 2800 O 271.379 2.02147 0.772376 0
M  V30 2801 C 271.974 2.21551 -2.56321 0
M  V30 2802 C 270.533 2.75143 -2.56853 0
M  V30 2803 C 269.68 1.50052 -2.33195 0
M  V30 2804 H 272.631 0.427531 -1.52833 0
M  V30 2805 H 272.652 3.0405 -2.28765 0
M  V30 2806 H 272.164 1.67679 -3.50008 0
M  V30 2807 H 270.265 3.33033 -1.67093 0
M  V30 2808 H 270.378 3.2155 -3.55165 0
M  V30 2809 H 268.742 1.77993 -1.82183 0
M  V30 2810 H 269.525 0.980903 -3.28988 0
M  V30 2811 N 271.97 1.30982 0.876444 0
M  V30 2812 C 273.247 1.10942 1.61094 0
M  V30 2813 C 273.627 -0.338223 2.08373 0
M  V30 2814 O 272.975 -1.33122 1.85717 0
M  V30 2815 C 273.185 2.11789 2.77392 0
M  V30 2816 C 274.533 2.43965 3.47514 0
M  V30 2817 O 275.557 2.10166 2.87591 0
M  V30 2818 O 274.416 3.01817 4.55597 0
M  V30 2819 H 271.51 0.42667 0.708436 0
M  V30 2820 H 274.056 1.42438 0.922474 0
M  V30 2821 H 272.828 3.09194 2.39823 0
M  V30 2822 H 272.451 1.81161 3.5393 0
M  V30 2823 N 273.449 -1.08991 1.13837 0
M  V30 2824 C 274.412 -2.13925 0.822715 0
M  V30 2825 C 275.412 -1.599 -0.1699 0
M  V30 2826 O 276.602 -1.74104 0.0577251 0
M  V30 2827 C 273.734 -3.40155 0.225318 0
M  V30 2828 H 274.927 -2.43358 1.75262 0
M  V30 2829 H 272.48 -1.24603 0.943594 0
M  V30 2830 H 273.215 -3.16352 -0.713594 0
M  V30 2831 H 273 -3.80661 0.940193 0
M  V30 2832 H 274.49 -4.17594 0.0214784 0
M  V30 2833 N 274.927 -0.932562 -1.27047 0
M  V30 2834 C 276.167 -0.582919 -1.95912 0
M  V30 2835 C 276.531 0.860629 -1.71631 0
M  V30 2836 O 277.732 1.31878 -2.34225 0
M  V30 2837 C 276.003 -0.905673 -3.45734 0
M  V30 2838 S 277.562 -0.665277 -4.33727 0
M  V30 2839 H 274.38 -0.215 -0.677714 0
M  V30 2840 H 276.982 -1.20204 -1.54179 0
M  V30 2841 H 275.686 -1.95386 -3.60905 0
M  V30 2842 H 275.217 -0.275939 -3.92431 0
M  V30 2843 H 277.232 0.474635 -4.93925 0
M  V30 2844 N 276.405 1.4127 -0.698611 0
M  V30 2845 C 277.633 2.05503 -0.239992 0
M  V30 2846 C 278.048 1.52584 1.11191 0
M  V30 2847 O 277.405 0.675323 1.69545 0
M  V30 2848 C 277.456 3.60987 -0.192429 0
M  V30 2849 O 277.177 4.1195 -1.49094 0
M  V30 2850 C 278.678 4.42371 0.28681 0
M  V30 2851 H 275.898 0.661748 -0.111045 0
M  V30 2852 H 278.442 1.80987 -0.95205 0
M  V30 2853 H 276.597 3.84533 0.470472 0
M  V30 2854 H 277.011 5.06018 -1.38007 0
M  V30 2855 H 278.485 5.51344 0.26896 0
M  V30 2856 H 278.962 4.18699 1.32619 0
M  V30 2857 H 279.568 4.23897 -0.345201 0
M  V30 2858 N 277.883 0.443576 1.51229 0
M  V30 2859 C 279.132 -0.122332 2.01329 0
M  V30 2860 C 279.445 -1.43237 1.33201 0
M  V30 2861 O 280.651 -2.0816 1.74304 0
M  V30 2862 C 279.107 -0.268551 3.58897 0
M  V30 2863 C 278.715 1.03142 4.35965 0
M  V30 2864 C 280.459 -0.787894 4.17124 0
M  V30 2865 C 278.366 0.850504 5.85252 0
M  V30 2866 H 277.296 -0.0494929 0.752374 0
M  V30 2867 H 279.947 0.574289 1.74282 0
M  V30 2868 H 278.329 -1.02832 3.82415 0
M  V30 2869 H 279.503 1.80001 4.24189 0
M  V30 2870 H 277.818 1.47977 3.89219 0
M  V30 2871 H 280.415 -0.939841 5.26375 0
M  V30 2872 H 280.758 -1.77201 3.76703 0
M  V30 2873 H 281.291 -0.0862669 3.97706 0
M  V30 2874 H 278.03 1.80718 6.30096 0
M  V30 2875 H 277.55 0.121825 5.99676 0
M  V30 2876 H 279.229 0.506163 6.45017 0
M  V30 2877 N 279.361 -1.56624 0.175154 0
M  V30 2878 C 280.586 -2.01813 -0.478137 0
M  V30 2879 C 281.011 -1.05457 -1.55757 0
M  V30 2880 O 280.369 -0.0347439 -1.81267 0
M  V30 2881 C 280.417 -3.45581 -1.02987 0
M  V30 2882 O 279.521 -3.52305 -2.14371 0
M  V30 2883 H 278.862 -0.65413 -0.114059 0
M  V30 2884 H 281.392 -2.02673 0.280173 0
M  V30 2885 H 281.402 -3.84965 -1.35151 0
M  V30 2886 H 280.077 -4.1521 -0.239556 0
M  V30 2887 H 278.654 -3.24783 -1.83222 0
M  V30 2888 N 280.839 0.0985539 -1.57292 0
M  V30 2889 C 281.786 1.11981 -2.01814 0
M  V30 2890 C 282.756 1.39999 -0.89384 0
M  V30 2891 O 283.941 1.5152 -1.15958 0
M  V30 2892 C 281.081 2.43577 -2.44467 0
M  V30 2893 C 280.194 2.2232 -3.70402 0
M  V30 2894 C 279.329 3.4729 -4.01949 0
M  V30 2895 C 278.368 3.2128 -5.21005 0
M  V30 2896 N 277.505 4.38507 -5.48321 0
M  V30 2897 H 282.345 0.733149 -2.88841 0
M  V30 2898 H 279.882 0.350482 -1.42864 0
M  V30 2899 H 281.84 3.20373 -2.6724 0
M  V30 2900 H 280.47 2.80097 -1.60455 0
M  V30 2901 H 279.522 1.36343 -3.55126 0
M  V30 2902 H 280.834 1.99089 -4.57345 0
M  V30 2903 H 279.988 4.32495 -4.25479 0
M  V30 2904 H 278.727 3.73572 -3.13521 0
M  V30 2905 H 277.732 2.34468 -4.97298 0
M  V30 2906 H 278.957 2.96348 -6.11028 0
M  V30 2907 H 276.903 4.64871 -4.62851 0
M  V30 2908 H 276.82 4.18455 -6.29628 0
M  V30 2909 H 278.088 5.24787 -5.76385 0
M  V30 2910 N 282.317 1.53212 0.369288 0
M  V30 2911 C 283.594 1.59815 1.12776 0
M  V30 2912 C 283.974 0.403402 2.0721 0
M  V30 2913 O 283.322 -0.606667 2.20299 0
M  V30 2914 C 283.532 2.94664 1.87013 0
M  V30 2915 C 284.88 3.49109 2.41677 0
M  V30 2916 O 285.904 2.96669 1.97144 0
M  V30 2917 O 284.763 4.40775 3.23079 0
M  V30 2918 H 281.857 0.645376 0.517125 0
M  V30 2919 H 284.403 1.65553 0.37285 0
M  V30 2920 H 283.175 3.73061 1.18071 0
M  V30 2921 H 282.798 2.92401 2.69421 0
M  V30 2922 N 283.795 -0.628877 1.44509 0
M  V30 2923 C 284.745 -1.7345 1.47983 0
M  V30 2924 C 285.729 -1.5715 0.345373 0
M  V30 2925 O 286.921 -1.66848 0.590829 0
M  V30 2926 C 284.05 -3.12143 1.42904 0
M  V30 2927 C 283.136 -3.33906 2.61472 0
M  V30 2928 N 283.527 -3.26024 3.86706 0
M  V30 2929 C 281.825 -3.64709 2.56716 0
M  V30 2930 C 282.526 -3.48536 4.65722 0
M  V30 2931 N 281.502 -3.71517 3.96832 0
M  V30 2932 H 285.304 -1.65818 2.42655 0
M  V30 2933 H 282.818 -0.831419 1.39503 0
M  V30 2934 H 284.815 -3.91433 1.43476 0
M  V30 2935 H 283.475 -3.2094 0.492717 0
M  V30 2936 H 284.486 -3.04893 4.18641 0
M  V30 2937 H 281.163 -3.80473 1.71891 0
M  V30 2938 H 282.553 -3.48016 5.74747 0
M  V30 2939 N 285.273 -1.31445 -0.869486 0
M  V30 2940 C 286.521 -1.20918 -1.61936 0
M  V30 2941 C 286.842 0.232683 -1.93607 0
M  V30 2942 O 286.112 1.15352 -1.58338 0
M  V30 2943 H 284.692 -0.44454 -0.600328 0
M  V30 2944 H 287.354 -1.64776 -1.0409 0
M  V30 2945 H 286.45 -1.78124 -2.56278 0
M  V30 2946 N 286.751 1.08385 -1.14413 0
M  V30 2947 C 287.981 1.8425 -0.934644 0
M  V30 2948 C 288.389 1.81907 0.520234 0
M  V30 2949 O 287.732 1.22126 1.37226 0
M  V30 2950 C 287.794 3.32853 -1.35828 0
M  V30 2951 C 287.458 3.5893 -2.82875 0
M  V30 2952 C 288.455 3.53756 -3.80989 0
M  V30 2953 C 286.14 3.86934 -3.20293 0
M  V30 2954 C 288.134 3.76216 -5.14529 0
M  V30 2955 C 285.821 4.09047 -4.54008 0
M  V30 2956 C 286.819 4.03682 -5.50936 0
M  V30 2957 O 286.507 4.25214 -6.82238 0
M  V30 2958 H 286.239 0.588502 -0.332628 0
M  V30 2959 H 288.793 1.37792 -1.52324 0
M  V30 2960 H 287.023 3.8007 -0.713019 0
M  V30 2961 H 288.712 3.90154 -1.11957 0
M  V30 2962 H 289.478 3.32135 -3.53428 0
M  V30 2963 H 285.357 3.9023 -2.45442 0
M  V30 2964 H 288.901 3.71943 -5.90173 0
M  V30 2965 H 284.798 4.30151 -4.8129 0
M  V30 2966 H 285.566 4.42619 -6.88499 0
M  V30 2967 N 288.23 0.939286 1.26551 0
M  V30 2968 C 289.458 0.602536 1.97932 0
M  V30 2969 C 289.873 -0.82206 1.69964 0
M  V30 2970 O 289.23 -1.54789 0.966784 0
M  V30 2971 C 289.281 0.832946 3.51773 0
M  V30 2972 O 289.002 2.20151 3.78768 0
M  V30 2973 C 290.503 0.506483 4.40397 0
M  V30 2974 H 287.723 0.227248 0.631347 0
M  V30 2975 H 290.267 1.25948 1.61113 0
M  V30 2976 H 288.422 0.222644 3.8676 0
M  V30 2977 H 288.836 2.26013 4.73306 0
M  V30 2978 H 290.31 0.718333 5.47306 0
M  V30 2979 H 290.787 -0.558451 4.35635 0
M  V30 2980 H 291.393 1.09543 4.10951 0
M  V30 2981 N 289.708 -1.40897 0.706093 0
M  V30 2982 C 290.957 -2.00284 0.238574 0
M  V30 2983 C 291.27 -1.56604 -1.17194 0
M  V30 2984 O 292.476 -2.08624 -1.73748 0
M  V30 2985 C 290.932 -3.57934 0.375623 0
M  V30 2986 C 290.54 -4.10591 1.79217 0
M  V30 2987 C 292.284 -4.24488 -0.0315857 0
M  V30 2988 C 290.191 -5.60712 1.88032 0
M  V30 2989 H 289.121 -0.749144 0.0854398 0
M  V30 2990 H 291.772 -1.61251 0.875813 0
M  V30 2991 H 290.154 -3.94622 -0.330042 0
M  V30 2992 H 291.328 -3.85301 2.52745 0
M  V30 2993 H 289.643 -3.56601 2.15 0
M  V30 2994 H 292.24 -5.34698 0.0136842 0
M  V30 2995 H 292.583 -4.02261 -1.072 0
M  V30 2996 H 293.116 -3.92873 0.624181 0
M  V30 2997 H 289.855 -5.87781 2.90161 0
M  V30 2998 H 289.375 -5.87896 1.18903 0
M  V30 2999 H 291.054 -6.25658 1.64805 0
M  V30 3000 N 291.186 -0.45159 -1.50991 0
M  V30 3001 C 292.416 0.108177 -2.06317 0
M  V30 3002 C 292.824 1.35774 -1.31765 0
M  V30 3003 O 292.167 1.79838 -0.374694 0
M  V30 3004 C 292.229 0.481659 -3.56259 0
M  V30 3005 C 291.893 -0.663114 -4.52163 0
M  V30 3006 C 292.89 -1.53947 -4.96585 0
M  V30 3007 C 290.575 -0.8479 -4.95092 0
M  V30 3008 C 292.569 -2.58518 -5.82621 0
M  V30 3009 C 290.256 -1.89686 -5.80915 0
M  V30 3010 C 291.254 -2.76388 -6.24579 0
M  V30 3011 O 290.942 -3.79482 -7.08695 0
M  V30 3012 H 290.674 0.00499183 -0.675982 0
M  V30 3013 H 293.228 -0.633659 -1.95381 0
M  V30 3014 H 291.458 1.27641 -3.65027 0
M  V30 3015 H 293.147 0.974233 -3.94035 0
M  V30 3016 H 293.913 -1.4083 -4.64103 0
M  V30 3017 H 289.792 -0.18258 -4.60638 0
M  V30 3018 H 293.336 -3.26224 -6.16623 0
M  V30 3019 H 289.233 -2.02817 -6.12809 0
M  V30 3020 H 290.001 -3.76234 -7.26905 0
M  V30 3021 N 292.664 1.56529 -0.183458 0
M  V30 3022 C 293.889 2.02064 0.467428 0
M  V30 3023 C 294.314 1.06282 1.55196 0
M  V30 3024 O 293.672 0.0443565 1.81246 0
M  V30 3025 C 293.72 3.46122 1.01153 0
M  V30 3026 O 292.824 3.53437 2.12499 0
M  V30 3027 H 292.165 0.654726 0.110588 0
M  V30 3028 H 294.695 2.02521 -0.290917 0
M  V30 3029 H 294.705 3.85676 1.33108 0
M  V30 3030 H 293.38 4.15331 0.217533 0
M  V30 3031 H 291.957 3.2575 1.81497 0
M  V30 3032 N 294.142 -0.090211 1.57342 0
M  V30 3033 C 295.37 -0.806224 1.90546 0
M  V30 3034 C 295.785 -1.72041 0.777644 0
M  V30 3035 O 295.142 -1.80778 -0.250103 0
M  V30 3036 C 295.193 -1.61546 3.23396 0
M  V30 3037 O 294.914 -0.738043 4.31839 0
M  V30 3038 C 296.415 -2.4341 3.70495 0
M  V30 3039 H 293.635 -0.230256 0.630257 0
M  V30 3040 H 296.179 -0.0659843 2.04394 0
M  V30 3041 H 294.334 -2.30816 3.11131 0
M  V30 3042 H 294.748 -1.29901 5.08159 0
M  V30 3043 H 296.222 -2.95676 4.66133 0
M  V30 3044 H 296.699 -3.22098 2.98579 0
M  V30 3045 H 297.305 -1.79331 3.85643 0
M  V30 3046 N 295.62 -1.53406 -0.361157 0
M  V30 3047 C 296.867 -1.69802 -1.10333 0
M  V30 3048 C 297.195 -0.452087 -1.89173 0
M  V30 3049 O 296.45 0.566017 -1.87336 0
M  V30 3050 C 296.749 -2.90211 -2.08596 0
M  V30 3051 C 296.415 -4.26539 -1.46203 0
M  V30 3052 C 295.077 -4.6361 -1.28915 0
M  V30 3053 C 297.429 -5.113 -1.01101 0
M  V30 3054 C 294.757 -5.83075 -0.651157 0
M  V30 3055 C 297.109 -6.31415 -0.387007 0
M  V30 3056 C 295.773 -6.67195 -0.201657 0
M  V30 3057 H 295.043 -0.621351 -0.403737 0
M  V30 3058 H 297.69 -1.87598 -0.384609 0
M  V30 3059 H 295.995 -2.66946 -2.86788 0
M  V30 3060 H 297.692 -3.00091 -2.65982 0
M  V30 3061 H 294.282 -3.97352 -1.60653 0
M  V30 3062 H 298.466 -4.83206 -1.13249 0
M  V30 3063 H 293.722 -6.09385 -0.496006 0
M  V30 3064 H 297.896 -6.96394 -0.0293563 0
M  V30 3065 H 295.523 -7.59628 0.294766 0
M  V30 3066 N 297.098 0.621204 -1.44841 0
M  V30 3067 C 298.346 1.37783 -1.47852 0
M  V30 3068 C 298.667 1.94653 -0.116224 0
M  V30 3069 O 297.937 1.76367 0.852737 0
M  V30 3070 H 296.517 0.511453 -0.544449 0
M  V30 3071 H 299.179 0.730446 -1.80694 0
M  V30 3072 H 298.275 2.20414 -2.20961 0
M  V30 3073 N 298.576 1.31904 0.862503 0
M  V30 3074 C 299.539 1.20131 1.95195 0
M  V30 3075 C 300.539 0.126409 1.60302 0
M  V30 3076 O 301.729 0.376234 1.70089 0
M  V30 3077 C 298.861 0.845691 3.30244 0
M  V30 3078 H 300.054 2.16943 2.07064 0
M  V30 3079 H 297.607 1.15622 1.05172 0
M  V30 3080 H 298.342 -0.120957 3.24074 0
M  V30 3081 H 298.127 1.62276 3.56944 0
M  V30 3082 H 299.617 0.787418 4.10109 0
M  V30 3083 N 300.054 -1.07777 1.14986 0
M  V30 3084 C 301.301 -1.8029 0.922056 0
M  V30 3085 C 301.629 -1.86531 -0.55105 0
M  V30 3086 O 300.884 -1.34189 -1.42449 0
M  V30 3087 C 301.183 -3.25495 1.47608 0
M  V30 3088 C 300.849 -3.39361 2.96893 0
M  V30 3089 C 299.511 -3.42852 3.37647 0
M  V30 3090 C 301.863 -3.42512 3.92854 0
M  V30 3091 C 299.191 -3.47094 4.73015 0
M  V30 3092 C 301.543 -3.4829 5.28088 0
M  V30 3093 C 300.207 -3.50058 5.68345 0
M  V30 3094 H 299.477 -0.659727 0.337404 0
M  V30 3095 H 302.124 -1.26854 1.43459 0
M  V30 3096 H 300.429 -3.81683 0.88463 0
M  V30 3097 H 302.126 -3.80168 1.27568 0
M  V30 3098 H 298.716 -3.37339 2.64387 0
M  V30 3099 H 302.9 -3.3904 3.62444 0
M  V30 3100 H 298.156 -3.46758 5.03556 0
M  V30 3101 H 302.33 -3.49675 6.02246 0
M  V30 3102 H 299.957 -3.53097 6.73221 0
M  V30 3103 N 301.532 -0.945985 -1.26051 0
M  V30 3104 C 302.762 -0.612136 -1.97323 0
M  V30 3105 C 303.17 0.818171 -1.70595 0
M  V30 3106 O 302.513 1.55777 -0.973613 0
M  V30 3107 C 302.575 -0.780347 -3.50929 0
M  V30 3108 C 302.239 -2.18619 -4.01317 0
M  V30 3109 C 303.236 -3.16209 -4.12683 0
M  V30 3110 C 300.921 -2.50805 -4.35203 0
M  V30 3111 C 302.915 -4.44085 -4.57238 0
M  V30 3112 C 300.602 -3.78912 -4.79446 0
M  V30 3113 C 301.6 -4.75365 -4.90425 0
M  V30 3114 O 301.288 -6.01191 -5.3369 0
M  V30 3115 H 301.02 -0.229134 -0.635982 0
M  V30 3116 H 303.574 -1.27036 -1.61404 0
M  V30 3117 H 301.804 -0.0649864 -3.86645 0
M  V30 3118 H 303.493 -0.448842 -4.03411 0
M  V30 3119 H 304.259 -2.92668 -3.86744 0
M  V30 3120 H 300.138 -1.76463 -4.2589 0
M  V30 3121 H 303.682 -5.19373 -4.65723 0
M  V30 3122 H 299.579 -4.02265 -5.0483 0
M  V30 3123 H 300.347 -6.04442 -5.51899 0
M  V30 3124 N 303.011 1.40521 -0.713556 0
M  V30 3125 C 304.26 2.00155 -0.249192 0
M  V30 3126 C 304.573 1.57224 1.16362 0
M  V30 3127 O 305.779 2.09542 1.72639 0
M  V30 3128 C 304.235 3.5773 -0.3946 0
M  V30 3129 C 303.843 4.09635 -1.81392 0
M  V30 3130 C 305.587 4.24499 0.00907364 0
M  V30 3131 C 303.494 5.59707 -1.91003 0
M  V30 3132 H 302.424 0.74868 -0.0894114 0
M  V30 3133 H 305.075 1.60784 -0.884352 0
M  V30 3134 H 303.457 3.94792 0.30911 0
M  V30 3135 H 304.631 3.83955 -2.54785 0
M  V30 3136 H 302.946 3.55456 -2.16888 0
M  V30 3137 H 305.543 5.34683 -0.0420404 0
M  V30 3138 H 305.886 4.02824 1.05065 0
M  V30 3139 H 306.419 3.92536 -0.645007 0
M  V30 3140 H 303.158 5.86234 -2.93275 0
M  V30 3141 H 302.678 5.87258 -1.22019 0
M  V30 3142 H 304.357 6.24776 -1.6812 0
M  V30 3143 N 304.489 0.459591 1.5075 0
M  V30 3144 C 305.9 0.00171547 1.867 0
M  V30 3145 C 306.251 -1.39934 1.37525 0
M  V30 3146 O 305.376 -2.03523 0.735349 0
M  V30 3147 C 305.971 -0.00366298 3.388 0
M  V30 3148 C 304.53 -0.406026 3.74204 0
M  V30 3149 C 303.677 0.38673 2.7459 0
M  V30 3150 H 306.628 0.674413 1.43657 0
M  V30 3151 H 306.649 -0.808371 3.71814 0
M  V30 3152 H 306.161 1.01617 3.74561 0
M  V30 3153 H 304.262 -1.43063 3.4404 0
M  V30 3154 H 304.375 -0.115362 4.78961 0
M  V30 3155 H 302.739 -0.158019 2.54209 0
M  V30 3156 H 303.522 1.40585 3.13194 0
M  V30 3157 N 305.967 -1.56429 0.191757 0
M  V30 3158 C 306.897 -2.21937 -0.725696 0
M  V30 3159 C 307.878 -1.1814 -1.2238 0
M  V30 3160 O 309.063 -1.46636 -1.27325 0
M  V30 3161 C 306.193 -2.87611 -1.94672 0
M  V30 3162 C 305.147 -3.97623 -1.58366 0
M  V30 3163 C 304.473 -4.50446 -2.88102 0
M  V30 3164 C 305.773 -5.16197 -0.796133 0
M  V30 3165 H 307.467 -2.98861 -0.179606 0
M  V30 3166 H 305.013 -1.43749 -0.0849464 0
M  V30 3167 H 306.966 -3.3212 -2.59373 0
M  V30 3168 H 305.69 -2.08087 -2.51728 0
M  V30 3169 H 304.349 -3.53801 -0.960247 0
M  V30 3170 H 303.997 -3.67688 -3.43241 0
M  V30 3171 H 303.697 -5.24675 -2.64556 0
M  V30 3172 H 305.221 -4.97654 -3.53798 0
M  V30 3173 H 306.635 -5.57271 -1.34618 0
M  V30 3174 H 305.032 -5.96471 -0.658928 0
M  V30 3175 H 306.102 -4.84473 0.203478 0
M  V30 3176 N 307.445 0.0818655 -1.57387 0
M  V30 3177 C 308.375 1.09885 -2.06028 0
M  V30 3178 C 309.356 1.4098 -0.951774 0
M  V30 3179 O 310.541 1.50781 -1.22387 0
M  V30 3180 C 307.671 2.4151 -2.4958 0
M  V30 3181 C 306.625 2.24792 -3.64215 0
M  V30 3182 C 305.951 3.61712 -3.93787 0
M  V30 3183 C 307.251 1.67749 -4.94629 0
M  V30 3184 H 308.945 0.694128 -2.91243 0
M  V30 3185 H 306.491 0.332448 -1.4011 0
M  V30 3186 H 308.444 3.12939 -2.82219 0
M  V30 3187 H 307.168 2.83943 -1.61381 0
M  V30 3188 H 305.827 1.55807 -3.31843 0
M  V30 3189 H 305.475 4.01697 -3.02735 0
M  V30 3190 H 305.175 3.51368 -4.70971 0
M  V30 3191 H 306.699 4.34587 -4.28913 0
M  V30 3192 H 308.113 2.29032 -5.25564 0
M  V30 3193 H 306.51 1.68128 -5.76067 0
M  V30 3194 H 307.58 0.638059 -4.80684 0
M  V30 3195 N 308.923 1.53595 0.353017 0
M  V30 3196 C 309.853 1.83902 1.43883 0
M  V30 3197 C 310.834 0.693421 1.55324 0
M  V30 3198 O 312.019 0.944452 1.69687 0
M  V30 3199 C 309.149 2.04016 2.8106 0
M  V30 3200 C 308.103 3.19814 2.84434 0
M  V30 3201 C 307.429 3.25244 4.24406 0
M  V30 3202 C 308.729 4.58133 2.50822 0
M  V30 3203 H 310.423 2.74835 1.1877 0
M  V30 3204 H 307.969 1.32242 0.569917 0
M  V30 3205 H 309.922 2.238 3.57059 0
M  V30 3206 H 308.646 1.09804 3.07588 0
M  V30 3207 H 307.305 2.9987 2.10887 0
M  V30 3208 H 306.953 2.28646 4.48029 0
M  V30 3209 H 306.653 4.03054 4.27576 0
M  V30 3210 H 308.177 3.47228 5.0226 0
M  V30 3211 H 309.591 4.77995 3.16534 0
M  V30 3212 H 307.988 5.38276 2.6529 0
M  V30 3213 H 309.058 4.62387 1.46034 0
M  V30 3214 N 310.401 -0.613514 1.45168 0
M  V30 3215 C 311.334 -1.73809 1.47871 0
M  V30 3216 C 312.312 -1.59097 0.33568 0
M  V30 3217 O 313.496 -1.8074 0.535299 0
M  V30 3218 C 310.623 -3.11574 1.32813 0
M  V30 3219 C 309.669 -3.4489 2.50905 0
M  V30 3220 S 310.502 -3.40393 4.13392 0
M  V30 3221 C 311.658 -4.80749 4.00789 0
M  V30 3222 H 311.891 -1.71252 2.43023 0
M  V30 3223 H 309.424 -0.789658 1.32679 0
M  V30 3224 H 311.382 -3.91065 1.24812 0
M  V30 3225 H 310.043 -3.11652 0.391418 0
M  V30 3226 H 309.236 -4.45183 2.36279 0
M  V30 3227 H 308.838 -2.72901 2.55736 0
M  V30 3228 H 311.13 -5.7041 3.65567 0
M  V30 3229 H 312.073 -5.00431 5.00974 0
M  V30 3230 H 312.481 -4.56151 3.32545 0
M  V30 3231 N 311.879 -1.3236 -0.855495 0
M  V30 3232 C 312.809 -1.23833 -1.97958 0
M  V30 3233 C 313.79 -0.122361 -1.69659 0
M  V30 3234 O 314.975 -0.30939 -1.9172 0
M  V30 3235 C 312.105 -0.959772 -3.33775 0
M  V30 3236 C 311.059 -2.03689 -3.76424 0
M  V30 3237 C 310.385 -1.61075 -5.09862 0
M  V30 3238 C 311.685 -3.4518 -3.9198 0
M  V30 3239 H 313.379 -2.1788 -2.0535 0
M  V30 3240 H 310.925 -1.04891 -0.986605 0
M  V30 3241 H 312.878 -0.886678 -4.11966 0
M  V30 3242 H 311.602 0.0163404 -3.26596 0
M  V30 3243 H 310.261 -2.10012 -3.00484 0
M  V30 3244 H 309.909 -0.622107 -4.99138 0
M  V30 3245 H 309.609 -2.33143 -5.39368 0
M  V30 3246 H 311.133 -1.55201 -5.90546 0
M  V30 3247 H 312.547 -3.4145 -4.60526 0
M  V30 3248 H 310.944 -4.1559 -4.32903 0
M  V30 3249 H 312.014 -3.84903 -2.94919 0
M  V30 3250 N 313.357 1.07166 -1.15556 0
M  V30 3251 C 314.603 1.80065 -0.932984 0
M  V30 3252 C 314.936 1.86586 0.53845 0
M  V30 3253 O 314.211 1.35098 1.39924 0
M  V30 3254 C 314.494 3.25022 -1.55025 0
M  V30 3255 C 314.347 3.26634 -3.09242 0
M  V30 3256 C 315.666 4.22341 -1.2376 0
M  V30 3257 H 312.785 0.653697 -0.340366 0
M  V30 3258 H 315.427 1.25389 -1.4275 0
M  V30 3259 H 313.577 3.71712 -1.12972 0
M  V30 3260 H 315.249 2.88173 -3.60214 0
M  V30 3261 H 313.492 2.65539 -3.43033 0
M  V30 3262 H 314.163 4.28854 -3.47546 0
M  V30 3263 H 316.639 3.8405 -1.60139 0
M  V30 3264 H 315.515 5.22053 -1.69564 0
M  V30 3265 H 315.776 4.41828 -0.154938 0
M  V30 3266 N 314.835 0.952656 1.25548 0
M  V30 3267 C 315.765 0.489287 2.28316 0
M  V30 3268 C 316.746 -0.463359 1.63667 0
M  V30 3269 O 317.931 -0.36274 1.90782 0
M  V30 3270 C 315.061 -0.235603 3.465 0
M  V30 3271 C 314.015 0.631593 4.23314 0
M  V30 3272 C 313.341 -0.223923 5.34231 0
M  V30 3273 C 314.641 1.90871 4.86174 0
M  V30 3274 H 316.335 1.34822 2.67326 0
M  V30 3275 H 313.881 0.649728 1.28509 0
M  V30 3276 H 315.834 -0.570882 4.17515 0
M  V30 3277 H 314.558 -1.12877 3.06474 0
M  V30 3278 H 313.217 0.949929 3.54079 0
M  V30 3279 H 312.865 -1.11678 4.90446 0
M  V30 3280 H 312.565 0.35299 5.86539 0
M  V30 3281 H 314.089 -0.554214 6.0808 0
M  V30 3282 H 315.503 1.63997 5.49343 0
M  V30 3283 H 313.9 2.43112 5.4865 0
M  V30 3284 H 314.97 2.61304 4.08471 0
M  V30 3285 N 316.313 -1.40141 0.720998 0
M  V30 3286 C 317.543 -2.04798 0.27226 0
M  V30 3287 C 317.951 -1.54442 -1.09289 0
M  V30 3288 O 317.294 -0.698342 -1.69908 0
M  V30 3289 C 317.356 -3.59048 0.18027 0
M  V30 3290 C 317.02 -4.32317 1.48159 0
M  V30 3291 C 318.017 -4.59902 2.42458 0
M  V30 3292 C 315.702 -4.71125 1.74202 0
M  V30 3293 C 317.696 -5.25288 3.61042 0
M  V30 3294 C 315.383 -5.36242 2.93066 0
M  V30 3295 C 316.381 -5.63254 3.86308 0
M  V30 3296 O 316.069 -6.27024 5.03086 0
M  V30 3297 H 315.801 -0.665419 0.119139 0
M  V30 3298 H 318.355 -1.80436 0.981432 0
M  V30 3299 H 316.585 -3.82251 -0.58489 0
M  V30 3300 H 318.274 -4.05221 -0.234618 0
M  V30 3301 H 319.04 -4.30379 2.23604 0
M  V30 3302 H 314.919 -4.49466 1.02477 0
M  V30 3303 H 318.463 -5.46289 4.33837 0
M  V30 3304 H 314.36 -5.65185 3.11826 0
M  V30 3305 H 315.128 -6.4552 5.03235 0
M  V30 3306 N 317.792 -0.46758 -1.50504 0
M  V30 3307 C 319.04 0.0884469 -2.01906 0
M  V30 3308 C 319.361 1.40532 -1.35188 0
M  V30 3309 O 318.631 1.89515 -0.496079 0
M  V30 3310 H 317.211 0.0356765 -0.746148 0
M  V30 3311 H 319.873 -0.6172 -1.84869 0
M  V30 3312 H 318.969 0.2425 -3.11156 0
M  V30 3313 N 319.27 1.56325 -0.20005 0
M  V30 3314 C 320.686 1.58839 0.155716 0
M  V30 3315 C 320.886 1.21636 1.60645 0
M  V30 3316 O 319.942 0.941437 2.34293 0
M  V30 3317 C 321.255 3.0032 -0.151124 0
M  V30 3318 C 322.803 3.12866 -0.0916284 0
M  V30 3319 C 323.278 4.56488 -0.371845 0
M  V30 3320 N 324.769 4.62089 -0.320641 0
M  V30 3321 C 325.504 5.71116 -0.511243 0
M  V30 3322 N 325 6.88592 -0.762461 0
M  V30 3323 N 326.793 5.60335 -0.445157 0
M  V30 3324 H 318.944 1.78788 -1.14668 0
M  V30 3325 H 321.207 0.829996 -0.458051 0
M  V30 3326 H 320.913 3.32117 -1.15721 0
M  V30 3327 H 320.787 3.73257 0.543986 0
M  V30 3328 H 323.174 2.80878 0.905065 0
M  V30 3329 H 323.255 2.42304 -0.81989 0
M  V30 3330 H 322.899 4.89189 -1.36588 0
M  V30 3331 H 322.829 5.25246 0.377362 0
M  V30 3332 H 325.32 3.77665 -0.13329 0
M  V30 3333 H 325.633 7.67581 -0.896576 0
M  V30 3334 H 323.978 6.90387 -0.799412 0
M  V30 3335 H 327.169 4.67436 -0.249278 0
M  V30 3336 H 327.342 6.45243 -0.597116 0
M  V30 3337 N 320.748 -0.0735177 1.57428 0
M  V30 3338 C 321.997 -0.771809 1.86349 0
M  V30 3339 C 322.31 -1.78828 0.792452 0
M  V30 3340 O 323.516 -2.53602 0.96945 0
M  V30 3341 C 321.972 -1.42358 3.30548 0
M  V30 3342 C 321.58 -0.445761 4.45777 0
M  V30 3343 C 323.324 -2.10434 3.6867 0
M  V30 3344 C 321.231 -1.10335 5.81016 0
M  V30 3345 H 320.161 -0.291999 0.695164 0
M  V30 3346 H 322.812 -0.0250749 1.83483 0
M  V30 3347 H 321.194 -2.21852 3.28021 0
M  V30 3348 H 322.368 0.319239 4.59693 0
M  V30 3349 H 320.683 0.130457 4.16196 0
M  V30 3350 H 323.28 -2.60405 4.67004 0
M  V30 3351 H 323.623 -2.90298 2.98383 0
M  V30 3352 H 324.156 -1.37773 3.7318 0
M  V30 3353 H 320.895 -0.345061 6.54591 0
M  V30 3354 H 320.415 -1.83925 5.70904 0
M  V30 3355 H 322.094 -1.62367 6.26295 0
M  V30 3356 N 322.226 -1.5378 -0.344866 0
M  V30 3357 C 323.473 -1.70963 -1.08526 0
M  V30 3358 C 323.801 -0.472126 -1.88683 0
M  V30 3359 O 323.056 0.546116 -1.87926 0
M  V30 3360 C 323.355 -2.92407 -2.05506 0
M  V30 3361 C 323.021 -4.28066 -1.41671 0
M  V30 3362 C 321.683 -4.64951 -1.2399 0
M  V30 3363 C 324.035 -5.12344 -0.956726 0
M  V30 3364 C 321.363 -5.83733 -0.589277 0
M  V30 3365 C 323.715 -6.3179 -0.320015 0
M  V30 3366 C 322.379 -6.67372 -0.130881 0
M  V30 3367 H 321.649 -0.625598 -0.397124 0
M  V30 3368 H 324.296 -1.87995 -0.36469 0
M  V30 3369 H 322.601 -2.69973 -2.8394 0
M  V30 3370 H 324.298 -3.02895 -2.62784 0
M  V30 3371 H 320.888 -3.99034 -1.56429 0
M  V30 3372 H 325.072 -4.8438 -1.08118 0
M  V30 3373 H 320.328 -6.09877 -0.431344 0
M  V30 3374 H 324.502 -6.96386 0.0445072 0
M  V30 3375 H 322.129 -7.59273 0.375318 0
M  V30 3376 N 323.704 0.605807 -1.45491 0
M  V30 3377 C 325.12 0.926751 -1.29936 0
M  V30 3378 C 325.32 1.99896 -0.253706 0
M  V30 3379 O 324.376 2.50038 0.351737 0
M  V30 3380 C 325.689 1.36599 -2.67883 0
M  V30 3381 C 327.237 1.4801 -2.75793 0
M  V30 3382 C 327.712 1.95309 -4.14268 0
M  V30 3383 N 329.203 2.0254 -4.16571 0
M  V30 3384 C 329.938 2.40363 -5.20589 0
M  V30 3385 N 329.434 2.77143 -6.34952 0
M  V30 3386 N 331.227 2.40718 -5.07948 0
M  V30 3387 H 323.378 -0.102862 -2.12151 0
M  V30 3388 H 325.641 0.016639 -0.947854 0
M  V30 3389 H 325.347 0.652306 -3.45598 0
M  V30 3390 H 325.221 2.33215 -2.96463 0
M  V30 3391 H 327.608 2.1847 -1.98381 0
M  V30 3392 H 327.689 0.497041 -2.50925 0
M  V30 3393 H 327.333 1.25436 -4.92167 0
M  V30 3394 H 327.263 2.94532 -4.3653 0
M  V30 3395 H 329.754 1.76699 -3.34045 0
M  V30 3396 H 330.067 3.0489 -7.10114 0
M  V30 3397 H 328.412 2.74834 -6.3835 0
M  V30 3398 H 331.603 2.11392 -4.1765 0
M  V30 3399 H 331.776 2.69869 -5.89131 0
M  V30 3400 N 325.182 1.32811 0.848464 0
M  V30 3401 C 326.145 1.22194 1.9391 0
M  V30 3402 C 327.145 0.143404 1.60159 0
M  V30 3403 O 328.335 0.394253 1.6968 0
M  V30 3404 C 325.467 0.88067 3.29328 0
M  V30 3405 H 326.66 2.19127 2.04752 0
M  V30 3406 H 324.213 1.16731 1.0394 0
M  V30 3407 H 324.948 -0.0865776 3.24184 0
M  V30 3408 H 324.733 1.66052 3.55203 0
M  V30 3409 H 326.223 0.830871 4.09251 0
M  V30 3410 N 326.66 -1.06551 1.16123 0
M  V30 3411 C 327.623 -2.12132 0.867906 0
M  V30 3412 C 328.623 -1.60224 -0.135944 0
M  V30 3413 O 329.813 -1.73943 0.0946422 0
M  V30 3414 C 326.945 -3.396 0.297419 0
M  V30 3415 H 328.138 -2.39586 1.80385 0
M  V30 3416 H 325.691 -1.22574 0.969812 0
M  V30 3417 H 326.426 -3.17794 -0.64633 0
M  V30 3418 H 326.211 -3.78581 1.02073 0
M  V30 3419 H 327.701 -4.17455 0.110052 0
M  V30 3420 N 328.138 -0.959301 -1.25041 0
M  V30 3421 C 329.554 -0.664474 -1.4511 0
M  V30 3422 C 329.754 0.776481 -1.85938 0
M  V30 3423 O 328.81 1.55128 -1.99227 0
M  V30 3424 C 330.123 -1.64139 -2.5195 0
M  V30 3425 C 331.671 -1.65309 -2.65786 0
M  V30 3426 C 332.146 -2.61777 -3.75815 0
M  V30 3427 N 333.637 -2.60169 -3.83231 0
M  V30 3428 C 334.372 -3.31489 -4.6787 0
M  V30 3429 N 333.868 -4.12298 -5.56761 0
M  V30 3430 N 335.661 -3.20354 -4.61876 0
M  V30 3431 H 327.812 -1.89043 -0.968332 0
M  V30 3432 H 330.075 -0.813408 -0.4869 0
M  V30 3433 H 329.781 -2.67086 -2.28819 0
M  V30 3434 H 329.655 -1.40756 -3.49954 0
M  V30 3435 H 332.042 -0.630778 -2.8828 0
M  V30 3436 H 332.123 -1.92753 -1.68167 0
M  V30 3437 H 331.767 -3.64137 -3.54071 0
M  V30 3438 H 331.697 -2.31616 -4.72929 0
M  V30 3439 H 334.188 -2.01507 -3.19692 0
M  V30 3440 H 334.501 -4.63625 -6.18281 0
M  V30 3441 H 332.846 -4.16395 -5.56454 0
M  V30 3442 H 336.037 -2.56692 -3.91442 0
M  V30 3443 H 336.21 -3.76201 -5.27614 0
M  V30 3444 N 329.616 1.39756 -0.72842 0
M  V30 3445 C 330.863 2.00645 -0.273487 0
M  V30 3446 C 331.191 1.57786 1.13727 0
M  V30 3447 O 330.446 0.794886 1.7883 0
M  V30 3448 C 330.745 3.56002 -0.315776 0
M  V30 3449 C 330.411 4.18489 -1.67863 0
M  V30 3450 C 329.073 4.3527 -2.05166 0
M  V30 3451 C 331.425 4.53219 -2.57375 0
M  V30 3452 C 328.753 4.84069 -3.31503 0
M  V30 3453 C 331.105 5.03423 -3.83077 0
M  V30 3454 C 329.769 5.18413 -4.20481 0
M  V30 3455 H 329.039 0.734211 -0.100076 0
M  V30 3456 H 331.686 1.6718 -0.933972 0
M  V30 3457 H 329.991 3.89452 0.428285 0
M  V30 3458 H 331.688 4.00963 0.0542575 0
M  V30 3459 H 328.278 4.05824 -1.37858 0
M  V30 3460 H 332.462 4.39878 -2.29827 0
M  V30 3461 H 327.718 4.93859 -3.60435 0
M  V30 3462 H 331.892 5.2927 -4.52599 0
M  V30 3463 H 329.519 5.55987 -5.18443 0
M  V30 3464 N 331.094 0.475555 1.50254 0
M  V30 3465 C 332.51 0.12997 1.5907 0
M  V30 3466 C 332.71 -1.36385 1.48328 0
M  V30 3467 O 331.766 -2.13754 1.34407 0
M  V30 3468 C 333.079 0.684139 2.92814 0
M  V30 3469 C 334.627 0.647965 3.0622 0
M  V30 3470 C 335.102 1.17975 4.42545 0
M  V30 3471 N 336.593 1.13936 4.48969 0
M  V30 3472 C 337.328 1.52129 5.52851 0
M  V30 3473 N 336.824 1.97793 6.63965 0
M  V30 3474 N 338.617 1.43704 5.4342 0
M  V30 3475 H 330.768 1.44706 1.55479 0
M  V30 3476 H 333.031 0.598691 0.735033 0
M  V30 3477 H 332.737 1.73079 3.06164 0
M  V30 3478 H 332.611 0.130204 3.76975 0
M  V30 3479 H 334.998 -0.38979 2.92514 0
M  V30 3480 H 335.079 1.23876 2.23805 0
M  V30 3481 H 334.723 2.21616 4.57 0
M  V30 3482 H 334.653 0.565138 5.23559 0
M  V30 3483 H 337.144 0.804488 3.69238 0
M  V30 3484 H 337.457 2.25072 7.39299 0
M  V30 3485 H 335.802 2.01749 6.65073 0
M  V30 3486 H 338.993 1.07867 4.55502 0
M  V30 3487 H 339.166 1.73794 6.24259 0
M  V30 3488 N 332.573 -1.56217 0.208337 0
M  V30 3489 C 333.822 -1.97124 -0.427204 0
M  V30 3490 C 334.135 -1.09859 -1.61835 0
M  V30 3491 O 335.341 -1.40606 -2.32255 0
M  V30 3492 C 333.797 -3.50633 -0.811442 0
M  V30 3493 C 333.405 -4.46582 0.35615 0
M  V30 3494 C 335.149 -4.00282 -1.41332 0
M  V30 3495 C 333.056 -5.91379 -0.0497852 0
M  V30 3496 H 331.986 -0.736086 -0.163381 0
M  V30 3497 H 334.637 -1.8099 0.302456 0
M  V30 3498 H 333.019 -3.62319 -1.59815 0
M  V30 3499 H 334.193 -4.46636 1.1337 0
M  V30 3500 H 332.508 -4.07202 0.870396 0
M  V30 3501 H 335.105 -5.0595 -1.72972 0
M  V30 3502 H 335.448 -3.45359 -2.32449 0
M  V30 3503 H 335.981 -3.91764 -0.690323 0
M  V30 3504 H 332.72 -6.50255 0.827529 0
M  V30 3505 H 332.24 -5.94549 -0.791926 0
M  V30 3506 H 333.919 -6.45209 -0.481042 0
M  V30 3507 N 334.051 0.0651679 -1.57465 0
M  V30 3508 C 335.467 0.420105 -1.53972 0
M  V30 3509 C 335.667 1.78782 -0.929474 0
M  V30 3510 O 334.723 2.46771 -0.534839 0
M  V30 3511 C 336.036 0.355084 -2.98596 0
M  V30 3512 C 337.584 0.434792 -3.09965 0
M  V30 3513 C 338.059 0.399609 -4.56253 0
M  V30 3514 N 339.55 0.459488 -4.60915 0
M  V30 3515 C 340.285 0.454584 -5.71595 0
M  V30 3516 N 339.781 0.404102 -6.9162 0
M  V30 3517 N 341.574 0.501635 -5.59857 0
M  V30 3518 H 333.725 -0.830328 -1.95498 0
M  V30 3519 H 335.988 -0.312244 -0.895102 0
M  V30 3520 H 335.694 -0.583357 -3.46828 0
M  V30 3521 H 335.568 1.16275 -3.58831 0
M  V30 3522 H 337.955 1.36366 -2.61703 0
M  V30 3523 H 338.036 -0.40157 -2.52628 0
M  V30 3524 H 337.68 -0.525436 -5.05175 0
M  V30 3525 H 337.61 1.25359 -5.11461 0
M  V30 3526 H 340.101 0.502482 -3.74544 0
M  V30 3527 H 340.414 0.404468 -7.71741 0
M  V30 3528 H 338.759 0.37069 -6.94011 0
M  V30 3529 H 341.95 0.538812 -4.64989 0
M  V30 3530 H 342.123 0.494345 -6.46112 0
M  V30 3531 N 335.529 1.53961 0.336706 0
M  V30 3532 C 336.476 1.82428 1.41381 0
M  V30 3533 C 337.446 0.670444 1.51968 0
M  V30 3534 O 338.631 0.915565 1.67398 0
M  V30 3535 C 335.771 2.04564 2.77934 0
M  V30 3536 C 334.884 3.32267 2.76084 0
M  V30 3537 C 334.019 3.44434 4.04399 0
M  V30 3538 C 333.058 4.66061 3.96804 0
M  V30 3539 N 332.195 4.75224 5.16823 0
M  V30 3540 H 337.035 2.74324 1.16405 0
M  V30 3541 H 334.572 1.35869 0.563752 0
M  V30 3542 H 336.53 2.15388 3.57301 0
M  V30 3543 H 335.16 1.15974 3.01247 0
M  V30 3544 H 334.212 3.3025 1.88784 0
M  V30 3545 H 335.524 4.21733 2.66351 0
M  V30 3546 H 334.678 3.54728 4.92192 0
M  V30 3547 H 333.417 2.53037 4.16921 0
M  V30 3548 H 332.422 4.55838 3.07396 0
M  V30 3549 H 333.647 5.58829 3.85858 0
M  V30 3550 H 331.593 3.86739 5.29876 0
M  V30 3551 H 331.51 5.58636 5.09374 0
M  V30 3552 H 332.778 4.89835 6.06367 0
M  V30 3553 N 337.007 -0.598083 1.45811 0
M  V30 3554 C 338.235 -1.38322 1.53866 0
M  V30 3555 C 338.65 -1.87992 0.174479 0
M  V30 3556 O 338.007 -1.62756 -0.825627 0
M  V30 3557 C 338.058 -2.58125 2.53089 0
M  V30 3558 O 337.779 -2.10516 3.84206 0
M  V30 3559 C 339.28 -3.50869 2.70935 0
M  V30 3560 H 336.5 -0.423093 0.520801 0
M  V30 3561 H 339.044 -0.728527 1.91083 0
M  V30 3562 H 337.199 -3.19615 2.18917 0
M  V30 3563 H 337.613 -2.88425 4.38077 0
M  V30 3564 H 339.087 -4.31451 3.44317 0
M  V30 3565 H 339.564 -4.01822 1.77301 0
M  V30 3566 H 340.17 -2.95225 3.06141 0
M  V30 3567 N 338.485 -1.33259 -0.841409 0
M  V30 3568 C 339.731 -1.24757 -1.59886 0
M  V30 3569 C 340.064 0.186913 -1.93298 0
M  V30 3570 O 339.339 1.12757 -1.5848 0
M  V30 3571 C 339.622 -2.12036 -2.91055 0
M  V30 3572 C 339.475 -3.63929 -2.6434 0
M  V30 3573 C 340.794 -1.9916 -3.92458 0
M  V30 3574 H 337.913 -0.454542 -0.580138 0
M  V30 3575 H 340.555 -1.63335 -0.970647 0
M  V30 3576 H 338.705 -1.79265 -3.44669 0
M  V30 3577 H 340.377 -4.06978 -2.17178 0
M  V30 3578 H 338.62 -3.85935 -1.98082 0
M  V30 3579 H 339.291 -4.20341 -3.57796 0
M  V30 3580 H 341.767 -2.27895 -3.48143 0
M  V30 3581 H 340.643 -2.62484 -4.82072 0
M  V30 3582 H 340.904 -0.963082 -4.31482 0
M  V30 3583 N 339.963 1.05934 -1.16686 0
M  V30 3584 C 340.91 2.13499 -0.876748 0
M  V30 3585 C 341.88 1.65162 0.176299 0
M  V30 3586 O 343.065 1.90757 0.0407143 0
M  V30 3587 C 340.205 3.42912 -0.387967 0
M  V30 3588 C 339.318 4.04964 -1.50426 0
M  V30 3589 C 338.453 5.22266 -0.970125 0
M  V30 3590 C 337.492 5.76309 -2.06238 0
M  V30 3591 N 336.629 6.84922 -1.54356 0
M  V30 3592 H 341.469 2.37654 -1.7979 0
M  V30 3593 H 339.006 1.16598 -0.896843 0
M  V30 3594 H 340.964 4.17111 -0.086186 0
M  V30 3595 H 339.594 3.18963 0.496235 0
M  V30 3596 H 338.646 3.28277 -1.92193 0
M  V30 3597 H 339.958 4.41122 -2.32836 0
M  V30 3598 H 339.112 6.03506 -0.621743 0
M  V30 3599 H 337.851 4.87564 -0.115377 0
M  V30 3600 H 336.856 4.93704 -2.41942 0
M  V30 3601 H 338.081 6.13062 -2.92115 0
M  V30 3602 H 336.027 6.52131 -0.711406 0
M  V30 3603 H 335.944 7.20043 -2.30379 0
M  V30 3604 H 337.212 7.69832 -1.22387 0
M  V30 3605 N 341.441 0.965919 1.2453 0
M  V30 3606 C 342.388 0.49402 2.25451 0
M  V30 3607 C 343.358 -0.45948 1.59618 0
M  V30 3608 O 344.543 -0.370238 1.87173 0
M  V30 3609 C 341.683 -0.211359 3.44452 0
M  V30 3610 C 340.796 0.7807 4.24887 0
M  V30 3611 C 339.931 0.0516105 5.31175 0
M  V30 3612 C 338.97 1.03385 6.03306 0
M  V30 3613 N 338.107 0.334887 7.01301 0
M  V30 3614 H 342.947 1.35946 2.65184 0
M  V30 3615 H 340.484 0.681515 1.3036 0
M  V30 3616 H 342.442 -0.637 4.12308 0
M  V30 3617 H 341.072 -1.04077 3.05562 0
M  V30 3618 H 340.124 1.32479 3.56586 0
M  V30 3619 H 341.436 1.52978 4.74762 0
M  V30 3620 H 340.59 -0.432114 6.05159 0
M  V30 3621 H 339.329 -0.730179 4.82203 0
M  V30 3622 H 338.334 1.52847 5.28127 0
M  V30 3623 H 339.559 1.81606 6.54367 0
M  V30 3624 H 337.505 -0.427959 6.54603 0
M  V30 3625 H 337.422 1.02287 7.49048 0
M  V30 3626 H 338.69 -0.126928 7.79397 0
M  V30 3627 N 342.919 -1.39368 0.735821 0
M  V30 3628 C 344.165 -2.00794 0.284544 0
M  V30 3629 C 344.498 -1.58255 -1.12557 0
M  V30 3630 O 343.773 -0.811819 -1.76748 0
M  V30 3631 C 344.056 -3.58011 0.387337 0
M  V30 3632 C 343.909 -4.10566 1.83728 0
M  V30 3633 C 345.228 -4.395 -0.22975 0
M  V30 3634 H 342.347 -0.729501 0.104866 0
M  V30 3635 H 344.989 -1.65564 0.93213 0
M  V30 3636 H 343.139 -3.88154 -0.164006 0
M  V30 3637 H 344.811 -3.91139 2.44556 0
M  V30 3638 H 343.054 -3.64095 2.35833 0
M  V30 3639 H 343.725 -5.19702 1.86047 0
M  V30 3640 H 346.201 -4.15406 0.240257 0
M  V30 3641 H 345.077 -5.48752 -0.127485 0
M  V30 3642 H 345.338 -4.22062 -1.3159 0
M  V30 3643 N 344.397 -0.483516 -1.5 0
M  V30 3644 C 345.307 0.309172 -2.32554 0
M  V30 3645 C 346.323 0.984159 -1.43493 0
M  V30 3646 O 347.499 0.969399 -1.76535 0
M  V30 3647 C 344.564 1.36979 -3.18493 0
M  V30 3648 C 343.625 0.710095 -4.23387 0
M  V30 3649 C 342.858 1.72018 -5.05218 0
M  V30 3650 O 343.081 2.94813 -4.88305 0
M  V30 3651 O 342.015 1.28515 -5.8802 0
M  V30 3652 H 345.841 -0.366064 -3.01486 0
M  V30 3653 H 343.426 -0.24514 -1.47375 0
M  V30 3654 H 345.308 1.98385 -3.71781 0
M  V30 3655 H 343.983 2.02828 -2.52275 0
M  V30 3656 H 342.89 0.0567539 -3.74057 0
M  V30 3657 H 344.223 0.0943557 -4.9211 0
M  V30 3658 N 345.875 1.56104 -0.216619 0
M  V30 3659 C 346.822 2.2007 0.695531 0
M  V30 3660 C 347.792 1.15471 1.19397 0
M  V30 3661 O 348.977 1.43807 1.25396 0
M  V30 3662 C 346.117 2.88073 1.90021 0
M  V30 3663 C 345.23 4.07253 1.44113 0
M  V30 3664 C 344.365 4.63052 2.603 0
M  V30 3665 C 343.404 5.74545 2.11103 0
M  V30 3666 N 342.541 6.24656 3.20545 0
M  V30 3667 H 347.381 2.97655 0.143327 0
M  V30 3668 H 344.918 1.46982 0.0589934 0
M  V30 3669 H 346.876 3.25681 2.60745 0
M  V30 3670 H 345.506 2.13015 2.42538 0
M  V30 3671 H 344.558 3.75164 0.628999 0
M  V30 3672 H 345.87 4.8783 1.04036 0
M  V30 3673 H 345.024 5.03078 3.39113 0
M  V30 3674 H 343.763 3.81628 3.03663 0
M  V30 3675 H 342.768 5.34027 1.3075 0
M  V30 3676 H 343.993 6.57801 1.68746 0
M  V30 3677 H 341.939 5.46148 3.63399 0
M  V30 3678 H 341.856 7.00343 2.84704 0
M  V30 3679 H 343.124 6.69338 3.99508 0
M  V30 3680 N 347.353 -0.0568162 1.57498 0
M  V30 3681 C 348.581 -0.765626 1.92213 0
M  V30 3682 C 348.996 -1.70353 0.813961 0
M  V30 3683 O 348.353 -1.81268 -0.211701 0
M  V30 3684 C 348.404 -1.5465 3.2675 0
M  V30 3685 O 348.125 -0.646278 4.33307 0
M  V30 3686 C 349.626 -2.35497 3.75574 0
M  V30 3687 H 346.846 -0.216835 0.634999 0
M  V30 3688 H 349.39 -0.0226146 2.04487 0
M  V30 3689 H 347.545 -2.24165 3.15957 0
M  V30 3690 H 347.959 -1.19093 5.108 0
M  V30 3691 H 349.433 -2.85722 4.72299 0
M  V30 3692 H 349.91 -3.15692 3.05344 0
M  V30 3693 H 350.516 -1.7111 3.8936 0
M  V30 3694 N 348.832 -1.54138 -0.328536 0
M  V30 3695 C 350.08 -1.71765 -1.06496 0
M  V30 3696 C 350.401 -0.49149 -1.88704 0
M  V30 3697 O 349.671 0.494539 -1.89555 0
M  V30 3698 H 348.251 -0.633295 -0.396164 0
M  V30 3699 H 350.913 -1.91429 -0.366176 0
M  V30 3700 H 350.009 -2.5951 -1.73381 0
M  V30 3701 N 350.31 0.590341 -1.46126 0
M  V30 3702 C 351.273 1.68194 -1.55703 0
M  V30 3703 C 352.273 1.54808 -0.434868 0
M  V30 3704 O 353.463 1.59564 -0.698928 0
M  V30 3705 C 350.595 3.07575 -1.47005 0
M  V30 3706 H 351.788 1.61064 -2.52979 0
M  V30 3707 H 349.341 0.807541 -1.33823 0
M  V30 3708 H 350.076 3.20268 -0.509785 0
M  V30 3709 H 349.861 3.187 -2.28414 0
M  V30 3710 H 351.351 3.87055 -1.56776 0
M  V30 3711 N 351.788 1.33704 0.83433 0
M  V30 3712 C 353.065 1.16011 1.57483 0
M  V30 3713 C 353.445 -0.27176 2.09343 0
M  V30 3714 O 352.793 -1.27146 1.89858 0
M  V30 3715 C 353.003 2.20507 2.70514 0
M  V30 3716 C 354.351 2.54898 3.39577 0
M  V30 3717 O 355.375 2.19209 2.80759 0
M  V30 3718 O 354.234 3.16158 4.45765 0
M  V30 3719 H 351.328 0.448992 0.694503 0
M  V30 3720 H 353.874 1.453 0.876691 0
M  V30 3721 H 352.646 3.16667 2.29865 0
M  V30 3722 H 352.269 1.92329 3.47987 0
M  V30 3723 N 353.266 -1.05314 1.17247 0
M  V30 3724 C 354.494 -1.81971 0.984593 0
M  V30 3725 C 354.909 -1.82929 -0.467166 0
M  V30 3726 O 354.266 -1.25564 -1.32438 0
M  V30 3727 C 354.317 -3.28143 1.51672 0
M  V30 3728 O 354.038 -3.27347 2.91163 0
M  V30 3729 C 355.539 -4.21493 1.37326 0
M  V30 3730 H 352.759 -0.573455 0.348411 0
M  V30 3731 H 355.303 -1.32808 1.55506 0
M  V30 3732 H 353.458 -3.74582 0.988302 0
M  V30 3733 H 353.872 -4.18824 3.15732 0
M  V30 3734 H 355.346 -5.22043 1.79375 0
M  V30 3735 H 355.823 -4.38031 0.320169 0
M  V30 3736 H 356.429 -3.80909 1.89178 0
M  V30 3737 N 354.744 -0.972509 -1.24016 0
M  V30 3738 C 356.16 -0.679827 -1.44397 0
M  V30 3739 C 356.36 0.756716 -1.86751 0
M  V30 3740 O 355.416 1.53007 -2.00861 0
M  V30 3741 C 356.729 -1.66803 -2.50195 0
M  V30 3742 C 358.277 -1.68119 -2.64017 0
M  V30 3743 C 358.752 -2.65748 -3.73017 0
M  V30 3744 N 360.243 -2.64219 -3.8045 0
M  V30 3745 C 360.978 -3.36433 -4.64328 0
M  V30 3746 N 360.474 -4.1818 -5.52356 0
M  V30 3747 N 362.267 -3.25235 -4.58453 0
M  V30 3748 H 354.418 -1.90059 -0.948228 0
M  V30 3749 H 356.681 -0.818527 -0.478245 0
M  V30 3750 H 356.387 -2.69498 -2.25973 0
M  V30 3751 H 356.261 -1.4446 -3.48441 0
M  V30 3752 H 358.648 -0.661319 -2.87594 0
M  V30 3753 H 358.729 -1.94525 -1.66113 0
M  V30 3754 H 358.373 -3.67872 -3.50189 0
M  V30 3755 H 358.303 -2.36619 -4.70446 0
M  V30 3756 H 360.794 -2.04887 -3.17537 0
M  V30 3757 H 361.107 -4.70157 -6.13329 0
M  V30 3758 H 359.452 -4.22273 -5.52006 0
M  V30 3759 H 362.643 -2.60829 -3.88698 0
M  V30 3760 H 362.816 -3.81776 -5.23594 0
M  V30 3761 N 356.222 1.38976 -0.743202 0
M  V30 3762 C 357.172 2.27843 -0.084513 0
M  V30 3763 C 358.156 1.44677 0.704094 0
M  V30 3764 O 359.348 1.67511 0.571755 0
M  V30 3765 C 356.477 3.33466 0.815781 0
M  V30 3766 C 355.563 4.24095 0.0208844 0
M  V30 3767 N 355.954 4.95609 -1.0102 0
M  V30 3768 C 354.252 4.45303 0.249293 0
M  V30 3769 C 354.953 5.62287 -1.49024 0
M  V30 3770 N 353.929 5.37571 -0.807377 0
M  V30 3771 H 357.731 2.80593 -0.87436 0
M  V30 3772 H 355.245 1.51755 -0.578283 0
M  V30 3773 H 357.242 3.96008 1.30321 0
M  V30 3774 H 355.902 2.82276 1.6047 0
M  V30 3775 H 356.913 4.98849 -1.39176 0
M  V30 3776 H 353.59 4.0504 1.01237 0
M  V30 3777 H 354.98 6.29519 -2.34853 0
M  V30 3778 N 357.7 0.491464 1.49741 0
M  V30 3779 C 358.948 -0.0563141 2.02022 0
M  V30 3780 C 359.269 -1.38363 1.37407 0
M  V30 3781 O 358.539 -1.88702 0.526166 0
M  V30 3782 H 357.119 -0.0238014 0.746621 0
M  V30 3783 H 359.781 0.646533 1.83864 0
M  V30 3784 H 358.877 -0.192967 3.11503 0
M  V30 3785 N 359.178 -1.55987 0.224894 0
M  V30 3786 C 360.141 -2.19178 -0.670348 0
M  V30 3787 C 361.141 -1.15461 -1.11917 0
M  V30 3788 O 362.331 -1.40675 -1.02743 0
M  V30 3789 C 359.463 -2.81777 -1.9187 0
M  V30 3790 H 360.656 -2.99662 -0.119364 0
M  V30 3791 H 358.209 -1.5628 -0.0247128 0
M  V30 3792 H 358.944 -2.05172 -2.51147 0
M  V30 3793 H 358.729 -3.57732 -1.60531 0
M  V30 3794 H 360.219 -3.30205 -2.55645 0
M  V30 3795 N 360.656 0.0484629 -1.57525 0
M  V30 3796 C 361.881 0.759177 -1.93006 0
M  V30 3797 C 362.306 1.69125 -0.823317 0
M  V30 3798 O 361.664 1.79931 0.222364 0
M  V30 3799 C 361.712 1.50899 -3.27509 0
M  V30 3800 O 360.816 2.62112 -3.18388 0
M  V30 3801 H 360.157 0.205564 -0.631379 0
M  V30 3802 H 362.687 0.00972959 -2.04598 0
M  V30 3803 H 362.697 1.88317 -3.6194 0
M  V30 3804 H 361.372 0.825269 -4.0763 0
M  V30 3805 H 359.949 2.27379 -2.95556 0
M  V30 3806 N 362.134 1.5431 0.320358 0
M  V30 3807 C 363.545 1.63872 0.894594 0
M  V30 3808 C 363.896 0.534847 1.88769 0
M  V30 3809 O 363.021 -0.331732 2.13842 0
M  V30 3810 C 363.616 2.97049 1.62934 0
M  V30 3811 C 362.175 3.08796 2.15226 0
M  V30 3812 C 361.322 2.59456 0.978671 0
M  V30 3813 H 364.273 1.58398 0.0978544 0
M  V30 3814 H 364.294 2.87388 2.49376 0
M  V30 3815 H 363.806 3.7737 0.906302 0
M  V30 3816 H 361.907 2.33156 2.90636 0
M  V30 3817 H 362.02 4.14649 2.40006 0
M  V30 3818 H 360.384 2.1543 1.35875 0
M  V30 3819 H 361.167 3.42237 0.269895 0
M  V30 3820 N 363.613 -0.582584 1.46437 0
M  V30 3821 C 364.576 -1.67366 1.56592 0
M  V30 3822 C 365.576 -1.54575 0.443072 0
M  V30 3823 O 366.766 -1.59191 0.707381 0
M  V30 3824 C 363.898 -3.06791 1.48634 0
M  V30 3825 H 365.091 -1.5972 2.5383 0
M  V30 3826 H 362.644 -0.800432 1.34249 0
M  V30 3827 H 363.379 -3.19993 0.526763 0
M  V30 3828 H 363.164 -3.17484 2.30101 0
M  V30 3829 H 364.654 -3.86218 1.58826 0
M  V30 3830 N 365.091 -1.34144 -0.827227 0
M  V30 3831 C 366.502 -1.23557 -1.39966 0
M  V30 3832 C 366.853 0.140731 -1.95695 0
M  V30 3833 O 365.978 1.04087 -1.89723 0
M  V30 3834 C 366.573 -2.23708 -2.54441 0
M  V30 3835 C 365.132 -2.16924 -3.07605 0
M  V30 3836 C 364.279 -2.10549 -1.80456 0
M  V30 3837 H 367.23 -1.45573 -0.631991 0
M  V30 3838 H 367.251 -1.85157 -3.32411 0
M  V30 3839 H 366.763 -3.23866 -2.13851 0
M  V30 3840 H 364.864 -1.20107 -3.52711 0
M  V30 3841 H 364.977 -3.07988 -3.66988 0
M  V30 3842 H 363.341 -1.56203 -2.01178 0
M  V30 3843 H 364.124 -3.12535 -1.42046 0
M  V30 3844 N 366.569 1.04691 -1.17803 0
M  V30 3845 C 367.501 2.12571 -0.857097 0
M  V30 3846 C 368.514 1.62174 0.142647 0
M  V30 3847 O 369.703 1.78301 -0.0843387 0
M  V30 3848 C 366.803 3.37915 -0.258216 0
M  V30 3849 C 365.976 4.1757 -1.30207 0
M  V30 3850 C 365.035 5.2125 -0.720029 0
M  V30 3851 O 364.061 5.51888 -1.39314 0
M  V30 3852 N 365.263 5.78466 0.485507 0
M  V30 3853 H 368.028 2.40698 -1.78562 0
M  V30 3854 H 365.589 1.20831 -1.07757 0
M  V30 3855 H 367.581 4.04442 0.144584 0
M  V30 3856 H 366.151 3.07281 0.574199 0
M  V30 3857 H 365.371 3.46458 -1.88043 0
M  V30 3858 H 366.659 4.67586 -2.00601 0
M  V30 3859 H 366.057 5.55866 1.05022 0
M  V30 3860 H 364.614 6.4649 0.830307 0
M  V30 3861 N 368.047 0.979072 1.23499 0
M  V30 3862 C 369.458 0.684391 1.73704 0
M  V30 3863 C 369.809 -0.799448 1.79174 0
M  V30 3864 O 368.934 -1.62531 1.42873 0
M  V30 3865 C 369.529 1.23564 3.15464 0
M  V30 3866 C 368.088 0.99063 3.6313 0
M  V30 3867 C 367.235 1.36416 2.41425 0
M  V30 3868 H 370.186 1.15307 1.09041 0
M  V30 3869 H 370.207 0.607417 3.7562 0
M  V30 3870 H 369.719 2.31561 3.1145 0
M  V30 3871 H 367.82 -0.0733136 3.72528 0
M  V30 3872 H 367.933 1.64427 4.5 0
M  V30 3873 H 366.297 0.782616 2.42378 0
M  V30 3874 H 367.08 2.45387 2.40083 0
M  V30 3875 N 369.525 -1.3858 0.750561 0
M  V30 3876 C 370.472 -2.30483 0.120835 0
M  V30 3877 C 371.442 -1.50022 -0.712923 0
M  V30 3878 O 372.627 -1.78662 -0.669676 0
M  V30 3879 C 369.767 -3.36431 -0.768666 0
M  V30 3880 C 368.88 -4.31927 0.0793922 0
M  V30 3881 C 368.015 -5.24944 -0.81283 0
M  V30 3882 C 367.054 -6.12088 0.0390447 0
M  V30 3883 N 366.191 -6.97412 -0.809969 0
M  V30 3884 H 371.031 -2.83761 0.91015 0
M  V30 3885 H 368.568 -1.39707 0.460463 0
M  V30 3886 H 370.526 -3.96462 -1.29898 0
M  V30 3887 H 369.156 -2.8457 -1.5238 0
M  V30 3888 H 368.208 -3.73382 0.727303 0
M  V30 3889 H 369.52 -4.93319 0.737401 0
M  V30 3890 H 368.674 -5.90078 -1.41042 0
M  V30 3891 H 367.413 -4.63911 -1.50458 0
M  V30 3892 H 366.418 -5.45952 0.649328 0
M  V30 3893 H 367.643 -6.75189 0.727809 0
M  V30 3894 H 365.589 -6.38931 -1.48672 0
M  V30 3895 H 365.506 -7.55712 -0.208789 0
M  V30 3896 H 366.774 -7.66959 -1.39263 0
M  V30 3897 N 371.003 -0.499398 -1.49478 0
M  V30 3898 C 371.95 0.279881 -2.29097 0
M  V30 3899 C 372.92 0.961805 -1.3542 0
M  V30 3900 O 374.105 0.968777 -1.64376 0
M  V30 3901 C 371.245 1.33932 -3.18051 0
M  V30 3902 C 370.358 0.669333 -4.26783 0
M  V30 3903 C 369.493 1.70907 -5.02955 0
M  V30 3904 C 368.532 1.02087 -6.03527 0
M  V30 3905 N 367.669 2.00474 -6.7287 0
M  V30 3906 H 372.509 -0.405317 -2.95231 0
M  V30 3907 H 370.046 -0.211726 -1.45568 0
M  V30 3908 H 372.004 1.96553 -3.67998 0
M  V30 3909 H 370.634 1.9933 -2.53904 0
M  V30 3910 H 369.686 -0.0701234 -3.80335 0
M  V30 3911 H 370.998 0.127503 -4.98637 0
M  V30 3912 H 370.152 2.41037 -5.56764 0
M  V30 3913 H 368.891 2.28476 -4.30871 0
M  V30 3914 H 367.896 0.305338 -5.48951 0
M  V30 3915 H 369.121 0.451708 -6.77596 0
M  V30 3916 H 367.067 2.57007 -6.03559 0
M  V30 3917 H 366.984 1.51353 -7.40694 0
M  V30 3918 H 368.252 2.69897 -7.31284 0
M  V30 3919 N 372.481 1.55866 -0.233164 0
M  V30 3920 C 373.706 2.03449 0.402906 0
M  V30 3921 C 374.131 1.11166 1.51736 0
M  V30 3922 O 373.489 0.101996 1.81013 0
M  V30 3923 C 373.537 3.49165 0.9009 0
M  V30 3924 O 372.641 3.60019 2.01147 0
M  V30 3925 H 371.982 0.657913 0.0897025 0
M  V30 3926 H 374.512 2.01493 -0.355201 0
M  V30 3927 H 374.522 3.89716 1.2077 0
M  V30 3928 H 373.197 4.15813 0.0852889 0
M  V30 3929 H 371.774 3.3136 1.71042 0
M  V30 3930 N 373.959 -0.0401083 1.57549 0
M  V30 3931 C 375.205 -0.734211 1.89043 0
M  V30 3932 C 375.538 -1.75591 0.829535 0
M  V30 3933 O 374.813 -1.93868 -0.156706 0
M  V30 3934 C 375.096 -1.41374 3.31188 0
M  V30 3935 C 374.949 -0.406299 4.47961 0
M  V30 3936 C 376.268 -2.35061 3.72068 0
M  V30 3937 H 373.387 -0.265447 0.687537 0
M  V30 3938 H 376.029 0.00294087 1.9 0
M  V30 3939 H 374.179 -2.04206 3.30503 0
M  V30 3940 H 375.851 0.219255 4.60779 0
M  V30 3941 H 374.094 0.275485 4.32924 0
M  V30 3942 H 374.765 -0.920022 5.44279 0
M  V30 3943 H 377.241 -1.82282 3.74049 0
M  V30 3944 H 376.117 -2.79593 4.72355 0
M  V30 3945 H 376.378 -3.21258 3.0372 0
M  V30 3946 N 375.437 -1.54477 -0.31217 0
M  V30 3947 C 376.385 -1.85395 -1.40469 0
M  V30 3948 C 377.379 -0.726749 -1.53019 0
M  V30 3949 O 378.585 -0.910582 -1.55269 0
M  V30 3950 H 374.96 -0.587845 -0.46898 0
M  V30 3951 H 376.931 -2.76736 -1.11623 0
M  V30 3952 C 375.68 -2.10811 -2.76503 0
M  V30 3953 H 375.003 -2.97014 -2.67625 0
M  V30 3954 H 376.443 -2.3639 -3.51988 0
M  V30 3955 C 374.902 -0.903165 -3.24568 0
M  V30 3956 O 375.432 -0.118085 -4.01526 0
M  V30 3957 N 373.638 -0.711634 -2.81752 0
M  V30 3958 H 373.185 -1.35171 -2.19286 0
M  V30 3959 H 373.143 0.0930473 -3.14262 0
M  V30 3960 N 376.915 0.57481 -1.46744 0
M  V30 3961 C 378.163 1.33009 -1.52161 0
M  V30 3962 C 378.484 1.94185 -0.178092 0
M  V30 3963 O 377.754 1.7899 0.796196 0
M  V30 3964 H 376.334 0.493873 -0.560445 0
M  V30 3965 H 378.996 0.672589 -1.82927 0
M  V30 3966 H 378.092 2.13273 -2.27862 0
M  V30 3967 N 378.394 1.34581 0.820102 0
M  V30 3968 C 379.304 1.28471 1.96297 0
M  V30 3969 C 380.32 0.191902 1.72939 0
M  V30 3970 O 381.496 0.418879 1.96996 0
M  V30 3971 C 378.561 1.04281 3.30645 0
M  V30 3972 C 377.622 2.22745 3.66992 0
M  V30 3973 C 376.855 1.997 4.9493 0
M  V30 3974 O 377.078 0.956656 5.6232 0
M  V30 3975 O 376.012 2.86723 5.2922 0
M  V30 3976 H 379.838 2.24624 2.04396 0
M  V30 3977 H 377.423 1.14816 0.955913 0
M  V30 3978 H 379.305 0.925841 4.11104 0
M  V30 3979 H 377.98 0.111697 3.23507 0
M  V30 3980 H 376.887 2.40003 2.86966 0
M  V30 3981 H 378.22 3.14257 3.78819 0
M  V30 3982 N 379.872 -1.04064 1.18357 0
M  V30 3983 C 381.097 -1.81454 1.00445 0
M  V30 3984 C 381.522 -1.82823 -0.442423 0
M  V30 3985 O 380.88 -1.24555 -1.31741 0
M  V30 3986 C 380.928 -3.24925 1.56384 0
M  V30 3987 O 380.032 -4.04856 0.785209 0
M  V30 3988 H 379.373 -0.560604 0.355835 0
M  V30 3989 H 381.903 -1.31059 1.57114 0
M  V30 3990 H 381.913 -3.75702 1.59097 0
M  V30 3991 H 380.588 -3.23244 2.61699 0
M  V30 3992 H 379.165 -3.63537 0.830399 0
M  V30 3993 N 381.35 -0.985608 -1.22978 0
M  V30 3994 C 382.598 -0.656087 -1.91154 0
M  V30 3995 C 382.919 0.813561 -1.77218 0
M  V30 3996 O 382.189 1.58244 -1.1548 0
M  V30 3997 H 380.769 -0.239674 -0.707506 0
M  V30 3998 H 383.431 -1.25054 -1.49491 0
M  V30 3999 H 382.527 -0.912253 -2.9847 0
M  V30 4000 N 382.828 1.3818 -0.7579 0
M  V30 4001 C 384.053 2.04827 -0.325679 0
M  V30 4002 C 384.478 1.56788 1.03919 0
M  V30 4003 O 383.836 0.721811 1.66312 0
M  V30 4004 C 383.884 3.58774 -0.362447 0
M  V30 4005 O 382.988 4.07372 0.642033 0
M  V30 4006 H 382.329 0.64833 -0.143402 0
M  V30 4007 H 384.859 1.7677 -1.03023 0
M  V30 4008 H 384.869 4.07434 -0.214844 0
M  V30 4009 H 383.544 3.93096 -1.35824 0
M  V30 4010 H 382.121 3.70068 0.458688 0
M  V30 4011 N 384.306 0.507319 1.49211 0
M  V30 4012 C 385.722 0.163682 1.58758 0
M  V30 4013 C 385.922 -1.33208 1.51188 0
M  V30 4014 O 384.978 -2.10855 1.38911 0
M  V30 4015 C 386.291 0.746095 2.91297 0
M  V30 4016 C 387.839 0.712773 3.04776 0
M  V30 4017 C 388.314 1.27336 4.39943 0
M  V30 4018 N 389.805 1.23433 4.46451 0
M  V30 4019 C 390.54 1.63821 5.495 0
M  V30 4020 N 390.036 2.11832 6.5962 0
M  V30 4021 N 391.829 1.55198 5.4025 0
M  V30 4022 H 383.98 1.47972 1.52375 0
M  V30 4023 H 386.243 0.614147 0.722168 0
M  V30 4024 H 385.949 1.79534 3.02424 0
M  V30 4025 H 385.823 0.210137 3.76614 0
M  V30 4026 H 388.21 -0.327656 2.93275 0
M  V30 4027 H 388.291 1.28595 2.21127 0
M  V30 4028 H 387.935 2.3126 4.52196 0
M  V30 4029 H 387.865 0.676066 5.22242 0
M  V30 4030 H 390.356 0.882627 3.67448 0
M  V30 4031 H 390.669 2.40703 7.34358 0
M  V30 4032 H 389.014 2.1581 6.60644 0
M  V30 4033 H 392.205 1.17505 4.53112 0
M  V30 4034 H 392.378 1.86997 6.20432 0
M  V30 4035 N 385.784 -1.5574 0.241426 0
M  V30 4036 C 386.732 -2.22538 -0.676718 0
M  V30 4037 C 387.726 -1.21117 -1.18436 0
M  V30 4038 O 388.932 -1.39144 -1.14188 0
M  V30 4039 H 385.307 -0.713776 -0.236701 0
M  V30 4040 H 387.278 -2.98264 -0.0901187 0
M  V30 4041 C 386.027 -2.93439 -1.86518 0
M  V30 4042 H 385.35 -3.7125 -1.4837 0
M  V30 4043 H 386.79 -3.43549 -2.48495 0
M  V30 4044 C 385.249 -1.97008 -2.73294 0
M  V30 4045 O 385.779 -1.49965 -3.72657 0
M  V30 4046 N 383.985 -1.64227 -2.39745 0
M  V30 4047 H 383.532 -2.02677 -1.58996 0
M  V30 4048 H 383.49 -0.999708 -2.98083 0
M  V30 4049 N 387.262 0.0317525 -1.57568 0
M  V30 4050 C 388.508 0.718712 -1.90279 0
M  V30 4051 C 388.863 1.73108 -0.839727 0
M  V30 4052 O 388.156 1.90997 0.15188 0
M  V30 4053 C 388.35 1.43167 -3.27472 0
M  V30 4054 C 388.179 0.489869 -4.47024 0
M  V30 4055 C 386.949 0.111909 -5.05176 0
M  V30 4056 C 389.147 -0.230592 -5.13783 0
M  V30 4057 N 387.129 -0.831427 -6.08244 0
M  V30 4058 C 388.5 -1.02968 -6.1139 0
M  V30 4059 C 390.555 -0.297821 -4.97008 0
M  V30 4060 C 389.258 -1.88982 -6.9403 0
M  V30 4061 C 391.284 -1.14507 -5.80209 0
M  V30 4062 C 390.646 -1.9321 -6.77384 0
M  V30 4063 H 386.745 0.237177 -0.745165 0
M  V30 4064 H 389.329 -0.0211267 -1.94689 0
M  V30 4065 H 387.5 2.14199 -3.23996 0
M  V30 4066 H 389.232 2.0708 -3.47707 0
M  V30 4067 H 385.987 0.473513 -4.71227 0
M  V30 4068 H 386.411 -1.29752 -6.6445 0
M  V30 4069 H 391.053 0.296346 -4.2176 0
M  V30 4070 H 388.771 -2.4948 -7.68626 0
M  V30 4071 H 392.357 -1.20059 -5.69278 0
M  V30 4072 H 391.237 -2.57711 -7.40645 0
M  V30 4073 N 388.74 1.54641 0.303973 0
M  V30 4074 C 390.156 1.45788 0.649463 0
M  V30 4075 C 390.356 0.64666 1.90842 0
M  V30 4076 O 389.412 0.153183 2.52035 0
M  V30 4077 C 390.725 2.89718 0.805227 0
M  V30 4078 C 392.273 2.99742 0.901305 0
M  V30 4079 C 392.748 4.44863 1.08909 0
M  V30 4080 N 394.239 4.48559 1.15536 0
M  V30 4081 C 394.974 5.58026 1.3189 0
M  V30 4082 N 394.47 6.77422 1.45161 0
M  V30 4083 N 396.263 5.45708 1.34755 0
M  V30 4084 H 388.414 2.05854 -0.523237 0
M  V30 4085 H 390.677 0.932186 -0.172431 0
M  V30 4086 H 390.383 3.51666 -0.0489108 0
M  V30 4087 H 390.257 3.36964 1.69513 0
M  V30 4088 H 392.644 2.3791 1.74593 0
M  V30 4089 H 392.725 2.55797 -0.0125531 0
M  V30 4090 H 392.369 5.07288 0.249241 0
M  V30 4091 H 392.299 4.86436 2.01713 0
M  V30 4092 H 394.79 3.6254 1.06646 0
M  V30 4093 H 395.103 7.56604 1.57387 0
M  V30 4094 H 393.448 6.80292 1.42223 0
M  V30 4095 H 396.639 4.51378 1.23996 0
M  V30 4096 H 396.812 6.3107 1.47157 0
M  V30 4097 N 390.218 -0.567019 1.47046 0
M  V30 4098 C 391.148 -1.68482 1.61667 0
M  V30 4099 C 392.129 -1.6358 0.466418 0
M  V30 4100 O 393.314 -1.81354 0.694574 0
M  V30 4101 C 390.444 -3.07124 1.62148 0
M  V30 4102 C 389.398 -3.26867 2.76301 0
M  V30 4103 C 388.724 -4.66196 2.61849 0
M  V30 4104 C 390.024 -3.13186 4.17986 0
M  V30 4105 H 391.718 -1.56502 2.5524 0
M  V30 4106 H 389.264 -0.751486 1.22836 0
M  V30 4107 H 391.217 -3.8516 1.70968 0
M  V30 4108 H 389.941 -3.2004 0.651287 0
M  V30 4109 H 388.6 -2.51237 2.66975 0
M  V30 4110 H 388.248 -4.75898 1.62879 0
M  V30 4111 H 387.948 -4.80356 3.38425 0
M  V30 4112 H 389.472 -5.46379 2.72584 0
M  V30 4113 H 390.886 -3.81049 4.2834 0
M  V30 4114 H 389.283 -3.3886 4.95272 0
M  V30 4115 H 390.353 -2.10057 4.3704 0
M  V30 4116 N 391.696 -1.35014 -0.812953 0
M  V30 4117 C 392.944 -1.27678 -1.56661 0
M  V30 4118 C 393.265 0.150359 -1.94419 0
M  V30 4119 O 392.535 1.08532 -1.63088 0
M  V30 4120 H 391.115 -0.469602 -0.580933 0
M  V30 4121 H 393.777 -1.69043 -0.970076 0
M  V30 4122 H 392.873 -1.88833 -2.48492 0
M  V30 4123 N 393.175 1.03435 -1.18907 0
M  V30 4124 C 394.421 1.77005 -0.989798 0
M  V30 4125 C 394.754 1.88205 0.478816 0
M  V30 4126 O 394.029 1.39481 1.35556 0
M  V30 4127 C 394.312 3.19925 -1.65287 0
M  V30 4128 C 394.165 3.1663 -3.19477 0
M  V30 4129 C 395.484 4.18189 -1.37134 0
M  V30 4130 H 392.603 0.642538 -0.360991 0
M  V30 4131 H 395.245 1.20784 -1.46667 0
M  V30 4132 H 393.395 3.67929 -1.24741 0
M  V30 4133 H 395.067 2.76567 -3.692 0
M  V30 4134 H 393.31 2.54491 -3.51307 0
M  V30 4135 H 393.981 4.1758 -3.61013 0
M  V30 4136 H 396.457 3.78761 -1.72276 0
M  V30 4137 H 395.333 5.16394 -1.86087 0
M  V30 4138 H 395.594 4.41112 -0.295424 0
M  V30 4139 N 394.653 0.992116 1.22453 0
M  V30 4140 C 395.563 0.55065 2.28046 0
M  V30 4141 C 396.579 -0.400189 1.69335 0
M  V30 4142 O 397.755 -0.267215 1.99619 0
M  V30 4143 C 394.82 -0.128496 3.46462 0
M  V30 4144 C 393.881 0.865208 4.20491 0
M  V30 4145 C 393.114 0.218377 5.33253 0
M  V30 4146 O 393.337 -0.987894 5.6178 0
M  V30 4147 O 392.271 0.922845 5.94783 0
M  V30 4148 H 396.097 1.4291 2.67975 0
M  V30 4149 H 393.682 0.760326 1.28606 0
M  V30 4150 H 395.564 -0.508947 4.18315 0
M  V30 4151 H 394.239 -0.981526 3.0846 0
M  V30 4152 H 393.146 1.29658 3.50913 0
M  V30 4153 H 394.479 1.68741 4.62371 0
M  V30 4154 N 396.131 -1.37776 0.765217 0
M  V30 4155 C 397.356 -2.04651 0.336537 0
M  V30 4156 C 397.781 -1.57337 -1.03086 0
M  V30 4157 O 397.139 -0.730621 -1.65927 0
M  V30 4158 C 397.187 -3.58577 0.381468 0
M  V30 4159 O 396.291 -4.07706 -0.62042 0
M  V30 4160 H 395.632 -0.64756 0.146838 0
M  V30 4161 H 398.162 -1.76221 1.03959 0
M  V30 4162 H 398.172 -4.07314 0.236448 0
M  V30 4163 H 396.847 -3.9237 1.37907 0
M  V30 4164 H 395.424 -3.70306 -0.439056 0
M  V30 4165 N 397.609 -0.515225 -1.4894 0
M  V30 4166 C 398.556 0.255567 -2.29381 0
M  V30 4167 C 399.526 0.947387 -1.36432 0
M  V30 4168 O 400.711 0.951288 -1.65394 0
M  V30 4169 C 397.851 1.30551 -3.19453 0
M  V30 4170 C 396.964 0.624029 -4.27469 0
M  V30 4171 C 396.099 1.65563 -5.0474 0
M  V30 4172 C 395.138 0.956802 -6.04576 0
M  V30 4173 N 394.275 1.93326 -6.74959 0
M  V30 4174 H 399.115 -0.436607 -2.94784 0
M  V30 4175 H 396.652 -0.227154 -1.45336 0
M  V30 4176 H 398.61 1.92639 -3.70062 0
M  V30 4177 H 397.24 1.96626 -2.56004 0
M  V30 4178 H 396.292 -0.110459 -3.8024 0
M  V30 4179 H 397.604 0.0746092 -4.98744 0
M  V30 4180 H 396.758 2.35119 -5.59289 0
M  V30 4181 H 395.497 2.23893 -4.3327 0
M  V30 4182 H 394.502 0.247097 -5.49244 0
M  V30 4183 H 395.727 0.379814 -6.78037 0
M  V30 4184 H 393.673 2.50591 -6.06251 0
M  V30 4185 H 393.59 1.43489 -7.42258 0
M  V30 4186 H 394.858 2.62126 -7.34105 0
M  V30 4187 N 399.087 1.5561 -0.249682 0
M  V30 4188 C 400.05 2.20217 0.635394 0
M  V30 4189 C 401.05 1.17227 1.10066 0
M  V30 4190 O 402.24 1.42292 1.00492 0
M  V30 4191 C 399.372 2.84794 1.87363 0
M  V30 4192 H 400.565 2.99814 0.0716752 0
M  V30 4193 H 398.118 1.563 -0.000153234 0
M  V30 4194 H 398.853 2.09142 2.47851 0
M  V30 4195 H 398.638 3.60241 1.5482 0
M  V30 4196 H 400.128 3.3423 2.5036 0
M  V30 4197 N 400.565 -0.0233959 1.57583 0
M  V30 4198 C 401.813 -0.711654 1.89156 0
M  V30 4199 C 402.134 -1.75591 0.848096 0
M  V30 4200 O 401.404 -1.95547 -0.117566 0
M  V30 4201 H 399.984 -0.265835 0.698098 0
M  V30 4202 H 402.646 0.0119948 1.94896 0
M  V30 4203 H 401.742 -1.19766 2.88206 0
M  V30 4204 N 402.043 -1.548 -0.295768 0
M  V30 4205 C 403.291 -1.73985 -1.02828 0
M  V30 4206 C 403.612 -0.531406 -1.87619 0
M  V30 4207 O 402.882 0.454221 -1.90561 0
M  V30 4208 H 401.462 -0.641556 -0.382642 0
M  V30 4209 H 404.124 -1.92163 -0.325489 0
M  V30 4210 H 403.22 -2.63129 -1.67838 0
M  V30 4211 N 403.521 0.559213 -1.47345 0
M  V30 4212 C 404.484 1.64854 -1.59235 0
M  V30 4213 C 405.484 1.53851 -0.467607 0
M  V30 4214 O 406.674 1.58045 -0.732617 0
M  V30 4215 C 403.806 3.04388 -1.53496 0
M  V30 4216 H 404.999 1.55662 -2.56339 0
M  V30 4217 H 402.552 0.778973 -1.35505 0
M  V30 4218 H 403.287 3.19115 -0.577604 0
M  V30 4219 H 403.072 3.13783 -2.35123 0
M  V30 4220 H 404.562 3.83642 -1.6495 0
M  V30 4221 N 404.999 1.35443 0.805782 0
M  V30 4222 C 405.929 1.31095 1.93226 0
M  V30 4223 C 406.91 0.185244 1.69088 0
M  V30 4224 O 408.095 0.380332 1.90439 0
M  V30 4225 C 405.225 1.08299 3.29983 0
M  V30 4226 C 404.179 2.17519 3.68605 0
M  V30 4227 C 403.505 1.79887 5.03532 0
M  V30 4228 C 404.805 3.5949 3.78898 0
M  V30 4229 H 406.499 2.25352 1.97122 0
M  V30 4230 H 404.045 1.0848 0.946996 0
M  V30 4231 H 405.998 1.03897 4.08391 0
M  V30 4232 H 404.722 0.104885 3.26432 0
M  V30 4233 H 403.381 2.2102 2.92482 0
M  V30 4234 H 403.029 0.80693 4.96485 0
M  V30 4235 H 402.729 2.53001 5.30344 0
M  V30 4236 H 404.253 1.77011 5.84379 0
M  V30 4237 H 405.667 3.58307 4.47536 0
M  V30 4238 H 404.064 4.31371 4.1718 0
M  V30 4239 H 405.134 3.95584 2.80431 0
M  V30 4240 N 406.477 -1.02803 1.19454 0
M  V30 4241 C 407.717 -1.77769 1.00883 0
M  V30 4242 C 408.081 -1.86596 -0.45233 0
M  V30 4243 O 409.282 -2.57895 -0.757877 0
M  V30 4244 C 407.553 -3.16486 1.66046 0
M  V30 4245 S 409.112 -4.07632 1.62424 0
M  V30 4246 H 405.93 -0.611949 0.361993 0
M  V30 4247 H 408.532 -1.23175 1.51816 0
M  V30 4248 H 407.236 -3.0768 2.7159 0
M  V30 4249 H 406.767 -3.76156 1.15196 0
M  V30 4250 H 408.782 -4.91937 0.64903 0
M  V30 4251 N 407.956 -0.998596 -1.21925 0
M  V30 4252 C 408.919 -0.558679 -2.22287 0
M  V30 4253 C 409.919 0.361525 -1.56683 0
M  V30 4254 O 411.109 0.152695 -1.73529 0
M  V30 4255 C 408.241 0.18661 -3.40389 0
M  V30 4256 H 409.434 -1.4463 -2.62721 0
M  V30 4257 H 406.987 -0.786413 -1.35075 0
M  V30 4258 H 407.722 1.08996 -3.05435 0
M  V30 4259 H 407.507 -0.474188 -3.89222 0
M  V30 4260 H 408.997 0.482367 -4.14805 0
M  V30 4261 N 409.434 1.37368 -0.772513 0
M  V30 4262 C 410.382 2.32134 -0.147111 0
M  V30 4263 C 411.376 1.54972 0.684106 0
M  V30 4264 O 412.582 1.70363 0.581083 0
M  V30 4265 H 408.957 0.751449 -0.028786 0
M  V30 4266 H 410.928 2.82464 -0.962112 0
M  V30 4267 C 409.677 3.40226 0.71703 0
M  V30 4268 H 409 3.99706 0.0867951 0
M  V30 4269 H 410.44 4.08897 1.12159 0
M  V30 4270 C 408.899 2.80372 1.86797 0
M  V30 4271 O 409.429 2.71183 2.96349 0
M  V30 4272 N 407.635 2.37904 1.66883 0
M  V30 4273 H 407.182 2.45578 0.777759 0
M  V30 4274 H 407.14 1.98202 2.44056 0
M  V30 4275 N 410.912 0.523116 1.48665 0
M  V30 4276 C 412.16 -0.0134497 2.02096 0
M  V30 4277 C 412.481 -1.35418 1.40311 0
M  V30 4278 O 411.751 -1.87543 0.566074 0
M  V30 4279 H 410.331 -0.00795915 0.746958 0
M  V30 4280 H 412.993 0.685388 1.82451 0
M  V30 4281 H 412.089 -0.126849 3.11842 0
M  V30 4282 N 412.39 -1.55475 0.257931 0
M  V30 4283 C 413.353 -2.20551 -0.623706 0
M  V30 4284 C 414.353 -1.17809 -1.09443 0
M  V30 4285 O 415.543 -1.42823 -0.997362 0
M  V30 4286 C 412.675 -2.85784 -1.8585 0
M  V30 4287 H 413.868 -2.99848 -0.0557743 0
M  V30 4288 H 411.421 -1.56298 0.0084422 0
M  V30 4289 H 412.156 -2.10453 -2.46739 0
M  V30 4290 H 411.941 -3.61057 -1.52907 0
M  V30 4291 H 413.431 -3.35553 -2.48584 0
M  V30 4292 N 413.868 0.0150385 -1.57593 0
M  V30 4293 C 415.114 0.704043 -1.90187 0
M  V30 4294 C 415.447 1.74249 -0.857366 0
M  V30 4295 O 414.722 1.94092 0.125843 0
M  V30 4296 C 415.005 1.36087 -3.33395 0
M  V30 4297 C 414.858 0.334981 -4.48551 0
M  V30 4298 C 416.177 2.29112 -3.7576 0
M  V30 4299 H 413.296 0.254475 -0.691673 0
M  V30 4300 H 415.938 -0.0331678 -1.89971 0
M  V30 4301 H 414.088 1.98922 -3.3371 0
M  V30 4302 H 415.76 -0.292534 -4.60372 0
M  V30 4303 H 414.003 -0.344325 -4.32431 0
M  V30 4304 H 414.674 0.833316 -5.45674 0
M  V30 4305 H 417.15 1.76308 -3.76902 0
M  V30 4306 H 416.026 2.72043 -4.76743 0
M  V30 4307 H 416.287 3.16385 -3.08793 0
M  V30 4308 N 415.346 1.54954 0.287554 0
M  V30 4309 C 416.762 1.46469 0.633964 0
M  V30 4310 C 416.962 0.666865 1.90145 0
M  V30 4311 O 416.018 0.179906 2.51858 0
M  V30 4312 C 417.331 2.90556 0.774454 0
M  V30 4313 C 418.879 3.00681 0.869462 0
M  V30 4314 C 419.354 4.45993 1.04184 0
M  V30 4315 N 420.845 4.4976 1.10772 0
M  V30 4316 C 421.58 5.59393 1.25964 0
M  V30 4317 N 421.076 6.78923 1.37968 0
M  V30 4318 N 422.869 5.47107 1.28959 0
M  V30 4319 H 415.02 2.05288 -0.545041 0
M  V30 4320 H 417.283 0.930305 -0.182308 0
M  V30 4321 H 416.989 3.51594 -0.086207 0
M  V30 4322 H 416.863 3.38743 1.6593 0
M  V30 4323 H 419.25 2.39749 1.7206 0
M  V30 4324 H 419.331 2.55769 -0.0396831 0
M  V30 4325 H 418.975 5.07524 0.195422 0
M  V30 4326 H 418.905 4.88548 1.96542 0
M  V30 4327 H 421.396 3.63651 1.02794 0
M  V30 4328 H 421.709 7.58231 1.49353 0
M  V30 4329 H 420.054 6.81763 1.34999 0
M  V30 4330 H 423.245 4.52668 1.19202 0
M  V30 4331 H 423.418 6.32595 1.40455 0
M  V30 4332 N 416.824 -0.551391 1.4764 0
M  V30 4333 C 417.756 -1.67333 1.56628 0
M  V30 4334 C 418.769 -1.56398 0.452045 0
M  V30 4335 O 419.958 -1.6325 0.721926 0
M  V30 4336 C 417.058 -3.05841 1.45994 0
M  V30 4337 C 416.231 -3.42472 2.72088 0
M  V30 4338 C 415.29 -4.60168 2.55209 0
M  V30 4339 O 414.316 -4.64458 3.2904 0
M  V30 4340 N 415.518 -5.57024 1.63416 0
M  V30 4341 H 418.283 -1.60066 2.53375 0
M  V30 4342 H 415.844 -0.738169 1.44093 0
M  V30 4343 H 417.836 -3.8242 1.32428 0
M  V30 4344 H 416.406 -3.07302 0.573071 0
M  V30 4345 H 415.626 -2.55284 3.00373 0
M  V30 4346 H 416.914 -3.63723 3.55785 0
M  V30 4347 H 416.312 -5.56319 1.02594 0
M  V30 4348 H 414.869 -6.32906 1.558 0
M  V30 4349 N 418.302 -1.35869 -0.798587 0
M  V30 4350 C 419.55 -1.29332 -1.55298 0
M  V30 4351 C 419.871 0.129729 -1.94568 0
M  V30 4352 O 419.141 1.06796 -1.6423 0
M  V30 4353 H 417.721 -0.475737 -0.57592 0
M  V30 4354 H 420.383 -1.70062 -0.952093 0
M  V30 4355 H 419.479 -1.91458 -2.46476 0
M  V30 4356 N 419.78 1.02168 -1.19998 0
M  V30 4357 C 421.057 1.72816 -0.916191 0
M  V30 4358 C 421.437 2.03081 0.576325 0
M  V30 4359 O 420.785 1.69122 1.53656 0
M  V30 4360 C 420.995 2.9997 -1.78378 0
M  V30 4361 C 422.343 3.73336 -2.02251 0
M  V30 4362 O 423.367 3.09914 -1.75589 0
M  V30 4363 O 422.226 4.87371 -2.47249 0
M  V30 4364 H 419.32 0.752924 -0.342103 0
M  V30 4365 H 421.866 1.08062 -1.30846 0
M  V30 4366 H 420.638 2.73888 -2.79466 0
M  V30 4367 H 420.261 3.72464 -1.39126 0
M  V30 4368 N 421.258 1.00505 1.21394 0
M  V30 4369 C 422.535 0.603277 1.86064 0
M  V30 4370 C 422.915 -0.919095 1.90042 0
M  V30 4371 O 422.263 -1.80607 1.39977 0
M  V30 4372 C 422.473 1.23772 3.26315 0
M  V30 4373 C 423.821 1.34586 4.02705 0
M  V30 4374 O 424.845 1.19304 3.35626 0
M  V30 4375 O 423.704 1.59169 5.22807 0
M  V30 4376 H 420.798 0.206634 0.800769 0
M  V30 4377 H 423.344 1.1017 1.29076 0
M  V30 4378 H 422.116 2.27848 3.18121 0
M  V30 4379 H 421.739 0.725648 3.90922 0
M  V30 4380 N 422.737 -1.36956 0.779787 0
M  V30 4381 C 423.985 -1.99097 0.347079 0
M  V30 4382 C 424.306 -1.62206 -1.08232 0
M  V30 4383 O 423.576 -0.891373 -1.74446 0
M  V30 4384 H 422.156 -0.736409 0.125342 0
M  V30 4385 H 424.818 -1.67308 0.999696 0
M  V30 4386 H 423.914 -3.09107 0.431162 0
M  V30 4387 N 424.215 -0.530993 -1.48385 0
M  V30 4388 C 425.178 0.220497 -2.28137 0
M  V30 4389 C 426.178 0.866851 -1.35434 0
M  V30 4390 O 427.368 0.726746 -1.58316 0
M  V30 4391 C 424.5 1.31921 -3.1434 0
M  V30 4392 H 425.693 -0.479714 -2.96038 0
M  V30 4393 H 423.246 -0.286968 -1.53643 0
M  V30 4394 H 423.981 2.05264 -2.51072 0
M  V30 4395 H 423.766 0.86085 -3.82533 0
M  V30 4396 H 425.256 1.84776 -3.74497 0
M  V30 4397 N 425.693 1.55336 -0.266172 0
M  V30 4398 C 426.656 2.20878 0.612001 0
M  V30 4399 C 427.656 1.18388 1.08816 0
M  V30 4400 O 428.846 1.4335 0.989774 0
M  V30 4401 C 425.978 2.86765 1.84332 0
M  V30 4402 H 427.171 2.99873 0.0398718 0
M  V30 4403 H 424.724 1.56291 -0.0167309 0
M  V30 4404 H 425.459 2.11759 2.45619 0
M  V30 4405 H 425.244 3.61862 1.5099 0
M  V30 4406 H 426.734 3.36867 2.46801 0
M  V30 4407 N 427.171 -0.0066808 1.57599 0
M  V30 4408 C 428.101 -0.999296 2.11036 0
M  V30 4409 C 429.082 -1.36278 1.01795 0
M  V30 4410 O 430.267 -1.4477 1.29442 0
M  V30 4411 C 427.397 -2.29328 2.60818 0
M  V30 4412 C 426.351 -2.07159 3.74525 0
M  V30 4413 C 425.677 -3.42512 4.10596 0
M  V30 4414 C 426.977 -1.43959 5.02069 0
M  V30 4415 H 428.671 -0.554382 2.94223 0
M  V30 4416 H 426.217 -0.265221 1.41536 0
M  V30 4417 H 428.17 -2.99117 2.96828 0
M  V30 4418 H 426.894 -2.7592 1.74745 0
M  V30 4419 H 425.553 -1.39797 3.38899 0
M  V30 4420 H 425.201 -3.86795 3.21556 0
M  V30 4421 H 424.901 -3.28498 4.87199 0
M  V30 4422 H 426.425 -4.13628 4.4916 0
M  V30 4423 H 427.839 -2.03696 5.35893 0
M  V30 4424 H 426.236 -1.40452 5.83432 0
M  V30 4425 H 427.306 -0.407992 4.83181 0
M  V30 4426 N 428.649 -1.55105 -0.279332 0
M  V30 4427 C 429.559 -1.90638 -1.36727 0
M  V30 4428 C 430.575 -0.802899 -1.54368 0
M  V30 4429 O 431.751 -1.10138 -1.68616 0
M  V30 4430 C 428.816 -2.16547 -2.70755 0
M  V30 4431 C 427.877 -3.40146 -2.61915 0
M  V30 4432 C 427.11 -3.6481 -3.8955 0
M  V30 4433 O 427.333 -2.92095 -4.89935 0
M  V30 4434 O 426.267 -4.58343 -3.90135 0
M  V30 4435 H 430.093 -2.83237 -1.09591 0
M  V30 4436 H 427.678 -1.4157 -0.477306 0
M  V30 4437 H 429.56 -2.34665 -3.50014 0
M  V30 4438 H 428.235 -1.27131 -2.9769 0
M  V30 4439 H 427.142 -3.2737 -1.81052 0
M  V30 4440 H 428.475 -4.29761 -2.3993 0
M  V30 4441 N 430.127 0.543554 -1.4793 0
M  V30 4442 C 431.373 1.30201 -1.55485 0
M  V30 4443 C 431.706 1.92925 -0.222201 0
M  V30 4444 O 430.981 1.78586 0.77053 0
M  V30 4445 C 431.264 2.40174 -2.68307 0
M  V30 4446 C 431.117 1.8223 -4.11233 0
M  V30 4447 C 432.436 3.42024 -2.76961 0
M  V30 4448 H 429.555 0.472036 -0.565996 0
M  V30 4449 H 432.197 0.606914 -1.80046 0
M  V30 4450 H 430.347 2.99463 -2.47495 0
M  V30 4451 H 432.019 1.27096 -4.43446 0
M  V30 4452 H 430.262 1.12832 -4.18869 0
M  V30 4453 H 430.933 2.61793 -4.85972 0
M  V30 4454 H 433.409 2.92672 -2.95774 0
M  V30 4455 H 432.285 4.16383 -3.57654 0
M  V30 4456 H 432.546 4.0173 -1.84568 0
M  V30 4457 N 431.605 1.3629 0.791371 0
M  V30 4458 C 432.854 1.29742 1.54434 0
M  V30 4459 C 433.167 -0.121729 1.95221 0
M  V30 4460 O 434.373 -0.309579 2.69729 0
M  V30 4461 C 432.829 2.27623 2.78776 0
M  V30 4462 C 432.437 3.74963 2.45166 0
M  V30 4463 C 434.181 2.30047 3.56761 0
M  V30 4464 C 432.088 4.64626 3.65891 0
M  V30 4465 H 431.018 0.482113 0.579727 0
M  V30 4466 H 433.669 1.61642 0.868565 0
M  V30 4467 H 432.051 1.88714 3.48142 0
M  V30 4468 H 433.225 4.22596 1.83709 0
M  V30 4469 H 431.54 3.75295 1.80396 0
M  V30 4470 H 434.137 2.94247 4.46456 0
M  V30 4471 H 434.48 1.30846 3.95203 0
M  V30 4472 H 435.013 2.67563 2.94372 0
M  V30 4473 H 431.752 5.64883 3.32547 0
M  V30 4474 H 431.272 4.2171 4.26521 0
M  V30 4475 H 432.951 4.80801 4.32943 0
M  V30 4476 N 433.083 -1.0153 1.20538 0
M  V30 4477 C 433.993 -2.13557 0.971113 0
M  V30 4478 C 435.009 -1.73845 -0.0734366 0
M  V30 4479 O 436.185 -2.01075 0.114299 0
M  V30 4480 C 433.25 -3.42661 0.527639 0
M  V30 4481 C 432.311 -3.96608 1.64319 0
M  V30 4482 C 431.544 -5.1955 1.22078 0
M  V30 4483 O 431.767 -5.70329 0.0900198 0
M  V30 4484 O 430.701 -5.66681 2.02871 0
M  V30 4485 H 434.527 -2.3619 1.90913 0
M  V30 4486 H 432.112 -1.11946 0.989362 0
M  V30 4487 H 433.994 -4.20404 0.289621 0
M  V30 4488 H 432.669 -3.21441 -0.381779 0
M  V30 4489 H 431.576 -3.20139 1.93551 0
M  V30 4490 H 432.909 -4.22219 2.52966 0
M  V30 4491 N 434.561 -1.01147 -1.20859 0
M  V30 4492 C 435.807 -0.698899 -1.90377 0
M  V30 4493 C 436.14 0.76904 -1.78324 0
M  V30 4494 O 435.415 1.55817 -1.16409 0
M  V30 4495 C 435.698 -1.12878 -3.41951 0
M  V30 4496 C 435.551 -2.65665 -3.62963 0
M  V30 4497 C 436.87 -0.696114 -4.3456 0
M  V30 4498 H 433.989 -0.255372 -0.691342 0
M  V30 4499 H 436.631 -1.25831 -1.42361 0
M  V30 4500 H 434.781 -0.652827 -3.82976 0
M  V30 4501 H 436.453 -3.21074 -3.31224 0
M  V30 4502 H 434.696 -3.06878 -3.06608 0
M  V30 4503 H 435.367 -2.90797 -4.69192 0
M  V30 4504 H 437.843 -1.10521 -4.01154 0
M  V30 4505 H 436.719 -1.025 -5.39245 0
M  V30 4506 H 436.98 0.402465 -4.40264 0
M  V30 4507 N 436.039 1.36541 -0.78704 0
M  V30 4508 C 436.989 2.27459 -0.156957 0
M  V30 4509 C 437.973 1.46843 0.657709 0
M  V30 4510 O 439.165 1.69245 0.518173 0
M  V30 4511 C 436.294 3.35893 0.709278 0
M  V30 4512 C 435.38 4.23947 -0.114049 0
M  V30 4513 N 435.771 4.92145 -1.16736 0
M  V30 4514 C 434.069 4.4587 0.107497 0
M  V30 4515 C 434.77 5.57261 -1.66837 0
M  V30 4516 N 433.746 5.3473 -0.977992 0
M  V30 4517 H 437.548 2.77669 -0.963185 0
M  V30 4518 H 435.062 1.49839 -0.62627 0
M  V30 4519 H 437.059 3.99953 1.17656 0
M  V30 4520 H 435.719 2.87238 1.51408 0
M  V30 4521 H 436.73 4.94169 -1.54976 0
M  V30 4522 H 433.407 4.08056 0.882994 0
M  V30 4523 H 434.797 6.21728 -2.54762 0
M  V30 4524 N 437.518 0.538854 1.48102 0
M  V30 4525 C 438.934 0.19732 1.58376 0
M  V30 4526 C 439.134 -1.29971 1.5398 0
M  V30 4527 O 438.19 -2.07861 1.43352 0
M  V30 4528 C 439.503 0.807716 2.89649 0
M  V30 4529 C 441.051 0.77726 3.03196 0
M  V30 4530 C 441.526 1.36639 4.37143 0
M  V30 4531 N 443.017 1.32875 4.43732 0
M  V30 4532 C 443.752 1.7544 5.45901 0
M  V30 4533 N 443.248 2.25776 6.54979 0
M  V30 4534 N 445.041 1.66623 5.36836 0
M  V30 4535 H 437.192 1.5117 1.49202 0
M  V30 4536 H 439.455 0.629327 0.708979 0
M  V30 4537 H 439.161 1.85909 2.98548 0
M  V30 4538 H 439.035 0.289975 3.76084 0
M  V30 4539 H 441.422 -0.265374 2.93904 0
M  V30 4540 H 441.503 1.33256 2.18349 0
M  V30 4541 H 441.147 2.408 4.47189 0
M  V30 4542 H 441.077 0.786689 5.20691 0
M  V30 4543 H 443.568 0.96037 3.65493 0
M  V30 4544 H 443.881 2.56226 7.29087 0
M  V30 4545 H 442.226 2.29775 6.55918 0
M  V30 4546 H 445.417 1.27089 4.50517 0
M  V30 4547 H 445.59 2.00115 6.16326 0
M  V30 4548 N 438.996 -1.55193 0.274407 0
M  V30 4549 C 440.242 -1.99877 -0.343086 0
M  V30 4550 C 440.575 -1.16256 -1.55558 0
M  V30 4551 O 439.85 -0.232462 -1.93106 0
M  V30 4552 C 440.133 -3.52706 -0.725965 0
M  V30 4553 C 439.986 -4.47081 0.493818 0
M  V30 4554 C 441.305 -4.11422 -1.56268 0
M  V30 4555 H 438.424 -0.726625 -0.123229 0
M  V30 4556 H 441.066 -1.86136 0.38121 0
M  V30 4557 H 439.216 -3.64546 -1.34307 0
M  V30 4558 H 440.888 -4.47186 1.13237 0
M  V30 4559 H 439.131 -4.1877 1.13201 0
M  V30 4560 H 439.802 -5.51699 0.18217 0
M  V30 4561 H 442.278 -4.02855 -1.04151 0
M  V30 4562 H 441.154 -5.18568 -1.79939 0
M  V30 4563 H 441.415 -3.61607 -2.54348 0
M  V30 4564 N 440.474 -0.00167713 -1.576 0
M  V30 4565 C 441.722 0.681471 -1.90264 0
M  V30 4566 C 442.043 1.7422 -0.875924 0
M  V30 4567 O 441.313 1.95709 0.0864412 0
M  V30 4568 H 439.893 0.254696 -0.702239 0
M  V30 4569 H 442.555 -0.0429996 -1.94853 0
M  V30 4570 H 441.651 1.15166 -2.90075 0
M  V30 4571 N 441.952 1.55251 0.271103 0
M  V30 4572 C 442.9 1.89054 1.35504 0
M  V30 4573 C 443.894 0.767064 1.51038 0
M  V30 4574 O 445.1 0.951429 1.528 0
M  V30 4575 H 441.475 0.600072 0.45323 0
M  V30 4576 H 443.446 2.79598 1.04247 0
M  V30 4577 C 442.195 2.18068 2.70817 0
M  V30 4578 H 441.518 3.04005 2.59656 0
M  V30 4579 H 442.958 2.4564 3.45597 0
M  V30 4580 C 441.417 0.988901 3.2206 0
M  V30 4581 O 441.947 0.224501 4.01072 0
M  V30 4582 N 440.153 0.786085 2.79766 0
M  V30 4583 H 439.7 1.40937 2.15626 0
M  V30 4584 H 439.658 -0.00969349 3.14399 0
M  V30 4585 N 443.43 -0.535701 1.48216 0
M  V30 4586 C 444.655 -1.32149 1.59848 0
M  V30 4587 C 445.08 -1.86338 0.256842 0
M  V30 4588 O 444.438 -1.64107 -0.770632 0
M  V30 4589 C 444.486 -2.45224 2.64381 0
M  V30 4590 O 443.59 -3.48093 2.21144 0
M  V30 4591 H 442.931 -0.391634 0.536208 0
M  V30 4592 H 445.461 -0.645202 1.94161 0
M  V30 4593 H 445.471 -2.91491 2.85476 0
M  V30 4594 H 444.146 -2.05143 3.61786 0
M  V30 4595 H 442.723 -3.07984 2.10239 0
M  V30 4596 N 444.908 -1.36708 -0.784132 0
M  V30 4597 C 445.855 -1.31466 -1.89698 0
M  V30 4598 C 446.825 -0.18239 -1.65096 0
M  V30 4599 O 448.01 -0.369762 -1.87183 0
M  V30 4600 C 445.15 -1.1151 -3.26588 0
M  V30 4601 C 444.263 -2.33859 -3.63227 0
M  V30 4602 C 443.398 -2.06873 -4.89262 0
M  V30 4603 C 442.437 -3.25154 -5.18595 0
M  V30 4604 N 441.574 -2.978 -6.35814 0
M  V30 4605 H 446.414 -2.26619 -1.93515 0
M  V30 4606 H 443.951 -1.12625 -0.946256 0
M  V30 4607 H 445.909 -0.979653 -4.05535 0
M  V30 4608 H 444.539 -0.200103 -3.22179 0
M  V30 4609 H 443.591 -2.58188 -2.79362 0
M  V30 4610 H 444.903 -3.22109 -3.8085 0
M  V30 4611 H 444.057 -1.90289 -5.76086 0
M  V30 4612 H 442.796 -1.15942 -4.73718 0
M  V30 4613 H 441.801 -3.42292 -4.30251 0
M  V30 4614 H 443.026 -4.1692 -5.36055 0
M  V30 4615 H 440.972 -2.09485 -6.21653 0
M  V30 4616 H 440.889 -3.7959 -6.53794 0
M  V30 4617 H 442.157 -2.84805 -7.25607 0
M  V30 4618 N 446.386 1.0089 -1.21074 0
M  V30 4619 C 447.296 2.13039 -0.982425 0
M  V30 4620 C 448.312 1.73881 0.0642161 0
M  V30 4621 O 449.488 2.01012 -0.12496 0
M  V30 4622 C 446.553 3.42377 -0.545803 0
M  V30 4623 C 445.614 3.95731 -1.6642 0
M  V30 4624 C 444.847 5.18896 -1.24832 0
M  V30 4625 O 445.07 5.70273 -0.120265 0
M  V30 4626 O 444.004 5.65597 -2.05873 0
M  V30 4627 H 447.83 2.35175 -1.92163 0
M  V30 4628 H 445.415 1.1142 -0.995285 0
M  V30 4629 H 447.297 4.20244 -0.311912 0
M  V30 4630 H 445.972 3.21639 0.364727 0
M  V30 4631 H 444.879 3.19108 -1.95246 0
M  V30 4632 H 446.212 4.20872 -2.55201 0
M  V30 4633 N 447.864 1.01787 1.20321 0
M  V30 4634 C 448.814 0.559976 2.21016 0
M  V30 4635 C 449.798 -0.385366 1.56217 0
M  V30 4636 O 450.99 -0.208126 1.75772 0
M  V30 4637 C 448.119 -0.0990553 3.43157 0
M  V30 4638 C 447.205 0.86807 4.15121 0
M  V30 4639 N 447.596 2.0261 4.63447 0
M  V30 4640 C 445.894 0.689162 4.40643 0
M  V30 4641 C 446.595 2.63518 5.18588 0
M  V30 4642 N 445.571 1.91569 5.08726 0
M  V30 4643 H 449.373 1.44281 2.56048 0
M  V30 4644 H 446.887 0.883381 1.36272 0
M  V30 4645 H 448.884 -0.444643 4.14522 0
M  V30 4646 H 447.544 -0.977709 3.0963 0
M  V30 4647 H 448.555 2.40598 4.58621 0
M  V30 4648 H 445.232 -0.14133 4.17261 0
M  V30 4649 H 446.622 3.61527 5.66346 0
M  V30 4650 N 449.342 -1.36122 0.79427 0
M  V30 4651 C 450.272 -2.32551 0.210328 0
M  V30 4652 C 451.253 -1.56884 -0.657386 0
M  V30 4653 O 452.438 -1.85014 -0.590207 0
M  V30 4654 C 449.568 -3.41128 -0.651819 0
M  V30 4655 C 448.522 -4.27842 0.116395 0
M  V30 4656 C 447.848 -5.2763 -0.86666 0
M  V30 4657 C 449.148 -5.05647 1.30837 0
M  V30 4658 H 450.842 -2.81636 1.01594 0
M  V30 4659 H 448.388 -1.35407 0.489981 0
M  V30 4660 H 450.341 -4.07581 -1.07031 0
M  V30 4661 H 449.065 -2.90622 -1.49019 0
M  V30 4662 H 447.724 -3.62952 0.515915 0
M  V30 4663 H 447.372 -4.73395 -1.70019 0
M  V30 4664 H 447.072 -5.86514 -0.35705 0
M  V30 4665 H 448.596 -5.96955 -1.28361 0
M  V30 4666 H 450.01 -5.65113 0.965393 0
M  V30 4667 H 448.407 -5.73967 1.75161 0
M  V30 4668 H 449.477 -4.37006 2.10128 0
M  V30 4669 N 450.82 -0.546701 -1.47814 0
M  V30 4670 C 452.231 -0.110564 -1.86372 0
M  V30 4671 C 452.582 1.31678 -1.45449 0
M  V30 4672 O 451.707 1.98889 -0.852758 0
M  V30 4673 C 452.302 -0.193873 -3.38245 0
M  V30 4674 C 450.861 0.187164 -3.75934 0
M  V30 4675 C 450.008 -0.546166 -2.71868 0
M  V30 4676 H 452.959 -0.757022 -1.39481 0
M  V30 4677 H 452.98 0.590218 -3.75895 0
M  V30 4678 H 452.492 -1.23282 -3.67999 0
M  V30 4679 H 450.593 1.22762 -3.51796 0
M  V30 4680 H 450.706 -0.164083 -4.78819 0
M  V30 4681 H 449.07 0.00953904 -2.54698 0
M  V30 4682 H 449.853 -1.58606 -3.04465 0
M  V30 4683 N 452.299 1.55045 -0.282633 0
M  V30 4684 C 453.229 2.2579 0.595066 0
M  V30 4685 C 454.21 1.25074 1.15284 0
M  V30 4686 O 455.395 1.5381 1.18559 0
M  V30 4687 C 452.525 2.98472 1.77572 0
M  V30 4688 C 451.479 4.0618 1.34914 0
M  V30 4689 C 450.805 4.66477 2.6135 0
M  V30 4690 C 452.105 5.1996 0.493821 0
M  V30 4691 H 453.799 2.994 0.00505653 0
M  V30 4692 H 451.345 1.44 0.000992001 0
M  V30 4693 H 453.298 3.46677 2.39568 0
M  V30 4694 H 452.022 2.2241 2.39168 0
M  V30 4695 H 450.681 3.58797 0.752338 0
M  V30 4696 H 450.329 3.87074 3.2122 0
M  V30 4697 H 450.029 5.39207 2.33516 0
M  V30 4698 H 451.553 5.17435 3.24181 0
M  V30 4699 H 452.967 5.64172 1.01898 0
M  V30 4700 H 451.364 5.99299 0.310047 0
M  V30 4701 H 452.434 4.82462 -0.485593 0
M  V30 4702 N 453.777 0.010035 1.57597 0
M  V30 4703 C 455.188 -0.531426 1.78977 0
M  V30 4704 C 455.539 -1.73375 0.918454 0
M  V30 4705 O 454.664 -2.16047 0.123635 0
M  V30 4706 C 455.259 -0.97086 3.24592 0
M  V30 4707 C 453.818 -1.45756 3.47033 0
M  V30 4708 C 452.965 -0.413384 2.74201 0
M  V30 4709 H 455.916 0.236166 1.56933 0
M  V30 4710 H 455.937 -1.83633 3.33255 0
M  V30 4711 H 455.449 -0.0955893 3.87982 0
M  V30 4712 H 453.55 -2.35339 2.88871 0
M  V30 4713 H 453.663 -1.4781 4.55729 0
M  V30 4714 H 452.027 -0.877266 2.39115 0
M  V30 4715 H 452.81 0.453092 3.40297 0
M  V30 4716 N 455.255 -1.55392 -0.262866 0
M  V30 4717 C 456.48 -1.80847 -1.01533 0
M  V30 4718 C 456.905 -0.584946 -1.78774 0
M  V30 4719 O 456.263 0.465701 -1.75217 0
M  V30 4720 C 456.311 -3.03866 -1.94159 0
M  V30 4721 O 455.415 -2.79662 -3.03089 0
M  V30 4722 H 454.756 -0.597441 -0.289759 0
M  V30 4723 H 457.286 -2.02553 -0.288698 0
M  V30 4724 H 457.296 -3.32872 -2.35924 0
M  V30 4725 H 455.971 -3.92564 -1.37354 0
M  V30 4726 H 454.548 -2.61781 -2.65566 0
M  V30 4727 N 456.733 0.527833 -1.48498 0
M  V30 4728 C 457.643 1.65907 -1.65867 0
M  V30 4729 C 458.659 1.6537 -0.541192 0
M  V30 4730 O 459.835 1.84282 -0.812534 0
M  V30 4731 C 456.9 3.02364 -1.69637 0
M  V30 4732 C 455.961 3.1374 -2.93028 0
M  V30 4733 C 455.194 4.43688 -2.96609 0
M  V30 4734 O 455.417 5.30913 -2.08538 0
M  V30 4735 O 454.351 4.59475 -3.88802 0
M  V30 4736 H 458.177 1.5419 -2.61647 0
M  V30 4737 H 455.762 0.701163 -1.31924 0
M  V30 4738 H 457.644 3.83515 -1.74625 0
M  V30 4739 H 456.319 3.14401 -0.770312 0
M  V30 4740 H 455.226 2.31877 -2.93571 0
M  V30 4741 H 456.559 3.06621 -3.85026 0
M  V30 4742 N 458.211 1.37122 0.776871 0
M  V30 4743 C 459.174 1.32301 1.8716 0
M  V30 4744 C 460.174 0.228099 1.59174 0
M  V30 4745 O 461.364 0.483642 1.67352 0
M  V30 4746 C 458.496 1.054 3.24197 0
M  V30 4747 H 459.689 2.29673 1.92848 0
M  V30 4748 H 457.242 1.22077 0.97606 0
M  V30 4749 H 457.977 0.0853872 3.24188 0
M  V30 4750 H 457.762 1.84648 3.45901 0
M  V30 4751 H 459.252 1.04664 4.04271 0
M  V30 4752 N 459.689 -1.00246 1.21608 0
M  V30 4753 C 460.937 -1.73717 1.0328 0
M  V30 4754 C 461.258 -1.90102 -0.434318 0
M  V30 4755 O 460.528 -1.45376 -1.31311 0
M  V30 4756 H 459.108 -0.643613 0.379172 0
M  V30 4757 H 461.77 -1.20787 1.52959 0
M  V30 4758 H 460.866 -2.73535 1.50283 0
M  V30 4759 N 461.167 -1.02423 -1.1978 0
M  V30 4760 C 462.578 -0.748389 -1.71044 0
M  V30 4761 C 462.929 0.732398 -1.82017 0
M  V30 4762 O 462.054 1.57116 -1.48807 0
M  V30 4763 C 462.649 -1.35187 -3.1066 0
M  V30 4764 C 461.208 -1.12472 -3.59203 0
M  V30 4765 C 460.355 -1.45283 -2.36195 0
M  V30 4766 H 463.306 -1.19275 -1.04686 0
M  V30 4767 H 463.327 -0.746408 -3.73107 0
M  V30 4768 H 462.839 -2.4296 -3.02642 0
M  V30 4769 H 460.94 -0.0649983 -3.72543 0
M  V30 4770 H 461.053 -1.81016 -4.43588 0
M  V30 4771 H 459.417 -0.872034 -2.39307 0
M  V30 4772 H 460.2 -2.54129 -2.30811 0
M  V30 4773 N 462.645 1.35699 -0.801477 0
M  V30 4774 C 463.873 2.03157 -0.391768 0
M  V30 4775 C 464.288 1.60412 0.995668 0
M  V30 4776 O 463.645 0.799228 1.64069 0
M  V30 4777 C 463.696 3.58566 -0.459671 0
M  V30 4778 O 463.417 3.99756 -1.7924 0
M  V30 4779 C 464.918 4.4328 -0.0421205 0
M  V30 4780 H 462.138 0.651688 -0.159825 0
M  V30 4781 H 464.682 1.73426 -1.08368 0
M  V30 4782 H 462.837 3.86963 0.183939 0
M  V30 4783 H 463.251 4.94387 -1.75162 0
M  V30 4784 H 464.725 5.51821 -0.140754 0
M  V30 4785 H 465.202 4.27383 1.01196 0
M  V30 4786 H 465.808 4.20168 -0.658687 0
M  V30 4787 N 464.123 0.554532 1.47522 0
M  V30 4788 C 465.534 0.120446 1.86311 0
M  V30 4789 C 465.885 -1.30904 1.46145 0
M  V30 4790 O 465.01 -1.98434 0.863294 0
M  V30 4791 C 465.605 0.211808 3.38137 0
M  V30 4792 C 464.164 -0.167224 3.76028 0
M  V30 4793 C 463.311 0.560576 2.71575 0
M  V30 4794 H 466.262 0.764408 1.39077 0
M  V30 4795 H 466.283 -0.570275 3.76202 0
M  V30 4796 H 465.795 1.25232 3.6734 0
M  V30 4797 H 463.896 -1.20894 3.52442 0
M  V30 4798 H 464.009 0.189473 4.78725 0
M  V30 4799 H 462.373 0.00396836 2.547 0
M  V30 4800 H 463.156 1.60219 3.0362 0
M  V30 4801 N 465.601 -1.54893 0.290851 0
M  V30 4802 C 466.841 -2.01842 -0.322388 0
M  V30 4803 C 467.205 -1.17477 -1.51865 0
M  V30 4804 O 468.406 -1.54077 -2.20258 0
M  V30 4805 C 466.677 -3.50874 -0.679844 0
M  V30 4806 S 468.236 -4.19796 -1.27739 0
M  V30 4807 H 465.054 -0.704005 -0.0994866 0
M  V30 4808 H 467.656 -1.91015 0.416358 0
M  V30 4809 H 466.36 -4.09915 0.199435 0
M  V30 4810 H 465.891 -3.65717 -1.44964 0
M  V30 4811 H 467.906 -4.24729 -2.56554 0
M  V30 4812 N 467.08 -0.0183926 -1.57589 0
M  V30 4813 C 468.043 0.951986 -2.08494 0
M  V30 4814 C 469.043 1.26092 -0.997874 0
M  V30 4815 O 470.233 1.20304 -1.25987 0
M  V30 4816 C 467.365 2.27165 -2.54182 0
M  V30 4817 H 468.558 0.511307 -2.95509 0
M  V30 4818 H 466.111 0.229444 -1.54607 0
M  V30 4819 H 466.846 2.75884 -1.70465 0
M  V30 4820 H 466.631 2.06057 -3.33591 0
M  V30 4821 H 468.121 2.9674 -2.93828 0
M  V30 4822 N 468.558 1.5553 0.254621 0
M  V30 4823 C 469.969 1.67518 0.824286 0
M  V30 4824 C 470.32 0.614429 1.86331 0
M  V30 4825 O 469.445 -0.240736 2.15057 0
M  V30 4826 C 470.04 3.03692 1.50189 0
M  V30 4827 C 468.599 3.17646 2.01935 0
M  V30 4828 C 467.746 2.63373 0.867746 0
M  V30 4829 H 470.697 1.58671 0.0305843 0
M  V30 4830 H 470.718 2.97706 2.36962 0
M  V30 4831 H 470.23 3.80874 0.745431 0
M  V30 4832 H 468.331 2.45273 2.80485 0
M  V30 4833 H 468.444 4.24455 2.22204 0
M  V30 4834 H 466.808 2.20999 1.26616 0
M  V30 4835 H 467.591 3.43074 0.124498 0
M  V30 4836 N 470.036 -0.519951 1.48776 0
M  V30 4837 C 470.999 -1.60574 1.6355 0
M  V30 4838 C 471.999 -1.52557 0.508234 0
M  V30 4839 O 473.189 -1.56047 0.774262 0
M  V30 4840 C 470.321 -3.00211 1.61512 0
M  V30 4841 H 471.514 -1.4881 2.60376 0
M  V30 4842 H 469.067 -0.742772 1.37523 0
M  V30 4843 H 469.802 -3.17471 0.662009 0
M  V30 4844 H 469.587 -3.07439 2.43359 0
M  V30 4845 H 471.077 -3.79134 1.75064 0
M  V30 4846 N 471.514 -1.37532 -0.769588 0
M  V30 4847 C 472.739 -1.36231 -1.56384 0
M  V30 4848 C 473.164 0.0495849 -1.88035 0
M  V30 4849 O 472.522 1.02723 -1.49391 0
M  V30 4850 C 472.57 -2.20986 -2.84952 0
M  V30 4851 O 471.674 -1.61597 -3.79421 0
M  V30 4852 H 471.015 -0.465387 -0.473615 0
M  V30 4853 H 473.545 -1.81085 -0.952342 0
M  V30 4854 H 473.555 -2.34277 -3.34034 0
M  V30 4855 H 472.23 -3.23612 -2.61243 0
M  V30 4856 H 470.807 -1.57359 -3.38072 0
M  V30 4857 N 472.992 0.995999 -1.22138 0
M  V30 4858 C 474.239 1.7351 -1.04406 0
M  V30 4859 C 474.567 1.89884 0.421244 0
M  V30 4860 O 473.822 1.43683 1.32867 0
M  V30 4861 C 474.121 3.14553 -1.6968 0
M  V30 4862 C 473.787 3.18102 -3.19565 0
M  V30 4863 C 472.449 3.18778 -3.60464 0
M  V30 4864 C 474.801 3.14636 -4.15516 0
M  V30 4865 C 472.129 3.13684 -4.95801 0
M  V30 4866 C 474.481 3.11084 -5.50826 0
M  V30 4867 C 473.145 3.10074 -5.91109 0
M  V30 4868 H 472.415 0.634916 -0.38205 0
M  V30 4869 H 475.062 1.1667 -1.51857 0
M  V30 4870 H 473.367 3.74682 -1.14546 0
M  V30 4871 H 475.064 3.70477 -1.53454 0
M  V30 4872 H 471.654 3.18324 -2.86998 0
M  V30 4873 H 475.838 3.13266 -3.84939 0
M  V30 4874 H 471.094 3.11245 -5.26247 0
M  V30 4875 H 475.268 3.07357 -6.24904 0
M  V30 4876 H 472.895 3.05882 -6.95946 0
M  V30 4877 N 474.47 1.03057 1.19235 0
M  V30 4878 C 475.38 0.622922 2.26179 0
M  V30 4879 C 476.396 -0.346113 1.70523 0
M  V30 4880 O 477.572 -0.203572 2.00369 0
M  V30 4881 C 474.637 -0.0182063 3.46695 0
M  V30 4882 C 473.698 0.998546 4.17526 0
M  V30 4883 C 472.931 0.387917 5.32288 0
M  V30 4884 O 473.154 -0.808668 5.64639 0
M  V30 4885 O 472.088 1.1116 5.91546 0
M  V30 4886 H 475.914 1.51363 2.63292 0
M  V30 4887 H 473.499 0.800856 1.26122 0
M  V30 4888 H 475.381 -0.375606 4.19723 0
M  V30 4889 H 474.056 -0.882895 3.11427 0
M  V30 4890 H 472.963 1.40756 3.4661 0
M  V30 4891 H 474.296 1.83366 4.56769 0
M  V30 4892 N 475.948 -1.35272 0.808662 0
M  V30 4893 C 477.364 -1.51806 0.492653 0
M  V30 4894 C 477.564 -1.7574 -0.985778 0
M  V30 4895 O 476.62 -1.80003 -1.77074 0
M  V30 4896 C 477.933 -2.69202 1.33981 0
M  V30 4897 C 479.481 -2.8308 1.33547 0
M  V30 4898 C 479.956 -4.03502 2.16679 0
M  V30 4899 N 481.447 -4.10684 2.14227 0
M  V30 4900 C 482.182 -5.02984 2.75308 0
M  V30 4901 N 481.678 -6.00603 3.45323 0
M  V30 4902 N 483.471 -4.95746 2.64938 0
M  V30 4903 H 475.622 -1.17993 1.76611 0
M  V30 4904 H 477.885 -0.577476 0.751814 0
M  V30 4905 H 477.591 -2.581 2.38909 0
M  V30 4906 H 477.465 -3.63854 0.994491 0
M  V30 4907 H 479.852 -2.93631 0.294036 0
M  V30 4908 H 479.933 -1.89278 1.72068 0
M  V30 4909 H 479.577 -3.93711 3.20864 0
M  V30 4910 H 479.507 -4.96489 1.75517 0
M  V30 4911 H 481.998 -3.40802 1.63285 0
M  V30 4912 H 482.311 -6.67633 3.89212 0
M  V30 4913 H 480.656 -6.0077 3.49428 0
M  V30 4914 H 483.847 -4.18439 2.09825 0
M  V30 4915 H 484.02 -5.67487 3.12829 0
M  V30 4916 N 477.426 -0.562348 -1.47226 0
M  V30 4917 C 478.373 0.182461 -2.30078 0
M  V30 4918 C 479.343 0.903503 -1.39377 0
M  V30 4919 O 480.528 0.898188 -1.68337 0
M  V30 4920 C 477.668 1.20322 -3.23445 0
M  V30 4921 C 476.781 0.487717 -4.29238 0
M  V30 4922 C 475.916 1.49422 -5.09752 0
M  V30 4923 C 474.955 0.763976 -6.07314 0
M  V30 4924 N 474.092 1.71755 -6.80768 0
M  V30 4925 H 478.932 -0.530169 -2.93246 0
M  V30 4926 H 476.469 -0.273276 -1.44539 0
M  V30 4927 H 478.427 1.80768 -3.76004 0
M  V30 4928 H 477.057 1.88382 -2.6213 0
M  V30 4929 H 476.109 -0.231374 -3.79696 0
M  V30 4930 H 477.421 -0.0841003 -4.98729 0
M  V30 4931 H 476.575 2.17206 -5.66486 0
M  V30 4932 H 475.314 2.09995 -4.40174 0
M  V30 4933 H 474.319 0.0722344 -5.49753 0
M  V30 4934 H 475.544 0.16391 -6.78902 0
M  V30 4935 H 473.49 2.31177 -6.13916 0
M  V30 4936 H 473.407 1.19802 -7.46447 0
M  V30 4937 H 474.675 2.38638 -7.42073 0
M  V30 4938 N 478.904 1.54736 -0.299062 0
M  V30 4939 C 479.852 2.24897 0.593658 0
M  V30 4940 C 480.846 1.25429 1.13859 0
M  V30 4941 O 482.052 1.43286 1.08945 0
M  V30 4942 H 478.427 0.72207 0.210046 0
M  V30 4943 H 480.398 2.98393 -0.0206421 0
M  V30 4944 C 479.147 3.00159 1.75499 0
M  V30 4945 H 478.47 3.76501 1.34489 0
M  V30 4946 H 479.91 3.52535 2.35574 0
M  V30 4947 C 478.369 2.07015 2.65794 0
M  V30 4948 O 478.899 1.63692 3.66835 0
M  V30 4949 N 477.105 1.73012 2.33485 0
M  V30 4950 H 476.652 2.08439 1.51364 0
M  V30 4951 H 476.61 1.10965 2.94167 0
M  V30 4952 N 480.382 0.0267497 1.57577 0
M  V30 4953 C 481.292 -0.971633 2.13533 0
M  V30 4954 C 482.308 -1.35868 1.08701 0
M  V30 4955 O 483.484 -1.44058 1.40746 0
M  V30 4956 C 480.549 -2.23622 2.64941 0
M  V30 4957 C 479.61 -1.90982 3.8448 0
M  V30 4958 C 478.843 -3.11411 4.33427 0
M  V30 4959 O 479.066 -4.23992 3.81558 0
M  V30 4960 O 478 -2.93848 5.25297 0
M  V30 4961 H 481.826 -0.525853 2.99113 0
M  V30 4962 H 479.411 -0.193712 1.48139 0
M  V30 4963 H 481.293 -2.97864 2.98086 0
M  V30 4964 H 479.968 -2.67386 1.82446 0
M  V30 4965 H 478.875 -1.14132 3.56265 0
M  V30 4966 H 480.208 -1.52036 4.6813 0
M  V30 4967 N 481.861 -1.55662 -0.24637 0
M  V30 4968 C 483.277 -1.48098 -0.594907 0
M  V30 4969 C 483.477 -0.717044 -1.8831 0
M  V30 4970 O 482.533 -0.246618 -2.51293 0
M  V30 4971 C 483.846 -2.92507 -0.697146 0
M  V30 4972 C 485.394 -3.02881 -0.789436 0
M  V30 4973 C 485.869 -4.48598 -0.923232 0
M  V30 4974 N 487.36 -4.52538 -0.988088 0
M  V30 4975 C 488.095 -5.62536 -1.11089 0
M  V30 4976 N 487.591 -6.82342 -1.19919 0
M  V30 4977 N 489.384 -5.50334 -1.14408 0
M  V30 4978 H 481.535 -2.0377 0.599278 0
M  V30 4979 H 483.798 -0.925145 0.20691 0
M  V30 4980 H 483.504 -3.51242 0.179396 0
M  V30 4981 H 483.378 -3.43024 -1.5689 0
M  V30 4982 H 485.765 -2.44226 -1.65643 0
M  V30 4983 H 485.846 -2.55574 0.107482 0
M  V30 4984 H 485.49 -5.07864 -0.0607927 0
M  V30 4985 H 485.42 -4.93587 -1.8352 0
M  V30 4986 H 487.911 -3.66248 -0.931167 0
M  V30 4987 H 488.224 -7.61924 -1.29197 0
M  V30 4988 H 486.569 -6.85102 -1.16876 0
M  V30 4989 H 489.76 -4.5567 -1.07158 0
M  V30 4990 H 489.933 -6.36096 -1.23634 0
M  V30 4991 N 483.339 0.512053 -1.4905 0
M  V30 4992 C 484.287 1.63568 -1.65373 0
M  V30 4993 C 485.281 1.61228 -0.519806 0
M  V30 4994 O 486.487 1.65869 -0.699101 0
M  V30 4995 H 482.862 0.542019 -0.521267 0
M  V30 4996 H 484.833 1.4695 -2.59708 0
M  V30 4997 C 483.582 3.01761 -1.7273 0
M  V30 4998 H 482.905 3.04263 -2.59353 0
M  V30 4999 H 484.345 3.79948 -1.8819 0
M  V30 5000 C 482.804 3.33609 -0.46973 0
M  V30 5001 O 483.334 3.99607 0.409492 0
M  V30 5002 N 481.54 2.88651 -0.336003 0
M  V30 5003 H 481.087 2.35119 -1.05247 0
M  V30 5004 H 481.045 3.10328 0.504363 0
M  V30 5005 N 484.817 1.37938 0.762283 0
M  V30 5006 C 485.78 1.34279 1.85747 0
M  V30 5007 C 486.78 0.244969 1.58923 0
M  V30 5008 O 487.97 0.501365 1.66829 0
M  V30 5009 C 485.102 1.08833 3.23061 0
M  V30 5010 H 486.295 2.31705 1.90401 0
M  V30 5011 H 483.848 1.23105 0.963057 0
M  V30 5012 H 484.583 0.119767 3.24079 0
M  V30 5013 H 484.368 1.88306 3.43923 0
M  V30 5014 H 485.858 1.08946 4.03138 0
M  V30 5015 N 486.295 -0.989507 1.22664 0
M  V30 5016 C 487.205 -2.11449 1.01619 0
M  V30 5017 C 488.221 -1.73962 -0.036545 0
M  V30 5018 O 489.397 -2.00788 0.156924 0
M  V30 5019 C 486.462 -3.41465 0.600204 0
M  V30 5020 C 485.523 -3.93033 1.72695 0
M  V30 5021 C 484.756 -5.16844 1.33071 0
M  V30 5022 O 484.979 -5.7001 0.210975 0
M  V30 5023 O 483.913 -5.6225 2.14845 0
M  V30 5024 H 487.739 -2.32088 1.9588 0
M  V30 5025 H 485.324 -1.09823 1.01289 0
M  V30 5026 H 487.206 -4.19695 0.37873 0
M  V30 5027 H 485.881 -3.22178 -0.313511 0
M  V30 5028 H 484.788 -3.15961 2.00298 0
M  V30 5029 H 486.121 -4.16758 2.61865 0
M  V30 5030 N 487.773 -1.03688 -1.18687 0
M  V30 5031 C 488.736 -0.629115 -2.20397 0
M  V30 5032 C 489.736 0.311495 -1.57754 0
M  V30 5033 O 490.926 0.0974107 -1.73927 0
M  V30 5034 C 488.058 0.0782231 -3.4081 0
M  V30 5035 H 489.251 -1.52915 -2.57987 0
M  V30 5036 H 486.804 -0.828988 -1.32505 0
M  V30 5037 H 487.539 0.992233 -3.08748 0
M  V30 5038 H 487.324 -0.597776 -3.87517 0
M  V30 5039 H 488.814 0.350156 -4.16129 0
M  V30 5040 N 489.251 1.34841 -0.815825 0
M  V30 5041 C 490.198 2.29644 -0.230664 0
M  V30 5042 C 491.168 1.53253 0.640533 0
M  V30 5043 O 492.353 1.81653 0.583672 0
M  V30 5044 C 489.493 3.39715 0.607275 0
M  V30 5045 C 488.606 4.31056 -0.28538 0
M  V30 5046 C 487.741 5.28225 0.561446 0
M  V30 5047 C 486.78 6.11204 -0.331035 0
M  V30 5048 N 485.917 7.00483 0.476302 0
M  V30 5049 H 490.757 2.79095 -1.0445 0
M  V30 5050 H 488.294 1.37351 -0.526595 0
M  V30 5051 H 490.252 4.02208 1.10835 0
M  V30 5052 H 488.882 2.91517 1.38629 0
M  V30 5053 H 487.934 3.69487 -0.904621 0
M  V30 5054 H 489.246 4.89239 -0.97193 0
M  V30 5055 H 488.4 5.96135 1.12728 0
M  V30 5056 H 487.139 4.70562 1.28153 0
M  V30 5057 H 486.144 5.42232 -0.909069 0
M  V30 5058 H 487.369 6.70947 -1.04912 0
M  V30 5059 H 485.315 6.45296 1.18019 0
M  V30 5060 H 485.232 7.55847 -0.152008 0
M  V30 5061 H 486.5 7.7273 1.02512 0
M  V30 5062 N 490.729 0.570148 1.46925 0
M  V30 5063 C 492.145 0.23087 1.57921 0
M  V30 5064 C 492.345 -1.26676 1.56702 0
M  V30 5065 O 491.401 -2.04774 1.47729 0
M  V30 5066 C 492.714 0.868973 2.8787 0
M  V30 5067 C 494.262 0.841397 3.01479 0
M  V30 5068 C 494.737 1.45881 4.34146 0
M  V30 5069 N 496.228 1.42258 4.40814 0
M  V30 5070 C 496.963 1.8698 5.42057 0
M  V30 5071 N 496.459 2.39618 6.50042 0
M  V30 5072 N 498.252 1.77972 5.33181 0
M  V30 5073 H 490.403 1.54301 1.45962 0
M  V30 5074 H 492.666 0.644224 0.69547 0
M  V30 5075 H 492.372 1.922 2.94537 0
M  V30 5076 H 492.246 0.369682 3.75384 0
M  V30 5077 H 494.633 -0.202973 2.94401 0
M  V30 5078 H 494.714 1.37858 2.15474 0
M  V30 5079 H 494.358 2.50231 4.4198 0
M  V30 5080 H 494.288 0.896958 5.18905 0
M  V30 5081 H 496.779 1.03768 3.63374 0
M  V30 5082 H 497.092 2.71633 7.23488 0
M  V30 5083 H 495.437 2.43636 6.50897 0
M  V30 5084 H 498.628 1.36617 4.4772 0
M  V30 5085 H 498.801 2.13143 6.11943 0
M  V30 5086 N 492.207 -1.54576 0.307264 0
M  V30 5087 C 493.154 -2.23751 -0.56604 0
M  V30 5088 C 494.124 -1.22235 -1.12462 0
M  V30 5089 O 495.309 -1.50873 -1.16799 0
M  V30 5090 C 492.449 -2.98661 -1.72903 0
M  V30 5091 C 491.562 -4.14963 -1.20124 0
M  V30 5092 C 490.697 -4.77441 -2.3286 0
M  V30 5093 C 489.736 -5.85875 -1.77247 0
M  V30 5094 N 488.873 -6.42282 -2.8358 0
M  V30 5095 H 493.713 -2.97984 0.0304578 0
M  V30 5096 H 491.25 -1.47076 0.0268015 0
M  V30 5097 H 493.208 -3.40329 -2.41313 0
M  V30 5098 H 491.838 -2.26793 -2.29706 0
M  V30 5099 H 490.89 -3.78193 -0.409198 0
M  V30 5100 H 492.202 -4.93066 -0.754171 0
M  V30 5101 H 491.356 -5.21993 -3.09205 0
M  V30 5102 H 490.095 -3.98684 -2.80896 0
M  V30 5103 H 489.1 -5.40741 -0.993926 0
M  V30 5104 H 490.325 -6.6652 -1.30107 0
M  V30 5105 H 488.271 -5.66406 -3.30939 0
M  V30 5106 H 488.188 -7.1575 -2.43388 0
M  V30 5107 H 489.456 -6.91492 -3.59804 0
M  V30 5108 N 493.685 -0.035106 -1.57561 0
M  V30 5109 C 494.618 0.979673 -2.06101 0
M  V30 5110 C 495.596 1.31378 -0.958046 0
M  V30 5111 O 496.78 1.42942 -1.22881 0
M  V30 5112 C 493.907 2.29809 -2.48808 0
M  V30 5113 C 492.953 2.11817 -3.70184 0
M  V30 5114 S 493.786 1.41143 -5.16565 0
M  V30 5115 C 494.942 2.74341 -5.62572 0
M  V30 5116 H 495.175 0.566506 -2.91853 0
M  V30 5117 H 492.708 0.176744 -1.53385 0
M  V30 5118 H 494.666 3.056 -2.74078 0
M  V30 5119 H 493.327 2.68257 -1.63392 0
M  V30 5120 H 492.52 3.09299 -3.97933 0
M  V30 5121 H 492.122 1.44168 -3.45097 0
M  V30 5122 H 494.414 3.70562 -5.67177 0
M  V30 5123 H 495.357 2.51249 -6.62027 0
M  V30 5124 H 495.765 2.79863 -4.90242 0
M  V30 5125 N 495.163 1.55791 0.238111 0
M  V30 5126 C 496.126 1.90239 1.27835 0
M  V30 5127 C 497.126 0.779552 1.4064 0
M  V30 5128 O 498.316 1.04747 1.3919 0
M  V30 5129 C 495.448 2.13859 2.65475 0
M  V30 5130 H 496.641 2.83262 0.985034 0
M  V30 5131 H 494.194 1.48818 0.477799 0
M  V30 5132 H 494.929 1.23334 2.99932 0
M  V30 5133 H 494.714 2.95643 2.57561 0
M  V30 5134 H 496.204 2.41664 3.40571 0
M  V30 5135 N 496.642 -0.504142 1.49319 0
M  V30 5136 C 497.572 -1.61473 1.68667 0
M  V30 5137 C 498.553 -1.61455 0.535378 0
M  V30 5138 O 499.738 -1.78245 0.770868 0
M  V30 5139 C 496.868 -2.99971 1.75028 0
M  V30 5140 C 495.822 -3.14854 2.89916 0
M  V30 5141 C 495.148 -4.54671 2.81387 0
M  V30 5142 C 496.448 -2.95176 4.30893 0
M  V30 5143 H 498.142 -1.45535 2.61648 0
M  V30 5144 H 495.688 -0.698711 1.25913 0
M  V30 5145 H 497.641 -3.77562 1.8715 0
M  V30 5146 H 496.365 -3.1699 0.786441 0
M  V30 5147 H 495.024 -2.39687 2.77391 0
M  V30 5148 H 494.672 -4.68562 1.82917 0
M  V30 5149 H 494.372 -4.6557 3.58494 0
M  V30 5150 H 495.896 -5.34327 2.95512 0
M  V30 5151 H 497.31 -3.62538 4.44116 0
M  V30 5152 H 495.707 -3.17549 5.09198 0
M  V30 5153 H 496.777 -1.91332 4.45556 0
M  V30 5154 N 498.12 -1.38341 -0.754957 0
M  V30 5155 C 499.083 -1.35262 -1.85032 0
M  V30 5156 C 500.083 -0.253393 -1.58791 0
M  V30 5157 O 501.273 -0.510205 -1.66561 0
M  V30 5158 C 498.405 -1.10544 -3.22479 0
M  V30 5159 H 499.598 -2.32712 -1.8917 0
M  V30 5160 H 497.151 -1.23614 -0.956515 0
M  V30 5161 H 497.886 -0.136952 -3.24011 0
M  V30 5162 H 497.671 -1.90127 -3.4292 0
M  V30 5163 H 499.161 -1.11082 -4.02555 0
M  V30 5164 N 499.598 0.982988 -1.23187 0
M  V30 5165 C 501.014 1.2487 -0.993967 0
M  V30 5166 C 501.214 1.99155 0.306498 0
M  V30 5167 O 500.27 2.30688 1.0266 0
M  V30 5168 C 501.583 2.05078 -2.19917 0
M  V30 5169 C 503.131 2.18227 -2.2438 0
M  V30 5170 C 503.606 3.01825 -3.44479 0
M  V30 5171 N 505.097 3.09411 -3.44702 0
M  V30 5172 C 505.832 3.74412 -4.34285 0
M  V30 5173 N 505.328 4.41259 -5.341 0
M  V30 5174 N 507.121 3.71273 -4.22035 0
M  V30 5175 H 499.272 0.485253 -2.06783 0
M  V30 5176 H 501.535 0.276979 -0.906635 0
M  V30 5177 H 501.241 1.57867 -3.14279 0
M  V30 5178 H 501.115 3.05829 -2.2079 0
M  V30 5179 H 503.502 2.64648 -1.30559 0
M  V30 5180 H 503.583 1.16873 -2.2754 0
M  V30 5181 H 503.227 2.56102 -4.38605 0
M  V30 5182 H 503.157 4.03342 -3.38559 0
M  V30 5183 H 505.648 2.61845 -2.7248 0
M  V30 5184 H 505.961 4.88629 -5.98717 0
M  V30 5185 H 504.306 4.39975 -5.38002 0
M  V30 5186 H 507.497 3.18217 -3.43301 0
M  V30 5187 H 507.67 4.21649 -4.92053 0
M  V30 5188 N 501.076 1.04316 1.18135 0
M  V30 5189 C 501.986 0.646876 2.25505 0
M  V30 5190 C 503.002 -0.328008 1.7088 0
M  V30 5191 O 504.178 -0.182309 2.00573 0
M  V30 5192 C 501.243 0.0185664 3.46695 0
M  V30 5193 C 500.304 1.04277 4.16443 0
M  V30 5194 C 499.537 0.444352 5.31847 0
M  V30 5195 O 499.76 -0.748735 5.65465 0
M  V30 5196 O 498.694 1.17428 5.90334 0
M  V30 5197 H 502.52 1.54147 2.61672 0
M  V30 5198 H 500.105 0.814188 1.25265 0
M  V30 5199 H 501.987 -0.331068 4.20097 0
M  V30 5200 H 500.662 -0.849814 3.12346 0
M  V30 5201 H 499.569 1.44425 3.45098 0
M  V30 5202 H 500.902 1.882 4.54798 0
M  V30 5203 N 502.554 -1.34406 0.822964 0
M  V30 5204 C 503.97 -1.51275 0.508727 0
M  V30 5205 C 504.17 -1.76776 -0.967083 0
M  V30 5206 O 503.226 -1.81871 -1.75155 0
M  V30 5207 C 504.539 -2.67765 1.36829 0
M  V30 5208 C 506.087 -2.81647 1.36542 0
M  V30 5209 C 506.562 -4.01181 2.20947 0
M  V30 5210 N 508.053 -4.08388 2.18571 0
M  V30 5211 C 508.788 -5.00036 2.80627 0
M  V30 5212 N 508.284 -5.96906 3.51674 0
M  V30 5213 N 510.077 -4.92908 2.70181 0
M  V30 5214 H 502.228 -1.16113 1.77852 0
M  V30 5215 H 504.491 -0.56947 0.757897 0
M  V30 5216 H 504.197 -2.55551 2.41633 0
M  V30 5217 H 504.071 -3.62779 1.03303 0
M  V30 5218 H 506.458 -2.93303 0.325163 0
M  V30 5219 H 506.539 -1.87443 1.74066 0
M  V30 5220 H 506.183 -3.90286 3.25022 0
M  V30 5221 H 506.113 -4.94599 1.80774 0
M  V30 5222 H 508.604 -3.39051 1.66891 0
M  V30 5223 H 508.917 -6.63468 3.96271 0
M  V30 5224 H 507.262 -5.9703 3.5578 0
M  V30 5225 H 510.453 -4.1619 2.14251 0
M  V30 5226 H 510.626 -5.64137 3.18831 0
M  V30 5227 N 504.032 -0.577932 -1.46621 0
M  V30 5228 C 504.979 0.158048 -2.30258 0
M  V30 5229 C 505.949 0.888669 -1.40328 0
M  V30 5230 O 507.134 0.880283 -1.6928 0
M  V30 5231 C 504.274 1.16884 -3.24703 0
M  V30 5232 C 503.387 0.442163 -4.29731 0
M  V30 5233 C 502.522 1.44007 -5.11308 0
M  V30 5234 C 501.561 0.69952 -6.0809 0
M  V30 5235 N 500.698 1.64525 -6.82551 0
M  V30 5236 H 505.538 -0.561242 -2.92667 0
M  V30 5237 H 503.075 -0.288591 -1.44241 0
M  V30 5238 H 505.033 1.7677 -3.779 0
M  V30 5239 H 503.663 1.85591 -2.64113 0
M  V30 5240 H 502.715 -0.271632 -3.79429 0
M  V30 5241 H 504.027 -0.136992 -4.98612 0
M  V30 5242 H 503.181 2.11186 -5.68758 0
M  V30 5243 H 501.92 2.05315 -4.42377 0
M  V30 5244 H 500.925 0.0139217 -5.49798 0
M  V30 5245 H 502.15 0.091894 -6.79038 0
M  V30 5246 H 500.096 2.24653 -6.16334 0
M  V30 5247 H 500.013 1.11878 -7.47676 0
M  V30 5248 H 501.281 2.30754 -7.44562 0
M  V30 5249 N 505.51 1.54411 -0.315457 0
M  V30 5250 C 506.738 2.04833 0.291738 0
M  V30 5251 C 507.153 1.19203 1.46411 0
M  V30 5252 O 506.51 0.220867 1.81159 0
M  V30 5253 C 506.561 3.53969 0.73404 0
M  V30 5254 O 506.282 4.36346 -0.391682 0
M  V30 5255 C 507.783 4.2045 1.40489 0
M  V30 5256 H 505.003 0.668195 0.0612947 0
M  V30 5257 H 507.547 1.99276 -0.45929 0
M  V30 5258 H 505.702 3.5984 1.43506 0
M  V30 5259 H 506.116 5.24481 -0.0447088 0
M  V30 5260 H 507.59 5.26278 1.66539 0
M  V30 5261 H 508.067 3.71067 2.3496 0
M  V30 5262 H 508.673 4.18694 0.746662 0
M  V30 5263 N 506.988 0.0434614 1.5754 0
M  V30 5264 C 508.234 -0.632971 1.92669 0
M  V30 5265 C 508.567 -1.70947 0.921446 0
M  V30 5266 O 507.842 -1.94426 -0.0537202 0
M  V30 5267 C 508.125 -1.23619 3.38216 0
M  V30 5268 C 507.978 -0.168274 4.49485 0
M  V30 5269 C 509.297 -2.15008 3.84005 0
M  V30 5270 H 506.416 -0.228629 0.700641 0
M  V30 5271 H 509.058 0.103651 1.89717 0
M  V30 5272 H 507.208 -1.864 3.40863 0
M  V30 5273 H 508.88 0.463196 4.58969 0
M  V30 5274 H 507.123 0.504581 4.30855 0
M  V30 5275 H 507.794 -0.630218 5.48391 0
M  V30 5276 H 510.27 -1.62198 3.83185 0
M  V30 5277 H 509.146 -2.54161 4.86511 0
M  V30 5278 H 509.407 -3.04707 3.20322 0
M  V30 5279 N 508.466 -1.55915 -0.229846 0
M  V30 5280 C 509.413 -1.91734 -1.28478 0
M  V30 5281 C 510.383 -0.773539 -1.46988 0
M  V30 5282 O 511.568 -1.02871 -1.60693 0
M  V30 5283 C 508.708 -2.23224 -2.63182 0
M  V30 5284 C 507.821 -3.50497 -2.52539 0
M  V30 5285 C 506.956 -3.71474 -3.79711 0
M  V30 5286 C 505.995 -4.92289 -3.63755 0
M  V30 5287 N 505.132 -5.09698 -4.82858 0
M  V30 5288 H 509.972 -2.81692 -0.972308 0
M  V30 5289 H 507.509 -1.39429 -0.468815 0
M  V30 5290 H 509.467 -2.3949 -3.41614 0
M  V30 5291 H 508.097 -1.36451 -2.92542 0
M  V30 5292 H 507.149 -3.4247 -1.65585 0
M  V30 5293 H 508.461 -4.39079 -2.36666 0
M  V30 5294 H 507.615 -3.87791 -4.66586 0
M  V30 5295 H 506.354 -2.81157 -3.985 0
M  V30 5296 H 505.359 -4.7593 -2.75264 0
M  V30 5297 H 506.584 -5.84083 -3.46445 0
M  V30 5298 H 504.53 -4.22322 -5.01976 0
M  V30 5299 H 504.447 -5.92399 -4.69681 0
M  V30 5300 H 505.715 -5.30443 -5.71183 0
M  V30 5301 N 509.944 0.496216 -1.49584 0
M  V30 5302 C 511.172 1.27394 -1.63029 0
M  V30 5303 C 511.587 1.86344 -0.303569 0
M  V30 5304 O 510.944 1.68057 0.711547 0
M  V30 5305 C 510.995 2.40077 -2.70269 0
M  V30 5306 O 510.716 1.83549 -3.97796 0
M  V30 5307 C 512.217 3.31372 -2.94462 0
M  V30 5308 H 509.437 0.386211 -0.54871 0
M  V30 5309 H 511.981 0.595163 -1.95648 0
M  V30 5310 H 510.136 3.03775 -2.40415 0
M  V30 5311 H 510.55 2.57561 -4.56905 0
M  V30 5312 H 512.024 4.06707 -3.73221 0
M  V30 5313 H 512.501 3.88654 -2.0456 0
M  V30 5314 H 513.107 2.73435 -3.25751 0
M  V30 5315 N 511.423 1.38739 0.74761 0
M  V30 5316 C 512.353 1.39173 1.87492 0
M  V30 5317 C 513.334 0.256794 1.6815 0
M  V30 5318 O 514.519 0.460762 1.88655 0
M  V30 5319 C 511.649 1.22197 3.25093 0
M  V30 5320 C 510.603 2.32957 3.59047 0
M  V30 5321 C 509.929 2.01082 4.95449 0
M  V30 5322 C 511.229 3.75237 3.6331 0
M  V30 5323 H 512.923 2.3351 1.87386 0
M  V30 5324 H 510.469 1.12399 0.900134 0
M  V30 5325 H 512.422 1.21124 4.03617 0
M  V30 5326 H 511.146 0.243241 3.25693 0
M  V30 5327 H 509.805 2.33226 2.82845 0
M  V30 5328 H 509.453 1.01678 4.92616 0
M  V30 5329 H 509.153 2.75267 5.19136 0
M  V30 5330 H 510.677 2.01638 5.76346 0
M  V30 5331 H 512.091 3.76966 4.31937 0
M  V30 5332 H 510.488 4.48677 3.98509 0
M  V30 5333 H 511.558 4.07122 2.634 0
M  V30 5334 N 512.901 -0.976442 1.23707 0
M  V30 5335 C 514.149 -1.71487 1.06942 0
M  V30 5336 C 514.47 -1.9098 -0.393897 0
M  V30 5337 O 513.74 -1.48128 -1.28198 0
M  V30 5338 H 512.32 -0.635425 0.392739 0
M  V30 5339 H 514.982 -1.17515 1.55487 0
M  V30 5340 H 514.078 -2.70286 1.56051 0
M  V30 5341 N 514.379 -1.04941 -1.1758 0
M  V30 5342 C 515.628 -0.753124 -1.87112 0
M  V30 5343 C 515.941 0.722507 -1.81767 0
M  V30 5344 O 517.147 1.13265 -2.46746 0
M  V30 5345 C 515.603 -1.29695 -3.35719 0
M  V30 5346 C 515.211 -2.80184 -3.49572 0
M  V30 5347 C 516.955 -1.07759 -4.10595 0
M  V30 5348 C 514.862 -3.2788 -4.92187 0
M  V30 5349 H 513.792 -0.278034 -0.700866 0
M  V30 5350 H 516.443 -1.26637 -1.32798 0
M  V30 5351 H 514.825 -0.711522 -3.89555 0
M  V30 5352 H 515.999 -3.44561 -3.05965 0
M  V30 5353 H 514.314 -3.00632 -2.88113 0
M  V30 5354 H 516.911 -1.40899 -5.15802 0
M  V30 5355 H 517.254 -0.0152302 -4.16297 0
M  V30 5356 H 517.787 -1.62809 -3.62957 0
M  V30 5357 H 514.526 -4.33535 -4.91658 0
M  V30 5358 H 514.046 -2.68245 -5.36475 0
M  V30 5359 H 515.725 -3.22412 -5.60945 0
M  V30 5360 N 515.857 1.33968 -0.830081 0
M  V30 5361 C 517.106 1.97323 -0.417928 0
M  V30 5362 C 517.419 1.6652 1.02618 0
M  V30 5363 O 518.625 2.2342 1.54259 0
M  V30 5364 C 517.081 3.53099 -0.696359 0
M  V30 5365 C 516.689 3.92788 -2.15457 0
M  V30 5366 C 518.433 4.23049 -0.350724 0
M  V30 5367 C 516.34 5.41506 -2.37751 0
M  V30 5368 H 515.27 0.738409 -0.152541 0
M  V30 5369 H 517.921 1.52711 -1.01744 0
M  V30 5370 H 516.303 3.95991 -0.0265904 0
M  V30 5371 H 517.477 3.6098 -2.86408 0
M  V30 5372 H 515.792 3.35795 -2.46232 0
M  V30 5373 H 518.389 5.32403 -0.495036 0
M  V30 5374 H 518.732 4.10279 0.705476 0
M  V30 5375 H 519.265 3.85657 -0.975362 0
M  V30 5376 H 516.004 5.5927 -3.41903 0
M  V30 5377 H 515.524 5.74804 -1.7135 0
M  V30 5378 H 517.203 6.0828 -2.20465 0
M  V30 5379 N 517.335 0.585699 1.46312 0
M  V30 5380 C 518.268 -0.194257 2.27372 0
M  V30 5381 C 519.246 -0.894116 1.3581 0
M  V30 5382 O 520.43 -0.907402 1.65222 0
M  V30 5383 C 517.557 -1.27901 3.13622 0
M  V30 5384 C 516.603 -0.684666 4.20969 0
M  V30 5385 S 517.436 0.490745 5.33247 0
M  V30 5386 C 518.592 -0.595137 6.23064 0
M  V30 5387 H 518.825 0.493515 2.93175 0
M  V30 5388 H 516.358 0.372666 1.49835 0
M  V30 5389 H 518.316 -1.90008 3.63878 0
M  V30 5390 H 516.977 -1.93875 2.47126 0
M  V30 5391 H 516.17 -1.50015 4.81156 0
M  V30 5392 H 515.772 -0.139204 3.73741 0
M  V30 5393 H 518.064 -1.48002 6.61137 0
M  V30 5394 H 519.007 -0.0299446 7.08094 0
M  V30 5395 H 519.415 -0.900627 5.57269 0
M  V30 5396 N 518.813 -1.54241 0.323641 0
M  V30 5397 C 520.061 -2.00174 -0.278359 0
M  V30 5398 C 520.382 -1.2134 -1.52648 0
M  V30 5399 O 519.652 -0.315244 -1.93347 0
M  V30 5400 H 518.232 -0.739463 -0.105845 0
M  V30 5401 H 520.894 -1.89864 0.440204 0
M  V30 5402 H 519.99 -3.07486 -0.5347 0
M  V30 5403 N 520.291 -0.0518155 -1.57515 0
M  V30 5404 C 521.519 0.631395 -1.9703 0
M  V30 5405 C 521.934 1.64341 -0.92938 0
M  V30 5406 O 521.291 1.82296 0.0863266 0
M  V30 5407 C 521.342 1.31774 -3.36627 0
M  V30 5408 O 521.063 0.346247 -4.3673 0
M  V30 5409 C 522.564 2.09065 -3.90905 0
M  V30 5410 H 519.784 0.172576 -0.648428 0
M  V30 5411 H 522.328 -0.118306 -2.04158 0
M  V30 5412 H 520.483 2.01867 -3.30649 0
M  V30 5413 H 520.897 0.836226 -5.17791 0
M  V30 5414 H 522.371 2.52508 -4.9086 0
M  V30 5415 H 522.848 2.93908 -3.26366 0
M  V30 5416 H 523.454 1.43882 -4.00223 0
M  V30 5417 N 521.769 1.56035 0.221574 0
M  V30 5418 C 523.016 1.79047 0.94597 0
M  V30 5419 C 523.344 0.62057 1.84334 0
M  V30 5420 O 522.599 -0.395053 1.91671 0
M  V30 5421 C 522.898 3.07813 1.8162 0
M  V30 5422 C 522.564 4.3797 1.07206 0
M  V30 5423 C 521.226 4.73334 0.866508 0
M  V30 5424 C 523.578 5.18326 0.546565 0
M  V30 5425 C 520.906 5.8657 0.123549 0
M  V30 5426 C 523.258 6.32335 -0.18305 0
M  V30 5427 C 521.922 6.66301 -0.399861 0
M  V30 5428 H 521.192 0.655178 0.346155 0
M  V30 5429 H 523.839 1.90299 0.214146 0
M  V30 5430 H 522.144 2.91682 2.61589 0
M  V30 5431 H 523.841 3.2282 2.37884 0
M  V30 5432 H 520.431 4.10202 1.24226 0
M  V30 5433 H 524.615 4.9144 0.692847 0
M  V30 5434 H 519.871 6.11376 -0.0546591 0
M  V30 5435 H 524.045 6.9383 -0.59775 0
M  V30 5436 H 521.672 7.53889 -0.977489 0
M  V30 5437 N 523.247 -0.488276 1.49845 0
M  V30 5438 C 524.496 -1.23826 1.59217 0
M  V30 5439 C 524.809 -1.93439 0.289966 0
M  V30 5440 O 526.015 -2.70229 0.262382 0
M  V30 5441 C 524.471 -2.24902 2.80976 0
M  V30 5442 C 524.079 -1.6117 4.18005 0
M  V30 5443 C 525.823 -3.00648 2.99685 0
M  V30 5444 C 523.73 -2.60431 5.3097 0
M  V30 5445 H 522.66 -0.465858 0.592868 0
M  V30 5446 H 525.311 -0.510645 1.76252 0
M  V30 5447 H 523.693 -3.0088 2.57463 0
M  V30 5448 H 524.867 -0.910968 4.51706 0
M  V30 5449 H 523.182 -0.97767 4.0476 0
M  V30 5450 H 525.779 -3.74903 3.81251 0
M  V30 5451 H 526.122 -3.5902 2.10738 0
M  V30 5452 H 526.655 -2.31784 3.23297 0
M  V30 5453 H 523.394 -2.06823 6.22017 0
M  V30 5454 H 522.914 -3.28707 5.01709 0
M  V30 5455 H 524.593 -3.22606 5.60834 0
M  V30 5456 N 524.725 -1.39134 -0.740242 0
M  V30 5457 C 525.655 -1.40165 -1.86751 0
M  V30 5458 C 526.636 -0.265708 -1.68012 0
M  V30 5459 O 527.821 -0.47076 -1.88408 0
M  V30 5460 C 524.951 -1.2392 -3.2444 0
M  V30 5461 C 523.905 -2.34858 -3.57807 0
M  V30 5462 C 523.231 -2.03707 -4.94376 0
M  V30 5463 C 524.531 -3.77159 -3.61315 0
M  V30 5464 H 526.225 -2.345 -1.86145 0
M  V30 5465 H 523.771 -1.12875 -0.89416 0
M  V30 5466 H 525.724 -1.23263 -4.02969 0
M  V30 5467 H 524.448 -0.26051 -3.25559 0
M  V30 5468 H 523.107 -2.34723 -2.81604 0
M  V30 5469 H 522.755 -1.04289 -4.9207 0
M  V30 5470 H 522.455 -2.78016 -5.17669 0
M  V30 5471 H 523.979 -2.04691 -5.75268 0
M  V30 5472 H 525.393 -3.79252 -4.29931 0
M  V30 5473 H 523.79 -4.50784 -3.96124 0
M  V30 5474 H 524.86 -4.08513 -2.61238 0
M  V30 5475 N 526.204 0.969867 -1.24223 0
M  V30 5476 C 527.444 1.72754 -1.0925 0
M  V30 5477 C 527.808 1.88541 0.362787 0
M  V30 5478 O 529.009 2.61217 0.633969 0
M  V30 5479 C 527.28 3.08204 -1.80957 0
M  V30 5480 S 528.839 3.99418 -1.81688 0
M  V30 5481 H 525.657 0.593981 -0.390778 0
M  V30 5482 H 528.259 1.15792 -1.5752 0
M  V30 5483 H 526.963 2.94372 -2.85961 0
M  V30 5484 H 526.494 3.70232 -1.33012 0
M  V30 5485 H 528.509 4.8828 -0.883001 0
M  V30 5486 N 527.682 1.05563 1.17022 0
M  V30 5487 C 528.928 0.778872 1.87897 0
M  V30 5488 C 529.283 -0.686839 1.79723 0
M  V30 5489 O 528.576 -1.49612 1.19694 0
M  V30 5490 C 528.77 1.19849 3.36706 0
M  V30 5491 C 528.599 2.70345 3.59366 0
M  V30 5492 C 527.369 3.37707 3.75875 0
M  V30 5493 C 529.567 3.68564 3.58699 0
M  V30 5494 N 527.549 4.7703 3.86414 0
M  V30 5495 C 528.92 4.93634 3.75134 0
M  V30 5496 C 530.975 3.6198 3.4187 0
M  V30 5497 C 529.678 6.12907 3.76481 0
M  V30 5498 C 531.704 4.80697 3.44507 0
M  V30 5499 C 531.066 6.04592 3.61453 0
M  V30 5500 H 527.165 0.337297 0.705517 0
M  V30 5501 H 529.749 1.34832 1.40458 0
M  V30 5502 H 527.92 0.656958 3.82804 0
M  V30 5503 H 529.652 0.871172 3.95212 0
M  V30 5504 H 526.407 2.88108 3.75887 0
M  V30 5505 H 526.831 5.49483 3.95471 0
M  V30 5506 H 531.473 2.67154 3.27702 0
M  V30 5507 H 529.191 7.08073 3.89432 0
M  V30 5508 H 532.777 4.77259 3.32738 0
M  V30 5509 H 531.657 6.94916 3.63403 0
M  V30 5510 N 529.16 -1.33526 0.837174 0
M  V30 5511 C 530.09 -2.31764 0.284206 0
M  V30 5512 C 531.071 -1.58896 -0.607142 0
M  V30 5513 O 532.256 -1.86798 -0.531047 0
M  V30 5514 C 529.386 -3.43029 -0.542962 0
M  V30 5515 C 528.34 -4.27255 0.252451 0
M  V30 5516 C 527.666 -5.3012 -0.69836 0
M  V30 5517 C 528.966 -5.01229 1.46858 0
M  V30 5518 H 530.66 -2.78262 1.10502 0
M  V30 5519 H 528.206 -1.3378 0.532812 0
M  V30 5520 H 530.159 -4.1078 -0.940096 0
M  V30 5521 H 528.883 -2.95216 -1.39697 0
M  V30 5522 H 527.542 -3.61127 0.631124 0
M  V30 5523 H 527.19 -4.78564 -1.54872 0
M  V30 5524 H 526.89 -5.87353 -0.170274 0
M  V30 5525 H 528.414 -6.00737 -1.09305 0
M  V30 5526 H 529.828 -5.61756 1.14469 0
M  V30 5527 H 528.225 -5.68104 1.93333 0
M  V30 5528 H 529.295 -4.301 2.23924 0
M  V30 5529 N 530.638 -0.59345 -1.46 0
M  V30 5530 C 532.049 -0.169801 -1.85926 0
M  V30 5531 C 532.4 1.26984 -1.49565 0
M  V30 5532 O 531.525 1.96076 -0.915602 0
M  V30 5533 C 532.12 -0.301385 -3.37457 0
M  V30 5534 C 530.679 0.0674684 -3.7634 0
M  V30 5535 C 529.826 -0.632383 -2.69993 0
M  V30 5536 H 532.777 -0.801014 -1.37002 0
M  V30 5537 H 532.798 0.470331 -3.77582 0
M  V30 5538 H 532.31 -1.34927 -3.63891 0
M  V30 5539 H 530.411 1.11507 -3.55523 0
M  V30 5540 H 530.524 -0.316332 -4.78055 0
M  V30 5541 H 528.888 -0.0714961 -2.546 0
M  V30 5542 H 529.671 -1.68212 -2.99265 0
M  V30 5543 N 532.116 1.54067 -0.331816 0
M  V30 5544 C 533.363 2.00715 0.268269 0
M  V30 5545 C 533.691 1.21986 1.51491 0
M  V30 5546 O 532.946 0.292309 1.93505 0
M  V30 5547 C 533.245 3.51634 0.639392 0
M  V30 5548 C 532.911 4.48018 -0.509019 0
M  V30 5549 C 531.573 4.74089 -0.824209 0
M  V30 5550 C 533.925 5.05237 -1.28003 0
M  V30 5551 C 531.253 5.54637 -1.91298 0
M  V30 5552 C 533.605 5.86972 -2.35895 0
M  V30 5553 C 532.269 6.11342 -2.67987 0
M  V30 5554 H 531.539 0.734469 0.0981667 0
M  V30 5555 H 534.186 1.8596 -0.457304 0
M  V30 5556 H 532.491 3.6416 1.44551 0
M  V30 5557 H 534.188 3.85175 1.11539 0
M  V30 5558 H 530.778 4.27851 -0.253287 0
M  V30 5559 H 534.962 4.8507 -1.04978 0
M  V30 5560 H 530.218 5.71747 -2.16599 0
M  V30 5561 H 534.392 6.30327 -2.96076 0
M  V30 5562 H 532.019 6.73544 -3.5248 0
M  V30 5563 N 533.594 0.0601682 1.57485 0
M  V30 5564 C 534.841 -0.611594 1.93043 0
M  V30 5565 C 535.169 -1.70317 0.939274 0
M  V30 5566 O 534.424 -1.95644 -0.046996 0
M  V30 5567 C 534.723 -1.23831 3.35262 0
M  V30 5568 C 534.389 -0.274037 4.50066 0
M  V30 5569 C 533.051 -0.00872394 4.81199 0
M  V30 5570 C 535.403 0.386308 5.19766 0
M  V30 5571 C 532.731 0.924218 5.79375 0
M  V30 5572 C 535.083 1.3075 6.1894 0
M  V30 5573 C 533.747 1.58139 6.48497 0
M  V30 5574 H 533.017 -0.223798 0.706396 0
M  V30 5575 H 535.664 0.128566 1.91068 0
M  V30 5576 H 533.969 -2.05394 3.33647 0
M  V30 5577 H 535.666 -1.76517 3.60059 0
M  V30 5578 H 532.256 -0.491008 4.25778 0
M  V30 5579 H 536.44 0.194436 4.95919 0
M  V30 5580 H 531.696 1.1438 6.00606 0
M  V30 5581 H 535.87 1.82519 6.72056 0
M  V30 5582 H 533.497 2.30593 7.24383 0
M  V30 5583 N 535.072 -1.5615 -0.213296 0
M  V30 5584 C 536.321 -1.78743 -0.93455 0
M  V30 5585 C 536.634 -0.630199 -1.8517 0
M  V30 5586 O 537.84 -0.739966 -2.61222 0
M  V30 5587 C 536.296 -3.16571 -1.71203 0
M  V30 5588 C 535.904 -4.40043 -0.840617 0
M  V30 5589 C 537.648 -3.48485 -2.42401 0
M  V30 5590 C 535.555 -5.68895 -1.61592 0
M  V30 5591 H 534.485 -0.666426 -0.352692 0
M  V30 5592 H 537.136 -1.82532 -0.188227 0
M  V30 5593 H 535.518 -3.06981 -2.50157 0
M  V30 5594 H 536.692 -4.6071 -0.0910326 0
M  V30 5595 H 535.007 -4.15706 -0.240365 0
M  V30 5596 H 537.604 -4.41983 -3.00924 0
M  V30 5597 H 537.947 -2.71371 -3.15695 0
M  V30 5598 H 538.48 -3.59442 -1.7043 0
M  V30 5599 H 535.219 -6.48925 -0.926106 0
M  V30 5600 H 534.739 -5.52275 -2.33991 0
M  V30 5601 H 536.418 -6.09365 -2.17447 0
M  V30 5602 N 536.55 0.480323 -1.50102 0
M  V30 5603 C 537.796 1.23489 -1.60867 0
M  V30 5604 C 538.129 1.91809 -0.303827 0
M  V30 5605 O 537.404 1.81694 0.694092 0
M  V30 5606 C 537.687 2.28578 -2.78252 0
M  V30 5607 C 537.54 1.64624 -4.18592 0
M  V30 5608 C 538.859 3.2997 -2.91218 0
M  V30 5609 H 535.978 0.447605 -0.585507 0
M  V30 5610 H 538.62 0.530005 -1.82458 0
M  V30 5611 H 536.77 2.88697 -2.59974 0
M  V30 5612 H 538.442 1.08173 -4.48438 0
M  V30 5613 H 536.685 0.949645 -4.23278 0
M  V30 5614 H 537.356 2.40946 -4.96638 0
M  V30 5615 H 539.832 2.79864 -3.07921 0
M  V30 5616 H 538.708 4.00839 -3.74993 0
M  V30 5617 H 538.969 3.93541 -2.0144 0
M  V30 5618 N 538.028 1.39524 0.732853 0
M  V30 5619 C 538.991 1.38189 1.82857 0
M  V30 5620 C 539.991 0.278624 1.58368 0
M  V30 5621 O 541.181 0.536639 1.65728 0
M  V30 5622 C 538.313 1.15661 3.2068 0
M  V30 5623 H 539.506 2.35692 1.85444 0
M  V30 5624 H 537.059 1.2512 0.936728 0
M  V30 5625 H 537.794 0.188482 3.23752 0
M  V30 5626 H 537.579 1.95559 3.39852 0
M  V30 5627 H 539.069 1.17472 4.00737 0
M  V30 5628 N 539.506 -0.963266 1.24736 0
M  V30 5629 C 540.436 -2.07628 1.06832 0
M  V30 5630 C 541.417 -1.70088 -0.0200566 0
M  V30 5631 O 542.602 -1.93636 0.147854 0
M  V30 5632 C 539.732 -3.40636 0.677069 0
M  V30 5633 C 538.686 -3.9215 1.71471 0
M  V30 5634 C 538.012 -5.21553 1.1784 0
M  V30 5635 C 539.312 -4.19493 3.11164 0
M  V30 5636 H 541.006 -2.22864 1.9993 0
M  V30 5637 H 538.552 -1.07093 0.96266 0
M  V30 5638 H 540.505 -4.17941 0.538792 0
M  V30 5639 H 539.229 -3.25313 -0.289612 0
M  V30 5640 H 537.888 -3.17005 1.84128 0
M  V30 5641 H 537.536 -5.02593 0.202195 0
M  V30 5642 H 537.236 -5.56988 1.87185 0
M  V30 5643 H 538.76 -6.01463 1.05233 0
M  V30 5644 H 540.174 -4.87487 3.01711 0
M  V30 5645 H 538.571 -4.66165 3.77902 0
M  V30 5646 H 539.641 -3.26097 3.58871 0
M  V30 5647 N 540.985 -1.06182 -1.16461 0
M  V30 5648 C 542.231 -0.779015 -1.87241 0
M  V30 5649 C 542.564 0.692715 -1.81425 0
M  V30 5650 O 541.839 1.5074 -1.22913 0
M  V30 5651 C 542.122 -1.2728 -3.36856 0
M  V30 5652 C 541.975 -2.80821 -3.51368 0
M  V30 5653 C 543.294 -0.879799 -4.31216 0
M  V30 5654 H 540.413 -0.284464 -0.679889 0
M  V30 5655 H 543.055 -1.31755 -1.36896 0
M  V30 5656 H 541.205 -0.814673 -3.79862 0
M  V30 5657 H 542.877 -3.34833 -3.17308 0
M  V30 5658 H 541.12 -3.19606 -2.93316 0
M  V30 5659 H 541.791 -3.10435 -4.56436 0
M  V30 5660 H 544.267 -1.27436 -3.96105 0
M  V30 5661 H 543.143 -1.25278 -5.34412 0
M  V30 5662 H 543.404 0.215372 -4.41575 0
M  V30 5663 N 542.463 1.3308 -0.844243 0
M  V30 5664 C 543.393 2.3161 -0.296493 0
M  V30 5665 C 544.374 1.59215 0.598707 0
M  V30 5666 O 545.559 1.87077 0.521134 0
M  V30 5667 C 542.689 3.43313 0.524762 0
M  V30 5668 C 541.643 4.27115 -0.275106 0
M  V30 5669 C 540.969 5.30483 0.670236 0
M  V30 5670 C 542.269 5.00443 -1.49514 0
M  V30 5671 H 543.963 2.77672 -1.11976 0
M  V30 5672 H 541.509 1.33496 -0.539899 0
M  V30 5673 H 543.462 4.11273 0.918298 0
M  V30 5674 H 542.186 2.95952 1.3813 0
M  V30 5675 H 540.845 3.60787 -0.650267 0
M  V30 5676 H 540.493 4.79379 1.52332 0
M  V30 5677 H 540.193 5.87435 0.139123 0
M  V30 5678 H 541.717 6.01308 1.06117 0
M  V30 5679 H 543.131 5.61141 -1.17447 0
M  V30 5680 H 541.528 5.67071 -1.96343 0
M  V30 5681 H 542.598 4.28906 -2.26202 0
M  V30 5682 N 543.941 0.601185 1.45683 0
M  V30 5683 C 545.352 0.179659 1.85834 0
M  V30 5684 C 545.703 -1.26189 1.50236 0
M  V30 5685 O 544.828 -1.95587 0.925987 0
M  V30 5686 C 545.423 0.319277 3.37292 0
M  V30 5687 C 543.982 -0.0475092 3.7637 0
M  V30 5688 C 543.129 0.646692 2.69654 0
M  V30 5689 H 546.08 0.808268 1.36575 0
M  V30 5690 H 546.101 -0.4503 3.77826 0
M  V30 5691 H 545.613 1.36855 3.6317 0
M  V30 5692 H 543.714 -1.0962 3.5611 0
M  V30 5693 H 543.827 0.34168 4.7788 0
M  V30 5694 H 542.191 0.0849971 2.54558 0
M  V30 5695 H 542.974 1.69797 2.98369 0
M  V30 5696 N 545.419 -1.53889 0.339982 0
M  V30 5697 C 546.666 -2.00855 -0.257621 0
M  V30 5698 C 546.994 -1.22788 -1.50842 0
M  V30 5699 O 546.249 -0.302567 -1.93347 0
M  V30 5700 C 546.548 -3.51968 -0.620735 0
M  V30 5701 C 546.214 -4.47741 0.532771 0
M  V30 5702 C 544.876 -4.73645 0.849339 0
M  V30 5703 C 547.228 -5.04551 1.3068 0
M  V30 5704 C 544.556 -5.53614 1.94237 0
M  V30 5705 C 546.908 -5.85713 2.39005 0
M  V30 5706 C 545.572 -6.09912 2.71225 0
M  V30 5707 H 544.842 -0.734979 -0.0942703 0
M  V30 5708 H 547.489 -1.85714 0.467159 0
M  V30 5709 H 545.794 -3.64921 -1.42618 0
M  V30 5710 H 547.491 -3.85762 -1.09495 0
M  V30 5711 H 544.081 -4.27711 0.275973 0
M  V30 5712 H 548.265 -4.84507 1.07549 0
M  V30 5713 H 543.521 -5.7059 2.19628 0
M  V30 5714 H 547.695 -6.28748 2.99415 0
M  V30 5715 H 545.322 -6.71665 3.56047 0
M  V30 5716 N 546.897 -0.0685191 -1.57451 0
M  V30 5717 C 548.137 0.605038 -1.9524 0
M  V30 5718 C 548.501 1.66974 -0.947816 0
M  V30 5719 O 549.702 2.39862 -1.21325 0
M  V30 5720 C 547.973 1.16999 -3.37707 0
M  V30 5721 S 549.532 1.85913 -3.97469 0
M  V30 5722 H 546.35 0.198203 -0.682815 0
M  V30 5723 H 548.952 -0.141594 -1.94987 0
M  V30 5724 H 547.656 0.383205 -4.08607 0
M  V30 5725 H 547.187 1.95305 -3.41496 0
M  V30 5726 H 549.202 3.14128 -3.84107 0
M  V30 5727 N 548.375 1.56261 0.205012 0
M  V30 5728 C 549.285 1.96944 1.27476 0
M  V30 5729 C 550.301 0.875636 1.50362 0
M  V30 5730 O 551.477 1.18058 1.6317 0
M  V30 5731 C 548.542 2.29219 2.60115 0
M  V30 5732 C 547.603 3.52255 2.45387 0
M  V30 5733 C 546.836 3.8298 3.71701 0
M  V30 5734 O 547.059 3.15138 4.75441 0
M  V30 5735 O 545.993 4.76435 3.67823 0
M  V30 5736 H 549.819 2.88144 0.959527 0
M  V30 5737 H 547.404 1.43686 0.409217 0
M  V30 5738 H 549.286 2.51098 3.3842 0
M  V30 5739 H 547.961 1.4119 2.91285 0
M  V30 5740 H 546.868 3.35635 1.65227 0
M  V30 5741 H 548.201 4.40719 2.19152 0
M  V30 5742 N 549.853 -0.472356 1.50355 0
M  V30 5743 C 551.078 -1.25251 1.65309 0
M  V30 5744 C 551.503 -1.85081 0.335643 0
M  V30 5745 O 550.861 -1.67227 -0.700335 0
M  V30 5746 C 550.909 -2.3379 2.74544 0
M  V30 5747 O 550.013 -3.38401 2.35709 0
M  V30 5748 H 549.354 -0.368539 0.552336 0
M  V30 5749 H 551.884 -0.562271 1.96722 0
M  V30 5750 H 551.894 -2.79121 2.97583 0
M  V30 5751 H 550.569 -1.89614 3.70161 0
M  V30 5752 H 549.146 -2.9879 2.23112 0
M  V30 5753 N 551.331 -1.39911 -0.725443 0
M  V30 5754 C 552.556 -1.41137 -1.5197 0
M  V30 5755 C 552.981 -0.010262 -1.88097 0
M  V30 5756 O 552.339 0.979184 -1.52583 0
M  V30 5757 C 552.387 -2.2994 -2.77777 0
M  V30 5758 O 551.491 -1.73586 -3.74088 0
M  V30 5759 H 550.832 -0.480219 -0.458569 0
M  V30 5760 H 553.362 -1.84023 -0.894249 0
M  V30 5761 H 553.372 -2.44785 -3.26411 0
M  V30 5762 H 552.047 -3.31759 -2.50816 0
M  V30 5763 H 550.624 -1.68035 -3.32894 0
M  V30 5764 N 552.809 0.956637 -1.25245 0
M  V30 5765 C 554.049 1.71585 -1.11076 0
M  V30 5766 C 554.413 1.88916 0.34277 0
M  V30 5767 O 555.614 2.61875 0.606227 0
M  V30 5768 C 553.885 3.06267 -1.84215 0
M  V30 5769 S 555.444 3.97469 -1.85914 0
M  V30 5770 H 552.262 0.589803 -0.397055 0
M  V30 5771 H 554.864 1.14114 -1.58739 0
M  V30 5772 H 553.568 2.91322 -2.89067 0
M  V30 5773 H 553.099 3.688 -1.36931 0
M  V30 5774 H 555.114 4.87316 -0.93474 0
M  V30 5775 N 554.287 1.06798 1.15896 0
M  V30 5776 C 555.237 0.653213 2.18443 0
M  V30 5777 C 556.221 -0.318763 1.57711 0
M  V30 5778 O 557.413 -0.133388 1.76497 0
M  V30 5779 C 554.542 0.0465785 3.43268 0
M  V30 5780 C 553.628 1.04336 4.11066 0
M  V30 5781 N 554.019 2.22084 4.54436 0
M  V30 5782 C 552.317 0.875433 4.37324 0
M  V30 5783 C 553.018 2.85276 5.06944 0
M  V30 5784 N 551.994 2.12973 5.00143 0
M  V30 5785 H 555.796 1.55011 2.49698 0
M  V30 5786 H 553.31 0.940384 1.32403 0
M  V30 5787 H 555.307 -0.26843 4.16035 0
M  V30 5788 H 553.967 -0.845504 3.13499 0
M  V30 5789 H 554.978 2.59833 4.48004 0
M  V30 5790 H 551.655 0.0357721 4.17485 0
M  V30 5791 H 553.045 3.85223 5.50503 0
M  V30 5792 N 555.766 -1.3263 0.851289 0
M  V30 5793 C 556.699 -2.26952 0.238318 0
M  V30 5794 C 557.677 -1.50243 -0.621757 0
M  V30 5795 O 558.861 -1.79378 -0.579298 0
M  V30 5796 C 555.988 -3.32124 -0.664178 0
M  V30 5797 C 555.034 -4.26325 0.122067 0
M  V30 5798 S 555.867 -5.14404 1.48824 0
M  V30 5799 C 557.023 -6.231 0.591372 0
M  V30 5800 H 557.256 -2.78594 1.03791 0
M  V30 5801 H 554.789 -1.4011 0.648731 0
M  V30 5802 H 556.747 -3.93197 -1.17924 0
M  V30 5803 H 555.408 -2.79273 -1.43755 0
M  V30 5804 H 554.601 -5.00821 -0.565181 0
M  V30 5805 H 554.203 -3.69652 0.568602 0
M  V30 5806 H 556.495 -6.77187 -0.205762 0
M  V30 5807 H 557.438 -6.95936 1.30687 0
M  V30 5808 H 557.846 -5.64252 0.167206 0
M  V30 5809 N 557.244 -0.608902 -1.45362 0
M  V30 5810 C 558.655 -0.189511 -1.85736 0
M  V30 5811 C 559.006 1.2539 -1.50903 0
M  V30 5812 O 558.131 1.95094 -0.936347 0
M  V30 5813 C 558.726 -0.33716 -3.37118 0
M  V30 5814 C 557.285 0.0275487 -3.7639 0
M  V30 5815 C 556.432 -0.660983 -2.69307 0
M  V30 5816 H 559.383 -0.815499 -1.36144 0
M  V30 5817 H 559.404 0.430257 -3.7806 0
M  V30 5818 H 558.916 -1.38779 -3.62439 0
M  V30 5819 H 557.017 1.0773 -3.56686 0
M  V30 5820 H 557.13 -0.367018 -4.77692 0
M  V30 5821 H 555.494 -0.0984958 -2.54509 0
M  V30 5822 H 556.277 -1.71377 -2.97464 0
M  V30 5823 N 558.722 1.53707 -0.348139 0
M  V30 5824 C 559.95 2.05406 0.248224 0
M  V30 5825 C 560.365 1.22282 1.43849 0
M  V30 5826 O 559.722 0.259244 1.80649 0
M  V30 5827 C 559.773 3.55446 0.658793 0
M  V30 5828 O 559.494 4.35417 -0.484149 0
M  V30 5829 C 560.995 4.23335 1.31539 0
M  V30 5830 H 558.215 0.669344 0.0471075 0
M  V30 5831 H 560.759 1.98257 -0.501456 0
M  V30 5832 H 558.914 3.62803 1.35841 0
M  V30 5833 H 559.328 5.24268 -0.155949 0
M  V30 5834 H 560.802 5.29692 1.55338 0
M  V30 5835 H 561.279 3.75967 2.27036 0
M  V30 5836 H 561.885 4.20184 0.657683 0
M  V30 5837 N 560.2 0.0768682 1.57412 0
M  V30 5838 C 561.13 -0.886026 2.16037 0
M  V30 5839 C 562.111 -1.30691 1.08876 0
M  V30 5840 O 563.296 -1.37705 1.36934 0
M  V30 5841 C 560.426 -2.1518 2.72608 0
M  V30 5842 C 559.38 -1.87015 3.8498 0
M  V30 5843 C 558.706 -3.20266 4.28175 0
M  V30 5844 C 560.006 -1.17143 5.08994 0
M  V30 5845 H 561.7 -0.397642 2.96748 0
M  V30 5846 H 559.246 -0.189823 1.42743 0
M  V30 5847 H 561.199 -2.82962 3.12266 0
M  V30 5848 H 559.923 -2.66269 1.89125 0
M  V30 5849 H 558.582 -1.21636 3.45833 0
M  V30 5850 H 558.23 -3.69207 3.41607 0
M  V30 5851 H 557.93 -3.0221 5.03927 0
M  V30 5852 H 559.454 -3.89237 4.70454 0
M  V30 5853 H 560.868 -1.75003 5.45937 0
M  V30 5854 H 559.265 -1.09328 5.90057 0
M  V30 5855 H 560.335 -0.151295 4.84664 0
M  V30 5856 N 561.678 -1.56367 -0.196722 0
M  V30 5857 C 562.608 -1.97442 -1.24655 0
M  V30 5858 C 563.589 -0.846147 -1.47561 0
M  V30 5859 O 564.774 -1.11035 -1.59326 0
M  V30 5860 C 561.904 -2.31253 -2.59112 0
M  V30 5861 C 560.858 -3.46804 -2.50821 0
M  V30 5862 C 560.184 -3.66286 -3.89536 0
M  V30 5863 C 561.484 -4.8104 -2.03465 0
M  V30 5864 H 563.178 -2.85388 -0.905216 0
M  V30 5865 H 560.724 -1.37304 -0.434002 0
M  V30 5866 H 562.677 -2.58583 -3.32736 0
M  V30 5867 H 561.401 -1.40188 -2.94983 0
M  V30 5868 H 560.06 -3.19563 -1.79653 0
M  V30 5869 H 559.708 -2.72555 -4.22756 0
M  V30 5870 H 559.408 -4.4402 -3.84864 0
M  V30 5871 H 560.932 -3.9599 -4.64784 0
M  V30 5872 H 562.346 -5.07411 -2.66846 0
M  V30 5873 H 560.743 -5.62232 -2.09798 0
M  V30 5874 H 561.813 -4.74732 -0.98781 0
M  V30 5875 N 563.156 0.464375 -1.50603 0
M  V30 5876 C 564.404 1.21356 -1.61608 0
M  V30 5877 C 564.725 1.92329 -0.321643 0
M  V30 5878 O 563.995 1.84403 0.661232 0
M  V30 5879 H 562.575 0.45094 -0.595535 0
M  V30 5880 H 565.237 0.535046 -1.87412 0
M  V30 5881 H 564.333 1.95783 -2.43054 0
M  V30 5882 N 564.634 1.40294 0.718013 0
M  V30 5883 C 565.597 1.4012 1.81381 0
M  V30 5884 C 566.597 0.295405 1.58063 0
M  V30 5885 O 567.787 0.554187 1.6515 0
M  V30 5886 C 564.919 1.19056 3.19435 0
M  V30 5887 H 566.112 2.37645 1.82933 0
M  V30 5888 H 563.665 1.26107 0.923405 0
M  V30 5889 H 564.4 0.222809 3.23534 0
M  V30 5890 H 564.185 1.99152 3.37758 0
M  V30 5891 H 565.675 1.21716 3.99468 0
M  V30 5892 N 566.112 -0.949982 1.2575 0
M  V30 5893 C 567.361 -1.68956 1.10168 0
M  V30 5894 C 567.674 -1.92327 -0.356309 0
M  V30 5895 O 568.88 -2.64026 -0.632657 0
M  V30 5896 C 567.336 -3.04196 1.92336 0
M  V30 5897 C 566.944 -2.88603 3.42655 0
M  V30 5898 C 568.688 -3.81904 1.85336 0
M  V30 5899 C 566.595 -4.19262 4.17101 0
M  V30 5900 H 565.525 -0.633645 0.408668 0
M  V30 5901 H 568.176 -1.05719 1.49986 0
M  V30 5902 H 566.558 -3.68363 1.45344 0
M  V30 5903 H 567.732 -2.3334 3.97353 0
M  V30 5904 H 566.047 -2.24345 3.50796 0
M  V30 5905 H 568.644 -4.78688 2.38248 0
M  V30 5906 H 568.987 -4.08099 0.822226 0
M  V30 5907 H 569.52 -3.24495 2.30104 0
M  V30 5908 H 566.259 -3.98254 5.20648 0
M  V30 5909 H 565.779 -4.74273 3.67186 0
M  V30 5910 H 567.458 -4.87775 4.25071 0
M  V30 5911 N 567.59 -1.07411 -1.15328 0
M  V30 5912 C 568.839 -0.792643 -1.85473 0
M  V30 5913 C 569.152 0.683789 -1.83259 0
M  V30 5914 O 570.358 1.08005 -2.49093 0
M  V30 5915 C 568.814 -1.36787 -3.32892 0
M  V30 5916 C 568.422 -2.87536 -3.43551 0
M  V30 5917 C 570.166 -1.16444 -4.08217 0
M  V30 5918 C 568.073 -3.38247 -4.85122 0
M  V30 5919 H 567.003 -0.292838 -0.694811 0
M  V30 5920 H 569.654 -1.29426 -1.30082 0
M  V30 5921 H 568.036 -0.793993 -3.87958 0
M  V30 5922 H 569.21 -3.50973 -2.98588 0
M  V30 5923 H 567.525 -3.06676 -2.81672 0
M  V30 5924 H 570.122 -1.51808 -5.12697 0
M  V30 5925 H 570.465 -0.10353 -4.16171 0
M  V30 5926 H 570.998 -1.70472 -3.59422 0
M  V30 5927 H 567.737 -4.43866 -4.82351 0
M  V30 5928 H 567.257 -2.79564 -5.30664 0
M  V30 5929 H 568.936 -3.34238 -5.5398 0
M  V30 5930 N 569.068 1.32177 -0.85831 0
M  V30 5931 C 570.016 2.30729 -0.294442 0
M  V30 5932 C 571.01 1.59009 0.584165 0
M  V30 5933 O 572.216 1.73713 0.471562 0
M  V30 5934 H 568.591 0.748097 -0.0765171 0
M  V30 5935 H 570.562 2.75774 -1.1398 0
M  V30 5936 C 569.311 3.44098 0.499208 0
M  V30 5937 H 568.634 3.99449 -0.167579 0
M  V30 5938 H 570.074 4.15202 0.859273 0
M  V30 5939 C 568.533 2.91684 1.68588 0
M  V30 5940 O 569.063 2.89481 2.78503 0
M  V30 5941 N 567.269 2.48036 1.51415 0
M  V30 5942 H 566.816 2.50027 0.620006 0
M  V30 5943 H 566.774 2.13322 2.30957 0
M  V30 5944 N 570.547 0.616602 1.45037 0
M  V30 5945 C 571.793 0.123965 2.03022 0
M  V30 5946 C 572.148 -1.23508 1.47525 0
M  V30 5947 O 571.441 -1.80453 0.643981 0
M  V30 5948 C 571.635 0.0356829 3.57382 0
M  V30 5949 C 571.464 1.38462 4.27853 0
M  V30 5950 C 570.234 1.96766 4.65415 0
M  V30 5951 C 572.432 2.31536 4.59234 0
M  V30 5952 N 570.414 3.25046 5.20786 0
M  V30 5953 C 571.785 3.4442 5.15533 0
M  V30 5954 C 573.84 2.30796 4.41178 0
M  V30 5955 C 572.543 4.56742 5.55679 0
M  V30 5956 C 574.569 3.42171 4.82362 0
M  V30 5957 C 573.931 4.53778 5.38762 0
M  V30 5958 H 570.03 0.0889428 0.776925 0
M  V30 5959 H 572.614 0.816925 1.76733 0
M  V30 5960 H 570.785 -0.62652 3.83314 0
M  V30 5961 H 572.517 -0.464443 4.02026 0
M  V30 5962 H 569.272 1.4987 4.49261 0
M  V30 5963 H 569.696 3.90592 5.52962 0
M  V30 5964 H 574.338 1.45765 3.96878 0
M  V30 5965 H 572.056 5.42491 5.9894 0
M  V30 5966 H 575.642 3.42757 4.70116 0
M  V30 5967 H 574.522 5.38536 5.70043 0
M  V30 5968 N 572.025 -1.5352 0.356285 0
M  V30 5969 C 572.955 -2.28372 -0.486661 0
M  V30 5970 C 573.936 -1.30432 -1.09185 0
M  V30 5971 O 575.121 -1.59291 -1.11085 0
M  V30 5972 C 572.251 -3.06604 -1.63129 0
M  V30 5973 C 571.205 -4.12154 -1.15381 0
M  V30 5974 C 570.531 -4.78415 -2.38796 0
M  V30 5975 C 571.831 -5.21724 -0.245179 0
M  V30 5976 H 573.525 -2.99083 0.137797 0
M  V30 5977 H 571.071 -1.43841 0.0677134 0
M  V30 5978 H 573.024 -3.57712 -2.22755 0
M  V30 5979 H 571.748 -2.33568 -2.28284 0
M  V30 5980 H 570.407 -3.61978 -0.580294 0
M  V30 5981 H 570.055 -4.01959 -3.02387 0
M  V30 5982 H 569.755 -5.49734 -2.07524 0
M  V30 5983 H 571.279 -5.32313 -2.99125 0
M  V30 5984 H 572.693 -5.68391 -0.748646 0
M  V30 5985 H 571.09 -6.00095 -0.0237608 0
M  V30 5986 H 572.16 -4.79596 0.715229 0
M  V30 5987 N 573.503 -0.0852151 -1.57369 0
M  V30 5988 C 574.751 0.579658 -1.93609 0
M  V30 5989 C 575.072 1.69332 -0.967043 0
M  V30 5990 O 574.342 1.95892 -0.0174215 0
M  V30 5991 H 572.922 0.217113 -0.714752 0
M  V30 5992 H 575.584 -0.146226 -1.94351 0
M  V30 5993 H 574.68 0.996276 -2.95771 0
M  V30 5994 N 574.981 1.5647 0.188427 0
M  V30 5995 C 576.211 1.84863 0.922463 0
M  V30 5996 C 576.619 0.666413 1.77075 0
M  V30 5997 O 575.962 -0.374044 1.79852 0
M  V30 5998 C 576.024 3.07447 1.86324 0
M  V30 5999 C 575.688 4.41066 1.19625 0
M  V30 6000 C 576.685 5.16767 0.569946 0
M  V30 6001 C 574.37 4.87802 1.19811 0
M  V30 6002 C 576.364 6.37384 -0.045594 0
M  V30 6003 C 574.051 6.08353 0.57874 0
M  V30 6004 C 575.049 6.82987 -0.0420259 0
M  V30 6005 O 574.737 8.01254 -0.651675 0
M  V30 6006 H 574.469 0.61784 0.274316 0
M  V30 6007 H 577.023 2.04437 0.198613 0
M  V30 6008 H 575.253 2.83774 2.62696 0
M  V30 6009 H 576.942 3.2243 2.46564 0
M  V30 6010 H 577.708 4.81749 0.560601 0
M  V30 6011 H 573.587 4.29662 1.67069 0
M  V30 6012 H 577.131 6.95578 -0.530731 0
M  V30 6013 H 573.028 6.42838 0.58561 0
M  V30 6014 H 573.796 8.16655 -0.549236 0
M  V30 6015 N 576.459 -0.456382 1.50847 0
M  V30 6016 C 577.684 -1.2349 1.66628 0
M  V30 6017 C 578.109 -1.84715 0.355254 0
M  V30 6018 O 577.467 -1.67961 -0.682559 0
M  V30 6019 C 577.515 -2.30865 2.77009 0
M  V30 6020 O 576.619 -3.35882 2.39285 0
M  V30 6021 H 575.96 -0.36266 0.556214 0
M  V30 6022 H 578.49 -0.541374 1.97308 0
M  V30 6023 H 578.5 -2.75949 3.00526 0
M  V30 6024 H 577.175 -1.85677 3.72152 0
M  V30 6025 H 575.752 -2.96406 2.26269 0
M  V30 6026 N 577.937 -1.40673 -0.710563 0
M  V30 6027 C 578.885 -1.41517 -1.84596 0
M  V30 6028 C 579.879 -0.295043 -1.66811 0
M  V30 6029 O 581.085 -0.466331 -1.73854 0
M  V30 6030 H 577.46 -0.442467 -0.608052 0
M  V30 6031 H 579.431 -2.37238 -1.80999 0
M  V30 6032 C 578.18 -1.29957 -3.225 0
M  V30 6033 H 577.503 -2.15429 -3.36794 0
M  V30 6034 H 578.943 -1.34608 -4.02066 0
M  V30 6035 C 577.402 -0.0103164 -3.36898 0
M  V30 6036 O 577.932 0.950707 -3.90288 0
M  V30 6037 N 576.138 0.0608409 -2.90536 0
M  V30 6038 H 575.685 -0.721943 -2.47277 0
M  V30 6039 H 575.643 0.92292 -3.00549 0
M  V30 6040 N 579.415 0.9433 -1.26252 0
M  V30 6041 C 580.64 1.72898 -1.14547 0
M  V30 6042 C 581.065 1.85761 0.295743 0
M  V30 6043 O 580.423 1.3463 1.21427 0
M  V30 6044 C 580.471 3.11471 -1.8171 0
M  V30 6045 O 579.575 3.97336 -1.10445 0
M  V30 6046 H 578.916 0.530555 -0.399259 0
M  V30 6047 H 581.446 1.18159 -1.67032 0
M  V30 6048 H 581.456 3.61872 -1.88449 0
M  V30 6049 H 580.131 3.01425 -2.86558 0
M  V30 6050 H 578.708 3.55788 -1.11666 0
M  V30 6051 N 580.893 1.08022 1.14757 0
M  V30 6052 C 581.823 0.728248 2.21853 0
M  V30 6053 C 582.804 -0.287486 1.67653 0
M  V30 6054 O 583.989 -0.158727 1.9355 0
M  V30 6055 C 581.119 0.132549 3.47047 0
M  V30 6056 C 580.073 1.07619 4.14249 0
M  V30 6057 C 579.399 0.342907 5.33599 0
M  V30 6058 C 580.699 2.41268 4.63235 0
M  V30 6059 H 582.393 1.62365 2.51551 0
M  V30 6060 H 579.939 0.782125 1.20908 0
M  V30 6061 H 581.892 -0.125665 4.21213 0
M  V30 6062 H 580.616 -0.797971 3.16702 0
M  V30 6063 H 579.275 1.31944 3.42033 0
M  V30 6064 H 578.923 -0.59129 4.99513 0
M  V30 6065 H 578.623 0.971955 5.79506 0
M  V30 6066 H 580.147 0.0926538 6.1053 0
M  V30 6067 H 581.561 2.21232 5.28894 0
M  V30 6068 H 579.958 2.9983 5.19829 0
M  V30 6069 H 581.028 3.03079 3.78512 0
M  V30 6070 N 582.371 -1.3172 0.865308 0
M  V30 6071 C 583.301 -2.31109 0.333302 0
M  V30 6072 C 584.282 -1.60148 -0.573301 0
M  V30 6073 O 585.467 -1.87882 -0.491305 0
M  V30 6074 C 582.597 -3.44104 -0.470078 0
M  V30 6075 C 581.551 -4.26623 0.343021 0
M  V30 6076 C 580.877 -5.31482 -0.585756 0
M  V30 6077 C 582.177 -4.98001 1.57456 0
M  V30 6078 H 583.871 -2.75855 1.1638 0
M  V30 6079 H 581.417 -1.3262 0.561069 0
M  V30 6080 H 583.37 -4.12682 -0.852752 0
M  V30 6081 H 582.094 -2.98112 -1.33404 0
M  V30 6082 H 580.753 -3.59707 0.707583 0
M  V30 6083 H 580.401 -4.81741 -1.44686 0
M  V30 6084 H 580.101 -5.87582 -0.0456494 0
M  V30 6085 H 581.625 -6.0292 -0.965375 0
M  V30 6086 H 583.039 -5.59201 1.26359 0
M  V30 6087 H 581.436 -5.63876 2.05339 0
M  V30 6088 H 582.506 -4.25253 2.32997 0
M  V30 6089 N 583.85 -0.624285 -1.44708 0
M  V30 6090 C 584.798 0.0969952 -2.32398 0
M  V30 6091 C 585.792 0.842762 -1.46949 0
M  V30 6092 O 586.998 0.756436 -1.63334 0
M  V30 6093 H 583.373 0.0501306 -0.750327 0
M  V30 6094 H 585.344 -0.660767 -2.90992 0
M  V30 6095 C 584.093 1.06967 -3.30837 0
M  V30 6096 H 583.416 0.505242 -3.96595 0
M  V30 6097 H 584.856 1.54397 -3.94889 0
M  V30 6098 C 583.315 2.15153 -2.5925 0
M  V30 6099 O 583.845 3.23139 -2.3863 0
M  V30 6100 N 582.051 1.90898 -2.19103 0
M  V30 6101 H 581.598 1.03086 -2.36074 0
M  V30 6102 H 581.556 2.63485 -1.71531 0
M  V30 6103 N 585.328 1.53329 -0.364422 0
M  V30 6104 C 586.739 1.86345 0.115039 0
M  V30 6105 C 587.09 1.28505 1.4826 0
M  V30 6106 O 586.215 0.606639 2.07723 0
M  V30 6107 C 586.81 3.38114 0.215522 0
M  V30 6108 C 585.369 3.70932 0.639237 0
M  V30 6109 C 584.516 2.76471 -0.214261 0
M  V30 6110 H 587.467 1.47593 -0.583258 0
M  V30 6111 H 587.488 3.66031 1.0393 0
M  V30 6112 H 587 3.80182 -0.779948 0
M  V30 6113 H 585.101 3.3442 1.64298 0
M  V30 6114 H 585.214 4.77302 0.41465 0
M  V30 6115 H 583.578 2.52724 0.316678 0
M  V30 6116 H 584.361 3.21373 -1.20725 0
M  V30 6117 N 586.806 0.0935595 1.57322 0
M  V30 6118 C 588.052 -0.571355 1.94585 0
M  V30 6119 C 588.385 -1.67929 0.975366 0
M  V30 6120 O 587.66 -1.94498 0.00816206 0
M  V30 6121 C 587.943 -1.12797 3.41978 0
M  V30 6122 C 587.796 -0.0251881 4.49793 0
M  V30 6123 C 589.115 -2.02682 3.90651 0
M  V30 6124 H 586.234 -0.206223 0.70756 0
M  V30 6125 H 588.876 0.163956 1.89291 0
M  V30 6126 H 587.026 -1.75461 3.4662 0
M  V30 6127 H 588.698 0.608979 4.57263 0
M  V30 6128 H 586.941 0.641399 4.29032 0
M  V30 6129 H 587.612 -0.455433 5.50118 0
M  V30 6130 H 590.088 -1.49925 3.88152 0
M  V30 6131 H 588.964 -2.38555 4.94351 0
M  V30 6132 H 589.225 -2.94362 3.29854 0
M  V30 6133 N 588.284 -1.56567 -0.180126 0
M  V30 6134 C 589.533 -1.80685 -0.896426 0
M  V30 6135 C 589.846 -0.669335 -1.83791 0
M  V30 6136 O 591.052 -0.795209 -2.59593 0
M  V30 6137 C 589.508 -3.20132 -1.6445 0
M  V30 6138 C 589.116 -4.41727 -0.747088 0
M  V30 6139 C 590.86 -3.53549 -2.34955 0
M  V30 6140 C 588.767 -5.72195 -1.49489 0
M  V30 6141 H 587.697 -0.673758 -0.338477 0
M  V30 6142 H 590.348 -1.8289 -0.149467 0
M  V30 6143 H 588.73 -3.12218 -2.43589 0
M  V30 6144 H 589.904 -4.608 0.00671129 0
M  V30 6145 H 588.219 -4.16122 -0.152134 0
M  V30 6146 H 590.816 -4.48267 -2.91481 0
M  V30 6147 H 591.159 -2.78006 -3.09868 0
M  V30 6148 H 591.692 -3.62976 -1.62768 0
M  V30 6149 H 588.431 -6.50743 -0.788251 0
M  V30 6150 H 587.951 -5.57115 -2.22224 0
M  V30 6151 H 589.63 -6.1384 -2.04472 0
M  V30 6152 N 589.762 0.448376 -1.51087 0
M  V30 6153 C 590.992 1.21965 -1.66757 0
M  V30 6154 C 591.4 1.85748 -0.359753 0
M  V30 6155 O 590.743 1.71022 0.670604 0
M  V30 6156 C 590.805 2.35284 -2.71812 0
M  V30 6157 C 590.469 1.91957 -4.1473 0
M  V30 6158 C 591.466 1.42921 -4.9987 0
M  V30 6159 C 589.151 1.99985 -4.60772 0
M  V30 6160 C 591.145 1.02485 -6.29107 0
M  V30 6161 C 588.832 1.5916 -5.90009 0
M  V30 6162 C 589.83 1.10491 -6.74004 0
M  V30 6163 O 589.518 0.702413 -8.00825 0
M  V30 6164 H 589.25 0.374125 -0.563034 0
M  V30 6165 H 591.804 0.538927 -1.98204 0
M  V30 6166 H 590.034 3.06599 -2.35657 0
M  V30 6167 H 591.723 2.97184 -2.76472 0
M  V30 6168 H 592.489 1.36123 -4.65506 0
M  V30 6169 H 588.368 2.36814 -3.95525 0
M  V30 6170 H 591.912 0.644271 -6.94619 0
M  V30 6171 H 587.809 1.65626 -6.2389 0
M  V30 6172 H 588.577 0.829248 -8.14288 0
M  V30 6173 N 591.24 1.41047 0.703093 0
M  V30 6174 C 592.203 1.42036 1.79884 0
M  V30 6175 C 593.203 0.312153 1.57741 0
M  V30 6176 O 594.393 0.571672 1.64553 0
M  V30 6177 C 591.525 1.22437 3.18154 0
M  V30 6178 H 592.718 2.39572 1.80403 0
M  V30 6179 H 590.271 1.27079 0.909977 0
M  V30 6180 H 591.006 0.257112 3.23279 0
M  V30 6181 H 590.791 2.02723 3.35627 0
M  V30 6182 H 592.281 1.25946 3.98155 0
M  V30 6183 N 592.718 -0.936591 1.26751 0
M  V30 6184 C 593.948 -1.71509 1.15188 0
M  V30 6185 C 594.356 -1.86885 -0.295037 0
M  V30 6186 O 593.699 -1.37915 -1.21347 0
M  V30 6187 C 593.761 -3.13853 1.75318 0
M  V30 6188 C 593.425 -3.21845 3.24445 0
M  V30 6189 C 594.422 -3.04771 4.21201 0
M  V30 6190 C 592.107 -3.45088 3.64992 0
M  V30 6191 C 594.101 -3.10816 5.56482 0
M  V30 6192 C 591.788 -3.50767 5.00405 0
M  V30 6193 C 592.786 -3.33648 5.9596 0
M  V30 6194 O 592.474 -3.39045 7.28906 0
M  V30 6195 H 592.206 -0.543658 0.401761 0
M  V30 6196 H 594.76 -1.18234 1.67958 0
M  V30 6197 H 592.99 -3.6857 1.17016 0
M  V30 6198 H 594.679 -3.73634 1.58596 0
M  V30 6199 H 595.445 -2.86665 3.91214 0
M  V30 6200 H 591.324 -3.57467 2.91098 0
M  V30 6201 H 594.868 -2.97372 6.31043 0
M  V30 6202 H 590.765 -3.68396 5.30052 0
M  V30 6203 H 591.533 -3.55558 7.37238 0
M  V30 6204 N 594.196 -1.08629 -1.14182 0
M  V30 6205 C 595.443 -0.817345 -1.85272 0
M  V30 6206 C 595.771 0.656917 -1.83071 0
M  V30 6207 O 595.026 1.49897 -1.25815 0
M  V30 6208 C 595.325 -1.28734 -3.3341 0
M  V30 6209 C 594.991 -2.76981 -3.55798 0
M  V30 6210 C 593.653 -3.17469 -3.61617 0
M  V30 6211 C 596.005 -3.72605 -3.64438 0
M  V30 6212 C 593.333 -4.52371 -3.736 0
M  V30 6213 C 595.685 -5.07286 -3.77947 0
M  V30 6214 C 594.349 -5.47376 -3.82016 0
M  V30 6215 H 593.619 -0.299088 -0.677958 0
M  V30 6216 H 596.266 -1.35962 -1.34857 0
M  V30 6217 H 594.571 -0.664702 -3.8612 0
M  V30 6218 H 596.268 -1.05598 -3.86846 0
M  V30 6219 H 592.858 -2.44644 -3.51919 0
M  V30 6220 H 597.042 -3.42443 -3.5923 0
M  V30 6221 H 592.298 -4.82882 -3.75013 0
M  V30 6222 H 596.472 -5.81243 -3.83575 0
M  V30 6223 H 594.099 -6.51906 -3.91054 0
M  V30 6224 N 595.674 1.31259 -0.872281 0
M  V30 6225 C 596.622 2.30404 -0.318897 0
M  V30 6226 C 597.616 1.5962 0.567267 0
M  V30 6227 O 598.822 1.74204 0.453111 0
M  V30 6228 H 595.197 0.747243 -0.0844474 0
M  V30 6229 H 597.168 2.74549 -1.16899 0
M  V30 6230 C 595.917 3.44608 0.462683 0
M  V30 6231 H 595.24 3.99248 -0.209936 0
M  V30 6232 H 596.68 4.1609 0.815187 0
M  V30 6233 C 595.139 2.93456 1.65485 0
M  V30 6234 O 595.669 2.92418 2.75417 0
M  V30 6235 N 593.875 2.49628 1.48776 0
M  V30 6236 H 593.422 2.50671 0.593452 0
M  V30 6237 H 593.38 2.15759 2.28682 0
M  V30 6238 N 597.152 0.631951 1.44375 0
M  V30 6239 C 598.099 -0.0724807 2.30686 0
M  V30 6240 C 599.069 -0.835975 1.43529 0
M  V30 6241 O 600.254 -0.816849 1.7243 0
M  V30 6242 C 597.394 -1.04753 3.28817 0
M  V30 6243 C 596.507 -0.282367 4.31076 0
M  V30 6244 C 595.642 -1.2493 5.163 0
M  V30 6245 C 594.681 -0.473349 6.10267 0
M  V30 6246 N 593.818 -1.39079 6.88187 0
M  V30 6247 H 598.658 0.669477 2.90383 0
M  V30 6248 H 596.195 0.341927 1.43071 0
M  V30 6249 H 598.153 -1.62623 3.842 0
M  V30 6250 H 596.783 -1.75661 2.70819 0
M  V30 6251 H 595.835 0.412268 3.78159 0
M  V30 6252 H 597.147 0.321955 4.9776 0
M  V30 6253 H 596.301 -1.89931 5.76204 0
M  V30 6254 H 595.04 -1.88755 4.49692 0
M  V30 6255 H 594.045 0.190142 5.49471 0
M  V30 6256 H 595.27 0.16019 6.78911 0
M  V30 6257 H 593.216 -2.01623 6.24247 0
M  V30 6258 H 593.133 -0.840513 7.51313 0
M  V30 6259 H 594.401 -2.02961 7.52613 0
M  V30 6260 N 598.631 -1.53133 0.372548 0
M  V30 6261 C 599.908 -1.93704 -0.271693 0
M  V30 6262 C 600.288 -1.30667 -1.65799 0
M  V30 6263 O 599.636 -0.46838 -2.23648 0
M  V30 6264 C 599.846 -3.47576 -0.314903 0
M  V30 6265 C 601.194 -4.20998 -0.551912 0
M  V30 6266 O 602.218 -3.53994 -0.39582 0
M  V30 6267 O 601.077 -5.39748 -0.85639 0
M  V30 6268 H 598.171 -0.810457 -0.164586 0
M  V30 6269 H 600.717 -1.6427 0.425838 0
M  V30 6270 H 599.489 -3.85749 0.656792 0
M  V30 6271 H 599.112 -3.83264 -1.05804 0
M  V30 6272 N 600.109 -0.101901 -1.5727 0
M  V30 6273 C 601.356 0.560197 -1.94597 0
M  V30 6274 C 601.684 1.67767 -0.984101 0
M  V30 6275 O 600.939 1.95699 -0.00489193 0
M  V30 6276 C 601.238 1.14898 -3.38427 0
M  V30 6277 C 600.904 0.154613 -4.50635 0
M  V30 6278 C 599.566 -0.118861 -4.81053 0
M  V30 6279 C 601.918 -0.523979 -5.18559 0
M  V30 6280 C 599.246 -1.0775 -5.76721 0
M  V30 6281 C 601.598 -1.47114 -6.15256 0
M  V30 6282 C 600.262 -1.75278 -6.44076 0
M  V30 6283 H 599.532 0.204991 -0.712081 0
M  V30 6284 H 602.179 -0.17918 -1.9066 0
M  V30 6285 H 600.484 1.96476 -3.38976 0
M  V30 6286 H 602.181 1.66909 -3.64613 0
M  V30 6287 H 598.771 0.377948 -4.2693 0
M  V30 6288 H 602.955 -0.325851 -4.95229 0
M  V30 6289 H 598.211 -1.30263 -5.97362 0
M  V30 6290 H 602.385 -2.00274 -6.66981 0
M  V30 6291 H 600.012 -2.49717 -7.18015 0
M  V30 6292 N 601.587 1.56661 0.17182 0
M  V30 6293 C 602.519 1.92934 1.2373 0
M  V30 6294 C 603.532 0.822385 1.40502 0
M  V30 6295 O 604.721 1.10083 1.40514 0
M  V30 6296 C 601.821 2.16651 2.60607 0
M  V30 6297 C 600.994 3.47878 2.6514 0
M  V30 6298 C 600.053 3.60429 3.83377 0
M  V30 6299 O 599.079 4.33051 3.69398 0
M  V30 6300 N 600.281 2.95241 4.99813 0
M  V30 6301 H 603.046 2.84931 0.929205 0
M  V30 6302 H 600.607 1.5781 0.361588 0
M  V30 6303 H 602.599 2.22312 3.38171 0
M  V30 6304 H 601.169 1.3104 2.83809 0
M  V30 6305 H 600.389 3.53879 1.73675 0
M  V30 6306 H 601.677 4.34232 2.6518 0
M  V30 6307 H 601.075 2.3611 5.14071 0
M  V30 6308 H 599.632 3.06499 5.75241 0
M  V30 6309 N 603.065 -0.440357 1.51323 0
M  V30 6310 C 604.013 -1.55492 1.72988 0
M  V30 6311 C 605.007 -1.58564 0.596138 0
M  V30 6312 O 606.213 -1.62345 0.777443 0
M  V30 6313 H 602.588 -0.516532 0.546533 0
M  V30 6314 H 604.559 -1.34392 2.66423 0
M  V30 6315 C 603.308 -2.93176 1.86931 0
M  V30 6316 H 602.631 -2.91543 2.73574 0
M  V30 6317 H 604.071 -3.70537 2.06103 0
M  V30 6318 C 602.53 -3.30988 0.628365 0
M  V30 6319 O 603.06 -4.01106 -0.218367 0
M  V30 6320 N 601.266 -2.86719 0.473339 0
M  V30 6321 H 600.813 -2.2983 1.16345 0
M  V30 6322 H 600.771 -3.12381 -0.355727 0
M  V30 6323 N 604.543 -1.41418 -0.695603 0
M  V30 6324 C 605.506 -1.42988 -1.79129 0
M  V30 6325 C 606.506 -0.320514 -1.57573 0
M  V30 6326 O 607.696 -0.58039 -1.64247 0
M  V30 6327 C 604.828 -1.24122 -3.175 0
M  V30 6328 H 606.021 -2.40526 -1.7913 0
M  V30 6329 H 603.574 -1.2756 -0.903225 0
M  V30 6330 H 604.309 -0.274253 -3.23138 0
M  V30 6331 H 604.094 -2.045 -3.34547 0
M  V30 6332 H 605.584 -1.28056 -3.97481 0
M  V30 6333 N 606.021 0.929856 -1.27246 0
M  V30 6334 C 607.268 1.67731 -1.13457 0
M  V30 6335 C 607.596 1.9185 0.319998 0
M  V30 6336 O 606.851 1.50524 1.25064 0
M  V30 6337 C 607.15 3.05116 -1.86115 0
M  V30 6338 C 606.816 3.00715 -3.35978 0
M  V30 6339 C 605.478 2.99222 -3.76855 0
M  V30 6340 C 607.83 2.92168 -4.3161 0
M  V30 6341 C 605.158 2.86962 -5.11732 0
M  V30 6342 C 607.51 2.81449 -5.66542 0
M  V30 6343 C 606.174 2.78305 -6.06715 0
M  V30 6344 H 605.444 0.613772 -0.415168 0
M  V30 6345 H 608.091 1.08456 -1.57827 0
M  V30 6346 H 606.396 3.68083 -1.34246 0
M  V30 6347 H 608.093 3.61822 -1.72876 0
M  V30 6348 H 604.683 3.02664 -3.03468 0
M  V30 6349 H 608.867 2.92421 -4.01003 0
M  V30 6350 H 604.123 2.82913 -5.42006 0
M  V30 6351 H 608.297 2.738 -6.40317 0
M  V30 6352 H 605.924 2.68561 -7.11181 0
M  V30 6353 N 607.499 1.09233 1.13605 0
M  V30 6354 C 608.446 0.729921 2.18954 0
M  V30 6355 C 609.416 -0.287916 1.63586 0
M  V30 6356 O 610.601 -0.170003 1.90041 0
M  V30 6357 C 607.741 0.154489 3.44754 0
M  V30 6358 C 606.854 1.22613 4.14234 0
M  V30 6359 C 605.989 0.613657 5.27644 0
M  V30 6360 C 605.028 1.66674 5.8897 0
M  V30 6361 N 604.165 1.07545 6.93814 0
M  V30 6362 H 609.005 1.63257 2.49302 0
M  V30 6363 H 606.542 0.815693 1.22413 0
M  V30 6364 H 608.5 -0.196923 4.16735 0
M  V30 6365 H 607.13 -0.711433 3.14863 0
M  V30 6366 H 606.182 1.69485 3.40557 0
M  V30 6367 H 607.494 2.0238 4.55899 0
M  V30 6368 H 606.648 0.210976 6.06333 0
M  V30 6369 H 605.387 -0.215584 4.87223 0
M  V30 6370 H 604.392 2.07899 5.08978 0
M  V30 6371 H 605.617 2.49861 6.31464 0
M  V30 6372 H 603.563 0.267451 6.55455 0
M  V30 6373 H 603.48 1.81011 7.3401 0
M  V30 6374 H 604.748 0.698906 7.7636 0
M  V30 6375 N 608.977 -1.30795 0.87923 0
M  V30 6376 C 609.924 -2.28282 0.339968 0
M  V30 6377 C 610.894 -1.56134 -0.566685 0
M  V30 6378 O 612.079 -1.84231 -0.496338 0
M  V30 6379 C 609.219 -3.42225 -0.444501 0
M  V30 6380 C 608.332 -4.29204 0.490717 0
M  V30 6381 C 607.467 -5.30302 -0.308784 0
M  V30 6382 C 606.506 -6.08929 0.622272 0
M  V30 6383 N 605.643 -7.01957 -0.14155 0
M  V30 6384 H 610.483 -2.73794 1.17647 0
M  V30 6385 H 608.02 -1.34682 0.591527 0
M  V30 6386 H 609.978 -4.07038 -0.915186 0
M  V30 6387 H 608.608 -2.97799 -1.24562 0
M  V30 6388 H 607.66 -3.6475 1.07988 0
M  V30 6389 H 608.972 -4.84045 1.20425 0
M  V30 6390 H 608.126 -6.00835 -0.841575 0
M  V30 6391 H 606.865 -4.7614 -1.05556 0
M  V30 6392 H 605.87 -5.37278 1.16674 0
M  V30 6393 H 607.095 -6.65178 1.36804 0
M  V30 6394 H 605.041 -6.50192 -0.870966 0
M  V30 6395 H 604.958 -7.54261 0.51246 0
M  V30 6396 H 606.226 -7.76741 -0.655271 0
M  V30 6397 N 610.455 -0.639598 -1.44038 0
M  V30 6398 C 611.704 -0.144885 -2.01179 0
M  V30 6399 C 612.017 1.24372 -1.50967 0
M  V30 6400 O 613.223 1.83291 -2.00292 0
M  V30 6401 C 611.679 -0.208244 -3.59297 0
M  V30 6402 C 611.287 -1.59869 -4.18504 0
M  V30 6403 C 613.031 0.229568 -4.23879 0
M  V30 6404 C 610.938 -1.61671 -5.68873 0
M  V30 6405 H 609.868 -0.0504005 -0.752314 0
M  V30 6406 H 612.519 -0.799639 -1.65161 0
M  V30 6407 H 610.901 0.513767 -3.92653 0
M  V30 6408 H 612.075 -2.34496 -3.96671 0
M  V30 6409 H 610.39 -1.98131 -3.66242 0
M  V30 6410 H 612.987 0.235758 -5.3418 0
M  V30 6411 H 613.33 1.25848 -3.96822 0
M  V30 6412 H 613.863 -0.440233 -3.95357 0
M  V30 6413 H 610.602 -2.62427 -6.00677 0
M  V30 6414 H 610.122 -0.913489 -5.92803 0
M  V30 6415 H 611.801 -1.35439 -6.32665 0
M  V30 6416 N 611.933 1.52934 -0.380664 0
M  V30 6417 C 613.182 2.00651 0.205477 0
M  V30 6418 C 613.495 1.27164 1.48623 0
M  V30 6419 O 614.701 1.65547 2.15189 0
M  V30 6420 C 613.157 3.57479 0.416726 0
M  V30 6421 C 612.765 4.39857 -0.850268 0
M  V30 6422 C 614.509 4.13509 0.959702 0
M  V30 6423 C 612.416 5.88269 -0.607773 0
M  V30 6424 H 611.346 0.749684 0.0805614 0
M  V30 6425 H 613.997 1.76508 -0.501732 0
M  V30 6426 H 612.379 3.77836 1.18557 0
M  V30 6427 H 613.553 4.31269 -1.62307 0
M  V30 6428 H 611.868 3.95005 -1.31756 0
M  V30 6429 H 614.465 5.22039 1.15669 0
M  V30 6430 H 614.808 3.69054 1.92626 0
M  V30 6431 H 615.341 3.9701 0.250645 0
M  V30 6432 H 612.08 6.3703 -1.54509 0
M  V30 6433 H 611.6 5.99667 0.126247 0
M  V30 6434 H 613.279 6.46558 -0.239014 0
M  V30 6435 N 613.412 0.11024 1.57214 0
M  V30 6436 C 614.359 -0.843195 2.14846 0
M  V30 6437 C 615.329 -1.26954 1.07107 0
M  V30 6438 O 616.514 -1.34861 1.34971 0
M  V30 6439 C 613.654 -2.09123 2.74521 0
M  V30 6440 C 612.767 -1.71404 3.96541 0
M  V30 6441 C 611.902 -2.91107 4.44331 0
M  V30 6442 C 610.941 -2.49586 5.58903 0
M  V30 6443 N 610.078 -3.62175 6.01477 0
M  V30 6444 H 614.918 -0.344886 2.95998 0
M  V30 6445 H 612.455 -0.15855 1.46243 0
M  V30 6446 H 614.413 -2.82234 3.07246 0
M  V30 6447 H 613.043 -2.56427 1.96074 0
M  V30 6448 H 612.095 -0.88201 3.70033 0
M  V30 6449 H 613.407 -1.36884 4.7965 0
M  V30 6450 H 612.561 -3.72454 4.78919 0
M  V30 6451 H 611.3 -3.28848 3.60153 0
M  V30 6452 H 610.305 -1.6667 5.23929 0
M  V30 6453 H 611.53 -2.12973 6.4484 0
M  V30 6454 H 609.476 -3.99605 5.20242 0
M  V30 6455 H 609.393 -3.3155 6.79419 0
M  V30 6456 H 610.661 -4.43987 6.407 0
M  V30 6457 N 614.89 -1.56749 -0.16351 0
M  V30 6458 C 616.13 -1.84234 -0.885271 0
M  V30 6459 C 616.494 -0.692259 -1.79086 0
M  V30 6460 O 617.695 -0.847747 -2.55082 0
M  V30 6461 C 615.966 -3.16857 -1.65337 0
M  V30 6462 S 617.525 -3.65848 -2.42282 0
M  V30 6463 H 614.343 -0.646293 -0.296354 0
M  V30 6464 H 616.945 -1.94951 -0.146365 0
M  V30 6465 H 615.649 -3.98546 -0.979266 0
M  V30 6466 H 615.18 -3.09102 -2.4335 0
M  V30 6467 H 617.195 -3.33796 -3.67143 0
M  V30 6468 N 616.368 0.432326 -1.51554 0
M  V30 6469 C 617.315 1.52512 -1.7323 0
M  V30 6470 C 618.285 1.55863 -0.5741 0
M  V30 6471 O 619.47 1.72796 -0.809093 0
M  V30 6472 C 616.61 2.90183 -1.86783 0
M  V30 6473 C 615.723 2.96322 -3.14352 0
M  V30 6474 C 614.858 4.25147 -3.18471 0
M  V30 6475 C 613.897 4.25172 -4.40335 0
M  V30 6476 N 613.034 5.45529 -4.41975 0
M  V30 6477 H 617.874 1.33332 -2.66508 0
M  V30 6478 H 615.411 0.647613 -1.32077 0
M  V30 6479 H 617.369 3.70071 -1.92623 0
M  V30 6480 H 615.999 3.0791 -0.969087 0
M  V30 6481 H 615.051 2.09066 -3.17798 0
M  V30 6482 H 616.363 2.92203 -4.04251 0
M  V30 6483 H 615.517 5.13411 -3.23255 0
M  V30 6484 H 614.256 4.31929 -2.2647 0
M  V30 6485 H 613.261 3.353 -4.35723 0
M  V30 6486 H 614.486 4.20049 -5.33606 0
M  V30 6487 H 612.432 5.53024 -3.52847 0
M  V30 6488 H 612.349 5.43311 -5.25689 0
M  V30 6489 H 613.617 6.35812 -4.50958 0
M  V30 6490 N 617.846 1.41785 0.688094 0
M  V30 6491 C 619.093 1.41544 1.44816 0
M  V30 6492 C 619.421 0.0271746 1.94481 0
M  V30 6493 O 618.676 -0.962235 1.7041 0
M  V30 6494 C 618.975 2.37532 2.67046 0
M  V30 6495 C 618.641 3.84209 2.35996 0
M  V30 6496 C 617.303 4.24165 2.27239 0
M  V30 6497 C 619.655 4.76785 2.10536 0
M  V30 6498 C 616.983 5.54695 1.91128 0
M  V30 6499 C 619.335 6.07644 1.75931 0
M  V30 6500 C 617.999 6.46613 1.65675 0
M  V30 6501 H 617.269 0.517945 0.529919 0
M  V30 6502 H 619.916 1.74635 0.785797 0
M  V30 6503 H 618.221 1.9772 3.38251 0
M  V30 6504 H 619.918 2.34615 3.25203 0
M  V30 6505 H 616.508 3.52567 2.4371 0
M  V30 6506 H 620.692 4.46714 2.16242 0
M  V30 6507 H 615.948 5.83762 1.81746 0
M  V30 6508 H 620.122 6.78874 1.55252 0
M  V30 6509 H 617.749 7.47668 1.37463 0
M  V30 6510 N 619.324 -0.923095 1.27737 0
M  V30 6511 C 620.564 -1.6858 1.15586 0
M  V30 6512 C 620.928 -1.89758 -0.292562 0
M  V30 6513 O 622.129 -2.6339 -0.536583 0
M  V30 6514 C 620.4 -3.01275 1.92271 0
M  V30 6515 S 621.959 -3.924 1.96387 0
M  V30 6516 H 618.777 -0.579069 0.412554 0
M  V30 6517 H 621.379 -1.09866 1.61709 0
M  V30 6518 H 620.083 -2.83556 2.96689 0
M  V30 6519 H 619.614 -3.6504 1.46661 0
M  V30 6520 H 621.629 -4.84667 1.06361 0
M  V30 6521 N 620.802 -1.09834 -1.13024 0
M  V30 6522 C 622.218 -0.828875 -1.36388 0
M  V30 6523 C 622.418 0.554756 -1.93713 0
M  V30 6524 O 621.474 1.30882 -2.15931 0
M  V30 6525 C 622.787 -1.92352 -2.3113 0
M  V30 6526 C 624.335 -1.95124 -2.44735 0
M  V30 6527 C 624.81 -3.03745 -3.42787 0
M  V30 6528 N 626.301 -3.03012 -3.5034 0
M  V30 6529 C 627.036 -3.83699 -4.26101 0
M  V30 6530 N 626.532 -4.74306 -5.04981 0
M  V30 6531 N 628.325 -3.71942 -4.21445 0
M  V30 6532 H 620.476 -1.99029 -0.74169 0
M  V30 6533 H 622.739 -0.864557 -0.388903 0
M  V30 6534 H 622.445 -2.91906 -1.96172 0
M  V30 6535 H 622.319 -1.80536 -3.3119 0
M  V30 6536 H 624.706 -0.962069 -2.78977 0
M  V30 6537 H 624.787 -2.11018 -1.44586 0
M  V30 6538 H 624.431 -4.02878 -3.09276 0
M  V30 6539 H 624.361 -2.85094 -4.42752 0
M  V30 6540 H 626.852 -2.37352 -2.94062 0
M  V30 6541 H 627.165 -5.32446 -5.60108 0
M  V30 6542 H 625.51 -4.78339 -5.04199 0
M  V30 6543 H 628.701 -3.00513 -3.589 0
M  V30 6544 H 628.874 -4.35062 -4.80235 0
M  V30 6545 N 622.28 1.30327 -0.886154 0
M  V30 6546 C 623.212 2.27079 -0.311072 0
M  V30 6547 C 624.225 1.53758 0.53502 0
M  V30 6548 O 625.414 1.74947 0.354378 0
M  V30 6549 C 622.514 3.33965 0.576228 0
M  V30 6550 C 621.687 4.36735 -0.241064 0
M  V30 6551 C 620.746 5.23028 0.576916 0
M  V30 6552 O 619.772 5.692 -0.000802231 0
M  V30 6553 N 620.974 5.49016 1.88579 0
M  V30 6554 H 623.739 2.77065 -1.14259 0
M  V30 6555 H 621.3 1.43519 -0.749258 0
M  V30 6556 H 623.292 3.88618 1.12953 0
M  V30 6557 H 621.862 2.839 1.30842 0
M  V30 6558 H 621.082 3.81932 -0.975805 0
M  V30 6559 H 622.37 5.02451 -0.801272 0
M  V30 6560 H 621.768 5.13288 2.37806 0
M  V30 6561 H 620.325 6.06539 2.38651 0
M  V30 6562 O 623.797 0.786908 1.41032 0
M  V30 6563 H 624.488 0.356185 1.90397 0
M  V30 END ATOM
M  V30 BEGIN BOND
M  V30 END BOND
M  V30 END CTAB
M  END
$$$$
