drugbank_target|Q4KH25 Outer membrane porin, OprD family (DB04147)
 OpenBabel12092120483D

  0  0  0     0  0            999 V3000
M  V30 BEGIN CTAB
M  V30 COUNTS 6419 6494 0 0 0
M  V30 BEGIN ATOM
M  V30 1 H -0.908 1.98254 -0.117106 0
M  V30 2 N 0 1.576 0 0
M  V30 3 C 0.933 2.03868 1.02534 0
M  V30 4 C 1.911 0.928543 1.3348 0
M  V30 5 O 3.095 1.19667 1.45644 0
M  V30 6 C 0.222 2.43627 2.35294 0
M  V30 7 C -0.732 3.65373 2.2001 0
M  V30 8 S 0.101 5.13292 1.52614 0
M  V30 9 C 1.257 5.56322 2.86805 0
M  V30 10 H 1.49 2.90518 0.631377 0
M  V30 11 H -0.977 1.52953 0.210867 0
M  V30 12 H 0.981 2.67203 3.11629 0
M  V30 13 H -0.358 1.57376 2.7183 0
M  V30 14 H -1.165 3.90944 3.18086 0
M  V30 15 H -1.563 3.418 1.51819 0
M  V30 16 H 0.729 5.58782 3.83104 0
M  V30 17 H 1.672 6.56266 2.65933 0
M  V30 18 H 2.08 4.83886 2.90714 0
M  V30 19 N 1.4781 -0.272755 1.55222 0
M  V30 20 C 2.4251 -1.33716 1.88119 0
M  V30 21 C 3.3951 -1.49066 0.73271 0
M  V30 22 O 4.5801 -1.63469 0.984002 0
M  V30 23 C 1.7201 -2.69238 2.15882 0
M  V30 24 C 0.8331 -2.62108 3.43399 0
M  V30 25 C -0.0319 -3.89811 3.60861 0
M  V30 26 C -0.9929 -3.77193 4.8207 0
M  V30 27 N -1.8559 -4.9673 4.96189 0
M  V30 28 H 2.9841 -1.04962 2.78903 0
M  V30 29 H 0.5211 -0.507088 1.38083 0
M  V30 30 H 2.4791 -3.48089 2.29978 0
M  V30 31 H 1.1091 -2.96194 1.28331 0
M  V30 32 H 0.1611 -1.74967 3.37773 0
M  V30 33 H 1.4731 -2.48685 4.32386 0
M  V30 34 H 0.6271 -4.77103 3.74777 0
M  V30 35 H -0.6339 -4.06102 2.7006 0
M  V30 36 H -1.6289 -2.88284 4.68159 0
M  V30 37 H -0.4039 -3.62421 5.74307 0
M  V30 38 H -2.4579 -5.13431 4.08319 0
M  V30 39 H -2.5409 -4.85839 5.79221 0
M  V30 40 H -1.2729 -5.85594 5.1449 0
M  V30 41 N 2.9562 -1.48159 -0.537278 0
M  V30 42 C 4.3672 -1.49429 -1.11928 0
M  V30 43 C 4.7182 -0.26 -1.9447 0
M  V30 44 O 3.8432 0.633489 -2.0692 0
M  V30 45 C 4.4382 -2.70758 -2.03656 0
M  V30 46 C 2.9972 -2.74923 -2.57088 0
M  V30 47 C 2.1442 -2.42835 -1.3389 0
M  V30 48 H 5.0952 -1.55381 -0.322886 0
M  V30 49 H 5.1162 -2.48861 -2.87834 0
M  V30 50 H 4.6282 -3.60575 -1.43553 0
M  V30 51 H 2.7292 -1.89296 -3.20933 0
M  V30 52 H 2.8422 -3.76157 -2.9672 0
M  V30 53 H 1.2062 -1.93836 -1.65226 0
M  V30 54 H 1.9892 -3.34884 -0.755504 0
M  V30 55 N 4.4343 0.785586 -1.36625 0
M  V30 56 C 5.6593 1.57963 -1.34397 0
M  V30 57 C 6.0843 1.87964 0.071526 0
M  V30 58 O 5.4423 1.48182 1.0446 0
M  V30 59 C 5.4903 2.87511 -2.17646 0
M  V30 60 O 4.5943 3.81281 -1.57158 0
M  V30 61 H 3.9353 0.479014 -0.459828 0
M  V30 62 H 6.4653 0.973411 -1.79961 0
M  V30 63 H 6.4753 3.36745 -2.30362 0
M  V30 64 H 5.1503 2.65002 -3.20541 0
M  V30 65 H 3.7273 3.39885 -1.53403 0
M  V30 66 N 5.9124 1.20967 1.01018 0
M  V30 67 C 7.1404 1.04956 1.78303 0
M  V30 68 C 7.5554 -0.400915 1.84494 0
M  V30 69 O 6.9124 -1.27826 1.30257 0
M  V30 70 C 6.9634 1.63403 3.22462 0
M  V30 71 O 6.6844 3.02775 3.16637 0
M  V30 72 C 8.1854 1.52432 4.16268 0
M  V30 73 H 5.4054 0.368858 0.560522 0
M  V30 74 H 7.9494 1.60193 1.27116 0
M  V30 75 H 6.1044 1.1227 3.70775 0
M  V30 76 H 6.5184 3.30626 4.07169 0
M  V30 77 H 7.9924 1.98078 5.15237 0
M  V30 78 H 8.4694 0.477875 4.36592 0
M  V30 79 H 9.0754 2.02787 3.73841 0
M  V30 80 N 7.3905 -1.2043 1.01659 0
M  V30 81 C 8.8015 -1.71517 0.737482 0
M  V30 82 C 9.1525 -1.81547 -0.743973 0
M  V30 83 O 8.2775 -1.47803 -1.58061 0
M  V30 84 C 8.8725 -3.11515 1.33206 0
M  V30 85 C 7.4315 -3.59912 1.10183 0
M  V30 86 C 6.5785 -2.37116 1.43776 0
M  V30 87 H 9.5295 -1.05444 1.18606 0
M  V30 88 H 9.5505 -3.73575 0.722636 0
M  V30 89 H 9.0625 -3.04182 2.41028 0
M  V30 90 H 7.1635 -3.72577 0.0412756 0
M  V30 91 H 7.2765 -4.44731 1.78188 0
M  V30 92 H 5.6405 -2.39857 0.856778 0
M  V30 93 H 6.4235 -2.32424 2.52654 0
M  V30 94 N 8.8686 -0.792821 -1.36206 0
M  V30 95 C 10.2796 -0.429513 -1.81692 0
M  V30 96 C 10.6306 1.04695 -1.65932 0
M  V30 97 O 9.7556 1.81256 -1.18218 0
M  V30 98 C 10.3506 -0.772831 -3.29868 0
M  V30 99 C 8.9096 -0.462307 -3.7355 0
M  V30 100 C 8.0566 -1.00569 -2.5842 0
M  V30 101 H 11.0076 -0.985672 -1.24379 0
M  V30 102 H 11.0286 -0.0651928 -3.80444 0
M  V30 103 H 10.5406 -1.84747 -3.41307 0
M  V30 104 H 8.6416 0.604158 -3.67669 0
M  V30 105 H 8.7546 -0.985299 -4.68859 0
M  V30 106 H 7.1186 -0.428734 -2.51066 0
M  V30 107 H 7.9016 -2.08616 -2.72643 0
M  V30 108 N 10.3467 1.47872 -0.545128 0
M  V30 109 C 11.5717 2.07391 -0.0190611 0
M  V30 110 C 11.9967 1.39688 1.25971 0
M  V30 111 O 11.3547 0.467816 1.7516 0
M  V30 112 C 11.4027 3.60188 0.172335 0
M  V30 113 O 10.5067 3.9339 1.23766 0
M  V30 114 H 9.8477 0.662411 -0.0459059 0
M  V30 115 H 12.3777 1.90066 -0.757365 0
M  V30 116 H 12.3877 4.06129 0.390305 0
M  V30 117 H 11.0627 4.08865 -0.761725 0
M  V30 118 H 9.6397 3.5921 1.00114 0
M  V30 119 N 11.8248 0.280983 1.55075 0
M  V30 120 C 13.0548 -0.336804 2.03836 0
M  V30 121 C 13.4628 -1.49577 1.15859 0
M  V30 122 O 12.8058 -1.82888 0.172503 0
M  V30 123 C 12.8678 -0.874616 3.48699 0
M  V30 124 C 12.5318 0.156478 4.56732 0
M  V30 125 C 13.5288 0.978032 5.10618 0
M  V30 126 C 11.2138 0.292409 5.01448 0
M  V30 127 C 13.2078 1.92165 6.07743 0
M  V30 128 C 10.8948 1.23949 5.98398 0
M  V30 129 C 11.8928 2.05261 6.51427 0
M  V30 130 O 11.5808 2.98367 7.4648 0
M  V30 131 H 11.3128 -0.0800885 0.671239 0
M  V30 132 H 13.8668 0.412589 2.01213 0
M  V30 133 H 12.0968 -1.67418 3.4858 0
M  V30 134 H 13.7858 -1.40612 3.80766 0
M  V30 135 H 14.5518 0.883782 4.7688 0
M  V30 136 H 10.4308 -0.330498 4.59814 0
M  V30 137 H 13.9748 2.55672 6.49059 0
M  V30 138 H 9.8718 1.33454 6.31554 0
M  V30 139 H 10.6398 2.93116 7.64215 0
M  V30 140 N 13.3029 -1.57598 0.00835791 0
M  V30 141 C 14.2329 -2.1198 -0.979113 0
M  V30 142 C 15.2139 -1.03091 -1.35301 0
M  V30 143 O 16.3989 -1.30818 -1.43528 0
M  V30 144 C 13.5289 -2.62995 -2.26828 0
M  V30 145 C 12.4829 -3.76485 -2.03576 0
M  V30 146 C 11.8089 -4.13846 -3.38579 0
M  V30 147 C 13.1089 -5.0342 -1.39161 0
M  V30 148 H 14.8029 -2.94738 -0.526281 0
M  V30 149 H 12.3489 -1.41783 -0.251704 0
M  V30 150 H 14.3019 -2.99669 -2.96271 0
M  V30 151 H 13.0259 -1.7737 -2.7424 0
M  V30 152 H 11.6849 -3.40217 -1.36557 0
M  V30 153 H 11.3329 -3.25232 -3.83709 0
M  V30 154 H 11.0329 -4.90312 -3.23834 0
M  V30 155 H 12.5569 -4.53086 -4.09323 0
M  V30 156 H 13.9709 -5.37812 -1.98573 0
M  V30 157 H 12.3679 -5.84746 -1.34878 0
M  V30 158 H 13.4379 -4.83548 -0.361868 0
M  V30 159 N 14.781 0.264519 -1.55364 0
M  V30 160 C 15.711 1.33121 -1.91836 0
M  V30 161 C 16.692 1.51101 -0.781192 0
M  V30 162 O 17.877 1.64003 -1.04003 0
M  V30 163 C 15.007 2.68921 -2.19769 0
M  V30 164 C 13.961 2.65661 -3.35571 0
M  V30 165 C 13.287 4.05093 -3.49004 0
M  V30 166 C 14.587 2.24187 -4.71739 0
M  V30 167 H 16.281 1.02844 -2.81182 0
M  V30 168 H 13.827 0.493286 -1.35287 0
M  V30 169 H 15.78 3.43663 -2.43872 0
M  V30 170 H 14.504 3.00799 -1.27231 0
M  V30 171 H 13.163 1.93377 -3.1145 0
M  V30 172 H 12.811 4.34206 -2.53917 0
M  V30 173 H 12.511 4.03804 -4.26868 0
M  V30 174 H 14.035 4.81561 -3.75408 0
M  V30 175 H 15.449 2.88654 -4.9533 0
M  V30 176 H 13.846 2.34044 -5.52579 0
M  V30 177 H 14.916 1.19327 -4.69988 0
M  V30 178 N 16.2591 1.48442 0.529413 0
M  V30 179 C 17.6701 1.5002 1.11134 0
M  V30 180 C 18.0211 0.27031 1.94329 0
M  V30 181 O 17.1461 -0.622507 2.07253 0
M  V30 182 C 17.7411 2.71834 2.02217 0
M  V30 183 C 16.3001 2.76283 2.55627 0
M  V30 184 C 15.4471 2.43542 1.326 0
M  V30 185 H 18.3981 1.5555 0.314641 0
M  V30 186 H 18.4191 2.50384 2.8651 0
M  V30 187 H 17.9311 3.61331 1.41639 0
M  V30 188 H 16.0321 1.90995 3.19924 0
M  V30 189 H 16.1451 3.77725 2.94721 0
M  V30 190 H 14.5091 1.94709 1.64196 0
M  V30 191 H 15.2921 3.3528 0.737734 0
M  V30 192 N 17.7372 -0.778329 1.37039 0
M  V30 193 C 18.9622 -1.57248 1.35233 0
M  V30 194 C 19.3872 -1.87999 -0.0615568 0
M  V30 195 O 18.7452 -1.48734 -1.03672 0
M  V30 196 C 18.7932 -2.86353 2.19167 0
M  V30 197 O 17.8972 -3.80442 1.59178 0
M  V30 198 H 17.2382 -0.476569 0.462362 0
M  V30 199 H 19.7682 -0.963853 1.80474 0
M  V30 200 H 19.7782 -3.35519 2.32145 0
M  V30 201 H 18.4532 -2.63299 3.21942 0
M  V30 202 H 17.0302 -3.39067 1.55203 0
M  V30 203 N 19.2153 -1.21501 -1.00376 0
M  V30 204 C 20.1453 -0.999478 -2.11028 0
M  V30 205 C 21.1263 0.0759671 -1.6993 0
M  V30 206 O 22.3113 -0.0841106 -1.94018 0
M  V30 207 C 19.4413 -0.564709 -3.42678 0
M  V30 208 C 18.3953 -1.58486 -3.97576 0
M  V30 209 C 17.7213 -1.00628 -5.25146 0
M  V30 210 C 19.0213 -2.97204 -4.29496 0
M  V30 211 H 20.7153 -1.92495 -2.29317 0
M  V30 212 H 18.2613 -0.92693 -1.102 0
M  V30 213 H 20.2143 -0.401091 -4.19487 0
M  V30 214 H 18.9383 0.396411 -3.24185 0
M  V30 215 H 17.5973 -1.73606 -3.22888 0
M  V30 216 H 17.2453 -0.0368439 -5.02987 0
M  V30 217 H 16.9453 -1.68771 -5.62841 0
M  V30 218 H 18.4693 -0.854015 -6.04598 0
M  V30 219 H 19.8833 -2.8552 -4.97143 0
M  V30 220 H 18.2803 -3.62372 -4.78338 0
M  V30 221 H 19.3503 -3.47956 -3.3772 0
M  V30 222 N 20.6934 1.19889 -1.02296 0
M  V30 223 C 21.6234 2.25141 -0.619174 0
M  V30 224 C 22.6044 1.66051 0.368915 0
M  V30 225 O 23.7894 1.92546 0.252941 0
M  V30 226 C 20.9194 3.4728 0.0368783 0
M  V30 227 C 19.8734 4.19005 -0.872865 0
M  V30 228 C 19.1994 5.34637 -0.0822402 0
M  V30 229 C 20.4994 4.74452 -2.18387 0
M  V30 230 H 22.1934 2.59171 -1.49903 0
M  V30 231 H 19.7394 1.24579 -0.722222 0
M  V30 232 H 21.6924 4.20098 0.330958 0
M  V30 233 H 20.4164 3.12433 0.95149 0
M  V30 234 H 19.0754 3.48061 -1.15105 0
M  V30 235 H 18.7234 4.96034 0.83422 0
M  V30 236 H 18.4234 5.83557 -0.688149 0
M  V30 237 H 19.9474 6.10255 0.205238 0
M  V30 238 H 21.3614 5.39055 -1.95172 0
M  V30 239 H 19.7584 5.33834 -2.74119 0
M  V30 240 H 20.8284 3.92844 -2.84257 0
M  V30 241 N 22.1715 0.800033 1.35784 0
M  V30 242 C 23.1345 0.211565 2.28221 0
M  V30 243 C 24.1345 -0.59728 1.49296 0
M  V30 244 O 25.3245 -0.416721 1.69142 0
M  V30 245 C 22.4565 -0.705846 3.33513 0
M  V30 246 H 23.6495 1.02677 2.81776 0
M  V30 247 H 21.2025 0.570211 1.45528 0
M  V30 248 H 21.9375 -1.54498 2.85133 0
M  V30 249 H 21.7225 -0.127655 3.91892 0
M  V30 250 H 23.2125 -1.11211 4.02519 0
M  V30 251 N 23.6496 -1.47581 0.552962 0
M  V30 252 C 24.5796 -2.32762 -0.185451 0
M  V30 253 C 25.5606 -1.43527 -0.912905 0
M  V30 254 O 26.7456 -1.72388 -0.894201 0
M  V30 255 C 23.8756 -3.25219 -1.21859 0
M  V30 256 C 22.8296 -4.23661 -0.607864 0
M  V30 257 C 22.1556 -5.05413 -1.74533 0
M  V30 258 C 23.4556 -5.20481 0.435582 0
M  V30 259 H 25.1496 -2.94749 0.525684 0
M  V30 260 H 22.6956 -1.41738 0.254251 0
M  V30 261 H 24.6486 -3.8365 -1.7433 0
M  V30 262 H 23.3726 -2.61279 -1.95961 0
M  V30 263 H 22.0316 -3.66451 -0.104489 0
M  V30 264 H 21.6796 -4.3788 -2.47529 0
M  V30 265 H 21.3796 -5.72059 -1.34249 0
M  V30 266 H 22.9036 -5.66701 -2.27338 0
M  V30 267 H 24.3176 -5.733 -0.00290157 0
M  V30 268 H 22.7146 -5.95305 0.757067 0
M  V30 269 H 23.7846 -4.66217 1.33303 0
M  V30 270 N 25.1277 -0.289203 -1.54924 0
M  V30 271 C 26.0907 0.579144 -2.21762 0
M  V30 272 C 27.0907 1.07047 -1.1999 0
M  V30 273 O 28.2807 0.968384 -1.44803 0
M  V30 274 C 25.4127 1.80055 -2.8947 0
M  V30 275 H 26.6057 -0.00464908 -2.999 0
M  V30 276 H 24.1587 -0.0399306 -1.56249 0
M  V30 277 H 24.8937 2.42449 -2.15381 0
M  V30 278 H 24.6787 1.45602 -3.64064 0
M  V30 279 H 26.1687 2.41773 -3.40493 0
M  V30 280 N 26.6058 1.57591 -0.0167156 0
M  V30 281 C 27.5358 2.12496 0.967858 0
M  V30 282 C 28.5168 1.03807 1.34752 0
M  V30 283 O 29.7018 1.31577 1.42833 0
M  V30 284 C 26.8318 2.64194 2.25431 0
M  V30 285 C 25.7858 3.77559 2.01576 0
M  V30 286 C 25.1118 4.15636 3.36379 0
M  V30 287 C 26.4118 5.04151 1.36489 0
M  V30 288 H 28.1058 2.95013 0.510643 0
M  V30 289 H 25.6518 1.41915 0.244181 0
M  V30 290 H 27.6048 3.01236 2.94678 0
M  V30 291 H 26.3288 1.78821 2.73296 0
M  V30 292 H 24.9878 3.40937 1.34751 0
M  V30 293 H 24.6358 3.27263 3.81979 0
M  V30 294 H 24.3358 4.92022 3.21229 0
M  V30 295 H 25.8598 4.5525 4.06915 0
M  V30 296 H 27.2738 5.38857 1.95718 0
M  V30 297 H 25.6708 5.85453 1.31776 0
M  V30 298 H 26.7408 4.83733 0.336219 0
M  V30 299 N 28.0839 -0.256276 1.55502 0
M  V30 300 C 29.3089 -1.00766 1.81276 0
M  V30 301 C 29.7339 -1.78524 0.59252 0
M  V30 302 O 29.0919 -1.75413 -0.45827 0
M  V30 303 C 29.1399 -1.92869 3.04687 0
M  V30 304 O 28.2439 -3.019 2.80945 0
M  V30 305 H 27.5849 -0.287224 0.598664 0
M  V30 306 H 30.1149 -0.280109 2.02674 0
M  V30 307 H 30.1249 -2.34511 3.33869 0
M  V30 308 H 28.7999 -1.35689 3.93143 0
M  V30 309 H 27.3769 -2.64454 2.62904 0
M  V30 310 N 29.562 -1.4872 -0.521534 0
M  V30 311 C 30.787 -1.61101 -1.30618 0
M  V30 312 C 31.212 -0.274611 -1.86085 0
M  V30 313 O 30.57 0.754937 -1.64834 0
M  V30 314 C 30.618 -2.66709 -2.4269 0
M  V30 315 O 29.722 -2.24456 -3.45967 0
M  V30 316 H 29.063 -0.539921 -0.386499 0
M  V30 317 H 31.593 -1.94767 -0.626645 0
M  V30 318 H 31.603 -2.88245 -2.88754 0
M  V30 319 H 30.278 -3.63727 -2.01682 0
M  V30 320 H 28.855 -2.13168 -3.05964 0
M  V30 321 N 31.0401 0.771051 -1.3745 0
M  V30 322 C 32.2681 1.56015 -1.35893 0
M  V30 323 C 32.6831 1.88718 0.0555523 0
M  V30 324 O 32.0401 1.51502 1.01752 0
M  V30 325 C 32.0911 2.87001 -2.19801 0
M  V30 326 O 31.8121 2.557 -3.55738 0
M  V30 327 C 33.3131 3.81228 -2.26231 0
M  V30 328 H 30.5331 0.483317 -0.465453 0
M  V30 329 H 33.0771 0.955611 -1.80799 0
M  V30 330 H 31.2321 3.43877 -1.78402 0
M  V30 331 H 31.6461 3.39584 -3.99729 0
M  V30 332 H 33.1201 4.70139 -2.89263 0
M  V30 333 H 33.5971 4.20409 -1.27093 0
M  V30 334 H 34.2031 3.30281 -2.67945 0
M  V30 335 N 32.5182 1.22032 0.997298 0
M  V30 336 C 33.4812 0.987909 2.06816 0
M  V30 337 C 34.4812 -0.0440084 1.6074 0
M  V30 338 O 35.6712 0.194053 1.73116 0
M  V30 339 C 32.8032 0.49132 3.37341 0
M  V30 340 H 33.9962 1.93803 2.28868 0
M  V30 341 H 31.5492 1.03838 1.16822 0
M  V30 342 H 32.2842 -0.463364 3.20973 0
M  V30 343 H 32.0692 1.23575 3.72118 0
M  V30 344 H 33.5592 0.348824 4.16141 0
M  V30 345 N 33.9963 -1.19345 1.0293 0
M  V30 346 C 34.9263 -2.2481 0.631105 0
M  V30 347 C 35.9073 -1.66245 -0.360104 0
M  V30 348 O 37.0923 -1.92677 -0.242726 0
M  V30 349 C 34.2223 -3.47295 -0.0184607 0
M  V30 350 C 33.1763 -4.18536 0.895073 0
M  V30 351 C 32.5023 -5.34586 0.110592 0
M  V30 352 C 33.8023 -4.73287 2.209 0
M  V30 353 H 35.4963 -2.58372 1.51275 0
M  V30 354 H 33.0423 -1.24194 0.728818 0
M  V30 355 H 34.9953 -4.20268 -0.308675 0
M  V30 356 H 33.7193 -3.12933 -0.934907 0
M  V30 357 H 32.3783 -3.47446 1.16949 0
M  V30 358 H 32.0263 -4.96469 -0.807902 0
M  V30 359 H 31.7263 -5.83183 0.719087 0
M  V30 360 H 33.2503 -6.10355 -0.172871 0
M  V30 361 H 34.6643 -5.38013 1.98028 0
M  V30 362 H 33.0613 -5.32373 2.76946 0
M  V30 363 H 34.1313 -3.91331 2.86336 0
M  V30 364 N 35.4744 -0.807222 -1.35358 0
M  V30 365 C 36.8854 -0.44876 -1.81226 0
M  V30 366 C 37.2364 1.02929 -1.67033 0
M  V30 367 O 36.3614 1.79991 -1.20133 0
M  V30 368 C 36.9564 -0.807774 -3.2903 0
M  V30 369 C 35.5154 -0.501901 -3.73039 0
M  V30 370 C 34.6624 -1.03304 -2.57339 0
M  V30 371 H 37.6134 -0.998808 -1.23327 0
M  V30 372 H 37.6344 -0.10554 -3.80354 0
M  V30 373 H 37.1464 -1.88357 -3.39328 0
M  V30 374 H 35.2474 0.565128 -3.68289 0
M  V30 375 H 35.3604 -1.03497 -4.67787 0
M  V30 376 H 33.7244 -0.455339 -2.50597 0
M  V30 377 H 34.5074 -2.11496 -2.70415 0
M  V30 378 N 36.9525 1.47285 -0.560781 0
M  V30 379 C 37.9155 2.28535 0.174488 0
M  V30 380 C 38.9155 1.37153 0.839388 0
M  V30 381 O 40.1055 1.59748 0.694702 0
M  V30 382 C 37.2375 3.16934 1.25561 0
M  V30 383 H 38.4305 2.95012 -0.539262 0
M  V30 384 H 35.9835 1.53034 -0.317865 0
M  V30 385 H 36.7185 2.55157 2.00164 0
M  V30 386 H 36.5035 3.8419 0.783604 0
M  V30 387 H 37.9935 3.78143 1.77193 0
M  V30 388 N 38.4306 0.297415 1.54768 0
M  V30 389 C 39.3606 -0.573494 2.26348 0
M  V30 390 C 40.3416 -1.14085 1.26169 0
M  V30 391 O 41.5266 -1.17086 1.54934 0
M  V30 392 C 38.6566 -1.74716 3.00153 0
M  V30 393 C 37.6106 -1.31032 4.07449 0
M  V30 394 C 36.9366 -2.56887 4.68949 0
M  V30 395 C 38.2366 -0.444183 5.20408 0
M  V30 396 H 39.9306 0.0235131 2.99391 0
M  V30 397 H 37.4766 0.0127488 1.43994 0
M  V30 398 H 39.4296 -2.3625 3.48947 0
M  V30 399 H 38.1536 -2.37035 2.24682 0
M  V30 400 H 36.8126 -0.718066 3.59499 0
M  V30 401 H 36.4606 -3.17512 3.90122 0
M  V30 402 H 36.1606 -2.2836 5.41411 0
M  V30 403 H 37.6846 -3.19229 5.20505 0
M  V30 404 H 39.0986 -0.9651 5.65118 0
M  V30 405 H 37.4956 -0.252846 5.99567 0
M  V30 406 H 38.5656 0.531609 4.81977 0
M  V30 407 N 39.9087 -1.5758 0.0250728 0
M  V30 408 C 40.8717 -2.08896 -0.943139 0
M  V30 409 C 41.8717 -1.00321 -1.25668 0
M  V30 410 O 43.0617 -1.26495 -1.19769 0
M  V30 411 C 40.1937 -2.55143 -2.26086 0
M  V30 412 H 41.3867 -2.95723 -0.498775 0
M  V30 413 H 38.9397 -1.54703 -0.222888 0
M  V30 414 H 39.6747 -1.71633 -2.75159 0
M  V30 415 H 39.4597 -3.34461 -2.04641 0
M  V30 416 H 40.9497 -2.95083 -2.95492 0
M  V30 417 N 41.3868 0.248026 -1.55636 0
M  V30 418 C 42.3498 1.29044 -1.89421 0
M  V30 419 C 43.3498 1.41134 -0.770581 0
M  V30 420 O 44.5398 1.39854 -1.03858 0
M  V30 421 C 41.6718 2.66831 -2.12165 0
M  V30 422 H 42.8648 1.00305 -2.82629 0
M  V30 423 H 40.4178 0.487265 -1.48511 0
M  V30 424 H 41.1528 3.00711 -1.21422 0
M  V30 425 H 40.9378 2.59438 -2.93997 0
M  V30 426 H 42.4278 3.42103 -2.3949 0
M  V30 427 N 42.8649 1.48995 0.513639 0
M  V30 428 C 43.7749 1.67443 1.64317 0
M  V30 429 C 44.7909 0.556947 1.64846 0
M  V30 430 O 45.9669 0.830082 1.83498 0
M  V30 431 C 43.0319 1.72515 3.00732 0
M  V30 432 C 42.0929 2.96009 3.1093 0
M  V30 433 C 41.3259 3.00829 4.40837 0
M  V30 434 O 41.5489 2.13594 5.28898 0
M  V30 435 O 40.4829 3.93168 4.55744 0
M  V30 436 H 44.3089 2.63106 1.51687 0
M  V30 437 H 41.8939 1.32588 0.688543 0
M  V30 438 H 43.7759 1.78277 3.81831 0
M  V30 439 H 42.4509 0.800278 3.13651 0
M  V30 440 H 41.3579 2.9577 2.29065 0
M  V30 441 H 42.6909 3.87934 3.02933 0
M  V30 442 N 44.343 -0.763751 1.37857 0
M  V30 443 C 45.568 -1.55805 1.36893 0
M  V30 444 C 45.993 -1.88054 -0.0416135 0
M  V30 445 O 45.351 -1.49825 -1.02089 0
M  V30 446 C 45.399 -2.84012 2.22192 0
M  V30 447 O 44.503 -3.78732 1.63204 0
M  V30 448 H 43.844 -0.471638 0.46739 0
M  V30 449 H 46.374 -0.944657 1.81487 0
M  V30 450 H 46.384 -3.33037 2.35691 0
M  V30 451 H 45.059 -2.59869 3.24716 0
M  V30 452 H 43.636 -3.37402 1.58791 0
M  V30 453 N 45.8211 -1.22559 -0.990812 0
M  V30 454 C 47.0691 -1.04933 -1.72724 0
M  V30 455 C 47.3901 0.416158 -1.90508 0
M  V30 456 O 46.6601 1.29918 -1.46622 0
M  V30 457 H 45.2401 -0.385296 -0.639965 0
M  V30 458 H 47.9021 -1.54105 -1.19322 0
M  V30 459 H 46.9981 -1.52886 -2.72089 0
M  V30 460 N 47.2992 1.18797 -1.03562 0
M  V30 461 C 48.5462 1.8865 -0.736023 0
M  V30 462 C 48.8742 1.80041 0.735889 0
M  V30 463 O 48.1292 1.19179 1.55225 0
M  V30 464 C 48.4282 3.38692 -1.14117 0
M  V30 465 C 48.0942 3.67504 -2.6125 0
M  V30 466 C 46.7562 3.75078 -3.01447 0
M  V30 467 C 49.1082 3.80293 -3.56408 0
M  V30 468 C 46.4362 3.92915 -4.35701 0
M  V30 469 C 48.7882 3.99645 -4.90374 0
M  V30 470 C 47.4522 4.05453 -5.30249 0
M  V30 471 H 46.7222 0.690321 -0.26933 0
M  V30 472 H 49.3692 1.40641 -1.29971 0
M  V30 473 H 47.6742 3.88645 -0.496202 0
M  V30 474 H 49.3712 3.91072 -0.886789 0
M  V30 475 H 45.9612 3.62223 -2.29113 0
M  V30 476 H 50.1452 3.73779 -3.26501 0
M  V30 477 H 45.4012 3.95653 -4.66121 0
M  V30 478 H 49.5752 4.08482 -5.64017 0
M  V30 479 H 47.2022 4.19027 -6.34288 0
M  V30 480 N 48.7773 0.814389 1.34928 0
M  V30 481 C 49.7073 0.244827 2.32213 0
M  V30 482 C 50.6883 -0.634024 1.57842 0
M  V30 483 O 51.8733 -0.562676 1.8587 0
M  V30 484 C 49.0033 -0.601106 3.42058 0
M  V30 485 C 47.9573 0.179896 4.27622 0
M  V30 486 C 47.2833 -0.788237 5.28858 0
M  V30 487 C 48.5833 1.38329 5.03649 0
M  V30 488 H 50.2773 1.05763 2.80097 0
M  V30 489 H 47.8233 0.510029 1.34665 0
M  V30 490 H 49.7763 -1.00968 4.09125 0
M  V30 491 H 48.5003 -1.44688 2.92802 0
M  V30 492 H 47.1593 0.569739 3.62146 0
M  V30 493 H 46.8073 -1.62973 4.75866 0
M  V30 494 H 46.5073 -0.269942 5.8698 0
M  V30 495 H 48.0313 -1.19485 5.98795 0
M  V30 496 H 49.4453 1.04918 5.63618 0
M  V30 497 H 47.8423 1.83662 5.71304 0
M  V30 498 H 48.9123 2.16592 4.33839 0
M  V30 499 N 50.2554 -1.46986 0.568584 0
M  V30 500 C 51.1654 -2.33942 -0.17555 0
M  V30 501 C 52.1814 -1.48891 -0.90041 0
M  V30 502 O 53.3574 -1.81794 -0.86676 0
M  V30 503 C 50.4224 -3.25811 -1.18524 0
M  V30 504 C 49.4834 -4.26757 -0.466582 0
M  V30 505 C 48.7164 -5.14236 -1.42817 0
M  V30 506 O 48.9394 -5.04379 -2.66379 0
M  V30 507 O 47.8734 -5.94412 -0.946453 0
M  V30 508 H 51.6994 -2.98896 0.538036 0
M  V30 509 H 49.2844 -1.4573 0.329097 0
M  V30 510 H 51.1664 -3.82527 -1.76779 0
M  V30 511 H 49.8414 -2.63471 -1.88055 0
M  V30 512 H 48.7484 -3.73769 0.157451 0
M  V30 513 H 50.0814 -4.91843 0.187485 0
M  V30 514 N 51.7335 -0.305618 -1.54608 0
M  V30 515 C 53.0105 0.355652 -1.92339 0
M  V30 516 C 53.3905 1.71324 -1.23335 0
M  V30 517 O 52.7385 2.25473 -0.370702 0
M  V30 518 C 52.9485 0.46572 -3.45879 0
M  V30 519 C 54.2965 0.734426 -4.182 0
M  V30 520 O 55.3205 0.54935 -3.51938 0
M  V30 521 O 54.1795 1.09024 -5.35515 0
M  V30 522 H 51.2735 0.199666 -0.802535 0
M  V30 523 H 53.8195 -0.354017 -1.65966 0
M  V30 524 H 52.5915 -0.488461 -3.88239 0
M  V30 525 H 52.2145 1.22367 -3.78301 0
M  V30 526 N 53.2116 1.57565 -0.0334293 0
M  V30 527 C 54.1746 2.09393 0.932048 0
M  V30 528 C 55.1746 1.00986 1.25134 0
M  V30 529 O 56.3646 1.27129 1.19096 0
M  V30 530 C 53.4966 2.56338 2.2473 0
M  V30 531 H 54.6896 2.95984 0.483085 0
M  V30 532 H 52.2426 1.54819 0.21468 0
M  V30 533 H 52.9776 1.7309 2.74245 0
M  V30 534 H 52.7626 3.35542 2.02865 0
M  V30 535 H 54.2526 2.96646 2.93923 0
M  V30 536 N 54.6897 -0.239769 1.55765 0
M  V30 537 C 55.6217 -1.32001 1.87372 0
M  V30 538 C 56.6347 -1.43944 0.760522 0
M  V30 539 O 57.8237 -1.45167 1.0387 0
M  V30 540 C 54.9237 -2.69779 2.05115 0
M  V30 541 C 54.0967 -2.80014 3.36022 0
M  V30 542 C 53.1557 -3.98684 3.4342 0
M  V30 543 O 52.1817 -3.87877 4.16582 0
M  V30 544 N 53.3837 -5.12176 2.73232 0
M  V30 545 H 56.1487 -1.0522 2.80622 0
M  V30 546 H 53.7097 -0.429857 1.56089 0
M  V30 547 H 55.7017 -3.47517 2.07399 0
M  V30 548 H 54.2717 -2.89237 1.18577 0
M  V30 549 H 53.4917 -1.88896 3.45994 0
M  V30 550 H 54.7797 -2.83808 4.22292 0
M  V30 551 H 54.1777 -5.2385 2.13536 0
M  V30 552 H 52.7347 -5.88022 2.81199 0
M  V30 553 N 56.1678 -1.49265 -0.50573 0
M  V30 554 C 57.1308 -1.65075 -1.59006 0
M  V30 555 C 58.1308 -0.522768 -1.52065 0
M  V30 556 O 59.3208 -0.789117 -1.55302 0
M  V30 557 C 56.4528 -1.64369 -2.98656 0
M  V30 558 H 57.6458 -2.61784 -1.46319 0
M  V30 559 H 55.1988 -1.38226 -0.729616 0
M  V30 560 H 55.9338 -0.692272 -3.16825 0
M  V30 561 H 55.7188 -2.46282 -3.05103 0
M  V30 562 H 57.2088 -1.78674 -3.77446 0
M  V30 563 N 57.6459 0.756429 -1.3826 0
M  V30 564 C 58.5939 1.89149 -1.35372 0
M  V30 565 C 59.5879 1.67691 -0.24004 0
M  V30 566 O 60.7939 1.75294 -0.408919 0
M  V30 567 H 57.1689 0.622271 -0.422236 0
M  V30 568 H 59.1399 1.88701 -2.31159 0
M  V30 569 C 57.8889 3.26599 -1.19284 0
M  V30 570 H 57.2119 3.43695 -2.0424 0
M  V30 571 H 58.6519 4.06274 -1.21316 0
M  V30 572 C 57.1109 3.3675 0.100454 0
M  V30 573 O 57.6409 3.86951 1.07851 0
M  V30 574 N 55.8469 2.90179 0.15633 0
M  V30 575 H 55.3939 2.49517 -0.640253 0
M  V30 576 H 55.3519 2.97352 1.02123 0
M  V30 577 N 59.124 1.23083 0.984299 0
M  V30 578 C 60.054 1.03292 2.09411 0
M  V30 579 C 61.035 -0.048923 1.7003 0
M  V30 580 O 62.22 0.114967 1.93859 0
M  V30 581 C 59.35 0.619155 3.41736 0
M  V30 582 C 58.304 1.64791 3.95004 0
M  V30 583 C 57.63 1.0897 5.23478 0
M  V30 584 C 58.93 3.03999 4.24714 0
M  V30 585 H 60.624 1.96119 2.26225 0
M  V30 586 H 58.17 0.944344 1.08711 0
M  V30 587 H 60.123 0.467777 4.18796 0
M  V30 588 H 58.847 -0.344786 3.24775 0
M  V30 589 H 57.506 1.78721 3.20085 0
M  V30 590 H 57.154 0.11686 5.02864 0
M  V30 591 H 56.854 1.77704 5.60085 0
M  V30 592 H 58.378 0.950093 6.03163 0
M  V30 593 H 59.792 2.93393 4.92538 0
M  V30 594 H 58.189 3.69936 4.72512 0
M  V30 595 H 59.259 3.53285 3.32142 0
M  V30 596 N 60.6021 -1.18246 1.0419 0
M  V30 597 C 61.8301 -1.92195 0.766072 0
M  V30 598 C 62.2451 -1.76247 -0.676933 0
M  V30 599 O 61.6021 -1.09293 -1.46155 0
M  V30 600 C 61.6531 -3.43568 1.12442 0
M  V30 601 O 61.3741 -3.59015 2.51078 0
M  V30 602 C 62.8751 -4.34613 0.873275 0
M  V30 603 H 60.0951 -0.610114 0.279288 0
M  V30 604 H 62.6391 -1.50007 1.38989 0
M  V30 605 H 60.7941 -3.8354 0.545542 0
M  V30 606 H 61.2081 -4.5273 2.64831 0
M  V30 607 H 62.6821 -5.39374 1.17385 0
M  V30 608 H 63.1591 -4.38781 -0.191909 0
M  V30 609 H 63.7651 -4.00341 1.43551 0
M  V30 610 N 62.0802 -0.821533 -1.34494 0
M  V30 611 C 63.0102 -0.257138 -2.3208 0
M  V30 612 C 63.9912 0.625645 -1.58176 0
M  V30 613 O 65.1762 0.552811 -1.86166 0
M  V30 614 C 62.3062 0.582958 -3.42372 0
M  V30 615 C 61.2602 -0.202571 -4.2752 0
M  V30 616 C 60.5862 0.760179 -5.29269 0
M  V30 617 C 61.8862 -1.40998 -5.02908 0
M  V30 618 H 63.5802 -1.07247 -2.79532 0
M  V30 619 H 61.1262 -0.517163 -1.34393 0
M  V30 620 H 63.0792 0.987972 -4.09655 0
M  V30 621 H 61.8032 1.43133 -2.93565 0
M  V30 622 H 60.4622 -0.588936 -3.61838 0
M  V30 623 H 60.1102 1.60447 -4.76724 0
M  V30 624 H 59.8102 0.238809 -5.87115 0
M  V30 625 H 61.3342 1.16308 -5.9942 0
M  V30 626 H 62.7482 -1.07905 -5.63054 0
M  V30 627 H 61.1452 -1.86689 -5.70322 0
M  V30 628 H 62.2152 -2.1889 -4.32684 0
M  V30 629 N 63.5583 1.46682 -0.576371 0
M  V30 630 C 64.9743 1.57822 -0.237562 0
M  V30 631 C 65.1743 1.57237 1.26011 0
M  V30 632 O 64.2303 1.48596 2.04146 0
M  V30 633 C 65.5433 2.87499 -0.881168 0
M  V30 634 C 67.0913 3.01119 -0.85417 0
M  V30 635 C 67.5663 4.33524 -1.4772 0
M  V30 636 N 69.0573 4.40207 -1.44125 0
M  V30 637 C 69.7923 5.4126 -1.89276 0
M  V30 638 N 69.2883 6.49021 -2.42371 0
M  V30 639 N 71.0813 5.32422 -1.80231 0
M  V30 640 H 63.2323 1.45306 -1.54919 0
M  V30 641 H 65.4953 0.692733 -0.647167 0
M  V30 642 H 65.2013 2.9372 -1.93447 0
M  V30 643 H 65.0753 3.75224 -0.385592 0
M  V30 644 H 67.4623 2.94485 0.190491 0
M  V30 645 H 67.5433 2.14887 -1.3877 0
M  V30 646 H 67.1873 4.40916 -2.52103 0
M  V30 647 H 67.1173 5.1852 -0.918947 0
M  V30 648 H 69.6083 3.62931 -1.05307 0
M  V30 649 H 69.9213 7.2233 -2.74698 0
M  V30 650 H 68.2663 6.49858 -2.46393 0
M  V30 651 H 71.4573 4.47137 -1.38514 0
M  V30 652 H 71.6303 6.11034 -2.15735 0
M  V30 653 N 65.0364 0.313813 1.54444 0
M  V30 654 C 65.9844 -0.572171 2.25453 0
M  V30 655 C 66.9784 -1.12657 1.2651 0
M  V30 656 O 68.1844 -1.07573 1.44319 0
M  V30 657 H 64.5594 -0.203146 0.724041 0
M  V30 658 H 66.5304 0.0491145 2.9836 0
M  V30 659 C 65.2794 -1.72626 3.0182 0
M  V30 660 H 64.6024 -1.30891 3.77767 0
M  V30 661 H 66.0424 -2.32199 3.54767 0
M  V30 662 C 64.5014 -2.63806 2.09542 0
M  V30 663 O 65.0314 -3.65256 1.67185 0
M  V30 664 N 63.2374 -2.31824 1.75232 0
M  V30 665 H 62.7844 -1.49368 2.09873 0
M  V30 666 H 62.7424 -2.93095 1.13767 0
M  V30 667 N 66.5145 -1.57545 0.0417849 0
M  V30 668 C 67.7615 -1.92317 -0.634082 0
M  V30 669 C 68.0895 -0.919334 -1.71402 0
M  V30 670 O 67.3445 0.0698253 -1.95575 0
M  V30 671 C 67.6435 -3.33794 -1.27735 0
M  V30 672 C 67.3095 -4.49716 -0.326543 0
M  V30 673 C 65.9715 -4.81156 -0.0648814 0
M  V30 674 C 68.3235 -5.20182 0.325623 0
M  V30 675 C 65.6515 -5.80414 0.856539 0
M  V30 676 C 68.0035 -6.20424 1.23518 0
M  V30 677 C 66.6675 -6.50298 1.5056 0
M  V30 678 H 65.9375 -0.703736 -0.232027 0
M  V30 679 H 68.5845 -1.91205 0.106259 0
M  V30 680 H 66.8895 -3.31228 -2.09274 0
M  V30 681 H 68.5865 -3.57975 -1.80707 0
M  V30 682 H 65.1765 -4.25176 -0.540665 0
M  V30 683 H 69.3605 -4.96112 0.136546 0
M  V30 684 H 64.6165 -6.019 1.07363 0
M  V30 685 H 68.7905 -6.74141 1.74664 0
M  V30 686 H 66.4175 -7.27025 2.22123 0
M  V30 687 N 67.9926 0.231505 -1.5589 0
M  V30 688 C 69.2226 0.973092 -1.82248 0
M  V30 689 C 69.6306 1.78845 -0.617328 0
M  V30 690 O 68.9736 1.78752 0.423499 0
M  V30 691 C 69.0356 1.94732 -3.02192 0
M  V30 692 C 68.6996 1.31743 -4.37599 0
M  V30 693 C 69.6966 0.712238 -5.14998 0
M  V30 694 C 67.3816 1.33218 -4.84312 0
M  V30 695 C 69.3756 0.130195 -6.37267 0
M  V30 696 C 67.0626 0.746286 -6.06526 0
M  V30 697 C 68.0606 0.146337 -6.82843 0
M  V30 698 O 67.7486 -0.430465 -8.02747 0
M  V30 699 H 67.4806 0.29125 -0.61004 0
M  V30 700 H 70.0346 0.254915 -2.03812 0
M  V30 701 H 68.2646 2.70422 -2.76422 0
M  V30 702 H 69.9536 2.55362 -3.15508 0
M  V30 703 H 70.7196 0.69324 -4.8002 0
M  V30 704 H 66.5986 1.78854 -4.24891 0
M  V30 705 H 70.1426 -0.33871 -6.96777 0
M  V30 706 H 66.0396 0.762663 -6.40979 0
M  V30 707 H 66.8076 -0.323818 -8.17859 0
M  V30 708 N 69.4707 1.49531 0.497807 0
M  V30 709 C 70.7177 1.59179 1.25173 0
M  V30 710 C 71.0457 0.279932 1.92475 0
M  V30 711 O 70.3007 -0.732383 1.81479 0
M  V30 712 C 70.5997 2.70252 2.33878 0
M  V30 713 C 70.2657 4.11644 1.84012 0
M  V30 714 C 68.9277 4.50121 1.70132 0
M  V30 715 C 71.2797 5.00121 1.46725 0
M  V30 716 C 68.6077 5.74845 1.17348 0
M  V30 717 C 70.9597 6.25366 0.95392 0
M  V30 718 C 69.6237 6.6267 0.801538 0
M  V30 719 H 68.8937 0.582478 0.45804 0
M  V30 720 H 71.5407 1.83373 0.551948 0
M  V30 721 H 69.8457 2.40041 3.09657 0
M  V30 722 H 71.5427 2.74925 2.9192 0
M  V30 723 H 68.1327 3.81274 1.95775 0
M  V30 724 H 72.3167 4.71048 1.56294 0
M  V30 725 H 67.5727 6.02444 1.04264 0
M  V30 726 H 71.7467 6.93301 0.656225 0
M  V30 727 H 69.3737 7.59197 0.390351 0
M  V30 728 N 70.9488 -0.749086 1.3866 0
M  V30 729 C 71.8968 -1.88428 1.36373 0
M  V30 730 C 72.8908 -1.67561 0.248929 0
M  V30 731 O 74.0968 -1.75074 0.41821 0
M  V30 732 H 70.4718 -0.620023 0.42553 0
M  V30 733 H 72.4428 -1.87473 2.32156 0
M  V30 734 C 71.1918 -3.25961 1.21014 0
M  V30 735 H 70.5148 -3.42607 2.06059 0
M  V30 736 H 71.9548 -4.05625 1.23469 0
M  V30 737 C 70.4138 -3.36799 -0.0825941 0
M  V30 738 O 70.9438 -3.87517 -1.05797 0
M  V30 739 N 69.1498 -2.90258 -0.140939 0
M  V30 740 H 68.6968 -2.49174 0.653477 0
M  V30 741 H 68.6548 -2.97889 -1.00545 0
M  V30 742 N 72.4269 -1.23603 -0.977757 0
M  V30 743 C 73.8429 -0.999251 -1.24447 0
M  V30 744 C 74.0429 0.298053 -1.99283 0
M  V30 745 O 73.0989 1.01681 -2.31122 0
M  V30 746 C 74.4119 -2.20784 -2.04144 0
M  V30 747 C 75.9599 -2.25303 -2.17273 0
M  V30 748 C 76.4349 -3.45755 -3.00362 0
M  V30 749 N 77.9259 -3.4601 -3.07947 0
M  V30 750 C 78.6609 -4.35868 -3.72568 0
M  V30 751 N 78.1569 -5.35966 -4.38991 0
M  V30 752 N 79.9499 -4.23605 -3.6948 0
M  V30 753 H 72.1009 -2.06986 -0.476483 0
M  V30 754 H 74.3639 -0.907801 -0.273134 0
M  V30 755 H 74.0699 -3.14945 -1.56533 0
M  V30 756 H 73.9439 -2.22085 -3.04891 0
M  V30 757 H 76.3309 -1.3168 -2.64092 0
M  V30 758 H 76.4119 -2.28033 -1.15907 0
M  V30 759 H 76.0559 -4.39687 -2.5424 0
M  V30 760 H 75.9859 -3.40266 -4.01904 0
M  V30 761 H 78.4769 -2.73588 -2.60688 0
M  V30 762 H 78.7899 -6.00783 -4.86086 0
M  V30 763 H 77.1349 -5.39863 -4.37691 0
M  V30 764 H 80.3259 -3.44647 -3.16759 0
M  V30 765 H 80.4989 -4.93836 -4.1956 0
M  V30 766 N 73.905 1.17692 -1.04816 0
M  V30 767 C 74.853 2.23632 -0.63966 0
M  V30 768 C 75.847 1.6601 0.337219 0
M  V30 769 O 77.053 1.78844 0.203693 0
M  V30 770 H 73.428 0.727949 -0.188665 0
M  V30 771 H 75.399 2.55387 -1.54337 0
M  V30 772 C 74.148 3.4769 -0.0264051 0
M  V30 773 H 73.471 3.92331 -0.769164 0
M  V30 774 H 74.911 4.23418 0.222098 0
M  V30 775 C 73.37 3.13807 1.22584 0
M  V30 776 O 73.9 3.28236 2.31569 0
M  V30 777 N 72.106 2.68065 1.12202 0
M  V30 778 H 71.653 2.56525 0.235133 0
M  V30 779 H 71.611 2.45767 1.96076 0
M  V30 780 N 75.3831 0.828654 1.34056 0
M  V30 781 C 76.6301 0.419458 1.98108 0
M  V30 782 C 76.9581 -1.01886 1.65679 0
M  V30 783 O 76.2131 -1.72539 0.923512 0
M  V30 784 C 76.5121 0.575226 3.52741 0
M  V30 785 C 76.1781 1.98012 4.05095 0
M  V30 786 C 74.8401 2.36442 4.19104 0
M  V30 787 C 77.1921 2.89824 4.33188 0
M  V30 788 C 74.5201 3.66009 4.58535 0
M  V30 789 C 76.8721 4.1886 4.74066 0
M  V30 790 C 75.5361 4.5726 4.86281 0
M  V30 791 H 74.8061 0.153491 0.724929 0
M  V30 792 H 77.4531 1.05371 1.59904 0
M  V30 793 H 75.7581 -0.142385 3.91541 0
M  V30 794 H 77.4551 0.239057 4.00287 0
M  V30 795 H 74.0451 1.67162 3.94658 0
M  V30 796 H 78.2291 2.61375 4.21897 0
M  V30 797 H 73.4851 3.95579 4.66184 0
M  V30 798 H 77.6591 4.90086 4.94761 0
M  V30 799 H 75.2861 5.57707 5.16592 0
M  V30 800 N 76.8612 -1.46375 0.584142 0
M  V30 801 C 78.0892 -2.06761 0.0759296 0
M  V30 802 C 78.5042 -1.43266 -1.22965 0
M  V30 803 O 77.8612 -0.538458 -1.74376 0
M  V30 804 C 77.9122 -3.61375 -0.0950384 0
M  V30 805 O 77.6332 -4.22495 1.15887 0
M  V30 806 C 79.1342 -4.38693 -0.637434 0
M  V30 807 H 76.3542 -0.668479 0.0581075 0
M  V30 808 H 78.8982 -1.8798 0.805218 0
M  V30 809 H 77.0532 -3.79578 -0.774554 0
M  V30 810 H 77.4672 -5.15385 0.973598 0
M  V30 811 H 78.9412 -5.47464 -0.706237 0
M  V30 812 H 79.4182 -4.06836 -1.65472 0
M  V30 813 H 80.0242 -4.25299 0.00725967 0
M  V30 814 N 78.3393 -0.321999 -1.54275 0
M  V30 815 C 79.2873 0.560206 -2.25753 0
M  V30 816 C 80.2813 1.11984 -1.27106 0
M  V30 817 O 81.4873 1.06806 -1.44888 0
M  V30 818 H 77.8623 0.199304 -0.725108 0
M  V30 819 H 79.8333 -0.0649365 -2.98329 0
M  V30 820 C 78.5823 1.71023 -3.02731 0
M  V30 821 H 77.9053 1.28885 -3.78456 0
M  V30 822 H 79.3453 2.30314 -3.55993 0
M  V30 823 C 77.8043 2.62692 -2.10938 0
M  V30 824 O 78.3343 3.64364 -1.6912 0
M  V30 825 N 76.5403 2.30891 -1.76459 0
M  V30 826 H 76.0873 1.48253 -2.10663 0
M  V30 827 H 76.0453 2.92487 -1.1532 0
M  V30 828 N 79.8174 1.5752 -0.0501392 0
M  V30 829 C 81.2284 1.80271 0.485705 0
M  V30 830 C 81.5794 0.96228 1.70981 0
M  V30 831 O 80.7044 0.178578 2.15662 0
M  V30 832 C 81.2994 3.26957 0.887938 0
M  V30 833 C 79.8584 3.5063 1.36877 0
M  V30 834 C 79.0054 2.75165 0.343468 0
M  V30 835 H 81.9564 1.56281 -0.276028 0
M  V30 836 H 81.9774 3.37821 1.75093 0
M  V30 837 H 81.4894 3.881 -0.0031809 0
M  V30 838 H 79.5904 2.94766 2.27911 0
M  V30 839 H 79.7034 4.59343 1.36164 0
M  V30 840 H 78.0674 2.4127 0.816128 0
M  V30 841 H 78.8504 3.39034 -0.539548 0
M  V30 842 N 81.2955 -0.223234 1.56011 0
M  V30 843 C 82.5235 -0.964812 1.83027 0
M  V30 844 C 82.9385 -1.78013 0.62904 0
M  V30 845 O 82.2955 -1.78008 -0.402414 0
M  V30 846 C 82.3465 -1.88373 3.08542 0
M  V30 847 O 82.0675 -1.10137 4.2403 0
M  V30 848 C 83.5685 -2.73934 3.48533 0
M  V30 849 H 80.7885 -0.282842 0.608475 0
M  V30 850 H 83.3325 -0.238971 2.03099 0
M  V30 851 H 81.4875 -2.56354 2.9045 0
M  V30 852 H 81.9015 -1.72501 4.95322 0
M  V30 853 H 83.3755 -3.34117 4.39397 0
M  V30 854 H 83.8525 -3.46244 2.70207 0
M  V30 855 H 84.4585 -2.11369 3.69057 0
M  V30 856 N 82.7736 -1.49793 -0.48987 0
M  V30 857 C 83.7206 -1.67281 -1.59014 0
M  V30 858 C 84.6906 -0.514177 -1.57941 0
M  V30 859 O 85.8756 -0.742533 -1.75759 0
M  V30 860 C 83.0156 -1.75569 -2.97102 0
M  V30 861 C 82.1286 -3.0281 -3.08107 0
M  V30 862 C 81.2636 -3.02008 -4.36995 0
M  V30 863 C 80.3026 -4.23782 -4.41673 0
M  V30 864 N 79.4396 -4.20826 -5.62005 0
M  V30 865 H 84.2796 -2.61224 -1.43409 0
M  V30 866 H 81.8166 -1.29508 -0.697565 0
M  V30 867 H 83.7746 -1.78354 -3.77155 0
M  V30 868 H 82.4046 -0.850827 -3.11385 0
M  V30 869 H 81.4566 -3.09584 -2.21047 0
M  V30 870 H 82.7686 -3.92801 -3.07423 0
M  V30 871 H 81.9226 -3.03418 -5.25378 0
M  V30 872 H 80.6616 -2.09815 -4.4026 0
M  V30 873 H 79.6666 -4.22604 -3.5169 0
M  V30 874 H 80.8916 -5.17181 -4.40115 0
M  V30 875 H 78.8376 -3.31476 -5.66091 0
M  V30 876 H 78.7546 -5.04564 -5.62984 0
M  V30 877 H 80.0226 -4.26355 -6.52565 0
M  V30 878 N 84.2517 0.741722 -1.39055 0
M  V30 879 C 85.2147 1.83733 -1.37021 0
M  V30 880 C 86.2147 1.58542 -0.268534 0
M  V30 881 O 87.4047 1.66067 -0.526076 0
M  V30 882 C 84.5367 3.2141 -1.13617 0
M  V30 883 H 85.7297 1.86941 -2.34506 0
M  V30 884 H 83.2827 0.944676 -1.24521 0
M  V30 885 H 84.0177 3.23865 -0.167863 0
M  V30 886 H 83.8027 3.4109 -1.93391 0
M  V30 887 H 85.2927 4.01477 -1.14918 0
M  V30 888 N 85.7298 1.2412 0.971189 0
M  V30 889 C 86.6618 0.988349 2.06795 0
M  V30 890 C 87.6748 -0.0409541 1.62748 0
M  V30 891 O 88.8638 0.195673 1.77424 0
M  V30 892 C 85.9638 0.469023 3.35639 0
M  V30 893 C 85.1368 1.56065 4.08611 0
M  V30 894 C 84.1958 1.04458 5.15728 0
M  V30 895 O 83.2218 1.73553 5.42096 0
M  V30 896 N 84.4238 -0.122817 5.8037 0
M  V30 897 H 87.1888 1.93265 2.29061 0
M  V30 898 H 84.7498 1.15102 1.13856 0
M  V30 899 H 86.7418 0.108613 4.04554 0
M  V30 900 H 85.3118 -0.380919 3.1027 0
M  V30 901 H 84.5318 2.09341 3.34021 0
M  V30 902 H 85.8198 2.29449 4.54126 0
M  V30 903 H 85.2178 -0.700563 5.61345 0
M  V30 904 H 83.7748 -0.424404 6.50417 0
M  V30 905 N 87.2079 -1.17134 1.05439 0
M  V30 906 C 88.4559 -1.87085 0.764429 0
M  V30 907 C 88.7769 -1.81584 -0.710787 0
M  V30 908 O 88.0469 -1.24349 -1.51374 0
M  V30 909 H 86.6269 -0.692627 0.279779 0
M  V30 910 H 89.2889 -1.42087 1.33406 0
M  V30 911 H 88.3849 -2.92759 1.0816 0
M  V30 912 N 88.686 -0.835752 -1.33615 0
M  V30 913 C 89.633 -0.26473 -2.29277 0
M  V30 914 C 90.603 0.617712 -1.54187 0
M  V30 915 O 91.788 0.556641 -1.825 0
M  V30 916 C 88.928 0.556777 -3.40579 0
M  V30 917 C 88.041 -0.349339 -4.30585 0
M  V30 918 C 87.176 0.482969 -5.29 0
M  V30 919 C 86.215 -0.421732 -6.10645 0
M  V30 920 N 85.352 0.372262 -7.01112 0
M  V30 921 H 90.192 -1.08582 -2.77514 0
M  V30 922 H 87.729 -0.546927 -1.36554 0
M  V30 923 H 89.687 1.04852 -4.03809 0
M  V30 924 H 88.317 1.34286 -2.93542 0
M  V30 925 H 87.369 -0.959372 -3.68104 0
M  V30 926 H 88.681 -1.04445 -4.87742 0
M  V30 927 H 87.835 1.03866 -5.97743 0
M  V30 928 H 86.574 1.21153 -4.72412 0
M  V30 929 H 85.579 -0.989464 -5.40823 0
M  V30 930 H 86.804 -1.14861 -6.69316 0
M  V30 931 H 84.75 1.08426 -6.46977 0
M  V30 932 H 84.667 -0.264198 -7.55538 0
M  V30 933 H 85.935 0.910293 -7.74167 0
M  V30 934 N 90.1641 1.46063 -0.591896 0
M  V30 935 C 91.1271 2.28854 0.125973 0
M  V30 936 C 92.1271 1.38903 0.810107 0
M  V30 937 O 93.3171 1.61186 0.66066 0
M  V30 938 C 90.4491 3.19526 1.1881 0
M  V30 939 H 91.6421 2.93802 -0.601717 0
M  V30 940 H 89.1951 1.52325 -0.350254 0
M  V30 941 H 89.9301 2.59345 1.94707 0
M  V30 942 H 89.7151 3.85766 0.701936 0
M  V30 943 H 91.2051 3.81817 1.69132 0
M  V30 944 N 91.6422 0.330177 1.54103 0
M  V30 945 C 92.5522 -0.541534 2.28264 0
M  V30 946 C 93.5682 -1.12351 1.32866 0
M  V30 947 O 94.7442 -1.14206 1.65888 0
M  V30 948 C 91.8092 -1.68322 3.03098 0
M  V30 949 C 90.8702 -1.13238 4.14096 0
M  V30 950 C 90.1032 -2.21966 4.85352 0
M  V30 951 O 90.3262 -3.42437 4.56172 0
M  V30 952 O 89.2602 -1.87013 5.7211 0
M  V30 953 H 93.0862 0.060938 3.03639 0
M  V30 954 H 90.6712 0.09565 1.49093 0
M  V30 955 H 92.5532 -2.34777 3.49939 0
M  V30 956 H 91.2282 -2.27176 2.30593 0
M  V30 957 H 90.1352 -0.432736 3.71589 0
M  V30 958 H 91.4682 -0.588898 4.88664 0
M  V30 959 N 93.1203 -1.57491 0.0584922 0
M  V30 960 C 94.0303 -2.15448 -0.928414 0
M  V30 961 C 95.0463 -1.11416 -1.3365 0
M  V30 962 O 96.2223 -1.4362 -1.41193 0
M  V30 963 C 93.2873 -2.69393 -2.18239 0
M  V30 964 C 92.3483 -3.88249 -1.83196 0
M  V30 965 C 91.5813 -4.39613 -3.02616 0
M  V30 966 O 91.8043 -3.90023 -4.16219 0
M  V30 967 O 90.7383 -5.31111 -2.83204 0
M  V30 968 H 94.5643 -3.00112 -0.465483 0
M  V30 969 H 92.1493 -1.48499 -0.163826 0
M  V30 970 H 94.0313 -3.04026 -2.91798 0
M  V30 971 H 92.7063 -1.87796 -2.63656 0
M  V30 972 H 91.6133 -3.58492 -1.06931 0
M  V30 973 H 92.9463 -4.71098 -1.42573 0
M  V30 974 N 94.5984 0.214957 -1.56127 0
M  V30 975 C 95.8444 0.935325 -1.80619 0
M  V30 976 C 96.1994 1.81706 -0.632507 0
M  V30 977 O 95.4924 1.87931 0.373182 0
M  V30 978 C 95.6864 1.80314 -3.0858 0
M  V30 979 C 95.5154 1.00691 -4.38282 0
M  V30 980 C 94.2854 0.699211 -5.00439 0
M  V30 981 C 96.4834 0.369057 -5.12974 0
M  V30 982 N 94.4654 -0.117734 -6.13787 0
M  V30 983 C 95.8364 -0.310981 -6.1922 0
M  V30 984 C 97.8914 0.282759 -4.97096 0
M  V30 985 C 96.5944 -1.06907 -7.11311 0
M  V30 986 C 98.6204 -0.461881 -5.89594 0
M  V30 987 C 97.9824 -1.13044 -6.9527 0
M  V30 988 H 94.0814 0.322307 -0.71249 0
M  V30 989 H 96.6654 0.205649 -1.93611 0
M  V30 990 H 94.8364 2.50458 -2.96859 0
M  V30 991 H 96.5684 2.46148 -3.21237 0
M  V30 992 H 93.3234 1.01884 -4.62511 0
M  V30 993 H 93.7474 -0.515235 -6.75037 0
M  V30 994 H 98.3894 0.785292 -4.15443 0
M  V30 995 H 96.1074 -1.5831 -7.92442 0
M  V30 996 H 99.6934 -0.529746 -5.79383 0
M  V30 997 H 98.5734 -1.69742 -7.65609 0
M  V30 998 N 96.0765 1.50051 0.48192 0
M  V30 999 C 97.3045 1.64237 1.25832 0
M  V30 1000 C 97.7195 0.321336 1.86045 0
M  V30 1001 O 97.0765 -0.695478 1.68729 0
M  V30 1002 C 97.1275 2.72548 2.37487 0
M  V30 1003 O 96.8485 3.99529 1.79745 0
M  V30 1004 C 98.3495 2.9761 3.28547 0
M  V30 1005 H 95.5695 0.55237 0.380957 0
M  V30 1006 H 98.1135 1.96207 0.576467 0
M  V30 1007 H 96.2685 2.43303 3.01467 0
M  V30 1008 H 96.6825 4.59342 2.5319 0
M  V30 1009 H 98.1565 3.77084 4.03127 0
M  V30 1010 H 98.6335 2.0826 3.86684 0
M  V30 1011 H 99.2395 3.28345 2.70314 0
M  V30 1012 N 97.5546 -0.734337 1.39446 0
M  V30 1013 C 98.4866 -1.85861 1.34121 0
M  V30 1014 C 99.4996 -1.60871 0.249864 0
M  V30 1015 O 100.689 -1.71093 0.508865 0
M  V30 1016 C 97.7886 -3.21899 1.05991 0
M  V30 1017 C 96.9616 -3.74239 2.26415 0
M  V30 1018 C 96.0206 -4.88841 1.94733 0
M  V30 1019 O 95.0466 -5.02468 2.67422 0
M  V30 1020 N 96.2486 -5.73261 0.913884 0
M  V30 1021 H 99.0136 -1.90934 2.31007 0
M  V30 1022 H 96.5746 -0.915102 1.33557 0
M  V30 1023 H 98.5666 -3.96136 0.828147 0
M  V30 1024 H 97.1366 -3.12091 0.178361 0
M  V30 1025 H 96.3566 -2.91347 2.65539 0
M  V30 1026 H 97.6446 -4.05942 3.06738 0
M  V30 1027 H 97.0426 -5.64842 0.311476 0
M  V30 1028 H 95.5996 -6.47563 0.742015 0
M  V30 1029 N 99.0327 -1.24633 -0.964593 0
M  V30 1030 C 100.258 -1.11596 -1.74818 0
M  V30 1031 C 100.683 0.32723 -1.85232 0
M  V30 1032 O 100.041 1.23695 -1.32549 0
M  V30 1033 C 100.089 -1.76397 -3.1451 0
M  V30 1034 O 99.1927 -1.03685 -3.99153 0
M  V30 1035 H 98.5337 -0.390196 -0.537255 0
M  V30 1036 H 101.064 -1.65002 -1.20977 0
M  V30 1037 H 101.074 -1.8228 -3.65018 0
M  V30 1038 H 99.7487 -2.81401 -3.06246 0
M  V30 1039 H 98.3257 -1.05611 -3.57632 0
M  V30 1040 N 100.511 1.16574 -1.06058 0
M  V30 1041 C 101.758 1.87047 -0.775873 0
M  V30 1042 C 102.086 1.81562 0.697534 0
M  V30 1043 O 101.341 1.22445 1.52662 0
M  V30 1044 C 101.64 3.36195 -1.21275 0
M  V30 1045 C 101.306 3.6188 -2.68986 0
M  V30 1046 C 99.9678 3.68599 -3.09335 0
M  V30 1047 C 102.32 3.72648 -3.64394 0
M  V30 1048 C 99.6478 3.83584 -4.43937 0
M  V30 1049 C 102 3.89154 -4.98741 0
M  V30 1050 C 100.664 3.94114 -5.3873 0
M  V30 1051 H 99.9338 0.684452 -0.283912 0
M  V30 1052 H 102.581 1.37853 -1.32925 0
M  V30 1053 H 100.886 3.87505 -0.578528 0
M  V30 1054 H 102.583 3.89103 -0.969542 0
M  V30 1055 H 99.1728 3.57281 -2.36744 0
M  V30 1056 H 103.357 3.66769 -3.34356 0
M  V30 1057 H 98.6128 3.85677 -4.74409 0
M  V30 1058 H 102.787 3.96427 -5.72554 0
M  V30 1059 H 100.414 4.05478 -6.43033 0
M  V30 1060 N 101.989 0.842826 1.3317 0
M  V30 1061 C 103.238 0.436738 1.96915 0
M  V30 1062 C 103.551 -1.01025 1.67491 0
M  V30 1063 O 104.757 -1.5212 2.24881 0
M  V30 1064 C 103.213 0.730021 3.52418 0
M  V30 1065 C 102.821 2.19195 3.90714 0
M  V30 1066 C 104.565 0.391076 4.22695 0
M  V30 1067 C 102.472 2.42907 5.39212 0
M  V30 1068 H 101.402 0.15958 0.736919 0
M  V30 1069 H 104.053 1.03196 1.51733 0
M  V30 1070 H 102.435 0.0643755 3.95948 0
M  V30 1071 H 103.609 2.8984 3.58231 0
M  V30 1072 H 101.924 2.49425 3.33431 0
M  V30 1073 H 104.521 0.545817 5.31907 0
M  V30 1074 H 104.864 -0.666294 4.10933 0
M  V30 1075 H 105.397 1.01212 3.84709 0
M  V30 1076 H 102.136 3.47224 5.55982 0
M  V30 1077 H 101.656 1.76827 5.73142 0
M  V30 1078 H 103.335 2.2626 6.06148 0
M  V30 1079 N 103.467 -1.45747 0.599634 0
M  V30 1080 C 104.397 -2.33235 -0.111306 0
M  V30 1081 C 105.378 -1.46359 -0.866781 0
M  V30 1082 O 106.563 -1.75146 -0.838904 0
M  V30 1083 C 103.693 -3.28932 -1.11451 0
M  V30 1084 C 102.647 -4.25381 -0.472772 0
M  V30 1085 C 101.973 -5.1071 -1.58365 0
M  V30 1086 C 103.273 -5.18831 0.600948 0
M  V30 1087 H 104.967 -2.92927 0.61919 0
M  V30 1088 H 102.513 -1.40857 0.299215 0
M  V30 1089 H 104.466 -3.89002 -1.62036 0
M  V30 1090 H 103.19 -2.67381 -1.8755 0
M  V30 1091 H 101.849 -3.66598 0.0121472 0
M  V30 1092 H 101.497 -4.45533 -2.33473 0
M  V30 1093 H 101.197 -5.7604 -1.15982 0
M  V30 1094 H 102.721 -5.73647 -2.09194 0
M  V30 1095 H 104.135 -5.73019 0.179491 0
M  V30 1096 H 102.532 -5.92595 0.946076 0
M  V30 1097 H 103.602 -4.6174 1.48068 0
M  V30 1098 N 104.945 -0.338344 -1.53925 0
M  V30 1099 C 106.222 0.314774 -1.93051 0
M  V30 1100 C 106.602 1.68669 -1.26941 0
M  V30 1101 O 105.95 2.24636 -0.418445 0
M  V30 1102 C 106.16 0.392249 -3.46789 0
M  V30 1103 C 107.508 0.645554 -4.19664 0
M  V30 1104 O 108.532 0.474575 -3.53024 0
M  V30 1105 O 107.391 0.976408 -5.37707 0
M  V30 1106 H 104.485 0.182598 -0.80659 0
M  V30 1107 H 107.031 -0.389141 -1.65178 0
M  V30 1108 H 105.803 -0.570702 -3.87116 0
M  V30 1109 H 105.426 1.14316 -3.80812 0
M  V30 1110 N 106.423 1.57458 -0.0668435 0
M  V30 1111 C 107.386 2.11323 0.887422 0
M  V30 1112 C 108.386 1.03618 1.22964 0
M  V30 1113 O 109.576 1.29626 1.16373 0
M  V30 1114 C 106.708 2.61048 2.19242 0
M  V30 1115 H 107.901 2.96942 0.420194 0
M  V30 1116 H 105.454 1.55239 0.181793 0
M  V30 1117 H 106.189 1.78868 2.70512 0
M  V30 1118 H 105.974 3.39769 1.95702 0
M  V30 1119 H 107.464 3.02814 2.87565 0
M  V30 1120 N 107.901 -0.206675 1.56239 0
M  V30 1121 C 108.848 -1.25617 1.93621 0
M  V30 1122 C 109.818 -1.45824 0.795274 0
M  V30 1123 O 111.003 -1.59148 1.05245 0
M  V30 1124 C 108.143 -2.59839 2.27107 0
M  V30 1125 C 107.256 -2.47308 3.54207 0
M  V30 1126 C 106.391 -3.74155 3.7707 0
M  V30 1127 C 105.43 -3.56407 4.97635 0
M  V30 1128 N 104.567 -4.75238 5.1681 0
M  V30 1129 H 109.407 -0.930383 2.83104 0
M  V30 1130 H 106.944 -0.448065 1.4011 0
M  V30 1131 H 108.902 -3.38021 2.44535 0
M  V30 1132 H 107.532 -2.90485 1.40778 0
M  V30 1133 H 106.584 -1.60483 3.4489 0
M  V30 1134 H 107.896 -2.30122 4.42544 0
M  V30 1135 H 107.05 -4.60778 3.94675 0
M  V30 1136 H 105.789 -3.94282 2.87042 0
M  V30 1137 H 104.794 -2.68168 4.79964 0
M  V30 1138 H 106.019 -3.37736 5.89161 0
M  V30 1139 H 103.965 -4.95651 4.29728 0
M  V30 1140 H 103.882 -4.60835 5.99306 0
M  V30 1141 H 105.15 -5.63246 5.38864 0
M  V30 1142 N 109.379 -1.50304 -0.473955 0
M  V30 1143 C 110.604 -1.65175 -1.25427 0
M  V30 1144 C 111.029 -0.333673 -1.85117 0
M  V30 1145 O 110.387 0.702114 -1.67153 0
M  V30 1146 C 110.435 -2.74295 -2.34082 0
M  V30 1147 O 109.539 -2.35349 -3.38651 0
M  V30 1148 H 108.88 -0.551944 -0.369126 0
M  V30 1149 H 111.41 -1.96662 -0.564364 0
M  V30 1150 H 111.42 -2.97285 -2.79438 0
M  V30 1151 H 110.095 -3.69959 -1.90008 0
M  V30 1152 H 108.672 -2.22794 -2.99027 0
M  V30 1153 N 110.857 0.726932 -1.39834 0
M  V30 1154 C 112.105 1.4837 -1.37225 0
M  V30 1155 C 112.426 1.94979 0.0284857 0
M  V30 1156 O 111.696 1.69555 0.981213 0
M  V30 1157 H 110.276 0.55043 -0.505011 0
M  V30 1158 H 112.938 0.862468 -1.74778 0
M  V30 1159 H 112.034 2.36198 -2.04003 0
M  V30 1160 N 112.336 1.25143 0.95797 0
M  V30 1161 C 113.583 1.09692 1.70217 0
M  V30 1162 C 113.911 -0.362654 1.91089 0
M  V30 1163 O 113.166 -1.28386 1.47701 0
M  V30 1164 C 113.465 1.79272 3.09187 0
M  V30 1165 C 113.131 3.29196 3.08125 0
M  V30 1166 C 111.793 3.70096 3.07543 0
M  V30 1167 C 114.145 4.24995 3.0171 0
M  V30 1168 C 111.473 5.05213 2.9829 0
M  V30 1169 C 113.825 5.60132 2.93999 0
M  V30 1170 C 112.489 6.00365 2.9175 0
M  V30 1171 H 111.759 0.401393 0.622868 0
M  V30 1172 H 114.406 1.55372 1.11945 0
M  V30 1173 H 112.711 1.26014 3.70982 0
M  V30 1174 H 114.408 1.64773 3.65583 0
M  V30 1175 H 110.998 2.96651 3.09348 0
M  V30 1176 H 115.182 3.9439 3.01281 0
M  V30 1177 H 110.438 5.35569 2.94916 0
M  V30 1178 H 114.612 6.3406 2.87996 0
M  V30 1179 H 112.239 7.05023 2.84336 0
M  V30 1180 N 113.814 -1.1601 1.06675 0
M  V30 1181 C 115.042 -1.90527 0.806667 0
M  V30 1182 C 115.457 -1.77643 -0.639396 0
M  V30 1183 O 114.814 -1.12369 -1.43803 0
M  V30 1184 C 114.865 -3.41106 1.19705 0
M  V30 1185 O 114.586 -3.53608 2.58636 0
M  V30 1186 C 116.087 -4.32663 0.965266 0
M  V30 1187 H 113.307 -0.604053 0.292166 0
M  V30 1188 H 115.851 -1.47026 1.4214 0
M  V30 1189 H 114.006 -3.82296 0.626774 0
M  V30 1190 H 114.42 -4.47011 2.74375 0
M  V30 1191 H 115.894 -5.36763 1.288 0
M  V30 1192 H 116.371 -4.39089 -0.0987936 0
M  V30 1193 H 116.977 -3.97206 1.52011 0
M  V30 1194 N 115.292 -0.849877 -1.32721 0
M  V30 1195 C 116.224 -0.248332 -2.27851 0
M  V30 1196 C 117.237 0.577218 -1.52224 0
M  V30 1197 O 118.426 0.402489 -1.73903 0
M  V30 1198 C 115.526 0.668107 -3.32249 0
M  V30 1199 C 114.699 -0.120534 -4.37234 0
M  V30 1200 C 113.758 0.720932 -5.21238 0
M  V30 1201 O 112.784 0.156166 -5.68986 0
M  V30 1202 N 113.986 2.03647 -5.43607 0
M  V30 1203 H 116.751 -1.06575 -2.80111 0
M  V30 1204 H 114.312 -0.709395 -1.45531 0
M  V30 1205 H 116.304 1.23627 -3.85355 0
M  V30 1206 H 114.874 1.38621 -2.80184 0
M  V30 1207 H 114.094 -0.870108 -3.84477 0
M  V30 1208 H 115.382 -0.662406 -5.0447 0
M  V30 1209 H 114.78 2.51871 -5.06535 0
M  V30 1210 H 113.337 2.55287 -5.99727 0
M  V30 1211 N 116.77 1.45427 -0.607355 0
M  V30 1212 C 118.018 2.01841 -0.102253 0
M  V30 1213 C 118.339 1.47832 1.27164 0
M  V30 1214 O 117.609 0.672497 1.83995 0
M  V30 1215 H 116.189 0.746188 -0.0348101 0
M  V30 1216 H 118.851 1.78229 -0.7887 0
M  V30 1217 H 117.947 3.12057 -0.0518585 0
M  V30 1218 N 118.248 0.346503 1.53744 0
M  V30 1219 C 119.476 -0.25041 2.05379 0
M  V30 1220 C 119.891 -1.43979 1.22129 0
M  V30 1221 O 119.248 -1.80677 0.257321 0
M  V30 1222 C 119.299 -0.662575 3.55376 0
M  V30 1223 O 119.02 0.479515 4.35468 0
M  V30 1224 C 120.521 -1.31989 4.23195 0
M  V30 1225 H 117.741 -0.0478198 0.669294 0
M  V30 1226 H 120.285 0.499346 1.9831 0
M  V30 1227 H 118.44 -1.36227 3.62658 0
M  V30 1228 H 118.854 0.15037 5.24284 0
M  V30 1229 H 120.328 -1.55902 5.29527 0
M  V30 1230 H 120.805 -2.27436 3.75725 0
M  V30 1231 H 121.411 -0.662154 4.20114 0
M  V30 1232 N 119.726 -1.57421 0.075193 0
M  V30 1233 C 120.972 -1.93905 -0.594025 0
M  V30 1234 C 121.305 -0.955701 -1.69056 0
M  V30 1235 O 120.58 0.0145373 -1.94495 0
M  V30 1236 C 120.863 -3.40638 -1.1678 0
M  V30 1237 C 120.716 -4.49733 -0.0776792 0
M  V30 1238 C 122.035 -3.88259 -2.07228 0
M  V30 1239 H 119.154 -0.705105 -0.214466 0
M  V30 1240 H 121.796 -1.8947 0.141854 0
M  V30 1241 H 119.946 -3.44549 -1.79494 0
M  V30 1242 H 121.618 -4.57942 0.555573 0
M  V30 1243 H 119.861 -4.29751 0.591286 0
M  V30 1244 H 120.532 -5.49549 -0.519603 0
M  V30 1245 H 123.008 -3.86376 -1.54445 0
M  V30 1246 H 121.884 -4.91533 -2.44308 0
M  V30 1247 H 122.145 -3.26396 -2.98191 0
M  V30 1248 N 121.204 0.198386 -1.56346 0
M  V30 1249 C 122.452 0.91747 -1.80075 0
M  V30 1250 C 122.773 1.83929 -0.647692 0
M  V30 1251 O 122.043 1.93029 0.334166 0
M  V30 1252 H 120.623 0.341774 -0.664228 0
M  V30 1253 H 123.285 0.204684 -1.93822 0
M  V30 1254 H 122.381 1.51055 -2.7311 0
M  V30 1255 N 122.682 1.50554 0.465978 0
M  V30 1256 C 123.929 1.61798 1.21768 0
M  V30 1257 C 124.257 0.320696 1.91838 0
M  V30 1258 O 123.512 -0.693724 1.82992 0
M  V30 1259 C 123.811 2.75152 2.28093 0
M  V30 1260 C 123.477 4.15454 1.75239 0
M  V30 1261 C 122.139 4.53628 1.60546 0
M  V30 1262 C 124.491 5.03121 1.36083 0
M  V30 1263 C 121.819 5.77204 1.05128 0
M  V30 1264 C 124.171 6.27249 0.821056 0
M  V30 1265 C 122.835 6.64221 0.660795 0
M  V30 1266 H 122.105 0.592063 0.445582 0
M  V30 1267 H 124.752 1.84503 0.512927 0
M  V30 1268 H 123.057 2.46556 3.04496 0
M  V30 1269 H 124.754 2.81055 2.86023 0
M  V30 1270 H 121.344 3.85341 1.87644 0
M  V30 1271 H 125.528 4.74257 1.46267 0
M  V30 1272 H 120.784 6.0452 0.91462 0
M  V30 1273 H 124.958 6.94537 0.509018 0
M  V30 1274 H 122.585 7.59854 0.229226 0
M  V30 1275 N 124.16 -0.719506 1.40217 0
M  V30 1276 C 125.408 -1.47641 1.3801 0
M  V30 1277 C 125.729 -1.94992 -0.018145 0
M  V30 1278 O 124.999 -1.70073 -0.972207 0
M  V30 1279 H 123.579 -0.547744 0.507923 0
M  V30 1280 H 126.241 -0.853187 1.75233 0
M  V30 1281 H 125.337 -2.35112 2.05253 0
M  V30 1282 N 125.638 -1.25649 -0.95132 0
M  V30 1283 C 126.571 -1.00644 -2.04807 0
M  V30 1284 C 127.549 0.0654271 -1.62468 0
M  V30 1285 O 128.733 -0.074911 -1.88351 0
M  V30 1286 C 125.86 -0.522052 -3.34653 0
M  V30 1287 C 124.906 -1.58495 -3.95957 0
M  V30 1288 S 125.739 -3.17108 -4.31512 0
M  V30 1289 C 126.895 -2.70412 -5.64471 0
M  V30 1290 H 127.128 -1.93508 -2.25703 0
M  V30 1291 H 124.661 -1.09216 -1.09139 0
M  V30 1292 H 126.619 -0.24923 -4.09743 0
M  V30 1293 H 125.28 0.386146 -3.11717 0
M  V30 1294 H 124.473 -1.1968 -4.89584 0
M  V30 1295 H 124.075 -1.80862 -3.2736 0
M  V30 1296 H 126.367 -2.14245 -6.42733 0
M  V30 1297 H 127.31 -3.62693 -6.08161 0
M  V30 1298 H 127.718 -2.10302 -5.23864 0
M  V30 1299 N 127.117 1.15442 -1.07289 0
M  V30 1300 C 128.394 1.82306 -0.708792 0
M  V30 1301 C 128.774 1.94991 0.808807 0
M  V30 1302 O 128.122 1.50085 1.72298 0
M  V30 1303 C 128.332 3.18695 -1.42247 0
M  V30 1304 C 129.68 3.94341 -1.57417 0
M  V30 1305 O 130.704 3.28247 -1.38319 0
M  V30 1306 O 129.563 5.12839 -1.88834 0
M  V30 1307 H 126.657 0.787628 -0.252132 0
M  V30 1308 H 129.203 1.22559 -1.17377 0
M  V30 1309 H 127.975 3.04557 -2.45684 0
M  V30 1310 H 127.598 3.86128 -0.948223 0
M  V30 1311 N 128.595 0.856903 1.32268 0
M  V30 1312 C 129.841 0.462069 1.97466 0
M  V30 1313 C 130.174 -0.980298 1.67642 0
M  V30 1314 O 129.449 -1.68824 0.965858 0
M  V30 1315 C 129.732 0.704336 3.53145 0
M  V30 1316 C 129.585 2.19529 3.9259 0
M  V30 1317 C 130.904 0.1622 4.39801 0
M  V30 1318 H 128.023 0.169357 0.717278 0
M  V30 1319 H 130.665 1.07574 1.56614 0
M  V30 1320 H 128.815 0.181999 3.88073 0
M  V30 1321 H 130.487 2.78387 3.67829 0
M  V30 1322 H 128.73 2.67292 3.41668 0
M  V30 1323 H 129.401 2.31549 5.01088 0
M  V30 1324 H 131.877 0.608905 4.11621 0
M  V30 1325 H 130.753 0.361265 5.4771 0
M  V30 1326 H 131.014 -0.935158 4.32096 0
M  V30 1327 N 130.073 -1.45103 0.615059 0
M  V30 1328 C 131.003 -2.33339 -0.0865619 0
M  V30 1329 C 131.984 -1.4727 -0.851209 0
M  V30 1330 O 133.169 -1.76026 -0.820281 0
M  V30 1331 C 130.299 -3.30095 -1.07956 0
M  V30 1332 C 129.253 -4.25858 -0.427628 0
M  V30 1333 C 128.579 -5.12361 -1.5294 0
M  V30 1334 C 129.879 -5.18165 0.655944 0
M  V30 1335 H 131.573 -2.92254 0.650224 0
M  V30 1336 H 129.119 -1.40532 0.314138 0
M  V30 1337 H 131.072 -3.90698 -1.57901 0
M  V30 1338 H 129.796 -2.69355 -1.84703 0
M  V30 1339 H 128.455 -3.66564 0.0510292 0
M  V30 1340 H 128.103 -4.47984 -2.28734 0
M  V30 1341 H 127.803 -5.77238 -1.09865 0
M  V30 1342 H 129.327 -5.75833 -2.03098 0
M  V30 1343 H 130.741 -5.72796 0.240257 0
M  V30 1344 H 129.138 -5.91559 1.00888 0
M  V30 1345 H 130.208 -4.60144 1.52957 0
M  V30 1346 N 131.551 -0.354651 -1.53558 0
M  V30 1347 C 132.799 0.237972 -2.00694 0
M  V30 1348 C 133.12 1.50173 -1.24391 0
M  V30 1349 O 132.39 1.92673 -0.354135 0
M  V30 1350 H 130.97 0.0909256 -0.741446 0
M  V30 1351 H 133.632 -0.478368 -1.88938 0
M  V30 1352 H 132.728 0.47264 -3.085 0
M  V30 1353 N 133.029 1.57378 -0.0835403 0
M  V30 1354 C 133.959 2.1641 0.87686 0
M  V30 1355 C 134.94 1.09429 1.30228 0
M  V30 1356 O 136.125 1.37516 1.37124 0
M  V30 1357 C 133.255 2.73517 2.14022 0
M  V30 1358 C 132.209 3.85769 1.85381 0
M  V30 1359 C 131.535 4.29529 3.18448 0
M  V30 1360 C 132.835 5.09486 1.14984 0
M  V30 1361 H 134.529 2.96914 0.385059 0
M  V30 1362 H 132.075 1.42823 0.18377 0
M  V30 1363 H 134.028 3.13463 2.81636 0
M  V30 1364 H 132.752 1.90252 2.65465 0
M  V30 1365 H 131.411 3.46345 1.20169 0
M  V30 1366 H 131.059 3.43169 3.67755 0
M  V30 1367 H 130.759 5.05204 3.00071 0
M  V30 1368 H 132.283 4.72099 3.8724 0
M  V30 1369 H 133.697 5.46674 1.72687 0
M  V30 1370 H 132.094 5.90515 1.06826 0
M  V30 1371 H 133.164 4.84724 0.130749 0
M  V30 1372 N 134.507 -0.190092 1.56449 0
M  V30 1373 C 135.737 -0.92443 1.84764 0
M  V30 1374 C 136.145 -1.77146 0.664529 0
M  V30 1375 O 135.488 -1.79812 -0.375957 0
M  V30 1376 C 135.55 -1.86651 3.07248 0
M  V30 1377 C 135.214 -1.20094 4.40938 0
M  V30 1378 C 136.211 -0.575445 5.16706 0
M  V30 1379 C 133.896 -1.2033 4.87674 0
M  V30 1380 C 135.89 0.0388111 6.37388 0
M  V30 1381 C 133.577 -0.585214 6.08291 0
M  V30 1382 C 134.575 0.0347578 6.82991 0
M  V30 1383 O 134.263 0.643147 8.01323 0
M  V30 1384 H 133.995 -0.274974 0.617548 0
M  V30 1385 H 136.549 -0.200788 2.04416 0
M  V30 1386 H 134.779 -2.62998 2.83494 0
M  V30 1387 H 136.468 -2.46907 3.22167 0
M  V30 1388 H 137.234 -0.565728 4.81689 0
M  V30 1389 H 133.113 -1.67526 4.29484 0
M  V30 1390 H 136.657 0.523329 6.95634 0
M  V30 1391 H 132.554 -0.592451 6.42775 0
M  V30 1392 H 133.322 0.540545 8.16713 0
M  V30 1393 N 135.985 -1.50799 -0.457987 0
M  V30 1394 C 137.21 -1.66496 -1.23668 0
M  V30 1395 C 137.635 -0.353288 -1.84752 0
M  V30 1396 O 136.993 0.684346 -1.67888 0
M  V30 1397 C 137.041 -2.76763 -2.3116 0
M  V30 1398 O 136.145 -2.38928 -3.36136 0
M  V30 1399 H 135.486 -0.555828 -0.363252 0
M  V30 1400 H 138.016 -1.9725 -0.543474 0
M  V30 1401 H 138.026 -3.00232 -2.76269 0
M  V30 1402 H 136.701 -3.71954 -1.86073 0
M  V30 1403 H 135.278 -2.25953 -2.96647 0
M  V30 1404 N 137.463 0.71206 -1.40597 0
M  V30 1405 C 138.393 1.83889 -1.43899 0
M  V30 1406 C 139.374 1.67442 -0.299504 0
M  V30 1407 O 140.559 1.87421 -0.508624 0
M  V30 1408 C 137.689 3.21877 -1.30431 0
M  V30 1409 C 136.643 3.53002 -2.42019 0
M  V30 1410 C 135.969 4.90172 -2.13626 0
M  V30 1411 C 137.269 3.53643 -3.84362 0
M  V30 1412 H 138.963 1.81383 -2.38203 0
M  V30 1413 H 136.509 0.871237 -1.14654 0
M  V30 1414 H 138.462 4.00404 -1.31357 0
M  V30 1415 H 137.186 3.24968 -0.326049 0
M  V30 1416 H 135.845 2.76818 -2.40349 0
M  V30 1417 H 135.493 4.89869 -1.14182 0
M  V30 1418 H 135.193 5.11962 -2.88389 0
M  V30 1419 H 136.717 5.71028 -2.1624 0
M  V30 1420 H 138.131 4.22203 -3.87837 0
M  V30 1421 H 136.528 3.86961 -4.58673 0
M  V30 1422 H 137.598 2.52954 -4.13693 0
M  V30 1423 N 138.941 1.26152 0.944643 0
M  V30 1424 C 139.888 1.07408 2.04285 0
M  V30 1425 C 140.858 -0.0198413 1.66088 0
M  V30 1426 O 142.043 0.139264 1.90291 0
M  V30 1427 C 139.183 0.70945 3.37729 0
M  V30 1428 C 138.296 1.87926 3.88983 0
M  V30 1429 C 137.431 1.45807 5.10797 0
M  V30 1430 C 136.47 2.5964 5.54305 0
M  V30 1431 N 135.607 2.18226 6.67324 0
M  V30 1432 H 140.447 2.01389 2.1965 0
M  V30 1433 H 137.984 1.00275 1.07626 0
M  V30 1434 H 139.942 0.478948 4.14442 0
M  V30 1435 H 138.572 -0.193389 3.2222 0
M  V30 1436 H 137.624 2.22279 3.08701 0
M  V30 1437 H 138.936 2.73377 4.17213 0
M  V30 1438 H 138.09 1.18781 5.94959 0
M  V30 1439 H 136.829 0.574414 4.84305 0
M  V30 1440 H 135.834 2.87399 4.68702 0
M  V30 1441 H 137.059 3.48599 5.828 0
M  V30 1442 H 135.005 1.3229 6.42523 0
M  V30 1443 H 134.922 2.97221 6.95123 0
M  V30 1444 H 136.19 1.94403 7.54869 0
M  V30 1445 N 140.419 -1.14872 1.07899 0
M  V30 1446 C 141.349 -2.2193 0.725887 0
M  V30 1447 C 142.33 -1.67622 -0.28927 0
M  V30 1448 O 143.515 -1.93533 -0.160787 0
M  V30 1449 C 140.645 -3.47061 0.128856 0
M  V30 1450 C 139.599 -4.14363 1.07178 0
M  V30 1451 C 138.925 -5.33636 0.337229 0
M  V30 1452 C 140.225 -4.63492 2.40775 0
M  V30 1453 H 141.919 -2.51724 1.62097 0
M  V30 1454 H 139.465 -1.20991 0.780838 0
M  V30 1455 H 141.418 -4.21199 -0.130147 0
M  V30 1456 H 140.142 -3.16617 -0.80134 0
M  V30 1457 H 138.801 -3.42173 1.3158 0
M  V30 1458 H 138.449 -4.99449 -0.596606 0
M  V30 1459 H 138.149 -5.79609 0.965788 0
M  V30 1460 H 139.673 -6.10539 0.0861567 0
M  V30 1461 H 141.087 -5.2913 2.20669 0
M  V30 1462 H 139.484 -5.20148 2.99276 0
M  V30 1463 H 140.554 -3.78834 3.02676 0
M  V30 1464 N 141.898 -0.863906 -1.31812 0
M  V30 1465 C 143.175 -0.39275 -1.91616 0
M  V30 1466 C 143.555 1.12461 -1.7865 0
M  V30 1467 O 142.903 1.95045 -1.19037 0
M  V30 1468 C 143.113 -0.867385 -3.38049 0
M  V30 1469 C 144.461 -0.889966 -4.15168 0
M  V30 1470 O 145.485 -0.812635 -3.46806 0
M  V30 1471 O 144.344 -1.00079 -5.37258 0
M  V30 1472 H 141.438 -0.116358 -0.818773 0
M  V30 1473 H 143.984 -0.951418 -1.40521 0
M  V30 1474 H 142.756 -1.91081 -3.41473 0
M  V30 1475 H 142.379 -0.286687 -3.96565 0
M  V30 1476 N 143.376 1.44774 -0.622745 0
M  V30 1477 C 144.624 2.01721 -0.123655 0
M  V30 1478 C 144.945 1.49172 1.25589 0
M  V30 1479 O 144.215 0.691974 1.83272 0
M  V30 1480 H 142.795 0.745777 -0.0427225 0
M  V30 1481 H 145.457 1.77382 -0.807559 0
M  V30 1482 H 144.553 3.11984 -0.0849534 0
M  V30 1483 N 144.854 0.36279 1.53368 0
M  V30 1484 C 146.102 -0.227326 2.00817 0
M  V30 1485 C 146.423 -1.49511 1.25186 0
M  V30 1486 O 145.693 -1.92482 0.364348 0
M  V30 1487 H 144.273 -0.0869923 0.741917 0
M  V30 1488 H 146.935 0.488381 1.88682 0
M  V30 1489 H 146.031 -0.456273 3.08747 0
M  V30 1490 N 146.332 -1.57332 0.0918853 0
M  V30 1491 C 147.279 -2.13847 -0.868211 0
M  V30 1492 C 148.249 -1.05618 -1.28196 0
M  V30 1493 O 149.434 -1.33387 -1.36427 0
M  V30 1494 C 146.574 -2.72062 -2.12312 0
M  V30 1495 C 145.687 -3.94514 -1.7602 0
M  V30 1496 C 144.822 -4.40903 -2.96273 0
M  V30 1497 C 143.861 -5.55953 -2.56092 0
M  V30 1498 N 142.998 -5.97209 -3.69169 0
M  V30 1499 H 147.838 -2.95575 -0.379406 0
M  V30 1500 H 145.375 -1.46048 -0.175606 0
M  V30 1501 H 147.333 -3.03931 -2.858 0
M  V30 1502 H 145.963 -1.93068 -2.58698 0
M  V30 1503 H 145.015 -3.68979 -0.925135 0
M  V30 1504 H 146.327 -4.7802 -1.42472 0
M  V30 1505 H 145.481 -4.74539 -3.78018 0
M  V30 1506 H 144.22 -3.56291 -3.33029 0
M  V30 1507 H 143.225 -5.21948 -1.72773 0
M  V30 1508 H 144.45 -6.42311 -2.20484 0
M  V30 1509 H 142.396 -5.15543 -4.05649 0
M  V30 1510 H 142.313 -6.75504 -3.39456 0
M  V30 1511 H 143.581 -6.35475 -4.51434 0
M  V30 1512 N 147.81 0.181792 -1.56548 0
M  V30 1513 C 149.058 0.89832 -1.81038 0
M  V30 1514 C 149.379 1.83232 -0.667164 0
M  V30 1515 O 148.649 1.93372 0.313673 0
M  V30 1516 H 147.229 0.33471 -0.667816 0
M  V30 1517 H 149.891 0.184116 -1.94028 0
M  V30 1518 H 148.987 1.4815 -2.74696 0
M  V30 1519 N 149.288 1.51039 0.449983 0
M  V30 1520 C 150.516 1.66869 1.2232 0
M  V30 1521 C 150.931 0.360727 1.85322 0
M  V30 1522 O 150.288 -0.659531 1.70166 0
M  V30 1523 C 150.339 2.77524 2.31652 0
M  V30 1524 O 150.06 4.03252 1.7123 0
M  V30 1525 C 151.561 3.04512 3.2216 0
M  V30 1526 H 148.781 0.560326 0.369155 0
M  V30 1527 H 151.325 1.97385 0.534719 0
M  V30 1528 H 149.48 2.49642 2.96239 0
M  V30 1529 H 149.894 4.64609 2.43389 0
M  V30 1530 H 151.368 3.85551 3.95038 0
M  V30 1531 H 151.845 2.16415 3.8218 0
M  V30 1532 H 152.451 3.34005 2.63288 0
M  V30 1533 N 150.766 -0.704594 1.40972 0
M  V30 1534 C 152.014 -1.46169 1.39568 0
M  V30 1535 C 152.335 -1.95 0.00253745 0
M  V30 1536 O 151.605 -1.71095 -0.954114 0
M  V30 1537 H 150.185 -0.542326 0.513704 0
M  V30 1538 H 152.847 -0.834553 1.76128 0
M  V30 1539 H 151.943 -2.32922 2.07735 0
M  V30 1540 N 152.244 -1.26651 -0.937939 0
M  V30 1541 C 153.492 -1.12165 -1.68118 0
M  V30 1542 C 153.813 0.334983 -1.92101 0
M  V30 1543 O 153.083 1.23583 -1.52 0
M  V30 1544 H 151.663 -0.412093 -0.623048 0
M  V30 1545 H 154.325 -1.59027 -1.12678 0
M  V30 1546 H 153.421 -1.64289 -2.6536 0
M  V30 1547 N 153.722 1.14298 -1.08507 0
M  V30 1548 C 154.95 1.89219 -0.836876 0
M  V30 1549 C 155.365 1.78638 0.611054 0
M  V30 1550 O 154.722 1.14643 1.41998 0
M  V30 1551 C 154.773 3.39158 -1.25116 0
M  V30 1552 O 154.494 3.49449 -2.64229 0
M  V30 1553 C 155.995 4.31073 -1.03398 0
M  V30 1554 H 153.215 0.599328 -0.301739 0
M  V30 1555 H 155.759 1.44746 -1.44461 0
M  V30 1556 H 153.914 3.81251 -0.687514 0
M  V30 1557 H 154.328 4.42589 -2.81452 0
M  V30 1558 H 155.802 5.34646 -1.37323 0
M  V30 1559 H 156.279 4.3919 0.0289259 0
M  V30 1560 H 156.885 3.94738 -1.58311 0
M  V30 1561 N 155.201 0.870884 1.31352 0
M  V30 1562 C 156.133 0.28455 2.27427 0
M  V30 1563 C 157.146 -0.552927 1.53123 0
M  V30 1564 O 158.335 -0.374771 1.74521 0
M  V30 1565 C 155.435 -0.615164 3.3327 0
M  V30 1566 C 154.608 0.190079 4.36987 0
M  V30 1567 C 153.667 -0.637917 5.22319 0
M  V30 1568 O 152.693 -0.065626 5.69162 0
M  V30 1569 N 153.895 -1.94973 5.46778 0
M  V30 1570 H 156.66 1.11017 2.7838 0
M  V30 1571 H 154.221 0.732458 1.44384 0
M  V30 1572 H 156.213 -1.1748 3.87273 0
M  V30 1573 H 154.783 -1.34146 2.82354 0
M  V30 1574 H 154.003 0.931165 3.83044 0
M  V30 1575 H 155.291 0.742579 5.03352 0
M  V30 1576 H 154.689 -2.4378 5.10478 0
M  V30 1577 H 153.246 -2.45713 6.03712 0
M  V30 1578 N 156.679 -1.44442 0.630414 0
M  V30 1579 C 157.609 -2.33418 -0.0618083 0
M  V30 1580 C 158.59 -1.48165 -0.835541 0
M  V30 1581 O 159.775 -1.76886 -0.801564 0
M  V30 1582 C 156.905 -3.31222 -1.04449 0
M  V30 1583 C 155.859 -4.26288 -0.382436 0
M  V30 1584 C 155.185 -5.13954 -1.47497 0
M  V30 1585 C 156.485 -5.1744 0.710865 0
M  V30 1586 H 158.179 -2.91548 0.681184 0
M  V30 1587 H 155.725 -1.40191 0.329026 0
M  V30 1588 H 157.678 -3.92351 -1.53748 0
M  V30 1589 H 156.402 -2.71299 -1.81836 0
M  V30 1590 H 155.061 -3.6649 0.0899054 0
M  V30 1591 H 154.709 -4.50385 -2.2397 0
M  V30 1592 H 154.409 -5.7837 -1.03737 0
M  V30 1593 H 155.933 -5.77955 -1.96979 0
M  V30 1594 H 157.347 -5.72509 0.300996 0
M  V30 1595 H 155.744 -5.90455 1.07156 0
M  V30 1596 H 156.814 -4.58496 1.57829 0
M  V30 1597 N 158.157 -0.370918 -1.53173 0
M  V30 1598 C 159.087 0.464847 -2.28826 0
M  V30 1599 C 160.068 1.07936 -1.31468 0
M  V30 1600 O 161.253 1.0956 -1.60344 0
M  V30 1601 C 158.383 1.60196 -3.08147 0
M  V30 1602 C 157.337 1.11443 -4.13237 0
M  V30 1603 C 156.663 2.3422 -4.80672 0
M  V30 1604 C 157.963 0.195384 -5.21934 0
M  V30 1605 H 159.657 -0.166329 -2.98938 0
M  V30 1606 H 157.203 -0.0814359 -1.4377 0
M  V30 1607 H 159.156 2.19332 -3.59822 0
M  V30 1608 H 157.88 2.26045 -2.35735 0
M  V30 1609 H 156.539 0.545727 -3.62515 0
M  V30 1610 H 156.187 2.98537 -4.04827 0
M  V30 1611 H 155.887 2.02269 -5.51689 0
M  V30 1612 H 157.411 2.94032 -5.35143 0
M  V30 1613 H 158.825 0.694375 -5.69079 0
M  V30 1614 H 157.222 -0.0335027 -6.00091 0
M  V30 1615 H 158.292 -0.760961 -4.78892 0
M  V30 1616 N 159.635 1.57281 -0.100228 0
M  V30 1617 C 161.046 1.81725 0.428107 0
M  V30 1618 C 161.397 1.01619 1.67833 0
M  V30 1619 O 160.522 0.247098 2.14985 0
M  V30 1620 C 161.117 3.29617 0.78347 0
M  V30 1621 C 159.676 3.54808 1.25653 0
M  V30 1622 C 158.823 2.76118 0.255752 0
M  V30 1623 H 161.774 1.55324 -0.325608 0
M  V30 1624 H 161.795 3.4322 1.64256 0
M  V30 1625 H 161.307 3.87893 -0.12665 0
M  V30 1626 H 159.408 3.01868 2.18418 0
M  V30 1627 H 159.521 4.63443 1.21482 0
M  V30 1628 H 157.885 2.43745 0.738956 0
M  V30 1629 H 158.668 3.37145 -0.647136 0
M  V30 1630 N 161.113 -0.173488 1.56642 0
M  V30 1631 C 162.043 -1.2171 1.99271 0
M  V30 1632 C 163.024 -1.46289 0.867959 0
M  V30 1633 O 164.209 -1.5766 1.13388 0
M  V30 1634 C 161.339 -2.55651 2.35074 0
M  V30 1635 C 160.293 -2.45645 3.50489 0
M  V30 1636 C 159.619 -3.84056 3.72028 0
M  V30 1637 C 160.919 -1.96302 4.84007 0
M  V30 1638 H 162.613 -0.86275 2.867 0
M  V30 1639 H 160.159 -0.413571 1.37933 0
M  V30 1640 H 162.112 -3.2886 2.63494 0
M  V30 1641 H 160.836 -2.92869 1.44552 0
M  V30 1642 H 159.495 -1.7489 3.22194 0
M  V30 1643 H 159.143 -4.18664 2.788 0
M  V30 1644 H 158.843 -3.7823 4.49684 0
M  V30 1645 H 160.367 -4.58854 4.02846 0
M  V30 1646 H 161.781 -2.59284 5.11317 0
M  V30 1647 H 160.178 -2.01429 5.65284 0
M  V30 1648 H 161.248 -0.917226 4.76146 0
M  V30 1649 N 162.591 -1.51276 -0.441967 0
M  V30 1650 C 163.868 -1.54252 -1.20273 0
M  V30 1651 C 164.248 -0.30408 -2.08898 0
M  V30 1652 O 163.596 0.711084 -2.17154 0
M  V30 1653 C 163.806 -2.85406 -2.00859 0
M  V30 1654 C 165.154 -3.37181 -2.58059 0
M  V30 1655 O 166.178 -2.86925 -2.11074 0
M  V30 1656 O 165.037 -4.24858 -3.43741 0
M  V30 1657 H 162.131 -0.619969 -0.547328 0
M  V30 1658 H 164.677 -1.63586 -0.451413 0
M  V30 1659 H 163.449 -3.67003 -1.35736 0
M  V30 1660 H 163.072 -2.79213 -2.83065 0
M  V30 1661 N 164.069 0.697108 -1.41344 0
M  V30 1662 C 165.019 1.80313 -1.39539 0
M  V30 1663 C 166.003 1.58618 -0.270001 0
M  V30 1664 O 167.195 1.69477 -0.510551 0
M  V30 1665 C 164.324 3.18606 -1.27848 0
M  V30 1666 C 163.41 3.46001 -2.45244 0
M  V30 1667 N 163.801 3.44103 -3.70711 0
M  V30 1668 C 162.099 3.76542 -2.39023 0
M  V30 1669 C 162.8 3.7036 -4.48563 0
M  V30 1670 N 161.776 3.90027 -3.78655 0
M  V30 1671 H 165.578 1.77207 -2.34468 0
M  V30 1672 H 163.092 0.897031 -1.35378 0
M  V30 1673 H 165.089 3.97833 -1.24637 0
M  V30 1674 H 163.749 3.22925 -0.339032 0
M  V30 1675 H 164.76 3.2452 -4.03618 0
M  V30 1676 H 161.437 3.88241 -1.53542 0
M  V30 1677 H 162.827 3.75042 -5.57488 0
M  V30 1678 N 165.547 1.27147 0.931209 0
M  V30 1679 C 166.824 1.0401 1.65654 0
M  V30 1680 C 167.204 -0.426297 2.06751 0
M  V30 1681 O 166.552 -1.40879 1.79904 0
M  V30 1682 C 166.762 1.99834 2.86125 0
M  V30 1683 C 168.11 2.29007 3.57549 0
M  V30 1684 O 169.134 1.97779 2.96246 0
M  V30 1685 O 167.993 2.82222 4.67989 0
M  V30 1686 H 165.087 0.396239 0.725895 0
M  V30 1687 H 167.633 1.38397 0.982056 0
M  V30 1688 H 166.405 2.98744 2.52721 0
M  V30 1689 H 166.028 1.65987 3.61295 0
M  V30 1690 N 167.025 -1.13721 1.09112 0
M  V30 1691 C 168.273 -1.84559 0.823562 0
M  V30 1692 C 168.594 -1.83754 -0.652658 0
M  V30 1693 O 167.864 -1.29102 -1.47342 0
M  V30 1694 H 166.444 -0.683376 0.301673 0
M  V30 1695 H 169.106 -1.37771 1.37859 0
M  V30 1696 H 168.202 -2.8917 1.17419 0
M  V30 1697 N 168.503 -0.877838 -1.30888 0
M  V30 1698 C 169.919 -0.570844 -1.49042 0
M  V30 1699 C 170.119 0.893159 -1.80624 0
M  V30 1700 O 169.175 1.67485 -1.88958 0
M  V30 1701 C 170.488 -1.47784 -2.61878 0
M  V30 1702 C 172.036 -1.48071 -2.75761 0
M  V30 1703 C 172.511 -2.37347 -3.91702 0
M  V30 1704 N 174.002 -2.35271 -3.99001 0
M  V30 1705 C 174.737 -3.01063 -4.88004 0
M  V30 1706 N 174.233 -3.76055 -5.81854 0
M  V30 1707 N 176.026 -2.90332 -4.81315 0
M  V30 1708 H 168.177 -1.82502 -1.0866 0
M  V30 1709 H 170.44 -0.780797 -0.537644 0
M  V30 1710 H 170.146 -2.51993 -2.45341 0
M  V30 1711 H 170.02 -1.18215 -3.58197 0
M  V30 1712 H 172.407 -0.446166 -2.91708 0
M  V30 1713 H 172.488 -1.81668 -1.80085 0
M  V30 1714 H 172.132 -3.40883 -3.76512 0
M  V30 1715 H 172.062 -2.01071 -4.86701 0
M  V30 1716 H 174.553 -1.80768 -3.3186 0
M  V30 1717 H 174.866 -4.23366 -6.46514 0
M  V30 1718 H 173.211 -3.80163 -5.81808 0
M  V30 1719 H 176.402 -2.31278 -4.06974 0
M  V30 1720 H 176.575 -3.41885 -5.50471 0
M  V30 1721 N 169.982 1.44106 -0.638065 0
M  V30 1722 C 171.393 1.85316 -0.226894 0
M  V30 1723 C 171.744 1.53399 1.22324 0
M  V30 1724 O 170.869 0.975463 1.93167 0
M  V30 1725 C 171.464 3.3637 -0.405013 0
M  V30 1726 C 170.023 3.76369 -0.0482902 0
M  V30 1727 C 169.17 2.67921 -0.715108 0
M  V30 1728 H 172.121 1.34474 -0.842764 0
M  V30 1729 H 172.142 3.7885 0.354 0
M  V30 1730 H 171.654 3.59569 -1.46053 0
M  V30 1731 H 169.755 3.58784 1.00522 0
M  V30 1732 H 169.868 4.76856 -0.463187 0
M  V30 1733 H 168.232 2.54259 -0.149753 0
M  V30 1734 H 169.015 2.93951 -1.77335 0
M  V30 1735 N 171.46 0.379036 1.52974 0
M  V30 1736 C 172.423 -0.448865 2.24762 0
M  V30 1737 C 173.423 -0.998689 1.26027 0
M  V30 1738 O 174.613 -0.882313 1.50203 0
M  V30 1739 C 171.745 -1.62872 2.99476 0
M  V30 1740 H 172.938 0.179491 2.99362 0
M  V30 1741 H 170.491 0.13096 1.5575 0
M  V30 1742 H 171.226 -2.29479 2.29151 0
M  V30 1743 H 171.011 -1.24128 3.71934 0
M  V30 1744 H 172.501 -2.2151 3.5401 0
M  V30 1745 N 172.938 -1.57226 0.108567 0
M  V30 1746 C 174.215 -1.86333 -0.594939 0
M  V30 1747 C 174.595 -1.00788 -1.85486 0
M  V30 1748 O 173.943 -0.0839293 -2.28346 0
M  V30 1749 C 174.153 -3.37265 -0.897405 0
M  V30 1750 C 175.501 -4.05629 -1.25501 0
M  V30 1751 O 176.525 -3.42224 -0.987998 0
M  V30 1752 O 175.384 -5.17531 -1.75567 0
M  V30 1753 H 172.478 -0.771018 -0.2991 0
M  V30 1754 H 175.024 -1.69102 0.142283 0
M  V30 1755 H 173.796 -3.913 -0.00413806 0
M  V30 1756 H 173.419 -3.59889 -1.69014 0
M  V30 1757 N 174.416 0.165178 -1.56732 0
M  V30 1758 C 175.364 1.22369 -1.97809 0
M  V30 1759 C 176.358 1.45488 -0.867741 0
M  V30 1760 O 177.564 1.45995 -1.05288 0
M  V30 1761 H 173.939 0.411486 -0.629431 0
M  V30 1762 H 175.91 0.850425 -2.86025 0
M  V30 1763 C 174.659 2.55403 -2.35934 0
M  V30 1764 H 173.982 2.38438 -3.20916 0
M  V30 1765 H 175.422 3.2814 -2.68514 0
M  V30 1766 C 173.881 3.14611 -1.20506 0
M  V30 1767 O 174.411 3.98626 -0.496016 0
M  V30 1768 N 172.617 2.7379 -0.97403 0
M  V30 1769 H 172.164 2.0557 -1.55238 0
M  V30 1770 H 172.122 3.1374 -0.203573 0
M  V30 1771 N 175.894 1.51508 0.433938 0
M  V30 1772 C 177.141 1.64345 1.18309 0
M  V30 1773 C 177.469 0.361315 1.91115 0
M  V30 1774 O 176.724 -0.654753 1.84422 0
M  V30 1775 C 177.023 2.79928 2.22205 0
M  V30 1776 C 176.689 4.19078 1.66387 0
M  V30 1777 C 175.351 4.56932 1.50887 0
M  V30 1778 C 177.703 5.05894 1.25381 0
M  V30 1779 C 175.031 5.79305 0.928608 0
M  V30 1780 C 177.383 6.2885 0.687823 0
M  V30 1781 C 176.047 6.65473 0.519755 0
M  V30 1782 H 175.317 0.601381 0.432923 0
M  V30 1783 H 177.964 1.85549 0.473676 0
M  V30 1784 H 176.269 2.52959 2.99197 0
M  V30 1785 H 177.966 2.87059 2.79997 0
M  V30 1786 H 174.556 3.89234 1.79428 0
M  V30 1787 H 178.74 4.77253 1.36175 0
M  V30 1788 H 173.996 6.06324 0.786186 0
M  V30 1789 H 178.17 6.95461 0.361581 0
M  V30 1790 H 175.797 7.6017 0.0679979 0
M  V30 1791 N 177.372 -0.689602 1.41712 0
M  V30 1792 C 178.62 -1.4468 1.4111 0
M  V30 1793 C 178.941 -1.94986 0.0232196 0
M  V30 1794 O 178.211 -1.72097 -0.935913 0
M  V30 1795 H 176.791 -0.536847 0.519427 0
M  V30 1796 H 179.453 -0.815825 1.77004 0
M  V30 1797 H 178.549 -2.30706 2.10193 0
M  V30 1798 N 178.85 -1.27639 -0.924453 0
M  V30 1799 C 180.266 -1.05113 -1.20097 0
M  V30 1800 C 180.466 0.213262 -2.00368 0
M  V30 1801 O 179.522 0.91787 -2.35226 0
M  V30 1802 C 180.835 -2.29244 -1.94596 0
M  V30 1803 C 182.383 -2.34315 -2.07522 0
M  V30 1804 C 182.858 -3.58183 -2.85427 0
M  V30 1805 N 184.349 -3.5876 -2.92994 0
M  V30 1806 C 185.084 -4.51277 -3.53746 0
M  V30 1807 N 184.58 -5.54102 -4.15863 0
M  V30 1808 N 186.373 -4.38894 -3.51181 0
M  V30 1809 H 178.524 -2.08821 -0.388264 0
M  V30 1810 H 180.787 -0.918568 -0.234385 0
M  V30 1811 H 180.493 -3.21301 -1.43034 0
M  V30 1812 H 180.367 -2.34816 -2.95197 0
M  V30 1813 H 182.754 -1.42762 -2.58269 0
M  V30 1814 H 182.835 -2.32744 -1.06131 0
M  V30 1815 H 182.479 -4.50074 -2.35363 0
M  V30 1816 H 182.409 -3.57006 -3.8711 0
M  V30 1817 H 184.9 -2.84398 -2.4885 0
M  V30 1818 H 185.213 -6.20859 -4.60168 0
M  V30 1819 H 183.558 -5.57941 -4.144 0
M  V30 1820 H 186.749 -3.57772 -3.01856 0
M  V30 1821 H 186.922 -5.11186 -3.98237 0
M  V30 1822 N 180.328 1.1314 -1.09713 0
M  V30 1823 C 181.258 2.20748 -0.761102 0
M  V30 1824 C 182.239 1.68061 0.262566 0
M  V30 1825 O 183.424 1.93765 0.129977 0
M  V30 1826 C 180.554 3.46812 -0.184054 0
M  V30 1827 C 179.508 4.12606 -1.13757 0
M  V30 1828 C 178.834 5.33031 -0.422083 0
M  V30 1829 C 180.134 4.59603 -2.48118 0
M  V30 1830 H 181.828 2.49113 -1.66082 0
M  V30 1831 H 179.374 1.19734 -0.799987 0
M  V30 1832 H 181.327 4.21353 0.0631215 0
M  V30 1833 H 180.051 3.17851 0.750868 0
M  V30 1834 H 178.71 3.40036 -1.37007 0
M  V30 1835 H 178.358 5.00335 0.517072 0
M  V30 1836 H 178.058 5.77999 -1.05788 0
M  V30 1837 H 179.582 6.10325 -0.183277 0
M  V30 1838 H 180.996 5.25552 -2.29059 0
M  V30 1839 H 179.393 5.15321 -3.07514 0
M  V30 1840 H 180.463 3.73971 -3.08665 0
M  V30 1841 N 181.806 0.884767 1.30421 0
M  V30 1842 C 183.054 0.502112 1.95763 0
M  V30 1843 C 183.375 -0.951815 1.70192 0
M  V30 1844 O 182.645 -1.6692 1.0254 0
M  V30 1845 H 181.225 0.182694 0.724315 0
M  V30 1846 H 183.887 1.1278 1.58955 0
M  V30 1847 H 182.983 0.672188 3.04775 0
M  V30 1848 N 183.284 -1.43765 0.645699 0
M  V30 1849 C 184.53 -2.02197 0.156271 0
M  V30 1850 C 184.863 -1.50776 -1.22393 0
M  V30 1851 O 184.138 -0.697771 -1.81553 0
M  V30 1852 C 184.421 -3.59749 0.158872 0
M  V30 1853 C 184.274 -4.21419 1.57245 0
M  V30 1854 C 185.593 -4.37149 -0.50879 0
M  V30 1855 H 182.712 -0.734694 0.0582602 0
M  V30 1856 H 185.354 -1.71157 0.824951 0
M  V30 1857 H 183.504 -3.86325 -0.410525 0
M  V30 1858 H 185.176 -4.059 2.19186 0
M  V30 1859 H 183.419 -3.78356 2.122 0
M  V30 1860 H 184.09 -5.30482 1.52619 0
M  V30 1861 H 186.566 -4.16093 -0.024412 0
M  V30 1862 H 185.442 -5.4683 -0.476213 0
M  V30 1863 H 185.703 -4.12839 -1.58165 0
M  V30 1864 N 184.763 -0.387143 -1.52771 0
M  V30 1865 C 185.726 0.436939 -2.24997 0
M  V30 1866 C 186.726 0.991991 -1.26555 0
M  V30 1867 O 187.916 0.874335 -1.50669 0
M  V30 1868 C 185.048 1.61281 -3.00335 0
M  V30 1869 H 186.241 -0.195365 -2.99263 0
M  V30 1870 H 183.794 -0.139218 -1.55679 0
M  V30 1871 H 184.529 2.2826 -2.30364 0
M  V30 1872 H 184.314 1.22154 -3.72587 0
M  V30 1873 H 185.804 2.19629 -3.5518 0
M  V30 1874 N 186.241 1.57166 -0.116904 0
M  V30 1875 C 187.488 1.95123 0.541603 0
M  V30 1876 C 187.816 1.00006 1.6682 0
M  V30 1877 O 187.071 0.0235658 1.95686 0
M  V30 1878 C 187.37 3.39508 1.11664 0
M  V30 1879 C 187.036 4.50762 0.111606 0
M  V30 1880 C 185.698 4.80918 -0.164758 0
M  V30 1881 C 188.05 5.18036 -0.573438 0
M  V30 1882 C 185.378 5.75666 -1.13249 0
M  V30 1883 C 187.73 6.13824 -1.52978 0
M  V30 1884 C 186.394 6.42374 -1.81415 0
M  V30 1885 H 185.664 0.714005 0.198187 0
M  V30 1886 H 188.311 1.9048 -0.197365 0
M  V30 1887 H 186.616 3.40835 1.93232 0
M  V30 1888 H 188.313 3.66189 1.63422 0
M  V30 1889 H 184.903 4.27272 0.337192 0
M  V30 1890 H 189.087 4.94896 -0.373092 0
M  V30 1891 H 184.343 5.96092 -1.35958 0
M  V30 1892 H 188.517 6.65039 -2.06629 0
M  V30 1893 H 186.144 7.15599 -2.56557 0
M  V30 1894 N 187.719 -0.156864 1.56817 0
M  V30 1895 C 188.666 -1.19394 1.97519 0
M  V30 1896 C 189.636 -1.4322 0.841265 0
M  V30 1897 O 190.821 -1.55719 1.10255 0
M  V30 1898 C 187.961 -2.52483 2.35258 0
M  V30 1899 C 187.074 -2.35914 3.61896 0
M  V30 1900 C 186.209 -3.61969 3.88782 0
M  V30 1901 C 185.248 -3.40395 5.08722 0
M  V30 1902 N 184.385 -4.58556 5.31668 0
M  V30 1903 H 189.225 -0.839845 2.85921 0
M  V30 1904 H 186.762 -0.403264 1.41464 0
M  V30 1905 H 188.72 -3.30071 2.55165 0
M  V30 1906 H 187.35 -2.85859 1.49949 0
M  V30 1907 H 186.402 -1.49429 3.49821 0
M  V30 1908 H 187.714 -2.15926 4.49641 0
M  V30 1909 H 186.868 -4.47989 4.09135 0
M  V30 1910 H 185.607 -3.84951 2.9944 0
M  V30 1911 H 184.612 -2.52763 4.88253 0
M  V30 1912 H 185.837 -3.18822 5.99608 0
M  V30 1913 H 183.783 -4.81729 4.45279 0
M  V30 1914 H 183.7 -4.41535 6.13664 0
M  V30 1915 H 184.968 -5.45817 5.5651 0
M  V30 1916 N 189.197 -1.51736 -0.425897 0
M  V30 1917 C 190.16 -1.73271 -1.50032 0
M  V30 1918 C 191.16 -0.602639 -1.4908 0
M  V30 1919 O 192.35 -0.87033 -1.509 0
M  V30 1920 C 189.482 -1.79969 -2.89523 0
M  V30 1921 H 190.675 -2.69172 -1.32237 0
M  V30 1922 H 188.228 -1.41899 -0.65532 0
M  V30 1923 H 188.963 -0.859241 -3.1271 0
M  V30 1924 H 188.748 -2.62109 -2.91619 0
M  V30 1925 H 190.238 -1.9843 -3.67444 0
M  V30 1926 N 190.675 0.682077 -1.42076 0
M  V30 1927 C 192.091 0.994324 -1.24841 0
M  V30 1928 C 192.291 2.0096 -0.147389 0
M  V30 1929 O 191.347 2.47822 0.483782 0
M  V30 1930 C 192.66 1.50607 -2.60265 0
M  V30 1931 C 194.208 1.62421 -2.6756 0
M  V30 1932 C 194.683 2.16994 -4.03333 0
M  V30 1933 N 196.174 2.24337 -4.0525 0
M  V30 1934 C 196.909 2.67621 -5.07116 0
M  V30 1935 N 196.405 3.1041 -6.19368 0
M  V30 1936 N 198.198 2.67305 -4.94474 0
M  V30 1937 H 190.349 0.00973908 -2.12398 0
M  V30 1938 H 192.612 0.0668593 -0.945639 0
M  V30 1939 H 192.318 0.834583 -3.41654 0
M  V30 1940 H 192.192 2.48602 -2.83684 0
M  V30 1941 H 194.579 2.28678 -1.86521 0
M  V30 1942 H 194.66 0.629352 -2.47937 0
M  V30 1943 H 194.304 1.51349 -4.84826 0
M  V30 1944 H 194.234 3.17258 -4.20304 0
M  V30 1945 H 196.725 1.94158 -3.24209 0
M  V30 1946 H 197.038 3.42103 -6.92954 0
M  V30 1947 H 195.383 3.08286 -6.22884 0
M  V30 1948 H 198.574 2.33233 -4.05857 0
M  V30 1949 H 198.747 3.00718 -5.73997 0
M  V30 1950 N 192.153 1.28127 0.917671 0
M  V30 1951 C 193.083 1.14248 2.03641 0
M  V30 1952 C 194.064 0.0412748 1.7005 0
M  V30 1953 O 195.249 0.217566 1.92977 0
M  V30 1954 C 192.379 0.799431 3.37974 0
M  V30 1955 C 191.333 1.85497 3.85713 0
M  V30 1956 C 190.659 1.36565 5.16966 0
M  V30 1957 C 191.959 3.26085 4.08002 0
M  V30 1958 H 193.653 2.07835 2.15511 0
M  V30 1959 H 191.199 1.00064 1.03553 0
M  V30 1960 H 193.152 0.689114 4.15727 0
M  V30 1961 H 191.876 -0.172145 3.26146 0
M  V30 1962 H 190.535 1.95437 3.10161 0
M  V30 1963 H 190.183 0.383253 5.01538 0
M  V30 1964 H 189.883 2.07143 5.49878 0
M  V30 1965 H 191.407 1.26848 5.97279 0
M  V30 1966 H 192.821 3.19089 4.76293 0
M  V30 1967 H 191.218 3.94462 4.52238 0
M  V30 1968 H 192.288 3.70394 3.12948 0
M  V30 1969 N 193.631 -1.12557 1.10312 0
M  V30 1970 C 194.856 -1.88405 0.867085 0
M  V30 1971 C 195.281 -1.79038 -0.576817 0
M  V30 1972 O 194.639 -1.14439 -1.40618 0
M  V30 1973 C 194.687 -3.3563 1.31851 0
M  V30 1974 O 193.791 -4.09565 0.482734 0
M  V30 1975 H 193.132 -0.585455 0.313271 0
M  V30 1976 H 195.662 -1.42352 1.4696 0
M  V30 1977 H 195.672 -3.86469 1.3079 0
M  V30 1978 H 194.347 -3.41765 2.37001 0
M  V30 1979 H 192.924 -3.68695 0.558448 0
M  V30 1980 N 195.109 -0.891671 -1.2995 0
M  V30 1981 C 196.041 -0.320695 -2.26945 0
M  V30 1982 C 197.054 0.528497 -1.53983 0
M  V30 1983 O 198.243 0.346959 -1.75096 0
M  V30 1984 C 195.343 0.562066 -3.34207 0
M  V30 1985 C 194.516 -0.259576 -4.36629 0
M  V30 1986 C 193.575 0.554739 -5.23268 0
M  V30 1987 O 192.601 -0.0249311 -5.69195 0
M  V30 1988 N 193.803 1.8625 -5.4981 0
M  V30 1989 H 196.568 -1.15432 -2.76578 0
M  V30 1990 H 194.129 -0.755336 -1.432 0
M  V30 1991 H 196.121 1.11304 -3.89093 0
M  V30 1992 H 194.691 1.29637 -2.84452 0
M  V30 1993 H 193.911 -0.991986 -3.81514 0
M  V30 1994 H 195.199 -0.822564 -5.02107 0
M  V30 1995 H 194.597 2.35628 -5.14292 0
M  V30 1996 H 193.154 2.36078 -6.07545 0
M  V30 1997 N 196.587 1.43421 -0.653314 0
M  V30 1998 C 197.815 2.06163 -0.174491 0
M  V30 1999 C 198.23 1.48969 1.1599 0
M  V30 2000 O 197.587 0.621042 1.71608 0
M  V30 2001 C 197.638 3.61417 -0.0774865 0
M  V30 2002 O 197.359 4.16485 -1.35912 0
M  V30 2003 C 198.86 4.41235 0.427402 0
M  V30 2004 H 196.08 0.664946 -0.0899353 0
M  V30 2005 H 198.624 1.83924 -0.893988 0
M  V30 2006 H 196.779 3.82841 0.59257 0
M  V30 2007 H 197.193 5.10153 -1.21839 0
M  V30 2008 H 198.667 5.5021 0.44423 0
M  V30 2009 H 199.144 4.14268 1.45873 0
M  V30 2010 H 199.75 4.2478 -0.210167 0
M  V30 2011 N 198.065 0.39524 1.52563 0
M  V30 2012 C 198.975 -0.444232 2.30356 0
M  V30 2013 C 199.991 -1.06615 1.37511 0
M  V30 2014 O 201.167 -1.07067 1.70583 0
M  V30 2015 C 198.232 -1.55315 3.09964 0
M  V30 2016 C 197.293 -0.955734 4.18526 0
M  V30 2017 C 196.526 -2.01181 4.9433 0
M  V30 2018 O 196.749 -3.22781 4.70285 0
M  V30 2019 O 195.683 -1.62579 5.79527 0
M  V30 2020 H 199.509 0.189667 3.03107 0
M  V30 2021 H 197.094 0.1588 1.48554 0
M  V30 2022 H 198.976 -2.19724 3.59582 0
M  V30 2023 H 197.651 -2.17191 2.4002 0
M  V30 2024 H 196.558 -0.274743 3.7309 0
M  V30 2025 H 197.891 -0.381109 4.90722 0
M  V30 2026 N 199.544 -1.57102 0.125237 0
M  V30 2027 C 200.79 -1.95697 -0.532035 0
M  V30 2028 C 201.123 -1.009 -1.6593 0
M  V30 2029 O 200.398 -0.047347 -1.94442 0
M  V30 2030 C 200.681 -3.44181 -1.05884 0
M  V30 2031 C 200.534 -4.49752 0.0654392 0
M  V30 2032 C 201.853 -3.94655 -1.9477 0
M  V30 2033 H 198.972 -0.711571 -0.191925 0
M  V30 2034 H 201.614 -1.88923 0.20206 0
M  V30 2035 H 199.764 -3.50085 -1.68442 0
M  V30 2036 H 201.436 -4.55943 0.700982 0
M  V30 2037 H 199.679 -4.27653 0.727709 0
M  V30 2038 H 200.35 -5.50924 -0.344505 0
M  V30 2039 H 202.826 -3.91094 -1.42074 0
M  V30 2040 H 201.702 -4.99057 -2.28546 0
M  V30 2041 H 201.963 -3.35718 -2.87656 0
M  V30 2042 N 201.022 0.148545 -1.56898 0
M  V30 2043 C 201.969 1.18345 -1.98149 0
M  V30 2044 C 202.939 1.42772 -0.848848 0
M  V30 2045 O 204.124 1.55132 -1.11079 0
M  V30 2046 C 201.264 2.51231 -2.36594 0
M  V30 2047 C 200.377 2.33991 -3.63142 0
M  V30 2048 C 199.512 3.59902 -3.90697 0
M  V30 2049 C 198.551 3.37692 -5.1052 0
M  V30 2050 N 197.688 4.5573 -5.34092 0
M  V30 2051 H 202.528 0.82467 -2.86362 0
M  V30 2052 H 200.065 0.395756 -1.41676 0
M  V30 2053 H 202.023 3.28713 -2.56912 0
M  V30 2054 H 200.653 2.85059 -1.51463 0
M  V30 2055 H 199.705 1.47572 -3.50609 0
M  V30 2056 H 201.017 2.13539 -4.5078 0
M  V30 2057 H 200.171 4.45813 -4.11505 0
M  V30 2058 H 198.91 3.83357 -3.01477 0
M  V30 2059 H 197.915 2.5017 -4.89587 0
M  V30 2060 H 199.14 3.15637 -6.0129 0
M  V30 2061 H 197.086 4.79361 -4.47827 0
M  V30 2062 H 197.003 4.38274 -6.15996 0
M  V30 2063 H 198.271 5.42858 -5.59397 0
M  V30 2064 N 202.5 1.5196 0.417844 0
M  V30 2065 C 203.746 1.65836 1.16732 0
M  V30 2066 C 204.079 0.382881 1.90388 0
M  V30 2067 O 203.354 -0.618368 1.84408 0
M  V30 2068 C 203.637 2.87466 2.16876 0
M  V30 2069 C 203.49 4.25041 1.47174 0
M  V30 2070 C 204.809 3.04613 3.17646 0
M  V30 2071 H 201.928 0.603515 0.423011 0
M  V30 2072 H 204.57 1.84494 0.454105 0
M  V30 2073 H 202.72 2.71689 2.777 0
M  V30 2074 H 204.392 4.52527 0.895376 0
M  V30 2075 H 202.635 4.26843 0.773806 0
M  V30 2076 H 203.306 5.06176 2.20204 0
M  V30 2077 H 205.782 3.1923 2.66892 0
M  V30 2078 H 204.658 3.91247 3.8499 0
M  V30 2079 H 204.919 2.17541 3.84874 0
M  V30 2080 N 203.978 -0.674533 1.42435 0
M  V30 2081 C 205.226 -1.43175 1.42637 0
M  V30 2082 C 205.547 -1.94951 0.0438992 0
M  V30 2083 O 204.817 -1.7308 -0.917607 0
M  V30 2084 H 203.397 -0.531307 0.525092 0
M  V30 2085 H 206.059 -0.797006 1.77859 0
M  V30 2086 H 205.155 -2.28463 2.12629 0
M  V30 2087 N 205.456 -1.28612 -0.910864 0
M  V30 2088 C 206.366 -1.14643 -2.0468 0
M  V30 2089 C 207.382 -0.0723121 -1.7385 0
M  V30 2090 O 208.558 -0.282178 -1.99413 0
M  V30 2091 C 205.623 -0.812561 -3.37044 0
M  V30 2092 C 204.684 -1.96935 -3.81465 0
M  V30 2093 C 203.917 -1.65131 -5.07511 0
M  V30 2094 O 204.14 -0.567013 -5.67575 0
M  V30 2095 O 203.074 -2.49585 -5.47714 0
M  V30 2096 H 206.9 -2.1001 -2.19384 0
M  V30 2097 H 204.485 -1.07958 -1.03274 0
M  V30 2098 H 206.367 -0.640441 -4.16505 0
M  V30 2099 H 205.042 0.111426 -3.23508 0
M  V30 2100 H 203.949 -2.19664 -3.02818 0
M  V30 2101 H 205.282 -2.87414 -3.99567 0
M  V30 2102 N 206.934 1.1197 -1.10907 0
M  V30 2103 C 208.18 1.84059 -0.865674 0
M  V30 2104 C 208.535 1.82731 0.602254 0
M  V30 2105 O 207.828 1.26543 1.43866 0
M  V30 2106 C 208.022 3.30749 -1.35425 0
M  V30 2107 C 207.851 3.46363 -2.86815 0
M  V30 2108 C 206.621 3.59712 -3.54874 0
M  V30 2109 C 208.819 3.41116 -3.84895 0
M  V30 2110 N 206.801 3.63741 -4.94536 0
M  V30 2111 C 208.172 3.51698 -5.10596 0
M  V30 2112 C 210.227 3.24612 -3.77533 0
M  V30 2113 C 208.93 3.4748 -6.29802 0
M  V30 2114 C 210.956 3.21708 -4.96244 0
M  V30 2115 C 210.318 3.32856 -6.20795 0
M  V30 2116 H 206.417 0.689015 -0.369841 0
M  V30 2117 H 209.001 1.34016 -1.41237 0
M  V30 2118 H 207.172 3.79322 -0.834814 0
M  V30 2119 H 208.904 3.90718 -1.05458 0
M  V30 2120 H 205.659 3.62038 -3.05329 0
M  V30 2121 H 206.083 3.69408 -5.67333 0
M  V30 2122 H 210.725 3.14883 -2.8215 0
M  V30 2123 H 208.443 3.55978 -7.25469 0
M  V30 2124 H 212.029 3.10113 -4.92261 0
M  V30 2125 H 210.909 3.3059 -7.11112 0
M  V30 2126 N 208.412 0.89855 1.29475 0
M  V30 2127 C 209.345 0.319981 2.25945 0
M  V30 2128 C 210.323 -0.567189 1.52387 0
M  V30 2129 O 211.507 -0.514254 1.8135 0
M  V30 2130 C 208.634 -0.544013 3.34303 0
M  V30 2131 C 207.68 0.275682 4.25608 0
M  V30 2132 S 208.513 1.67272 5.08704 0
M  V30 2133 C 209.669 0.815621 6.20563 0
M  V30 2134 H 209.902 1.13767 2.74671 0
M  V30 2135 H 207.435 0.69882 1.3768 0
M  V30 2136 H 209.393 -1.03673 3.97193 0
M  V30 2137 H 208.054 -1.33593 2.84274 0
M  V30 2138 H 207.247 -0.384263 5.02533 0
M  V30 2139 H 206.849 0.701496 3.67362 0
M  V30 2140 H 209.141 0.0385042 6.77489 0
M  V30 2141 H 210.084 1.55691 6.90772 0
M  V30 2142 H 210.492 0.370516 5.63283 0
M  V30 2143 N 209.89 -1.43072 0.660911 0
M  V30 2144 C 211.301 -1.84932 0.256348 0
M  V30 2145 C 211.652 -1.55325 -1.19868 0
M  V30 2146 O 210.777 -1.00607 -1.91591 0
M  V30 2147 C 211.372 -3.35684 0.458475 0
M  V30 2148 C 209.931 -3.76245 0.108161 0
M  V30 2149 C 209.078 -2.66749 0.757641 0
M  V30 2150 H 212.029 -1.33116 0.864051 0
M  V30 2151 H 212.05 -3.79365 -0.293683 0
M  V30 2152 H 211.562 -3.572 1.51755 0
M  V30 2153 H 209.663 -3.60338 -0.948014 0
M  V30 2154 H 209.776 -4.76058 0.538992 0
M  V30 2155 H 208.14 -2.53989 0.190185 0
M  V30 2156 H 208.923 -2.91092 1.81989 0
M  V30 2157 N 211.368 -0.403325 -1.52352 0
M  V30 2158 C 212.614 0.174605 -2.02047 0
M  V30 2159 C 212.947 1.45282 -1.28867 0
M  V30 2160 O 212.222 1.90483 -0.393257 0
M  V30 2161 C 212.505 0.428238 -3.57545 0
M  V30 2162 C 212.358 -0.866248 -4.4138 0
M  V30 2163 C 213.677 1.21287 -4.23057 0
M  V30 2164 H 210.796 0.0619851 -0.734389 0
M  V30 2165 H 213.438 -0.53565 -1.82293 0
M  V30 2166 H 211.588 1.03327 -3.74507 0
M  V30 2167 H 213.26 -1.50265 -4.3614 0
M  V30 2168 H 211.503 -1.47851 -4.07827 0
M  V30 2169 H 212.174 -0.643249 -5.48239 0
M  V30 2170 H 214.65 0.700703 -4.10158 0
M  V30 2171 H 213.526 1.35909 -5.31808 0
M  V30 2172 H 213.787 2.23193 -3.81625 0
M  V30 2173 N 212.846 1.57033 -0.133567 0
M  V30 2174 C 213.776 2.1909 0.807567 0
M  V30 2175 C 214.757 1.13517 1.26681 0
M  V30 2176 O 215.942 1.41809 1.32679 0
M  V30 2177 C 213.072 2.80188 2.05212 0
M  V30 2178 C 212.026 3.91471 1.73015 0
M  V30 2179 C 211.352 4.39443 3.04622 0
M  V30 2180 C 212.652 5.12886 0.987168 0
M  V30 2181 H 214.346 2.97988 0.290403 0
M  V30 2182 H 211.892 1.43335 0.138239 0
M  V30 2183 H 213.845 3.22264 2.71521 0
M  V30 2184 H 212.569 1.98601 2.59278 0
M  V30 2185 H 211.228 3.49993 1.0909 0
M  V30 2186 H 210.876 3.54695 3.56651 0
M  V30 2187 H 210.576 5.14495 2.83847 0
M  V30 2188 H 212.1 4.8418 3.72024 0
M  V30 2189 H 213.514 5.51891 1.55208 0
M  V30 2190 H 211.911 5.93615 0.87985 0
M  V30 2191 H 212.981 4.84894 -0.0235286 0
M  V30 2192 N 214.325 -0.140222 1.56975 0
M  V30 2193 C 215.736 -0.699596 1.73097 0
M  V30 2194 C 216.087 -1.8134 0.749022 0
M  V30 2195 O 215.212 -2.16241 -0.0828503 0
M  V30 2196 C 215.807 -1.27582 3.1386 0
M  V30 2197 C 214.366 -1.78169 3.31561 0
M  V30 2198 C 213.513 -0.672855 2.69013 0
M  V30 2199 H 216.464 0.0855115 1.58469 0
M  V30 2200 H 216.485 -2.14561 3.14235 0
M  V30 2201 H 215.997 -0.464955 3.85305 0
M  V30 2202 H 214.098 -2.61801 2.65124 0
M  V30 2203 H 214.211 -1.90574 4.39566 0
M  V30 2204 H 212.575 -1.10118 2.29665 0
M  V30 2205 H 213.358 0.126679 3.43066 0
M  V30 2206 N 215.803 -1.52179 -0.40978 0
M  V30 2207 C 217.052 -1.65434 -1.15388 0
M  V30 2208 C 217.365 -0.390056 -1.91671 0
M  V30 2209 O 218.571 -0.402399 -2.68501 0
M  V30 2210 C 217.027 -2.92279 -2.10003 0
M  V30 2211 C 216.635 -4.25813 -1.39239 0
M  V30 2212 C 218.379 -3.14897 -2.84675 0
M  V30 2213 C 216.286 -5.43782 -2.32498 0
M  V30 2214 H 215.216 -0.616267 -0.434432 0
M  V30 2215 H 217.867 -1.78666 -0.418401 0
M  V30 2216 H 216.249 -2.72744 -2.871 0
M  V30 2217 H 217.423 -4.55828 -0.675099 0
M  V30 2218 H 215.738 -4.09292 -0.766097 0
M  V30 2219 H 218.335 -4.0021 -3.54593 0
M  V30 2220 H 218.678 -2.29103 -3.47588 0
M  V30 2221 H 219.211 -3.34901 -2.14677 0
M  V30 2222 H 215.95 -6.3192 -1.74233 0
M  V30 2223 H 215.47 -5.18106 -3.02201 0
M  V30 2224 H 217.149 -5.76834 -2.93038 0
M  V30 2225 N 217.281 0.66697 -1.42791 0
M  V30 2226 C 218.211 1.79218 -1.49677 0
M  V30 2227 C 219.192 1.66405 -0.352623 0
M  V30 2228 O 220.377 1.85708 -0.567993 0
M  V30 2229 C 217.507 3.17565 -1.40605 0
M  V30 2230 C 216.461 3.45124 -2.53127 0
M  V30 2231 C 215.787 4.83127 -2.29112 0
M  V30 2232 C 217.087 3.41236 -3.95418 0
M  V30 2233 H 218.781 1.73713 -2.43853 0
M  V30 2234 H 216.327 0.83432 -1.17367 0
M  V30 2235 H 218.28 3.96022 -1.44029 0
M  V30 2236 H 217.004 3.23767 -0.429271 0
M  V30 2237 H 215.663 2.69031 -2.49034 0
M  V30 2238 H 215.311 4.85988 -1.29709 0
M  V30 2239 H 215.011 5.02528 -3.04531 0
M  V30 2240 H 216.535 5.63859 -2.34297 0
M  V30 2241 H 217.949 4.09651 -4.01073 0
M  V30 2242 H 216.346 3.72173 -4.70752 0
M  V30 2243 H 217.416 2.39665 -4.21532 0
M  V30 2244 N 218.759 1.29093 0.90403 0
M  V30 2245 C 220.175 1.07011 1.1841 0
M  V30 2246 C 220.375 -0.181358 2.00682 0
M  V30 2247 O 219.431 -0.880331 2.36657 0
M  V30 2248 C 220.744 2.32311 1.90924 0
M  V30 2249 C 222.292 2.37587 2.03768 0
M  V30 2250 C 222.767 3.62679 2.79693 0
M  V30 2251 N 224.258 3.63376 2.87249 0
M  V30 2252 C 224.993 4.56848 3.46522 0
M  V30 2253 N 224.489 5.60648 4.06996 0
M  V30 2254 N 226.282 4.44426 3.44154 0
M  V30 2255 H 218.433 2.09412 0.354993 0
M  V30 2256 H 220.696 0.922181 0.219742 0
M  V30 2257 H 220.402 3.23536 1.37905 0
M  V30 2258 H 220.276 2.39483 2.91424 0
M  V30 2259 H 222.663 1.46853 2.55965 0
M  V30 2260 H 222.744 2.34403 1.02415 0
M  V30 2261 H 222.388 4.53762 2.28173 0
M  V30 2262 H 222.318 3.63119 3.81381 0
M  V30 2263 H 224.809 2.88321 2.44293 0
M  V30 2264 H 225.122 6.28101 4.50232 0
M  V30 2265 H 223.467 5.64463 4.05471 0
M  V30 2266 H 226.658 3.62529 2.96126 0
M  V30 2267 H 226.831 5.17457 3.90054 0
M  V30 2268 N 220.237 -1.11381 1.11499 0
M  V30 2269 C 221.462 -1.87475 0.887019 0
M  V30 2270 C 221.887 -1.79639 -0.557796 0
M  V30 2271 O 221.245 -1.15924 -1.39396 0
M  V30 2272 C 221.293 -3.34213 1.35403 0
M  V30 2273 O 220.397 -4.0903 0.526146 0
M  V30 2274 H 219.738 -0.582099 0.319463 0
M  V30 2275 H 222.268 -1.40785 1.48461 0
M  V30 2276 H 222.278 -3.8506 1.34881 0
M  V30 2277 H 220.953 -3.39232 2.40612 0
M  V30 2278 H 219.53 -3.68082 0.597522 0
M  V30 2279 N 221.715 -0.905404 -1.28997 0
M  V30 2280 C 222.992 -0.453513 -1.9027 0
M  V30 2281 C 223.372 1.06721 -1.82137 0
M  V30 2282 O 222.72 1.91159 -1.25182 0
M  V30 2283 C 222.93 -0.974494 -3.35119 0
M  V30 2284 C 224.278 -1.0216 -4.12127 0
M  V30 2285 O 225.302 -0.922557 -3.44046 0
M  V30 2286 O 224.161 -1.17121 -5.33802 0
M  V30 2287 H 221.255 -0.142347 -0.814657 0
M  V30 2288 H 223.801 -0.995642 -1.37423 0
M  V30 2289 H 222.573 -2.01848 -3.35221 0
M  V30 2290 H 222.196 -0.412706 -3.95452 0
M  V30 2291 N 223.193 1.4272 -0.668489 0
M  V30 2292 C 224.47 1.95248 -0.117373 0
M  V30 2293 C 224.85 1.60919 1.36632 0
M  V30 2294 O 224.198 0.902095 2.09939 0
M  V30 2295 C 224.408 3.46927 -0.379806 0
M  V30 2296 C 225.756 4.23588 -0.292923 0
M  V30 2297 O 226.78 3.5482 -0.313204 0
M  V30 2298 O 225.639 5.46017 -0.229697 0
M  V30 2299 H 222.733 0.827 0.00079152 0
M  V30 2300 H 225.279 1.52581 -0.742783 0
M  V30 2301 H 224.051 3.65096 -1.40786 0
M  V30 2302 H 223.674 3.96627 0.277923 0
M  V30 2303 N 224.671 0.411399 1.52136 0
M  V30 2304 C 225.919 -0.163322 2.01439 0
M  V30 2305 C 226.24 -1.45453 1.29879 0
M  V30 2306 O 225.51 -1.91225 0.4254 0
M  V30 2307 H 224.09 -0.0633447 0.744309 0
M  V30 2308 H 226.752 0.548161 1.87033 0
M  V30 2309 H 225.848 -0.357817 3.10042 0
M  V30 2310 N 226.149 -1.5696 0.141893 0
M  V30 2311 C 227.565 -1.58151 -0.21456 0
M  V30 2312 C 227.765 -1.1559 -1.65049 0
M  V30 2313 O 226.821 -0.853832 -2.37626 0
M  V30 2314 C 228.134 -3.00674 0.0395576 0
M  V30 2315 C 229.682 -3.1299 -0.0245529 0
M  V30 2316 C 230.157 -4.57554 0.202167 0
M  V30 2317 N 231.648 -4.62961 0.148919 0
M  V30 2318 C 232.383 -5.7262 0.298924 0
M  V30 2319 N 231.879 -6.90947 0.50637 0
M  V30 2320 N 233.672 -5.61601 0.236886 0
M  V30 2321 H 225.823 -1.8292 1.07953 0
M  V30 2322 H 228.086 -0.846425 0.42693 0
M  V30 2323 H 227.792 -3.36183 1.03315 0
M  V30 2324 H 227.666 -3.70981 -0.682143 0
M  V30 2325 H 230.053 -2.77326 -1.00869 0
M  V30 2326 H 230.134 -2.4518 0.729396 0
M  V30 2327 H 229.778 -4.93922 1.18338 0
M  V30 2328 H 229.708 -5.23484 -0.572044 0
M  V30 2329 H 232.199 -3.77899 -0.00697015 0
M  V30 2330 H 232.512 -7.7038 0.611076 0
M  V30 2331 H 230.857 -6.92878 0.542628 0
M  V30 2332 H 234.048 -4.68039 0.0756209 0
M  V30 2333 H 234.221 -6.47015 0.357227 0
M  V30 2334 N 227.627 0.131896 -1.57047 0
M  V30 2335 C 228.852 0.860418 -1.8871 0
M  V30 2336 C 229.277 1.73251 -0.73251 0
M  V30 2337 O 228.635 1.785 0.317429 0
M  V30 2338 C 228.683 1.68047 -3.19049 0
M  V30 2339 O 227.787 2.7862 -3.04047 0
M  V30 2340 H 227.128 0.238743 -0.619595 0
M  V30 2341 H 229.658 0.118169 -2.04258 0
M  V30 2342 H 229.668 2.07238 -3.51449 0
M  V30 2343 H 228.343 1.04018 -4.02682 0
M  V30 2344 H 226.92 2.42726 -2.83088 0
M  V30 2345 N 229.106 1.52395 0.401703 0
M  V30 2346 C 230.036 1.79231 1.49661 0
M  V30 2347 C 231.017 0.643654 1.57452 0
M  V30 2348 O 232.202 0.889989 1.72606 0
M  V30 2349 C 229.332 1.94971 2.87409 0
M  V30 2350 C 228.286 3.10604 2.94465 0
M  V30 2351 C 227.612 3.11577 4.34538 0
M  V30 2352 C 228.912 4.49921 2.6527 0
M  V30 2353 H 230.606 2.70917 1.27454 0
M  V30 2354 H 228.152 1.30362 0.6117 0
M  V30 2355 H 230.105 2.12328 3.63999 0
M  V30 2356 H 228.829 0.999632 3.10926 0
M  V30 2357 H 227.488 2.93009 2.20321 0
M  V30 2358 H 227.136 2.14277 4.55076 0
M  V30 2359 H 226.836 3.89247 4.40183 0
M  V30 2360 H 228.36 3.31073 5.13053 0
M  V30 2361 H 229.774 4.67683 3.31581 0
M  V30 2362 H 228.171 5.29564 2.82281 0
M  V30 2363 H 229.241 4.57507 1.60671 0
M  V30 2364 N 230.584 -0.659388 1.43143 0
M  V30 2365 C 231.995 -1.24041 1.39537 0
M  V30 2366 C 232.346 -1.95963 0.0963364 0
M  V30 2367 O 231.471 -2.00892 -0.804438 0
M  V30 2368 C 232.066 -2.25601 2.52764 0
M  V30 2369 C 230.625 -2.79195 2.52443 0
M  V30 2370 C 229.772 -1.53743 2.30778 0
M  V30 2371 H 232.723 -0.451792 1.52133 0
M  V30 2372 H 232.744 -3.07651 2.23899 0
M  V30 2373 H 232.256 -1.73226 3.47296 0
M  V30 2374 H 230.357 -3.35649 1.61773 0
M  V30 2375 H 230.47 -3.2716 3.50004 0
M  V30 2376 H 228.834 -1.80869 1.79328 0
M  V30 2377 H 229.617 -1.03312 3.27386 0
M  V30 2378 N 232.062 -1.29571 -0.897171 0
M  V30 2379 C 232.994 -1.10724 -2.00681 0
M  V30 2380 C 234.007 -0.0540026 -1.6271 0
M  V30 2381 O 235.196 -0.298783 -1.75982 0
M  V30 2382 C 232.296 -0.663912 -3.32333 0
M  V30 2383 C 231.469 -1.79622 -3.98816 0
M  V30 2384 C 230.528 -1.34349 -5.0876 0
M  V30 2385 O 229.554 -2.04864 -5.31055 0
M  V30 2386 N 230.756 -0.215764 -5.80099 0
M  V30 2387 H 233.521 -2.06291 -2.17403 0
M  V30 2388 H 231.082 -1.21544 -1.06951 0
M  V30 2389 H 233.074 -0.344295 -4.03233 0
M  V30 2390 H 231.644 0.199375 -3.11964 0
M  V30 2391 H 230.864 -2.28459 -3.21248 0
M  V30 2392 H 232.152 -2.55535 -4.39976 0
M  V30 2393 H 231.55 0.372091 -5.64475 0
M  V30 2394 H 230.107 0.0444707 -6.51785 0
M  V30 2395 N 233.54 1.10788 -1.12088 0
M  V30 2396 C 234.768 1.86461 -0.896651 0
M  V30 2397 C 235.183 1.80492 0.553912 0
M  V30 2398 O 234.54 1.19102 1.38278 0
M  V30 2399 C 234.591 3.35006 -1.35843 0
M  V30 2400 O 234.312 3.40866 -2.75213 0
M  V30 2401 C 235.813 4.27565 -1.1706 0
M  V30 2402 H 233.033 0.589425 -0.320654 0
M  V30 2403 H 235.577 1.40076 -1.48993 0
M  V30 2404 H 233.732 3.7887 -0.808458 0
M  V30 2405 H 234.146 4.33411 -2.9539 0
M  V30 2406 H 235.62 5.30007 -1.54263 0
M  V30 2407 H 236.097 4.3906 -0.110814 0
M  V30 2408 H 236.703 3.89501 -1.70789 0
M  V30 2409 N 235.018 0.912232 1.28515 0
M  V30 2410 C 236.265 0.544599 1.95039 0
M  V30 2411 C 236.593 -0.911435 1.71823 0
M  V30 2412 O 235.848 -1.66317 1.03137 0
M  V30 2413 C 236.147 0.798392 3.48368 0
M  V30 2414 C 235.813 2.23374 3.91682 0
M  V30 2415 C 234.475 2.62617 4.03219 0
M  V30 2416 C 236.827 3.16786 4.13879 0
M  V30 2417 C 234.155 3.94429 4.3433 0
M  V30 2418 C 236.507 4.48161 4.46469 0
M  V30 2419 C 235.171 4.8726 4.56217 0
M  V30 2420 H 234.441 0.199283 0.7137 0
M  V30 2421 H 237.088 1.15327 1.52879 0
M  V30 2422 H 235.393 0.106908 3.91654 0
M  V30 2423 H 237.09 0.493141 3.97956 0
M  V30 2424 H 233.68 1.91922 3.83228 0
M  V30 2425 H 237.864 2.87677 4.0442 0
M  V30 2426 H 233.12 4.24426 4.40082 0
M  V30 2427 H 237.294 5.20559 4.62592 0
M  V30 2428 H 234.921 5.89431 4.80078 0
M  V30 2429 N 236.496 -1.42363 0.676048 0
M  V30 2430 C 237.912 -1.55811 0.345718 0
M  V30 2431 C 238.112 -1.65544 -1.14879 0
M  V30 2432 O 237.168 -1.62306 -1.93424 0
M  V30 2433 C 238.481 -2.80746 1.07713 0
M  V30 2434 C 240.029 -2.9452 1.05958 0
M  V30 2435 C 240.504 -4.22318 1.77233 0
M  V30 2436 N 241.995 -4.29233 1.74108 0
M  V30 2437 C 242.73 -5.26935 2.26113 0
M  V30 2438 N 242.226 -6.30783 2.86505 0
M  V30 2439 N 244.019 -5.18741 2.1648 0
M  V30 2440 H 236.17 -1.34289 1.6456 0
M  V30 2441 H 238.433 -0.646506 0.69335 0
M  V30 2442 H 238.139 -2.79696 2.13221 0
M  V30 2443 H 238.013 -3.71676 0.64316 0
M  V30 2444 H 240.4 -2.95097 0.0128255 0
M  V30 2445 H 240.481 -2.04817 1.53244 0
M  V30 2446 H 240.125 -4.22502 2.81877 0
M  V30 2447 H 240.055 -5.10958 1.27396 0
M  V30 2448 H 242.546 -3.54814 1.30059 0
M  V30 2449 H 242.859 -7.01691 3.23805 0
M  V30 2450 H 241.204 -6.31341 2.90575 0
M  V30 2451 H 244.395 -4.36533 1.68987 0
M  V30 2452 H 244.568 -5.94721 2.57316 0
M  V30 2453 N 237.974 -0.419461 -1.51915 0
M  V30 2454 C 239.222 0.152637 -2.01523 0
M  V30 2455 C 239.543 1.44762 -1.30649 0
M  V30 2456 O 238.813 1.90997 -0.435535 0
M  V30 2457 H 237.393 0.0593966 -0.744635 0
M  V30 2458 H 240.055 -0.558073 -1.86739 0
M  V30 2459 H 239.151 0.341369 -3.10227 0
M  V30 2460 N 239.452 1.56882 -0.150215 0
M  V30 2461 C 240.7 1.9584 0.499105 0
M  V30 2462 C 241.021 1.03623 1.65188 0
M  V30 2463 O 240.291 0.0984084 1.95653 0
M  V30 2464 H 238.871 0.723119 0.187373 0
M  V30 2465 H 241.533 1.9358 -0.226466 0
M  V30 2466 H 240.629 2.99638 0.873122 0
M  V30 2467 N 240.93 -0.123565 1.57115 0
M  V30 2468 C 241.862 -1.17739 1.96648 0
M  V30 2469 C 242.875 -1.37906 0.865201 0
M  V30 2470 O 244.064 -1.37062 1.14351 0
M  V30 2471 C 241.164 -2.53821 2.24562 0
M  V30 2472 C 240.337 -2.54317 3.55867 0
M  V30 2473 C 239.396 -3.72112 3.72047 0
M  V30 2474 O 238.422 -3.55907 4.44206 0
M  V30 2475 N 239.624 -4.90498 3.10471 0
M  V30 2476 H 242.389 -0.841147 2.87654 0
M  V30 2477 H 239.95 -0.31289 1.58848 0
M  V30 2478 H 241.942 -3.31175 2.32606 0
M  V30 2479 H 240.512 -2.79645 1.39705 0
M  V30 2480 H 239.732 -1.62711 3.59053 0
M  V30 2481 H 241.02 -2.51701 4.42181 0
M  V30 2482 H 240.418 -5.06567 2.51806 0
M  V30 2483 H 238.975 -5.65544 3.24043 0
M  V30 2484 N 242.408 -1.52605 -0.393616 0
M  V30 2485 C 243.657 -1.66649 -1.13627 0
M  V30 2486 C 243.97 -0.410364 -1.91247 0
M  V30 2487 O 245.176 -0.430854 -2.68059 0
M  V30 2488 C 243.632 -2.9449 -2.06891 0
M  V30 2489 C 243.24 -4.27266 -1.34714 0
M  V30 2490 C 244.984 -3.17899 -2.81319 0
M  V30 2491 C 242.891 -5.46217 -2.26717 0
M  V30 2492 H 241.821 -0.62084 -0.427871 0
M  V30 2493 H 244.472 -1.791 -0.399428 0
M  V30 2494 H 242.854 -2.75774 -2.84191 0
M  V30 2495 H 244.028 -4.56518 -0.626714 0
M  V30 2496 H 242.343 -4.10081 -0.722643 0
M  V30 2497 H 244.94 -4.03949 -3.50328 0
M  V30 2498 H 245.283 -2.32777 -3.45139 0
M  V30 2499 H 245.816 -3.37159 -2.11113 0
M  V30 2500 H 242.555 -6.33733 -1.67521 0
M  V30 2501 H 242.075 -5.21283 -2.96689 0
M  V30 2502 H 243.754 -5.7991 -2.86903 0
M  V30 2503 N 243.887 0.651787 -1.4349 0
M  V30 2504 C 245.115 1.43937 -1.48626 0
M  V30 2505 C 245.53 1.8851 -0.104587 0
M  V30 2506 O 244.887 1.5958 0.885464 0
M  V30 2507 C 244.938 2.6734 -2.43334 0
M  V30 2508 O 244.659 2.24631 -3.76128 0
M  V30 2509 C 246.16 3.60683 -2.57726 0
M  V30 2510 H 243.38 0.44213 -0.504739 0
M  V30 2511 H 245.924 0.798944 -1.88248 0
M  V30 2512 H 244.079 3.2752 -2.06904 0
M  V30 2513 H 244.493 3.04485 -4.2707 0
M  V30 2514 H 245.967 4.43933 -3.28067 0
M  V30 2515 H 246.444 4.08126 -1.62265 0
M  V30 2516 H 247.05 3.06384 -2.94973 0
M  V30 2517 N 245.365 1.30045 0.890287 0
M  V30 2518 C 246.59 1.21598 1.68014 0
M  V30 2519 C 247.015 -0.218678 1.86825 0
M  V30 2520 O 246.373 -1.15756 1.39536 0
M  V30 2521 C 246.421 1.94434 3.03691 0
M  V30 2522 O 245.525 1.2678 3.92429 0
M  V30 2523 H 244.866 0.420856 0.513592 0
M  V30 2524 H 247.396 1.71775 1.11151 0
M  V30 2525 H 247.406 2.03251 3.5377 0
M  V30 2526 H 246.081 2.98777 2.89318 0
M  V30 2527 H 244.658 1.26282 3.50866 0
M  V30 2528 N 246.843 -1.10192 1.12674 0
M  V30 2529 C 247.79 -2.16606 0.796906 0
M  V30 2530 C 248.76 -1.64394 -0.237476 0
M  V30 2531 O 249.945 -1.90474 -0.111484 0
M  V30 2532 C 247.085 -3.44116 0.26043 0
M  V30 2533 C 246.198 -4.10268 1.35293 0
M  V30 2534 C 245.333 -5.25507 0.775621 0
M  V30 2535 C 244.372 -5.83567 1.84706 0
M  V30 2536 N 243.509 -6.90179 1.28829 0
M  V30 2537 H 248.349 -2.44163 1.70846 0
M  V30 2538 H 245.886 -1.19846 0.85295 0
M  V30 2539 H 247.844 -4.17143 -0.0686814 0
M  V30 2540 H 246.474 -3.16901 -0.614274 0
M  V30 2541 H 245.526 -3.35184 1.79877 0
M  V30 2542 H 246.838 -4.4946 2.16303 0
M  V30 2543 H 245.992 -6.05398 0.397327 0
M  V30 2544 H 244.731 -4.87656 -0.0656581 0
M  V30 2545 H 243.736 -5.02344 2.23452 0
M  V30 2546 H 244.961 -6.23482 2.69161 0
M  V30 2547 H 242.907 -6.54322 0.468881 0
M  V30 2548 H 242.824 -7.28097 2.03497 0
M  V30 2549 H 244.092 -7.73844 0.937311 0
M  V30 2550 N 248.321 -0.919034 -1.28029 0
M  V30 2551 C 249.231 -0.416756 -2.30869 0
M  V30 2552 C 250.247 0.498235 -1.66714 0
M  V30 2553 O 251.423 0.383144 -1.97722 0
M  V30 2554 C 248.488 0.330274 -3.45123 0
M  V30 2555 C 247.549 -0.618578 -4.2482 0
M  V30 2556 C 246.782 0.0928959 -5.33619 0
M  V30 2557 O 247.005 1.31375 -5.55065 0
M  V30 2558 O 245.939 -0.574499 -5.99152 0
M  V30 2559 H 249.765 -1.27043 -2.75851 0
M  V30 2560 H 247.35 -0.684052 -1.3282 0
M  V30 2561 H 249.232 0.751972 -4.14636 0
M  V30 2562 H 247.907 1.1597 -3.02213 0
M  V30 2563 H 246.814 -1.08978 -3.57875 0
M  V30 2564 H 248.147 -1.41497 -4.71423 0
M  V30 2565 N 249.799 1.42003 -0.683588 0
M  V30 2566 C 251.048 2.00638 -0.206681 0
M  V30 2567 C 251.361 1.5472 1.19671 0
M  V30 2568 O 252.567 2.05833 1.77045 0
M  V30 2569 C 251.023 3.58487 -0.318632 0
M  V30 2570 C 250.631 4.1339 -1.72663 0
M  V30 2571 C 252.375 4.24384 0.0991141 0
M  V30 2572 C 250.282 5.63633 -1.79087 0
M  V30 2573 H 249.212 0.750408 -0.0735107 0
M  V30 2574 H 251.863 1.62624 -0.850048 0
M  V30 2575 H 250.245 3.94047 0.392781 0
M  V30 2576 H 251.419 3.89273 -2.46583 0
M  V30 2577 H 249.734 3.59976 -2.09299 0
M  V30 2578 H 252.331 5.34652 0.0713833 0
M  V30 2579 H 252.674 4.00505 1.13586 0
M  V30 2580 H 253.207 3.93816 -0.561599 0
M  V30 2581 H 249.946 5.92323 -2.80774 0
M  V30 2582 H 249.466 5.89714 -1.09535 0
M  V30 2583 H 251.145 6.28201 -1.5483 0
M  V30 2584 N 251.277 0.427512 1.51691 0
M  V30 2585 C 252.24 -0.377132 2.26076 0
M  V30 2586 C 253.24 -0.958089 1.29141 0
M  V30 2587 O 254.43 -0.83408 1.52934 0
M  V30 2588 C 251.562 -1.53262 3.04506 0
M  V30 2589 H 252.755 0.27464 2.9864 0
M  V30 2590 H 250.308 0.180445 1.55255 0
M  V30 2591 H 251.043 -2.22072 2.36335 0
M  V30 2592 H 250.828 -1.12232 3.75694 0
M  V30 2593 H 252.318 -2.10135 3.60878 0
M  V30 2594 N 252.755 -1.56801 0.158532 0
M  V30 2595 C 254.003 -1.96102 -0.488712 0
M  V30 2596 C 254.324 -1.04498 -1.64636 0
M  V30 2597 O 253.594 -0.108783 -1.95598 0
M  V30 2598 H 252.174 -0.724102 -0.183535 0
M  V30 2599 H 254.836 -1.93457 0.236728 0
M  V30 2600 H 253.932 -3.00097 -0.857219 0
M  V30 2601 N 254.233 0.115231 -1.57178 0
M  V30 2602 C 255.163 1.1423 -2.03651 0
M  V30 2603 C 256.144 1.42967 -0.921655 0
M  V30 2604 O 257.329 1.53343 -1.19162 0
M  V30 2605 C 254.459 2.4675 -2.44401 0
M  V30 2606 C 253.413 2.32467 -3.59365 0
M  V30 2607 C 252.739 3.69984 -3.86026 0
M  V30 2608 C 254.039 1.78203 -4.90959 0
M  V30 2609 H 255.733 0.755749 -2.89705 0
M  V30 2610 H 253.279 0.362093 -1.39373 0
M  V30 2611 H 255.232 3.18854 -2.75517 0
M  V30 2612 H 253.956 2.87302 -1.55322 0
M  V30 2613 H 252.615 1.62811 -3.28463 0
M  V30 2614 H 252.263 4.08028 -2.94147 0
M  V30 2615 H 251.963 3.61279 -4.63412 0
M  V30 2616 H 253.487 4.43587 -4.19599 0
M  V30 2617 H 254.901 2.40128 -5.20587 0
M  V30 2618 H 253.298 1.8031 -5.72371 0
M  V30 2619 H 254.368 0.739876 -4.79222 0
M  V30 2620 N 255.711 1.52812 0.385517 0
M  V30 2621 C 256.939 1.71907 1.15133 0
M  V30 2622 C 257.354 0.439004 1.83625 0
M  V30 2623 O 256.711 -0.586765 1.7281 0
M  V30 2624 C 256.762 2.87099 2.19673 0
M  V30 2625 O 256.483 4.10151 1.53973 0
M  V30 2626 C 257.984 3.17902 3.08955 0
M  V30 2627 H 255.204 0.575479 0.345057 0
M  V30 2628 H 257.748 1.99476 0.45052 0
M  V30 2629 H 255.903 2.61982 2.85384 0
M  V30 2630 H 256.317 4.74514 2.23465 0
M  V30 2631 H 257.791 4.01959 3.7833 0
M  V30 2632 H 258.268 2.3243 3.72657 0
M  V30 2633 H 258.874 3.44871 2.48885 0
M  V30 2634 N 257.189 -0.644168 1.43834 0
M  V30 2635 C 258.119 -1.76814 1.52509 0
M  V30 2636 C 259.1 -1.65823 0.379052 0
M  V30 2637 O 260.285 -1.84781 0.597466 0
M  V30 2638 C 257.415 -3.15288 1.4564 0
M  V30 2639 C 256.369 -3.41053 2.58586 0
M  V30 2640 C 255.695 -4.79421 2.36769 0
M  V30 2641 C 256.995 -3.34902 4.00797 0
M  V30 2642 H 258.689 -1.69812 2.46586 0
M  V30 2643 H 256.235 -0.815542 1.1868 0
M  V30 2644 H 258.188 -3.93681 1.50311 0
M  V30 2645 H 256.912 -3.23043 0.480725 0
M  V30 2646 H 255.571 -2.65035 2.53282 0
M  V30 2647 H 255.219 -4.83863 1.37424 0
M  V30 2648 H 254.919 -4.9762 3.12487 0
M  V30 2649 H 256.443 -5.6006 2.43238 0
M  V30 2650 H 257.857 -4.03218 4.07539 0
M  V30 2651 H 256.254 -3.64637 4.76613 0
M  V30 2652 H 257.324 -2.32928 4.25291 0
M  V30 2653 N 258.668 -1.30515 -0.883378 0
M  V30 2654 C 259.898 -1.22182 -1.66599 0
M  V30 2655 C 260.306 0.217507 -1.87946 0
M  V30 2656 O 259.649 1.1554 -1.42815 0
M  V30 2657 C 259.711 -1.88146 -3.06335 0
M  V30 2658 C 259.375 -3.37476 -3.08154 0
M  V30 2659 C 260.372 -4.33443 -2.87094 0
M  V30 2660 C 258.057 -3.7895 -3.29701 0
M  V30 2661 C 260.051 -5.68858 -2.8754 0
M  V30 2662 C 257.738 -5.14482 -3.29776 0
M  V30 2663 C 258.736 -6.09246 -3.0872 0
M  V30 2664 O 258.424 -7.42302 -3.08615 0
M  V30 2665 H 258.156 -0.423898 -0.52658 0
M  V30 2666 H 260.71 -1.72703 -1.11188 0
M  V30 2667 H 258.94 -1.32157 -3.63416 0
M  V30 2668 H 260.629 -1.7391 -3.66756 0
M  V30 2669 H 261.395 -4.02733 -2.70243 0
M  V30 2670 H 257.274 -3.05631 -3.45124 0
M  V30 2671 H 260.818 -6.428 -2.71024 0
M  V30 2672 H 256.715 -5.44832 -3.46163 0
M  V30 2673 H 257.483 -7.5131 -3.24769 0
M  V30 2674 N 260.146 1.09593 -1.13257 0
M  V30 2675 C 261.394 1.81375 -0.891492 0
M  V30 2676 C 261.715 1.86049 0.584009 0
M  V30 2677 O 260.985 1.34481 1.42449 0
M  V30 2678 H 259.565 0.671708 -0.326828 0
M  V30 2679 H 262.227 1.3256 -1.42877 0
M  V30 2680 H 261.323 2.84612 -1.28071 0
M  V30 2681 N 261.624 0.925811 1.2754 0
M  V30 2682 C 262.872 0.564138 1.94067 0
M  V30 2683 C 263.193 -0.897188 1.73134 0
M  V30 2684 O 262.463 -1.63573 1.07799 0
M  V30 2685 H 261.043 0.205645 0.718136 0
M  V30 2686 H 263.705 1.1778 1.55287 0
M  V30 2687 H 262.801 0.76881 3.02483 0
M  V30 2688 N 263.102 -1.41638 0.69111 0
M  V30 2689 C 264.034 -2.29194 -0.0161523 0
M  V30 2690 C 265.047 -1.44549 -0.748955 0
M  V30 2691 O 266.236 -1.681 -0.6004 0
M  V30 2692 C 263.336 -3.22325 -1.0469 0
M  V30 2693 C 262.509 -4.35706 -0.384621 0
M  V30 2694 C 261.568 -5.09443 -1.31737 0
M  V30 2695 O 260.594 -5.63386 -0.811451 0
M  V30 2696 N 261.796 -5.16487 -2.64993 0
M  V30 2697 H 264.561 -2.90534 0.735523 0
M  V30 2698 H 262.122 -1.52742 0.53679 0
M  V30 2699 H 264.114 -3.68522 -1.67252 0
M  V30 2700 H 262.684 -2.62323 -1.70015 0
M  V30 2701 H 261.904 -3.91948 0.420804 0
M  V30 2702 H 263.192 -5.08743 0.0760765 0
M  V30 2703 H 262.59 -4.741 -3.08619 0
M  V30 2704 H 261.147 -5.66276 -3.22761 0
M  V30 2705 N 264.58 -0.43555 -1.51462 0
M  V30 2706 C 265.827 0.131514 -2.02072 0
M  V30 2707 C 266.155 1.42868 -1.31981 0
M  V30 2708 O 265.41 1.91076 -0.422883 0
M  V30 2709 C 265.709 0.39942 -3.55161 0
M  V30 2710 C 265.375 -0.81172 -4.43533 0
M  V30 2711 C 264.037 -1.14387 -4.67407 0
M  V30 2712 C 266.389 -1.61976 -4.95392 0
M  V30 2713 C 263.717 -2.28477 -5.40384 0
M  V30 2714 C 266.069 -2.75164 -5.6962 0
M  V30 2715 C 264.733 -3.08835 -5.91758 0
M  V30 2716 H 264.003 0.0481244 -0.739436 0
M  V30 2717 H 266.65 -0.58238 -1.8243 0
M  V30 2718 H 264.955 1.19519 -3.73125 0
M  V30 2719 H 266.652 0.85157 -3.91854 0
M  V30 2720 H 263.242 -0.542898 -4.25148 0
M  V30 2721 H 267.426 -1.37637 -4.76833 0
M  V30 2722 H 262.682 -2.5488 -5.55739 0
M  V30 2723 H 266.856 -3.38147 -6.08793 0
M  V30 2724 H 264.483 -3.97353 -6.48086 0
M  V30 2725 N 266.058 1.56714 -0.166846 0
M  V30 2726 C 267.474 1.58473 0.189372 0
M  V30 2727 C 267.674 1.18201 1.63189 0
M  V30 2728 O 266.73 0.891528 2.36237 0
M  V30 2729 C 268.043 3.00573 -0.0873872 0
M  V30 2730 C 269.591 3.1299 -0.0252443 0
M  V30 2731 C 270.066 4.57174 -0.274934 0
M  V30 2732 N 271.557 4.62665 -0.222553 0
M  V30 2733 C 272.292 5.72072 -0.389985 0
M  V30 2734 N 271.788 6.90054 -0.616229 0
M  V30 2735 N 273.581 5.61153 -0.326202 0
M  V30 2736 H 265.732 1.8118 -1.10849 0
M  V30 2737 H 267.995 0.839525 -0.440342 0
M  V30 2738 H 267.701 3.34497 -1.0865 0
M  V30 2739 H 267.575 3.72019 0.623037 0
M  V30 2740 H 269.962 2.78895 0.96444 0
M  V30 2741 H 270.043 2.43989 -0.768309 0
M  V30 2742 H 269.687 4.91976 -1.26181 0
M  V30 2743 H 269.617 5.24328 0.48869 0
M  V30 2744 H 272.108 3.77863 -0.0531512 0
M  V30 2745 H 272.421 7.69311 -0.733559 0
M  V30 2746 H 270.766 6.91927 -0.652791 0
M  V30 2747 H 273.957 4.67859 -0.150072 0
M  V30 2748 H 274.13 6.46364 -0.460116 0
M  V30 2749 N 267.536 -0.106894 1.57237 0
M  V30 2750 C 268.499 -1.11466 2.0027 0
M  V30 2751 C 269.499 -1.33623 0.894519 0
M  V30 2752 O 270.689 -1.29935 1.16028 0
M  V30 2753 C 267.821 -2.46646 2.35327 0
M  V30 2754 H 269.014 -0.744516 2.90512 0
M  V30 2755 H 266.567 -0.351576 1.52295 0
M  V30 2756 H 267.302 -2.88558 1.48003 0
M  V30 2757 H 267.087 -2.31915 3.16161 0
M  V30 2758 H 268.577 -3.19151 2.69318 0
M  V30 2759 N 269.014 -1.53014 -0.377408 0
M  V30 2760 C 269.962 -1.7927 -1.48206 0
M  V30 2761 C 270.956 -0.661195 -1.55963 0
M  V30 2762 O 272.162 -0.843908 -1.58991 0
M  V30 2763 H 268.537 -0.567425 -0.493491 0
M  V30 2764 H 270.508 -2.71753 -1.2326 0
M  V30 2765 C 269.257 -1.98894 -2.85196 0
M  V30 2766 H 268.58 -2.85395 -2.79981 0
M  V30 2767 H 270.02 -2.21249 -3.61698 0
M  V30 2768 C 268.479 -0.764691 -3.28107 0
M  V30 2769 O 269.009 0.0523226 -4.01666 0
M  V30 2770 N 267.215 -0.591493 -2.84517 0
M  V30 2771 H 266.762 -1.25749 -2.24822 0
M  V30 2772 H 266.72 0.226253 -3.13585 0
M  V30 2773 N 270.492 0.636531 -1.44174 0
M  V30 2774 C 271.717 1.42847 -1.50364 0
M  V30 2775 C 272.142 1.87665 -0.127867 0
M  V30 2776 O 271.5 1.58408 0.88185 0
M  V30 2777 C 271.548 2.62854 -2.4686 0
M  V30 2778 O 270.652 3.62501 -1.9664 0
M  V30 2779 H 269.993 0.427642 -0.507955 0
M  V30 2780 H 272.523 0.777422 -1.89255 0
M  V30 2781 H 272.533 3.10465 -2.64718 0
M  V30 2782 H 271.208 2.29578 -3.46795 0
M  V30 2783 H 269.785 3.21735 -1.88523 0
M  V30 2784 N 271.97 1.30982 0.876444 0
M  V30 2785 C 273.381 1.18277 1.44456 0
M  V30 2786 C 273.732 -0.213265 1.95037 0
M  V30 2787 O 272.857 -1.11057 1.85729 0
M  V30 2788 C 273.452 2.1411 2.62569 0
M  V30 2789 C 272.011 2.05358 3.15444 0
M  V30 2790 C 271.158 2.03706 1.88146 0
M  V30 2791 H 274.109 1.43127 0.685584 0
M  V30 2792 H 274.13 1.72692 3.39054 0
M  V30 2793 H 273.642 3.15706 2.25724 0
M  V30 2794 H 271.743 1.06934 3.56926 0
M  V30 2795 H 271.856 2.94156 3.78166 0
M  V30 2796 H 270.22 1.48629 2.06837 0
M  V30 2797 H 271.003 3.07047 1.53547 0
M  V30 2798 N 273.449 -1.08991 1.13837 0
M  V30 2799 C 274.865 -1.33312 0.877506 0
M  V30 2800 C 275.065 -1.95587 -0.48456 0
M  V30 2801 O 274.121 -2.20509 -1.23013 0
M  V30 2802 C 275.434 -2.24045 2.0056 0
M  V30 2803 C 276.982 -2.37542 2.03821 0
M  V30 2804 C 277.457 -3.31614 3.15905 0
M  V30 2805 N 278.948 -3.39189 3.15445 0
M  V30 2806 C 279.683 -4.11992 3.98811 0
M  V30 2807 N 279.179 -4.87553 4.92203 0
M  V30 2808 N 280.972 -4.07762 3.86894 0
M  V30 2809 H 273.123 -0.669456 2.01574 0
M  V30 2810 H 275.386 -0.357482 0.878015 0
M  V30 2811 H 275.092 -1.85521 2.98789 0
M  V30 2812 H 274.966 -3.24466 1.92359 0
M  V30 2813 H 277.353 -2.75327 1.06202 0
M  V30 2814 H 277.434 -1.36884 2.16093 0
M  V30 2815 H 277.078 -2.94551 4.13766 0
M  V30 2816 H 277.008 -4.32186 3.0087 0
M  V30 2817 H 279.499 -2.85314 2.47799 0
M  V30 2818 H 279.812 -5.40549 5.52292 0
M  V30 2819 H 278.157 -4.86627 4.96205 0
M  V30 2820 H 281.348 -3.47833 3.13257 0
M  V30 2821 H 281.521 -4.64238 4.52092 0
M  V30 2822 N 274.927 -0.932562 -1.27047 0
M  V30 2823 C 276.204 -0.49377 -1.89265 0
M  V30 2824 C 276.584 1.02833 -1.8436 0
M  V30 2825 O 275.932 1.88461 -1.29209 0
M  V30 2826 C 276.142 -1.04536 -3.32976 0
M  V30 2827 C 277.49 -1.10879 -4.09867 0
M  V30 2828 O 278.514 -0.995327 -3.42011 0
M  V30 2829 O 277.373 -1.28417 -5.31198 0
M  V30 2830 H 274.467 -0.159596 -0.811454 0
M  V30 2831 H 277.013 -1.02457 -1.3528 0
M  V30 2832 H 275.785 -2.08913 -3.30864 0
M  V30 2833 H 275.408 -0.496494 -3.94488 0
M  V30 2834 N 276.405 1.4127 -0.698611 0
M  V30 2835 C 277.682 1.94955 -0.158762 0
M  V30 2836 C 278.062 1.63781 1.33188 0
M  V30 2837 O 277.41 0.946423 2.07979 0
M  V30 2838 C 277.62 3.46044 -0.453309 0
M  V30 2839 C 278.968 4.22872 -0.382707 0
M  V30 2840 O 279.992 3.54076 -0.388396 0
M  V30 2841 O 278.851 5.45407 -0.345463 0
M  V30 2842 H 275.945 0.82683 -0.0167505 0
M  V30 2843 H 278.491 1.50971 -0.77498 0
M  V30 2844 H 277.263 3.62028 -1.48498 0
M  V30 2845 H 276.886 3.97128 0.19373 0
M  V30 2846 N 277.883 0.443576 1.51229 0
M  V30 2847 C 279.108 -0.121648 2.07043 0
M  V30 2848 C 279.533 -1.35156 1.30823 0
M  V30 2849 O 278.891 -1.7793 0.347934 0
M  V30 2850 C 278.939 -0.41624 3.5819 0
M  V30 2851 O 278.043 -1.50163 3.8409 0
M  V30 2852 H 277.384 0.000871367 0.663999 0
M  V30 2853 H 279.914 0.626706 1.94765 0
M  V30 2854 H 279.924 -0.664867 4.02546 0
M  V30 2855 H 278.599 0.482653 4.1309 0
M  V30 2856 H 277.176 -1.24248 3.51592 0
M  V30 2857 N 279.361 -1.56624 0.175154 0
M  V30 2858 C 280.586 -2.01813 -0.478137 0
M  V30 2859 C 281.011 -1.05457 -1.55757 0
M  V30 2860 O 280.369 -0.0347439 -1.81267 0
M  V30 2861 C 280.417 -3.45581 -1.02987 0
M  V30 2862 O 279.521 -3.52305 -2.14371 0
M  V30 2863 H 278.862 -0.65413 -0.114059 0
M  V30 2864 H 281.392 -2.02673 0.280173 0
M  V30 2865 H 281.402 -3.84965 -1.35151 0
M  V30 2866 H 280.077 -4.1521 -0.239556 0
M  V30 2867 H 278.654 -3.24783 -1.83222 0
M  V30 2868 N 280.839 0.0985539 -1.57292 0
M  V30 2869 C 281.772 1.15082 -1.97057 0
M  V30 2870 C 282.75 1.39025 -0.843255 0
M  V30 2871 O 283.934 1.52842 -1.10325 0
M  V30 2872 C 281.061 2.50069 -2.28437 0
M  V30 2873 C 280.107 2.42428 -3.509 0
M  V30 2874 S 280.94 1.84414 -5.02744 0
M  V30 2875 C 282.096 3.21032 -5.37298 0
M  V30 2876 H 282.329 0.811815 -2.86002 0
M  V30 2877 H 279.862 0.306102 -1.51335 0
M  V30 2878 H 281.82 3.27729 -2.47192 0
M  V30 2879 H 280.481 2.8114 -1.40069 0
M  V30 2880 H 279.674 3.41911 -3.70288 0
M  V30 2881 H 279.276 1.72896 -3.31637 0
M  V30 2882 H 281.568 4.17297 -5.33731 0
M  V30 2883 H 282.511 3.06452 -6.38352 0
M  V30 2884 H 282.919 3.20404 -4.64759 0
M  V30 2885 N 282.317 1.53212 0.369288 0
M  V30 2886 C 283.542 1.73423 1.1375 0
M  V30 2887 C 283.967 0.460404 1.82378 0
M  V30 2888 O 283.325 -0.585298 1.71592 0
M  V30 2889 C 283.373 2.89769 2.1463 0
M  V30 2890 O 282.477 2.58119 3.21634 0
M  V30 2891 H 281.818 0.576061 0.330227 0
M  V30 2892 H 284.348 2.00083 0.427547 0
M  V30 2893 H 284.358 3.15829 2.58294 0
M  V30 2894 H 283.033 3.8217 1.64071 0
M  V30 2895 H 281.61 2.42864 2.82969 0
M  V30 2896 N 283.795 -0.628877 1.44509 0
M  V30 2897 C 285.072 -1.38733 1.37886 0
M  V30 2898 C 285.452 -2.11065 0.0387008 0
M  V30 2899 O 284.8 -2.06476 -0.97878 0
M  V30 2900 C 285.01 -2.35188 2.57852 0
M  V30 2901 C 286.358 -2.9845 3.02014 0
M  V30 2902 O 287.382 -2.45513 2.58073 0
M  V30 2903 O 286.241 -3.94487 3.78209 0
M  V30 2904 H 283.335 -0.621015 0.54614 0
M  V30 2905 H 285.881 -0.653744 1.56602 0
M  V30 2906 H 284.653 -1.80855 3.46998 0
M  V30 2907 H 284.276 -3.1596 2.4136 0
M  V30 2908 N 285.273 -1.31445 -0.869486 0
M  V30 2909 C 286.206 -1.13465 -1.97992 0
M  V30 2910 C 287.184 -0.0380291 -1.62556 0
M  V30 2911 O 288.368 -0.194544 -1.87493 0
M  V30 2912 C 285.495 -0.733822 -3.30655 0
M  V30 2913 C 284.541 -1.83356 -3.85075 0
M  V30 2914 S 285.374 -3.43909 -4.10472 0
M  V30 2915 C 286.53 -3.05763 -5.46132 0
M  V30 2916 H 286.763 -2.07471 -2.1294 0
M  V30 2917 H 284.296 -1.15936 -1.01972 0
M  V30 2918 H 286.254 -0.509306 -4.07328 0
M  V30 2919 H 284.915 0.187123 -3.13542 0
M  V30 2920 H 284.108 -1.50574 -4.80982 0
M  V30 2921 H 283.71 -2.01315 -3.15195 0
M  V30 2922 H 286.002 -2.54686 -6.27807 0
M  V30 2923 H 286.945 -4.00635 -5.83864 0
M  V30 2924 H 287.353 -2.43192 -5.09429 0
M  V30 2925 N 286.751 1.08385 -1.14413 0
M  V30 2926 C 287.976 1.85057 -0.936413 0
M  V30 2927 C 288.401 1.81055 0.509971 0
M  V30 2928 O 287.759 1.1958 1.36273 0
M  V30 2929 C 287.807 3.30505 -1.44217 0
M  V30 2930 O 286.911 4.07491 -0.634409 0
M  V30 2931 H 286.252 0.573425 -0.334784 0
M  V30 2932 H 288.782 1.36799 -1.52142 0
M  V30 2933 H 288.792 3.81348 -1.45043 0
M  V30 2934 H 287.467 3.32734 -2.49522 0
M  V30 2935 H 286.044 3.66368 -0.694902 0
M  V30 2936 N 288.23 0.939286 1.26551 0
M  V30 2937 C 289.163 0.391702 2.24813 0
M  V30 2938 C 290.141 -0.518421 1.54114 0
M  V30 2939 O 291.325 -0.456299 1.82894 0
M  V30 2940 C 288.452 -0.437382 3.35864 0
M  V30 2941 C 287.498 0.410946 4.24516 0
M  V30 2942 S 288.331 1.83372 5.03125 0
M  V30 2943 C 289.487 1.01264 6.17654 0
M  V30 2944 H 289.72 1.22448 2.70913 0
M  V30 2945 H 287.253 0.742269 1.35387 0
M  V30 2946 H 289.211 -0.909837 4.0029 0
M  V30 2947 H 287.872 -1.24482 2.8838 0
M  V30 2948 H 287.065 -0.224191 5.03501 0
M  V30 2949 H 286.667 0.818014 3.64945 0
M  V30 2950 H 288.959 0.254023 6.77024 0
M  V30 2951 H 289.902 1.77589 6.85469 0
M  V30 2952 H 290.31 0.549532 5.61819 0
M  V30 2953 N 289.708 -1.40897 0.706093 0
M  V30 2954 C 290.955 -2.01054 0.241531 0
M  V30 2955 C 291.283 -1.55956 -1.16223 0
M  V30 2956 O 290.538 -0.766336 -1.80072 0
M  V30 2957 C 290.837 -3.5646 0.259099 0
M  V30 2958 C 290.503 -4.21106 1.61184 0
M  V30 2959 C 289.165 -4.38479 1.98216 0
M  V30 2960 C 291.517 -4.57256 2.50132 0
M  V30 2961 C 288.845 -4.89282 3.2376 0
M  V30 2962 C 291.197 -5.09454 3.7502 0
M  V30 2963 C 289.861 -5.25037 4.12181 0
M  V30 2964 H 289.131 -0.73571 0.0883825 0
M  V30 2965 H 291.778 -1.68645 0.907257 0
M  V30 2966 H 290.083 -3.88721 -0.490189 0
M  V30 2967 H 291.78 -4.00826 -0.11804 0
M  V30 2968 H 288.37 -4.07966 1.31384 0
M  V30 2969 H 292.554 -4.43479 2.228 0
M  V30 2970 H 287.81 -4.99531 3.52532 0
M  V30 2971 H 291.984 -5.36404 4.44121 0
M  V30 2972 H 289.611 -5.64164 5.09532 0
M  V30 2973 N 291.186 -0.45159 -1.50991 0
M  V30 2974 C 292.434 0.109857 -2.01801 0
M  V30 2975 C 292.755 1.41958 -1.3369 0
M  V30 2976 O 292.025 1.9003 -0.475951 0
M  V30 2977 H 290.605 0.0435884 -0.745727 0
M  V30 2978 H 293.267 -0.597557 -1.85514 0
M  V30 2979 H 292.363 0.275489 -3.10882 0
M  V30 2980 N 292.664 1.56529 -0.183458 0
M  V30 2981 C 293.611 2.18546 0.742055 0
M  V30 2982 C 294.581 1.12912 1.2182 0
M  V30 2983 O 295.766 1.41115 1.28418 0
M  V30 2984 C 292.906 2.83977 1.96089 0
M  V30 2985 C 292.019 4.04105 1.52719 0
M  V30 2986 C 291.154 4.57427 2.70063 0
M  V30 2987 C 290.193 5.69938 2.23243 0
M  V30 2988 N 289.33 6.17717 3.33722 0
M  V30 2989 H 294.17 2.97284 0.206432 0
M  V30 2990 H 291.707 1.46823 0.0901571 0
M  V30 2991 H 293.665 3.20077 2.67594 0
M  V30 2992 H 292.295 2.07822 2.47002 0
M  V30 2993 H 291.347 3.73745 0.708436 0
M  V30 2994 H 292.659 4.85513 1.1436 0
M  V30 2995 H 291.813 4.95772 3.49708 0
M  V30 2996 H 290.552 3.75101 3.11689 0
M  V30 2997 H 289.557 5.31133 1.42048 0
M  V30 2998 H 290.782 6.54073 1.82661 0
M  V30 2999 H 288.728 5.38317 3.74902 0
M  V30 3000 H 288.645 6.94146 2.99495 0
M  V30 3001 H 289.913 6.60713 4.13616 0
M  V30 3002 N 294.142 -0.090211 1.57342 0
M  V30 3003 C 295.105 -1.09335 2.01441 0
M  V30 3004 C 296.105 -1.32666 0.908641 0
M  V30 3005 O 297.295 -1.28697 1.174 0
M  V30 3006 C 294.427 -2.44136 2.3793 0
M  V30 3007 H 295.62 -0.713662 2.91285 0
M  V30 3008 H 293.173 -0.335404 1.52659 0
M  V30 3009 H 293.908 -2.86972 1.51055 0
M  V30 3010 H 293.693 -2.28548 3.18603 0
M  V30 3011 H 295.183 -3.16277 2.72688 0
M  V30 3012 N 295.62 -1.53406 -0.361157 0
M  V30 3013 C 296.583 -1.79479 -1.42548 0
M  V30 3014 C 297.583 -0.665327 -1.4639 0
M  V30 3015 O 298.773 -0.933549 -1.47073 0
M  V30 3016 C 295.905 -1.92087 -2.8163 0
M  V30 3017 H 297.098 -2.74538 -1.20701 0
M  V30 3018 H 294.651 -1.4455 -0.594546 0
M  V30 3019 H 295.386 -0.991099 -3.08784 0
M  V30 3020 H 295.171 -2.74241 -2.80239 0
M  V30 3021 H 296.661 -2.13836 -3.58697 0
M  V30 3022 N 297.098 0.621204 -1.44841 0
M  V30 3023 C 298.345 1.38055 -1.48145 0
M  V30 3024 C 298.673 1.94143 -0.117867 0
M  V30 3025 O 297.928 1.74713 0.881694 0
M  V30 3026 C 298.227 2.55675 -2.4973 0
M  V30 3027 C 297.893 2.17817 -3.94799 0
M  V30 3028 C 296.555 2.07205 -4.34303 0
M  V30 3029 C 298.907 1.88065 -4.86087 0
M  V30 3030 C 296.235 1.65045 -5.63007 0
M  V30 3031 C 298.587 1.47394 -6.15189 0
M  V30 3032 C 297.251 1.35331 -6.53637 0
M  V30 3033 H 296.521 0.505181 -0.542101 0
M  V30 3034 H 299.168 0.703477 -1.78111 0
M  V30 3035 H 297.473 3.2866 -2.13284 0
M  V30 3036 H 299.17 3.13904 -2.4953 0
M  V30 3037 H 295.76 2.26998 -3.63552 0
M  V30 3038 H 299.944 1.95168 -4.56315 0
M  V30 3039 H 295.2 1.54317 -5.91605 0
M  V30 3040 H 299.374 1.23415 -6.85377 0
M  V30 3041 H 297.001 1.02435 -7.53267 0
M  V30 3042 N 298.576 1.31904 0.862503 0
M  V30 3043 C 299.804 1.24998 1.64873 0
M  V30 3044 C 300.219 -0.183425 1.87907 0
M  V30 3045 O 299.576 -1.11794 1.44251 0
M  V30 3046 C 299.627 1.99829 3.01248 0
M  V30 3047 O 299.348 3.37575 2.79239 0
M  V30 3048 C 300.849 1.99852 3.95694 0
M  V30 3049 H 298.069 0.431599 0.513773 0
M  V30 3050 H 300.613 1.73901 1.07604 0
M  V30 3051 H 298.768 1.54668 3.55185 0
M  V30 3052 H 299.182 3.75776 3.65914 0
M  V30 3053 H 300.656 2.56709 4.88676 0
M  V30 3054 H 301.133 0.982852 4.28062 0
M  V30 3055 H 301.739 2.44926 3.47694 0
M  V30 3056 N 300.054 -1.07777 1.14986 0
M  V30 3057 C 301.279 -1.84558 0.946213 0
M  V30 3058 C 301.704 -1.81323 -0.500362 0
M  V30 3059 O 301.062 -1.20301 -1.35637 0
M  V30 3060 C 301.11 -3.29736 1.45968 0
M  V30 3061 O 300.214 -4.07149 0.65601 0
M  V30 3062 H 299.555 -0.571641 0.33782 0
M  V30 3063 H 302.085 -1.35991 1.52865 0
M  V30 3064 H 302.095 -3.80574 1.47063 0
M  V30 3065 H 300.77 -3.31406 2.51283 0
M  V30 3066 H 299.347 -3.65994 0.714322 0
M  V30 3067 N 301.532 -0.945985 -1.26051 0
M  V30 3068 C 302.809 -0.513816 -1.88731 0
M  V30 3069 C 303.189 1.00872 -1.8544 0
M  V30 3070 O 302.537 1.8708 -1.312 0
M  V30 3071 C 302.747 -1.08062 -3.31849 0
M  V30 3072 C 304.095 -1.1522 -4.08668 0
M  V30 3073 O 305.119 -1.03155 -3.40936 0
M  V30 3074 O 303.978 -1.34044 -5.29806 0
M  V30 3075 H 301.072 -0.168193 -0.809716 0
M  V30 3076 H 303.618 -1.03886 -1.34186 0
M  V30 3077 H 302.39 -2.1241 -3.2863 0
M  V30 3078 H 302.013 -0.538307 -3.93939 0
M  V30 3079 N 303.011 1.40521 -0.713556 0
M  V30 3080 C 304.427 1.54839 -0.386907 0
M  V30 3081 C 304.627 1.68532 1.1045 0
M  V30 3082 O 303.683 1.67377 1.89053 0
M  V30 3083 C 304.996 2.77792 -1.15118 0
M  V30 3084 C 306.544 2.91607 -1.13729 0
M  V30 3085 C 307.019 4.1747 -1.88368 0
M  V30 3086 N 308.51 4.24466 -1.85427 0
M  V30 3087 C 309.245 5.20755 -2.40004 0
M  V30 3088 N 308.741 6.22965 -3.03129 0
M  V30 3089 N 310.534 5.1282 -2.30158 0
M  V30 3090 H 302.685 1.29879 -1.68063 0
M  V30 3091 H 304.948 0.627896 -0.710247 0
M  V30 3092 H 304.654 2.73944 -2.20561 0
M  V30 3093 H 304.528 3.6984 -0.741477 0
M  V30 3094 H 306.915 2.94959 -0.0910608 0
M  V30 3095 H 306.996 2.00682 -1.5862 0
M  V30 3096 H 306.64 4.1488 -2.9298 0
M  V30 3097 H 306.57 5.074 -1.40898 0
M  V30 3098 H 309.061 3.51241 -1.3942 0
M  V30 3099 H 309.374 6.92859 -3.42295 0
M  V30 3100 H 307.719 6.23415 -3.07212 0
M  V30 3101 H 310.91 4.31899 -1.80501 0
M  V30 3102 H 311.083 5.87689 -2.72993 0
M  V30 3103 N 304.489 0.459591 1.5075 0
M  V30 3104 C 305.736 -0.0993495 2.02256 0
M  V30 3105 C 306.064 -1.40751 1.34237 0
M  V30 3106 O 305.319 -1.90379 0.453228 0
M  V30 3107 C 305.618 -0.342866 3.55752 0
M  V30 3108 C 305.284 0.88218 4.42186 0
M  V30 3109 C 303.946 1.21808 4.65528 0
M  V30 3110 C 306.298 1.69837 4.92752 0
M  V30 3111 C 303.626 2.37045 5.36681 0
M  V30 3112 C 305.978 2.84192 5.65171 0
M  V30 3113 C 304.642 3.1821 5.8677 0
M  V30 3114 H 303.912 -0.0363545 0.740108 0
M  V30 3115 H 306.559 0.611329 1.8148 0
M  V30 3116 H 304.864 -1.13567 3.7498 0
M  V30 3117 H 306.561 -0.789121 3.93159 0
M  V30 3118 H 303.151 0.610467 4.2423 0
M  V30 3119 H 307.335 1.45205 4.74583 0
M  V30 3120 H 302.591 2.63689 5.51614 0
M  V30 3121 H 306.765 3.4779 6.03337 0
M  V30 3122 H 304.392 4.07613 6.41682 0
M  V30 3123 N 305.967 -1.56429 0.191757 0
M  V30 3124 C 306.915 -2.20273 -0.747174 0
M  V30 3125 C 307.909 -1.17288 -1.22229 0
M  V30 3126 O 309.115 -1.35441 -1.18557 0
M  V30 3127 H 305.49 -0.705885 -0.259289 0
M  V30 3128 H 307.461 -2.97826 -0.184963 0
M  V30 3129 C 306.21 -2.87356 -1.95759 0
M  V30 3130 H 305.533 -3.66341 -1.60106 0
M  V30 3131 H 306.973 -3.3547 -2.59299 0
M  V30 3132 C 305.432 -1.88213 -2.79423 0
M  V30 3133 O 305.962 -1.38033 -3.7724 0
M  V30 3134 N 304.168 -1.56516 -2.44849 0
M  V30 3135 H 303.715 -1.97516 -1.65364 0
M  V30 3136 H 303.673 -0.904369 -3.01112 0
M  V30 3137 N 307.445 0.0818655 -1.57387 0
M  V30 3138 C 308.692 0.782914 -1.86753 0
M  V30 3139 C 309.02 1.78082 -0.782118 0
M  V30 3140 O 308.275 1.94426 0.22295 0
M  V30 3141 C 308.574 1.53513 -3.22752 0
M  V30 3142 C 308.24 0.678134 -4.45771 0
M  V30 3143 C 306.902 0.441929 -4.79166 0
M  V30 3144 C 309.254 0.0832243 -5.21134 0
M  V30 3145 C 306.582 -0.398833 -5.85343 0
M  V30 3146 C 308.934 -0.744935 -6.28199 0
M  V30 3147 C 307.598 -0.991107 -6.60101 0
M  V30 3148 H 306.868 0.286489 -0.683378 0
M  V30 3149 H 309.515 0.0439808 -1.91449 0
M  V30 3150 H 307.82 2.34599 -3.138 0
M  V30 3151 H 309.517 2.08218 -3.42705 0
M  V30 3152 H 306.107 0.872357 -4.19628 0
M  V30 3153 H 310.291 0.252847 -4.95655 0
M  V30 3154 H 305.547 -0.598405 -6.08465 0
M  V30 3155 H 309.721 -1.21271 -6.8576 0
M  V30 3156 H 307.348 -1.64437 -7.42202 0
M  V30 3157 N 308.923 1.53595 0.353017 0
M  V30 3158 C 309.855 1.77219 1.45348 0
M  V30 3159 C 310.868 0.65324 1.49119 0
M  V30 3160 O 312.057 0.929775 1.52373 0
M  V30 3161 C 309.157 1.84841 2.84055 0
M  V30 3162 C 308.33 3.14649 3.03833 0
M  V30 3163 C 307.389 3.13351 4.22727 0
M  V30 3164 O 306.415 3.87107 4.17297 0
M  V30 3165 N 307.617 2.35052 5.30783 0
M  V30 3166 H 310.382 2.72178 1.25457 0
M  V30 3167 H 307.943 1.52528 0.542833 0
M  V30 3168 H 309.935 1.81435 3.61751 0
M  V30 3169 H 308.505 0.971114 2.97133 0
M  V30 3170 H 307.725 3.31256 2.13689 0
M  V30 3171 H 309.013 4.00411 3.13925 0
M  V30 3172 H 308.411 1.74663 5.38061 0
M  V30 3173 H 306.968 2.37453 6.07009 0
M  V30 3174 N 310.401 -0.613514 1.45168 0
M  V30 3175 C 311.649 -1.36997 1.48581 0
M  V30 3176 C 311.97 -1.94589 0.126545 0
M  V30 3177 O 311.24 -1.76816 -0.843372 0
M  V30 3178 H 309.82 -0.508558 0.547154 0
M  V30 3179 H 312.482 -0.720853 1.81079 0
M  V30 3180 H 311.578 -2.1924 2.22127 0
M  V30 3181 N 311.879 -1.3236 -0.855495 0
M  V30 3182 C 312.842 -1.21164 -1.94556 0
M  V30 3183 C 313.842 -0.134908 -1.60233 0
M  V30 3184 O 315.032 -0.385249 -1.69887 0
M  V30 3185 C 312.164 -0.863192 -3.29791 0
M  V30 3186 H 313.357 -2.18038 -2.05911 0
M  V30 3187 H 310.91 -1.16179 -1.04557 0
M  V30 3188 H 311.645 0.103769 -3.24134 0
M  V30 3189 H 311.43 -1.64166 -3.56078 0
M  V30 3190 H 312.92 -0.809156 -4.09686 0
M  V30 3191 N 313.357 1.07166 -1.15556 0
M  V30 3192 C 314.267 2.17947 -0.868116 0
M  V30 3193 C 315.283 1.73297 0.156297 0
M  V30 3194 O 316.459 2.01392 -0.0182327 0
M  V30 3195 C 313.524 3.44789 -0.36355 0
M  V30 3196 C 312.585 4.03996 -1.45209 0
M  V30 3197 C 311.818 5.24783 -0.971508 0
M  V30 3198 O 312.041 5.70109 0.182194 0
M  V30 3199 O 310.975 5.75715 -1.75603 0
M  V30 3200 H 314.801 2.4503 -1.79427 0
M  V30 3201 H 312.386 1.16539 -0.934824 0
M  V30 3202 H 314.268 4.21307 -0.0887113 0
M  V30 3203 H 312.943 3.19253 0.534708 0
M  V30 3204 H 311.85 3.29009 -1.78056 0
M  V30 3205 H 313.183 4.33808 -2.32533 0
M  V30 3206 N 314.835 0.952656 1.25548 0
M  V30 3207 C 316.065 0.622592 1.96996 0
M  V30 3208 C 316.473 -0.809112 1.71026 0
M  V30 3209 O 315.816 -1.55258 0.981861 0
M  V30 3210 C 315.878 0.798946 3.5051 0
M  V30 3211 C 315.542 2.20744 4.00151 0
M  V30 3212 C 316.539 3.18394 4.11001 0
M  V30 3213 C 314.224 2.5311 4.33867 0
M  V30 3214 C 316.218 4.46504 4.54877 0
M  V30 3215 C 313.905 3.8145 4.7743 0
M  V30 3216 C 314.903 4.77959 4.87897 0
M  V30 3217 O 314.591 6.04012 5.30494 0
M  V30 3218 H 314.323 0.232503 0.634758 0
M  V30 3219 H 316.877 1.2789 1.60728 0
M  V30 3220 H 315.107 0.0854903 3.86605 0
M  V30 3221 H 316.796 0.47023 4.03167 0
M  V30 3222 H 317.562 2.94715 3.85186 0
M  V30 3223 H 313.441 1.78719 4.24948 0
M  V30 3224 H 316.985 5.21835 4.62962 0
M  V30 3225 H 312.882 4.04936 5.0269 0
M  V30 3226 H 313.65 6.0736 5.48685 0
M  V30 3227 N 316.313 -1.40141 0.720998 0
M  V30 3228 C 317.276 -2.29058 0.0805834 0
M  V30 3229 C 318.276 -1.45632 -0.681758 0
M  V30 3230 O 319.466 -1.6648 -0.512856 0
M  V30 3231 C 316.598 -3.28925 -0.895593 0
M  V30 3232 H 317.791 -2.87191 0.863793 0
M  V30 3233 H 315.344 -1.48553 0.485975 0
M  V30 3234 H 316.079 -2.75822 -1.70566 0
M  V30 3235 H 315.864 -3.90519 -0.351766 0
M  V30 3236 H 317.354 -3.95494 -1.34069 0
M  V30 3237 N 317.792 -0.46758 -1.50504 0
M  V30 3238 C 319.039 0.0886219 -2.02306 0
M  V30 3239 C 319.367 1.40037 -1.34981 0
M  V30 3240 O 318.622 1.90136 -0.463318 0
M  V30 3241 C 318.921 0.323995 -3.55928 0
M  V30 3242 C 318.587 -0.905618 -4.41712 0
M  V30 3243 C 317.249 -1.24275 -4.64875 0
M  V30 3244 C 319.601 -1.72448 -4.91845 0
M  V30 3245 C 316.929 -2.39888 -5.35417 0
M  V30 3246 C 319.281 -2.87185 -5.63656 0
M  V30 3247 C 317.945 -3.21317 -5.85074 0
M  V30 3248 H 317.215 0.0324291 -0.74029 0
M  V30 3249 H 319.862 -0.620945 -1.81153 0
M  V30 3250 H 318.167 1.11577 -3.75577 0
M  V30 3251 H 319.864 0.76826 -3.93572 0
M  V30 3252 H 316.454 -0.632956 -4.239 0
M  V30 3253 H 320.638 -1.4772 -4.73806 0
M  V30 3254 H 315.894 -2.66611 -5.50208 0
M  V30 3255 H 320.068 -3.50985 -6.01484 0
M  V30 3256 H 317.695 -4.1101 -6.39511 0
M  V30 3257 N 319.27 1.56325 -0.20005 0
M  V30 3258 C 320.218 2.20666 0.735482 0
M  V30 3259 C 321.212 1.17934 1.21605 0
M  V30 3260 O 322.418 1.36068 1.17837 0
M  V30 3261 H 318.793 0.70725 0.255542 0
M  V30 3262 H 320.764 2.9792 0.169166 0
M  V30 3263 C 319.513 2.88391 1.94232 0
M  V30 3264 H 318.836 3.67185 1.58161 0
M  V30 3265 H 320.276 3.3684 2.57517 0
M  V30 3266 C 318.735 1.89692 2.78421 0
M  V30 3267 O 319.265 1.40032 3.76502 0
M  V30 3268 N 317.471 1.57813 2.44015 0
M  V30 3269 H 317.018 1.9839 1.64314 0
M  V30 3270 H 316.976 0.920325 3.00628 0
M  V30 3271 N 320.748 -0.0735177 1.57428 0
M  V30 3272 C 322.025 -0.805903 1.78226 0
M  V30 3273 C 322.405 -1.95874 0.787189 0
M  V30 3274 O 321.753 -2.2779 -0.180029 0
M  V30 3275 C 321.963 -1.28045 3.24662 0
M  V30 3276 C 323.311 -1.71453 3.88444 0
M  V30 3277 O 324.335 -1.37616 3.28543 0
M  V30 3278 O 323.194 -2.34093 4.93825 0
M  V30 3279 H 320.288 -0.386041 0.73137 0
M  V30 3280 H 322.834 -0.0537269 1.69615 0
M  V30 3281 H 321.606 -0.455476 3.8864 0
M  V30 3282 H 321.229 -2.094 3.37991 0
M  V30 3283 N 322.226 -1.5378 -0.344866 0
M  V30 3284 C 323.173 -1.81676 -1.42346 0
M  V30 3285 C 324.143 -0.662376 -1.52321 0
M  V30 3286 O 325.328 -0.906675 -1.67881 0
M  V30 3287 C 322.468 -2.03087 -2.79015 0
M  V30 3288 C 321.581 -3.30799 -2.77842 0
M  V30 3289 C 320.716 -3.42285 -4.0622 0
M  V30 3290 C 319.755 -4.6395 -3.9927 0
M  V30 3291 N 318.892 -4.72477 -5.19336 0
M  V30 3292 H 323.732 -2.73703 -1.17858 0
M  V30 3293 H 321.269 -1.35568 -0.570949 0
M  V30 3294 H 323.227 -2.1349 -3.58438 0
M  V30 3295 H 321.857 -1.14375 -3.01858 0
M  V30 3296 H 320.909 -3.29244 -1.90533 0
M  V30 3297 H 322.221 -4.20314 -2.68584 0
M  V30 3298 H 321.375 -3.52113 -4.94066 0
M  V30 3299 H 320.114 -2.50823 -4.18258 0
M  V30 3300 H 319.119 -4.54201 -3.09809 0
M  V30 3301 H 320.344 -5.56775 -3.88817 0
M  V30 3302 H 318.29 -3.83924 -5.3192 0
M  V30 3303 H 318.207 -5.55927 -5.12329 0
M  V30 3304 H 319.475 -4.86613 -6.08957 0
M  V30 3305 N 323.704 0.605807 -1.45491 0
M  V30 3306 C 325.12 0.926751 -1.29936 0
M  V30 3307 C 325.32 1.99896 -0.253706 0
M  V30 3308 O 324.376 2.50038 0.351737 0
M  V30 3309 C 325.689 1.36599 -2.67883 0
M  V30 3310 C 327.237 1.4801 -2.75793 0
M  V30 3311 C 327.712 1.95309 -4.14268 0
M  V30 3312 N 329.203 2.0254 -4.16571 0
M  V30 3313 C 329.938 2.40363 -5.20589 0
M  V30 3314 N 329.434 2.77143 -6.34952 0
M  V30 3315 N 331.227 2.40718 -5.07948 0
M  V30 3316 H 323.378 -0.102862 -2.12151 0
M  V30 3317 H 325.641 0.016639 -0.947854 0
M  V30 3318 H 325.347 0.652306 -3.45598 0
M  V30 3319 H 325.221 2.33215 -2.96463 0
M  V30 3320 H 327.608 2.1847 -1.98381 0
M  V30 3321 H 327.689 0.497041 -2.50925 0
M  V30 3322 H 327.333 1.25436 -4.92167 0
M  V30 3323 H 327.263 2.94532 -4.3653 0
M  V30 3324 H 329.754 1.76699 -3.34045 0
M  V30 3325 H 330.067 3.0489 -7.10114 0
M  V30 3326 H 328.412 2.74834 -6.3835 0
M  V30 3327 H 331.603 2.11392 -4.1765 0
M  V30 3328 H 331.776 2.69869 -5.89131 0
M  V30 3329 N 325.182 1.32811 0.848464 0
M  V30 3330 C 326.41 1.26739 1.63538 0
M  V30 3331 C 326.825 -0.163484 1.88091 0
M  V30 3332 O 326.182 -1.10258 1.45429 0
M  V30 3333 C 326.233 2.03013 2.99112 0
M  V30 3334 O 325.954 3.40518 2.75643 0
M  V30 3335 C 327.455 2.04038 3.93552 0
M  V30 3336 H 324.675 0.437024 0.509167 0
M  V30 3337 H 327.219 1.75033 1.05753 0
M  V30 3338 H 325.374 1.58426 3.53525 0
M  V30 3339 H 325.788 3.79635 3.61908 0
M  V30 3340 H 327.262 2.61877 4.85926 0
M  V30 3341 H 327.739 1.0282 4.26995 0
M  V30 3342 H 328.345 2.486 3.45077 0
M  V30 3343 N 326.66 -1.06551 1.16123 0
M  V30 3344 C 327.592 -2.13908 0.823171 0
M  V30 3345 C 328.605 -1.61926 -0.16843 0
M  V30 3346 O 329.794 -1.78412 0.055962 0
M  V30 3347 C 326.894 -3.38283 0.204424 0
M  V30 3348 C 326.067 -4.19589 1.23548 0
M  V30 3349 C 325.126 -5.2233 0.637011 0
M  V30 3350 O 324.152 -5.54034 1.30516 0
M  V30 3351 N 325.354 -5.77621 -0.577474 0
M  V30 3352 H 328.119 -2.43508 1.74711 0
M  V30 3353 H 325.68 -1.2253 1.05821 0
M  V30 3354 H 327.672 -4.0416 -0.208909 0
M  V30 3355 H 326.242 -3.06329 -0.623012 0
M  V30 3356 H 325.462 -3.49406 1.82507 0
M  V30 3357 H 326.75 -4.70718 1.93137 0
M  V30 3358 H 326.148 -5.54125 -1.13853 0
M  V30 3359 H 324.705 -6.45087 -0.933053 0
M  V30 3360 N 328.138 -0.959301 -1.25041 0
M  V30 3361 C 329.387 -0.612254 -1.92183 0
M  V30 3362 C 329.7 0.855347 -1.75907 0
M  V30 3363 O 330.906 1.31256 -2.37664 0
M  V30 3364 C 329.362 -1.04435 -3.44414 0
M  V30 3365 C 328.97 -2.53482 -3.69393 0
M  V30 3366 C 330.714 -0.770055 -4.17457 0
M  V30 3367 C 328.621 -2.90468 -5.15153 0
M  V30 3368 H 327.551 -0.225279 -0.719559 0
M  V30 3369 H 330.202 -1.16438 -1.41825 0
M  V30 3370 H 328.584 -0.4206 -3.9376 0
M  V30 3371 H 329.758 -3.20916 -3.30681 0
M  V30 3372 H 328.073 -2.78432 -3.0962 0
M  V30 3373 H 330.67 -1.02249 -5.24832 0
M  V30 3374 H 331.013 0.293611 -4.15263 0
M  V30 3375 H 331.546 -1.35437 -3.74034 0
M  V30 3376 H 328.285 -3.95871 -5.22462 0
M  V30 3377 H 327.805 -2.27711 -5.54894 0
M  V30 3378 H 329.484 -2.79914 -5.83315 0
M  V30 3379 N 329.616 1.39756 -0.72842 0
M  V30 3380 C 330.579 2.29012 -0.0927297 0
M  V30 3381 C 331.579 1.45992 0.674025 0
M  V30 3382 O 332.769 1.66749 0.50402 0
M  V30 3383 C 329.901 3.29396 0.878137 0
M  V30 3384 H 331.094 2.86729 -0.879011 0
M  V30 3385 H 328.647 1.48293 -0.493847 0
M  V30 3386 H 329.382 2.76722 1.69101 0
M  V30 3387 H 329.167 3.907 0.331051 0
M  V30 3388 H 330.657 3.96199 1.3197 0
M  V30 3389 N 331.094 0.475555 1.50254 0
M  V30 3390 C 332.024 -0.30611 2.31485 0
M  V30 3391 C 333.005 -0.986228 1.38591 0
M  V30 3392 O 334.19 -0.982541 1.67511 0
M  V30 3393 C 331.32 -1.38588 3.1845 0
M  V30 3394 C 330.274 -0.827115 4.19932 0
M  V30 3395 C 329.6 -2.00551 4.95665 0
M  V30 3396 C 330.9 0.16463 5.2204 0
M  V30 3397 H 332.594 0.371866 2.97082 0
M  V30 3398 H 330.14 0.180282 1.42867 0
M  V30 3399 H 332.093 -1.94023 3.74076 0
M  V30 3400 H 330.817 -2.09269 2.50747 0
M  V30 3401 H 329.476 -0.294702 3.65414 0
M  V30 3402 H 329.124 -2.6994 4.2443 0
M  V30 3403 H 328.824 -1.63784 5.64313 0
M  V30 3404 H 330.348 -2.56468 5.54127 0
M  V30 3405 H 331.762 -0.300699 5.72511 0
M  V30 3406 H 330.159 0.446813 5.98434 0
M  V30 3407 H 331.229 1.08905 4.72512 0
M  V30 3408 N 332.573 -1.56217 0.208337 0
M  V30 3409 C 333.819 -1.98998 -0.42086 0
M  V30 3410 C 334.174 -1.09331 -1.58317 0
M  V30 3411 O 333.467 -0.140466 -1.91084 0
M  V30 3412 C 333.661 -3.45441 -0.916797 0
M  V30 3413 C 333.49 -4.49273 0.195925 0
M  V30 3414 C 332.26 -5.00998 0.657956 0
M  V30 3415 C 334.458 -5.04294 1.00956 0
M  V30 3416 N 332.44 -5.88514 1.74712 0
M  V30 3417 C 333.811 -5.88607 1.94785 0
M  V30 3418 C 335.866 -4.86692 1.05049 0
M  V30 3419 C 334.569 -6.572 2.9237 0
M  V30 3420 C 336.595 -5.56034 2.01446 0
M  V30 3421 C 335.957 -6.40105 2.94016 0
M  V30 3422 H 332.056 -0.772574 -0.121048 0
M  V30 3423 H 334.64 -1.92101 0.317075 0
M  V30 3424 H 332.811 -3.52812 -1.62413 0
M  V30 3425 H 334.543 -3.75164 -1.51771 0
M  V30 3426 H 331.298 -4.72945 0.248912 0
M  V30 3427 H 331.722 -6.36975 2.2933 0
M  V30 3428 H 336.364 -4.21359 0.348759 0
M  V30 3429 H 334.082 -7.21723 3.63512 0
M  V30 3430 H 337.668 -5.44385 2.0527 0
M  V30 3431 H 336.548 -6.92816 3.6739 0
M  V30 3432 N 334.051 0.0651679 -1.57465 0
M  V30 3433 C 334.999 1.09542 -2.05191 0
M  V30 3434 C 335.993 1.39675 -0.958509 0
M  V30 3435 O 337.199 1.39003 -1.14359 0
M  V30 3436 H 333.574 0.370623 -0.654326 0
M  V30 3437 H 335.545 0.666802 -2.90854 0
M  V30 3438 C 334.294 2.39881 -2.51699 0
M  V30 3439 H 333.617 2.17547 -3.3543 0
M  V30 3440 H 335.057 3.104 -2.88839 0
M  V30 3441 C 333.516 3.0631 -1.40271 0
M  V30 3442 O 334.046 3.94664 -0.748523 0
M  V30 3443 N 332.252 2.67041 -1.14618 0
M  V30 3444 H 331.799 1.95281 -1.67997 0
M  V30 3445 H 331.757 3.1181 -0.402688 0
M  V30 3446 N 335.529 1.53961 0.336706 0
M  V30 3447 C 336.492 1.81724 1.39675 0
M  V30 3448 C 337.492 0.688532 1.45313 0
M  V30 3449 O 338.682 0.956829 1.45569 0
M  V30 3450 C 335.814 1.96543 2.78538 0
M  V30 3451 H 337.007 2.76424 1.16318 0
M  V30 3452 H 334.56 1.45478 0.571474 0
M  V30 3453 H 335.295 1.0401 3.07168 0
M  V30 3454 H 335.08 2.78665 2.75841 0
M  V30 3455 H 336.57 2.19516 3.5525 0
M  V30 3456 N 337.007 -0.598083 1.45811 0
M  V30 3457 C 337.939 -1.72231 1.51225 0
M  V30 3458 C 338.952 -1.57757 0.402059 0
M  V30 3459 O 340.141 -1.65464 0.669624 0
M  V30 3460 C 337.241 -3.10331 1.3619 0
M  V30 3461 C 336.414 -3.50955 2.61054 0
M  V30 3462 C 335.473 -4.68055 2.40439 0
M  V30 3463 O 334.499 -4.74691 3.14097 0
M  V30 3464 N 335.701 -5.61941 1.45612 0
M  V30 3465 H 338.466 -1.68046 2.48154 0
M  V30 3466 H 336.027 -0.783637 1.41671 0
M  V30 3467 H 338.019 -3.86439 1.20195 0
M  V30 3468 H 336.589 -3.0897 0.475015 0
M  V30 3469 H 335.809 -2.64711 2.92099 0
M  V30 3470 H 337.097 -3.74858 3.44034 0
M  V30 3471 H 336.495 -5.59301 0.848431 0
M  V30 3472 H 335.052 -6.37542 1.35585 0
M  V30 3473 N 338.485 -1.33259 -0.841409 0
M  V30 3474 C 339.415 -1.25926 -1.96634 0
M  V30 3475 C 340.396 -0.140349 -1.6952 0
M  V30 3476 O 341.581 -0.329707 -1.91381 0
M  V30 3477 C 338.711 -0.99512 -3.32738 0
M  V30 3478 C 337.665 -2.0767 -3.74242 0
M  V30 3479 C 336.991 -1.66474 -5.08125 0
M  V30 3480 C 338.291 -3.49318 -3.88297 0
M  V30 3481 H 339.985 -2.20046 -2.03027 0
M  V30 3482 H 337.531 -1.05931 -0.975425 0
M  V30 3483 H 339.484 -0.930323 -4.11002 0
M  V30 3484 H 338.208 -0.0183004 -3.26595 0
M  V30 3485 H 336.867 -2.13187 -2.98239 0
M  V30 3486 H 336.515 -0.675012 -4.9845 0
M  V30 3487 H 336.215 -2.3885 -5.36865 0
M  V30 3488 H 337.739 -1.61455 -5.88867 0
M  V30 3489 H 339.153 -3.46316 -4.56879 0
M  V30 3490 H 337.55 -4.20158 -4.28471 0
M  V30 3491 H 338.62 -3.8801 -2.9082 0
M  V30 3492 N 339.963 1.05934 -1.16686 0
M  V30 3493 C 340.91 2.13499 -0.876748 0
M  V30 3494 C 341.88 1.65162 0.176299 0
M  V30 3495 O 343.065 1.90757 0.0407143 0
M  V30 3496 C 340.205 3.42912 -0.387967 0
M  V30 3497 C 339.318 4.04964 -1.50426 0
M  V30 3498 C 338.453 5.22266 -0.970125 0
M  V30 3499 C 337.492 5.76309 -2.06238 0
M  V30 3500 N 336.629 6.84922 -1.54356 0
M  V30 3501 H 341.469 2.37654 -1.7979 0
M  V30 3502 H 339.006 1.16598 -0.896843 0
M  V30 3503 H 340.964 4.17111 -0.086186 0
M  V30 3504 H 339.594 3.18963 0.496235 0
M  V30 3505 H 338.646 3.28277 -1.92193 0
M  V30 3506 H 339.958 4.41122 -2.32836 0
M  V30 3507 H 339.112 6.03506 -0.621743 0
M  V30 3508 H 337.851 4.87564 -0.115377 0
M  V30 3509 H 336.856 4.93704 -2.41942 0
M  V30 3510 H 338.081 6.13062 -2.92115 0
M  V30 3511 H 336.027 6.52131 -0.711406 0
M  V30 3512 H 335.944 7.20043 -2.30379 0
M  V30 3513 H 337.212 7.69832 -1.22387 0
M  V30 3514 N 341.441 0.965919 1.2453 0
M  V30 3515 C 342.718 0.543777 1.87889 0
M  V30 3516 C 343.098 -0.97909 1.87021 0
M  V30 3517 O 342.446 -1.84969 1.3416 0
M  V30 3518 C 342.656 1.13327 3.30088 0
M  V30 3519 C 344.004 1.21707 4.06783 0
M  V30 3520 O 345.028 1.08566 3.39252 0
M  V30 3521 O 343.887 1.42456 5.27606 0
M  V30 3522 H 340.981 0.181054 0.806938 0
M  V30 3523 H 343.527 1.06007 1.32516 0
M  V30 3524 H 342.299 2.17612 3.25209 0
M  V30 3525 H 341.922 0.600911 3.93033 0
M  V30 3526 N 342.919 -1.39368 0.735821 0
M  V30 3527 C 344.168 -1.99733 0.281004 0
M  V30 3528 C 344.481 -1.59055 -1.13846 0
M  V30 3529 O 345.687 -2.12262 -1.69284 0
M  V30 3530 C 344.143 -3.57057 0.451462 0
M  V30 3531 C 343.751 -4.06697 1.87886 0
M  V30 3532 C 345.495 -4.2446 0.0584616 0
M  V30 3533 C 343.402 -5.56598 1.99883 0
M  V30 3534 H 342.332 -0.747163 0.101311 0
M  V30 3535 H 344.983 -1.59357 0.909819 0
M  V30 3536 H 343.365 -3.95234 -0.246263 0
M  V30 3537 H 344.539 -3.79853 2.60861 0
M  V30 3538 H 342.854 -3.5196 2.22515 0
M  V30 3539 H 345.451 -5.34549 0.127099 0
M  V30 3540 H 345.794 -4.04444 -0.986433 0
M  V30 3541 H 346.327 -3.9146 0.707374 0
M  V30 3542 H 343.066 -5.81494 3.02564 0
M  V30 3543 H 342.586 -5.85242 1.31346 0
M  V30 3544 H 344.265 -6.22022 1.78039 0
M  V30 3545 N 344.397 -0.483516 -1.5 0
M  V30 3546 C 345.627 0.0643896 -2.065 0
M  V30 3547 C 346.035 1.32949 -1.34615 0
M  V30 3548 O 345.378 1.79003 -0.412756 0
M  V30 3549 C 345.44 0.405983 -3.572 0
M  V30 3550 C 345.104 -0.758875 -4.50655 0
M  V30 3551 C 346.101 -1.64445 -4.93208 0
M  V30 3552 C 343.786 -0.952725 -4.93182 0
M  V30 3553 C 345.78 -2.70818 -5.77006 0
M  V30 3554 C 343.467 -2.01966 -5.76761 0
M  V30 3555 C 344.465 -2.89574 -6.18576 0
M  V30 3556 O 344.153 -3.94429 -7.00486 0
M  V30 3557 H 343.885 -0.00934786 -0.675935 0
M  V30 3558 H 346.439 -0.674959 -1.93993 0
M  V30 3559 H 344.669 1.19869 -3.67652 0
M  V30 3560 H 346.358 0.890433 -3.96013 0
M  V30 3561 H 347.124 -1.50643 -4.61012 0
M  V30 3562 H 343.003 -0.280247 -4.60147 0
M  V30 3563 H 346.547 -3.3923 -6.09565 0
M  V30 3564 H 342.444 -2.1577 -6.0837 0
M  V30 3565 H 343.212 -3.91568 -7.1876 0
M  V30 3566 N 345.875 1.56104 -0.216619 0
M  V30 3567 C 347.1 2.0301 0.424462 0
M  V30 3568 C 347.525 1.0955 1.52907 0
M  V30 3569 O 346.883 0.0827914 1.81111 0
M  V30 3570 C 346.931 3.4819 0.937883 0
M  V30 3571 O 346.035 3.57865 2.04955 0
M  V30 3572 H 345.376 0.656925 0.0966755 0
M  V30 3573 H 347.906 2.01859 -0.33381 0
M  V30 3574 H 347.916 3.88413 1.24897 0
M  V30 3575 H 346.591 4.15699 0.129387 0
M  V30 3576 H 345.168 3.29527 1.74546 0
M  V30 3577 N 347.353 -0.0568162 1.57498 0
M  V30 3578 C 348.285 -1.09292 2.01464 0
M  V30 3579 C 349.298 -1.34112 0.922913 0
M  V30 3580 O 350.487 -1.32089 1.20062 0
M  V30 3581 C 347.587 -2.44068 2.35125 0
M  V30 3582 C 346.76 -2.38995 3.66333 0
M  V30 3583 C 345.819 -3.55997 3.87495 0
M  V30 3584 O 344.845 -3.36746 4.58901 0
M  V30 3585 N 346.047 -4.76888 3.30996 0
M  V30 3586 H 348.812 -0.718386 2.90963 0
M  V30 3587 H 346.373 -0.245235 1.60032 0
M  V30 3588 H 348.365 -3.21011 2.46443 0
M  V30 3589 H 346.935 -2.73468 1.5144 0
M  V30 3590 H 346.155 -1.47336 3.65631 0
M  V30 3591 H 347.443 -2.3272 4.52458 0
M  V30 3592 H 346.841 -4.95431 2.73065 0
M  V30 3593 H 345.398 -5.51291 3.47738 0
M  V30 3594 N 348.832 -1.54138 -0.328536 0
M  V30 3595 C 349.764 -1.79509 -1.4251 0
M  V30 3596 C 350.777 -0.67688 -1.48061 0
M  V30 3597 O 351.966 -0.953898 -1.50874 0
M  V30 3598 C 349.066 -1.89337 -2.81078 0
M  V30 3599 C 348.239 -3.19443 -2.98789 0
M  V30 3600 C 347.298 -3.20036 -4.17688 0
M  V30 3601 O 346.324 -3.93697 -4.11086 0
M  V30 3602 N 347.526 -2.43467 -5.26976 0
M  V30 3603 H 350.291 -2.74139 -1.21111 0
M  V30 3604 H 347.852 -1.53373 -0.518499 0
M  V30 3605 H 349.844 -1.87167 -3.58818 0
M  V30 3606 H 348.414 -1.01826 -2.95551 0
M  V30 3607 H 347.634 -3.34614 -2.08391 0
M  V30 3608 H 348.922 -4.05354 -3.07515 0
M  V30 3609 H 348.32 -1.83201 -5.35214 0
M  V30 3610 H 346.877 -2.4708 -6.03154 0
M  V30 3611 N 350.31 0.590341 -1.46126 0
M  V30 3612 C 351.557 1.34882 -1.5104 0
M  V30 3613 C 351.885 1.93849 -0.159021 0
M  V30 3614 O 351.14 1.76544 0.844436 0
M  V30 3615 C 351.439 2.5032 -2.55097 0
M  V30 3616 C 351.105 2.09394 -3.99331 0
M  V30 3617 C 349.767 1.97947 -4.38601 0
M  V30 3618 C 352.119 1.77712 -4.89967 0
M  V30 3619 C 349.447 1.53065 -5.66381 0
M  V30 3620 C 351.799 1.34312 -6.18177 0
M  V30 3621 C 350.463 1.21436 -6.56361 0
M  V30 3622 H 349.733 0.493568 -0.552695 0
M  V30 3623 H 352.38 0.665539 -1.79563 0
M  V30 3624 H 350.685 3.24062 -2.20207 0
M  V30 3625 H 352.382 3.08541 -2.56132 0
M  V30 3626 H 348.972 2.19235 -3.68285 0
M  V30 3627 H 353.156 1.85445 -4.60352 0
M  V30 3628 H 348.412 1.41733 -5.94745 0
M  V30 3629 H 352.586 1.08849 -6.87841 0
M  V30 3630 H 350.213 0.864345 -7.5527 0
M  V30 3631 N 351.788 1.33704 0.83433 0
M  V30 3632 C 353.037 1.24763 1.58484 0
M  V30 3633 C 353.35 -0.183775 1.94735 0
M  V30 3634 O 354.556 -0.395234 2.68608 0
M  V30 3635 C 353.012 2.18638 2.85876 0
M  V30 3636 C 352.62 3.66974 2.56971 0
M  V30 3637 C 354.364 2.18581 3.63899 0
M  V30 3638 C 352.271 4.5275 3.80488 0
M  V30 3639 H 351.201 0.463425 0.594772 0
M  V30 3640 H 353.852 1.58797 0.919551 0
M  V30 3641 H 352.234 1.77542 3.5397 0
M  V30 3642 H 353.408 4.16538 1.9706 0
M  V30 3643 H 351.723 3.69366 1.92244 0
M  V30 3644 H 354.32 2.79894 4.55591 0
M  V30 3645 H 354.663 1.18207 3.99165 0
M  V30 3646 H 355.196 2.58062 3.02735 0
M  V30 3647 H 351.935 5.54017 3.5035 0
M  V30 3648 H 351.455 4.07927 4.39722 0
M  V30 3649 H 353.134 4.66784 4.4802 0
M  V30 3650 N 353.266 -1.05314 1.17247 0
M  V30 3651 C 354.214 -2.15137 0.884238 0
M  V30 3652 C 355.208 -1.68729 -0.15063 0
M  V30 3653 O 356.414 -1.8 -0.00366673 0
M  V30 3654 H 352.789 -0.702471 0.2684 0
M  V30 3655 H 354.76 -2.36652 1.81764 0
M  V30 3656 C 353.509 -3.45243 0.412659 0
M  V30 3657 H 352.832 -3.81352 1.20043 0
M  V30 3658 H 354.272 -4.23263 0.249858 0
M  V30 3659 C 352.731 -3.25487 -0.86948 0
M  V30 3660 O 353.261 -3.51938 -1.93655 0
M  V30 3661 N 351.467 -2.78875 -0.817147 0
M  V30 3662 H 351.014 -2.57549 0.0514211 0
M  V30 3663 H 350.972 -2.66036 -1.67547 0
M  V30 3664 N 354.744 -0.972509 -1.24016 0
M  V30 3665 C 355.674 -0.525548 -2.27509 0
M  V30 3666 C 356.655 0.437262 -1.64384 0
M  V30 3667 O 357.84 0.332343 -1.91335 0
M  V30 3668 C 354.97 0.180448 -3.46831 0
M  V30 3669 C 353.924 -0.698859 -4.22256 0
M  V30 3670 C 353.25 0.138903 -5.3452 0
M  V30 3671 C 354.55 -1.98582 -4.83076 0
M  V30 3672 H 356.244 -1.39058 -2.65148 0
M  V30 3673 H 353.79 -0.67009 -1.27459 0
M  V30 3674 H 355.743 0.504387 -4.18371 0
M  V30 3675 H 354.467 1.07987 -3.08231 0
M  V30 3676 H 353.126 -1.00614 -3.52523 0
M  V30 3677 H 352.774 1.03862 -4.9216 0
M  V30 3678 H 352.474 -0.446259 -5.85903 0
M  V30 3679 H 353.998 0.457404 -6.08884 0
M  V30 3680 H 355.412 -1.72715 -5.46665 0
M  V30 3681 H 353.809 -2.5181 -5.44713 0
M  V30 3682 H 354.879 -2.67769 -4.04262 0
M  V30 3683 N 356.222 1.38976 -0.743202 0
M  V30 3684 C 357.471 1.99581 -0.291592 0
M  V30 3685 C 357.784 1.59656 1.13001 0
M  V30 3686 O 358.99 2.13157 1.68156 0
M  V30 3687 C 357.446 3.56813 -0.470391 0
M  V30 3688 C 357.054 4.05695 -1.90041 0
M  V30 3689 C 358.798 4.24423 -0.0809709 0
M  V30 3690 C 356.705 5.5553 -2.02832 0
M  V30 3691 H 355.635 0.746615 -0.105272 0
M  V30 3692 H 358.286 1.58872 -0.918258 0
M  V30 3693 H 356.668 3.95359 0.225299 0
M  V30 3694 H 357.842 3.78464 -2.62872 0
M  V30 3695 H 356.157 3.50775 -2.24379 0
M  V30 3696 H 358.754 5.34474 -0.155445 0
M  V30 3697 H 359.097 4.04962 0.96497 0
M  V30 3698 H 359.63 3.9108 -0.728124 0
M  V30 3699 H 356.369 5.79881 -3.05643 0
M  V30 3700 H 355.889 5.84537 -1.34448 0
M  V30 3701 H 357.568 6.21069 -1.81335 0
M  V30 3702 N 357.7 0.491464 1.49741 0
M  V30 3703 C 358.65 -0.311086 2.25868 0
M  V30 3704 C 359.634 -0.943857 1.30308 0
M  V30 3705 O 360.826 -0.853035 1.55088 0
M  V30 3706 C 357.955 -1.38059 3.14316 0
M  V30 3707 C 357.041 -0.754541 4.17334 0
M  V30 3708 N 357.432 0.137216 5.05614 0
M  V30 3709 C 355.73 -1.01621 4.34269 0
M  V30 3710 C 356.431 0.494614 5.79593 0
M  V30 3711 N 355.407 -0.135169 5.43432 0
M  V30 3712 H 359.209 0.37555 2.91491 0
M  V30 3713 H 356.723 0.306917 1.59473 0
M  V30 3714 H 358.72 -1.96891 3.67477 0
M  V30 3715 H 357.38 -2.06901 2.50244 0
M  V30 3716 H 358.391 0.50741 5.15408 0
M  V30 3717 H 355.068 -1.69808 3.81407 0
M  V30 3718 H 356.458 1.2236 6.60665 0
M  V30 3719 N 359.178 -1.55987 0.224894 0
M  V30 3720 C 360.403 -2.03232 -0.41369 0
M  V30 3721 C 360.828 -1.10359 -1.52323 0
M  V30 3722 O 360.186 -0.092395 -1.81064 0
M  V30 3723 C 360.234 -3.48682 -0.919405 0
M  V30 3724 O 359.338 -3.58947 -2.03054 0
M  V30 3725 H 358.679 -0.657428 -0.0931903 0
M  V30 3726 H 361.209 -2.01679 0.34451 0
M  V30 3727 H 361.219 -3.8907 -1.22835 0
M  V30 3728 H 359.894 -4.15761 -0.107339 0
M  V30 3729 H 358.471 -3.30448 -1.72796 0
M  V30 3730 N 360.656 0.0484629 -1.57525 0
M  V30 3731 C 361.588 1.08222 -2.02041 0
M  V30 3732 C 362.601 1.33621 -0.930012 0
M  V30 3733 O 363.79 1.3145 -1.20761 0
M  V30 3734 C 360.89 2.42818 -2.36416 0
M  V30 3735 C 360.063 2.37049 -3.67596 0
M  V30 3736 C 359.122 3.53937 -3.89378 0
M  V30 3737 O 358.148 3.34308 -4.60681 0
M  V30 3738 N 359.35 4.75126 -3.3352 0
M  V30 3739 H 362.115 0.702946 -2.9134 0
M  V30 3740 H 359.676 0.236745 -1.6016 0
M  V30 3741 H 361.668 3.197 -2.48141 0
M  V30 3742 H 360.238 2.72661 -1.52888 0
M  V30 3743 H 359.458 1.45395 -3.66407 0
M  V30 3744 H 360.746 2.30318 -4.53686 0
M  V30 3745 H 360.144 4.93976 -2.75688 0
M  V30 3746 H 358.701 5.49439 -3.50656 0
M  V30 3747 N 362.134 1.5431 0.320358 0
M  V30 3748 C 363.545 1.63872 0.894594 0
M  V30 3749 C 363.896 0.534847 1.88769 0
M  V30 3750 O 363.021 -0.331732 2.13842 0
M  V30 3751 C 363.616 2.97049 1.62934 0
M  V30 3752 C 362.175 3.08796 2.15226 0
M  V30 3753 C 361.322 2.59456 0.978671 0
M  V30 3754 H 364.273 1.58398 0.0978544 0
M  V30 3755 H 364.294 2.87388 2.49376 0
M  V30 3756 H 363.806 3.7737 0.906302 0
M  V30 3757 H 361.907 2.33156 2.90636 0
M  V30 3758 H 362.02 4.14649 2.40006 0
M  V30 3759 H 360.384 2.1543 1.35875 0
M  V30 3760 H 361.167 3.42237 0.269895 0
M  V30 3761 N 363.613 -0.582584 1.46437 0
M  V30 3762 C 364.543 -1.70187 1.59871 0
M  V30 3763 C 365.524 -1.64066 0.449042 0
M  V30 3764 O 366.709 -1.82081 0.6753 0
M  V30 3765 C 363.839 -3.08827 1.58881 0
M  V30 3766 C 362.793 -3.29779 2.72819 0
M  V30 3767 C 362.119 -4.68947 2.5689 0
M  V30 3768 C 363.419 -3.17601 4.1464 0
M  V30 3769 H 365.113 -1.592 2.53566 0
M  V30 3770 H 362.659 -0.764472 1.22032 0
M  V30 3771 H 364.612 -3.86951 1.66873 0
M  V30 3772 H 363.336 -3.20713 0.617306 0
M  V30 3773 H 361.995 -2.54054 2.64296 0
M  V30 3774 H 361.643 -4.77599 1.57823 0
M  V30 3775 H 361.343 -4.83919 3.33312 0
M  V30 3776 H 362.867 -5.4924 2.66773 0
M  V30 3777 H 364.281 -3.8557 4.24274 0
M  V30 3778 H 362.678 -3.44094 4.9165 0
M  V30 3779 H 363.748 -2.14681 4.34788 0
M  V30 3780 N 365.091 -1.34144 -0.827227 0
M  V30 3781 C 366.339 -1.26009 -1.58007 0
M  V30 3782 C 366.66 0.170971 -1.94249 0
M  V30 3783 O 365.93 1.10256 -1.61927 0
M  V30 3784 H 364.51 -0.463414 -0.585881 0
M  V30 3785 H 367.172 -1.68005 -0.987951 0
M  V30 3786 H 366.268 -1.86187 -2.50481 0
M  V30 3787 N 366.569 1.04691 -1.17803 0
M  V30 3788 C 367.846 1.7472 -0.879328 0
M  V30 3789 C 368.226 2.01812 0.619271 0
M  V30 3790 O 367.574 1.65824 1.57209 0
M  V30 3791 C 367.784 3.03686 -1.71976 0
M  V30 3792 C 369.132 3.77542 -1.94286 0
M  V30 3793 O 370.156 3.13569 -1.68976 0
M  V30 3794 O 369.015 4.92506 -2.36855 0
M  V30 3795 H 366.109 0.760011 -0.326056 0
M  V30 3796 H 368.655 1.10813 -1.28525 0
M  V30 3797 H 367.427 2.79754 -2.73594 0
M  V30 3798 H 367.05 3.75332 -1.31194 0
M  V30 3799 N 368.047 0.979072 1.23499 0
M  V30 3800 C 369.293 0.6578 1.9247 0
M  V30 3801 C 369.648 -0.799746 1.74991 0
M  V30 3802 O 368.941 -1.56922 1.09937 0
M  V30 3803 C 369.135 0.981932 3.43646 0
M  V30 3804 C 368.964 2.46944 3.75831 0
M  V30 3805 C 367.734 3.13119 3.96591 0
M  V30 3806 C 369.932 3.45006 3.81412 0
M  V30 3807 N 367.914 4.51489 4.15969 0
M  V30 3808 C 369.285 4.68778 4.05768 0
M  V30 3809 C 371.34 3.39505 3.64198 0
M  V30 3810 C 370.043 5.87723 4.14697 0
M  V30 3811 C 372.069 4.57814 3.7438 0
M  V30 3812 C 371.431 5.80381 3.99171 0
M  V30 3813 H 367.53 0.291746 0.72554 0
M  V30 3814 H 370.114 1.25626 1.48749 0
M  V30 3815 H 368.285 0.412179 3.86207 0
M  V30 3816 H 370.017 0.618068 3.99953 0
M  V30 3817 H 366.772 2.63619 3.93449 0
M  V30 3818 H 367.196 5.23221 4.29615 0
M  V30 3819 H 371.838 2.45773 3.44029 0
M  V30 3820 H 369.556 6.81874 4.33675 0
M  V30 3821 H 373.142 4.55132 3.62417 0
M  V30 3822 H 372.022 6.70398 4.06861 0
M  V30 3823 N 369.525 -1.3858 0.750561 0
M  V30 3824 C 370.753 -2.04471 0.316098 0
M  V30 3825 C 371.168 -1.56606 -1.05452 0
M  V30 3826 O 370.525 -0.737784 -1.66922 0
M  V30 3827 C 370.576 -3.60025 0.326275 0
M  V30 3828 O 370.297 -4.06133 1.6428 0
M  V30 3829 C 371.798 -4.43131 -0.122429 0
M  V30 3830 H 369.018 -0.65717 0.135528 0
M  V30 3831 H 371.562 -1.77329 1.01857 0
M  V30 3832 H 369.717 -3.86014 -0.327431 0
M  V30 3833 H 370.131 -5.00547 1.56693 0
M  V30 3834 H 371.605 -5.51963 -0.0641473 0
M  V30 3835 H 372.082 -4.23333 -1.16988 0
M  V30 3836 H 372.688 -4.22323 0.50229 0
M  V30 3837 N 371.003 -0.499398 -1.49478 0
M  V30 3838 C 371.933 0.269244 -2.31943 0
M  V30 3839 C 372.914 0.964054 -1.40143 0
M  V30 3840 O 374.099 0.955767 -1.69052 0
M  V30 3841 C 371.229 1.33504 -3.20615 0
M  V30 3842 C 370.183 0.760202 -4.21195 0
M  V30 3843 C 369.509 1.9264 -4.98792 0
M  V30 3844 C 370.809 -0.247661 -5.21712 0
M  V30 3845 H 372.503 -0.419082 -2.96452 0
M  V30 3846 H 370.049 -0.202988 -1.42562 0
M  V30 3847 H 372.002 1.88048 -3.77115 0
M  V30 3848 H 370.726 2.05253 -2.54045 0
M  V30 3849 H 369.385 0.23653 -3.65836 0
M  V30 3850 H 369.033 2.63154 -4.28671 0
M  V30 3851 H 368.733 1.54785 -5.66847 0
M  V30 3852 H 370.257 2.4762 -5.58137 0
M  V30 3853 H 371.671 0.209579 -5.72917 0
M  V30 3854 H 370.068 -0.541962 -5.97648 0
M  V30 3855 H 371.138 -1.16409 -4.7072 0
M  V30 3856 N 372.481 1.55866 -0.233164 0
M  V30 3857 C 373.729 1.9821 0.394593 0
M  V30 3858 C 374.05 1.12234 1.59463 0
M  V30 3859 O 373.32 0.201981 1.94856 0
M  V30 3860 H 371.9 0.732034 0.148778 0
M  V30 3861 H 374.562 1.92107 -0.32876 0
M  V30 3862 H 373.658 3.03845 0.713063 0
M  V30 3863 N 373.959 -0.0401083 1.57549 0
M  V30 3864 C 374.922 -1.02871 2.04817 0
M  V30 3865 C 375.922 -1.29708 0.950388 0
M  V30 3866 O 377.112 -1.24897 1.21435 0
M  V30 3867 C 374.244 -2.36443 2.45576 0
M  V30 3868 H 375.437 -0.620631 2.93408 0
M  V30 3869 H 372.99 -0.286667 1.53649 0
M  V30 3870 H 373.725 -2.82021 1.60108 0
M  V30 3871 H 373.51 -2.18296 3.25713 0
M  V30 3872 H 375 -3.07441 2.82612 0
M  V30 3873 N 375.437 -1.54477 -0.31217 0
M  V30 3874 C 376.385 -1.85395 -1.40469 0
M  V30 3875 C 377.379 -0.726749 -1.53019 0
M  V30 3876 O 378.585 -0.910582 -1.55269 0
M  V30 3877 H 374.96 -0.587845 -0.46898 0
M  V30 3878 H 376.931 -2.76736 -1.11623 0
M  V30 3879 C 375.68 -2.10811 -2.76503 0
M  V30 3880 H 375.003 -2.97014 -2.67625 0
M  V30 3881 H 376.443 -2.3639 -3.51988 0
M  V30 3882 C 374.902 -0.903165 -3.24568 0
M  V30 3883 O 375.432 -0.118085 -4.01526 0
M  V30 3884 N 373.638 -0.711634 -2.81752 0
M  V30 3885 H 373.185 -1.35171 -2.19286 0
M  V30 3886 H 373.143 0.0930473 -3.14262 0
M  V30 3887 N 376.915 0.57481 -1.46744 0
M  V30 3888 C 377.845 1.69337 -1.60771 0
M  V30 3889 C 378.826 1.63825 -0.457736 0
M  V30 3890 O 380.011 1.8172 -0.684947 0
M  V30 3891 C 377.141 3.0798 -1.60517 0
M  V30 3892 C 376.095 3.28327 -2.74564 0
M  V30 3893 C 375.421 4.67578 -2.59373 0
M  V30 3894 C 376.721 3.15398 -4.16319 0
M  V30 3895 H 378.415 1.57853 -2.54407 0
M  V30 3896 H 375.961 0.75799 -1.22436 0
M  V30 3897 H 377.914 3.86061 -1.68923 0
M  V30 3898 H 376.638 3.20381 -0.634305 0
M  V30 3899 H 375.297 2.52649 -2.65639 0
M  V30 3900 H 374.945 4.76755 -1.60353 0
M  V30 3901 H 374.645 4.82144 -3.35873 0
M  V30 3902 H 376.169 5.47817 -2.69682 0
M  V30 3903 H 377.583 3.83315 -4.26313 0
M  V30 3904 H 375.98 3.41482 -4.93468 0
M  V30 3905 H 377.05 2.12372 -4.3592 0
M  V30 3906 N 378.394 1.34581 0.820102 0
M  V30 3907 C 379.642 1.26845 1.57336 0
M  V30 3908 C 379.963 -0.160667 1.94337 0
M  V30 3909 O 379.233 -1.09396 1.6251 0
M  V30 3910 H 377.813 0.466514 0.583415 0
M  V30 3911 H 380.475 1.68526 0.979027 0
M  V30 3912 H 379.571 1.87513 2.4949 0
M  V30 3913 N 379.872 -1.04064 1.18357 0
M  V30 3914 C 381.119 -1.77265 0.978947 0
M  V30 3915 C 381.447 -1.88189 -0.491428 0
M  V30 3916 O 380.702 -1.38653 -1.38108 0
M  V30 3917 C 381.001 -3.20634 1.57888 0
M  V30 3918 C 380.667 -3.29743 3.07539 0
M  V30 3919 C 379.329 -3.31937 3.48384 0
M  V30 3920 C 381.681 -3.29841 4.03552 0
M  V30 3921 C 379.009 -3.3187 4.83818 0
M  V30 3922 C 381.361 -3.31313 5.38901 0
M  V30 3923 C 380.025 -3.31799 5.79194 0
M  V30 3924 H 379.295 -0.648659 0.358222 0
M  V30 3925 H 381.942 -1.22225 1.47422 0
M  V30 3926 H 380.247 -3.78675 1.00561 0
M  V30 3927 H 381.944 -3.75917 1.39598 0
M  V30 3928 H 378.534 -3.28757 2.74986 0
M  V30 3929 H 382.718 -3.27337 3.73047 0
M  V30 3930 H 377.974 -3.30562 5.14333 0
M  V30 3931 H 382.148 -3.30338 6.13066 0
M  V30 3932 H 379.775 -3.315 6.84114 0
M  V30 3933 N 381.35 -0.985608 -1.22978 0
M  V30 3934 C 382.597 -0.657386 -1.91532 0
M  V30 3935 C 382.925 0.809707 -1.76845 0
M  V30 3936 O 382.18 1.60021 -1.12658 0
M  V30 3937 C 382.479 -1.00014 -3.43121 0
M  V30 3938 C 382.145 -2.4583 -3.77993 0
M  V30 3939 C 380.807 -2.85679 -3.87222 0
M  V30 3940 C 383.159 -3.40378 -3.94705 0
M  V30 3941 C 380.487 -4.19081 -4.10595 0
M  V30 3942 C 382.839 -4.73429 -4.1958 0
M  V30 3943 C 381.503 -5.1303 -4.27032 0
M  V30 3944 H 380.773 -0.240555 -0.700867 0
M  V30 3945 H 383.42 -1.24044 -1.45895 0
M  V30 3946 H 381.725 -0.335072 -3.90365 0
M  V30 3947 H 383.422 -0.724322 -3.94404 0
M  V30 3948 H 380.012 -2.13939 -3.71387 0
M  V30 3949 H 384.196 -3.10766 -3.8696 0
M  V30 3950 H 379.452 -4.49362 -4.14589 0
M  V30 3951 H 383.626 -5.46644 -4.31455 0
M  V30 3952 H 381.253 -6.16418 -4.44896 0
M  V30 3953 N 382.828 1.3818 -0.7579 0
M  V30 3954 C 384.058 2.04004 -0.326463 0
M  V30 3955 C 384.466 1.57286 1.05156 0
M  V30 3956 O 383.809 0.743144 1.67997 0
M  V30 3957 C 383.871 3.58444 -0.275402 0
M  V30 3958 C 383.535 4.28237 -1.59569 0
M  V30 3959 C 384.532 4.53312 -2.54566 0
M  V30 3960 C 382.217 4.66341 -1.86631 0
M  V30 3961 C 384.211 5.15531 -3.74842 0
M  V30 3962 C 381.898 5.28283 -3.0718 0
M  V30 3963 C 382.896 5.52814 -4.01106 0
M  V30 3964 O 382.584 6.13465 -5.19534 0
M  V30 3965 H 382.316 0.662026 -0.136739 0
M  V30 3966 H 384.87 1.7777 -1.02893 0
M  V30 3967 H 383.1 3.83667 0.483337 0
M  V30 3968 H 384.789 4.05701 0.127099 0
M  V30 3969 H 385.555 4.24299 -2.34936 0
M  V30 3970 H 381.434 4.46591 -1.14358 0
M  V30 3971 H 384.978 5.34594 -4.48168 0
M  V30 3972 H 380.875 5.56719 -3.26702 0
M  V30 3973 H 381.643 6.31951 -5.20173 0
M  V30 3974 N 384.306 0.507319 1.49211 0
M  V30 3975 C 385.554 -0.0348839 2.0207 0
M  V30 3976 C 385.875 -1.36898 1.38866 0
M  V30 3977 O 385.145 -1.88133 0.546151 0
M  V30 3978 H 383.725 -0.0158812 0.746831 0
M  V30 3979 H 386.387 0.665998 1.83168 0
M  V30 3980 H 385.483 -0.159917 3.1169 0
M  V30 3981 N 385.784 -1.5574 0.241426 0
M  V30 3982 C 386.731 -2.21149 -0.660432 0
M  V30 3983 C 387.701 -1.17356 -1.17545 0
M  V30 3984 O 388.886 -1.45784 -1.23093 0
M  V30 3985 C 386.026 -2.91059 -1.85414 0
M  V30 3986 C 385.139 -4.09495 -1.37616 0
M  V30 3987 C 384.274 -4.67135 -2.529 0
M  V30 3988 C 383.313 -5.77831 -2.01936 0
M  V30 3989 N 382.45 -6.29677 -3.10566 0
M  V30 3990 H 387.29 -2.97845 -0.095955 0
M  V30 3991 H 384.827 -1.47057 -0.0356024 0
M  V30 3992 H 386.785 -3.29788 -2.5553 0
M  V30 3993 H 385.415 -2.16846 -2.39118 0
M  V30 3994 H 384.467 -3.76117 -0.569235 0
M  V30 3995 H 385.779 -4.89423 -0.962618 0
M  V30 3996 H 384.933 -5.08409 -3.31067 0
M  V30 3997 H 383.672 -3.86411 -2.97553 0
M  V30 3998 H 382.677 -5.36039 -1.22238 0
M  V30 3999 H 383.902 -6.60402 -1.58259 0
M  V30 4000 H 381.848 -5.5186 -3.54664 0
M  V30 4001 H 381.765 -7.04783 -2.73526 0
M  V30 4002 H 383.033 -6.75609 -3.88809 0
M  V30 4003 N 387.262 0.0317525 -1.57568 0
M  V30 4004 C 388.172 1.05021 -2.0978 0
M  V30 4005 C 389.188 1.39809 -1.03583 0
M  V30 4006 O 390.364 1.49182 -1.35302 0
M  V30 4007 C 387.429 2.33301 -2.56459 0
M  V30 4008 C 386.49 2.0512 -3.77127 0
M  V30 4009 C 385.723 3.27283 -4.2157 0
M  V30 4010 O 385.946 4.37861 -3.65559 0
M  V30 4011 O 384.88 3.13141 -5.14029 0
M  V30 4012 H 388.706 0.636505 -2.96955 0
M  V30 4013 H 386.291 0.248559 -1.47318 0
M  V30 4014 H 388.173 3.08722 -2.86825 0
M  V30 4015 H 386.848 2.73973 -1.72397 0
M  V30 4016 H 385.755 1.27276 -3.51784 0
M  V30 4017 H 387.088 1.69305 -4.62165 0
M  V30 4018 N 388.74 1.54641 0.303973 0
M  V30 4019 C 390.017 1.64455 1.05896 0
M  V30 4020 C 390.397 0.490923 2.05312 0
M  V30 4021 O 389.745 -0.512685 2.22674 0
M  V30 4022 C 389.955 3.02331 1.74347 0
M  V30 4023 C 391.303 3.59045 2.26653 0
M  V30 4024 O 392.327 3.04764 1.84384 0
M  V30 4025 O 391.186 4.54081 3.04093 0
M  V30 4026 H 388.28 0.666729 0.489287 0
M  V30 4027 H 390.826 1.66986 0.302298 0
M  V30 4028 H 389.598 3.77734 1.02142 0
M  V30 4029 H 389.221 3.03565 2.56777 0
M  V30 4030 N 390.218 -0.567019 1.47046 0
M  V30 4031 C 391.466 -1.322 1.52864 0
M  V30 4032 C 391.787 -1.94088 0.188388 0
M  V30 4033 O 391.057 -1.7941 -0.786693 0
M  V30 4034 H 389.637 -0.490894 0.563056 0
M  V30 4035 H 392.299 -0.662879 1.83281 0
M  V30 4036 H 391.395 -2.12062 2.2899 0
M  V30 4037 N 391.696 -1.35014 -0.812953 0
M  V30 4038 C 392.921 -1.31187 -1.60639 0
M  V30 4039 C 393.346 0.109382 -1.87782 0
M  V30 4040 O 392.704 1.07424 -1.46047 0
M  V30 4041 C 392.752 -2.11809 -2.91838 0
M  V30 4042 O 391.856 -1.49444 -3.8437 0
M  V30 4043 H 391.197 -0.450084 -0.488181 0
M  V30 4044 H 393.727 -1.77963 -1.00947 0
M  V30 4045 H 393.737 -2.23531 -3.41318 0
M  V30 4046 H 392.412 -3.15137 -2.71407 0
M  V30 4047 H 390.989 -1.46524 -3.42907 0
M  V30 4048 N 393.175 1.03435 -1.18907 0
M  V30 4049 C 394.138 2.09756 -0.923844 0
M  V30 4050 C 395.138 1.60528 0.093416 0
M  V30 4051 O 396.328 1.73631 -0.140727 0
M  V30 4052 C 393.46 3.38692 -0.387354 0
M  V30 4053 H 394.653 2.34719 -1.86674 0
M  V30 4054 H 392.206 1.19959 -1.00197 0
M  V30 4055 H 392.941 3.19396 0.561845 0
M  V30 4056 H 392.726 3.75742 -1.12074 0
M  V30 4057 H 394.216 4.17016 -0.220694 0
M  V30 4058 N 394.653 0.992116 1.22453 0
M  V30 4059 C 396.069 0.702713 1.43297 0
M  V30 4060 C 396.269 -0.726909 1.87932 0
M  V30 4061 O 395.325 -1.49792 2.0327 0
M  V30 4062 C 396.638 1.70762 2.47509 0
M  V30 4063 C 398.186 1.72298 2.61309 0
M  V30 4064 C 398.661 2.71649 3.68742 0
M  V30 4065 N 400.152 2.70239 3.76199 0
M  V30 4066 C 400.887 3.43778 4.58917 0
M  V30 4067 N 400.383 4.26914 5.45633 0
M  V30 4068 N 402.176 3.32487 4.5322 0
M  V30 4069 H 394.327 1.91543 0.917871 0
M  V30 4070 H 396.59 0.826031 0.465162 0
M  V30 4071 H 396.296 2.73059 2.21657 0
M  V30 4072 H 396.17 1.49985 3.46099 0
M  V30 4073 H 398.557 0.706989 2.86506 0
M  V30 4074 H 398.638 1.97143 1.62997 0
M  V30 4075 H 398.282 3.73397 3.44292 0
M  V30 4076 H 398.212 2.44074 4.66622 0
M  V30 4077 H 400.703 2.09912 3.14237 0
M  V30 4078 H 401.016 4.79855 6.05771 0
M  V30 4079 H 399.361 4.31002 5.45218 0
M  V30 4080 H 402.552 2.6698 3.84499 0
M  V30 4081 H 402.725 3.90058 5.17454 0
M  V30 4082 N 396.131 -1.37776 0.765217 0
M  V30 4083 C 397.094 -2.28686 0.153416 0
M  V30 4084 C 398.094 -1.47727 -0.635081 0
M  V30 4085 O 399.284 -1.68027 -0.459632 0
M  V30 4086 C 396.416 -3.31608 -0.790495 0
M  V30 4087 H 397.609 -2.84297 0.954723 0
M  V30 4088 H 395.162 -1.46932 0.53299 0
M  V30 4089 H 395.897 -2.81109 -1.61705 0
M  V30 4090 H 395.682 -3.9144 -0.227348 0
M  V30 4091 H 397.172 -3.99559 -1.21419 0
M  V30 4092 N 397.609 -0.515225 -1.4894 0
M  V30 4093 C 398.857 0.0241671 -2.02086 0
M  V30 4094 C 399.178 1.3616 -1.3959 0
M  V30 4095 O 398.448 1.87841 -0.556121 0
M  V30 4096 H 397.028 0.0119203 -0.746905 0
M  V30 4097 H 399.69 -0.675702 -1.82812 0
M  V30 4098 H 398.786 0.143385 -3.1177 0
M  V30 4099 N 399.087 1.5561 -0.249682 0
M  V30 4100 C 400.364 1.90932 0.424761 0
M  V30 4101 C 400.744 1.17078 1.75658 0
M  V30 4102 O 400.092 0.289176 2.26663 0
M  V30 4103 C 400.302 3.43975 0.590109 0
M  V30 4104 C 401.65 4.15281 0.884714 0
M  V30 4105 O 402.674 3.49729 0.67587 0
M  V30 4106 O 401.533 5.31236 1.28259 0
M  V30 4107 H 398.627 0.794815 0.228468 0
M  V30 4108 H 401.173 1.67135 -0.293954 0
M  V30 4109 H 399.945 3.89748 -0.34818 0
M  V30 4110 H 399.568 3.73644 1.35926 0
M  V30 4111 N 400.565 -0.0233959 1.57583 0
M  V30 4112 C 401.498 -1.05549 2.02323 0
M  V30 4113 C 402.476 -1.34843 0.908626 0
M  V30 4114 O 403.66 -1.47404 1.17491 0
M  V30 4115 C 400.787 -2.38885 2.40108 0
M  V30 4116 C 399.833 -2.2541 3.62067 0
M  V30 4117 S 400.666 -1.60217 5.1097 0
M  V30 4118 C 401.822 -2.95032 5.52003 0
M  V30 4119 H 402.055 -0.674435 2.89549 0
M  V30 4120 H 399.588 -0.23355 1.52623 0
M  V30 4121 H 401.546 -3.15562 2.62547 0
M  V30 4122 H 400.207 -2.74137 1.53323 0
M  V30 4123 H 399.4 -3.23854 3.86179 0
M  V30 4124 H 399.002 -1.56876 3.39508 0
M  V30 4125 H 401.294 -3.91357 5.53033 0
M  V30 4126 H 402.237 -2.75646 6.52246 0
M  V30 4127 H 402.645 -2.97865 4.79517 0
M  V30 4128 N 402.043 -1.548 -0.295768 0
M  V30 4129 C 402.953 -1.89177 -1.38742 0
M  V30 4130 C 403.969 -0.786481 -1.55211 0
M  V30 4131 O 405.145 -1.08344 -1.69775 0
M  V30 4132 C 402.21 -2.13663 -2.73036 0
M  V30 4133 C 401.271 -3.37349 -2.65508 0
M  V30 4134 C 400.504 -3.60658 -3.93398 0
M  V30 4135 O 400.727 -2.86882 -4.93006 0
M  V30 4136 O 399.661 -4.54179 -3.94975 0
M  V30 4137 H 403.487 -2.82059 -1.12589 0
M  V30 4138 H 401.072 -1.41056 -0.492295 0
M  V30 4139 H 402.954 -2.3094 -3.52484 0
M  V30 4140 H 401.629 -1.23967 -2.99022 0
M  V30 4141 H 400.536 -3.25431 -1.84514 0
M  V30 4142 H 401.869 -4.27192 -2.44474 0
M  V30 4143 N 403.521 0.559213 -1.47345 0
M  V30 4144 C 404.469 1.68747 -1.60085 0
M  V30 4145 C 405.463 1.628 -0.46825 0
M  V30 4146 O 406.669 1.68009 -0.645977 0
M  V30 4147 H 403.044 0.558329 -0.503759 0
M  V30 4148 H 405.015 1.55138 -2.54902 0
M  V30 4149 C 403.764 3.07103 -1.63042 0
M  V30 4150 H 403.087 3.12361 -2.49541 0
M  V30 4151 H 404.527 3.85743 -1.76006 0
M  V30 4152 C 402.986 3.34935 -0.363357 0
M  V30 4153 O 403.516 3.98102 0.536416 0
M  V30 4154 N 401.722 2.89574 -0.244 0
M  V30 4155 H 401.269 2.38348 -0.977133 0
M  V30 4156 H 401.227 3.08566 0.602836 0
M  V30 4157 N 404.999 1.35443 0.805782 0
M  V30 4158 C 406.415 1.15499 1.10146 0
M  V30 4159 C 406.615 -0.0319975 2.01475 0
M  V30 4160 O 405.671 -0.70236 2.42535 0
M  V30 4161 C 406.984 2.45833 1.73166 0
M  V30 4162 C 408.532 2.52047 1.85583 0
M  V30 4163 C 409.007 3.82427 2.52019 0
M  V30 4164 N 410.498 3.83682 2.59504 0
M  V30 4165 C 411.233 4.81294 3.11679 0
M  V30 4166 N 410.729 5.89294 3.64287 0
M  V30 4167 N 412.522 4.6873 3.1024 0
M  V30 4168 H 404.673 2.11469 0.198678 0
M  V30 4169 H 406.936 0.93594 0.150731 0
M  V30 4170 H 406.642 3.32874 1.13526 0
M  V30 4171 H 406.516 2.6044 2.72857 0
M  V30 4172 H 408.903 1.65435 2.44367 0
M  V30 4173 H 408.984 2.41354 0.847455 0
M  V30 4174 H 408.628 4.69437 1.93885 0
M  V30 4175 H 408.558 3.90409 3.53395 0
M  V30 4176 H 411.049 3.05648 2.22234 0
M  V30 4177 H 411.362 6.59768 4.02401 0
M  V30 4178 H 409.707 5.92985 3.62483 0
M  V30 4179 H 412.898 3.83496 2.68419 0
M  V30 4180 H 413.071 5.44965 3.50596 0
M  V30 4181 N 406.477 -1.02803 1.19454 0
M  V30 4182 C 407.705 -1.79841 1.02297 0
M  V30 4183 C 408.12 -1.83879 -0.428259 0
M  V30 4184 O 407.477 -1.28345 -1.29745 0
M  V30 4185 C 407.528 -3.24852 1.58598 0
M  V30 4186 O 407.249 -3.21097 2.98041 0
M  V30 4187 C 408.75 -4.18485 1.46236 0
M  V30 4188 H 405.97 -0.565936 0.360496 0
M  V30 4189 H 408.514 -1.2948 1.58288 0
M  V30 4190 H 406.669 -3.72401 1.06753 0
M  V30 4191 H 407.083 -4.12033 3.24545 0
M  V30 4192 H 408.557 -5.18121 1.90407 0
M  V30 4193 H 409.034 -4.37254 0.41301 0
M  V30 4194 H 409.64 -3.76811 1.97215 0
M  V30 4195 N 407.956 -0.998596 -1.21925 0
M  V30 4196 C 409.202 -0.688337 -1.91399 0
M  V30 4197 C 409.557 0.771805 -1.76241 0
M  V30 4198 O 408.85 1.55153 -1.1242 0
M  V30 4199 C 409.044 -1.03648 -3.42041 0
M  V30 4200 C 408.873 -2.52892 -3.71855 0
M  V30 4201 C 407.643 -3.19389 -3.91559 0
M  V30 4202 C 409.841 -3.5103 -3.75875 0
M  V30 4203 N 407.823 -4.5805 -4.08734 0
M  V30 4204 C 409.194 -4.75174 -3.98259 0
M  V30 4205 C 411.249 -3.45257 -3.58751 0
M  V30 4206 C 409.952 -5.94247 -4.05294 0
M  V30 4207 C 411.978 -4.63712 -3.67049 0
M  V30 4208 C 411.34 -5.86658 -3.89887 0
M  V30 4209 H 407.439 -0.303251 -0.720807 0
M  V30 4210 H 410.023 -1.27977 -1.46731 0
M  V30 4211 H 408.194 -0.473569 -3.85502 0
M  V30 4212 H 409.926 -0.681619 -3.98919 0
M  V30 4213 H 406.681 -2.69846 -3.89205 0
M  V30 4214 H 407.105 -5.29989 -4.21237 0
M  V30 4215 H 411.747 -2.51215 -3.40075 0
M  V30 4216 H 409.465 -6.88687 -4.22772 0
M  V30 4217 H 413.051 -4.6084 -3.5513 0
M  V30 4218 H 411.931 -6.76786 -3.96144 0
M  V30 4219 N 409.434 1.37368 -0.772513 0
M  V30 4220 C 410.659 2.0447 -0.347386 0
M  V30 4221 C 411.084 1.57882 1.0225 0
M  V30 4222 O 410.442 0.73941 1.65537 0
M  V30 4223 C 410.49 3.58369 -0.400479 0
M  V30 4224 O 409.594 4.0803 0.598789 0
M  V30 4225 H 408.935 0.646773 -0.15027 0
M  V30 4226 H 411.465 1.75667 -1.04892 0
M  V30 4227 H 411.475 4.07183 -0.258045 0
M  V30 4228 H 410.15 3.91633 -1.39986 0
M  V30 4229 H 408.727 3.70534 0.419411 0
M  V30 4230 N 410.912 0.523116 1.48665 0
M  V30 4231 C 412.16 -0.0134497 2.02096 0
M  V30 4232 C 412.481 -1.35418 1.40311 0
M  V30 4233 O 411.751 -1.87543 0.566074 0
M  V30 4234 H 410.331 -0.00795915 0.746958 0
M  V30 4235 H 412.993 0.685388 1.82451 0
M  V30 4236 H 412.089 -0.126849 3.11842 0
M  V30 4237 N 412.39 -1.55475 0.257931 0
M  V30 4238 C 413.32 -2.24815 -0.630912 0
M  V30 4239 C 414.301 -1.23224 -1.17259 0
M  V30 4240 O 415.486 -1.51904 -1.20991 0
M  V30 4241 C 412.616 -2.95609 -1.82298 0
M  V30 4242 C 411.57 -4.03982 -1.41359 0
M  V30 4243 C 410.896 -4.6226 -2.68738 0
M  V30 4244 C 412.196 -5.19109 -0.57648 0
M  V30 4245 H 413.89 -2.99354 -0.0526878 0
M  V30 4246 H 411.436 -1.4398 -0.023901 0
M  V30 4247 H 413.389 -3.42822 -2.45054 0
M  V30 4248 H 412.113 -2.18577 -2.42676 0
M  V30 4249 H 410.772 -3.57555 -0.809324 0
M  V30 4250 H 410.42 -3.81915 -3.27338 0
M  V30 4251 H 410.12 -5.35424 -2.42065 0
M  V30 4252 H 411.644 -5.12212 -3.32372 0
M  V30 4253 H 413.058 -5.62479 -1.10861 0
M  V30 4254 H 411.455 -5.98729 -0.405351 0
M  V30 4255 H 412.525 -4.83174 0.408776 0
M  V30 4256 N 413.868 0.0150385 -1.57593 0
M  V30 4257 C 415.115 0.703001 -1.89906 0
M  V30 4258 C 415.443 1.74604 -0.856944 0
M  V30 4259 O 414.698 1.95197 0.140287 0
M  V30 4260 C 414.997 1.39686 -3.28972 0
M  V30 4261 C 414.663 0.488457 -4.48246 0
M  V30 4262 C 413.325 0.2383 -4.8061 0
M  V30 4263 C 415.677 -0.137881 -5.21018 0
M  V30 4264 C 413.005 -0.646738 -5.83125 0
M  V30 4265 C 415.357 -1.0107 -6.24474 0
M  V30 4266 C 414.021 -1.27019 -6.55303 0
M  V30 4267 H 413.291 0.257246 -0.694914 0
M  V30 4268 H 415.938 -0.037259 -1.91464 0
M  V30 4269 H 414.243 2.21079 -3.23468 0
M  V30 4270 H 415.94 1.93495 -3.51227 0
M  V30 4271 H 412.53 0.693593 -4.22951 0
M  V30 4272 H 416.714 0.0423953 -4.96282 0
M  V30 4273 H 411.97 -0.855937 -6.05379 0
M  V30 4274 H 416.144 -1.50247 -6.79999 0
M  V30 4275 H 413.771 -1.95769 -7.3456 0
M  V30 4276 N 415.346 1.54954 0.287554 0
M  V30 4277 C 416.571 1.79209 1.04397 0
M  V30 4278 C 416.996 0.556431 1.79682 0
M  V30 4279 O 416.354 -0.493518 1.74454 0
M  V30 4280 C 416.402 3.00739 1.98969 0
M  V30 4281 O 415.506 2.74805 3.075 0
M  V30 4282 H 414.847 0.592755 0.299227 0
M  V30 4283 H 417.377 2.02068 0.320886 0
M  V30 4284 H 417.387 3.29077 2.4119 0
M  V30 4285 H 416.062 3.90329 1.43582 0
M  V30 4286 H 414.639 2.57523 2.69697 0
M  V30 4287 N 416.824 -0.551391 1.4764 0
M  V30 4288 C 417.787 -1.64007 1.60107 0
M  V30 4289 C 418.787 -1.53601 0.47576 0
M  V30 4290 O 419.977 -1.57655 0.740988 0
M  V30 4291 C 417.109 -3.03569 1.55108 0
M  V30 4292 H 418.302 -1.543 2.57161 0
M  V30 4293 H 415.855 -0.771776 1.35917 0
M  V30 4294 H 416.59 -3.18804 0.594519 0
M  V30 4295 H 416.375 -3.12532 2.36783 0
M  V30 4296 H 417.865 -3.82762 1.66982 0
M  V30 4297 N 418.302 -1.35869 -0.798587 0
M  V30 4298 C 419.249 -1.29446 -1.91082 0
M  V30 4299 C 420.219 -0.16487 -1.6528 0
M  V30 4300 O 421.404 -0.349888 -1.87564 0
M  V30 4301 C 418.544 -1.0804 -3.27752 0
M  V30 4302 C 417.657 -2.29993 -3.65687 0
M  V30 4303 C 416.792 -2.01673 -4.91428 0
M  V30 4304 C 415.831 -3.19636 -5.22015 0
M  V30 4305 N 414.968 -2.91039 -6.38937 0
M  V30 4306 H 419.808 -2.24553 -1.95907 0
M  V30 4307 H 417.345 -1.11615 -0.958148 0
M  V30 4308 H 419.303 -0.936586 -4.06551 0
M  V30 4309 H 417.933 -0.16592 -3.22373 0
M  V30 4310 H 416.985 -2.55211 -2.82085 0
M  V30 4311 H 418.297 -3.18052 -3.84245 0
M  V30 4312 H 417.451 -1.84168 -5.78072 0
M  V30 4313 H 416.19 -1.10911 -4.74921 0
M  V30 4314 H 415.195 -3.37709 -4.33858 0
M  V30 4315 H 416.42 -4.11211 -5.40447 0
M  V30 4316 H 414.366 -2.0288 -6.2384 0
M  V30 4317 H 414.283 -3.72635 -6.57784 0
M  V30 4318 H 415.551 -2.77093 -7.28587 0
M  V30 4319 N 419.78 1.02168 -1.19998 0
M  V30 4320 C 421.01 1.79036 -1.031 0
M  V30 4321 C 421.418 1.84409 0.423078 0
M  V30 4322 O 420.761 1.29228 1.30559 0
M  V30 4323 C 420.823 3.25185 -1.53281 0
M  V30 4324 C 420.487 3.43431 -3.01503 0
M  V30 4325 C 421.484 3.33063 -3.99206 0
M  V30 4326 C 419.169 3.69412 -3.40353 0
M  V30 4327 C 421.163 3.48413 -5.33748 0
M  V30 4328 C 418.85 3.84406 -4.75053 0
M  V30 4329 C 419.848 3.7391 -5.71559 0
M  V30 4330 O 419.536 3.88452 -7.03818 0
M  V30 4331 H 419.268 0.570043 -0.363355 0
M  V30 4332 H 421.822 1.29524 -1.59414 0
M  V30 4333 H 420.052 3.75756 -0.913483 0
M  V30 4334 H 421.741 3.83671 -1.32481 0
M  V30 4335 H 422.507 3.12934 -3.70537 0
M  V30 4336 H 418.386 3.76671 -2.65782 0
M  V30 4337 H 421.93 3.40137 -6.09059 0
M  V30 4338 H 417.827 4.04035 -5.03415 0
M  V30 4339 H 418.595 4.055 -7.10993 0
M  V30 4340 N 421.258 1.00505 1.21394 0
M  V30 4341 C 422.506 0.686415 1.90086 0
M  V30 4342 C 422.827 -0.785264 1.7849 0
M  V30 4343 O 422.097 -1.56387 1.17983 0
M  V30 4344 H 420.677 0.2509 0.703604 0
M  V30 4345 H 423.339 1.27417 1.47482 0
M  V30 4346 H 422.435 0.959621 2.96981 0
M  V30 4347 N 422.737 -1.36956 0.779787 0
M  V30 4348 C 423.985 -1.99097 0.347079 0
M  V30 4349 C 424.306 -1.62206 -1.08232 0
M  V30 4350 O 423.576 -0.891373 -1.74446 0
M  V30 4351 H 422.156 -0.736409 0.125342 0
M  V30 4352 H 424.818 -1.67308 0.999696 0
M  V30 4353 H 423.914 -3.09107 0.431162 0
M  V30 4354 N 424.215 -0.530993 -1.48385 0
M  V30 4355 C 425.163 0.244595 -2.3131 0
M  V30 4356 C 426.157 0.93451 -1.41291 0
M  V30 4357 O 427.363 0.85878 -1.58193 0
M  V30 4358 H 423.738 0.0977472 -0.74562 0
M  V30 4359 H 425.709 -0.474369 -2.94605 0
M  V30 4360 C 424.458 1.2779 -3.23365 0
M  V30 4361 H 423.781 0.756439 -3.92579 0
M  V30 4362 H 425.221 1.79198 -3.84271 0
M  V30 4363 C 423.68 2.31205 -2.45042 0
M  V30 4364 O 424.21 3.37661 -2.17596 0
M  V30 4365 N 422.416 2.04446 -2.0652 0
M  V30 4366 H 421.963 1.17891 -2.2904 0
M  V30 4367 H 421.921 2.73861 -1.54427 0
M  V30 4368 N 425.693 1.55336 -0.266172 0
M  V30 4369 C 426.921 2.03801 0.356756 0
M  V30 4370 C 427.336 1.14485 1.50129 0
M  V30 4371 O 426.693 0.163121 1.8177 0
M  V30 4372 C 426.744 3.51455 0.846281 0
M  V30 4373 O 426.465 4.37371 -0.252663 0
M  V30 4374 C 427.966 4.15767 1.53794 0
M  V30 4375 H 425.186 0.665906 0.0825218 0
M  V30 4376 H 427.73 2.00636 -0.39566 0
M  V30 4377 H 425.885 3.55092 1.54881 0
M  V30 4378 H 426.299 5.24358 0.122173 0
M  V30 4379 H 427.773 5.20714 1.83198 0
M  V30 4380 H 428.25 3.63404 2.46646 0
M  V30 4381 H 428.856 4.16107 0.879488 0
M  V30 4382 N 427.171 -0.0066808 1.57599 0
M  V30 4383 C 428.418 -0.69292 1.90276 0
M  V30 4384 C 428.746 -1.74148 0.866192 0
M  V30 4385 O 428.001 -1.95268 -0.129933 0
M  V30 4386 C 428.3 -1.37939 3.29708 0
M  V30 4387 C 427.966 -0.464679 4.48499 0
M  V30 4388 C 426.628 -0.212809 4.80729 0
M  V30 4389 C 428.98 0.16551 5.20937 0
M  V30 4390 C 426.308 0.677653 5.82773 0
M  V30 4391 C 428.66 1.04381 6.23929 0
M  V30 4392 C 427.324 1.30492 6.54621 0
M  V30 4393 H 426.594 -0.253558 0.696268 0
M  V30 4394 H 429.241 0.0474123 1.91441 0
M  V30 4395 H 427.546 -2.1936 3.24636 0
M  V30 4396 H 429.243 -1.9163 3.52249 0
M  V30 4397 H 425.833 -0.671153 4.23313 0
M  V30 4398 H 430.017 -0.0160756 4.96297 0
M  V30 4399 H 425.273 0.88803 6.04917 0
M  V30 4400 H 429.447 1.53851 6.79193 0
M  V30 4401 H 427.074 1.99662 7.33512 0
M  V30 4402 N 428.649 -1.55105 -0.279332 0
M  V30 4403 C 429.879 -1.7917 -1.02867 0
M  V30 4404 C 430.287 -0.56204 -1.80659 0
M  V30 4405 O 429.63 0.478266 -1.77365 0
M  V30 4406 C 429.692 -2.96061 -2.03932 0
M  V30 4407 C 429.356 -4.33341 -1.45137 0
M  V30 4408 C 430.353 -5.12565 -0.870266 0
M  V30 4409 C 428.038 -4.79987 -1.48048 0
M  V30 4410 C 430.032 -6.36565 -0.326097 0
M  V30 4411 C 427.719 -6.03944 -0.932443 0
M  V30 4412 C 428.717 -6.8207 -0.356247 0
M  V30 4413 O 428.405 -8.03691 0.183412 0
M  V30 4414 H 428.137 -0.600796 -0.309872 0
M  V30 4415 H 430.691 -2.02932 -0.317468 0
M  V30 4416 H 428.921 -2.67975 -2.78794 0
M  V30 4417 H 430.61 -3.07506 -2.64943 0
M  V30 4418 H 431.376 -4.77661 -0.840521 0
M  V30 4419 H 427.255 -4.1919 -1.91835 0
M  V30 4420 H 430.799 -6.97489 0.124286 0
M  V30 4421 H 426.696 -6.3833 -0.959407 0
M  V30 4422 H 427.464 -8.18468 0.0721681 0
M  V30 4423 N 430.127 0.543554 -1.4793 0
M  V30 4424 C 431.373 1.30201 -1.55485 0
M  V30 4425 C 431.706 1.92925 -0.222201 0
M  V30 4426 O 430.981 1.78586 0.77053 0
M  V30 4427 C 431.264 2.40174 -2.68307 0
M  V30 4428 C 431.117 1.8223 -4.11233 0
M  V30 4429 C 432.436 3.42024 -2.76961 0
M  V30 4430 H 429.555 0.472036 -0.565996 0
M  V30 4431 H 432.197 0.606914 -1.80046 0
M  V30 4432 H 430.347 2.99463 -2.47495 0
M  V30 4433 H 432.019 1.27096 -4.43446 0
M  V30 4434 H 430.262 1.12832 -4.18869 0
M  V30 4435 H 430.933 2.61793 -4.85972 0
M  V30 4436 H 433.409 2.92672 -2.95774 0
M  V30 4437 H 432.285 4.16383 -3.57654 0
M  V30 4438 H 432.546 4.0173 -1.84568 0
M  V30 4439 N 431.605 1.3629 0.791371 0
M  V30 4440 C 432.853 1.30154 1.5461 0
M  V30 4441 C 433.174 -0.119409 1.94634 0
M  V30 4442 O 432.444 -1.05924 1.64794 0
M  V30 4443 H 431.024 0.478784 0.573389 0
M  V30 4444 H 433.686 1.70565 0.94306 0
M  V30 4445 H 432.782 1.92762 2.45457 0
M  V30 4446 N 433.083 -1.0153 1.20538 0
M  V30 4447 C 434.013 -2.11972 0.979295 0
M  V30 4448 C 434.994 -1.6985 -0.0921787 0
M  V30 4449 O 436.179 -1.94089 0.0655932 0
M  V30 4450 C 433.309 -3.43201 0.531984 0
M  V30 4451 C 432.263 -3.9907 1.54685 0
M  V30 4452 C 431.589 -5.26082 0.956127 0
M  V30 4453 C 432.889 -4.32313 2.93092 0
M  V30 4454 H 434.583 -2.31143 1.90298 0
M  V30 4455 H 432.129 -1.11079 0.916372 0
M  V30 4456 H 434.082 -4.1985 0.361044 0
M  V30 4457 H 432.806 -3.23792 -0.427327 0
M  V30 4458 H 431.465 -3.2453 1.70517 0
M  V30 4459 H 431.113 -5.02999 -0.0111538 0
M  V30 4460 H 430.813 -5.64426 1.63393 0
M  V30 4461 H 432.337 -6.05386 0.796284 0
M  V30 4462 H 433.751 -4.99845 2.80763 0
M  V30 4463 H 432.148 -4.81774 3.57791 0
M  V30 4464 H 433.218 -3.41025 3.44717 0
M  V30 4465 N 434.561 -1.01147 -1.20859 0
M  V30 4466 C 435.493 -0.535546 -2.22855 0
M  V30 4467 C 436.506 0.379323 -1.58319 0
M  V30 4468 O 437.695 0.178489 -1.77605 0
M  V30 4469 C 434.795 0.240962 -3.38042 0
M  V30 4470 C 433.968 -0.674562 -4.32167 0
M  V30 4471 C 433.027 0.053467 -5.26173 0
M  V30 4472 O 432.053 -0.567339 -5.66366 0
M  V30 4473 N 433.255 1.32997 -5.65059 0
M  V30 4474 H 436.02 -1.41268 -2.64317 0
M  V30 4475 H 433.581 -0.888386 -1.35349 0
M  V30 4476 H 435.573 0.737115 -3.97931 0
M  V30 4477 H 434.143 1.01935 -2.95513 0
M  V30 4478 H 433.363 -1.35111 -3.70322 0
M  V30 4479 H 434.651 -1.2974 -4.91981 0
M  V30 4480 H 434.049 1.85536 -5.34409 0
M  V30 4481 H 432.606 1.77095 -6.2728 0
M  V30 4482 N 436.039 1.36541 -0.78704 0
M  V30 4483 C 436.986 2.30082 -0.181901 0
M  V30 4484 C 437.956 1.5186 0.672896 0
M  V30 4485 O 439.141 1.80374 0.622072 0
M  V30 4486 C 436.281 3.3835 0.679197 0
M  V30 4487 C 435.394 4.31565 -0.193882 0
M  V30 4488 C 434.529 5.26915 0.673364 0
M  V30 4489 C 433.568 6.11769 -0.201315 0
M  V30 4490 N 432.705 6.99315 0.624777 0
M  V30 4491 H 437.545 2.81248 -0.985064 0
M  V30 4492 H 435.082 1.38437 -0.497342 0
M  V30 4493 H 437.04 3.99767 1.19341 0
M  V30 4494 H 435.67 2.8851 1.44781 0
M  V30 4495 H 434.722 3.71323 -0.826044 0
M  V30 4496 H 436.034 4.91191 -0.867937 0
M  V30 4497 H 435.188 5.9361 1.25348 0
M  V30 4498 H 433.927 4.67737 1.38105 0
M  V30 4499 H 432.932 5.44039 -0.793849 0
M  V30 4500 H 434.157 6.73022 -0.906568 0
M  V30 4501 H 432.103 6.42648 1.3168 0
M  V30 4502 H 432.02 7.56 0.00835237 0
M  V30 4503 H 433.288 7.70382 1.18879 0
M  V30 4504 N 437.518 0.538854 1.48102 0
M  V30 4505 C 438.448 -0.207654 2.32575 0
M  V30 4506 C 439.429 -0.926559 1.4265 0
M  V30 4507 O 440.614 -0.91061 1.71527 0
M  V30 4508 C 437.744 -1.24957 3.24042 0
M  V30 4509 C 436.698 -0.648263 4.23062 0
M  V30 4510 C 436.024 -1.79348 5.03725 0
M  V30 4511 C 437.324 0.385897 5.20872 0
M  V30 4512 H 439.018 0.497534 2.95237 0
M  V30 4513 H 436.564 0.240715 1.41974 0
M  V30 4514 H 438.517 -1.77983 3.81969 0
M  V30 4515 H 437.241 -1.98446 2.59397 0
M  V30 4516 H 435.9 -0.139452 3.66335 0
M  V30 4517 H 435.548 -2.51696 4.35498 0
M  V30 4518 H 435.248 -1.39702 5.70751 0
M  V30 4519 H 436.772 -2.32735 5.64506 0
M  V30 4520 H 438.186 -0.057607 5.73271 0
M  V30 4521 H 436.583 0.700227 5.96001 0
M  V30 4522 H 437.653 1.28848 4.67468 0
M  V30 4523 N 438.996 -1.55193 0.274407 0
M  V30 4524 C 440.224 -2.03987 -0.345943 0
M  V30 4525 C 440.639 -1.15279 -1.4952 0
M  V30 4526 O 439.996 -0.172759 -1.8168 0
M  V30 4527 C 440.047 -3.51898 -0.827631 0
M  V30 4528 O 439.768 -4.37231 0.275855 0
M  V30 4529 C 441.269 -4.16577 -1.51587 0
M  V30 4530 H 438.489 -0.666335 -0.0789892 0
M  V30 4531 H 441.033 -2.00423 0.406294 0
M  V30 4532 H 439.188 -3.55909 -1.52996 0
M  V30 4533 H 439.602 -5.24415 -0.0943638 0
M  V30 4534 H 441.076 -5.21678 -1.80433 0
M  V30 4535 H 441.553 -3.64707 -2.44716 0
M  V30 4536 H 442.159 -4.16568 -0.857409 0
M  V30 4537 N 440.474 -0.00167713 -1.576 0
M  V30 4538 C 441.722 0.681471 -1.90264 0
M  V30 4539 C 442.043 1.7422 -0.875924 0
M  V30 4540 O 441.313 1.95709 0.0864412 0
M  V30 4541 H 439.893 0.254696 -0.702239 0
M  V30 4542 H 442.555 -0.0429996 -1.94853 0
M  V30 4543 H 441.651 1.15166 -2.90075 0
M  V30 4544 N 441.952 1.55251 0.271103 0
M  V30 4545 C 443.229 1.66664 1.02384 0
M  V30 4546 C 443.609 0.534363 2.04225 0
M  V30 4547 O 442.957 -0.465337 2.23712 0
M  V30 4548 C 443.167 3.05961 1.67895 0
M  V30 4549 C 444.515 3.63772 2.18986 0
M  V30 4550 O 445.539 3.08606 1.77878 0
M  V30 4551 O 444.398 4.60429 2.94393 0
M  V30 4552 H 441.492 0.676957 0.475035 0
M  V30 4553 H 444.038 1.67589 0.26681 0
M  V30 4554 H 442.81 3.79815 0.941071 0
M  V30 4555 H 442.433 3.08943 2.5028 0
M  V30 4556 N 443.43 -0.535701 1.48216 0
M  V30 4557 C 444.655 -1.32149 1.59848 0
M  V30 4558 C 445.08 -1.86338 0.256842 0
M  V30 4559 O 444.438 -1.64107 -0.770632 0
M  V30 4560 C 444.486 -2.45224 2.64381 0
M  V30 4561 O 443.59 -3.48093 2.21144 0
M  V30 4562 H 442.931 -0.391634 0.536208 0
M  V30 4563 H 445.461 -0.645202 1.94161 0
M  V30 4564 H 445.471 -2.91491 2.85476 0
M  V30 4565 H 444.146 -2.05143 3.61786 0
M  V30 4566 H 442.723 -3.07984 2.10239 0
M  V30 4567 N 444.908 -1.36708 -0.784132 0
M  V30 4568 C 445.871 -1.31307 -1.87859 0
M  V30 4569 C 446.871 -0.219654 -1.59293 0
M  V30 4570 O 448.061 -0.47476 -1.67606 0
M  V30 4571 C 445.193 -1.03679 -3.24751 0
M  V30 4572 H 446.386 -2.28647 -1.94064 0
M  V30 4573 H 443.939 -1.21558 -0.98252 0
M  V30 4574 H 444.674 -0.0681936 -3.24228 0
M  V30 4575 H 444.459 -1.82811 -3.46876 0
M  V30 4576 H 445.949 -1.02518 -4.04821 0
M  V30 4577 N 446.386 1.0089 -1.21074 0
M  V30 4578 C 447.632 1.7497 -1.03717 0
M  V30 4579 C 447.987 1.8764 0.425344 0
M  V30 4580 O 447.28 1.39679 1.3115 0
M  V30 4581 C 447.474 3.16335 -1.66334 0
M  V30 4582 C 447.303 3.17449 -3.18522 0
M  V30 4583 C 446.073 3.2425 -3.87543 0
M  V30 4584 C 448.271 3.02877 -4.15656 0
M  V30 4585 N 446.253 3.14949 -5.26954 0
M  V30 4586 C 447.624 3.0143 -5.41793 0
M  V30 4587 C 449.679 2.8715 -4.06755 0
M  V30 4588 C 448.382 2.85869 -6.60054 0
M  V30 4589 C 450.408 2.72944 -5.24648 0
M  V30 4590 C 449.77 2.72171 -6.49694 0
M  V30 4591 H 445.869 0.650627 -0.43383 0
M  V30 4592 H 448.453 1.19944 -1.53367 0
M  V30 4593 H 446.624 3.69638 -1.19256 0
M  V30 4594 H 448.356 3.78888 -1.42219 0
M  V30 4595 H 445.111 3.31288 -3.38446 0
M  V30 4596 H 445.535 3.13651 -5.9996 0
M  V30 4597 H 450.177 2.86557 -3.10878 0
M  V30 4598 H 447.895 2.8521 -7.56096 0
M  V30 4599 H 451.481 2.61782 -5.19578 0
M  V30 4600 H 450.361 2.61307 -7.39384 0
M  V30 4601 N 447.864 1.01787 1.20321 0
M  V30 4602 C 448.797 0.533882 2.21867 0
M  V30 4603 C 449.775 -0.419361 1.57099 0
M  V30 4604 O 450.959 -0.339062 1.85426 0
M  V30 4605 C 448.086 -0.222899 3.37966 0
M  V30 4606 C 447.132 0.680091 4.21043 0
M  V30 4607 S 447.965 2.14997 4.90445 0
M  V30 4608 C 449.121 1.40339 6.09964 0
M  V30 4609 H 449.354 1.39429 2.62577 0
M  V30 4610 H 446.887 0.826867 1.30393 0
M  V30 4611 H 448.845 -0.653425 4.05266 0
M  V30 4612 H 447.506 -1.0589 2.95713 0
M  V30 4613 H 446.699 0.0964704 5.03908 0
M  V30 4614 H 446.301 1.04845 3.59004 0
M  V30 4615 H 448.593 0.68407 6.74038 0
M  V30 4616 H 449.536 2.20823 6.72787 0
M  V30 4617 H 449.944 0.905716 5.57187 0
M  V30 4618 N 449.342 -1.36122 0.79427 0
M  V30 4619 C 450.758 -1.5232 0.476525 0
M  V30 4620 C 450.958 -1.74685 -1.00436 0
M  V30 4621 O 450.014 -1.78115 -1.78973 0
M  V30 4622 C 451.327 -2.70607 1.31119 0
M  V30 4623 C 452.875 -2.8448 1.30537 0
M  V30 4624 C 453.35 -4.05778 2.12387 0
M  V30 4625 N 454.841 -4.12933 2.09859 0
M  V30 4626 C 455.576 -5.05876 2.69957 0
M  V30 4627 N 455.072 -6.04232 3.38934 0
M  V30 4628 N 456.865 -4.98528 2.59665 0
M  V30 4629 H 449.016 -1.1986 1.75349 0
M  V30 4630 H 451.279 -0.585418 0.745647 0
M  V30 4631 H 450.985 -2.60619 2.36158 0
M  V30 4632 H 450.859 -3.64888 0.955843 0
M  V30 4633 H 453.246 -2.93927 0.262876 0
M  V30 4634 H 453.327 -1.91093 1.70051 0
M  V30 4635 H 452.971 -3.97092 3.1667 0
M  V30 4636 H 452.901 -4.98323 1.70242 0
M  V30 4637 H 455.392 -3.42515 1.59662 0
M  V30 4638 H 455.705 -6.71724 3.82109 0
M  V30 4639 H 454.05 -6.04443 3.43036 0
M  V30 4640 H 457.241 -4.20641 2.05375 0
M  V30 4641 H 457.414 -5.70773 3.06793 0
M  V30 4642 N 450.82 -0.546701 -1.47814 0
M  V30 4643 C 452.066 -0.0187684 -2.02791 0
M  V30 4644 C 452.399 1.32338 -1.42128 0
M  V30 4645 O 451.674 1.85867 -0.573023 0
M  V30 4646 C 451.957 0.0854985 -3.59998 0
M  V30 4647 C 451.81 -1.283 -4.31114 0
M  V30 4648 C 453.129 0.80412 -4.32691 0
M  V30 4649 H 450.248 -0.0082946 -0.736953 0
M  V30 4650 H 452.89 -0.706962 -1.76358 0
M  V30 4651 H 451.04 0.671609 -3.82651 0
M  V30 4652 H 452.712 -1.91151 -4.19832 0
M  V30 4653 H 450.955 -1.86049 -3.91878 0
M  V30 4654 H 451.626 -1.16287 -5.39612 0
M  V30 4655 H 454.102 0.306576 -4.14969 0
M  V30 4656 H 452.978 0.846011 -5.42341 0
M  V30 4657 H 453.239 1.85802 -4.01161 0
M  V30 4658 N 452.299 1.55045 -0.282633 0
M  V30 4659 C 453.247 2.24254 0.617478 0
M  V30 4660 C 454.241 1.24215 1.15183 0
M  V30 4661 O 455.447 1.42123 1.10459 0
M  V30 4662 H 451.822 0.719801 0.217693 0
M  V30 4663 H 453.793 2.98398 0.0110076 0
M  V30 4664 C 452.542 2.98281 1.78672 0
M  V30 4665 H 451.865 3.75053 1.38475 0
M  V30 4666 H 453.305 3.50017 2.393 0
M  V30 4667 C 451.764 2.04184 2.67975 0
M  V30 4668 O 452.294 1.59792 3.6855 0
M  V30 4669 N 450.5 1.70526 2.35307 0
M  V30 4670 H 450.047 2.06821 1.53567 0
M  V30 4671 H 450.005 1.07839 2.95327 0
M  V30 4672 N 453.777 0.010035 1.57597 0
M  V30 4673 C 455.025 -0.671371 1.90623 0
M  V30 4674 C 455.346 -1.73753 0.885151 0
M  V30 4675 O 454.616 -1.95752 -0.0760611 0
M  V30 4676 H 453.196 -0.250968 0.703579 0
M  V30 4677 H 455.858 0.0533325 1.94827 0
M  V30 4678 H 454.954 -1.13626 2.90681 0
M  V30 4679 N 455.255 -1.55392 -0.262866 0
M  V30 4680 C 456.483 -1.80513 -1.01108 0
M  V30 4681 C 456.898 -0.583533 -1.79556 0
M  V30 4682 O 456.255 0.447585 -1.76926 0
M  V30 4683 C 456.306 -3.03648 -1.96164 0
M  V30 4684 O 456.027 -4.2109 -1.20893 0
M  V30 4685 C 457.528 -3.41448 -2.82715 0
M  V30 4686 H 454.748 -0.601079 -0.298236 0
M  V30 4687 H 457.292 -2.02425 -0.290582 0
M  V30 4688 H 455.447 -2.83832 -2.63663 0
M  V30 4689 H 455.861 -4.90771 -1.85051 0
M  V30 4690 H 457.335 -4.30751 -3.45192 0
M  V30 4691 H 457.812 -2.61308 -3.53008 0
M  V30 4692 H 458.418 -3.63559 -2.20693 0
M  V30 4693 N 456.733 0.527833 -1.48498 0
M  V30 4694 C 457.958 1.313 -1.60546 0
M  V30 4695 C 458.383 1.86199 -0.26672 0
M  V30 4696 O 457.741 1.64513 0.761918 0
M  V30 4697 C 457.789 2.43818 -2.65678 0
M  V30 4698 O 456.893 3.46916 -2.22987 0
M  V30 4699 H 456.234 0.388784 -0.538277 0
M  V30 4700 H 458.764 0.634896 -1.945 0
M  V30 4701 H 458.774 2.89973 -2.87018 0
M  V30 4702 H 457.449 2.03222 -3.62869 0
M  V30 4703 H 456.026 3.06864 -2.11869 0
M  V30 4704 N 458.211 1.37122 0.776871 0
M  V30 4705 C 459.459 1.31787 1.53221 0
M  V30 4706 C 459.78 -0.0987589 1.9475 0
M  V30 4707 O 459.05 -1.0417 1.65908 0
M  V30 4708 H 457.63 0.484839 0.568278 0
M  V30 4709 H 460.292 1.71556 0.924917 0
M  V30 4710 H 459.388 1.95355 2.43398 0
M  V30 4711 N 459.689 -1.00246 1.21608 0
M  V30 4712 C 460.937 -1.73717 1.0328 0
M  V30 4713 C 461.258 -1.90102 -0.434318 0
M  V30 4714 O 460.528 -1.45376 -1.31311 0
M  V30 4715 H 459.108 -0.643613 0.379172 0
M  V30 4716 H 461.77 -1.20787 1.52959 0
M  V30 4717 H 460.866 -2.73535 1.50283 0
M  V30 4718 N 461.167 -1.02423 -1.1978 0
M  V30 4719 C 462.395 -0.737456 -1.93311 0
M  V30 4720 C 462.81 0.703023 -1.75223 0
M  V30 4721 O 462.167 1.47761 -1.07112 0
M  V30 4722 C 462.218 -1.0733 -3.45199 0
M  V30 4723 O 461.939 -2.4572 -3.62702 0
M  V30 4724 C 463.44 -0.80866 -4.35862 0
M  V30 4725 H 460.66 -0.2702 -0.614193 0
M  V30 4726 H 463.204 -1.36747 -1.52054 0
M  V30 4727 H 461.359 -0.488545 -3.84307 0
M  V30 4728 H 461.773 -2.58081 -4.56612 0
M  V30 4729 H 463.247 -1.09365 -5.41057 0
M  V30 4730 H 463.724 0.257025 -4.38447 0
M  V30 4731 H 464.33 -1.37592 -4.02428 0
M  V30 4732 N 462.645 1.35699 -0.801477 0
M  V30 4733 C 463.575 2.32436 -0.222658 0
M  V30 4734 C 464.556 1.5723 0.649057 0
M  V30 4735 O 465.741 1.85324 0.580387 0
M  V30 4736 C 462.871 3.41469 0.633719 0
M  V30 4737 C 461.825 4.27774 -0.139083 0
M  V30 4738 C 461.151 5.28082 0.838666 0
M  V30 4739 C 462.451 5.04946 -1.33517 0
M  V30 4740 H 464.145 2.81094 -1.03086 0
M  V30 4741 H 461.691 1.35146 -0.497155 0
M  V30 4742 H 463.644 4.08143 1.04868 0
M  V30 4743 H 462.368 2.91408 1.47475 0
M  V30 4744 H 461.027 3.62673 -0.535156 0
M  V30 4745 H 460.675 4.7429 1.67506 0
M  V30 4746 H 460.375 5.86695 0.32594 0
M  V30 4747 H 461.899 5.97628 1.25194 0
M  V30 4748 H 463.313 5.64593 -0.995349 0
M  V30 4749 H 461.71 5.7303 -1.78202 0
M  V30 4750 H 462.78 4.35886 -2.12442 0
M  V30 4751 N 464.123 0.554532 1.47522 0
M  V30 4752 C 465.086 -0.184174 2.28459 0
M  V30 4753 C 466.086 -0.845195 1.36796 0
M  V30 4754 O 467.276 -0.701467 1.59452 0
M  V30 4755 C 464.408 -1.26903 3.16399 0
M  V30 4756 H 465.601 0.526751 2.95238 0
M  V30 4757 H 463.154 0.311375 1.53167 0
M  V30 4758 H 463.889 -2.01244 2.54306 0
M  V30 4759 H 463.674 -0.799883 3.83854 0
M  V30 4760 H 465.164 -1.78794 3.77389 0
M  V30 4761 N 465.601 -1.54893 0.290851 0
M  V30 4762 C 466.549 -2.24579 -0.605576 0
M  V30 4763 C 467.543 -1.24824 -1.14522 0
M  V30 4764 O 468.749 -1.42706 -1.09704 0
M  V30 4765 H 465.124 -0.720946 -0.213872 0
M  V30 4766 H 467.095 -2.984 0.0048173 0
M  V30 4767 C 465.844 -2.99224 -1.77088 0
M  V30 4768 H 465.167 -3.75782 -1.36484 0
M  V30 4769 H 466.607 -3.51281 -2.3744 0
M  V30 4770 C 465.066 -2.05602 -2.66888 0
M  V30 4771 O 465.596 -1.61745 -3.67698 0
M  V30 4772 N 463.802 -1.71771 -2.34399 0
M  V30 4773 H 463.349 -2.07633 -1.52468 0
M  V30 4774 H 463.307 -1.09403 -2.94751 0
M  V30 4775 N 467.08 -0.0183926 -1.57589 0
M  V30 4776 C 468.357 0.700621 -1.82622 0
M  V30 4777 C 468.737 1.90951 -0.90005 0
M  V30 4778 O 468.085 2.28452 0.0469145 0
M  V30 4779 C 468.295 1.08899 -3.31575 0
M  V30 4780 C 469.643 1.48514 -3.9778 0
M  V30 4781 O 470.667 1.18227 -3.36007 0
M  V30 4782 O 469.526 2.04903 -5.06633 0
M  V30 4783 H 466.62 0.342743 -0.752633 0
M  V30 4784 H 469.166 -0.0452548 -1.6964 0
M  V30 4785 H 467.938 0.228113 -3.90635 0
M  V30 4786 H 467.561 1.89338 -3.49624 0
M  V30 4787 N 468.558 1.5553 0.254621 0
M  V30 4788 C 469.783 1.81383 1.00573 0
M  V30 4789 C 470.208 0.594419 1.78461 0
M  V30 4790 O 469.566 -0.456403 1.75461 0
M  V30 4791 C 469.614 3.04892 1.92545 0
M  V30 4792 O 468.718 2.81266 3.01601 0
M  V30 4793 H 468.059 0.598969 0.286587 0
M  V30 4794 H 470.589 2.02703 0.277952 0
M  V30 4795 H 470.599 3.34119 2.34155 0
M  V30 4796 H 469.274 3.93287 1.3527 0
M  V30 4797 H 467.851 2.63185 2.64174 0
M  V30 4798 N 470.036 -0.519951 1.48776 0
M  V30 4799 C 471.266 -1.29783 1.60748 0
M  V30 4800 C 471.674 -1.87253 0.27072 0
M  V30 4801 O 471.017 -1.67628 -0.751438 0
M  V30 4802 C 471.079 -2.47984 2.60277 0
M  V30 4803 C 470.743 -2.11526 4.051 0
M  V30 4804 C 471.74 -1.66608 4.92481 0
M  V30 4805 C 469.425 -2.21742 4.50706 0
M  V30 4806 C 471.419 -1.32384 6.23501 0
M  V30 4807 C 469.106 -1.87129 5.81744 0
M  V30 4808 C 470.104 -1.42523 6.67964 0
M  V30 4809 O 469.792 -1.0837 7.96562 0
M  V30 4810 H 469.524 -0.400562 0.544542 0
M  V30 4811 H 472.078 -0.632879 1.95407 0
M  V30 4812 H 470.308 -3.17493 2.2076 0
M  V30 4813 H 471.997 -3.10036 2.61978 0
M  V30 4814 H 472.763 -1.58178 4.58481 0
M  V30 4815 H 468.642 -2.55415 3.83776 0
M  V30 4816 H 472.186 -0.974949 6.90754 0
M  V30 4817 H 468.083 -1.95204 6.15277 0
M  V30 4818 H 468.851 -1.21681 8.09405 0
M  V30 4819 N 471.514 -1.37532 -0.769588 0
M  V30 4820 C 472.462 -1.33561 -1.90432 0
M  V30 4821 C 473.456 -0.224027 -1.67912 0
M  V30 4822 O 474.662 -0.392174 -1.75676 0
M  V30 4823 H 471.037 -0.416279 -0.626271 0
M  V30 4824 H 473.008 -2.29348 -1.90899 0
M  V30 4825 C 471.757 -1.16162 -3.27722 0
M  V30 4826 H 471.08 -2.00951 -3.45628 0
M  V30 4827 H 472.52 -1.17434 -4.07413 0
M  V30 4828 C 470.979 0.132583 -3.36639 0
M  V30 4829 O 471.509 1.11539 -3.85904 0
M  V30 4830 N 469.715 0.184013 -2.90017 0
M  V30 4831 H 469.262 -0.616415 -2.50116 0
M  V30 4832 H 469.22 1.04956 -2.96364 0
M  V30 4833 N 472.992 0.995999 -1.22138 0
M  V30 4834 C 473.955 2.06711 -0.990109 0
M  V30 4835 C 474.955 1.60744 0.0422978 0
M  V30 4836 O 476.145 1.73095 -0.195895 0
M  V30 4837 C 473.277 3.37288 -0.49491 0
M  V30 4838 H 474.47 2.28661 -1.94047 0
M  V30 4839 H 472.023 1.16711 -1.03963 0
M  V30 4840 H 472.758 3.21022 0.459948 0
M  V30 4841 H 472.543 3.71986 -1.23971 0
M  V30 4842 H 474.033 4.16103 -0.353253 0
M  V30 4843 N 474.47 1.03057 1.19235 0
M  V30 4844 C 475.695 0.74757 1.93458 0
M  V30 4845 C 476.12 -0.687648 1.7508 0
M  V30 4846 O 475.478 -1.47499 1.05422 0
M  V30 4847 C 475.526 1.10604 3.43219 0
M  V30 4848 O 474.63 0.225671 4.11782 0
M  V30 4849 H 473.971 0.276047 0.603899 0
M  V30 4850 H 476.501 1.3777 1.51263 0
M  V30 4851 H 476.511 1.06366 3.93891 0
M  V30 4852 H 475.186 2.15165 3.55917 0
M  V30 4853 H 473.763 0.326795 3.71465 0
M  V30 4854 N 475.948 -1.35272 0.808662 0
M  V30 4855 C 477.178 -2.02652 0.401953 0
M  V30 4856 C 477.586 -1.6108 -0.992462 0
M  V30 4857 O 476.929 -0.804984 -1.65123 0
M  V30 4858 C 476.991 -3.57174 0.408246 0
M  V30 4859 C 476.655 -4.22019 1.75353 0
M  V30 4860 C 477.652 -4.43552 2.71215 0
M  V30 4861 C 475.337 -4.59093 2.03811 0
M  V30 4862 C 477.331 -5.01264 3.93717 0
M  V30 4863 C 475.018 -5.16519 3.26576 0
M  V30 4864 C 476.016 -5.37546 4.21347 0
M  V30 4865 O 475.704 -5.93761 5.41944 0
M  V30 4866 H 475.436 -0.656495 0.161216 0
M  V30 4867 H 477.99 -1.73829 1.0942 0
M  V30 4868 H 476.22 -3.85197 -0.340608 0
M  V30 4869 H 477.909 -4.05893 0.0235623 0
M  V30 4870 H 478.675 -4.15288 2.50522 0
M  V30 4871 H 474.554 -4.42039 1.30854 0
M  V30 4872 H 478.098 -5.17592 4.67701 0
M  V30 4873 H 473.995 -5.4421 3.47139 0
M  V30 4874 H 474.763 -6.1221 5.43269 0
M  V30 4875 N 477.426 -0.562348 -1.47226 0
M  V30 4876 C 478.703 0.0256985 -1.95583 0
M  V30 4877 C 479.083 1.48032 -1.50498 0
M  V30 4878 O 478.431 2.15973 -0.746181 0
M  V30 4879 C 478.641 -0.125129 -3.48776 0
M  V30 4880 C 479.989 0.0175728 -4.24596 0
M  V30 4881 O 481.013 -0.0529341 -3.56161 0
M  V30 4882 O 479.872 0.170145 -5.46235 0
M  V30 4883 H 476.966 0.0612565 -0.824728 0
M  V30 4884 H 479.512 -0.629233 -1.57603 0
M  V30 4885 H 478.284 -1.13715 -3.74412 0
M  V30 4886 H 477.907 0.567178 -3.93534 0
M  V30 4887 N 478.904 1.54736 -0.299062 0
M  V30 4888 C 479.852 2.24897 0.593658 0
M  V30 4889 C 480.846 1.25429 1.13859 0
M  V30 4890 O 482.052 1.43286 1.08945 0
M  V30 4891 H 478.427 0.72207 0.210046 0
M  V30 4892 H 480.398 2.98393 -0.0206421 0
M  V30 4893 C 479.147 3.00159 1.75499 0
M  V30 4894 H 478.47 3.76501 1.34489 0
M  V30 4895 H 479.91 3.52535 2.35574 0
M  V30 4896 C 478.369 2.07015 2.65794 0
M  V30 4897 O 478.899 1.63692 3.66835 0
M  V30 4898 N 477.105 1.73012 2.33485 0
M  V30 4899 H 476.652 2.08439 1.51364 0
M  V30 4900 H 476.61 1.10965 2.94167 0
M  V30 4901 N 480.382 0.0267497 1.57577 0
M  V30 4902 C 481.345 -0.940916 2.08996 0
M  V30 4903 C 482.345 -1.25561 1.00455 0
M  V30 4904 O 483.535 -1.19634 1.26623 0
M  V30 4905 C 480.667 -2.25814 2.55384 0
M  V30 4906 H 481.86 -0.495628 2.95776 0
M  V30 4907 H 479.413 -0.221241 1.54726 0
M  V30 4908 H 480.148 -2.74976 1.71926 0
M  V30 4909 H 479.933 -2.04285 3.34679 0
M  V30 4910 H 481.423 -2.95178 2.95398 0
M  V30 4911 N 481.861 -1.55662 -0.24637 0
M  V30 4912 C 482.808 -1.90361 -1.30504 0
M  V30 4913 C 483.778 -0.757905 -1.47801 0
M  V30 4914 O 484.963 -1.01161 -1.61775 0
M  V30 4915 C 482.103 -2.2042 -2.65535 0
M  V30 4916 C 481.216 -3.47799 -2.56242 0
M  V30 4917 C 480.351 -3.67426 -3.8363 0
M  V30 4918 C 479.39 -4.88403 -3.68956 0
M  V30 4919 N 478.527 -5.04548 -4.88237 0
M  V30 4920 H 483.367 -2.80645 -1.00213 0
M  V30 4921 H 480.904 -1.38924 -0.483577 0
M  V30 4922 H 482.862 -2.35853 -3.44135 0
M  V30 4923 H 481.492 -1.3334 -2.93973 0
M  V30 4924 H 480.544 -3.40694 -1.69208 0
M  V30 4925 H 481.856 -4.36544 -2.4131 0
M  V30 4926 H 481.01 -3.82821 -4.70673 0
M  V30 4927 H 479.749 -2.76914 -4.01459 0
M  V30 4928 H 478.754 -4.72984 -2.80296 0
M  V30 4929 H 479.979 -5.80375 -3.52621 0
M  V30 4930 H 477.925 -4.16974 -5.06427 0
M  V30 4931 H 477.842 -5.87384 -4.75937 0
M  V30 4932 H 479.11 -5.24355 -5.76777 0
M  V30 4933 N 483.339 0.512053 -1.4905 0
M  V30 4934 C 484.249 1.64139 -1.67617 0
M  V30 4935 C 485.265 1.64786 -0.558701 0
M  V30 4936 O 486.441 1.8341 -0.832034 0
M  V30 4937 C 483.506 3.00548 -1.72835 0
M  V30 4938 C 482.567 3.10615 -2.96339 0
M  V30 4939 C 481.8 4.40517 -3.01298 0
M  V30 4940 O 482.023 5.28671 -2.14157 0
M  V30 4941 O 480.957 4.55325 -3.93653 0
M  V30 4942 H 484.783 1.51407 -2.63267 0
M  V30 4943 H 482.368 0.687131 -1.32661 0
M  V30 4944 H 484.25 3.81641 -1.78683 0
M  V30 4945 H 482.925 3.13566 -0.803616 0
M  V30 4946 H 481.832 2.2875 -2.96014 0
M  V30 4947 H 483.165 3.0252 -3.88256 0
M  V30 4948 N 484.817 1.37938 0.762283 0
M  V30 4949 C 485.764 1.34467 1.87583 0
M  V30 4950 C 486.734 0.208633 1.64785 0
M  V30 4951 O 487.919 0.399494 1.86571 0
M  V30 4952 C 485.059 1.16692 3.24772 0
M  V30 4953 C 484.172 2.39608 3.59461 0
M  V30 4954 C 483.307 2.14631 4.85908 0
M  V30 4955 C 482.346 3.33364 5.13357 0
M  V30 4956 N 481.483 3.07877 6.30996 0
M  V30 4957 H 486.323 2.29669 1.89885 0
M  V30 4958 H 483.86 1.14116 0.928219 0
M  V30 4959 H 485.818 1.04405 4.03925 0
M  V30 4960 H 484.448 0.251333 3.2182 0
M  V30 4961 H 483.5 2.626 2.75219 0
M  V30 4962 H 484.812 3.28128 3.75678 0
M  V30 4963 H 483.966 1.99429 5.72986 0
M  V30 4964 H 482.705 1.23463 4.71814 0
M  V30 4965 H 481.71 3.49094 4.24751 0
M  V30 4966 H 482.935 4.25395 5.29354 0
M  V30 4967 H 480.881 2.19348 6.18241 0
M  V30 4968 H 480.798 3.89944 6.47673 0
M  V30 4969 H 482.066 2.96313 7.20985 0
M  V30 4970 N 486.295 -0.989507 1.22664 0
M  V30 4971 C 487.52 -1.77031 1.08051 0
M  V30 4972 C 487.945 -1.84535 -0.364483 0
M  V30 4973 O 487.303 -1.3003 -1.2634 0
M  V30 4974 C 487.351 -3.18 1.70024 0
M  V30 4975 O 486.455 -4.01161 0.956216 0
M  V30 4976 H 485.796 -0.545008 0.379292 0
M  V30 4977 H 488.326 -1.24277 1.62531 0
M  V30 4978 H 488.336 -3.68616 1.74888 0
M  V30 4979 H 487.011 -3.11853 2.75174 0
M  V30 4980 H 485.588 -3.59687 0.98384 0
M  V30 4981 N 487.773 -1.03688 -1.18687 0
M  V30 4982 C 489.019 -0.74888 -1.89112 0
M  V30 4983 C 489.374 0.715345 -1.78607 0
M  V30 4984 O 488.667 1.51498 -1.17299 0
M  V30 4985 C 488.861 -1.14477 -3.3857 0
M  V30 4986 C 488.69 -2.64594 -3.63621 0
M  V30 4987 C 487.46 -3.31685 -3.812 0
M  V30 4988 C 489.658 -3.62811 -3.64517 0
M  V30 4989 N 487.64 -4.70822 -3.93955 0
M  V30 4990 C 489.011 -4.87603 -3.8294 0
M  V30 4991 C 491.066 -3.56495 -3.47585 0
M  V30 4992 C 489.769 -6.0684 -3.86184 0
M  V30 4993 C 491.795 -4.75155 -3.52111 0
M  V30 4994 C 491.157 -5.98765 -3.71026 0
M  V30 4995 H 487.256 -0.32603 -0.710794 0
M  V30 4996 H 489.84 -1.3258 -1.42586 0
M  V30 4997 H 488.011 -0.595974 -3.838 0
M  V30 4998 H 489.743 -0.808187 -3.96548 0
M  V30 4999 H 486.498 -2.82091 -3.80423 0
M  V30 5000 H 486.922 -5.43122 -4.04163 0
M  V30 5001 H 491.564 -2.61907 -3.31911 0
M  V30 5002 H 489.282 -7.01788 -4.00648 0
M  V30 5003 H 492.868 -4.71905 -3.40289 0
M  V30 5004 H 491.748 -6.89047 -3.74412 0
M  V30 5005 N 489.251 1.34841 -0.815825 0
M  V30 5006 C 490.183 2.28409 -0.190265 0
M  V30 5007 C 491.196 1.50705 0.615771 0
M  V30 5008 O 492.385 1.72822 0.446616 0
M  V30 5009 C 489.485 3.30441 0.752446 0
M  V30 5010 C 488.658 4.37399 -0.00922152 0
M  V30 5011 C 487.717 5.19234 0.853351 0
M  V30 5012 O 486.743 5.68404 0.300919 0
M  V30 5013 N 487.945 5.38248 2.17416 0
M  V30 5014 H 490.71 2.82732 -0.994114 0
M  V30 5015 H 488.271 1.47289 -0.672129 0
M  V30 5016 H 490.263 3.82084 1.33394 0
M  V30 5017 H 488.833 2.76565 1.45707 0
M  V30 5018 H 488.053 3.86567 -0.771979 0
M  V30 5019 H 489.341 5.05992 -0.533807 0
M  V30 5020 H 488.739 4.99961 2.6468 0
M  V30 5021 H 487.296 5.93035 2.70467 0
M  V30 5022 N 490.729 0.570148 1.46925 0
M  V30 5023 C 491.975 0.0510284 2.02736 0
M  V30 5024 C 492.308 -1.3006 1.44215 0
M  V30 5025 O 491.583 -1.84932 0.602521 0
M  V30 5026 C 491.866 -0.028215 3.60089 0
M  V30 5027 C 491.719 1.35142 4.29018 0
M  V30 5028 C 493.038 -0.735181 4.33916 0
M  V30 5029 H 490.157 0.0200178 0.736728 0
M  V30 5030 H 492.799 0.73493 1.75211 0
M  V30 5031 H 490.949 -0.610648 3.83671 0
M  V30 5032 H 492.621 1.97806 4.16738 0
M  V30 5033 H 490.864 1.9226 3.88868 0
M  V30 5034 H 491.535 1.24857 5.37694 0
M  V30 5035 H 494.011 -0.240519 4.15404 0
M  V30 5036 H 492.887 -0.759622 5.43618 0
M  V30 5037 H 493.148 -1.79397 4.04066 0
M  V30 5038 N 492.207 -1.54576 0.307264 0
M  V30 5039 C 493.623 -1.59534 -0.0459251 0
M  V30 5040 C 493.823 -1.32414 -1.51884 0
M  V30 5041 O 492.879 -1.1006 -2.27251 0
M  V30 5042 C 494.192 -2.98566 0.357649 0
M  V30 5043 C 495.74 -3.11491 0.306937 0
M  V30 5044 C 496.215 -4.52842 0.685427 0
M  V30 5045 N 497.706 -4.58782 0.638203 0
M  V30 5046 C 498.441 -5.66238 0.903458 0
M  V30 5047 N 497.937 -6.81703 1.23501 0
M  V30 5048 N 499.73 -5.55937 0.830102 0
M  V30 5049 H 491.881 -1.70464 1.26712 0
M  V30 5050 H 494.144 -0.79647 0.514139 0
M  V30 5051 H 493.85 -3.23356 1.38325 0
M  V30 5052 H 493.724 -3.76117 -0.285565 0
M  V30 5053 H 496.111 -2.86446 -0.709424 0
M  V30 5054 H 496.192 -2.36081 0.984861 0
M  V30 5055 H 495.836 -4.78618 1.69963 0
M  V30 5056 H 495.766 -5.26598 -0.0146346 0
M  V30 5057 H 498.257 -3.75849 0.393138 0
M  V30 5058 H 498.57 -7.59582 1.42322 0
M  V30 5059 H 496.915 -6.8324 1.27311 0
M  V30 5060 H 500.106 -4.64608 0.570693 0
M  V30 5061 H 500.279 -6.39597 1.04019 0
M  V30 5062 N 493.685 -0.035106 -1.57561 0
M  V30 5063 C 494.635 0.954034 -2.0708 0
M  V30 5064 C 495.619 1.2818 -0.972558 0
M  V30 5065 O 496.811 1.26691 -1.23606 0
M  V30 5066 C 493.94 2.23442 -2.60631 0
M  V30 5067 C 493.026 1.93475 -3.77396 0
M  V30 5068 N 493.417 1.33802 -4.87781 0
M  V30 5069 C 491.715 2.23434 -3.85996 0
M  V30 5070 C 492.416 1.21103 -5.68954 0
M  V30 5071 N 491.392 1.70855 -5.16052 0
M  V30 5072 H 495.194 0.487731 -2.89825 0
M  V30 5073 H 492.708 0.169759 -1.6151 0
M  V30 5074 H 494.705 2.95183 -2.94402 0
M  V30 5075 H 493.365 2.70693 -1.79319 0
M  V30 5076 H 494.376 1.01227 -5.07911 0
M  V30 5077 H 491.053 2.73317 -3.15601 0
M  V30 5078 H 492.443 0.749105 -6.67711 0
M  V30 5079 N 495.163 1.55791 0.238111 0
M  V30 5080 C 496.44 1.68798 0.98826 0
M  V30 5081 C 496.82 0.577562 2.03045 0
M  V30 5082 O 496.168 -0.41778 2.24648 0
M  V30 5083 C 496.378 3.09454 1.61367 0
M  V30 5084 C 497.726 3.68335 2.11221 0
M  V30 5085 O 498.75 3.1231 1.71292 0
M  V30 5086 O 497.609 4.6657 2.84561 0
M  V30 5087 H 494.703 0.686881 0.460568 0
M  V30 5088 H 497.249 1.68118 0.231202 0
M  V30 5089 H 496.021 3.81726 0.860295 0
M  V30 5090 H 495.644 3.14182 2.4367 0
M  V30 5091 N 496.642 -0.504142 1.49319 0
M  V30 5092 C 497.872 -1.28071 1.62116 0
M  V30 5093 C 498.28 -1.86955 0.290566 0
M  V30 5094 O 497.623 -1.68415 -0.733616 0
M  V30 5095 C 497.685 -2.4521 2.62893 0
M  V30 5096 C 497.349 -2.07218 4.0732 0
M  V30 5097 C 498.346 -1.61375 4.94221 0
M  V30 5098 C 496.031 -2.16949 4.53033 0
M  V30 5099 C 498.025 -1.25763 6.2487 0
M  V30 5100 C 495.712 -1.80949 5.83696 0
M  V30 5101 C 496.71 -1.3543 6.69438 0
M  V30 5102 O 496.398 -0.99915 7.97667 0
M  V30 5103 H 496.13 -0.394763 0.54876 0
M  V30 5104 H 498.684 -0.612118 1.96067 0
M  V30 5105 H 496.914 -3.15134 2.24115 0
M  V30 5106 H 498.603 -3.0724 2.65252 0
M  V30 5107 H 499.369 -1.53306 4.60133 0
M  V30 5108 H 495.248 -2.5133 3.86463 0
M  V30 5109 H 498.792 -0.901631 6.91749 0
M  V30 5110 H 494.689 -1.88667 6.17313 0
M  V30 5111 H 495.457 -1.13089 8.1065 0
M  V30 5112 N 498.12 -1.38341 -0.754957 0
M  V30 5113 C 499.068 -1.35573 -1.89005 0
M  V30 5114 C 500.062 -0.241824 -1.67665 0
M  V30 5115 O 501.268 -0.410785 -1.7525 0
M  V30 5116 H 497.643 -0.422898 -0.621821 0
M  V30 5117 H 499.614 -2.31359 -1.88455 0
M  V30 5118 C 498.363 -1.19631 -3.26471 0
M  V30 5119 H 497.686 -2.04605 -3.43477 0
M  V30 5120 H 499.126 -1.21748 -4.06144 0
M  V30 5121 C 497.585 0.0968705 -3.36761 0
M  V30 5122 O 498.115 1.07439 -3.87066 0
M  V30 5123 N 496.321 0.153242 -2.90196 0
M  V30 5124 H 495.868 -0.642908 -2.49448 0
M  V30 5125 H 495.826 1.01807 -2.9746 0
M  V30 5126 N 499.598 0.982988 -1.23187 0
M  V30 5127 C 500.845 1.72392 -1.06241 0
M  V30 5128 C 501.173 1.9032 0.40108 0
M  V30 5129 O 500.428 1.45084 1.31336 0
M  V30 5130 C 500.727 3.12736 -1.73006 0
M  V30 5131 C 500.393 3.14695 -3.22921 0
M  V30 5132 C 499.055 3.14937 -3.63824 0
M  V30 5133 C 501.407 3.10211 -4.1883 0
M  V30 5134 C 498.735 3.08408 -4.99101 0
M  V30 5135 C 501.087 3.05224 -5.54095 0
M  V30 5136 C 499.751 3.03787 -5.94365 0
M  V30 5137 H 499.021 0.630829 -0.388762 0
M  V30 5138 H 501.668 1.15053 -1.53085 0
M  V30 5139 H 499.973 3.73446 -1.18514 0
M  V30 5140 H 501.67 3.68828 -1.57374 0
M  V30 5141 H 498.26 3.15262 -2.90358 0
M  V30 5142 H 502.444 3.09166 -3.8824 0
M  V30 5143 H 497.7 3.05646 -5.29519 0
M  V30 5144 H 501.874 3.00712 -6.28128 0
M  V30 5145 H 499.501 2.98483 -6.99151 0
M  V30 5146 N 501.076 1.04316 1.18135 0
M  V30 5147 C 502.039 0.640794 2.2006 0
M  V30 5148 C 503.039 -0.303124 1.57917 0
M  V30 5149 O 504.229 -0.0881855 1.73977 0
M  V30 5150 C 501.361 -0.060148 3.40847 0
M  V30 5151 H 502.554 1.54281 2.57172 0
M  V30 5152 H 500.107 0.836004 1.32063 0
M  V30 5153 H 500.842 -0.975845 3.0927 0
M  V30 5154 H 500.627 0.618319 3.87194 0
M  V30 5155 H 502.117 -0.328082 4.16309 0
M  V30 5156 N 502.554 -1.34406 0.822964 0
M  V30 5157 C 503.517 -2.2783 0.250271 0
M  V30 5158 C 504.517 -1.50288 -0.571854 0
M  V30 5159 O 505.707 -1.69825 -0.387952 0
M  V30 5160 C 502.839 -3.34663 -0.649137 0
M  V30 5161 H 504.032 -2.79992 1.07444 0
M  V30 5162 H 501.585 -1.44539 0.594829 0
M  V30 5163 H 502.32 -2.87714 -1.49637 0
M  V30 5164 H 502.105 -3.92052 -0.0611199 0
M  V30 5165 H 503.595 -4.04349 -1.04363 0
M  V30 5166 N 504.032 -0.577932 -1.46621 0
M  V30 5167 C 504.962 0.145917 -2.33044 0
M  V30 5168 C 505.943 0.888412 -1.45056 0
M  V30 5169 O 507.128 0.864812 -1.73881 0
M  V30 5170 C 504.258 1.16322 -3.27241 0
M  V30 5171 C 503.212 0.535868 -4.24632 0
M  V30 5172 C 502.538 1.65929 -5.08303 0
M  V30 5173 C 503.838 -0.523861 -5.19666 0
M  V30 5174 H 505.532 -0.575636 -2.93814 0
M  V30 5175 H 503.078 -0.278272 -1.41286 0
M  V30 5176 H 505.031 1.67793 -3.86553 0
M  V30 5177 H 503.755 1.91498 -2.64567 0
M  V30 5178 H 502.414 0.0422759 -3.66576 0
M  V30 5179 H 502.062 2.40061 -4.42018 0
M  V30 5180 H 501.762 1.2452 -5.74255 0
M  V30 5181 H 503.286 2.17686 -5.70478 0
M  V30 5182 H 504.7 -0.0944059 -5.73222 0
M  V30 5183 H 503.097 -0.858 -5.93935 0
M  V30 5184 H 504.167 -1.41197 -4.63887 0
M  V30 5185 N 505.51 1.54411 -0.315457 0
M  V30 5186 C 506.758 2.00023 0.288971 0
M  V30 5187 C 507.079 1.20529 1.5329 0
M  V30 5188 O 506.349 0.304986 1.93511 0
M  V30 5189 H 504.929 0.738891 0.109766 0
M  V30 5190 H 507.591 1.90094 -0.430129 0
M  V30 5191 H 506.687 3.07198 0.550999 0
M  V30 5192 N 506.988 0.0434614 1.5754 0
M  V30 5193 C 508.234 -0.632971 1.92669 0
M  V30 5194 C 508.567 -1.70947 0.921446 0
M  V30 5195 O 507.842 -1.94426 -0.0537202 0
M  V30 5196 C 508.125 -1.23619 3.38216 0
M  V30 5197 C 507.978 -0.168274 4.49485 0
M  V30 5198 C 509.297 -2.15008 3.84005 0
M  V30 5199 H 506.416 -0.228629 0.700641 0
M  V30 5200 H 509.058 0.103651 1.89717 0
M  V30 5201 H 507.208 -1.864 3.40863 0
M  V30 5202 H 508.88 0.463196 4.58969 0
M  V30 5203 H 507.123 0.504581 4.30855 0
M  V30 5204 H 507.794 -0.630218 5.48391 0
M  V30 5205 H 510.27 -1.62198 3.83185 0
M  V30 5206 H 509.146 -2.54161 4.86511 0
M  V30 5207 H 509.407 -3.04707 3.20322 0
M  V30 5208 N 508.466 -1.55915 -0.229846 0
M  V30 5209 C 509.877 -1.68809 -0.797531 0
M  V30 5210 C 510.228 -0.643995 -1.8533 0
M  V30 5211 O 509.353 0.206492 -2.15413 0
M  V30 5212 C 509.948 -3.06043 -1.45338 0
M  V30 5213 C 508.507 -3.20819 -1.96856 0
M  V30 5214 C 507.654 -2.6472 -0.825736 0
M  V30 5215 H 510.605 -1.58699 -0.00533733 0
M  V30 5216 H 510.626 -3.01438 -2.32196 0
M  V30 5217 H 510.138 -3.82012 -0.684743 0
M  V30 5218 H 508.239 -2.49704 -2.76548 0
M  V30 5219 H 508.352 -4.27937 -2.15423 0
M  V30 5220 H 506.716 -2.22985 -1.23084 0
M  V30 5221 H 507.499 -3.43229 -0.0699019 0
M  V30 5222 N 509.944 0.496216 -1.49584 0
M  V30 5223 C 511.192 1.24756 -1.58998 0
M  V30 5224 C 511.513 1.92968 -0.280775 0
M  V30 5225 O 510.783 1.82959 0.700198 0
M  V30 5226 H 509.363 0.463471 -0.585836 0
M  V30 5227 H 512.025 0.574678 -1.86235 0
M  V30 5228 H 511.121 2.00895 -2.38847 0
M  V30 5229 N 511.423 1.38739 0.74761 0
M  V30 5230 C 512.353 1.39173 1.87492 0
M  V30 5231 C 513.334 0.256794 1.6815 0
M  V30 5232 O 514.519 0.460762 1.88655 0
M  V30 5233 C 511.649 1.22197 3.25093 0
M  V30 5234 C 510.603 2.32957 3.59047 0
M  V30 5235 C 509.929 2.01082 4.95449 0
M  V30 5236 C 511.229 3.75237 3.6331 0
M  V30 5237 H 512.923 2.3351 1.87386 0
M  V30 5238 H 510.469 1.12399 0.900134 0
M  V30 5239 H 512.422 1.21124 4.03617 0
M  V30 5240 H 511.146 0.243241 3.25693 0
M  V30 5241 H 509.805 2.33226 2.82845 0
M  V30 5242 H 509.453 1.01678 4.92616 0
M  V30 5243 H 509.153 2.75267 5.19136 0
M  V30 5244 H 510.677 2.01638 5.76346 0
M  V30 5245 H 512.091 3.76966 4.31937 0
M  V30 5246 H 510.488 4.48677 3.98509 0
M  V30 5247 H 511.558 4.07122 2.634 0
M  V30 5248 N 512.901 -0.976442 1.23707 0
M  V30 5249 C 514.129 -1.75341 1.09833 0
M  V30 5250 C 514.544 -1.8553 -0.349885 0
M  V30 5251 O 513.901 -1.33732 -1.24185 0
M  V30 5252 C 513.952 -3.17833 1.72233 0
M  V30 5253 O 513.673 -3.08167 3.11391 0
M  V30 5254 C 515.174 -4.11906 1.63853 0
M  V30 5255 H 512.394 -0.550137 0.384175 0
M  V30 5256 H 514.938 -1.2265 1.63638 0
M  V30 5257 H 513.093 -3.67538 1.22452 0
M  V30 5258 H 513.507 -3.97897 3.41729 0
M  V30 5259 H 514.981 -5.09579 2.12211 0
M  V30 5260 H 515.458 -4.35109 0.598092 0
M  V30 5261 H 516.064 -3.68107 2.13019 0
M  V30 5262 N 514.379 -1.04941 -1.1758 0
M  V30 5263 C 515.309 -0.669172 -2.23706 0
M  V30 5264 C 516.29 0.331835 -1.66832 0
M  V30 5265 O 517.475 0.209988 -1.93061 0
M  V30 5266 C 514.605 -0.0404889 -3.47276 0
M  V30 5267 C 513.559 -0.965983 -4.16957 0
M  V30 5268 C 512.885 -0.201312 -5.34321 0
M  V30 5269 C 514.185 -2.28902 -4.69469 0
M  V30 5270 H 515.879 -1.55639 -2.55767 0
M  V30 5271 H 513.425 -0.749793 -1.22939 0
M  V30 5272 H 515.378 0.237298 -4.20731 0
M  V30 5273 H 514.102 0.881658 -3.14475 0
M  V30 5274 H 512.761 -1.22829 -3.45411 0
M  V30 5275 H 512.409 0.723519 -4.97769 0
M  V30 5276 H 512.109 -0.817968 -5.81879 0
M  V30 5277 H 513.633 0.0692499 -6.10561 0
M  V30 5278 H 515.047 -2.07132 -5.34574 0
M  V30 5279 H 513.444 -2.85942 -5.27596 0
M  V30 5280 H 514.514 -2.92937 -3.86414 0
M  V30 5281 N 515.857 1.33968 -0.830081 0
M  V30 5282 C 516.79 2.27303 -0.202182 0
M  V30 5283 C 517.768 1.49235 0.645581 0
M  V30 5284 O 518.952 1.78433 0.607762 0
M  V30 5285 C 516.079 3.31025 0.716932 0
M  V30 5286 C 515.125 4.26466 -0.0542271 0
M  V30 5287 S 515.958 5.16707 -1.40622 0
M  V30 5288 C 517.114 6.23962 -0.492167 0
M  V30 5289 H 517.347 2.8021 -0.99346 0
M  V30 5290 H 514.88 1.41124 -0.626359 0
M  V30 5291 H 516.838 3.91271 1.24165 0
M  V30 5292 H 515.499 2.76951 1.4818 0
M  V30 5293 H 514.692 4.99858 0.644785 0
M  V30 5294 H 514.294 3.7051 -0.509722 0
M  V30 5295 H 516.586 6.76774 0.31347 0
M  V30 5296 H 517.529 6.97927 -1.19599 0
M  V30 5297 H 517.937 5.64447 -0.0774176 0
M  V30 5298 N 517.335 0.585699 1.46312 0
M  V30 5299 C 518.283 -0.158577 2.32059 0
M  V30 5300 C 519.277 -0.881427 1.44662 0
M  V30 5301 O 520.483 -0.799476 1.61271 0
M  V30 5302 H 516.858 -0.0700066 0.748734 0
M  V30 5303 H 518.829 0.583383 2.92642 0
M  V30 5304 C 517.578 -1.15701 3.27885 0
M  V30 5305 H 516.901 -0.610215 3.95116 0
M  V30 5306 H 518.341 -1.64812 3.90657 0
M  V30 5307 C 516.8 -2.21951 2.53455 0
M  V30 5308 O 517.33 -3.29352 2.29978 0
M  V30 5309 N 515.536 -1.9664 2.13965 0
M  V30 5310 H 515.083 -1.09309 2.33258 0
M  V30 5311 H 515.041 -2.6794 1.64485 0
M  V30 5312 N 518.813 -1.54241 0.323641 0
M  V30 5313 C 520.229 -1.59574 -0.0290018 0
M  V30 5314 C 520.429 -1.34017 -1.50472 0
M  V30 5315 O 519.485 -1.12464 -2.26071 0
M  V30 5316 C 520.798 -2.98169 0.389295 0
M  V30 5317 C 522.346 -3.11148 0.339958 0
M  V30 5318 C 522.821 -4.5209 0.733418 0
M  V30 5319 N 524.312 -4.5808 0.686827 0
M  V30 5320 C 525.047 -5.65248 0.963464 0
M  V30 5321 N 524.543 -6.80355 1.30724 0
M  V30 5322 N 526.336 -5.55025 0.88902 0
M  V30 5323 H 518.487 -1.6911 1.28512 0
M  V30 5324 H 520.75 -0.790972 0.522558 0
M  V30 5325 H 520.456 -3.21871 1.41746 0
M  V30 5326 H 520.33 -3.76399 -0.245657 0
M  V30 5327 H 522.717 -2.87182 -0.679002 0
M  V30 5328 H 522.798 -2.35023 1.00985 0
M  V30 5329 H 522.442 -4.76788 1.75029 0
M  V30 5330 H 522.372 -5.26584 0.0412189 0
M  V30 5331 H 524.863 -3.75411 0.43298 0
M  V30 5332 H 525.176 -7.58029 1.5037 0
M  V30 5333 H 523.521 -6.81851 1.3455 0
M  V30 5334 H 526.712 -4.63977 0.619939 0
M  V30 5335 H 526.885 -6.38458 1.10797 0
M  V30 5336 N 520.291 -0.0518155 -1.57515 0
M  V30 5337 C 521.521 0.63048 -1.96745 0
M  V30 5338 C 521.929 1.64875 -0.928054 0
M  V30 5339 O 521.272 1.83449 0.0960678 0
M  V30 5340 C 521.334 1.37381 -3.32215 0
M  V30 5341 C 520.998 0.511298 -4.54131 0
M  V30 5342 C 521.995 -0.222884 -5.19422 0
M  V30 5343 C 519.68 0.442035 -5.00351 0
M  V30 5344 C 521.674 -1.01476 -6.2927 0
M  V30 5345 C 519.361 -0.35353 -6.10077 0
M  V30 5346 C 520.359 -1.08062 -6.74397 0
M  V30 5347 O 520.047 -1.8631 -7.82013 0
M  V30 5348 H 519.779 0.177126 -0.652382 0
M  V30 5349 H 522.333 -0.114726 -2.05079 0
M  V30 5350 H 520.563 2.16466 -3.20436 0
M  V30 5351 H 522.252 1.9464 -3.56188 0
M  V30 5352 H 523.018 -0.178846 -4.8467 0
M  V30 5353 H 518.897 0.997562 -4.50077 0
M  V30 5354 H 522.441 -1.58279 -6.79407 0
M  V30 5355 H 518.338 -0.399205 -6.44264 0
M  V30 5356 H 519.106 -1.78528 -7.98793 0
M  V30 5357 N 521.769 1.56035 0.221574 0
M  V30 5358 C 523.018 1.78245 0.944016 0
M  V30 5359 C 523.331 0.620371 1.85501 0
M  V30 5360 O 524.537 0.726103 2.6161 0
M  V30 5361 C 522.993 3.15659 1.7288 0
M  V30 5362 C 522.601 4.39591 0.863942 0
M  V30 5363 C 524.345 3.47195 2.44246 0
M  V30 5364 C 522.252 5.6803 1.64607 0
M  V30 5365 H 521.182 0.664547 0.356222 0
M  V30 5366 H 523.833 1.8243 0.197904 0
M  V30 5367 H 522.215 3.0565 2.51781 0
M  V30 5368 H 523.389 4.60655 0.115464 0
M  V30 5369 H 521.704 4.15572 0.262407 0
M  V30 5370 H 524.301 4.40381 3.03263 0
M  V30 5371 H 524.644 2.69693 3.1713 0
M  V30 5372 H 525.177 3.58533 1.72334 0
M  V30 5373 H 521.916 6.48425 0.960507 0
M  V30 5374 H 521.436 5.51027 2.36917 0
M  V30 5375 H 523.115 6.08203 2.20675 0
M  V30 5376 N 523.247 -0.488276 1.49845 0
M  V30 5377 C 524.472 -1.26997 1.63971 0
M  V30 5378 C 524.897 -1.85427 0.315994 0
M  V30 5379 O 524.255 -1.66475 -0.718032 0
M  V30 5380 C 524.303 -2.36689 2.72049 0
M  V30 5381 O 523.407 -3.40882 2.32107 0
M  V30 5382 H 522.748 -0.374376 0.548396 0
M  V30 5383 H 525.278 -0.583104 1.96115 0
M  V30 5384 H 525.288 -2.82262 2.94605 0
M  V30 5385 H 523.963 -1.93529 3.68129 0
M  V30 5386 H 522.54 -3.01139 2.19931 0
M  V30 5387 N 524.725 -1.39134 -0.740242 0
M  V30 5388 C 525.973 -1.35803 -1.49673 0
M  V30 5389 C 526.294 0.0470897 -1.94943 0
M  V30 5390 O 525.564 0.997347 -1.68611 0
M  V30 5391 H 524.144 -0.499736 -0.555224 0
M  V30 5392 H 526.806 -1.73947 -0.879107 0
M  V30 5393 H 525.902 -2.0174 -2.38133 0
M  V30 5394 N 526.204 0.969867 -1.24223 0
M  V30 5395 C 527.429 1.75289 -1.10853 0
M  V30 5396 C 527.854 1.85091 0.335079 0
M  V30 5397 O 527.212 1.32024 1.24255 0
M  V30 5398 C 527.26 3.15255 -1.75062 0
M  V30 5399 O 526.364 3.99589 -1.01992 0
M  V30 5400 H 525.705 0.538904 -0.387915 0
M  V30 5401 H 528.235 1.21675 -1.64488 0
M  V30 5402 H 528.245 3.65787 -1.80731 0
M  V30 5403 H 526.92 3.07436 -2.801 0
M  V30 5404 H 525.497 3.58077 -1.04094 0
M  V30 5405 N 527.682 1.05563 1.17022 0
M  V30 5406 C 528.63 0.653887 2.2322 0
M  V30 5407 C 529.624 -0.326642 1.66221 0
M  V30 5408 O 530.83 -0.192301 1.7897 0
M  V30 5409 H 527.205 0.193297 0.726733 0
M  V30 5410 H 529.176 1.5596 2.54399 0
M  V30 5411 C 527.925 0.0485434 3.47666 0
M  V30 5412 H 527.248 0.79413 3.91834 0
M  V30 5413 H 528.688 -0.195133 4.23551 0
M  V30 5414 C 527.147 -1.20583 3.14581 0
M  V30 5415 O 527.677 -2.29475 3.29703 0
M  V30 5416 N 525.883 -1.10493 2.68774 0
M  V30 5417 H 525.43 -0.218795 2.56669 0
M  V30 5418 H 525.388 -1.94507 2.47011 0
M  V30 5419 N 529.16 -1.33526 0.837174 0
M  V30 5420 C 530.406 -1.9813 0.432704 0
M  V30 5421 C 530.739 -1.66168 -1.00508 0
M  V30 5422 O 530.014 -0.94069 -1.70239 0
M  V30 5423 C 530.297 -3.54151 0.651834 0
M  V30 5424 C 530.15 -3.95806 2.13676 0
M  V30 5425 C 531.469 -4.39993 0.0968937 0
M  V30 5426 H 528.588 -0.719713 0.15869 0
M  V30 5427 H 531.23 -1.58193 1.05237 0
M  V30 5428 H 529.38 -3.88301 0.124369 0
M  V30 5429 H 531.052 -3.71921 2.72896 0
M  V30 5430 H 529.295 -3.45599 2.62191 0
M  V30 5431 H 529.966 -5.0447 2.24084 0
M  V30 5432 H 532.442 -4.12479 0.547733 0
M  V30 5433 H 531.318 -5.48186 0.279917 0
M  V30 5434 H 531.579 -4.3066 -0.9992 0
M  V30 5435 N 530.638 -0.59345 -1.46 0
M  V30 5436 C 531.588 0.154751 -2.27474 0
M  V30 5437 C 532.572 0.851849 -1.365 0
M  V30 5438 O 533.764 0.744171 -1.60596 0
M  V30 5439 C 530.893 1.16079 -3.2308 0
M  V30 5440 C 529.979 0.465256 -4.2154 0
M  V30 5441 N 530.37 -0.485197 -5.03467 0
M  V30 5442 C 528.668 0.714634 -4.40237 0
M  V30 5443 C 529.369 -0.892709 -5.74809 0
M  V30 5444 N 528.345 -0.239511 -5.43072 0
M  V30 5445 H 532.147 -0.57546 -2.88211 0
M  V30 5446 H 529.661 -0.416046 -1.5698 0
M  V30 5447 H 531.658 1.71108 -3.80168 0
M  V30 5448 H 530.318 1.89171 -2.63903 0
M  V30 5449 H 531.329 -0.861258 -5.10689 0
M  V30 5450 H 528.006 1.43131 -3.92199 0
M  V30 5451 H 529.396 -1.67581 -6.50666 0
M  V30 5452 N 532.116 1.54067 -0.331816 0
M  V30 5453 C 533.344 2.05131 0.269996 0
M  V30 5454 C 533.759 1.20749 1.45138 0
M  V30 5455 O 533.116 0.240069 1.80914 0
M  V30 5456 C 533.167 3.54728 0.696456 0
M  V30 5457 O 532.888 4.35906 -0.43794 0
M  V30 5458 C 534.389 4.21916 1.36021 0
M  V30 5459 H 531.609 0.668807 0.0542042 0
M  V30 5460 H 534.153 1.98777 -0.4804 0
M  V30 5461 H 532.308 3.61342 1.39681 0
M  V30 5462 H 532.722 5.24404 -0.100334 0
M  V30 5463 H 534.196 5.28015 1.60947 0
M  V30 5464 H 534.673 3.73538 2.31011 0
M  V30 5465 H 535.279 4.19463 0.702212 0
M  V30 5466 N 533.594 0.0601682 1.57485 0
M  V30 5467 C 534.557 -0.896373 2.10945 0
M  V30 5468 C 535.557 -1.23402 1.03095 0
M  V30 5469 O 536.747 -1.16921 1.29132 0
M  V30 5470 C 533.879 -2.20346 2.60116 0
M  V30 5471 H 535.072 -0.432778 2.96761 0
M  V30 5472 H 532.625 -0.188372 1.55161 0
M  V30 5473 H 533.36 -2.71268 1.7772 0
M  V30 5474 H 533.145 -1.9714 3.38937 0
M  V30 5475 H 534.635 -2.88846 3.01592 0
M  V30 5476 N 535.072 -1.5615 -0.213296 0
M  V30 5477 C 536.3 -1.83638 -0.953139 0
M  V30 5478 C 536.715 -0.640362 -1.77609 0
M  V30 5479 O 536.072 0.391071 -1.78261 0
M  V30 5480 C 536.123 -3.09735 -1.86405 0
M  V30 5481 O 535.844 -4.24723 -1.07435 0
M  V30 5482 C 537.345 -3.5027 -2.71709 0
M  V30 5483 H 534.565 -0.610263 -0.278962 0
M  V30 5484 H 537.109 -2.03247 -0.226035 0
M  V30 5485 H 535.264 -2.92077 -2.545 0
M  V30 5486 H 535.678 -4.9641 -1.69343 0
M  V30 5487 H 537.152 -4.41515 -3.31313 0
M  V30 5488 H 537.629 -2.72406 -3.44516 0
M  V30 5489 H 538.235 -3.70396 -2.09015 0
M  V30 5490 N 536.55 0.480323 -1.50102 0
M  V30 5491 C 537.796 1.23489 -1.60867 0
M  V30 5492 C 538.129 1.91809 -0.303827 0
M  V30 5493 O 537.404 1.81694 0.694092 0
M  V30 5494 C 537.687 2.28578 -2.78252 0
M  V30 5495 C 537.54 1.64624 -4.18592 0
M  V30 5496 C 538.859 3.2997 -2.91218 0
M  V30 5497 H 535.978 0.447605 -0.585507 0
M  V30 5498 H 538.62 0.530005 -1.82458 0
M  V30 5499 H 536.77 2.88697 -2.59974 0
M  V30 5500 H 538.442 1.08173 -4.48438 0
M  V30 5501 H 536.685 0.949645 -4.23278 0
M  V30 5502 H 537.356 2.40946 -4.96638 0
M  V30 5503 H 539.832 2.79864 -3.07921 0
M  V30 5504 H 538.708 4.00839 -3.74993 0
M  V30 5505 H 538.969 3.93541 -2.0144 0
M  V30 5506 N 538.028 1.39524 0.732853 0
M  V30 5507 C 539.253 1.40329 1.52717 0
M  V30 5508 C 539.678 0.000286574 1.881 0
M  V30 5509 O 539.036 -0.987262 1.52062 0
M  V30 5510 C 539.084 2.28464 2.78992 0
M  V30 5511 O 538.188 1.716 3.75003 0
M  V30 5512 H 537.529 0.47778 0.461109 0
M  V30 5513 H 540.059 1.83546 0.903996 0
M  V30 5514 H 540.069 2.43051 3.27705 0
M  V30 5515 H 538.744 3.30425 2.52572 0
M  V30 5516 H 537.321 1.66267 3.33781 0
M  V30 5517 N 539.506 -0.963266 1.24736 0
M  V30 5518 C 540.783 -1.68248 0.9976 0
M  V30 5519 C 541.163 -2.05599 -0.478776 0
M  V30 5520 O 540.511 -1.7626 -1.45412 0
M  V30 5521 C 540.721 -2.91118 1.92487 0
M  V30 5522 C 542.069 -3.63261 2.19833 0
M  V30 5523 O 543.093 -3.01184 1.90176 0
M  V30 5524 O 541.952 -4.75019 2.7022 0
M  V30 5525 H 539.046 -0.735744 0.377637 0
M  V30 5526 H 541.592 -1.01696 1.35853 0
M  V30 5527 H 540.364 -2.60242 2.92215 0
M  V30 5528 H 539.987 -3.65402 1.56738 0
M  V30 5529 N 540.985 -1.06182 -1.16461 0
M  V30 5530 C 542.233 -0.776326 -1.86595 0
M  V30 5531 C 542.554 0.69921 -1.82033 0
M  V30 5532 O 541.824 1.50579 -1.2531 0
M  V30 5533 H 540.404 -0.284184 -0.690832 0
M  V30 5534 H 543.066 -1.34308 -1.41235 0
M  V30 5535 H 542.162 -1.10022 -2.92064 0
M  V30 5536 N 542.463 1.3308 -0.844243 0
M  V30 5537 C 543.41 2.29104 -0.279323 0
M  V30 5538 C 544.38 1.54577 0.607882 0
M  V30 5539 O 545.565 1.8285 0.545009 0
M  V30 5540 C 542.705 3.40927 0.53508 0
M  V30 5541 C 541.818 4.30354 -0.376749 0
M  V30 5542 C 540.953 5.29297 0.449276 0
M  V30 5543 C 539.992 6.10365 -0.460606 0
M  V30 5544 N 539.129 7.01335 0.327612 0
M  V30 5545 H 543.969 2.76817 -1.10346 0
M  V30 5546 H 541.506 1.36203 -0.555611 0
M  V30 5547 H 543.464 4.04469 1.02278 0
M  V30 5548 H 542.094 2.94391 1.32414 0
M  V30 5549 H 541.146 3.67485 -0.982791 0
M  V30 5550 H 542.458 4.87067 -1.07549 0
M  V30 5551 H 541.612 5.98392 1.00058 0
M  V30 5552 H 540.351 4.73174 1.18143 0
M  V30 5553 H 539.356 5.40182 -1.02388 0
M  V30 5554 H 540.581 6.68571 -1.1912 0
M  V30 5555 H 538.527 6.47655 1.04305 0
M  V30 5556 H 538.444 7.55355 -0.3123 0
M  V30 5557 H 539.712 7.74731 0.86098 0
M  V30 5558 N 543.941 0.601185 1.45683 0
M  V30 5559 C 544.851 -0.123395 2.34275 0
M  V30 5560 C 545.867 -0.86702 1.5086 0
M  V30 5561 O 547.043 -0.826049 1.8368 0
M  V30 5562 C 544.108 -1.11237 3.2837 0
M  V30 5563 C 543.169 -0.371405 4.2769 0
M  V30 5564 C 542.402 -1.31327 5.1729 0
M  V30 5565 O 542.625 -2.55078 5.10188 0
M  V30 5566 O 541.559 -0.813811 5.96373 0
M  V30 5567 H 545.385 0.604483 2.97623 0
M  V30 5568 H 542.97 0.361477 1.44961 0
M  V30 5569 H 544.852 -1.68214 3.8637 0
M  V30 5570 H 543.527 -1.82139 2.67595 0
M  V30 5571 H 542.434 0.24067 3.73325 0
M  V30 5572 H 543.767 0.296998 4.91303 0
M  V30 5573 N 545.419 -1.53889 0.339982 0
M  V30 5574 C 546.665 -2.01849 -0.250694 0
M  V30 5575 C 547.02 -1.22356 -1.48482 0
M  V30 5576 O 546.313 -0.301906 -1.89206 0
M  V30 5577 C 546.507 -3.51968 -0.620735 0
M  V30 5578 C 546.336 -4.45996 0.575981 0
M  V30 5579 C 545.106 -4.93619 1.08019 0
M  V30 5580 C 547.304 -4.93923 1.43332 0
M  V30 5581 N 545.286 -5.7159 2.2396 0
M  V30 5582 C 546.657 -5.69982 2.43969 0
M  V30 5583 C 548.712 -4.76038 1.45918 0
M  V30 5584 C 547.415 -6.30057 3.47016 0
M  V30 5585 C 549.441 -5.36961 2.47845 0
M  V30 5586 C 548.803 -6.12884 3.47208 0
M  V30 5587 H 544.902 -0.780054 -0.0551368 0
M  V30 5588 H 547.486 -1.88722 0.478741 0
M  V30 5589 H 545.657 -3.65308 -1.31928 0
M  V30 5590 H 547.389 -3.86677 -1.19429 0
M  V30 5591 H 544.144 -4.69134 0.64884 0
M  V30 5592 H 544.568 -6.15247 2.82489 0
M  V30 5593 H 549.21 -4.16887 0.704608 0
M  V30 5594 H 546.928 -6.88319 4.23371 0
M  V30 5595 H 550.514 -5.2503 2.50668 0
M  V30 5596 H 549.394 -6.59187 4.24785 0
M  V30 5597 N 546.897 -0.0685191 -1.57451 0
M  V30 5598 C 548.145 0.60016 -1.92983 0
M  V30 5599 C 548.466 1.70348 -0.949028 0
M  V30 5600 O 547.736 1.959 0.00335647 0
M  V30 5601 H 546.316 0.224682 -0.712409 0
M  V30 5602 H 548.978 -0.125605 -1.94495 0
M  V30 5603 H 548.074 1.02759 -2.94698 0
M  V30 5604 N 548.375 1.56261 0.205012 0
M  V30 5605 C 549.791 1.49623 0.555433 0
M  V30 5606 C 549.991 0.766719 1.86343 0
M  V30 5607 O 549.047 0.313158 2.50551 0
M  V30 5608 C 550.36 2.94253 0.619347 0
M  V30 5609 C 551.908 3.04868 0.708855 0
M  V30 5610 C 552.383 4.50888 0.803969 0
M  V30 5611 N 553.874 4.54999 0.867758 0
M  V30 5612 C 554.609 5.65284 0.96135 0
M  V30 5613 N 554.105 6.85282 1.01786 0
M  V30 5614 N 555.898 5.53174 0.997771 0
M  V30 5615 H 548.049 2.0211 -0.653094 0
M  V30 5616 H 550.312 0.919333 -0.231366 0
M  V30 5617 H 550.018 3.50643 -0.272458 0
M  V30 5618 H 549.892 3.47063 1.47741 0
M  V30 5619 H 552.279 2.48532 1.5911 0
M  V30 5620 H 552.36 2.55199 -0.175205 0
M  V30 5621 H 552.004 5.07846 -0.0738798 0
M  V30 5622 H 551.934 4.98279 1.70369 0
M  V30 5623 H 554.425 3.68588 0.833735 0
M  V30 5624 H 554.738 7.65081 1.08951 0
M  V30 5625 H 553.083 6.8796 0.986706 0
M  V30 5626 H 556.274 4.5835 0.950392 0
M  V30 5627 H 556.447 6.39151 1.06725 0
M  V30 5628 N 549.853 -0.472356 1.50355 0
M  V30 5629 C 550.763 -1.59637 1.7191 0
M  V30 5630 C 551.779 -1.63247 0.602195 0
M  V30 5631 O 552.955 -1.81139 0.880369 0
M  V30 5632 C 550.02 -2.9586 1.80742 0
M  V30 5633 C 549.081 -3.02649 3.04471 0
M  V30 5634 C 548.314 -4.32374 3.12872 0
M  V30 5635 O 548.537 -5.22807 2.28099 0
M  V30 5636 O 547.471 -4.44728 4.05587 0
M  V30 5637 H 551.297 -1.44373 2.67189 0
M  V30 5638 H 548.882 -0.651717 1.34436 0
M  V30 5639 H 550.764 -3.7677 1.88739 0
M  V30 5640 H 549.439 -3.11325 0.88647 0
M  V30 5641 H 548.346 -2.20821 3.01975 0
M  V30 5642 H 549.679 -2.92119 3.9614 0
M  V30 5643 N 551.331 -1.39911 -0.725443 0
M  V30 5644 C 552.556 -1.41137 -1.5197 0
M  V30 5645 C 552.981 -0.010262 -1.88097 0
M  V30 5646 O 552.339 0.979184 -1.52583 0
M  V30 5647 C 552.387 -2.2994 -2.77777 0
M  V30 5648 O 551.491 -1.73586 -3.74088 0
M  V30 5649 H 550.832 -0.480219 -0.458569 0
M  V30 5650 H 553.362 -1.84023 -0.894249 0
M  V30 5651 H 553.372 -2.44785 -3.26411 0
M  V30 5652 H 552.047 -3.31759 -2.50816 0
M  V30 5653 H 550.624 -1.68035 -3.32894 0
M  V30 5654 N 552.809 0.956637 -1.25245 0
M  V30 5655 C 553.719 2.0868 -1.0719 0
M  V30 5656 C 554.735 1.73997 -0.00959074 0
M  V30 5657 O 555.911 2.00301 -0.210104 0
M  V30 5658 C 552.976 3.39754 -0.690526 0
M  V30 5659 C 552.037 3.88316 -1.83055 0
M  V30 5660 C 551.27 5.13134 -1.46728 0
M  V30 5661 O 551.493 5.6925 -0.362029 0
M  V30 5662 O 550.427 5.56356 -2.29677 0
M  V30 5663 H 554.253 2.26813 -2.01965 0
M  V30 5664 H 551.838 1.07098 -1.04165 0
M  V30 5665 H 553.72 4.18543 -0.489871 0
M  V30 5666 H 552.395 3.22896 0.227981 0
M  V30 5667 H 551.302 3.1054 -2.08604 0
M  V30 5668 H 552.635 4.09669 -2.72822 0
M  V30 5669 N 554.287 1.06798 1.15896 0
M  V30 5670 C 555.533 0.788934 1.86825 0
M  V30 5671 C 555.866 -0.683084 1.8179 0
M  V30 5672 O 555.141 -1.50086 1.23711 0
M  V30 5673 C 555.424 1.29065 3.36176 0
M  V30 5674 C 555.277 2.8268 3.49874 0
M  V30 5675 C 556.596 0.902655 4.30744 0
M  V30 5676 H 553.715 0.288066 0.678371 0
M  V30 5677 H 556.357 1.32479 1.36195 0
M  V30 5678 H 554.507 0.834806 3.79425 0
M  V30 5679 H 556.179 3.36511 3.15528 0
M  V30 5680 H 554.422 3.21157 2.91617 0
M  V30 5681 H 555.093 3.12852 4.54783 0
M  V30 5682 H 557.569 1.29535 3.95424 0
M  V30 5683 H 556.445 1.28111 5.3374 0
M  V30 5684 H 556.706 -0.191951 4.41683 0
M  V30 5685 N 555.766 -1.3263 0.851289 0
M  V30 5686 C 556.729 -2.27247 0.298541 0
M  V30 5687 C 557.729 -1.51467 -0.539847 0
M  V30 5688 O 558.919 -1.7061 -0.351843 0
M  V30 5689 C 556.051 -3.35964 -0.578004 0
M  V30 5690 H 557.244 -2.7765 1.13359 0
M  V30 5691 H 554.797 -1.43245 0.625354 0
M  V30 5692 H 555.532 -2.90823 -1.435 0
M  V30 5693 H 555.317 -3.92094 0.0220539 0
M  V30 5694 H 556.807 -4.06472 -0.957626 0
M  V30 5695 N 557.244 -0.608902 -1.45362 0
M  V30 5696 C 558.474 -0.110852 -2.06302 0
M  V30 5697 C 558.882 1.21062 -1.45398 0
M  V30 5698 O 558.225 1.74861 -0.562976 0
M  V30 5699 C 558.287 0.101793 -3.59356 0
M  V30 5700 C 557.951 -1.13808 -4.42602 0
M  V30 5701 C 558.948 -2.05653 -4.77496 0
M  V30 5702 C 556.633 -1.36727 -4.83333 0
M  V30 5703 C 558.627 -3.18745 -5.51978 0
M  V30 5704 C 556.314 -2.5012 -5.57569 0
M  V30 5705 C 557.312 -3.40957 -5.91809 0
M  V30 5706 O 557 -4.52376 -6.64538 0
M  V30 5707 H 556.732 -0.0666001 -0.672711 0
M  V30 5708 H 559.286 -0.836942 -1.87575 0
M  V30 5709 H 557.516 0.88279 -3.76489 0
M  V30 5710 H 559.205 0.551607 -4.02134 0
M  V30 5711 H 559.971 -1.89172 -4.46586 0
M  V30 5712 H 555.85 -0.669216 -4.56117 0
M  V30 5713 H 559.394 -3.8967 -5.78622 0
M  V30 5714 H 555.291 -2.66553 -5.87894 0
M  V30 5715 H 556.059 -4.51075 -6.82989 0
M  V30 5716 N 558.722 1.53707 -0.348139 0
M  V30 5717 C 559.95 2.05406 0.248224 0
M  V30 5718 C 560.365 1.22282 1.43849 0
M  V30 5719 O 559.722 0.259244 1.80649 0
M  V30 5720 C 559.773 3.55446 0.658793 0
M  V30 5721 O 559.494 4.35417 -0.484149 0
M  V30 5722 C 560.995 4.23335 1.31539 0
M  V30 5723 H 558.215 0.669344 0.0471075 0
M  V30 5724 H 560.759 1.98257 -0.501456 0
M  V30 5725 H 558.914 3.62803 1.35841 0
M  V30 5726 H 559.328 5.24268 -0.155949 0
M  V30 5727 H 560.802 5.29692 1.55338 0
M  V30 5728 H 561.279 3.75967 2.27036 0
M  V30 5729 H 561.885 4.20184 0.657683 0
M  V30 5730 N 560.2 0.0768682 1.57412 0
M  V30 5731 C 561.446 -0.591961 1.93968 0
M  V30 5732 C 561.779 -1.68954 0.9575 0
M  V30 5733 O 561.054 -1.94496 -0.0124675 0
M  V30 5734 C 561.337 -1.16418 3.40762 0
M  V30 5735 C 561.19 -0.0728933 4.49741 0
M  V30 5736 C 562.509 -2.06814 3.88479 0
M  V30 5737 H 559.628 -0.213716 0.705333 0
M  V30 5738 H 562.27 0.14387 1.89455 0
M  V30 5739 H 560.42 -1.79128 3.4474 0
M  V30 5740 H 562.092 0.560446 4.57883 0
M  V30 5741 H 560.335 0.595859 4.29688 0
M  V30 5742 H 561.006 -0.513755 5.49604 0
M  V30 5743 H 563.482 -1.54033 3.8654 0
M  V30 5744 H 562.358 -2.43785 4.91793 0
M  V30 5745 H 562.619 -2.97844 3.26713 0
M  V30 5746 N 561.678 -1.56367 -0.196722 0
M  V30 5747 C 562.61 -1.90941 -1.26784 0
M  V30 5748 C 563.623 -0.799928 -1.41792 0
M  V30 5749 O 564.812 -1.07833 -1.42247 0
M  V30 5750 C 561.912 -2.12477 -2.6402 0
M  V30 5751 C 561.085 -3.43616 -2.70641 0
M  V30 5752 C 560.144 -3.54284 -3.89062 0
M  V30 5753 O 559.17 -4.2712 -3.76241 0
M  V30 5754 N 560.372 -2.87252 -5.04447 0
M  V30 5755 H 563.137 -2.83417 -0.974417 0
M  V30 5756 H 560.698 -1.57215 -0.386649 0
M  V30 5757 H 562.69 -2.16904 -3.41665 0
M  V30 5758 H 561.26 -1.26508 -2.85857 0
M  V30 5759 H 560.48 -3.51072 -1.79283 0
M  V30 5760 H 561.768 -4.29958 -2.72054 0
M  V30 5761 H 561.166 -2.27901 -5.17762 0
M  V30 5762 H 559.723 -2.97308 -5.80044 0
M  V30 5763 N 563.156 0.464375 -1.50603 0
M  V30 5764 C 564.381 1.24372 -1.65971 0
M  V30 5765 C 564.806 1.84901 -0.345453 0
M  V30 5766 O 564.164 1.67596 0.691457 0
M  V30 5767 C 564.212 2.32331 -2.7578 0
M  V30 5768 O 563.316 3.37146 -2.375 0
M  V30 5769 H 562.657 0.365604 -0.554283 0
M  V30 5770 H 565.187 0.55183 -1.97018 0
M  V30 5771 H 565.197 2.77539 -2.99059 0
M  V30 5772 H 563.872 1.87648 -3.71162 0
M  V30 5773 H 562.449 2.97602 -2.24694 0
M  V30 5774 N 564.634 1.40294 0.718013 0
M  V30 5775 C 565.882 1.38167 1.47494 0
M  V30 5776 C 566.203 -0.01607 1.94993 0
M  V30 5777 O 565.473 -0.970396 1.70177 0
M  V30 5778 H 564.053 0.508505 0.547203 0
M  V30 5779 H 566.715 1.75324 0.851322 0
M  V30 5780 H 565.811 2.05503 2.34894 0
M  V30 5781 N 566.112 -0.949982 1.2575 0
M  V30 5782 C 567.34 -1.72972 1.13527 0
M  V30 5783 C 567.755 -1.8623 -0.310453 0
M  V30 5784 O 567.112 -1.36336 -1.2132 0
M  V30 5785 C 567.163 -3.14108 1.78936 0
M  V30 5786 O 566.884 -3.01493 3.17858 0
M  V30 5787 C 568.385 -4.08338 1.72554 0
M  V30 5788 H 565.605 -0.541864 0.395758 0
M  V30 5789 H 568.149 -1.19151 1.66202 0
M  V30 5790 H 566.304 -3.64858 1.30221 0
M  V30 5791 H 566.718 -3.90559 3.50092 0
M  V30 5792 H 568.192 -5.04963 2.22973 0
M  V30 5793 H 568.669 -4.33742 0.690251 0
M  V30 5794 H 569.275 -3.63506 2.2078 0
M  V30 5795 N 567.59 -1.07411 -1.15328 0
M  V30 5796 C 568.52 -0.716472 -2.22236 0
M  V30 5797 C 569.501 0.296373 -1.67498 0
M  V30 5798 O 570.686 0.168989 -1.93463 0
M  V30 5799 C 567.816 -0.114142 -3.47112 0
M  V30 5800 C 566.77 -1.05421 -4.14814 0
M  V30 5801 C 566.096 -0.314604 -5.33774 0
M  V30 5802 C 567.396 -2.38808 -4.64508 0
M  V30 5803 H 569.09 -1.61029 -2.52408 0
M  V30 5804 H 566.636 -0.775702 -1.21321 0
M  V30 5805 H 568.589 0.148001 -4.2114 0
M  V30 5806 H 567.313 0.814755 -3.16274 0
M  V30 5807 H 565.972 -1.30128 -3.42728 0
M  V30 5808 H 565.62 0.617772 -4.99192 0
M  V30 5809 H 565.32 -0.941209 -5.80013 0
M  V30 5810 H 566.844 -0.0602747 -6.1057 0
M  V30 5811 H 568.258 -2.18424 -5.3006 0
M  V30 5812 H 566.655 -2.97069 -5.21412 0
M  V30 5813 H 567.725 -3.01067 -3.80114 0
M  V30 5814 N 569.068 1.32177 -0.85831 0
M  V30 5815 C 570.015 2.28794 -0.303607 0
M  V30 5816 C 570.985 1.55213 0.591453 0
M  V30 5817 O 572.17 1.83418 0.525585 0
M  V30 5818 C 569.31 3.41475 0.49889 0
M  V30 5819 C 568.423 4.2993 -0.422373 0
M  V30 5820 C 567.558 5.29743 0.393111 0
M  V30 5821 C 566.597 6.09842 -0.525317 0
M  V30 5822 N 565.734 7.01643 0.253208 0
M  V30 5823 H 570.574 2.75631 -1.13276 0
M  V30 5824 H 568.111 1.35606 -0.570026 0
M  V30 5825 H 570.069 4.05531 0.979826 0
M  V30 5826 H 568.699 2.95779 1.29284 0
M  V30 5827 H 567.751 3.66422 -1.02171 0
M  V30 5828 H 569.063 4.85899 -1.12709 0
M  V30 5829 H 568.217 5.9942 0.937056 0
M  V30 5830 H 566.956 4.744 1.13117 0
M  V30 5831 H 565.961 5.39066 -1.08112 0
M  V30 5832 H 567.186 6.6727 -1.26205 0
M  V30 5833 H 565.132 6.48725 0.974295 0
M  V30 5834 H 565.049 7.54981 -0.392398 0
M  V30 5835 H 566.317 7.756 0.778761 0
M  V30 5836 N 570.547 0.616602 1.45037 0
M  V30 5837 C 571.495 -0.109318 2.32343 0
M  V30 5838 C 572.489 -0.850543 1.465 0
M  V30 5839 O 573.695 -0.765088 1.62931 0
M  V30 5840 H 570.07 -0.0541091 0.750051 0
M  V30 5841 H 572.041 0.645326 2.91338 0
M  V30 5842 C 570.79 -1.0872 3.30266 0
M  V30 5843 H 570.113 -0.526267 3.96321 0
M  V30 5844 H 571.553 -1.56489 3.94065 0
M  V30 5845 C 570.012 -2.16525 2.58105 0
M  V30 5846 O 570.542 -3.244 2.36913 0
M  V30 5847 N 568.748 -1.92057 2.18088 0
M  V30 5848 H 568.295 -1.04337 2.35524 0
M  V30 5849 H 568.253 -2.64391 1.70131 0
M  V30 5850 N 572.025 -1.5352 0.356285 0
M  V30 5851 C 572.955 -2.28372 -0.486661 0
M  V30 5852 C 573.936 -1.30432 -1.09185 0
M  V30 5853 O 575.121 -1.59291 -1.11085 0
M  V30 5854 C 572.251 -3.06604 -1.63129 0
M  V30 5855 C 571.205 -4.12154 -1.15381 0
M  V30 5856 C 570.531 -4.78415 -2.38796 0
M  V30 5857 C 571.831 -5.21724 -0.245179 0
M  V30 5858 H 573.525 -2.99083 0.137797 0
M  V30 5859 H 571.071 -1.43841 0.0677134 0
M  V30 5860 H 573.024 -3.57712 -2.22755 0
M  V30 5861 H 571.748 -2.33568 -2.28284 0
M  V30 5862 H 570.407 -3.61978 -0.580294 0
M  V30 5863 H 570.055 -4.01959 -3.02387 0
M  V30 5864 H 569.755 -5.49734 -2.07524 0
M  V30 5865 H 571.279 -5.32313 -2.99125 0
M  V30 5866 H 572.693 -5.68391 -0.748646 0
M  V30 5867 H 571.09 -6.00095 -0.0237608 0
M  V30 5868 H 572.16 -4.79596 0.715229 0
M  V30 5869 N 573.503 -0.0852151 -1.57369 0
M  V30 5870 C 574.451 0.894856 -2.14698 0
M  V30 5871 C 575.445 1.29903 -1.08727 0
M  V30 5872 O 576.651 1.27471 -1.27088 0
M  V30 5873 H 573.026 0.306569 -0.686673 0
M  V30 5874 H 574.997 0.386542 -2.95886 0
M  V30 5875 C 573.746 2.14798 -2.73417 0
M  V30 5876 H 573.069 1.84585 -3.54638 0
M  V30 5877 H 574.509 2.81456 -3.1711 0
M  V30 5878 C 572.968 2.91546 -1.68828 0
M  V30 5879 O 573.498 3.85733 -1.12129 0
M  V30 5880 N 571.704 2.54901 -1.39549 0
M  V30 5881 H 571.251 1.7838 -1.85845 0
M  V30 5882 H 571.209 3.06553 -0.698054 0
M  V30 5883 N 574.981 1.5647 0.188427 0
M  V30 5884 C 575.911 1.98101 1.23606 0
M  V30 5885 C 576.892 0.853961 1.47111 0
M  V30 5886 O 578.077 1.11879 1.58735 0
M  V30 5887 C 575.207 2.32624 2.57882 0
M  V30 5888 C 574.161 3.48129 2.48978 0
M  V30 5889 C 573.487 3.68347 3.87588 0
M  V30 5890 C 574.787 4.82112 2.00911 0
M  V30 5891 H 576.481 2.85864 0.890068 0
M  V30 5892 H 574.027 1.37532 0.426714 0
M  V30 5893 H 575.98 2.60343 3.3136 0
M  V30 5894 H 574.704 1.41751 2.94235 0
M  V30 5895 H 573.363 3.20511 1.77956 0
M  V30 5896 H 573.011 2.74793 4.21305 0
M  V30 5897 H 572.711 4.46055 3.82503 0
M  V30 5898 H 574.235 3.98449 4.62678 0
M  V30 5899 H 575.649 5.08819 2.64151 0
M  V30 5900 H 574.046 5.63337 2.06814 0
M  V30 5901 H 575.116 4.75249 0.96262 0
M  V30 5902 N 576.459 -0.456382 1.50847 0
M  V30 5903 C 577.406 -1.55249 1.70782 0
M  V30 5904 C 578.376 -1.56757 0.549231 0
M  V30 5905 O 579.561 -1.74061 0.7815 0
M  V30 5906 C 576.701 -2.93118 1.82143 0
M  V30 5907 C 575.814 -3.01285 3.09598 0
M  V30 5908 C 574.949 -4.30159 3.11667 0
M  V30 5909 C 573.988 -4.32124 4.33515 0
M  V30 5910 N 573.125 -5.52492 4.3324 0
M  V30 5911 H 577.965 -1.37555 2.64353 0
M  V30 5912 H 575.502 -0.668543 1.3103 0
M  V30 5913 H 577.46 -3.73088 1.86711 0
M  V30 5914 H 576.09 -3.09413 0.919978 0
M  V30 5915 H 575.142 -2.14096 3.14431 0
M  V30 5916 H 576.454 -2.98597 3.99551 0
M  V30 5917 H 575.608 -5.18489 3.15046 0
M  V30 5918 H 574.347 -4.35477 2.1957 0
M  V30 5919 H 573.352 -3.42189 4.30333 0
M  V30 5920 H 574.577 -4.28485 5.26856 0
M  V30 5921 H 572.523 -5.58567 3.44004 0
M  V30 5922 H 572.44 -5.51605 5.16979 0
M  V30 5923 H 573.708 -6.42906 4.40786 0
M  V30 5924 N 577.937 -1.40673 -0.710563 0
M  V30 5925 C 579.183 -1.4043 -1.47142 0
M  V30 5926 C 579.538 -0.00781557 -1.92398 0
M  V30 5927 O 578.831 0.963535 -1.6561 0
M  V30 5928 C 579.025 -2.33253 -2.70791 0
M  V30 5929 C 578.854 -3.81789 -2.37629 0
M  V30 5930 C 577.624 -4.5057 -2.28724 0
M  V30 5931 C 579.822 -4.73152 -2.01572 0
M  V30 5932 N 577.804 -5.84312 -1.88289 0
M  V30 5933 C 579.175 -5.95728 -1.71778 0
M  V30 5934 C 581.23 -4.6094 -1.88252 0
M  V30 5935 C 579.933 -7.07454 -1.30003 0
M  V30 5936 C 581.959 -5.72613 -1.47881 0
M  V30 5937 C 581.321 -6.94278 -1.18987 0
M  V30 5938 H 577.42 -0.569115 -0.536314 0
M  V30 5939 H 580.004 -1.76425 -0.823547 0
M  V30 5940 H 578.175 -1.99378 -3.33321 0
M  V30 5941 H 579.907 -2.23833 -3.37166 0
M  V30 5942 H 576.662 -4.04315 -2.46629 0
M  V30 5943 H 577.086 -6.55153 -1.70596 0
M  V30 5944 H 581.728 -3.67389 -2.09249 0
M  V30 5945 H 579.446 -8.00884 -1.07749 0
M  V30 5946 H 583.032 -5.65161 -1.38145 0
M  V30 5947 H 581.912 -7.79222 -0.88219 0
M  V30 5948 N 579.415 0.9433 -1.26252 0
M  V30 5949 C 580.831 1.21644 -1.03319 0
M  V30 5950 C 581.031 2.0003 0.242983 0
M  V30 5951 O 580.087 2.33838 0.952688 0
M  V30 5952 C 581.4 1.97978 -2.2633 0
M  V30 5953 C 582.948 2.10978 -2.31209 0
M  V30 5954 C 583.423 2.90713 -3.53907 0
M  V30 5955 N 584.914 2.98287 -3.54371 0
M  V30 5956 C 585.649 3.60406 -4.45976 0
M  V30 5957 N 585.145 4.24043 -5.47868 0
M  V30 5958 N 586.938 3.57658 -4.33633 0
M  V30 5959 H 579.089 0.419221 -2.08222 0
M  V30 5960 H 581.352 0.247995 -0.914988 0
M  V30 5961 H 581.058 1.47788 -3.19142 0
M  V30 5962 H 580.932 2.9865 -2.30408 0
M  V30 5963 H 583.319 2.6036 -1.38913 0
M  V30 5964 H 583.4 1.09575 -2.31143 0
M  V30 5965 H 583.044 2.42018 -4.46531 0
M  V30 5966 H 582.974 3.92367 -3.5122 0
M  V30 5967 H 585.465 2.53044 -2.80673 0
M  V30 5968 H 585.778 4.69334 -6.13959 0
M  V30 5969 H 584.123 4.22637 -5.51728 0
M  V30 5970 H 587.314 3.07134 -3.53251 0
M  V30 5971 H 587.487 4.05782 -5.05218 0
M  V30 5972 N 580.893 1.08022 1.14757 0
M  V30 5973 C 581.841 0.701088 2.21783 0
M  V30 5974 C 582.835 -0.291311 1.66876 0
M  V30 5975 O 584.041 -0.154296 1.79337 0
M  V30 5976 H 580.416 0.208668 0.722469 0
M  V30 5977 H 582.387 1.61321 2.51034 0
M  V30 5978 C 581.136 0.122278 3.47485 0
M  V30 5979 H 580.459 0.877065 3.90061 0
M  V30 5980 H 581.899 -0.105248 4.23869 0
M  V30 5981 C 580.358 -1.13883 3.17068 0
M  V30 5982 O 580.888 -2.22429 3.34497 0
M  V30 5983 N 579.094 -1.04767 2.71058 0
M  V30 5984 H 578.641 -0.164302 2.57075 0
M  V30 5985 H 578.599 -1.89224 2.51081 0
M  V30 5986 N 582.371 -1.3172 0.865308 0
M  V30 5987 C 583.596 -2.01591 0.487415 0
M  V30 5988 C 584.021 -1.6455 -0.911307 0
M  V30 5989 O 583.379 -0.851689 -1.6005 0
M  V30 5990 C 583.427 -3.54759 0.646401 0
M  V30 5991 O 582.531 -4.11185 -0.316284 0
M  V30 5992 H 581.872 -0.634884 0.194468 0
M  V30 5993 H 584.402 -1.68024 1.16744 0
M  V30 5994 H 584.412 -4.04438 0.537932 0
M  V30 5995 H 583.087 -3.8106 1.66632 0
M  V30 5996 H 581.664 -3.72543 -0.163162 0
M  V30 5997 N 583.85 -0.624285 -1.44708 0
M  V30 5998 C 585.077 -0.132919 -2.06473 0
M  V30 5999 C 585.493 1.18967 -1.46602 0
M  V30 6000 O 584.85 1.72824 -0.586341 0
M  V30 6001 C 584.901 -0.00465418 -3.615 0
M  V30 6002 O 584.622 -1.27494 -4.19138 0
M  V30 6003 C 586.123 0.516213 -4.40284 0
M  V30 6004 H 583.343 -0.0765201 -0.666623 0
M  V30 6005 H 585.887 -0.856751 -1.85688 0
M  V30 6006 H 584.042 0.669583 -3.8157 0
M  V30 6007 H 584.456 -1.11536 -5.12504 0
M  V30 6008 H 585.93 0.554994 -5.49203 0
M  V30 6009 H 586.407 1.5419 -4.11245 0
M  V30 6010 H 587.013 -0.124542 -4.25118 0
M  V30 6011 N 585.328 1.53329 -0.364422 0
M  V30 6012 C 586.261 2.22052 0.526145 0
M  V30 6013 C 587.239 1.21203 1.08391 0
M  V30 6014 O 588.423 1.50101 1.14026 0
M  V30 6015 C 585.55 2.91432 1.72583 0
M  V30 6016 C 584.596 4.06345 1.29562 0
M  V30 6017 S 585.429 5.34671 0.297885 0
M  V30 6018 C 586.585 6.07563 1.50392 0
M  V30 6019 H 586.818 2.97244 -0.0575055 0
M  V30 6020 H 584.351 1.53684 -0.148525 0
M  V30 6021 H 586.309 3.3202 2.41398 0
M  V30 6022 H 584.97 2.15966 2.28073 0
M  V30 6023 H 584.163 4.53901 2.19067 0
M  V30 6024 H 583.765 3.67642 0.686696 0
M  V30 6025 H 586.057 6.32224 2.43513 0
M  V30 6026 H 587 6.99973 1.06977 0
M  V30 6027 H 587.408 5.37994 1.70945 0
M  V30 6028 N 586.806 0.0935595 1.57322 0
M  V30 6029 C 588.222 -0.263091 1.57417 0
M  V30 6030 C 588.422 -1.68526 1.1046 0
M  V30 6031 O 587.478 -2.40139 0.780357 0
M  V30 6032 C 588.791 -0.0529201 3.00653 0
M  V30 6033 C 590.339 -0.120788 3.12767 0
M  V30 6034 C 590.814 0.0613707 4.57959 0
M  V30 6035 N 592.305 0.00648534 4.632 0
M  V30 6036 C 593.04 0.122699 5.73269 0
M  V30 6037 N 592.536 0.29366 6.92177 0
M  V30 6038 N 594.329 0.0640787 5.62063 0
M  V30 6039 H 586.48 1.02277 1.86154 0
M  V30 6040 H 588.743 0.4007 0.859153 0
M  V30 6041 H 588.449 0.929279 3.39201 0
M  V30 6042 H 588.323 -0.795899 3.68708 0
M  V30 6043 H 590.71 -1.09349 2.74093 0
M  V30 6044 H 590.791 0.653656 2.47307 0
M  V30 6045 H 590.435 1.03093 4.97327 0
M  V30 6046 H 590.365 -0.732748 5.21477 0
M  V30 6047 H 592.856 -0.123173 3.77699 0
M  V30 6048 H 593.169 0.37389 7.71895 0
M  V30 6049 H 591.514 0.329307 6.94219 0
M  V30 6050 H 594.705 -0.0683396 4.6805 0
M  V30 6051 H 594.878 0.158097 6.47807 0
M  V30 6052 N 588.284 -1.56567 -0.180126 0
M  V30 6053 C 589.7 -1.50488 -0.531559 0
M  V30 6054 C 589.9 -0.796267 -1.851 0
M  V30 6055 O 588.956 -0.352978 -2.50021 0
M  V30 6056 C 590.269 -2.95201 -0.572456 0
M  V30 6057 C 591.817 -3.05957 -0.660264 0
M  V30 6058 C 592.292 -4.5211 -0.732135 0
M  V30 6059 N 593.783 -4.56322 -0.795262 0
M  V30 6060 C 594.518 -5.66742 -0.871296 0
M  V30 6061 N 594.014 -6.86815 -0.908708 0
M  V30 6062 N 595.807 -5.54691 -0.909639 0
M  V30 6063 H 587.958 -2.01045 0.685165 0
M  V30 6064 H 590.221 -0.915536 0.245962 0
M  V30 6065 H 589.927 -3.50165 0.328208 0
M  V30 6066 H 589.801 -3.49369 -1.422 0
M  V30 6067 H 592.188 -2.51032 -1.55136 0
M  V30 6068 H 592.269 -2.54888 0.215783 0
M  V30 6069 H 591.913 -5.07664 0.154664 0
M  V30 6070 H 591.843 -5.00926 -1.6242 0
M  V30 6071 H 594.334 -3.69868 -0.77499 0
M  V30 6072 H 594.647 -7.66718 -0.967654 0
M  V30 6073 H 592.992 -6.89443 -0.877132 0
M  V30 6074 H 596.183 -4.59804 -0.877353 0
M  V30 6075 H 596.356 -6.40768 -0.965434 0
M  V30 6076 N 589.762 0.448376 -1.51087 0
M  V30 6077 C 591.039 1.20926 -1.53741 0
M  V30 6078 C 591.419 2.09025 -0.295222 0
M  V30 6079 O 590.767 2.16851 0.720283 0
M  V30 6080 C 590.977 2.02067 -2.84552 0
M  V30 6081 C 592.325 2.59486 -3.36084 0
M  V30 6082 O 593.349 2.12289 -2.86028 0
M  V30 6083 O 592.208 3.45539 -4.23397 0
M  V30 6084 H 589.302 0.549951 -0.617643 0
M  V30 6085 H 591.848 0.458344 -1.63393 0
M  V30 6086 H 590.62 1.37291 -3.66425 0
M  V30 6087 H 590.243 2.84246 -2.78011 0
M  V30 6088 N 591.24 1.41047 0.703093 0
M  V30 6089 C 592.487 1.4 1.46309 0
M  V30 6090 C 592.815 0.00654574 1.94499 0
M  V30 6091 O 592.07 -0.980255 1.6938 0
M  V30 6092 C 592.369 2.34686 2.6955 0
M  V30 6093 C 592.035 3.81684 2.40058 0
M  V30 6094 C 590.697 4.21731 2.31725 0
M  V30 6095 C 593.049 4.74525 2.15581 0
M  V30 6096 C 590.377 5.52637 1.97001 0
M  V30 6097 C 592.729 6.05744 1.82366 0
M  V30 6098 C 591.393 6.44819 1.72524 0
M  V30 6099 H 590.663 0.512295 0.535382 0
M  V30 6100 H 593.31 1.73792 0.804275 0
M  V30 6101 H 591.615 1.94122 3.40329 0
M  V30 6102 H 593.312 2.31152 3.27673 0
M  V30 6103 H 589.902 3.49963 2.47435 0
M  V30 6104 H 594.086 4.44395 2.20968 0
M  V30 6105 H 589.342 5.81802 1.87928 0
M  V30 6106 H 593.516 6.77189 1.62444 0
M  V30 6107 H 591.143 7.46168 1.45385 0
M  V30 6108 N 592.718 -0.936591 1.26751 0
M  V30 6109 C 593.943 -1.72288 1.15462 0
M  V30 6110 C 594.368 -1.85915 -0.285887 0
M  V30 6111 O 593.726 -1.35272 -1.20711 0
M  V30 6112 C 593.774 -3.10503 1.83359 0
M  V30 6113 O 592.878 -3.96745 1.1255 0
M  V30 6114 H 592.219 -0.52843 0.402067 0
M  V30 6115 H 594.749 -1.17271 1.67656 0
M  V30 6116 H 594.759 -3.60867 1.90365 0
M  V30 6117 H 593.434 -2.99901 2.88153 0
M  V30 6118 H 592.011 -3.55191 1.13551 0
M  V30 6119 N 594.196 -1.08629 -1.14182 0
M  V30 6120 C 595.144 -0.71284 -2.21408 0
M  V30 6121 C 596.138 0.282457 -1.67029 0
M  V30 6122 O 597.344 0.144783 -1.79417 0
M  V30 6123 H 593.719 -0.212497 -0.721352 0
M  V30 6124 H 595.69 -1.6265 -2.50175 0
M  V30 6125 C 594.439 -0.140704 -3.47415 0
M  V30 6126 H 593.762 -0.897739 -3.8959 0
M  V30 6127 H 595.202 0.0827677 -4.23919 0
M  V30 6128 C 593.661 1.122 -3.17668 0
M  V30 6129 O 594.191 2.20652 -3.35672 0
M  V30 6130 N 592.397 1.03328 -2.71609 0
M  V30 6131 H 591.944 0.150666 -2.57159 0
M  V30 6132 H 591.902 1.8789 -2.52081 0
M  V30 6133 N 595.674 1.31259 -0.872281 0
M  V30 6134 C 596.622 2.30404 -0.318897 0
M  V30 6135 C 597.616 1.5962 0.567267 0
M  V30 6136 O 598.822 1.74204 0.453111 0
M  V30 6137 H 595.197 0.747243 -0.0844474 0
M  V30 6138 H 597.168 2.74549 -1.16899 0
M  V30 6139 C 595.917 3.44608 0.462683 0
M  V30 6140 H 595.24 3.99248 -0.209936 0
M  V30 6141 H 596.68 4.1609 0.815187 0
M  V30 6142 C 595.139 2.93456 1.65485 0
M  V30 6143 O 595.669 2.92418 2.75417 0
M  V30 6144 N 593.875 2.49628 1.48776 0
M  V30 6145 H 593.422 2.50671 0.593452 0
M  V30 6146 H 593.38 2.15759 2.28682 0
M  V30 6147 N 597.152 0.631951 1.44375 0
M  V30 6148 C 598.062 -0.073674 2.34484 0
M  V30 6149 C 599.078 -0.834825 1.52665 0
M  V30 6150 O 600.254 -0.786902 1.85391 0
M  V30 6151 C 597.319 -1.04247 3.30656 0
M  V30 6152 C 596.38 -0.280602 4.28382 0
M  V30 6153 C 595.613 -1.20325 5.19959 0
M  V30 6154 O 595.836 -2.44199 5.15484 0
M  V30 6155 O 594.77 -0.687128 5.97965 0
M  V30 6156 H 598.596 0.667477 2.96274 0
M  V30 6157 H 596.181 0.392144 1.44162 0
M  V30 6158 H 598.063 -1.59981 3.89851 0
M  V30 6159 H 596.738 -1.76422 2.71398 0
M  V30 6160 H 595.645 0.319804 3.72731 0
M  V30 6161 H 596.978 0.401144 4.90563 0
M  V30 6162 N 598.631 -1.53133 0.372548 0
M  V30 6163 C 599.878 -2.01356 -0.214959 0
M  V30 6164 C 600.206 -1.2596 -1.48204 0
M  V30 6165 O 599.461 -0.343511 -1.92662 0
M  V30 6166 C 599.76 -3.53206 -0.545938 0
M  V30 6167 C 599.426 -4.46511 0.627624 0
M  V30 6168 C 598.088 -4.71737 0.949615 0
M  V30 6169 C 600.44 -5.01666 1.41353 0
M  V30 6170 C 597.768 -5.4937 2.05936 0
M  V30 6171 C 600.12 -5.80511 2.51375 0
M  V30 6172 C 598.784 -6.04022 2.84101 0
M  V30 6173 H 598.054 -0.736813 -0.078659 0
M  V30 6174 H 600.701 -1.84682 0.506447 0
M  V30 6175 H 599.006 -3.67864 -1.34845 0
M  V30 6176 H 600.703 -3.87997 -1.01287 0
M  V30 6177 H 597.293 -4.27029 0.366635 0
M  V30 6178 H 601.477 -4.82117 1.17802 0
M  V30 6179 H 596.733 -5.65803 2.31682 0
M  V30 6180 H 600.907 -6.22255 3.12684 0
M  V30 6181 H 598.534 -6.63962 3.70214 0
M  V30 6182 N 600.109 -0.101901 -1.5727 0
M  V30 6183 C 601.386 0.602832 -1.86079 0
M  V30 6184 C 601.766 1.85912 -1 0
M  V30 6185 O 601.114 2.28379 -0.0742488 0
M  V30 6186 C 601.324 0.911694 -3.36881 0
M  V30 6187 C 602.672 1.2722 -4.05093 0
M  V30 6188 O 603.696 1.0025 -3.41802 0
M  V30 6189 O 602.555 1.7776 -5.16782 0
M  V30 6190 H 599.649 0.302366 -0.769743 0
M  V30 6191 H 602.195 -0.135113 -1.69161 0
M  V30 6192 H 600.967 0.0207256 -3.91295 0
M  V30 6193 H 600.59 1.70538 -3.59169 0
M  V30 6194 N 601.587 1.56661 0.17182 0
M  V30 6195 C 602.497 1.99604 1.2327 0
M  V30 6196 C 603.513 0.907333 1.4847 0
M  V30 6197 O 604.689 1.21492 1.60629 0
M  V30 6198 C 601.754 2.34685 2.55194 0
M  V30 6199 C 600.815 3.57381 2.3786 0
M  V30 6200 C 600.048 3.90779 3.63494 0
M  V30 6201 O 600.271 3.25152 4.6865 0
M  V30 6202 O 599.205 4.84129 3.57634 0
M  V30 6203 H 603.031 2.90114 0.898192 0
M  V30 6204 H 600.616 1.44522 0.378647 0
M  V30 6205 H 602.498 2.5822 3.33017 0
M  V30 6206 H 601.173 1.47336 2.88225 0
M  V30 6207 H 600.08 3.39064 1.5807 0
M  V30 6208 H 601.413 4.45268 2.09754 0
M  V30 6209 N 603.065 -0.440357 1.51323 0
M  V30 6210 C 604.013 -1.55492 1.72988 0
M  V30 6211 C 605.007 -1.58564 0.596138 0
M  V30 6212 O 606.213 -1.62345 0.777443 0
M  V30 6213 H 602.588 -0.516532 0.546533 0
M  V30 6214 H 604.559 -1.34392 2.66423 0
M  V30 6215 C 603.308 -2.93176 1.86931 0
M  V30 6216 H 602.631 -2.91543 2.73574 0
M  V30 6217 H 604.071 -3.70537 2.06103 0
M  V30 6218 C 602.53 -3.30988 0.628365 0
M  V30 6219 O 603.06 -4.01106 -0.218367 0
M  V30 6220 N 601.266 -2.86719 0.473339 0
M  V30 6221 H 600.813 -2.2983 1.16345 0
M  V30 6222 H 600.771 -3.12381 -0.355727 0
M  V30 6223 N 604.543 -1.41418 -0.695603 0
M  V30 6224 C 605.959 -1.23887 -1.00619 0
M  V30 6225 C 606.159 -0.128206 -2.01092 0
M  V30 6226 O 605.215 0.507408 -2.47349 0
M  V30 6227 C 606.528 -2.58816 -1.53083 0
M  V30 6228 C 608.076 -2.65998 -1.64967 0
M  V30 6229 C 608.551 -4.01244 -2.20833 0
M  V30 6230 N 610.042 -4.0309 -2.28194 0
M  V30 6231 C 610.777 -5.04539 -2.72448 0
M  V30 6232 N 610.273 -6.16378 -3.16306 0
M  V30 6233 N 612.066 -4.91901 -2.72011 0
M  V30 6234 H 604.217 -2.12379 -0.0300061 0
M  V30 6235 H 606.48 -0.944958 -0.0758797 0
M  V30 6236 H 606.186 -3.40842 -0.867147 0
M  V30 6237 H 606.06 -2.81299 -2.51298 0
M  V30 6238 H 608.447 -1.84331 -2.30448 0
M  V30 6239 H 608.528 -2.47325 -0.652982 0
M  V30 6240 H 608.172 -4.83359 -1.55968 0
M  V30 6241 H 608.102 -4.17257 -3.21254 0
M  V30 6242 H 610.593 -3.22341 -1.97242 0
M  V30 6243 H 610.906 -6.89658 -3.487 0
M  V30 6244 H 609.251 -6.19914 -3.14215 0
M  V30 6245 H 612.442 -4.03613 -2.37095 0
M  V30 6246 H 612.615 -5.71102 -3.06181 0
M  V30 6247 N 606.021 0.929856 -1.27246 0
M  V30 6248 C 606.951 2.04722 -1.12299 0
M  V30 6249 C 607.932 1.70082 -0.0250464 0
M  V30 6250 O 609.117 1.93176 -0.199141 0
M  V30 6251 C 606.247 3.38721 -0.767145 0
M  V30 6252 C 605.201 3.87466 -1.81808 0
M  V30 6253 C 604.527 5.18246 -1.31626 0
M  V30 6254 C 605.827 4.11095 -3.22177 0
M  V30 6255 H 607.521 2.17485 -2.05769 0
M  V30 6256 H 605.067 1.04503 -0.990715 0
M  V30 6257 H 607.02 4.16366 -0.649413 0
M  V30 6258 H 605.744 3.25967 0.203259 0
M  V30 6259 H 604.403 3.12012 -1.92468 0
M  V30 6260 H 604.051 5.01881 -0.335378 0
M  V30 6261 H 603.751 5.51829 -2.01887 0
M  V30 6262 H 605.275 5.98462 -1.21143 0
M  V30 6263 H 606.689 4.79316 -3.1453 0
M  V30 6264 H 605.086 4.55982 -3.90129 0
M  V30 6265 H 606.156 3.16468 -3.67391 0
M  V30 6266 N 607.499 1.09233 1.13605 0
M  V30 6267 C 608.748 0.82205 1.84188 0
M  V30 6268 C 609.061 -0.654548 1.84323 0
M  V30 6269 O 610.267 -1.04029 2.50779 0
M  V30 6270 C 608.723 1.42066 3.30674 0
M  V30 6271 C 608.331 2.92965 3.38933 0
M  V30 6272 C 610.075 1.22924 4.06313 0
M  V30 6273 C 607.982 3.45922 4.79679 0
M  V30 6274 H 606.912 0.303854 0.690064 0
M  V30 6275 H 609.563 1.31479 1.28006 0
M  V30 6276 H 607.945 0.855613 3.86646 0
M  V30 6277 H 609.119 3.55679 2.92966 0
M  V30 6278 H 607.434 3.11118 2.76757 0
M  V30 6279 H 610.031 1.59945 5.10217 0
M  V30 6280 H 610.374 0.169726 4.15954 0
M  V30 6281 H 610.907 1.76168 3.56665 0
M  V30 6282 H 607.646 4.51484 4.75229 0
M  V30 6283 H 607.166 2.87971 5.26149 0
M  V30 6284 H 608.845 3.43009 5.48592 0
M  V30 6285 N 608.977 -1.30795 0.87923 0
M  V30 6286 C 610.226 -1.95636 0.490875 0
M  V30 6287 C 610.539 -1.70214 -0.963674 0
M  V30 6288 O 611.745 -2.28991 -1.45861 0
M  V30 6289 C 610.201 -3.50271 0.826929 0
M  V30 6290 C 609.809 -3.84521 2.29886 0
M  V30 6291 C 611.553 -4.21456 0.507494 0
M  V30 6292 C 609.46 -5.32309 2.57685 0
M  V30 6293 H 608.39 -0.732238 0.179841 0
M  V30 6294 H 611.041 -1.48829 1.07341 0
M  V30 6295 H 609.423 -3.9562 0.173542 0
M  V30 6296 H 610.597 -3.50102 2.99609 0
M  V30 6297 H 608.912 -3.26425 2.58526 0
M  V30 6298 H 611.509 -5.30199 0.692293 0
M  V30 6299 H 611.852 -4.12614 -0.552718 0
M  V30 6300 H 612.385 -3.81772 1.11782 0
M  V30 6301 H 609.124 -5.46195 3.62424 0
M  V30 6302 H 608.644 -5.68048 1.92566 0
M  V30 6303 H 610.323 -5.99678 2.42889 0
M  V30 6304 N 610.455 -0.639598 -1.44038 0
M  V30 6305 C 611.68 -0.153117 -2.06834 0
M  V30 6306 C 612.105 1.16676 -1.47541 0
M  V30 6307 O 611.463 1.71769 -0.580093 0
M  V30 6308 C 611.511 -0.0609169 -3.60549 0
M  V30 6309 O 610.615 0.98071 -4.00569 0
M  V30 6310 H 609.956 -0.0886402 -0.658057 0
M  V30 6311 H 612.486 -0.878674 -1.84771 0
M  V30 6312 H 612.496 0.126892 -4.07803 0
M  V30 6313 H 611.171 -1.0245 -4.03084 0
M  V30 6314 H 609.748 0.766789 -3.64931 0
M  V30 6315 N 611.933 1.52934 -0.380664 0
M  V30 6316 C 613.163 2.05587 0.204302 0
M  V30 6317 C 613.571 1.25288 1.41773 0
M  V30 6318 O 612.914 0.290394 1.8139 0
M  V30 6319 C 612.976 3.53624 0.647324 0
M  V30 6320 C 612.64 4.54765 -0.451465 0
M  V30 6321 C 613.637 5.03226 -1.30614 0
M  V30 6322 C 611.322 4.98508 -0.616025 0
M  V30 6323 C 613.316 5.94046 -2.31058 0
M  V30 6324 C 611.003 5.89131 -1.62381 0
M  V30 6325 C 612.001 6.36792 -2.46952 0
M  V30 6326 O 611.689 7.25626 -3.46009 0
M  V30 6327 H 611.421 0.675013 0.0365198 0
M  V30 6328 H 613.975 1.98125 -0.541827 0
M  V30 6329 H 612.205 3.58676 1.44529 0
M  V30 6330 H 613.894 3.89061 1.15698 0
M  V30 6331 H 614.66 4.70167 -1.19027 0
M  V30 6332 H 610.539 4.60989 0.0324987 0
M  V30 6333 H 614.083 6.3117 -2.97104 0
M  V30 6334 H 609.98 6.21603 -1.7401 0
M  V30 6335 H 610.748 7.43664 -3.41916 0
M  V30 6336 N 613.412 0.11024 1.57214 0
M  V30 6337 C 614.823 -0.416527 1.81994 0
M  V30 6338 C 615.174 -1.67183 1.02686 0
M  V30 6339 O 614.299 -2.14823 0.260782 0
M  V30 6340 C 614.894 -0.762466 3.30109 0
M  V30 6341 C 613.453 -1.23391 3.556 0
M  V30 6342 C 612.6 -0.238166 2.76275 0
M  V30 6343 H 615.551 0.335491 1.55113 0
M  V30 6344 H 615.572 -1.62068 3.44259 0
M  V30 6345 H 615.084 0.151346 3.87805 0
M  V30 6346 H 613.185 -2.16492 3.03253 0
M  V30 6347 H 613.298 -1.18528 4.64207 0
M  V30 6348 H 611.662 -0.723421 2.4421 0
M  V30 6349 H 612.445 0.668591 3.36727 0
M  V30 6350 N 614.89 -1.56749 -0.16351 0
M  V30 6351 C 615.82 -2.00042 -1.20438 0
M  V30 6352 C 616.801 -0.877256 -1.45733 0
M  V30 6353 O 617.986 -1.1439 -1.56935 0
M  V30 6354 C 615.116 -2.36697 -2.54149 0
M  V30 6355 C 614.07 -3.52046 -2.43408 0
M  V30 6356 C 613.396 -3.74466 -3.81679 0
M  V30 6357 C 614.696 -4.85247 -1.93216 0
M  V30 6358 H 616.39 -2.87244 -0.844477 0
M  V30 6359 H 613.936 -1.38194 -0.40478 0
M  V30 6360 H 615.889 -2.65582 -3.27176 0
M  V30 6361 H 614.613 -1.46414 -2.91943 0
M  V30 6362 H 613.272 -3.23301 -1.72834 0
M  V30 6363 H 612.92 -2.81461 -4.1688 0
M  V30 6364 H 612.62 -4.52084 -3.75359 0
M  V30 6365 H 614.144 -4.0576 -4.5628 0
M  V30 6366 H 615.558 -5.12957 -2.56023 0
M  V30 6367 H 613.955 -5.66556 -1.97825 0
M  V30 6368 H 615.025 -4.7672 -0.88689 0
M  V30 6369 N 616.368 0.432326 -1.51554 0
M  V30 6370 C 617.593 1.20824 -1.68571 0
M  V30 6371 C 618.018 1.84126 -0.384596 0
M  V30 6372 O 617.376 1.69025 0.655751 0
M  V30 6373 C 617.424 2.26429 -2.80646 0
M  V30 6374 O 616.528 3.32032 -2.44598 0
M  V30 6375 H 615.869 0.353765 -0.561913 0
M  V30 6376 H 618.399 0.509916 -1.98144 0
M  V30 6377 H 618.409 2.71133 -3.04878 0
M  V30 6378 H 617.084 1.79733 -3.75058 0
M  V30 6379 H 615.661 2.92769 -2.30956 0
M  V30 6380 N 617.846 1.41785 0.688094 0
M  V30 6381 C 618.776 1.47 1.8142 0
M  V30 6382 C 619.757 0.327881 1.6691 0
M  V30 6383 O 620.942 0.540362 1.86531 0
M  V30 6384 C 618.072 1.35876 3.19617 0
M  V30 6385 C 617.026 2.47976 3.48844 0
M  V30 6386 C 616.352 2.21915 4.86475 0
M  V30 6387 C 617.652 3.90309 3.47068 0
M  V30 6388 H 619.346 2.41247 1.77314 0
M  V30 6389 H 616.892 1.16116 0.851651 0
M  V30 6390 H 618.845 1.38134 3.98117 0
M  V30 6391 H 617.569 0.38116 3.24368 0
M  V30 6392 H 616.228 2.45013 2.72698 0
M  V30 6393 H 615.876 1.2248 4.8786 0
M  V30 6394 H 615.576 2.97037 5.06994 0
M  V30 6395 H 617.1 2.25901 5.67275 0
M  V30 6396 H 618.514 3.94947 4.1556 0
M  V30 6397 H 616.911 4.65175 3.7912 0
M  V30 6398 H 617.981 4.17927 2.45896 0
M  V30 6399 N 619.324 -0.923095 1.27737 0
M  V30 6400 C 620.254 -2.04124 1.13383 0
M  V30 6401 C 621.235 -1.70066 0.0340658 0
M  V30 6402 O 622.42 -1.93068 0.209383 0
M  V30 6403 C 619.55 -3.3831 0.785097 0
M  V30 6404 C 618.504 -3.86496 1.8386 0
M  V30 6405 C 617.83 -5.1754 1.34373 0
M  V30 6406 C 619.13 -4.09381 3.24353 0
M  V30 6407 H 620.824 -2.1639 2.06919 0
M  V30 6408 H 618.37 -1.03976 0.996243 0
M  V30 6409 H 620.323 -4.16016 0.671485 0
M  V30 6410 H 619.047 -3.2607 -0.185969 0
M  V30 6411 H 617.706 -3.10987 1.9412 0
M  V30 6412 H 617.354 -5.01696 0.361989 0
M  V30 6413 H 617.054 -5.50751 2.04811 0
M  V30 6414 H 618.578 -5.97811 1.24315 0
M  V30 6415 H 619.992 -4.77641 3.17067 0
M  V30 6416 H 618.389 -4.53906 3.92542 0
M  V30 6417 H 619.459 -3.14515 3.69064 0
M  V30 6418 O 620.841 -1.22056 -1.05757 0
M  V30 6419 H 621.532 -0.983935 -1.66848 0
M  V30 END ATOM
M  V30 BEGIN BOND
M  V30 END BOND
M  V30 END CTAB
M  END
$$$$
