drugbank_target|Q6A8X5 Putative aminooxidase (DB04746; DB04747)
 OpenBabel12092120303D

  0  0  0     0  0            999 V3000
M  V30 BEGIN CTAB
M  V30 COUNTS 6708 6806 0 0 0
M  V30 BEGIN ATOM
M  V30 1 H -0.908 1.98254 -0.117106 0
M  V30 2 N 0 1.576 0 0
M  V30 3 C 0.933 2.03868 1.02534 0
M  V30 4 C 1.911 0.928543 1.3348 0
M  V30 5 O 3.095 1.19667 1.45644 0
M  V30 6 C 0.222 2.43627 2.35294 0
M  V30 7 C -0.732 3.65373 2.2001 0
M  V30 8 S 0.101 5.13292 1.52614 0
M  V30 9 C 1.257 5.56322 2.86805 0
M  V30 10 H 1.49 2.90518 0.631377 0
M  V30 11 H -0.977 1.52953 0.210867 0
M  V30 12 H 0.981 2.67203 3.11629 0
M  V30 13 H -0.358 1.57376 2.7183 0
M  V30 14 H -1.165 3.90944 3.18086 0
M  V30 15 H -1.563 3.418 1.51819 0
M  V30 16 H 0.729 5.58782 3.83104 0
M  V30 17 H 1.672 6.56266 2.65933 0
M  V30 18 H 2.08 4.83886 2.90714 0
M  V30 19 N 1.4781 -0.272755 1.55222 0
M  V30 20 C 2.7031 -1.02683 1.80197 0
M  V30 21 C 3.1281 -1.79142 0.573551 0
M  V30 22 O 2.4861 -1.74917 -0.476849 0
M  V30 23 C 2.5341 -1.9609 3.02624 0
M  V30 24 O 1.6381 -3.04863 2.77727 0
M  V30 25 H 0.9791 -0.293557 0.595584 0
M  V30 26 H 3.5091 -0.30159 2.02365 0
M  V30 27 H 3.5191 -2.38039 3.31363 0
M  V30 28 H 2.1941 -1.39851 3.91682 0
M  V30 29 H 0.7711 -2.67228 2.60084 0
M  V30 30 N 2.9562 -1.48159 -0.537278 0
M  V30 31 C 4.2052 -1.5506 -1.28993 0
M  V30 32 C 4.5182 -0.226211 -1.94288 0
M  V30 33 O 5.7242 -0.173395 -2.70946 0
M  V30 34 C 4.1802 -2.73429 -2.34018 0
M  V30 35 C 3.7882 -4.1248 -1.74825 0
M  V30 36 C 5.5322 -2.89638 -3.10339 0
M  V30 37 C 3.4392 -5.22121 -2.77747 0
M  V30 38 H 2.3692 -0.577231 -0.485098 0
M  V30 39 H 5.0202 -1.74478 -0.568317 0
M  V30 40 H 3.4022 -2.47431 -3.09182 0
M  V30 41 H 4.5762 -4.48466 -1.05899 0
M  V30 42 H 2.8912 -4.01327 -1.11022 0
M  V30 43 H 5.4882 -3.68718 -3.87235 0
M  V30 44 H 5.8312 -1.9882 -3.65754 0
M  V30 45 H 6.3642 -3.15502 -2.42288 0
M  V30 46 H 3.1032 -6.1488 -2.27161 0
M  V30 47 H 2.6232 -4.90631 -3.45024 0
M  V30 48 H 4.3022 -5.49924 -3.4087 0
M  V30 49 N 4.4343 0.785586 -1.36625 0
M  V30 50 C 5.6593 1.57963 -1.34397 0
M  V30 51 C 6.0843 1.87964 0.071526 0
M  V30 52 O 5.4423 1.48182 1.0446 0
M  V30 53 C 5.4903 2.87511 -2.17646 0
M  V30 54 O 4.5943 3.81281 -1.57158 0
M  V30 55 H 3.9353 0.479014 -0.459828 0
M  V30 56 H 6.4653 0.973411 -1.79961 0
M  V30 57 H 6.4753 3.36745 -2.30362 0
M  V30 58 H 5.1503 2.65002 -3.20541 0
M  V30 59 H 3.7273 3.39885 -1.53403 0
M  V30 60 N 5.9124 1.20967 1.01018 0
M  V30 61 C 6.8594 0.964281 2.09691 0
M  V30 62 C 7.8294 -0.107853 1.65749 0
M  V30 63 O 9.0144 0.0381987 1.90762 0
M  V30 64 C 6.1544 0.52943 3.41015 0
M  V30 65 C 5.2674 1.67043 3.98398 0
M  V30 66 C 4.4024 1.18525 5.17808 0
M  V30 67 C 3.4414 2.29892 5.67288 0
M  V30 68 N 2.5784 1.82546 6.77954 0
M  V30 69 H 7.4184 1.89463 2.30017 0
M  V30 70 H 4.9554 0.944289 1.1279 0
M  V30 71 H 6.9134 0.258588 4.16398 0
M  V30 72 H 5.5434 -0.363919 3.20742 0
M  V30 73 H 4.5954 2.05603 3.20049 0
M  V30 74 H 5.9074 2.50877 4.31117 0
M  V30 75 H 5.0614 0.870762 6.00419 0
M  V30 76 H 3.8004 0.316887 4.86669 0
M  V30 77 H 2.8054 2.6215 4.83278 0
M  V30 78 H 4.0304 3.17216 6.00459 0
M  V30 79 H 1.9764 0.980454 6.48632 0
M  V30 80 H 1.8934 2.59956 7.09901 0
M  V30 81 H 3.1614 1.54115 7.64113 0
M  V30 82 N 7.3905 -1.2043 1.01659 0
M  V30 83 C 8.6675 -1.8548 0.621004 0
M  V30 84 C 9.0475 -1.9091 -0.900919 0
M  V30 85 O 8.3955 -1.41694 -1.79263 0
M  V30 86 C 8.6055 -3.25119 1.2688 0
M  V30 87 C 9.9535 -4.01403 1.38423 0
M  V30 88 O 10.9775 -3.34473 1.22501 0
M  V30 89 O 9.8365 -5.21265 1.64151 0
M  V30 90 H 6.9305 -0.798761 0.214266 0
M  V30 91 H 9.4765 -1.28019 1.11396 0
M  V30 92 H 8.2485 -3.15932 2.30873 0
M  V30 93 H 7.8715 -3.90212 0.762917 0
M  V30 94 N 8.8686 -0.792821 -1.36206 0
M  V30 95 C 10.0936 -0.377701 -2.03932 0
M  V30 96 C 10.5186 0.998947 -1.59382 0
M  V30 97 O 9.8766 1.64421 -0.763903 0
M  V30 98 C 9.9246 -0.453635 -3.57735 0
M  V30 99 O 9.0286 0.538151 -4.08874 0
M  V30 100 H 8.3696 -0.159855 -0.644471 0
M  V30 101 H 10.8996 -1.07488 -1.7409 0
M  V30 102 H 10.9096 -0.318464 -4.06755 0
M  V30 103 H 9.5846 -1.45784 -3.89512 0
M  V30 104 H 8.1616 0.364359 -3.71116 0
M  V30 105 N 10.3467 1.47872 -0.545128 0
M  V30 106 C 11.7627 1.5829 -0.204032 0
M  V30 107 C 11.9627 1.54529 1.29317 0
M  V30 108 O 11.0187 1.44232 2.07252 0
M  V30 109 C 12.3317 2.89304 -0.819987 0
M  V30 110 C 13.8797 3.02864 -0.790105 0
M  V30 111 C 14.3547 4.3656 -1.38491 0
M  V30 112 N 15.8457 4.43165 -1.34755 0
M  V30 113 C 16.5807 5.45153 -1.77753 0
M  V30 114 N 16.0767 6.54016 -2.2855 0
M  V30 115 N 17.8697 5.36125 -1.68897 0
M  V30 116 H 10.0207 1.4856 -1.51802 0
M  V30 117 H 12.2837 0.706305 -0.632327 0
M  V30 118 H 11.9897 2.97757 -1.87173 0
M  V30 119 H 11.8637 3.75957 -0.305915 0
M  V30 120 H 14.2507 2.94014 0.252913 0
M  V30 121 H 14.3317 2.17782 -1.34181 0
M  V30 122 H 13.9757 4.46164 -2.42693 0
M  V30 123 H 13.9057 5.20353 -0.808754 0
M  V30 124 H 16.3967 3.65083 -0.975855 0
M  V30 125 H 16.7097 7.27994 -2.59314 0
M  V30 126 H 15.0547 6.54938 -2.32553 0
M  V30 127 H 18.2457 4.49975 -1.28998 0
M  V30 128 H 18.4187 6.15472 -2.02726 0
M  V30 129 N 11.8248 0.280983 1.55075 0
M  V30 130 C 13.0738 -0.334784 1.98902 0
M  V30 131 C 13.3868 -1.56534 1.17288 0
M  V30 132 O 14.5928 -2.25443 1.51287 0
M  V30 133 C 13.0488 -0.646994 3.54037 0
M  V30 134 C 12.6568 0.564085 4.44435 0
M  V30 135 C 14.4008 -1.22506 4.06439 0
M  V30 136 C 12.3078 0.226137 5.90967 0
M  V30 137 H 11.2378 -0.128866 0.742906 0
M  V30 138 H 13.8888 0.386556 1.79382 0
M  V30 139 H 12.2708 -1.42739 3.6938 0
M  V30 140 H 13.4448 1.34082 4.40861 0
M  V30 141 H 11.7598 1.0594 4.02698 0
M  V30 142 H 14.3568 -1.49182 5.13468 0
M  V30 143 H 14.6998 -2.16085 3.55827 0
M  V30 144 H 15.2328 -0.50682 3.94558 0
M  V30 145 H 11.9718 1.12996 6.45687 0
M  V30 146 H 11.4918 -0.513717 5.97596 0
M  V30 147 H 13.1708 -0.179539 6.46751 0
M  V30 148 N 13.3029 -1.57598 0.00835791 0
M  V30 149 C 14.2659 -2.07884 -0.965242 0
M  V30 150 C 15.2659 -0.989825 -1.26725 0
M  V30 151 O 16.4559 -1.25218 -1.21104 0
M  V30 152 C 13.5879 -2.52731 -2.28779 0
M  V30 153 H 14.7809 -2.95178 -0.530112 0
M  V30 154 H 12.3339 -1.54458 -0.239283 0
M  V30 155 H 13.0689 -1.68705 -2.76964 0
M  V30 156 H 12.8539 -3.32272 -2.08177 0
M  V30 157 H 14.3439 -2.91933 -2.98605 0
M  V30 158 N 14.781 0.264519 -1.55364 0
M  V30 159 C 16.03 0.992812 -1.75574 0
M  V30 160 C 16.343 1.87142 -0.568979 0
M  V30 161 O 17.549 2.63513 -0.653682 0
M  V30 162 C 16.005 1.81519 -3.10771 0
M  V30 163 C 15.613 0.984839 -4.37041 0
M  V30 164 C 17.357 2.53727 -3.40327 0
M  V30 165 C 15.264 1.80209 -5.63275 0
M  V30 166 H 14.194 0.374412 -0.65447 0
M  V30 167 H 16.845 0.248138 -1.81815 0
M  V30 168 H 15.227 2.60115 -2.98591 0
M  V30 169 H 16.401 0.242455 -4.60162 0
M  V30 170 H 14.716 0.37691 -4.14691 0
M  V30 171 H 17.313 3.15292 -4.3185 0
M  V30 172 H 17.656 3.24447 -2.60845 0
M  V30 173 H 18.189 1.82156 -3.53644 0
M  V30 174 H 14.928 1.13896 -6.45529 0
M  V30 175 H 14.448 2.52022 -5.44284 0
M  V30 176 H 16.127 2.37364 -6.01887 0
M  V30 177 N 16.2591 1.48442 0.529413 0
M  V30 178 C 17.5081 1.55742 1.28169 0
M  V30 179 C 17.8211 0.236511 1.94165 0
M  V30 180 O 19.0271 0.187761 2.7085 0
M  V30 181 C 17.4831 2.74667 2.32564 0
M  V30 182 C 17.0911 4.13402 1.72636 0
M  V30 183 C 18.8351 2.9128 3.08798 0
M  V30 184 C 16.7421 5.23587 2.74975 0
M  V30 185 H 15.6721 0.579796 0.48203 0
M  V30 186 H 18.3231 1.74776 0.559056 0
M  V30 187 H 16.7051 2.49067 3.07866 0
M  V30 188 H 17.8791 4.49022 1.03519 0
M  V30 189 H 16.1941 4.0191 1.08892 0
M  V30 190 H 18.7911 3.70767 3.85274 0
M  V30 191 H 19.1341 2.00757 3.64695 0
M  V30 192 H 19.6671 3.16782 2.40611 0
M  V30 193 H 16.4061 6.16076 2.23897 0
M  V30 194 H 15.9261 4.92454 3.42417 0
M  V30 195 H 17.6051 5.51724 3.37949 0
M  V30 196 N 17.7372 -0.778329 1.37039 0
M  V30 197 C 18.9852 -1.53361 1.31623 0
M  V30 198 C 19.3062 -1.94739 -0.100831 0
M  V30 199 O 18.5762 -1.65797 -1.04347 0
M  V30 200 H 17.1562 -0.568794 0.484234 0
M  V30 201 H 19.8182 -0.926742 1.71457 0
M  V30 202 H 18.9142 -2.43606 1.95096 0
M  V30 203 N 19.2153 -1.21501 -1.00376 0
M  V30 204 C 20.1783 -0.976927 -2.07337 0
M  V30 205 C 21.1783 0.0525322 -1.60714 0
M  V30 206 O 22.3683 -0.184869 -1.73216 0
M  V30 207 C 19.5003 -0.473423 -3.37597 0
M  V30 208 H 20.6933 -1.92587 -2.29892 0
M  V30 209 H 18.2463 -1.03217 -1.17371 0
M  V30 210 H 18.9813 0.480379 -3.20722 0
M  V30 211 H 18.7663 -1.216 -3.72768 0
M  V30 212 H 20.2563 -0.32675 -4.1632 0
M  V30 213 N 20.6934 1.19889 -1.02296 0
M  V30 214 C 21.9414 1.89046 -0.714558 0
M  V30 215 C 22.2624 1.79636 0.758681 0
M  V30 216 O 21.5324 1.20292 1.54618 0
M  V30 217 H 20.1124 0.699802 -0.261317 0
M  V30 218 H 22.7744 1.45574 -1.29592 0
M  V30 219 H 21.8704 2.95524 -1.0036 0
M  V30 220 N 22.1715 0.800033 1.35784 0
M  V30 221 C 23.5825 0.439142 1.81462 0
M  V30 222 C 23.9335 -1.03813 1.66485 0
M  V30 223 O 23.0585 -1.80626 1.19177 0
M  V30 224 C 23.6535 0.790314 3.29453 0
M  V30 225 C 22.2125 0.482111 3.733 0
M  V30 226 C 21.3595 1.01938 2.57883 0
M  V30 227 H 24.3105 0.992254 1.23855 0
M  V30 228 H 24.3315 0.0853677 3.80404 0
M  V30 229 H 23.8435 1.86554 3.40322 0
M  V30 230 H 21.9445 -0.584652 3.67984 0
M  V30 231 H 22.0575 1.01015 4.6833 0
M  V30 232 H 20.4215 0.442043 2.50835 0
M  V30 233 H 21.2045 2.10059 2.71533 0
M  V30 234 N 23.6496 -1.47581 0.552962 0
M  V30 235 C 24.6126 -2.28439 -0.186605 0
M  V30 236 C 25.6126 -1.36706 -0.84665 0
M  V30 237 O 26.8026 -1.59378 -0.703164 0
M  V30 238 C 23.9346 -3.16264 -1.2724 0
M  V30 239 H 25.1276 -2.95294 0.523609 0
M  V30 240 H 22.6806 -1.532 0.309745 0
M  V30 241 H 23.4156 -2.54091 -2.01514 0
M  V30 242 H 23.2006 -3.83769 -0.803968 0
M  V30 243 H 24.6906 -3.77198 -1.79196 0
M  V30 244 N 25.1277 -0.289203 -1.54924 0
M  V30 245 C 26.3757 0.322879 -1.99504 0
M  V30 246 C 26.6967 1.55313 -1.1791 0
M  V30 247 O 25.9667 1.94001 -0.272097 0
M  V30 248 H 24.5467 0.122291 -0.736922 0
M  V30 249 H 27.2087 -0.397802 -1.90797 0
M  V30 250 H 26.3047 0.603061 -3.06218 0
M  V30 251 N 26.6058 1.57591 -0.0167156 0
M  V30 252 C 27.5358 2.12496 0.967858 0
M  V30 253 C 28.5168 1.03807 1.34752 0
M  V30 254 O 29.7018 1.31577 1.42833 0
M  V30 255 C 26.8318 2.64194 2.25431 0
M  V30 256 C 25.7858 3.77559 2.01576 0
M  V30 257 C 25.1118 4.15636 3.36379 0
M  V30 258 C 26.4118 5.04151 1.36489 0
M  V30 259 H 28.1058 2.95013 0.510643 0
M  V30 260 H 25.6518 1.41915 0.244181 0
M  V30 261 H 27.6048 3.01236 2.94678 0
M  V30 262 H 26.3288 1.78821 2.73296 0
M  V30 263 H 24.9878 3.40937 1.34751 0
M  V30 264 H 24.6358 3.27263 3.81979 0
M  V30 265 H 24.3358 4.92022 3.21229 0
M  V30 266 H 25.8598 4.5525 4.06915 0
M  V30 267 H 27.2738 5.38857 1.95718 0
M  V30 268 H 25.6708 5.85453 1.31776 0
M  V30 269 H 26.7408 4.83733 0.336219 0
M  V30 270 N 28.0839 -0.256276 1.55502 0
M  V30 271 C 29.0469 -1.30047 1.88734 0
M  V30 272 C 30.0469 -1.4154 0.763086 0
M  V30 273 O 31.2369 -1.40403 1.03115 0
M  V30 274 C 28.3689 -2.67953 2.10747 0
M  V30 275 H 29.5619 -1.01802 2.82093 0
M  V30 276 H 27.1149 -0.495134 1.4825 0
M  V30 277 H 27.8499 -3.01351 1.19825 0
M  V30 278 H 27.6349 -2.60993 2.92617 0
M  V30 279 H 29.1249 -3.43368 2.37673 0
M  V30 280 N 29.562 -1.4872 -0.521534 0
M  V30 281 C 30.525 -1.63379 -1.60748 0
M  V30 282 C 31.525 -0.50661 -1.52611 0
M  V30 283 O 32.715 -0.772601 -1.5613 0
M  V30 284 C 29.847 -1.61192 -3.00383 0
M  V30 285 H 31.04 -2.60217 -1.49087 0
M  V30 286 H 28.593 -1.37444 -0.744235 0
M  V30 287 H 29.328 -0.65863 -3.17541 0
M  V30 288 H 29.113 -2.43032 -3.07698 0
M  V30 289 H 30.603 -1.7466 -3.7932 0
M  V30 290 N 31.0401 0.771051 -1.3745 0
M  V30 291 C 32.2881 1.52661 -1.32435 0
M  V30 292 C 32.6091 1.9479 0.0905024 0
M  V30 293 O 31.8791 1.66348 1.03466 0
M  V30 294 H 30.4591 0.566218 -0.487244 0
M  V30 295 H 33.1211 0.917636 -1.71946 0
M  V30 296 H 32.2171 2.42568 -1.96385 0
M  V30 297 N 32.5182 1.22032 0.997298 0
M  V30 298 C 33.4512 0.929735 2.08401 0
M  V30 299 C 34.4292 -0.125681 1.62114 0
M  V30 300 O 35.6132 0.00495409 1.88499 0
M  V30 301 C 32.7402 0.397488 3.3636 0
M  V30 302 C 31.7862 1.4369 4.01566 0
M  V30 303 S 32.6192 3.00874 4.42984 0
M  V30 304 C 33.7752 2.49276 5.74119 0
M  V30 305 H 34.0082 1.84998 2.32729 0
M  V30 306 H 31.5412 1.0509 1.13117 0
M  V30 307 H 33.4992 0.0969846 4.10385 0
M  V30 308 H 32.1602 -0.501571 3.10069 0
M  V30 309 H 31.3532 1.01427 4.93689 0
M  V30 310 H 30.9552 1.68588 3.33847 0
M  V30 311 H 33.2472 1.90242 6.50242 0
M  V30 312 H 34.1902 3.39872 6.21203 0
M  V30 313 H 34.5982 1.90714 5.31308 0
M  V30 314 N 33.9963 -1.19345 1.0293 0
M  V30 315 C 35.2263 -1.92717 0.744563 0
M  V30 316 C 35.6343 -1.75751 -0.700579 0
M  V30 317 O 34.9773 -1.07703 -1.48815 0
M  V30 318 C 35.0393 -3.44828 1.01657 0
M  V30 319 C 34.7033 -3.85564 2.45335 0
M  V30 320 C 35.7003 -3.90286 3.43472 0
M  V30 321 C 33.3853 -4.1719 2.79746 0
M  V30 322 C 35.3793 -4.26065 4.74075 0
M  V30 323 C 33.0663 -4.52642 4.10559 0
M  V30 324 C 34.0643 -4.57054 5.07534 0
M  V30 325 O 33.7523 -4.91685 6.36004 0
M  V30 326 H 33.4843 -0.618977 0.271742 0
M  V30 327 H 36.0383 -1.52415 1.37691 0
M  V30 328 H 34.2683 -3.85314 0.327084 0
M  V30 329 H 35.9573 -3.99437 0.721427 0
M  V30 330 H 36.7233 -3.66002 3.18225 0
M  V30 331 H 32.6023 -4.1294 2.04943 0
M  V30 332 H 36.1463 -4.29423 5.49765 0
M  V30 333 H 32.0433 -4.76383 4.35579 0
M  V30 334 H 32.8113 -5.09631 6.40483 0
M  V30 335 N 35.4744 -0.807222 -1.35358 0
M  V30 336 C 36.4044 -0.232509 -2.3234 0
M  V30 337 C 37.3854 0.642386 -1.57504 0
M  V30 338 O 38.5704 0.572526 -1.85569 0
M  V30 339 C 35.7004 0.619238 -3.41735 0
M  V30 340 C 34.6544 -0.157215 -4.27711 0
M  V30 341 C 33.9804 0.816273 -5.28433 0
M  V30 342 C 35.2804 -1.35656 -5.04376 0
M  V30 343 H 36.9744 -1.04276 -2.80654 0
M  V30 344 H 34.5204 -0.50288 -1.34934 0
M  V30 345 H 36.4734 1.03137 -4.08584 0
M  V30 346 H 35.1974 1.46239 -2.92031 0
M  V30 347 H 33.8564 -0.550525 -3.62443 0
M  V30 348 H 33.5044 1.65494 -4.74996 0
M  V30 349 H 33.2044 0.301067 -5.86828 0
M  V30 350 H 34.7284 1.22659 -5.98153 0
M  V30 351 H 36.1424 -1.01927 -5.64166 0
M  V30 352 H 34.5394 -1.8063 -5.7227 0
M  V30 353 H 35.6094 -2.14288 -4.34981 0
M  V30 354 N 36.9525 1.47285 -0.560781 0
M  V30 355 C 37.8625 2.33846 0.187954 0
M  V30 356 C 38.8785 1.48412 0.908293 0
M  V30 357 O 40.0545 1.81332 0.876388 0
M  V30 358 C 37.1195 3.25178 1.2025 0
M  V30 359 C 36.1805 4.26504 0.489208 0
M  V30 360 C 35.4135 5.13472 1.45542 0
M  V30 361 O 35.6365 5.02959 2.6905 0
M  V30 362 O 34.5705 5.93902 0.977963 0
M  V30 363 H 38.3965 2.99177 -0.522177 0
M  V30 364 H 35.9815 1.45903 -0.321364 0
M  V30 365 H 37.8635 3.81584 1.78805 0
M  V30 366 H 36.5385 2.6247 1.89449 0
M  V30 367 H 35.4455 3.73847 -0.137627 0
M  V30 368 H 36.7785 4.91935 -0.161399 0
M  V30 369 N 38.4306 0.297415 1.54768 0
M  V30 370 C 39.3626 -0.613881 2.20826 0
M  V30 371 C 40.3756 -1.10032 1.19987 0
M  V30 372 O 41.5646 -1.01839 1.46598 0
M  V30 373 C 38.6646 -1.852 2.83821 0
M  V30 374 C 37.8376 -1.50865 4.10559 0
M  V30 375 C 36.8966 -2.60154 4.57391 0
M  V30 376 O 35.9226 -2.25398 5.2267 0
M  V30 377 N 37.1246 -3.90629 4.29406 0
M  V30 378 H 39.8896 -0.048389 2.99661 0
M  V30 379 H 37.4506 0.11946 1.61459 0
M  V30 380 H 39.4426 -2.57652 3.12086 0
M  V30 381 H 38.0126 -2.32597 2.08847 0
M  V30 382 H 37.2326 -0.616925 3.89343 0
M  V30 383 H 38.5206 -1.25458 4.9309 0
M  V30 384 H 37.9186 -4.21677 3.77101 0
M  V30 385 H 36.4756 -4.59391 4.62388 0
M  V30 386 N 39.9087 -1.5758 0.0250728 0
M  V30 387 C 40.8717 -2.08896 -0.943139 0
M  V30 388 C 41.8717 -1.00321 -1.25668 0
M  V30 389 O 43.0617 -1.26495 -1.19769 0
M  V30 390 C 40.1937 -2.55143 -2.26086 0
M  V30 391 H 41.3867 -2.95723 -0.498775 0
M  V30 392 H 38.9397 -1.54703 -0.222888 0
M  V30 393 H 39.6747 -1.71633 -2.75159 0
M  V30 394 H 39.4597 -3.34461 -2.04641 0
M  V30 395 H 40.9497 -2.95083 -2.95492 0
M  V30 396 N 41.3868 0.248026 -1.55636 0
M  V30 397 C 42.6348 0.974295 -1.77065 0
M  V30 398 C 42.9558 1.85897 -0.588849 0
M  V30 399 O 42.2258 1.91868 0.395407 0
M  V30 400 H 40.8058 0.362733 -0.653019 0
M  V30 401 H 43.4678 0.266244 -1.93073 0
M  V30 402 H 42.5638 1.59667 -2.68166 0
M  V30 403 N 42.8649 1.48995 0.513639 0
M  V30 404 C 44.1119 1.57843 1.26854 0
M  V30 405 C 44.4399 0.259501 1.92761 0
M  V30 406 O 43.6949 -0.75159 1.80692 0
M  V30 407 C 43.9939 2.67756 2.36731 0
M  V30 408 C 43.6599 4.09669 1.88368 0
M  V30 409 C 42.3219 4.48291 1.74896 0
M  V30 410 C 44.6739 4.98537 1.52021 0
M  V30 411 C 42.0019 5.73568 1.23438 0
M  V30 412 C 44.3539 6.24319 1.0202 0
M  V30 413 C 43.0179 6.61783 0.871778 0
M  V30 414 H 42.2879 0.577587 0.464192 0
M  V30 415 H 44.9349 1.82778 0.571366 0
M  V30 416 H 43.2399 2.36743 3.12185 0
M  V30 417 H 44.9369 2.71813 2.9482 0
M  V30 418 H 41.5269 3.79176 1.99808 0
M  V30 419 H 45.7109 4.69363 1.61281 0
M  V30 420 H 40.9669 6.01304 1.10648 0
M  V30 421 H 45.1409 6.92566 0.729722 0
M  V30 422 H 42.7679 7.5874 0.470852 0
M  V30 423 N 44.343 -0.763751 1.37857 0
M  V30 424 C 45.293 -1.86765 1.30777 0
M  V30 425 C 46.277 -1.59726 0.194015 0
M  V30 426 O 47.469 -1.7172 0.42911 0
M  V30 427 C 44.598 -3.24343 1.12502 0
M  V30 428 C 43.684 -3.57307 2.28456 0
M  V30 429 N 44.075 -3.61398 3.53871 0
M  V30 430 C 42.373 -3.87517 2.20786 0
M  V30 431 C 43.074 -3.91339 4.30382 0
M  V30 432 N 42.05 -4.07649 3.59615 0
M  V30 433 H 45.852 -1.88191 2.25746 0
M  V30 434 H 43.366 -0.9606 1.30944 0
M  V30 435 H 45.363 -4.03327 1.05514 0
M  V30 436 H 44.023 -3.24175 0.184574 0
M  V30 437 H 45.034 -3.43407 3.87675 0
M  V30 438 H 41.711 -3.95125 1.34844 0
M  V30 439 H 43.101 -4.01213 5.3896 0
M  V30 440 N 45.8211 -1.22559 -0.990812 0
M  V30 441 C 47.0981 -0.959875 -1.70428 0
M  V30 442 C 47.4781 0.524455 -2.04481 0
M  V30 443 O 46.8261 1.49302 -1.72977 0
M  V30 444 C 47.0361 -1.85955 -2.95333 0
M  V30 445 C 48.3841 -2.11687 -3.68068 0
M  V30 446 O 49.4081 -1.8342 -3.05345 0
M  V30 447 O 48.2671 -2.59572 -4.80921 0
M  V30 448 H 45.3611 -0.361154 -0.743974 0
M  V30 449 H 47.9071 -1.33554 -1.04697 0
M  V30 450 H 46.6791 -2.86346 -2.66687 0
M  V30 451 H 46.3021 -1.4856 -3.68803 0
M  V30 452 N 47.2992 1.18797 -1.03562 0
M  V30 453 C 48.5292 1.92319 -0.754773 0
M  V30 454 C 48.9372 1.7612 0.691248 0
M  V30 455 O 48.2802 1.08491 1.48241 0
M  V30 456 C 48.3422 3.44284 -1.03484 0
M  V30 457 C 48.0062 3.84258 -2.47376 0
M  V30 458 C 49.0032 3.88459 -3.45537 0
M  V30 459 C 46.6882 4.15701 -2.81954 0
M  V30 460 C 48.6822 4.23545 -4.76328 0
M  V30 461 C 46.3692 4.50458 -4.12954 0
M  V30 462 C 47.3672 4.54356 -5.09951 0
M  V30 463 O 47.0552 4.88305 -6.38603 0
M  V30 464 H 46.7872 0.617527 -0.275021 0
M  V30 465 H 49.3412 1.51683 -1.38497 0
M  V30 466 H 47.5712 3.85135 -0.347513 0
M  V30 467 H 49.2602 3.99049 -0.7426 0
M  V30 468 H 50.0262 3.6431 -3.20162 0
M  V30 469 H 45.9052 4.11847 -2.0713 0
M  V30 470 H 49.4492 4.26502 -5.52035 0
M  V30 471 H 45.3462 4.74067 -4.38099 0
M  V30 472 H 46.1142 5.06227 -6.43177 0
M  V30 473 N 48.7773 0.814389 1.34928 0
M  V30 474 C 50.0053 0.411136 2.02774 0
M  V30 475 C 50.4203 -0.980316 1.61354 0
M  V30 476 O 49.7773 -1.63299 0.814847 0
M  V30 477 C 49.8283 0.493865 3.58111 0
M  V30 478 O 49.5493 1.83047 3.98027 0
M  V30 479 C 51.0503 0.0844174 4.4322 0
M  V30 480 H 48.2703 0.166037 0.650133 0
M  V30 481 H 50.8143 1.10018 1.72384 0
M  V30 482 H 48.9693 -0.147006 3.87121 0
M  V30 483 H 49.3833 1.79872 4.92693 0
M  V30 484 H 50.8573 0.193404 5.51661 0
M  V30 485 H 51.3343 -0.97113 4.28329 0
M  V30 486 H 51.9403 0.69875 4.19521 0
M  V30 487 N 50.2554 -1.46986 0.568584 0
M  V30 488 C 51.5044 -2.01646 0.0465894 0
M  V30 489 C 51.8174 -1.44721 -1.31587 0
M  V30 490 O 53.0234 -1.91113 -1.92842 0
M  V30 491 C 51.4794 -3.59885 0.032752 0
M  V30 492 C 51.0874 -4.25804 1.39266 0
M  V30 493 C 52.8314 -4.22255 -0.436038 0
M  V30 494 C 50.7384 -5.76081 1.33732 0
M  V30 495 H 49.6684 -0.753876 0.013647 0
M  V30 496 H 52.3194 -1.68864 0.718131 0
M  V30 497 H 50.7014 -3.8968 -0.704669 0
M  V30 498 H 51.8754 -4.07637 2.1487 0
M  V30 499 H 50.1904 -3.7547 1.80032 0
M  V30 500 H 52.7874 -5.32394 -0.49602 0
M  V30 501 H 53.1304 -3.90212 -1.45053 0
M  V30 502 H 53.6634 -3.97033 0.246877 0
M  V30 503 H 50.4024 -6.12761 2.32817 0
M  V30 504 H 49.9224 -5.96553 0.623267 0
M  V30 505 H 51.6014 -6.38518 1.0442 0
M  V30 506 N 51.7335 -0.305618 -1.54608 0
M  V30 507 C 52.6635 0.561482 -2.26649 0
M  V30 508 C 53.6445 1.13415 -1.26772 0
M  V30 509 O 54.8295 1.16262 -1.55553 0
M  V30 510 C 51.9595 1.73122 -3.01075 0
M  V30 511 C 50.9135 1.2887 -4.08138 0
M  V30 512 C 50.2395 2.54396 -4.70305 0
M  V30 513 C 51.5395 0.416578 -5.20636 0
M  V30 514 H 53.2335 -0.0393902 -2.99374 0
M  V30 515 H 50.7795 -0.020385 -1.43986 0
M  V30 516 H 52.7325 2.34396 -3.50195 0
M  V30 517 H 51.4565 2.3584 -2.25936 0
M  V30 518 H 50.1155 0.698991 -3.59875 0
M  V30 519 H 49.7635 3.15439 -3.918 0
M  V30 520 H 49.4635 2.25486 -5.42614 0
M  V30 521 H 50.9875 3.16464 -5.2219 0
M  V30 522 H 52.4015 0.935116 -5.65622 0
M  V30 523 H 50.7985 0.221046 -5.99693 0
M  V30 524 H 51.8685 -0.557162 -4.81688 0
M  V30 525 N 53.2116 1.57565 -0.0334293 0
M  V30 526 C 54.1216 2.13943 0.962572 0
M  V30 527 C 55.1376 1.09276 1.35406 0
M  V30 528 O 56.3136 1.41355 1.4346 0
M  V30 529 C 53.3786 2.65887 2.22497 0
M  V30 530 C 52.4396 3.85286 1.8935 0
M  V30 531 C 51.6726 4.34743 3.09571 0
M  V30 532 O 51.8956 3.83352 4.22371 0
M  V30 533 O 50.8296 5.26538 2.91618 0
M  V30 534 H 54.6556 2.99333 0.513169 0
M  V30 535 H 52.2406 1.4822 0.18743 0
M  V30 536 H 54.1226 2.99346 2.96598 0
M  V30 537 H 52.7976 1.83578 2.6661 0
M  V30 538 H 51.7046 3.56746 1.1262 0
M  V30 539 H 53.0376 4.68771 1.5005 0
M  V30 540 N 54.6897 -0.239769 1.55765 0
M  V30 541 C 56.1057 -0.588624 1.48349 0
M  V30 542 C 56.3057 -1.88005 0.72502 0
M  V30 543 O 55.3617 -2.51186 0.257269 0
M  V30 544 C 56.6747 -0.68474 2.928 0
M  V30 545 C 58.2227 -0.77659 3.03213 0
M  V30 546 C 58.6977 -0.904207 4.48986 0
M  V30 547 N 60.1887 -0.968896 4.52953 0
M  V30 548 C 60.9237 -1.08703 5.63002 0
M  V30 549 N 60.4197 -1.17026 6.82845 0
M  V30 550 N 62.2127 -1.12074 5.50814 0
M  V30 551 H 54.3637 0.607911 2.03515 0
M  V30 552 H 56.6267 0.21083 0.924259 0
M  V30 553 H 56.3327 0.194284 3.51163 0
M  V30 554 H 56.2067 -1.55435 3.43686 0
M  V30 555 H 58.5937 -1.64606 2.44926 0
M  V30 556 H 58.6747 0.118315 2.55526 0
M  V30 557 H 58.3187 -0.0392633 5.07885 0
M  V30 558 H 58.2487 -1.81426 4.9436 0
M  V30 559 H 60.7397 -0.915633 3.6664 0
M  V30 560 H 61.0527 -1.25966 7.62465 0
M  V30 561 H 59.3977 -1.13971 6.85591 0
M  V30 562 H 62.5887 -1.05226 4.5612 0
M  V30 563 H 62.7617 -1.20936 6.36615 0
M  V30 564 N 56.1678 -1.49265 -0.50573 0
M  V30 565 C 57.3958 -1.62215 -1.28429 0
M  V30 566 C 57.8108 -0.291697 -1.86533 0
M  V30 567 O 57.1678 0.722233 -1.67601 0
M  V30 568 C 57.2188 -2.68735 -2.41793 0
M  V30 569 O 56.9398 -3.96619 -1.86078 0
M  V30 570 C 58.4408 -2.92346 -3.3324 0
M  V30 571 H 55.6608 -0.546239 -0.389697 0
M  V30 572 H 58.2048 -1.95265 -0.607609 0
M  V30 573 H 56.3598 -2.38476 -3.053 0
M  V30 574 H 56.7738 -4.55256 -2.60465 0
M  V30 575 H 58.2478 -3.70623 -4.09075 0
M  V30 576 H 58.7248 -2.02081 -3.89948 0
M  V30 577 H 59.3308 -3.24003 -2.75503 0
M  V30 578 N 57.6459 0.756429 -1.3826 0
M  V30 579 C 58.9229 1.50584 -1.24835 0
M  V30 580 C 59.3029 2.10556 0.151485 0
M  V30 581 O 58.6509 1.96825 1.1607 0
M  V30 582 C 58.8609 2.57448 -2.3563 0
M  V30 583 C 60.2089 3.24429 -2.73917 0
M  V30 584 O 61.2329 2.67751 -2.34921 0
M  V30 585 O 60.0919 4.26937 -3.41156 0
M  V30 586 H 57.1859 0.667664 -0.48801 0
M  V30 587 H 59.7319 0.792083 -1.5008 0
M  V30 588 H 58.5039 2.11362 -3.29305 0
M  V30 589 H 58.1269 3.36408 -2.11933 0
M  V30 590 N 59.124 1.23083 0.984299 0
M  V30 591 C 60.074 0.975749 2.06066 0
M  V30 592 C 61.058 -0.0768251 1.60716 0
M  V30 593 O 62.25 0.134805 1.76486 0
M  V30 594 C 59.379 0.564673 3.38624 0
M  V30 595 C 58.465 1.65244 3.90583 0
M  V30 596 N 58.856 2.88193 4.15666 0
M  V30 597 C 57.154 1.52612 4.19077 0
M  V30 598 C 57.855 3.58593 4.58024 0
M  V30 599 N 56.831 2.86093 4.62225 0
M  V30 600 H 60.633 1.90957 2.23411 0
M  V30 601 H 58.147 1.12963 1.16675 0
M  V30 602 H 60.144 0.36322 4.15315 0
M  V30 603 H 58.804 -0.362147 3.22674 0
M  V30 604 H 59.815 3.24537 4.03604 0
M  V30 605 H 56.492 0.666121 4.12152 0
M  V30 606 H 57.882 4.63974 4.85982 0
M  V30 607 N 60.6021 -1.18246 1.0419 0
M  V30 608 C 61.8481 -1.88536 0.747122 0
M  V30 609 C 62.1811 -1.80223 -0.723409 0
M  V30 610 O 61.4561 -1.20337 -1.52804 0
M  V30 611 C 61.7391 -3.38968 1.21544 0
M  V30 612 C 61.5921 -3.56084 2.74816 0
M  V30 613 C 62.9111 -4.32648 0.806482 0
M  V30 614 H 60.0301 -0.684619 0.272883 0
M  V30 615 H 62.6721 -1.39113 1.29413 0
M  V30 616 H 60.8221 -3.8119 0.750081 0
M  V30 617 H 62.4941 -3.22946 3.29399 0
M  V30 618 H 60.7371 -2.98699 3.14582 0
M  V30 619 H 61.4081 -4.61639 3.02644 0
M  V30 620 H 63.8841 -3.98211 1.20695 0
M  V30 621 H 62.7601 -5.36462 1.1619 0
M  V30 622 H 63.0211 -4.41146 -0.29029 0
M  V30 623 N 62.0802 -0.821533 -1.34494 0
M  V30 624 C 63.3282 -0.408139 -1.97936 0
M  V30 625 C 63.6492 1.03193 -1.65457 0
M  V30 626 O 62.9192 1.71622 -0.944595 0
M  V30 627 H 61.4992 -0.147928 -0.732206 0
M  V30 628 H 64.1612 -1.05067 -1.64155 0
M  V30 629 H 63.2572 -0.52601 -3.07635 0
M  V30 630 N 63.5583 1.46682 -0.576371 0
M  V30 631 C 64.8063 2.02013 -0.0594163 0
M  V30 632 C 65.1273 1.45101 1.30271 0
M  V30 633 O 64.3973 0.633317 1.8538 0
M  V30 634 H 62.9773 0.746759 -0.0189745 0
M  V30 635 H 65.6393 1.79862 -0.750717 0
M  V30 636 H 64.7353 3.12097 0.014345 0
M  V30 637 N 65.0364 0.313813 1.54444 0
M  V30 638 C 65.9834 -0.55655 2.23989 0
M  V30 639 C 66.9534 -1.11943 1.22711 0
M  V30 640 O 68.1384 -1.16158 1.51367 0
M  V30 641 C 65.2784 -1.71635 2.99392 0
M  V30 642 C 64.3914 -1.18364 4.15468 0
M  V30 643 C 63.5264 -2.30834 4.78424 0
M  V30 644 C 62.5654 -1.74762 5.86622 0
M  V30 645 N 61.7024 -2.80855 6.43479 0
M  V30 646 H 66.5424 0.0430893 2.97969 0
M  V30 647 H 64.0794 0.0330359 1.47063 0
M  V30 648 H 66.0374 -2.39868 3.41349 0
M  V30 649 H 64.6674 -2.28742 2.27765 0
M  V30 650 H 63.7194 -0.393163 3.78363 0
M  V30 651 H 65.0314 -0.733262 4.93381 0
M  V30 652 H 64.1854 -3.0699 5.23299 0
M  V30 653 H 62.9244 -2.79204 3.99871 0
M  V30 654 H 61.9294 -0.970995 5.41158 0
M  V30 655 H 63.1544 -1.2728 6.67066 0
M  V30 656 H 61.1004 -3.28535 5.67804 0
M  V30 657 H 61.0174 -2.40351 7.16776 0
M  V30 658 H 62.2854 -3.5687 6.93011 0
M  V30 659 N 66.5145 -1.57545 0.0417849 0
M  V30 660 C 67.7545 -1.94185 -0.63809 0
M  V30 661 C 68.1185 -0.919339 -1.68559 0
M  V30 662 O 69.3195 -1.17236 -2.41886 0
M  V30 663 C 67.5905 -3.35672 -1.22714 0
M  V30 664 S 69.1495 -3.94256 -1.92633 0
M  V30 665 H 65.9675 -0.679353 -0.209764 0
M  V30 666 H 68.5695 -1.95199 0.108479 0
M  V30 667 H 67.2735 -4.07898 -0.452503 0
M  V30 668 H 66.8045 -3.38132 -2.01073 0
M  V30 669 H 68.8195 -3.7872 -3.20602 0
M  V30 670 N 67.9926 0.231505 -1.5589 0
M  V30 671 C 68.9426 1.29007 -1.87993 0
M  V30 672 C 69.9266 1.42764 -0.742102 0
M  V30 673 O 71.1186 1.45747 -1.00433 0
M  V30 674 C 68.2476 2.6425 -2.1915 0
M  V30 675 C 67.3336 2.54435 -3.39299 0
M  V30 676 N 67.7246 2.14262 -4.58176 0
M  V30 677 C 66.0226 2.85416 -3.42715 0
M  V30 678 C 66.7236 2.15455 -5.40328 0
M  V30 679 N 65.6996 2.55558 -4.79783 0
M  V30 680 H 69.5016 0.970213 -2.77424 0
M  V30 681 H 67.0156 0.440097 -1.56323 0
M  V30 682 H 69.0126 3.40665 -2.40319 0
M  V30 683 H 67.6726 2.9709 -1.31025 0
M  V30 684 H 68.6836 1.85554 -4.83518 0
M  V30 685 H 65.3606 3.22693 -2.64906 0
M  V30 686 H 66.7506 1.86605 -6.45467 0
M  V30 687 N 69.4707 1.49531 0.497807 0
M  V30 688 C 70.6957 1.63159 1.28039 0
M  V30 689 C 71.1207 0.30418 1.85624 0
M  V30 690 O 70.4787 -0.728618 1.66015 0
M  V30 691 C 70.5267 2.70537 2.38416 0
M  V30 692 O 69.6307 2.29931 3.42353 0
M  V30 693 H 68.9717 0.546001 0.377861 0
M  V30 694 H 71.5017 1.9574 0.59558 0
M  V30 695 H 71.5117 2.92802 2.84132 0
M  V30 696 H 70.1867 3.6689 1.95869 0
M  V30 697 H 68.7637 2.18009 3.02533 0
M  V30 698 N 70.9488 -0.749086 1.3866 0
M  V30 699 C 72.3598 -1.32664 1.31366 0
M  V30 700 C 72.7108 -1.96179 -0.028484 0
M  V30 701 O 71.8358 -1.9537 -0.93057 0
M  V30 702 C 72.4308 -2.41219 2.37905 0
M  V30 703 C 70.9898 -2.94684 2.34176 0
M  V30 704 C 70.1368 -1.68108 2.20533 0
M  V30 705 H 73.0878 -0.547628 1.48952 0
M  V30 706 H 73.1088 -3.21268 2.0388 0
M  V30 707 H 72.6208 -1.94962 3.35576 0
M  V30 708 H 70.7218 -3.45258 1.401 0
M  V30 709 H 70.8348 -3.48757 3.2849 0
M  V30 710 H 69.1988 -1.91907 1.67463 0
M  V30 711 H 69.9818 -1.23923 3.20153 0
M  V30 712 N 72.4269 -1.23603 -0.977757 0
M  V30 713 C 73.3749 -1.01704 -2.09187 0
M  V30 714 C 74.3689 0.0448214 -1.69341 0
M  V30 715 O 75.5749 -0.108902 -1.7967 0
M  V30 716 H 71.9499 -0.311803 -0.684312 0
M  V30 717 H 73.9209 -1.96207 -2.24823 0
M  V30 718 C 72.6699 -0.627746 -3.41986 0
M  V30 719 H 71.9929 -1.43656 -3.73099 0
M  V30 720 H 73.4329 -0.514053 -4.20872 0
M  V30 721 C 71.8919 0.664238 -3.30287 0
M  V30 722 O 72.4219 1.71268 -3.6336 0
M  V30 723 N 70.6279 0.641156 -2.83439 0
M  V30 724 H 70.1749 -0.212376 -2.56723 0
M  V30 725 H 70.1329 1.50583 -2.75993 0
M  V30 726 N 73.905 1.17692 -1.04816 0
M  V30 727 C 75.135 1.91508 -0.775128 0
M  V30 728 C 75.543 1.76844 0.67253 0
M  V30 729 O 74.886 1.10057 1.47082 0
M  V30 730 C 74.948 3.43167 -1.0713 0
M  V30 731 C 74.612 3.81612 -2.51438 0
M  V30 732 C 75.609 3.84772 -3.49638 0
M  V30 733 C 73.294 4.12687 -2.86348 0
M  V30 734 C 75.288 4.18469 -4.80794 0
M  V30 735 C 72.975 4.46053 -4.17708 0
M  V30 736 C 73.973 4.48921 -5.14741 0
M  V30 737 O 73.661 4.81504 -6.43746 0
M  V30 738 H 73.393 0.614575 -0.281555 0
M  V30 739 H 75.947 1.50206 -1.40098 0
M  V30 740 H 74.177 3.84745 -0.388342 0
M  V30 741 H 75.866 3.98239 -0.784883 0
M  V30 742 H 76.632 3.60893 -3.24008 0
M  V30 743 H 72.511 4.09627 -2.11486 0
M  V30 744 H 76.055 4.20623 -5.56527 0
M  V30 745 H 71.952 4.69393 -4.43103 0
M  V30 746 H 72.72 4.99377 -6.4851 0
M  V30 747 N 75.3831 0.828654 1.34056 0
M  V30 748 C 76.3331 0.226828 2.26869 0
M  V30 749 C 77.3171 -0.612243 1.48796 0
M  V30 750 O 78.5091 -0.465884 1.70759 0
M  V30 751 C 75.6381 -0.605654 3.37915 0
M  V30 752 C 74.7241 0.244361 4.23395 0
M  V30 753 N 75.1151 1.31815 4.88322 0
M  V30 754 C 73.4131 0.0296616 4.4599 0
M  V30 755 C 74.1141 1.83895 5.51867 0
M  V30 756 N 73.0901 1.14196 5.3147 0
M  V30 757 H 76.8921 1.04811 2.74576 0
M  V30 758 H 74.4061 0.67205 1.47842 0
M  V30 759 H 76.4031 -1.05302 4.03382 0
M  V30 760 H 75.0631 -1.42504 2.91758 0
M  V30 761 H 76.0741 1.70099 4.8917 0
M  V30 762 H 72.7511 -0.757097 4.10578 0
M  V30 763 H 74.1411 2.7376 6.136 0
M  V30 764 N 76.8612 -1.46375 0.584142 0
M  V30 765 C 78.1092 -2.01978 0.0701287 0
M  V30 766 C 78.4302 -1.4579 -1.295 0
M  V30 767 O 77.7002 -0.64314 -1.85042 0
M  V30 768 H 76.2802 -0.746648 0.0229345 0
M  V30 769 H 78.9422 -1.79461 0.760245 0
M  V30 770 H 78.0382 -3.121 0.0022064 0
M  V30 771 N 78.3393 -0.321999 -1.54275 0
M  V30 772 C 79.7553 0.0306999 -1.5957 0
M  V30 773 C 79.9553 1.50614 -1.33857 0
M  V30 774 O 79.0113 2.2619 -1.12223 0
M  V30 775 C 80.3243 -0.386122 -2.98211 0
M  V30 776 C 81.8723 -0.336647 -3.11184 0
M  V30 777 C 82.3473 -0.728607 -4.52167 0
M  V30 778 N 83.8383 -0.681952 -4.58152 0
M  V30 779 C 84.5733 -0.957449 -5.6535 0
M  V30 780 N 84.0693 -1.3 -6.80494 0
M  V30 781 N 85.8623 -0.883113 -5.55119 0
M  V30 782 H 78.0133 -1.28332 -1.69247 0
M  V30 783 H 80.2763 -0.521716 -0.791528 0
M  V30 784 H 79.9823 -1.41404 -3.22022 0
M  V30 785 H 79.8563 0.249662 -3.76373 0
M  V30 786 H 82.2433 0.682058 -2.8711 0
M  V30 787 H 82.3243 -1.00734 -2.3513 0
M  V30 788 H 81.9683 -1.74522 -4.76974 0
M  V30 789 H 81.8983 -0.0356152 -5.26588 0
M  V30 790 H 84.3893 -0.428985 -3.75457 0
M  V30 791 H 84.7023 -1.49563 -7.58189 0
M  V30 792 H 83.0473 -1.33824 -6.81994 0
M  V30 793 H 86.2383 -0.615001 -4.64042 0
M  V30 794 H 86.4113 -1.10118 -6.38575 0
M  V30 795 N 79.8174 1.5752 -0.0501392 0
M  V30 796 C 81.2334 1.56631 0.306402 0
M  V30 797 C 81.4334 1.0577 1.71508 0
M  V30 798 O 80.4894 0.713837 2.422 0
M  V30 799 C 81.8024 3.00393 0.135811 0
M  V30 800 C 83.3504 3.12315 0.206993 0
M  V30 801 C 83.8254 4.57954 0.064944 0
M  V30 802 N 85.3164 4.63041 0.121254 0
M  V30 803 C 86.0514 5.73389 0.0354381 0
M  V30 804 N 85.5474 6.92724 -0.102666 0
M  V30 805 N 87.3404 5.62026 0.090946 0
M  V30 806 H 79.4914 1.88903 -0.971046 0
M  V30 807 H 81.7544 0.869876 -0.376855 0
M  V30 808 H 81.4604 3.41635 -0.835384 0
M  V30 809 H 81.3344 3.66373 0.897275 0
M  V30 810 H 83.7214 2.70973 1.16866 0
M  V30 811 H 83.8024 2.49016 -0.585208 0
M  V30 812 H 83.4464 4.99981 -0.893394 0
M  V30 813 H 83.3764 5.19258 0.876277 0
M  V30 814 H 85.8674 3.77216 0.227284 0
M  V30 815 H 86.1804 7.72633 -0.160882 0
M  V30 816 H 84.5254 6.94864 -0.137737 0
M  V30 817 H 87.7164 4.67684 0.197388 0
M  V30 818 H 87.8894 6.47997 0.0206089 0
M  V30 819 N 81.2955 -0.223234 1.56011 0
M  V30 820 C 82.5255 -0.963413 1.82762 0
M  V30 821 C 82.9335 -1.78516 0.626804 0
M  V30 822 O 82.2765 -1.78974 -0.414014 0
M  V30 823 C 82.3385 -1.93126 3.0322 0
M  V30 824 C 82.0025 -1.2942 4.38291 0
M  V30 825 C 82.9995 -0.684916 5.15369 0
M  V30 826 C 80.6845 -1.30647 4.85012 0
M  V30 827 C 82.6785 -0.0963971 6.37327 0
M  V30 828 C 80.3655 -0.71411 6.06913 0
M  V30 829 C 81.3635 -0.110123 6.82911 0
M  V30 830 O 81.0515 0.47303 8.02507 0
M  V30 831 H 80.7835 -0.288011 0.611576 0
M  V30 832 H 83.3375 -0.244103 2.03944 0
M  V30 833 H 81.5675 -2.68952 2.77852 0
M  V30 834 H 83.2565 -2.53685 3.16857 0
M  V30 835 H 84.0225 -0.667774 4.80381 0
M  V30 836 H 79.9015 -1.76598 4.25833 0
M  V30 837 H 83.4455 0.375657 6.96588 0
M  V30 838 H 79.3425 -0.728659 6.41374 0
M  V30 839 H 80.1105 0.367186 8.17676 0
M  V30 840 N 82.7736 -1.49793 -0.48987 0
M  V30 841 C 83.6836 -1.70036 -1.61632 0
M  V30 842 C 84.6996 -0.583102 -1.63939 0
M  V30 843 O 85.8756 -0.859169 -1.82154 0
M  V30 844 C 82.9406 -1.77277 -2.97949 0
M  V30 845 C 82.0016 -3.00918 -3.06181 0
M  V30 846 C 81.2346 -3.07804 -4.35996 0
M  V30 847 O 81.4576 -2.21982 -5.25433 0
M  V30 848 O 80.3916 -4.00369 -4.49431 0
M  V30 849 H 84.2176 -2.65486 -1.47482 0
M  V30 850 H 81.8026 -1.33666 -0.667362 0
M  V30 851 H 83.6846 -1.84329 -3.78947 0
M  V30 852 H 82.3596 -0.850076 -3.12339 0
M  V30 853 H 81.2666 -2.99377 -2.2433 0
M  V30 854 H 82.5996 -3.92704 -2.96723 0
M  V30 855 N 84.2517 0.741722 -1.39055 0
M  V30 856 C 85.1847 1.86416 -1.31622 0
M  V30 857 C 86.1627 1.61473 -0.191076 0
M  V30 858 O 87.3467 1.84825 -0.370399 0
M  V30 859 C 84.4737 3.22266 -1.04221 0
M  V30 860 C 83.5197 3.66079 -2.18834 0
M  V30 861 S 84.3527 3.7623 -3.81066 0
M  V30 862 C 85.5087 5.14881 -3.55877 0
M  V30 863 H 85.7417 1.92437 -2.26617 0
M  V30 864 H 83.2747 0.905907 -1.25031 0
M  V30 865 H 85.2327 4.00714 -0.890964 0
M  V30 866 H 83.8937 3.1391 -0.109237 0
M  V30 867 H 83.0867 4.64648 -1.95238 0
M  V30 868 H 82.6887 2.94817 -2.30128 0
M  V30 869 H 84.9807 6.01006 -3.12726 0
M  V30 870 H 85.9237 5.43503 -4.53884 0
M  V30 871 H 86.3317 4.84239 -2.90126 0
M  V30 872 N 85.7298 1.2412 0.971189 0
M  V30 873 C 86.9778 1.07668 1.71032 0
M  V30 874 C 87.2988 -0.385797 1.91146 0
M  V30 875 O 86.5688 -1.27569 1.4867 0
M  V30 876 H 85.1488 0.395429 0.633755 0
M  V30 877 H 87.8108 1.55984 1.16855 0
M  V30 878 H 86.9068 1.57195 2.69622 0
M  V30 879 N 87.2079 -1.17134 1.05439 0
M  V30 880 C 88.1709 -2.19439 0.661764 0
M  V30 881 C 89.1709 -1.58199 -0.288042 0
M  V30 882 O 90.3609 -1.74053 -0.0715803 0
M  V30 883 C 87.4929 -3.40889 -0.0276209 0
M  V30 884 H 88.6859 -2.55688 1.56728 0
M  V30 885 H 86.2389 -1.31259 0.848567 0
M  V30 886 H 86.9739 -3.10187 -0.94629 0
M  V30 887 H 86.7589 -3.86586 0.655238 0
M  V30 888 H 88.2489 -4.16603 -0.288342 0
M  V30 889 N 88.686 -0.835752 -1.33615 0
M  V30 890 C 89.935 -0.426289 -1.97144 0
M  V30 891 C 90.248 1.01912 -1.66953 0
M  V30 892 O 91.454 1.53311 -2.24072 0
M  V30 893 C 89.91 -0.711321 -3.52801 0
M  V30 894 C 89.518 -2.1712 -3.91871 0
M  V30 895 C 91.262 -0.368654 -4.22896 0
M  V30 896 C 89.169 -2.40044 -5.40493 0
M  V30 897 H 88.099 -0.15567 -0.737755 0
M  V30 898 H 90.75 -1.0239 -1.52278 0
M  V30 899 H 89.132 -0.0433766 -3.95976 0
M  V30 900 H 90.306 -2.87936 -3.59763 0
M  V30 901 H 88.621 -2.47654 -3.34749 0
M  V30 902 H 91.218 -0.517601 -5.32189 0
M  V30 903 H 91.561 0.688078 -4.10574 0
M  V30 904 H 92.094 -0.991702 -3.8524 0
M  V30 905 H 88.833 -3.44271 -5.57815 0
M  V30 906 H 88.353 -1.73785 -5.74072 0
M  V30 907 H 90.032 -2.23042 -6.0734 0
M  V30 908 N 90.1641 1.46063 -0.591896 0
M  V30 909 C 91.0971 2.27452 0.184617 0
M  V30 910 C 92.0751 1.36188 0.888351 0
M  V30 911 O 93.2591 1.65606 0.90039 0
M  V30 912 C 90.3861 3.14162 1.26571 0
M  V30 913 C 89.4321 4.21255 0.666814 0
M  V30 914 S 90.2651 5.33034 -0.513345 0
M  V30 915 C 91.4211 6.23311 0.56872 0
M  V30 916 H 91.6541 2.92963 -0.505939 0
M  V30 917 H 89.1871 1.49676 -0.379014 0
M  V30 918 H 91.1451 3.6468 1.88463 0
M  V30 919 H 89.8061 2.47946 1.92826 0
M  V30 920 H 88.9991 4.81788 1.47974 0
M  V30 921 H 88.6011 3.73797 0.123359 0
M  V30 922 H 90.8931 6.61758 1.45198 0
M  V30 923 H 91.8361 7.081 -7.23824e-05 0
M  V30 924 H 92.2441 5.57646 0.876996 0
M  V30 925 N 91.6422 0.330177 1.54103 0
M  V30 926 C 92.8902 -0.269871 2.0029 0
M  V30 927 C 93.2112 -1.52133 1.21986 0
M  V30 928 O 92.4812 -1.93212 0.323438 0
M  V30 929 H 91.0612 -0.10271 0.739905 0
M  V30 930 H 93.7232 0.448249 1.89675 0
M  V30 931 H 92.8192 -0.52166 3.07709 0
M  V30 932 N 93.1203 -1.57491 0.0584922 0
M  V30 933 C 94.3663 -1.93264 -0.614558 0
M  V30 934 C 94.6993 -0.937717 -1.7006 0
M  V30 935 O 93.9743 0.0351652 -1.94468 0
M  V30 936 C 94.2573 -3.3938 -1.20386 0
M  V30 937 C 94.1103 -4.49625 -0.125375 0
M  V30 938 C 95.4293 -3.86039 -2.11334 0
M  V30 939 H 92.5483 -0.702791 -0.221933 0
M  V30 940 H 95.1903 -1.8961 0.12175 0
M  V30 941 H 93.3403 -3.42626 -1.83139 0
M  V30 942 H 95.0123 -4.58506 0.506971 0
M  V30 943 H 93.2553 -4.30354 0.545672 0
M  V30 944 H 93.9263 -5.48967 -0.577861 0
M  V30 945 H 96.4023 -3.84716 -1.58534 0
M  V30 946 H 95.2783 -4.88914 -2.49507 0
M  V30 947 H 95.5393 -3.23215 -3.01636 0
M  V30 948 N 94.5984 0.214957 -1.56127 0
M  V30 949 C 96.0094 0.781386 -1.69562 0
M  V30 950 C 96.3604 1.84707 -0.66165 0
M  V30 951 O 95.4854 2.156 0.185927 0
M  V30 952 C 96.0804 1.42411 -3.07416 0
M  V30 953 C 94.6394 1.93786 -3.22683 0
M  V30 954 C 93.7864 0.800438 -2.65496 0
M  V30 955 H 96.7374 -0.00980633 -1.58697 0
M  V30 956 H 96.7584 2.29309 -3.0364 0
M  V30 957 H 96.2704 0.64826 -3.82648 0
M  V30 958 H 94.3714 2.74152 -2.52332 0
M  V30 959 H 94.4844 2.1133 -4.29973 0
M  V30 960 H 92.8484 1.2095 -2.2415 0
M  V30 961 H 93.6314 0.0371471 -3.4328 0
M  V30 962 N 96.0765 1.50051 0.48192 0
M  V30 963 C 97.3015 1.64508 1.26301 0
M  V30 964 C 97.7265 0.323851 1.85291 0
M  V30 965 O 97.0845 -0.710969 1.66778 0
M  V30 966 C 97.1325 2.7305 2.35533 0
M  V30 967 O 96.2365 2.3355 3.39895 0
M  V30 968 H 95.5775 0.549978 0.372048 0
M  V30 969 H 98.1075 1.9636 0.574786 0
M  V30 970 H 98.1175 2.95799 2.8101 0
M  V30 971 H 96.7925 3.68946 1.91967 0
M  V30 972 H 95.3695 2.21205 3.00204 0
M  V30 973 N 97.5546 -0.734337 1.39446 0
M  V30 974 C 98.7846 -1.52137 1.39778 0
M  V30 975 C 99.1926 -1.89198 -0.00929312 0
M  V30 976 O 98.5356 -1.54666 -0.991168 0
M  V30 977 C 98.5976 -2.83762 2.20724 0
M  V30 978 C 98.2616 -2.69131 3.69347 0
M  V30 979 C 99.2586 -2.37635 4.62413 0
M  V30 980 C 96.9436 -2.85982 4.1294 0
M  V30 981 C 98.9376 -2.23172 5.97054 0
M  V30 982 C 96.6246 -2.71137 5.47657 0
M  V30 983 C 97.6226 -2.39777 6.39528 0
M  V30 984 O 97.3106 -2.25026 7.71763 0
M  V30 985 H 97.0426 -0.476717 0.479288 0
M  V30 986 H 99.5966 -0.915012 1.83893 0
M  V30 987 H 97.8266 -3.4666 1.71359 0
M  V30 988 H 99.5156 -3.45383 2.13226 0
M  V30 989 H 100.282 -2.24267 4.30034 0
M  V30 990 H 96.1606 -3.09383 3.41765 0
M  V30 991 H 99.7046 -1.98617 6.68728 0
M  V30 992 H 95.6016 -2.84083 5.79626 0
M  V30 993 H 96.3696 -2.40091 7.82495 0
M  V30 994 N 99.0327 -1.24633 -0.964593 0
M  V30 995 C 100.31 -0.995809 -1.68354 0
M  V30 996 C 100.69 0.480964 -2.05548 0
M  V30 997 O 100.038 1.45599 -1.76105 0
M  V30 998 C 100.248 -1.92177 -2.91323 0
M  V30 999 C 101.596 -2.19446 -3.63495 0
M  V30 1000 O 102.62 -1.89855 -3.01386 0
M  V30 1001 O 101.479 -2.69714 -4.75307 0
M  V30 1002 H 98.5727 -0.376854 -0.736146 0
M  V30 1003 H 101.119 -1.35745 -1.0184 0
M  V30 1004 H 99.8907 -2.91938 -2.60553 0
M  V30 1005 H 99.5137 -1.56349 -3.65569 0
M  V30 1006 N 100.511 1.16574 -1.06058 0
M  V30 1007 C 101.739 1.90952 -0.796552 0
M  V30 1008 C 102.154 1.77302 0.648808 0
M  V30 1009 O 101.511 1.11605 1.44397 0
M  V30 1010 C 101.562 3.41736 -1.17894 0
M  V30 1011 O 101.283 3.54975 -2.56758 0
M  V30 1012 C 102.784 4.33169 -0.942308 0
M  V30 1013 H 100.004 0.605594 -0.288959 0
M  V30 1014 H 102.548 1.47777 -1.41358 0
M  V30 1015 H 100.703 3.82623 -0.606491 0
M  V30 1016 H 101.117 4.4846 -2.72 0
M  V30 1017 H 102.591 5.37439 -1.25952 0
M  V30 1018 H 103.068 4.3903 0.122078 0
M  V30 1019 H 103.674 3.98007 -1.49902 0
M  V30 1020 N 101.989 0.842826 1.3317 0
M  V30 1021 C 103.238 0.436738 1.96915 0
M  V30 1022 C 103.551 -1.01025 1.67491 0
M  V30 1023 O 104.757 -1.5212 2.24881 0
M  V30 1024 C 103.213 0.730021 3.52418 0
M  V30 1025 C 102.821 2.19195 3.90714 0
M  V30 1026 C 104.565 0.391076 4.22695 0
M  V30 1027 C 102.472 2.42907 5.39212 0
M  V30 1028 H 101.402 0.15958 0.736919 0
M  V30 1029 H 104.053 1.03196 1.51733 0
M  V30 1030 H 102.435 0.0643755 3.95948 0
M  V30 1031 H 103.609 2.8984 3.58231 0
M  V30 1032 H 101.924 2.49425 3.33431 0
M  V30 1033 H 104.521 0.545817 5.31907 0
M  V30 1034 H 104.864 -0.666294 4.10933 0
M  V30 1035 H 105.397 1.01212 3.84709 0
M  V30 1036 H 102.136 3.47224 5.55982 0
M  V30 1037 H 101.656 1.76827 5.73142 0
M  V30 1038 H 103.335 2.2626 6.06148 0
M  V30 1039 N 103.467 -1.45747 0.599634 0
M  V30 1040 C 104.399 -2.28628 -0.161879 0
M  V30 1041 C 105.412 -1.39494 -0.839367 0
M  V30 1042 O 106.601 -1.63941 -0.706089 0
M  V30 1043 C 103.701 -3.15014 -1.24976 0
M  V30 1044 C 102.874 -4.32378 -0.660935 0
M  V30 1045 C 101.933 -5.00033 -1.63869 0
M  V30 1046 O 100.959 -5.57085 -1.1681 0
M  V30 1047 N 102.161 -4.98589 -2.97303 0
M  V30 1048 H 104.926 -2.94624 0.549265 0
M  V30 1049 H 102.487 -1.55847 0.438565 0
M  V30 1050 H 104.479 -3.5714 -1.9035 0
M  V30 1051 H 103.049 -2.5098 -1.86354 0
M  V30 1052 H 102.269 -3.9383 0.170688 0
M  V30 1053 H 103.557 -5.08197 -0.247619 0
M  V30 1054 H 102.955 -4.53514 -3.38145 0
M  V30 1055 H 101.512 -5.44603 -3.58121 0
M  V30 1056 N 104.945 -0.338344 -1.53925 0
M  V30 1057 C 105.855 0.529421 -2.28548 0
M  V30 1058 C 106.871 1.11645 -1.3346 0
M  V30 1059 O 108.047 1.13325 -1.66492 0
M  V30 1060 C 105.112 1.66713 -3.03987 0
M  V30 1061 C 104.173 1.11041 -4.14691 0
M  V30 1062 C 103.406 2.19389 -4.86522 0
M  V30 1063 O 103.629 3.40013 -4.57982 0
M  V30 1064 O 102.563 1.83976 -5.73094 0
M  V30 1065 H 106.389 -0.0770399 -3.03602 0
M  V30 1066 H 103.974 -0.103555 -1.49041 0
M  V30 1067 H 105.856 2.32918 -3.5118 0
M  V30 1068 H 104.531 2.25949 -2.31794 0
M  V30 1069 H 103.438 0.413024 -3.71813 0
M  V30 1070 H 104.771 0.562975 -4.8897 0
M  V30 1071 N 106.423 1.57458 -0.0668435 0
M  V30 1072 C 107.672 1.92477 0.602947 0
M  V30 1073 C 107.985 0.948419 1.71068 0
M  V30 1074 O 109.191 1.19124 2.43971 0
M  V30 1075 C 107.647 3.41903 1.12383 0
M  V30 1076 C 107.255 4.47975 0.04737 0
M  V30 1077 C 108.999 3.85931 1.76797 0
M  V30 1078 C 106.906 5.88529 0.582022 0
M  V30 1079 H 105.836 0.718387 0.22899 0
M  V30 1080 H 108.487 1.82978 -0.138276 0
M  V30 1081 H 106.869 3.46459 1.91787 0
M  V30 1082 H 108.043 4.55029 -0.726978 0
M  V30 1083 H 106.358 4.13384 -0.500243 0
M  V30 1084 H 108.955 4.88322 2.17821 0
M  V30 1085 H 109.298 3.23029 2.62599 0
M  V30 1086 H 109.831 3.83958 1.04024 0
M  V30 1087 H 106.57 6.55065 -0.238721 0
M  V30 1088 H 106.09 5.85004 1.324 0
M  V30 1089 H 107.769 6.38258 1.05999 0
M  V30 1090 N 107.901 -0.206675 1.56239 0
M  V30 1091 C 108.834 -1.28383 1.88661 0
M  V30 1092 C 109.812 -1.44504 0.745481 0
M  V30 1093 O 110.996 -1.60079 0.995336 0
M  V30 1094 C 108.123 -2.65211 2.10667 0
M  V30 1095 C 107.169 -2.66025 3.33366 0
M  V30 1096 S 108.002 -2.18609 4.88846 0
M  V30 1097 C 109.158 -3.57283 5.13906 0
M  V30 1098 H 109.391 -1.00691 2.7973 0
M  V30 1099 H 106.924 -0.409627 1.48867 0
M  V30 1100 H 108.882 -3.43979 2.24029 0
M  V30 1101 H 107.543 -2.90121 1.20369 0
M  V30 1102 H 106.736 -3.66607 3.45855 0
M  V30 1103 H 106.338 -1.95331 3.18938 0
M  V30 1104 H 108.63 -4.53074 5.03717 0
M  V30 1105 H 109.573 -3.49699 6.15724 0
M  V30 1106 H 109.981 -3.51659 4.41583 0
M  V30 1107 N 109.379 -1.50304 -0.473955 0
M  V30 1108 C 110.656 -1.51667 -1.23518 0
M  V30 1109 C 111.036 -0.259701 -2.09496 0
M  V30 1110 O 110.384 0.756986 -2.15597 0
M  V30 1111 C 110.594 -2.81082 -2.06868 0
M  V30 1112 C 111.942 -3.31631 -2.65153 0
M  V30 1113 O 112.966 -2.82384 -2.17113 0
M  V30 1114 O 111.825 -4.17471 -3.52675 0
M  V30 1115 H 108.919 -0.60822 -0.560355 0
M  V30 1116 H 111.465 -1.62592 -0.486011 0
M  V30 1117 H 110.237 -3.64041 -1.4349 0
M  V30 1118 H 109.86 -2.73146 -2.88924 0
M  V30 1119 N 110.857 0.726932 -1.39834 0
M  V30 1120 C 112.273 1.03354 -1.21615 0
M  V30 1121 C 112.473 2.01327 -0.08338 0
M  V30 1122 O 111.529 2.46158 0.56238 0
M  V30 1123 C 112.842 1.58811 -2.55342 0
M  V30 1124 C 114.39 1.70851 -2.62257 0
M  V30 1125 C 114.865 2.29716 -3.96225 0
M  V30 1126 N 116.356 2.37116 -3.97907 0
M  V30 1127 C 117.091 2.83619 -4.98345 0
M  V30 1128 N 116.587 3.29958 -6.09179 0
M  V30 1129 N 118.38 2.82901 -4.8572 0
M  V30 1130 H 110.531 0.0773069 -2.12259 0
M  V30 1131 H 112.794 0.0969102 -0.943034 0
M  V30 1132 H 112.5 0.942855 -3.38826 0
M  V30 1133 H 112.374 2.57502 -2.75632 0
M  V30 1134 H 114.761 2.34497 -1.79152 0
M  V30 1135 H 114.842 0.707913 -2.45809 0
M  V30 1136 H 114.486 1.66696 -4.79765 0
M  V30 1137 H 114.416 3.30469 -4.09997 0
M  V30 1138 H 116.907 2.04374 -3.17868 0
M  V30 1139 H 117.22 3.63976 -6.8172 0
M  V30 1140 H 115.565 3.27946 -6.12761 0
M  V30 1141 H 118.756 2.46027 -3.98231 0
M  V30 1142 H 118.929 3.18827 -5.6414 0
M  V30 1143 N 112.336 1.25143 0.95797 0
M  V30 1144 C 113.564 1.12424 1.73691 0
M  V30 1145 C 113.979 -0.322304 1.86029 0
M  V30 1146 O 113.336 -1.22186 1.35561 0
M  V30 1147 C 113.387 1.76933 3.15241 0
M  V30 1148 O 113.108 3.15932 3.03511 0
M  V30 1149 C 114.609 1.6995 4.09429 0
M  V30 1150 H 111.829 0.3923 0.544373 0
M  V30 1151 H 114.373 1.6544 1.20207 0
M  V30 1152 H 112.528 1.27895 3.6568 0
M  V30 1153 H 112.942 3.47598 3.9278 0
M  V30 1154 H 114.416 2.19753 5.06372 0
M  V30 1155 H 114.893 0.662619 4.34173 0
M  V30 1156 H 115.499 2.18461 3.64904 0
M  V30 1157 N 113.814 -1.1601 1.06675 0
M  V30 1158 C 115.062 -1.86264 0.784229 0
M  V30 1159 C 115.383 -1.82328 -0.691488 0
M  V30 1160 O 114.653 -1.25947 -1.50047 0
M  V30 1161 H 113.233 -0.689621 0.28711 0
M  V30 1162 H 115.895 -1.40664 1.34906 0
M  V30 1163 H 114.991 -2.91595 1.11259 0
M  V30 1164 N 115.292 -0.849877 -1.32721 0
M  V30 1165 C 116.569 -0.372405 -1.92022 0
M  V30 1166 C 116.949 1.1435 -1.77447 0
M  V30 1167 O 116.297 1.96296 -1.16962 0
M  V30 1168 C 116.507 -0.831482 -3.3895 0
M  V30 1169 C 117.855 -0.845882 -4.16089 0
M  V30 1170 O 118.879 -0.775806 -3.47649 0
M  V30 1171 O 117.738 -0.943753 -5.38289 0
M  V30 1172 H 114.832 -0.107667 -0.819961 0
M  V30 1173 H 117.378 -0.93646 -1.41522 0
M  V30 1174 H 116.15 -1.87448 -3.4348 0
M  V30 1175 H 115.773 -0.24461 -3.96847 0
M  V30 1176 N 116.77 1.45427 -0.607355 0
M  V30 1177 C 117.717 2.3053 0.111625 0
M  V30 1178 C 118.687 1.4209 0.860216 0
M  V30 1179 O 119.872 1.71019 0.845998 0
M  V30 1180 C 117.012 3.26992 1.10319 0
M  V30 1181 C 116.125 4.30535 0.355493 0
M  V30 1182 C 115.26 5.14105 1.33676 0
M  V30 1183 C 114.299 6.09376 0.576862 0
M  V30 1184 N 113.436 6.85727 1.5074 0
M  V30 1185 H 118.276 2.91477 -0.620093 0
M  V30 1186 H 115.813 1.43631 -0.317594 0
M  V30 1187 H 117.771 3.81385 1.6912 0
M  V30 1188 H 116.401 2.67799 1.80232 0
M  V30 1189 H 115.453 3.78805 -0.348023 0
M  V30 1190 H 116.765 4.98235 -0.237423 0
M  V30 1191 H 115.919 5.72897 1.99684 0
M  V30 1192 H 114.658 4.46423 1.9636 0
M  V30 1193 H 113.663 5.49715 -0.0968519 0
M  V30 1194 H 114.888 6.79085 -0.0449341 0
M  V30 1195 H 112.834 6.20735 2.12189 0
M  V30 1196 H 112.751 7.49778 0.967913 0
M  V30 1197 H 114.019 7.4906 2.15706 0
M  V30 1198 N 118.248 0.346503 1.53744 0
M  V30 1199 C 119.494 -0.249473 2.0126 0
M  V30 1200 C 119.827 -1.49965 1.23386 0
M  V30 1201 O 119.102 -1.91811 0.32229 0
M  V30 1202 C 119.385 -0.560643 3.55709 0
M  V30 1203 C 119.238 0.701836 4.44291 0
M  V30 1204 C 120.557 -1.36905 4.18264 0
M  V30 1205 H 117.676 -0.0891987 0.731582 0
M  V30 1206 H 120.318 0.467624 1.84156 0
M  V30 1207 H 118.468 -1.17156 3.70414 0
M  V30 1208 H 120.14 1.33974 4.41417 0
M  V30 1209 H 118.383 1.32612 4.13033 0
M  V30 1210 H 119.054 0.43933 5.50249 0
M  V30 1211 H 121.53 -0.852448 4.07275 0
M  V30 1212 H 120.406 -1.55553 5.26398 0
M  V30 1213 H 120.667 -2.37203 3.73078 0
M  V30 1214 N 119.726 -1.57421 0.075193 0
M  V30 1215 C 121.003 -1.85029 -0.634329 0
M  V30 1216 C 121.383 -0.968305 -1.87582 0
M  V30 1217 O 120.731 -0.0354749 -2.28472 0
M  V30 1218 C 120.941 -3.35286 -0.968742 0
M  V30 1219 C 122.289 -4.02875 -1.34077 0
M  V30 1220 O 123.313 -3.40051 -1.06037 0
M  V30 1221 O 122.172 -5.13691 -1.86506 0
M  V30 1222 H 119.266 -0.7645 -0.315387 0
M  V30 1223 H 121.812 -1.69366 0.106382 0
M  V30 1224 H 120.584 -3.91203 -0.0871376 0
M  V30 1225 H 120.207 -3.56223 -1.7661 0
M  V30 1226 N 121.204 0.198386 -1.56346 0
M  V30 1227 C 122.452 0.91747 -1.80075 0
M  V30 1228 C 122.773 1.83929 -0.647692 0
M  V30 1229 O 122.043 1.93029 0.334166 0
M  V30 1230 H 120.623 0.341774 -0.664228 0
M  V30 1231 H 123.285 0.204684 -1.93822 0
M  V30 1232 H 122.381 1.51055 -2.7311 0
M  V30 1233 N 122.682 1.50554 0.465978 0
M  V30 1234 C 124.093 1.54599 1.04671 0
M  V30 1235 C 124.444 0.352488 1.93008 0
M  V30 1236 O 123.569 -0.534044 2.09707 0
M  V30 1237 C 124.164 2.80166 1.90505 0
M  V30 1238 C 122.723 2.86876 2.43678 0
M  V30 1239 C 121.87 2.48947 1.22151 0
M  V30 1240 H 124.821 1.56744 0.248384 0
M  V30 1241 H 124.842 2.62311 2.75633 0
M  V30 1242 H 124.354 3.67013 1.26186 0
M  V30 1243 H 122.455 2.04393 3.11536 0
M  V30 1244 H 122.568 3.89885 2.78436 0
M  V30 1245 H 120.932 2.01498 1.5579 0
M  V30 1246 H 121.715 3.38107 0.594866 0
M  V30 1247 N 124.16 -0.719506 1.40217 0
M  V30 1248 C 125.107 -1.83359 1.40172 0
M  V30 1249 C 126.077 -1.64065 0.259206 0
M  V30 1250 O 127.262 -1.85254 0.456677 0
M  V30 1251 C 124.402 -3.2103 1.26624 0
M  V30 1252 C 123.515 -3.51923 2.50548 0
M  V30 1253 C 122.65 -4.79079 2.29471 0
M  V30 1254 C 121.689 -5.02863 3.48992 0
M  V30 1255 N 120.826 -6.2123 3.27135 0
M  V30 1256 H 125.666 -1.82733 2.35399 0
M  V30 1257 H 123.203 -0.892688 1.16917 0
M  V30 1258 H 125.161 -4.00524 1.16776 0
M  V30 1259 H 123.791 -3.20895 0.350176 0
M  V30 1260 H 122.843 -2.67014 2.70939 0
M  V30 1261 H 124.155 -3.6541 3.39525 0
M  V30 1262 H 123.309 -5.66582 2.16955 0
M  V30 1263 H 122.048 -4.67794 1.37913 0
M  V30 1264 H 121.053 -4.13816 3.6199 0
M  V30 1265 H 122.278 -5.16023 4.41472 0
M  V30 1266 H 120.224 -6.11204 2.38256 0
M  V30 1267 H 120.141 -6.35375 4.09675 0
M  V30 1268 H 121.409 -7.11532 3.18344 0
M  V30 1269 N 125.638 -1.25649 -0.95132 0
M  V30 1270 C 126.568 -1.08808 -2.06599 0
M  V30 1271 C 127.549 0.00382547 -1.701 0
M  V30 1272 O 128.734 -0.166325 -1.93486 0
M  V30 1273 C 125.864 -0.709542 -3.39975 0
M  V30 1274 C 124.818 -1.75206 -3.90496 0
M  V30 1275 C 124.144 -1.22811 -5.20405 0
M  V30 1276 C 125.444 -3.15153 -4.16504 0
M  V30 1277 H 127.138 -2.02048 -2.20946 0
M  V30 1278 H 124.684 -0.972835 -1.06169 0
M  V30 1279 H 126.637 -0.578649 -4.17408 0
M  V30 1280 H 125.361 0.258556 -3.25575 0
M  V30 1281 H 124.02 -1.87145 -3.15234 0
M  V30 1282 H 123.668 -0.250145 -5.02378 0
M  V30 1283 H 123.368 -1.92492 -5.55176 0
M  V30 1284 H 124.892 -1.10968 -6.00432 0
M  V30 1285 H 126.306 -3.06349 -4.84586 0
M  V30 1286 H 124.703 -3.82333 -4.62538 0
M  V30 1287 H 125.773 -3.61966 -3.22658 0
M  V30 1288 N 127.117 1.15442 -1.07289 0
M  V30 1289 C 128.533 1.38201 -0.798288 0
M  V30 1290 C 128.733 1.92429 0.597769 0
M  V30 1291 O 127.789 2.12962 1.3566 0
M  V30 1292 C 129.102 2.35357 -1.87156 0
M  V30 1293 C 130.65 2.49021 -1.89624 0
M  V30 1294 C 131.125 3.49468 -2.96034 0
M  V30 1295 N 132.616 3.57003 -2.95132 0
M  V30 1296 C 133.351 4.34543 -3.74112 0
M  V30 1297 N 132.847 5.15421 -4.6294 0
M  V30 1298 N 134.64 4.29625 -3.62462 0
M  V30 1299 H 126.791 0.78584 -1.97328 0
M  V30 1300 H 129.054 0.408065 -0.855679 0
M  V30 1301 H 128.76 2.02626 -2.87464 0
M  V30 1302 H 128.634 3.35129 -1.73114 0
M  V30 1303 H 131.021 2.81051 -0.899687 0
M  V30 1304 H 131.102 1.4925 -2.07745 0
M  V30 1305 H 130.746 3.18173 -3.95889 0
M  V30 1306 H 130.676 4.48992 -2.75161 0
M  V30 1307 H 133.167 2.99276 -2.30743 0
M  V30 1308 H 133.48 5.7183 -5.19837 0
M  V30 1309 H 131.825 5.14729 -4.66989 0
M  V30 1310 H 135.016 3.65505 -2.92444 0
M  V30 1311 H 135.189 4.89807 -4.24256 0
M  V30 1312 N 128.595 0.856903 1.32268 0
M  V30 1313 C 130.011 0.547061 1.49931 0
M  V30 1314 C 130.211 -0.921781 1.7918 0
M  V30 1315 O 129.267 -1.70469 1.8627 0
M  V30 1316 C 130.58 1.43599 2.64196 0
M  V30 1317 C 132.128 1.43665 2.78081 0
M  V30 1318 C 132.603 2.31085 3.95428 0
M  V30 1319 N 134.094 2.28893 4.02694 0
M  V30 1320 C 134.829 2.93262 4.92732 0
M  V30 1321 N 134.325 3.66751 5.87763 0
M  V30 1322 N 136.118 2.82638 4.85873 0
M  V30 1323 H 128.269 1.8075 1.11549 0
M  V30 1324 H 130.532 0.772144 0.549997 0
M  V30 1325 H 130.238 2.48058 2.49319 0
M  V30 1326 H 130.112 1.12502 3.60032 0
M  V30 1327 H 132.499 0.399701 2.92381 0
M  V30 1328 H 132.58 1.7878 1.82952 0
M  V30 1329 H 132.224 3.34849 3.81888 0
M  V30 1330 H 132.154 1.93302 4.89839 0
M  V30 1331 H 134.645 1.75466 3.34694 0
M  V30 1332 H 134.958 4.13027 6.53168 0
M  V30 1333 H 133.303 3.70859 5.87783 0
M  V30 1334 H 136.494 2.24774 4.10602 0
M  V30 1335 H 136.667 3.33084 5.55841 0
M  V30 1336 N 130.073 -1.45103 0.615059 0
M  V30 1337 C 130.983 -2.34382 -0.101034 0
M  V30 1338 C 131.999 -1.51681 -0.852585 0
M  V30 1339 O 133.175 -1.8446 -0.808484 0
M  V30 1340 C 130.24 -3.29417 -1.08099 0
M  V30 1341 C 129.301 -4.28025 -0.330577 0
M  V30 1342 C 128.534 -5.1852 -1.26385 0
M  V30 1343 O 128.757 -5.12598 -2.50198 0
M  V30 1344 O 127.691 -5.97122 -0.756866 0
M  V30 1345 H 131.517 -2.97033 0.632855 0
M  V30 1346 H 129.102 -1.4461 0.375293 0
M  V30 1347 H 130.984 -3.87958 -1.6452 0
M  V30 1348 H 129.659 -2.69321 -1.79577 0
M  V30 1349 H 128.566 -3.73078 0.276283 0
M  V30 1350 H 129.899 -4.90997 0.343866 0
M  V30 1351 N 131.551 -0.354651 -1.53558 0
M  V30 1352 C 132.798 0.238443 -2.01091 0
M  V30 1353 C 133.126 1.49663 -1.24222 0
M  V30 1354 O 132.381 1.93049 -0.321003 0
M  V30 1355 C 132.68 0.587121 -3.52545 0
M  V30 1356 C 132.346 -0.575472 -4.47213 0
M  V30 1357 C 131.008 -0.894497 -4.72813 0
M  V30 1358 C 133.36 -1.35489 -5.03281 0
M  V30 1359 C 130.688 -1.99511 -5.51736 0
M  V30 1360 C 133.04 -2.44583 -5.83405 0
M  V30 1361 C 131.704 -2.77033 -6.07296 0
M  V30 1362 H 130.974 0.0872526 -0.735845 0
M  V30 1363 H 133.621 -0.484859 -1.8526 0
M  V30 1364 H 131.926 1.39129 -3.66265 0
M  V30 1365 H 133.623 1.05809 -3.86789 0
M  V30 1366 H 130.213 -0.316774 -4.27428 0
M  V30 1367 H 134.397 -1.12167 -4.83459 0
M  V30 1368 H 129.653 -2.25063 -5.68469 0
M  V30 1369 H 133.827 -3.05401 -6.25862 0
M  V30 1370 H 131.454 -3.6244 -6.68237 0
M  V30 1371 N 133.029 1.57378 -0.0835403 0
M  V30 1372 C 133.959 2.1641 0.87686 0
M  V30 1373 C 134.94 1.09429 1.30228 0
M  V30 1374 O 136.125 1.37516 1.37124 0
M  V30 1375 C 133.255 2.73517 2.14022 0
M  V30 1376 C 132.209 3.85769 1.85381 0
M  V30 1377 C 131.535 4.29529 3.18448 0
M  V30 1378 C 132.835 5.09486 1.14984 0
M  V30 1379 H 134.529 2.96914 0.385059 0
M  V30 1380 H 132.075 1.42823 0.18377 0
M  V30 1381 H 134.028 3.13463 2.81636 0
M  V30 1382 H 132.752 1.90252 2.65465 0
M  V30 1383 H 131.411 3.46345 1.20169 0
M  V30 1384 H 131.059 3.43169 3.67755 0
M  V30 1385 H 130.759 5.05204 3.00071 0
M  V30 1386 H 132.283 4.72099 3.8724 0
M  V30 1387 H 133.697 5.46674 1.72687 0
M  V30 1388 H 132.094 5.90515 1.06826 0
M  V30 1389 H 133.164 4.84724 0.130749 0
M  V30 1390 N 134.507 -0.190092 1.56449 0
M  V30 1391 C 135.457 -1.23977 1.91347 0
M  V30 1392 C 136.441 -1.40747 0.779693 0
M  V30 1393 O 137.633 -1.43033 1.04262 0
M  V30 1394 C 134.762 -2.58347 2.26079 0
M  V30 1395 C 133.848 -2.4535 3.45925 0
M  V30 1396 N 134.239 -2.02039 4.63696 0
M  V30 1397 C 132.537 -2.76229 3.50162 0
M  V30 1398 C 133.238 -2.01053 5.4585 0
M  V30 1399 N 132.214 -2.42747 4.8639 0
M  V30 1400 H 136.016 -0.896318 2.79899 0
M  V30 1401 H 133.53 -0.398496 1.57435 0
M  V30 1402 H 135.527 -3.34173 2.49267 0
M  V30 1403 H 134.187 -2.93512 1.38856 0
M  V30 1404 H 135.198 -1.7267 4.88268 0
M  V30 1405 H 131.875 -3.15556 2.73369 0
M  V30 1406 H 133.265 -1.69426 6.50188 0
M  V30 1407 N 135.985 -1.50799 -0.457987 0
M  V30 1408 C 136.895 -1.73426 -1.57989 0
M  V30 1409 C 137.911 -0.617745 -1.62665 0
M  V30 1410 O 139.087 -0.897614 -1.80291 0
M  V30 1411 C 136.152 -1.83557 -2.94122 0
M  V30 1412 C 135.213 -3.07345 -2.99729 0
M  V30 1413 C 134.446 -3.16983 -4.29368 0
M  V30 1414 O 134.669 -2.33077 -5.20607 0
M  V30 1415 O 133.603 -4.09812 -4.40837 0
M  V30 1416 H 137.429 -2.68555 -1.41817 0
M  V30 1417 H 135.014 -1.35052 -0.638859 0
M  V30 1418 H 136.896 -1.92326 -3.74952 0
M  V30 1419 H 135.571 -0.916137 -3.10465 0
M  V30 1420 H 134.478 -3.04068 -2.1793 0
M  V30 1421 H 135.811 -3.9891 -2.88326 0
M  V30 1422 N 137.463 0.71206 -1.40597 0
M  V30 1423 C 138.74 1.46536 -1.29563 0
M  V30 1424 C 139.12 2.10931 0.0844217 0
M  V30 1425 O 138.468 2.00418 1.0975 0
M  V30 1426 C 138.678 2.49821 -2.43701 0
M  V30 1427 C 140.026 3.15551 -2.841 0
M  V30 1428 O 141.05 2.60142 -2.4332 0
M  V30 1429 O 139.909 4.15867 -3.54566 0
M  V30 1430 H 137.003 0.651801 -0.509004 0
M  V30 1431 H 139.549 0.743935 -1.52524 0
M  V30 1432 H 138.321 2.00778 -3.35863 0
M  V30 1433 H 137.944 3.29495 -2.22528 0
M  V30 1434 N 138.941 1.26152 0.944643 0
M  V30 1435 C 140.189 1.11271 1.6871 0
M  V30 1436 C 140.51 -0.345166 1.91921 0
M  V30 1437 O 139.78 -1.24387 1.51343 0
M  V30 1438 H 138.36 0.408783 0.625224 0
M  V30 1439 H 141.022 1.58427 1.1352 0
M  V30 1440 H 140.118 1.62879 2.66227 0
M  V30 1441 N 140.419 -1.14872 1.07899 0
M  V30 1442 C 141.329 -2.2341 0.715915 0
M  V30 1443 C 142.345 -1.71808 -0.275306 0
M  V30 1444 O 143.521 -2.01039 -0.120545 0
M  V30 1445 C 140.586 -3.46474 0.125168 0
M  V30 1446 C 139.647 -4.13039 1.17034 0
M  V30 1447 C 138.88 -5.30229 0.607688 0
M  V30 1448 O 139.103 -5.675 -0.574497 0
M  V30 1449 O 138.037 -5.86444 1.35526 0
M  V30 1450 H 141.863 -2.56808 1.62121 0
M  V30 1451 H 139.448 -1.22702 0.852322 0
M  V30 1452 H 141.33 -4.20917 -0.201729 0
M  V30 1453 H 140.005 -3.14811 -0.753364 0
M  V30 1454 H 138.912 -3.40493 1.54968 0
M  V30 1455 H 140.245 -4.48796 2.02097 0
M  V30 1456 N 141.898 -0.863906 -1.31812 0
M  V30 1457 C 143.147 -0.46801 -1.96195 0
M  V30 1458 C 143.46 0.983474 -1.69077 0
M  V30 1459 O 144.666 1.48523 -2.27273 0
M  V30 1460 C 143.122 -0.785995 -3.51212 0
M  V30 1461 C 142.73 -2.25383 -3.87178 0
M  V30 1462 C 144.474 -0.458274 -4.22019 0
M  V30 1463 C 142.381 -2.51455 -5.3528 0
M  V30 1464 H 141.311 -0.171283 -0.734287 0
M  V30 1465 H 143.962 -1.05597 -1.50072 0
M  V30 1466 H 142.344 -0.127359 -3.95795 0
M  V30 1467 H 143.518 -2.95502 -3.53575 0
M  V30 1468 H 141.833 -2.54698 -3.2942 0
M  V30 1469 H 144.43 -0.630369 -5.30971 0
M  V30 1470 H 144.773 0.600834 -4.11941 0
M  V30 1471 H 145.306 -1.07319 -3.8305 0
M  V30 1472 H 142.045 -3.56025 -5.50387 0
M  V30 1473 H 141.565 -1.85923 -5.70257 0
M  V30 1474 H 143.244 -2.35874 -6.02472 0
M  V30 1475 N 143.376 1.44774 -0.622745 0
M  V30 1476 C 144.606 2.06187 -0.130532 0
M  V30 1477 C 145.014 1.46547 1.19669 0
M  V30 1478 O 144.357 0.579636 1.74316 0
M  V30 1479 C 144.419 3.59437 0.0674983 0
M  V30 1480 C 144.083 4.41496 -1.18026 0
M  V30 1481 C 145.08 4.75512 -2.102 0
M  V30 1482 C 142.765 4.82007 -1.41333 0
M  V30 1483 C 144.759 5.48912 -3.23998 0
M  V30 1484 C 142.446 5.55157 -2.55429 0
M  V30 1485 C 143.444 5.88528 -3.46589 0
M  V30 1486 O 143.132 6.60191 -4.58697 0
M  V30 1487 H 142.864 0.672045 -0.0730162 0
M  V30 1488 H 145.418 1.86768 -0.854802 0
M  V30 1489 H 143.648 3.77314 0.846825 0
M  V30 1490 H 145.337 4.02642 0.513209 0
M  V30 1491 H 146.103 4.4476 -1.93425 0
M  V30 1492 H 141.982 4.55457 -0.712709 0
M  V30 1493 H 145.526 5.74877 -3.95174 0
M  V30 1494 H 141.423 5.85324 -2.72151 0
M  V30 1495 H 142.191 6.78654 -4.57571 0
M  V30 1496 N 144.854 0.36279 1.53368 0
M  V30 1497 C 146.1 -0.228113 2.01513 0
M  V30 1498 C 146.433 -1.48648 1.2497 0
M  V30 1499 O 145.708 -1.91459 0.342616 0
M  V30 1500 C 145.991 -0.522884 3.56284 0
M  V30 1501 C 145.844 0.74892 4.43521 0
M  V30 1502 C 147.163 -1.32461 4.19693 0
M  V30 1503 H 144.282 -0.0814343 0.732487 0
M  V30 1504 H 146.924 0.48713 1.83649 0
M  V30 1505 H 145.074 -1.1322 3.71636 0
M  V30 1506 H 146.746 1.38648 4.39971 0
M  V30 1507 H 144.989 1.36986 4.11603 0
M  V30 1508 H 145.66 0.497667 5.49752 0
M  V30 1509 H 148.136 -0.809203 4.08156 0
M  V30 1510 H 147.012 -1.49961 5.28018 0
M  V30 1511 H 147.273 -2.33232 3.75573 0
M  V30 1512 N 146.332 -1.57332 0.0918853 0
M  V30 1513 C 147.743 -1.81496 -0.437739 0
M  V30 1514 C 148.094 -1.00727 -1.6837 0
M  V30 1515 O 147.219 -0.235694 -2.15113 0
M  V30 1516 C 147.814 -3.29197 -0.800939 0
M  V30 1517 C 146.373 -3.54136 -1.27532 0
M  V30 1518 C 145.52 -2.75979 -0.270392 0
M  V30 1519 H 148.471 -1.55494 0.317366 0
M  V30 1520 H 148.492 -3.42344 -1.66074 0
M  V30 1521 H 148.004 -3.87955 0.106078 0
M  V30 1522 H 146.105 -3.00705 -2.20016 0
M  V30 1523 H 146.218 -4.62792 -1.23938 0
M  V30 1524 H 144.582 -2.43349 -0.751872 0
M  V30 1525 H 145.365 -3.37484 0.629248 0
M  V30 1526 N 147.81 0.181792 -1.56548 0
M  V30 1527 C 148.72 1.24538 -1.98815 0
M  V30 1528 C 149.736 1.49045 -0.897861 0
M  V30 1529 O 150.912 1.61399 -1.20467 0
M  V30 1530 C 147.977 2.56683 -2.33055 0
M  V30 1531 C 147.038 2.40131 -3.55859 0
M  V30 1532 C 146.271 3.65975 -3.88456 0
M  V30 1533 O 146.494 4.70711 -3.22161 0
M  V30 1534 O 145.428 3.6071 -4.81842 0
M  V30 1535 H 149.254 0.916647 -2.89536 0
M  V30 1536 H 146.839 0.387842 -1.44278 0
M  V30 1537 H 148.721 3.34655 -2.56094 0
M  V30 1538 H 147.396 2.89157 -1.45498 0
M  V30 1539 H 146.303 1.60226 -3.38051 0
M  V30 1540 H 147.636 2.12585 -4.43924 0
M  V30 1541 N 149.288 1.51039 0.449983 0
M  V30 1542 C 150.235 1.71439 1.54523 0
M  V30 1543 C 151.205 0.555871 1.56522 0
M  V30 1544 O 152.39 0.788871 1.73728 0
M  V30 1545 C 149.53 1.83384 2.92343 0
M  V30 1546 C 148.643 3.10873 2.9997 0
M  V30 1547 C 147.778 3.13488 4.28834 0
M  V30 1548 C 146.817 4.35343 4.30282 0
M  V30 1549 N 145.954 4.35579 5.5065 0
M  V30 1550 H 150.794 2.64934 1.36433 0
M  V30 1551 H 148.331 1.31312 0.662982 0
M  V30 1552 H 150.289 1.88291 3.72293 0
M  V30 1553 H 148.919 0.933086 3.0902 0
M  V30 1554 H 147.971 3.15336 2.12761 0
M  V30 1555 H 149.283 4.00814 2.96901 0
M  V30 1556 H 148.437 3.17241 5.17149 0
M  V30 1557 H 147.176 2.21414 4.34543 0
M  V30 1558 H 146.181 4.3178 3.40362 0
M  V30 1559 H 147.406 5.28668 4.26248 0
M  V30 1560 H 145.352 3.46369 5.57104 0
M  V30 1561 H 145.269 5.19313 5.49409 0
M  V30 1562 H 146.537 4.43507 6.41032 0
M  V30 1563 N 150.766 -0.704594 1.40972 0
M  V30 1564 C 152.043 -1.45847 1.30338 0
M  V30 1565 C 152.423 -2.10973 -0.0732344 0
M  V30 1566 O 151.771 -2.00997 -1.08685 0
M  V30 1567 C 151.981 -2.48525 2.45023 0
M  V30 1568 C 153.329 -3.1404 2.8577 0
M  V30 1569 O 154.353 -2.58848 2.44696 0
M  V30 1570 O 153.212 -4.13981 3.56766 0
M  V30 1571 H 150.306 -0.649092 0.512454 0
M  V30 1572 H 152.852 -0.735836 1.52917 0
M  V30 1573 H 151.624 -1.98994 3.36923 0
M  V30 1574 H 151.247 -3.2831 2.24272 0
M  V30 1575 N 152.244 -1.26651 -0.937939 0
M  V30 1576 C 153.655 -1.1125 -1.49934 0
M  V30 1577 C 154.006 0.306077 -1.93798 0
M  V30 1578 O 153.131 1.19792 -1.80219 0
M  V30 1579 C 153.726 -2.01339 -2.72485 0
M  V30 1580 C 152.285 -1.90074 -3.24883 0
M  V30 1581 C 151.432 -1.94498 -1.97651 0
M  V30 1582 H 154.383 -1.39693 -0.753091 0
M  V30 1583 H 154.404 -1.56319 -3.46907 0
M  V30 1584 H 153.916 -3.04577 -2.40529 0
M  V30 1585 H 152.017 -0.897827 -3.61621 0
M  V30 1586 H 152.13 -2.75778 -3.9177 0
M  V30 1587 H 150.494 -1.38591 -2.13693 0
M  V30 1588 H 151.277 -2.99372 -1.68022 0
M  V30 1589 N 153.722 1.14298 -1.08507 0
M  V30 1590 C 154.968 1.85633 -0.816581 0
M  V30 1591 C 155.301 1.82784 0.656021 0
M  V30 1592 O 154.576 1.25926 1.48233 0
M  V30 1593 C 154.859 3.34223 -1.34041 0
M  V30 1594 C 154.712 3.45639 -2.87843 0
M  V30 1595 C 156.031 4.29356 -0.9665 0
M  V30 1596 H 153.15 0.67402 -0.298104 0
M  V30 1597 H 155.792 1.34214 -1.34487 0
M  V30 1598 H 153.942 3.78144 -0.89104 0
M  V30 1599 H 155.614 3.10498 -3.41158 0
M  V30 1600 H 153.857 2.86817 -3.25451 0
M  V30 1601 H 154.528 4.50089 -3.19569 0
M  V30 1602 H 157.004 3.93457 -1.35391 0
M  V30 1603 H 155.88 5.3178 -1.3602 0
M  V30 1604 H 156.141 4.41919 0.126362 0
M  V30 1605 N 155.201 0.870884 1.31352 0
M  V30 1606 C 156.617 0.562932 1.49343 0
M  V30 1607 C 156.817 -0.902725 1.80148 0
M  V30 1608 O 155.873 -1.68484 1.88067 0
M  V30 1609 C 157.186 1.46393 2.62659 0
M  V30 1610 C 158.734 1.46607 2.76542 0
M  V30 1611 C 159.209 2.35266 3.92955 0
M  V30 1612 N 160.7 2.33151 4.00243 0
M  V30 1613 C 161.435 2.98471 4.89594 0
M  V30 1614 N 160.931 3.72964 5.8384 0
M  V30 1615 N 162.724 2.87775 4.82848 0
M  V30 1616 H 154.875 1.81923 1.09626 0
M  V30 1617 H 157.138 0.777934 0.541777 0
M  V30 1618 H 156.844 2.50689 2.46674 0
M  V30 1619 H 156.718 1.16314 3.58819 0
M  V30 1620 H 159.105 0.43069 2.9194 0
M  V30 1621 H 159.186 1.8071 1.81046 0
M  V30 1622 H 158.83 3.38881 3.78315 0
M  V30 1623 H 158.76 1.98487 4.87761 0
M  V30 1624 H 161.251 1.79006 3.32814 0
M  V30 1625 H 161.564 4.19932 6.4875 0
M  V30 1626 H 159.909 3.77073 5.83816 0
M  V30 1627 H 163.1 2.29116 4.08195 0
M  V30 1628 H 163.273 3.38961 5.52277 0
M  V30 1629 N 156.679 -1.44442 0.630414 0
M  V30 1630 C 157.927 -2.01653 0.134351 0
M  V30 1631 C 158.248 -1.49836 -1.24796 0
M  V30 1632 O 157.518 -0.701684 -1.82902 0
M  V30 1633 H 156.098 -0.74554 0.0466769 0
M  V30 1634 H 158.76 -1.76952 0.816955 0
M  V30 1635 H 157.856 -3.11935 0.101498 0
M  V30 1636 N 158.157 -0.370918 -1.53173 0
M  V30 1637 C 159.568 0.107139 -1.86392 0
M  V30 1638 C 159.919 1.47714 -1.29132 0
M  V30 1639 O 159.044 2.07464 -0.615439 0
M  V30 1640 C 159.639 0.201187 -3.38202 0
M  V30 1641 C 158.198 0.623507 -3.712 0
M  V30 1642 C 157.345 -0.225978 -2.76378 0
M  V30 1643 H 160.296 -0.58951 -1.47345 0
M  V30 1644 H 160.317 1.02377 -3.66468 0
M  V30 1645 H 159.829 -0.796058 -3.79848 0
M  V30 1646 H 157.93 1.62879 -3.35114 0
M  V30 1647 H 158.043 0.394414 -4.77474 0
M  V30 1648 H 156.407 0.305962 -2.52856 0
M  V30 1649 H 157.19 -1.22086 -3.20858 0
M  V30 1650 N 159.635 1.57281 -0.100228 0
M  V30 1651 C 160.567 2.11342 0.886972 0
M  V30 1652 C 161.58 1.05182 1.24261 0
M  V30 1653 O 162.769 1.32613 1.19483 0
M  V30 1654 C 159.869 2.5825 2.19454 0
M  V30 1655 C 159.042 3.88302 2.01346 0
M  V30 1656 C 158.101 4.21004 3.15661 0
M  V30 1657 O 157.127 4.9014 2.89398 0
M  V30 1658 N 158.329 3.76818 4.41575 0
M  V30 1659 H 161.094 2.96668 0.425216 0
M  V30 1660 H 158.655 1.61678 0.0847334 0
M  V30 1661 H 160.647 2.7717 2.94888 0
M  V30 1662 H 159.217 1.77907 2.57037 0
M  V30 1663 H 158.437 3.7848 1.10212 0
M  V30 1664 H 159.725 4.73375 1.8653 0
M  V30 1665 H 159.123 3.2102 4.65792 0
M  V30 1666 H 157.68 4.00882 5.13942 0
M  V30 1667 N 161.113 -0.173488 1.56642 0
M  V30 1668 C 162.359 -0.891784 1.8214 0
M  V30 1669 C 162.692 -1.8199 0.677736 0
M  V30 1670 O 161.967 -1.91842 -0.320446 0
M  V30 1671 C 162.25 -1.68933 3.18015 0
M  V30 1672 C 162.103 -0.784487 4.42906 0
M  V30 1673 C 163.422 -2.65748 3.50808 0
M  V30 1674 H 160.541 -0.322761 0.662567 0
M  V30 1675 H 163.183 -0.158095 1.89341 0
M  V30 1676 H 161.333 -2.31482 3.12007 0
M  V30 1677 H 163.005 -0.172046 4.60979 0
M  V30 1678 H 161.248 -0.0924117 4.33702 0
M  V30 1679 H 161.919 -1.37799 5.34524 0
M  V30 1680 H 164.395 -2.13327 3.57255 0
M  V30 1681 H 163.271 -3.18619 4.4696 0
M  V30 1682 H 163.532 -3.45842 2.75401 0
M  V30 1683 N 162.591 -1.51276 -0.441967 0
M  V30 1684 C 163.524 -1.66933 -1.55591 0
M  V30 1685 C 164.502 -0.516958 -1.54163 0
M  V30 1686 O 165.686 -0.740209 -1.73358 0
M  V30 1687 C 162.813 -1.67866 -2.94174 0
M  V30 1688 C 161.859 -2.89013 -3.13646 0
M  V30 1689 S 162.692 -4.49897 -2.90436 0
M  V30 1690 C 163.848 -4.53568 -4.31308 0
M  V30 1691 H 164.081 -2.61155 -1.42076 0
M  V30 1692 H 161.614 -1.40902 -0.631341 0
M  V30 1693 H 163.572 -1.69089 -3.74058 0
M  V30 1694 H 162.233 -0.748296 -3.05056 0
M  V30 1695 H 161.426 -2.86054 -4.14957 0
M  V30 1696 H 161.028 -2.85509 -2.4158 0
M  V30 1697 H 163.32 -4.28924 -5.24434 0
M  V30 1698 H 164.263 -5.55355 -4.39303 0
M  V30 1699 H 164.671 -3.82943 -4.14747 0
M  V30 1700 N 164.069 0.697108 -1.41344 0
M  V30 1701 C 165.032 1.79281 -1.42797 0
M  V30 1702 C 166.032 1.57607 -0.318837 0
M  V30 1703 O 167.222 1.64309 -0.578642 0
M  V30 1704 C 164.354 3.17632 -1.23785 0
M  V30 1705 H 165.547 1.79385 -2.40335 0
M  V30 1706 H 163.1 0.904582 -1.27464 0
M  V30 1707 H 163.835 3.23167 -0.270814 0
M  V30 1708 H 163.62 3.34765 -2.04144 0
M  V30 1709 H 165.11 3.97617 -1.27633 0
M  V30 1710 N 165.547 1.27147 0.931209 0
M  V30 1711 C 166.51 1.09615 2.01289 0
M  V30 1712 C 167.51 0.0412581 1.60747 0
M  V30 1713 O 168.7 0.285545 1.71844 0
M  V30 1714 C 165.832 0.669447 3.34262 0
M  V30 1715 H 167.025 2.05662 2.18273 0
M  V30 1716 H 164.578 1.09885 1.11153 0
M  V30 1717 H 165.313 -0.292572 3.22978 0
M  V30 1718 H 165.098 1.43127 3.65044 0
M  V30 1719 H 166.588 0.568921 4.13706 0
M  V30 1720 N 167.025 -1.13721 1.09112 0
M  V30 1721 C 168.271 -1.85198 0.826414 0
M  V30 1722 C 168.604 -1.83129 -0.646319 0
M  V30 1723 O 167.879 -1.2671 -1.47563 0
M  V30 1724 C 168.162 -3.33507 1.35812 0
M  V30 1725 C 168.015 -3.44108 2.89672 0
M  V30 1726 C 169.334 -4.28838 0.989256 0
M  V30 1727 H 166.453 -0.67243 0.301675 0
M  V30 1728 H 169.095 -1.33499 1.35197 0
M  V30 1729 H 167.245 -3.77666 0.911082 0
M  V30 1730 H 168.917 -3.08684 3.428 0
M  V30 1731 H 167.16 -2.85087 3.26967 0
M  V30 1732 H 167.831 -4.48388 3.21951 0
M  V30 1733 H 170.307 -3.92734 1.37475 0
M  V30 1734 H 169.183 -5.31051 1.38838 0
M  V30 1735 H 169.444 -4.4198 -0.102924 0
M  V30 1736 N 168.503 -0.877838 -1.30888 0
M  V30 1737 C 169.435 -0.296607 -2.27273 0
M  V30 1738 C 170.448 0.544799 -1.53414 0
M  V30 1739 O 171.637 0.365511 -1.74718 0
M  V30 1740 C 168.737 0.597481 -3.33592 0
M  V30 1741 C 167.91 -0.213251 -4.3688 0
M  V30 1742 C 166.969 0.610208 -5.2265 0
M  V30 1743 O 165.995 0.035441 -5.69189 0
M  V30 1744 N 167.197 1.92071 -5.47804 0
M  V30 1745 H 169.962 -1.12492 -2.77787 0
M  V30 1746 H 167.523 -0.740105 -1.43993 0
M  V30 1747 H 169.515 1.15425 -3.87891 0
M  V30 1748 H 168.085 1.32647 -2.83061 0
M  V30 1749 H 167.305 -0.951466 -3.82545 0
M  V30 1750 H 168.593 -0.769262 -5.02951 0
M  V30 1751 H 167.991 2.4107 -5.11763 0
M  V30 1752 H 166.548 2.42508 -6.05007 0
M  V30 1753 N 169.982 1.44106 -0.638065 0
M  V30 1754 C 170.929 2.30715 0.062701 0
M  V30 1755 C 171.899 1.43882 0.829883 0
M  V30 1756 O 173.084 1.72775 0.809532 0
M  V30 1757 C 170.224 3.29258 1.03358 0
M  V30 1758 C 169.337 4.31192 0.26409 0
M  V30 1759 C 168.472 5.16825 1.22741 0
M  V30 1760 C 167.511 6.10462 0.447475 0
M  V30 1761 N 166.648 6.8877 1.36161 0
M  V30 1762 H 171.488 2.90096 -0.681781 0
M  V30 1763 H 169.025 1.42925 -0.347988 0
M  V30 1764 H 170.983 3.84886 1.60992 0
M  V30 1765 H 169.613 2.71562 1.74511 0
M  V30 1766 H 168.665 3.77981 -0.428295 0
M  V30 1767 H 169.977 4.97619 -0.343052 0
M  V30 1768 H 169.131 5.77004 1.87487 0
M  V30 1769 H 167.87 4.50488 1.86847 0
M  V30 1770 H 166.875 5.49386 -0.213433 0
M  V30 1771 H 168.1 6.78837 -0.188968 0
M  V30 1772 H 166.046 6.25096 1.98975 0
M  V30 1773 H 165.963 7.51663 0.808656 0
M  V30 1774 H 167.231 7.53467 1.99769 0
M  V30 1775 N 171.46 0.379036 1.52974 0
M  V30 1776 C 172.39 -0.452706 2.29069 0
M  V30 1777 C 173.371 -1.07237 1.32039 0
M  V30 1778 O 174.556 -1.08708 1.60923 0
M  V30 1779 C 171.686 -1.5856 3.08992 0
M  V30 1780 C 170.64 -1.0925 4.13822 0
M  V30 1781 C 169.966 -2.31668 4.81907 0
M  V30 1782 C 171.266 -0.167702 5.22031 0
M  V30 1783 H 172.96 0.182181 2.98845 0
M  V30 1784 H 170.506 0.0890592 1.43724 0
M  V30 1785 H 172.459 -2.1742 3.6098 0
M  V30 1786 H 171.183 -2.24792 2.36931 0
M  V30 1787 H 169.842 -0.526494 3.628 0
M  V30 1788 H 169.49 -2.96386 4.06404 0
M  V30 1789 H 169.19 -1.9934 5.52754 0
M  V30 1790 H 170.714 -2.91189 5.36695 0
M  V30 1791 H 172.128 -0.664186 5.6944 0
M  V30 1792 H 170.525 0.0653265 6.00064 0
M  V30 1793 H 171.595 0.786347 4.78482 0
M  V30 1794 N 172.938 -1.57226 0.108567 0
M  V30 1795 C 174.186 -1.94448 -0.550853 0
M  V30 1796 C 174.507 -0.992074 -1.67878 0
M  V30 1797 O 173.777 -0.0465 -1.95845 0
M  V30 1798 H 172.357 -0.717897 -0.206479 0
M  V30 1799 H 175.019 -1.94112 0.175062 0
M  V30 1800 H 174.115 -2.97218 -0.952259 0
M  V30 1801 N 174.416 0.165178 -1.56732 0
M  V30 1802 C 175.348 1.22911 -1.93457 0
M  V30 1803 C 176.361 1.40152 -0.828333 0
M  V30 1804 O 177.55 1.40046 -1.10677 0
M  V30 1805 C 174.65 2.59686 -2.17753 0
M  V30 1806 C 173.823 2.63663 -3.48999 0
M  V30 1807 C 172.882 3.81845 -3.62051 0
M  V30 1808 O 171.908 3.67559 -4.34613 0
M  V30 1809 N 173.11 4.98557 -2.97357 0
M  V30 1810 H 175.875 0.917118 -2.85323 0
M  V30 1811 H 173.436 0.354895 -1.57962 0
M  V30 1812 H 175.428 3.37225 -2.23743 0
M  V30 1813 H 173.998 2.83251 -1.32242 0
M  V30 1814 H 173.218 1.72173 -3.54612 0
M  V30 1815 H 174.506 2.63336 -4.35352 0
M  V30 1816 H 173.904 5.13065 -2.38287 0
M  V30 1817 H 172.461 5.73936 -3.08934 0
M  V30 1818 N 175.894 1.51508 0.433938 0
M  V30 1819 C 176.824 1.76016 1.53429 0
M  V30 1820 C 177.805 0.610112 1.58782 0
M  V30 1821 O 178.99 0.853177 1.74455 0
M  V30 1822 C 176.12 1.88831 2.9148 0
M  V30 1823 C 175.074 3.04288 3.00987 0
M  V30 1824 C 174.4 3.0229 4.4105 0
M  V30 1825 C 175.7 4.44193 2.74754 0
M  V30 1826 H 177.394 2.68152 1.33171 0
M  V30 1827 H 174.94 1.29035 0.639214 0
M  V30 1828 H 176.893 2.04559 3.6842 0
M  V30 1829 H 175.617 0.933455 3.12976 0
M  V30 1830 H 174.276 2.8827 2.26486 0
M  V30 1831 H 173.924 2.04576 4.59519 0
M  V30 1832 H 173.624 3.79822 4.4834 0
M  V30 1833 H 175.148 3.20116 5.1996 0
M  V30 1834 H 176.562 4.60544 3.41426 0
M  V30 1835 H 174.959 5.23457 2.9345 0
M  V30 1836 H 176.029 4.53996 1.70339 0
M  V30 1837 N 177.372 -0.689602 1.41712 0
M  V30 1838 C 178.302 -1.81577 1.46806 0
M  V30 1839 C 179.283 -1.66945 0.326105 0
M  V30 1840 O 180.468 -1.86588 0.538377 0
M  V30 1841 C 177.598 -3.19762 1.35535 0
M  V30 1842 C 176.552 -3.49107 2.47605 0
M  V30 1843 C 175.878 -4.86711 2.21397 0
M  V30 1844 C 177.178 -3.47483 3.89939 0
M  V30 1845 H 178.872 -1.7757 2.41058 0
M  V30 1846 H 176.418 -0.852887 1.16025 0
M  V30 1847 H 178.371 -3.98263 1.3771 0
M  V30 1848 H 177.095 -3.24409 0.377708 0
M  V30 1849 H 175.754 -2.72959 2.44722 0
M  V30 1850 H 175.402 -4.8799 1.21961 0
M  V30 1851 H 175.102 -5.0731 2.96497 0
M  V30 1852 H 176.626 -5.67515 2.25297 0
M  V30 1853 H 178.04 -4.1598 3.94505 0
M  V30 1854 H 176.437 -3.79615 4.64771 0
M  V30 1855 H 177.507 -2.46341 4.17665 0
M  V30 1856 N 178.85 -1.27639 -0.924453 0
M  V30 1857 C 179.813 -1.10681 -2.00705 0
M  V30 1858 C 180.813 -0.0497823 -1.60723 0
M  V30 1859 O 182.003 -0.294654 -1.7169 0
M  V30 1860 C 179.135 -0.687164 -3.33902 0
M  V30 1861 H 180.328 -2.06817 -2.17179 0
M  V30 1862 H 177.881 -1.10473 -1.10569 0
M  V30 1863 H 178.616 0.275439 -3.23128 0
M  V30 1864 H 178.401 -1.45061 -3.6428 0
M  V30 1865 H 179.891 -0.590853 -4.13399 0
M  V30 1866 N 180.328 1.1314 -1.09713 0
M  V30 1867 C 181.556 1.88321 -0.856898 0
M  V30 1868 C 181.971 1.79276 0.592073 0
M  V30 1869 O 181.328 1.16142 1.40774 0
M  V30 1870 C 181.379 3.37812 -1.28706 0
M  V30 1871 O 181.1 3.46627 -2.67921 0
M  V30 1872 C 182.601 4.29952 -1.07964 0
M  V30 1873 H 179.821 0.596094 -0.308079 0
M  V30 1874 H 182.365 1.43205 -1.45988 0
M  V30 1875 H 180.52 3.805 -0.727912 0
M  V30 1876 H 180.934 4.39579 -2.8613 0
M  V30 1877 H 182.408 5.33159 -1.42986 0
M  V30 1878 H 182.885 4.39196 -0.0176577 0
M  V30 1879 H 183.491 3.93036 -1.62489 0
M  V30 1880 N 181.806 0.884767 1.30421 0
M  V30 1881 C 182.753 0.349642 2.28136 0
M  V30 1882 C 183.723 -0.560061 1.56373 0
M  V30 1883 O 184.908 -0.488524 1.8444 0
M  V30 1884 C 182.048 -0.42999 3.42411 0
M  V30 1885 C 181.161 0.508907 4.28992 0
M  V30 1886 C 180.296 -0.286301 5.30428 0
M  V30 1887 C 179.335 0.648079 6.08659 0
M  V30 1888 N 178.472 -0.111792 7.02011 0
M  V30 1889 H 183.312 1.18807 2.73293 0
M  V30 1890 H 180.849 0.597231 1.3443 0
M  V30 1891 H 182.807 -0.897923 4.07423 0
M  V30 1892 H 181.437 -1.23299 2.98324 0
M  V30 1893 H 180.489 1.09533 3.64289 0
M  V30 1894 H 181.801 1.22475 4.8353 0
M  V30 1895 H 180.955 -0.816098 6.01186 0
M  V30 1896 H 179.694 -1.03536 4.76583 0
M  V30 1897 H 178.699 1.18951 5.36778 0
M  V30 1898 H 179.924 1.39623 6.64592 0
M  V30 1899 H 177.87 -0.843395 6.50556 0
M  V30 1900 H 177.787 0.544429 7.54037 0
M  V30 1901 H 179.055 -0.622339 7.77012 0
M  V30 1902 N 183.284 -1.43765 0.645699 0
M  V30 1903 C 184.514 -2.05953 0.163318 0
M  V30 1904 C 184.922 -1.48432 -1.17322 0
M  V30 1905 O 184.265 -0.607295 -1.73371 0
M  V30 1906 C 184.327 -3.59499 -0.0103065 0
M  V30 1907 C 183.991 -4.39563 1.25035 0
M  V30 1908 C 184.988 -4.72108 2.17739 0
M  V30 1909 C 182.673 -4.79697 1.48983 0
M  V30 1910 C 184.667 -5.43688 3.3269 0
M  V30 1911 C 182.354 -5.51023 2.64229 0
M  V30 1912 C 183.352 -5.8294 3.55908 0
M  V30 1913 O 183.04 -6.5281 4.69142 0
M  V30 1914 H 182.772 -0.670798 0.0836986 0
M  V30 1915 H 185.326 -1.85384 0.884407 0
M  V30 1916 H 183.556 -3.78613 -0.78669 0
M  V30 1917 H 185.245 -4.03408 -0.449087 0
M  V30 1918 H 186.011 -4.41627 2.00476 0
M  V30 1919 H 181.89 -4.54266 0.785078 0
M  V30 1920 H 185.434 -5.68517 4.04269 0
M  V30 1921 H 181.331 -5.8092 2.81429 0
M  V30 1922 H 182.099 -6.71288 4.6831 0
M  V30 1923 N 184.763 -0.387143 -1.52771 0
M  V30 1924 C 185.695 0.484089 -2.2403 0
M  V30 1925 C 186.708 1.02849 -1.26198 0
M  V30 1926 O 187.897 0.931186 -1.52286 0
M  V30 1927 C 184.997 1.68337 -2.94136 0
M  V30 1928 C 184.17 1.26672 -4.18656 0
M  V30 1929 C 183.229 2.33045 -4.7178 0
M  V30 1930 O 182.255 1.94541 -5.34923 0
M  V30 1931 N 183.457 3.64929 -4.5145 0
M  V30 1932 H 186.222 -0.126404 -2.99433 0
M  V30 1933 H 183.783 -0.213392 -1.60488 0
M  V30 1934 H 185.775 2.39019 -3.26577 0
M  V30 1935 H 184.345 2.20025 -2.22053 0
M  V30 1936 H 183.565 0.388878 -3.92277 0
M  V30 1937 H 184.853 0.964964 -4.99566 0
M  V30 1938 H 184.251 3.98974 -4.01044 0
M  V30 1939 H 182.808 4.31651 -4.88386 0
M  V30 1940 N 186.241 1.57166 -0.116904 0
M  V30 1941 C 187.489 1.94737 0.540533 0
M  V30 1942 C 187.81 1.00096 1.67349 0
M  V30 1943 O 187.08 0.0568854 1.95817 0
M  V30 1944 H 185.66 0.718981 0.202669 0
M  V30 1945 H 188.322 1.94017 -0.185353 0
M  V30 1946 H 187.418 2.97719 0.936483 0
M  V30 1947 N 187.719 -0.156864 1.56817 0
M  V30 1948 C 188.949 -0.885031 1.86684 0
M  V30 1949 C 189.357 -1.75696 0.701954 0
M  V30 1950 O 188.7 -1.80569 -0.337732 0
M  V30 1951 C 188.762 -1.80092 3.11138 0
M  V30 1952 C 188.426 -1.10714 4.43386 0
M  V30 1953 C 189.423 -0.465714 5.1781 0
M  V30 1954 C 187.108 -1.09959 4.90117 0
M  V30 1955 C 189.102 0.174002 6.37162 0
M  V30 1956 C 186.789 -0.456055 6.09396 0
M  V30 1957 C 187.787 0.179622 6.82764 0
M  V30 1958 O 187.475 0.812975 7.99779 0
M  V30 1959 H 187.207 -0.261813 0.623242 0
M  V30 1960 H 189.761 -0.157383 2.04796 0
M  V30 1961 H 187.991 -2.56926 2.89009 0
M  V30 1962 H 189.68 -2.40018 3.27332 0
M  V30 1963 H 190.446 -0.463427 4.82781 0
M  V30 1964 H 186.325 -1.58378 4.3294 0
M  V30 1965 H 189.869 0.670765 6.94368 0
M  V30 1966 H 185.766 -0.455975 6.43888 0
M  V30 1967 H 186.534 0.71366 8.15383 0
M  V30 1968 N 189.197 -1.51736 -0.425897 0
M  V30 1969 C 190.474 -1.55519 -1.1863 0
M  V30 1970 C 190.854 -0.326219 -2.08564 0
M  V30 1971 O 190.202 0.688012 -2.17896 0
M  V30 1972 C 190.412 -2.87521 -1.9782 0
M  V30 1973 C 191.76 -3.39899 -2.54468 0
M  V30 1974 O 192.784 -2.89148 -2.08019 0
M  V30 1975 O 191.643 -4.2848 -3.39215 0
M  V30 1976 H 188.737 -0.625739 -0.540721 0
M  V30 1977 H 191.283 -1.64055 -0.434038 0
M  V30 1978 H 190.055 -3.68422 -1.31836 0
M  V30 1979 H 189.678 -2.822 -2.80088 0
M  V30 1980 N 190.675 0.682077 -1.42076 0
M  V30 1981 C 191.638 1.77756 -1.44691 0
M  V30 1982 C 192.638 1.5726 -0.335535 0
M  V30 1983 O 193.828 1.63686 -0.596037 0
M  V30 1984 C 190.96 3.16301 -1.27146 0
M  V30 1985 H 192.153 1.76826 -2.42224 0
M  V30 1986 H 189.706 0.891012 -1.28416 0
M  V30 1987 H 190.441 3.22862 -0.305075 0
M  V30 1988 H 190.226 3.32581 -2.07683 0
M  V30 1989 H 191.716 3.96241 -1.31843 0
M  V30 1990 N 192.153 1.28127 0.917671 0
M  V30 1991 C 193.101 1.11569 2.04096 0
M  V30 1992 C 194.095 0.0360242 1.69362 0
M  V30 1993 O 195.301 0.194501 1.78946 0
M  V30 1994 H 191.676 0.344097 0.668656 0
M  V30 1995 H 193.647 2.06711 2.15205 0
M  V30 1996 C 192.396 0.790197 3.38602 0
M  V30 1997 H 191.719 1.61293 3.6582 0
M  V30 1998 H 193.159 0.714271 4.1794 0
M  V30 1999 C 191.618 -0.505897 3.3308 0
M  V30 2000 O 192.148 -1.53736 3.71117 0
M  V30 2001 N 190.354 -0.505193 2.86175 0
M  V30 2002 H 189.901 0.334621 2.55417 0
M  V30 2003 H 189.859 -1.37243 2.82863 0
M  V30 2004 N 193.631 -1.12557 1.10312 0
M  V30 2005 C 194.879 -1.83675 0.843091 0
M  V30 2006 C 195.2 -1.84435 -0.633131 0
M  V30 2007 O 194.47 -1.30657 -1.45964 0
M  V30 2008 H 193.05 -0.680138 0.308904 0
M  V30 2009 H 195.712 -1.36301 1.39313 0
M  V30 2010 H 194.808 -2.87908 1.2048 0
M  V30 2011 N 195.109 -0.891671 -1.2995 0
M  V30 2012 C 196.059 -0.334811 -2.25528 0
M  V30 2013 C 197.043 0.540553 -1.51548 0
M  V30 2014 O 198.235 0.383882 -1.72787 0
M  V30 2015 C 195.364 0.44374 -3.4042 0
M  V30 2016 C 194.45 -0.44609 -4.21747 0
M  V30 2017 N 194.841 -1.54963 -4.81477 0
M  V30 2018 C 193.139 -0.242415 -4.45341 0
M  V30 2019 C 193.84 -2.10015 -5.42465 0
M  V30 2020 N 192.816 -1.39423 -5.25416 0
M  V30 2021 H 196.618 -1.17792 -2.69262 0
M  V30 2022 H 194.132 -0.741822 -1.44467 0
M  V30 2023 H 196.129 0.859362 -4.07947 0
M  V30 2024 H 194.789 1.28421 -2.98225 0
M  V30 2025 H 195.8 -1.93244 -4.80497 0
M  V30 2026 H 192.477 0.560342 -4.13723 0
M  V30 2027 H 193.867 -3.02724 -5.9984 0
M  V30 2028 N 196.587 1.43421 -0.653314 0
M  V30 2029 C 197.817 2.05864 -0.174238 0
M  V30 2030 C 198.225 1.49052 1.16534 0
M  V30 2031 O 197.568 0.616481 1.73047 0
M  V30 2032 C 197.63 3.59499 -0.00875873 0
M  V30 2033 C 197.294 4.38893 -1.27364 0
M  V30 2034 C 198.291 4.70947 -2.20239 0
M  V30 2035 C 195.976 4.789 -1.51525 0
M  V30 2036 C 197.97 5.41916 -3.35568 0
M  V30 2037 C 195.657 5.49614 -2.67147 0
M  V30 2038 C 196.655 5.81044 -3.58994 0
M  V30 2039 O 196.343 6.50313 -4.72597 0
M  V30 2040 H 196.075 0.670345 -0.0872549 0
M  V30 2041 H 198.629 1.84913 -0.894226 0
M  V30 2042 H 196.859 3.79025 0.7666 0
M  V30 2043 H 198.548 4.0364 0.427687 0
M  V30 2044 H 199.314 4.40558 -2.02815 0
M  V30 2045 H 195.193 4.53843 -0.809158 0
M  V30 2046 H 198.737 5.66365 -4.07279 0
M  V30 2047 H 194.634 5.79419 -2.84505 0
M  V30 2048 H 195.402 6.68795 -4.71864 0
M  V30 2049 N 198.065 0.39524 1.52563 0
M  V30 2050 C 199.013 -0.451859 2.28169 0
M  V30 2051 C 200.007 -1.05792 1.32304 0
M  V30 2052 O 201.213 -0.997718 1.49818 0
M  V30 2053 H 197.588 -0.164481 0.733792 0
M  V30 2054 H 199.559 0.207199 2.9768 0
M  V30 2055 C 198.308 -1.56385 3.10546 0
M  V30 2056 H 197.631 -1.10682 3.84174 0
M  V30 2057 H 199.071 -2.13067 3.66577 0
M  V30 2058 C 197.53 -2.52328 2.23231 0
M  V30 2059 O 198.06 -3.5588 1.86312 0
M  V30 2060 N 196.266 -2.22209 1.87274 0
M  V30 2061 H 195.813 -1.38033 2.17496 0
M  V30 2062 H 195.771 -2.86652 1.29143 0
M  V30 2063 N 199.544 -1.57102 0.125237 0
M  V30 2064 C 200.491 -2.15641 -0.822655 0
M  V30 2065 C 201.461 -1.08313 -1.25927 0
M  V30 2066 O 202.646 -1.36251 -1.33567 0
M  V30 2067 C 199.786 -2.76504 -2.06494 0
M  V30 2068 C 198.899 -3.98158 -1.67612 0
M  V30 2069 C 198.034 -4.47088 -2.86854 0
M  V30 2070 C 197.073 -5.6126 -2.44242 0
M  V30 2071 N 196.21 -6.04905 -3.56419 0
M  V30 2072 H 201.05 -2.96313 -0.316625 0
M  V30 2073 H 198.587 -1.46388 -0.144588 0
M  V30 2074 H 200.545 -3.09925 -2.79289 0
M  V30 2075 H 199.175 -1.98512 -2.54545 0
M  V30 2076 H 198.227 -3.70858 -0.846661 0
M  V30 2077 H 199.539 -4.80934 -1.32301 0
M  V30 2078 H 198.693 -4.82451 -3.67867 0
M  V30 2079 H 197.432 -3.63275 -3.25396 0
M  V30 2080 H 196.437 -5.25495 -1.61663 0
M  V30 2081 H 197.662 -6.46843 -2.0681 0
M  V30 2082 H 195.608 -5.24032 -3.94623 0
M  V30 2083 H 195.525 -6.82552 -3.25051 0
M  V30 2084 H 196.793 -6.44907 -4.37853 0
M  V30 2085 N 201.022 0.148545 -1.56898 0
M  V30 2086 C 202.268 0.862694 -1.83536 0
M  V30 2087 C 202.601 1.80889 -0.706604 0
M  V30 2088 O 201.876 1.92328 0.289885 0
M  V30 2089 C 202.159 1.63853 -3.20662 0
M  V30 2090 C 202.012 0.713925 -4.44098 0
M  V30 2091 C 203.331 2.60133 -3.54991 0
M  V30 2092 H 200.45 0.312179 -0.667618 0
M  V30 2093 H 203.092 0.127953 -1.89569 0
M  V30 2094 H 201.242 2.26489 -3.1565 0
M  V30 2095 H 202.914 0.098686 -4.61194 0
M  V30 2096 H 201.157 0.0234019 -4.33794 0
M  V30 2097 H 201.828 1.29278 -5.36648 0
M  V30 2098 H 204.304 2.07616 -3.60603 0
M  V30 2099 H 203.18 3.11468 -4.51972 0
M  V30 2100 H 203.441 3.41417 -2.80868 0
M  V30 2101 N 202.5 1.5196 0.417844 0
M  V30 2102 C 203.45 1.7106 1.5074 0
M  V30 2103 C 204.434 0.564487 1.50673 0
M  V30 2104 O 205.626 0.821206 1.56797 0
M  V30 2105 C 202.755 1.85677 2.88754 0
M  V30 2106 C 201.841 3.06133 2.93502 0
M  V30 2107 N 202.232 4.28987 2.67962 0
M  V30 2108 C 200.53 3.05787 3.24669 0
M  V30 2109 C 201.231 5.10395 2.79055 0
M  V30 2110 N 200.207 4.45455 3.11561 0
M  V30 2111 H 204.009 2.63696 1.29775 0
M  V30 2112 H 201.523 1.49873 0.625436 0
M  V30 2113 H 203.52 1.97475 3.67164 0
M  V30 2114 H 202.18 0.942348 3.10725 0
M  V30 2115 H 203.191 4.57607 2.4252 0
M  V30 2116 H 199.868 2.2405 3.52289 0
M  V30 2117 H 201.258 6.18247 2.63097 0
M  V30 2118 N 203.978 -0.674533 1.42435 0
M  V30 2119 C 204.888 -1.81751 1.48337 0
M  V30 2120 C 205.904 -1.69975 0.372099 0
M  V30 2121 O 207.08 -1.91521 0.62304 0
M  V30 2122 C 204.145 -3.17895 1.38361 0
M  V30 2123 C 203.206 -3.41625 2.59982 0
M  V30 2124 C 202.439 -4.71274 2.50473 0
M  V30 2125 O 202.662 -5.49197 1.54075 0
M  V30 2126 O 201.596 -4.96254 3.4061 0
M  V30 2127 H 205.422 -1.79728 2.44809 0
M  V30 2128 H 203.007 -0.830312 1.24202 0
M  V30 2129 H 204.889 -3.99136 1.35161 0
M  V30 2130 H 203.564 -3.20555 0.450144 0
M  V30 2131 H 202.471 -2.60231 2.68757 0
M  V30 2132 H 203.804 -3.43796 3.52229 0
M  V30 2133 N 205.456 -1.28612 -0.910864 0
M  V30 2134 C 206.733 -1.06632 -1.63979 0
M  V30 2135 C 207.113 0.393351 -2.07403 0
M  V30 2136 O 206.461 1.37999 -1.82122 0
M  V30 2137 C 206.671 -2.0436 -2.8291 0
M  V30 2138 C 208.019 -2.34666 -3.5386 0
M  V30 2139 O 209.043 -2.02467 -2.93062 0
M  V30 2140 O 207.902 -2.89631 -4.63439 0
M  V30 2141 H 204.996 -0.407737 -0.7195 0
M  V30 2142 H 207.542 -1.39942 -0.959914 0
M  V30 2143 H 206.314 -3.02727 -2.47936 0
M  V30 2144 H 205.937 -1.71714 -3.58609 0
M  V30 2145 N 206.934 1.1197 -1.10907 0
M  V30 2146 C 207.864 2.19928 -0.784473 0
M  V30 2147 C 208.845 1.6833 0.244726 0
M  V30 2148 O 210.03 1.93892 0.109418 0
M  V30 2149 C 207.16 3.46597 -0.220827 0
M  V30 2150 C 206.114 4.11376 -1.18127 0
M  V30 2151 C 205.44 5.32554 -0.478594 0
M  V30 2152 C 206.74 4.56945 -2.52979 0
M  V30 2153 H 208.434 2.47337 -1.68715 0
M  V30 2154 H 205.98 1.18879 -0.812642 0
M  V30 2155 H 207.933 4.21396 0.0184278 0
M  V30 2156 H 206.657 3.1863 0.717113 0
M  V30 2157 H 205.316 3.38564 -1.40606 0
M  V30 2158 H 204.964 5.00856 0.463976 0
M  V30 2159 H 204.664 5.76844 -1.11912 0
M  V30 2160 H 206.188 6.10096 -0.248 0
M  V30 2161 H 207.602 5.23093 -2.3462 0
M  V30 2162 H 205.999 5.1203 -3.12962 0
M  V30 2163 H 207.069 3.70676 -3.12614 0
M  V30 2164 N 208.412 0.89855 1.29475 0
M  V30 2165 C 209.345 0.319981 2.25945 0
M  V30 2166 C 210.323 -0.567189 1.52387 0
M  V30 2167 O 211.507 -0.514254 1.8135 0
M  V30 2168 C 208.634 -0.544013 3.34303 0
M  V30 2169 C 207.68 0.275682 4.25608 0
M  V30 2170 S 208.513 1.67272 5.08704 0
M  V30 2171 C 209.669 0.815621 6.20563 0
M  V30 2172 H 209.902 1.13767 2.74671 0
M  V30 2173 H 207.435 0.69882 1.3768 0
M  V30 2174 H 209.393 -1.03673 3.97193 0
M  V30 2175 H 208.054 -1.33593 2.84274 0
M  V30 2176 H 207.247 -0.384263 5.02533 0
M  V30 2177 H 206.849 0.701496 3.67362 0
M  V30 2178 H 209.141 0.0385042 6.77489 0
M  V30 2179 H 210.084 1.55691 6.90772 0
M  V30 2180 H 210.492 0.370516 5.63283 0
M  V30 2181 N 209.89 -1.43072 0.660911 0
M  V30 2182 C 210.82 -2.33497 -0.0122829 0
M  V30 2183 C 211.801 -1.49903 -0.803925 0
M  V30 2184 O 212.986 -1.78546 -0.763864 0
M  V30 2185 C 210.116 -3.33363 -0.973994 0
M  V30 2186 C 209.07 -4.27003 -0.291928 0
M  V30 2187 C 208.396 -5.16967 -1.36562 0
M  V30 2188 C 209.696 -5.15816 0.820462 0
M  V30 2189 H 211.39 -2.90038 0.742873 0
M  V30 2190 H 208.936 -1.39461 0.358688 0
M  V30 2191 H 210.889 -3.95524 -1.45392 0
M  V30 2192 H 209.613 -2.75095 -1.7604 0
M  V30 2193 H 208.272 -3.66217 0.167623 0
M  V30 2194 H 207.92 -4.55034 -2.14366 0
M  V30 2195 H 207.62 -5.80441 -0.914454 0
M  V30 2196 H 209.144 -5.82003 -1.84675 0
M  V30 2197 H 210.558 -5.71742 0.422366 0
M  V30 2198 H 208.955 -5.8805 1.19656 0
M  V30 2199 H 210.025 -4.55045 1.67518 0
M  V30 2200 N 211.368 -0.403325 -1.52352 0
M  V30 2201 C 212.779 0.0675782 -1.86578 0
M  V30 2202 C 213.13 1.44941 -1.32236 0
M  V30 2203 O 212.255 2.06112 -0.659307 0
M  V30 2204 C 212.85 0.129404 -3.38553 0
M  V30 2205 C 211.409 0.544629 -3.72439 0
M  V30 2206 C 210.556 -0.284551 -2.75836 0
M  V30 2207 H 213.507 -0.620631 -1.46061 0
M  V30 2208 H 213.528 0.94581 -3.68558 0
M  V30 2209 H 213.04 -0.87645 -3.78074 0
M  V30 2210 H 211.141 1.55734 -3.38493 0
M  V30 2211 H 211.254 0.293046 -4.78203 0
M  V30 2212 H 209.618 0.252258 -2.53448 0
M  V30 2213 H 210.401 -1.28865 -3.18196 0
M  V30 2214 N 212.846 1.57033 -0.133567 0
M  V30 2215 C 214.093 1.95686 0.520877 0
M  V30 2216 C 214.421 1.0177 1.6575 0
M  V30 2217 O 213.676 0.0443195 1.9565 0
M  V30 2218 C 213.975 3.40674 1.08057 0
M  V30 2219 C 213.641 4.50855 0.0637899 0
M  V30 2220 C 212.303 4.80716 -0.215757 0
M  V30 2221 C 214.655 5.17398 -0.62835 0
M  V30 2222 C 211.983 5.74433 -1.19348 0
M  V30 2223 C 214.335 6.12167 -1.5948 0
M  V30 2224 C 212.999 6.40414 -1.88218 0
M  V30 2225 H 212.269 0.716067 0.190602 0
M  V30 2226 H 214.916 1.9026 -0.217556 0
M  V30 2227 H 213.221 3.42865 1.89606 0
M  V30 2228 H 214.918 3.67902 1.59529 0
M  V30 2229 H 211.508 4.27605 0.291855 0
M  V30 2230 H 215.692 4.94472 -0.425562 0
M  V30 2231 H 210.948 5.94616 -1.42272 0
M  V30 2232 H 215.122 6.6281 -2.13671 0
M  V30 2233 H 212.749 7.12838 -2.64133 0
M  V30 2234 N 214.325 -0.140222 1.56975 0
M  V30 2235 C 215.602 -0.880769 1.74648 0
M  V30 2236 C 215.982 -1.99036 0.703404 0
M  V30 2237 O 215.33 -2.26821 -0.27648 0
M  V30 2238 C 215.54 -1.417 3.18939 0
M  V30 2239 C 216.888 -1.87774 3.80823 0
M  V30 2240 O 217.912 -1.51427 3.2241 0
M  V30 2241 O 216.771 -2.54827 4.83452 0
M  V30 2242 H 213.865 -0.416713 0.714338 0
M  V30 2243 H 216.411 -0.125618 1.69234 0
M  V30 2244 H 215.183 -0.619902 3.86359 0
M  V30 2245 H 214.806 -2.23546 3.28805 0
M  V30 2246 N 215.803 -1.52179 -0.40978 0
M  V30 2247 C 216.713 -1.78364 -1.52392 0
M  V30 2248 C 217.729 -0.669183 -1.60617 0
M  V30 2249 O 218.905 -0.954518 -1.77344 0
M  V30 2250 C 215.97 -1.92822 -2.88133 0
M  V30 2251 C 215.031 -3.16725 -2.898 0
M  V30 2252 C 214.264 -3.30483 -4.19067 0
M  V30 2253 O 214.487 -2.49522 -5.12928 0
M  V30 2254 O 213.421 -4.2363 -4.27576 0
M  V30 2255 H 217.247 -2.72931 -1.33201 0
M  V30 2256 H 214.832 -1.37016 -0.59557 0
M  V30 2257 H 216.714 -2.04157 -3.68643 0
M  V30 2258 H 215.389 -1.01444 -3.07393 0
M  V30 2259 H 214.296 -3.10848 -2.08146 0
M  V30 2260 H 215.629 -4.07881 -2.75489 0
M  V30 2261 N 217.281 0.66697 -1.42791 0
M  V30 2262 C 218.528 1.42699 -1.43678 0
M  V30 2263 C 218.856 1.94419 -0.0560425 0
M  V30 2264 O 218.111 1.7182 0.936831 0
M  V30 2265 C 218.41 2.6349 -2.4147 0
M  V30 2266 C 218.076 2.30267 -3.8767 0
M  V30 2267 C 216.738 2.20918 -4.27491 0
M  V30 2268 C 219.09 2.03435 -4.79858 0
M  V30 2269 C 216.418 1.82873 -5.57471 0
M  V30 2270 C 218.77 1.66892 -6.10188 0
M  V30 2271 C 217.434 1.56058 -6.49001 0
M  V30 2272 H 216.704 0.522171 -0.525755 0
M  V30 2273 H 219.351 0.759785 -1.75783 0
M  V30 2274 H 217.656 3.35279 -2.0272 0
M  V30 2275 H 219.353 3.21684 -2.39417 0
M  V30 2276 H 215.943 2.38449 -3.56146 0
M  V30 2277 H 220.127 2.09586 -4.49875 0
M  V30 2278 H 215.383 1.7306 -5.86396 0
M  V30 2279 H 219.557 1.45157 -6.81104 0
M  V30 2280 H 217.184 1.26348 -7.49627 0
M  V30 2281 N 218.759 1.29093 0.90403 0
M  V30 2282 C 219.689 1.16401 2.02418 0
M  V30 2283 C 220.67 0.0593085 1.69997 0
M  V30 2284 O 221.855 0.238021 1.92736 0
M  V30 2285 C 218.985 0.835233 3.37107 0
M  V30 2286 C 217.939 1.89578 3.83724 0
M  V30 2287 C 217.265 1.42041 5.15489 0
M  V30 2288 C 218.565 3.30394 4.04521 0
M  V30 2289 H 220.259 2.10109 2.13295 0
M  V30 2290 H 217.805 1.01157 1.02486 0
M  V30 2291 H 219.758 0.733169 4.14973 0
M  V30 2292 H 218.482 -0.137543 3.2631 0
M  V30 2293 H 217.141 1.98715 3.08071 0
M  V30 2294 H 216.789 0.436426 5.01103 0
M  V30 2295 H 216.489 2.12964 5.4765 0
M  V30 2296 H 218.013 1.33176 5.959 0
M  V30 2297 H 219.427 3.24123 4.72882 0
M  V30 2298 H 217.824 3.99237 4.48029 0
M  V30 2299 H 218.894 3.73692 3.09002 0
M  V30 2300 N 220.237 -1.11381 1.11499 0
M  V30 2301 C 221.2 -2.15622 0.777153 0
M  V30 2302 C 222.2 -1.59504 -0.203779 0
M  V30 2303 O 223.39 -1.74188 0.020782 0
M  V30 2304 C 220.522 -3.40556 0.153116 0
M  V30 2305 H 221.715 -2.47021 1.70061 0
M  V30 2306 H 219.268 -1.26577 0.916952 0
M  V30 2307 H 220.003 -3.14767 -0.780536 0
M  V30 2308 H 219.788 -3.8257 0.859238 0
M  V30 2309 H 221.278 -4.17546 -0.0671044 0
M  V30 2310 N 221.715 -0.905404 -1.28997 0
M  V30 2311 C 222.645 -0.404212 -2.29975 0
M  V30 2312 C 223.626 0.523784 -1.61835 0
M  V30 2313 O 224.811 0.433298 -1.89304 0
M  V30 2314 C 221.941 0.364042 -3.45387 0
M  V30 2315 C 220.895 -0.474048 -4.25367 0
M  V30 2316 C 220.221 0.422045 -5.33032 0
M  V30 2317 C 221.521 -1.72696 -4.92923 0
M  V30 2318 H 223.215 -1.24807 -2.72146 0
M  V30 2319 H 220.761 -0.601585 -1.30832 0
M  V30 2320 H 222.714 0.725447 -4.15109 0
M  V30 2321 H 221.438 1.24174 -3.02074 0
M  V30 2322 H 220.097 -0.81786 -3.57361 0
M  V30 2323 H 219.745 1.29804 -4.85963 0
M  V30 2324 H 219.445 -0.135057 -5.87445 0
M  V30 2325 H 220.969 0.779517 -6.05604 0
M  V30 2326 H 222.383 -1.43495 -5.55051 0
M  V30 2327 H 220.78 -2.22582 -5.57295 0
M  V30 2328 H 221.85 -2.45964 -4.17887 0
M  V30 2329 N 223.193 1.4272 -0.668489 0
M  V30 2330 C 224.141 2.32586 0.0254857 0
M  V30 2331 C 225.135 1.49471 0.797176 0
M  V30 2332 O 226.341 1.65583 0.705853 0
M  V30 2333 H 222.716 0.751514 0.0270339 0
M  V30 2334 H 224.687 2.88823 -0.749936 0
M  V30 2335 C 223.436 3.3397 0.967427 0
M  V30 2336 H 222.759 3.97961 0.383048 0
M  V30 2337 H 224.199 3.9945 1.42181 0
M  V30 2338 C 222.658 2.65744 2.0708 0
M  V30 2339 O 223.188 2.48454 3.15648 0
M  V30 2340 N 221.394 2.2487 1.8407 0
M  V30 2341 H 220.941 2.39132 0.95778 0
M  V30 2342 H 220.899 1.79552 2.58086 0
M  V30 2343 N 224.671 0.411399 1.52136 0
M  V30 2344 C 225.919 -0.163322 2.01439 0
M  V30 2345 C 226.24 -1.45453 1.29879 0
M  V30 2346 O 225.51 -1.91225 0.4254 0
M  V30 2347 H 224.09 -0.0633447 0.744309 0
M  V30 2348 H 226.752 0.548161 1.87033 0
M  V30 2349 H 225.848 -0.357817 3.10042 0
M  V30 2350 N 226.149 -1.5696 0.141893 0
M  V30 2351 C 227.389 -1.9785 -0.513304 0
M  V30 2352 C 227.753 -1.02467 -1.62371 0
M  V30 2353 O 228.954 -1.32382 -2.33941 0
M  V30 2354 C 227.225 -3.42797 -1.01118 0
M  V30 2355 S 228.784 -4.05709 -1.67169 0
M  V30 2356 H 225.602 -0.691318 -0.166135 0
M  V30 2357 H 228.204 -1.94114 0.232398 0
M  V30 2358 H 226.908 -4.0995 -0.192179 0
M  V30 2359 H 226.439 -3.50235 -1.79162 0
M  V30 2360 H 228.454 -3.98342 -2.95868 0
M  V30 2361 N 227.627 0.131896 -1.57047 0
M  V30 2362 C 228.537 1.1815 -2.02676 0
M  V30 2363 C 229.553 1.46113 -0.944824 0
M  V30 2364 O 230.729 1.57485 -1.25541 0
M  V30 2365 C 227.794 2.49139 -2.41103 0
M  V30 2366 C 226.855 2.28688 -3.63318 0
M  V30 2367 C 226.088 3.53431 -3.99903 0
M  V30 2368 O 226.311 4.60223 -3.36973 0
M  V30 2369 O 225.245 3.45198 -4.93074 0
M  V30 2370 H 229.071 0.824069 -2.92306 0
M  V30 2371 H 226.656 0.341745 -1.45439 0
M  V30 2372 H 228.538 3.26338 -2.66611 0
M  V30 2373 H 227.213 2.84382 -1.54624 0
M  V30 2374 H 226.12 1.4939 -3.42977 0
M  V30 2375 H 227.453 1.98355 -4.50462 0
M  V30 2376 N 229.106 1.52395 0.401703 0
M  V30 2377 C 230.069 1.75636 1.47257 0
M  V30 2378 C 231.069 0.62628 1.48103 0
M  V30 2379 O 232.259 0.894227 1.49497 0
M  V30 2380 C 229.391 1.84553 2.86624 0
M  V30 2381 H 230.584 2.71241 1.27938 0
M  V30 2382 H 228.137 1.42923 0.632662 0
M  V30 2383 H 228.872 0.908882 3.11303 0
M  V30 2384 H 228.657 2.66715 2.87412 0
M  V30 2385 H 230.147 2.04251 3.64241 0
M  V30 2386 N 230.584 -0.659388 1.43143 0
M  V30 2387 C 231.547 -1.75432 1.47501 0
M  V30 2388 C 232.547 -1.56707 0.360512 0
M  V30 2389 O 233.737 -1.62717 0.622002 0
M  V30 2390 C 230.869 -3.14239 1.32162 0
M  V30 2391 H 232.062 -1.7295 2.45006 0
M  V30 2392 H 229.615 -0.870469 1.29817 0
M  V30 2393 H 230.35 -3.22336 0.356401 0
M  V30 2394 H 230.135 -3.29235 2.12948 0
M  V30 2395 H 231.625 -3.94094 1.3813 0
M  V30 2396 N 232.062 -1.29571 -0.897171 0
M  V30 2397 C 233.478 -1.07637 -1.17841 0
M  V30 2398 C 233.678 0.170713 -2.00776 0
M  V30 2399 O 232.734 0.867768 -2.3712 0
M  V30 2400 C 234.047 -2.3332 -1.8969 0
M  V30 2401 C 235.595 -2.38664 -2.02505 0
M  V30 2402 C 236.07 -3.64157 -2.77765 0
M  V30 2403 N 237.561 -3.64894 -2.85318 0
M  V30 2404 C 238.296 -4.58679 -3.44094 0
M  V30 2405 N 237.792 -5.62799 -4.04017 0
M  V30 2406 N 239.585 -4.46245 -3.41793 0
M  V30 2407 H 231.736 -2.09598 -0.343883 0
M  V30 2408 H 233.999 -0.923333 -0.214848 0
M  V30 2409 H 233.705 -3.24262 -1.36187 0
M  V30 2410 H 233.579 -2.41025 -2.9015 0
M  V30 2411 H 235.966 -1.48208 -2.55183 0
M  V30 2412 H 236.047 -2.34943 -1.01171 0
M  V30 2413 H 235.691 -4.54965 -2.25763 0
M  V30 2414 H 235.621 -3.65137 -3.7945 0
M  V30 2415 H 238.112 -2.89613 -2.42761 0
M  V30 2416 H 238.425 -6.3048 -4.46895 0
M  V30 2417 H 236.77 -5.66605 -4.02472 0
M  V30 2418 H 239.961 -3.64094 -2.94199 0
M  V30 2419 H 240.134 -5.19518 -3.87304 0
M  V30 2420 N 233.54 1.10788 -1.12088 0
M  V30 2421 C 234.817 1.79136 -0.785476 0
M  V30 2422 C 235.197 1.98246 0.725377 0
M  V30 2423 O 234.545 1.57258 1.65778 0
M  V30 2424 C 234.755 3.12375 -1.55636 0
M  V30 2425 C 236.103 3.8731 -1.74001 0
M  V30 2426 O 237.127 3.22085 -1.52117 0
M  V30 2427 O 235.986 5.04369 -2.10415 0
M  V30 2428 H 233.08 0.776226 -0.285311 0
M  V30 2429 H 235.626 1.1747 -1.2247 0
M  V30 2430 H 234.398 2.93863 -2.5838 0
M  V30 2431 H 234.021 3.81758 -1.11114 0
M  V30 2432 N 235.018 0.912232 1.28515 0
M  V30 2433 C 235.948 0.416403 2.29757 0
M  V30 2434 C 236.929 -0.515194 1.6211 0
M  V30 2435 O 238.114 -0.423253 1.89532 0
M  V30 2436 C 235.244 -0.34572 3.45575 0
M  V30 2437 C 234.198 0.496599 4.25109 0
M  V30 2438 C 233.524 -0.393771 5.33248 0
M  V30 2439 C 234.824 1.75307 4.92001 0
M  V30 2440 H 236.518 1.26249 2.7148 0
M  V30 2441 H 234.064 0.608515 1.30511 0
M  V30 2442 H 236.017 -0.703422 4.15488 0
M  V30 2443 H 234.741 -1.2257 3.02728 0
M  V30 2444 H 233.4 0.8368 3.56922 0
M  V30 2445 H 233.048 -1.27225 4.86644 0
M  V30 2446 H 232.748 0.166209 5.87365 0
M  V30 2447 H 234.272 -0.747389 6.06009 0
M  V30 2448 H 235.686 1.46437 5.54283 0
M  V30 2449 H 234.083 2.25534 5.56106 0
M  V30 2450 H 235.153 2.48176 4.16577 0
M  V30 2451 N 236.496 -1.42363 0.676048 0
M  V30 2452 C 237.742 -2.02336 0.207809 0
M  V30 2453 C 238.097 -1.52506 -1.17302 0
M  V30 2454 O 237.39 -0.718048 -1.77636 0
M  V30 2455 C 237.584 -3.56929 0.183431 0
M  V30 2456 C 237.413 -4.21762 1.56036 0
M  V30 2457 C 236.183 -4.56881 2.15842 0
M  V30 2458 C 238.381 -4.49267 2.50327 0
M  V30 2459 N 236.363 -5.069 3.46303 0
M  V30 2460 C 237.734 -5.00851 3.65443 0
M  V30 2461 C 239.789 -4.31257 2.48841 0
M  V30 2462 C 238.492 -5.36317 4.79329 0
M  V30 2463 C 240.518 -4.678 3.61824 0
M  V30 2464 C 239.88 -5.19537 4.75668 0
M  V30 2465 H 235.979 -0.772583 0.120993 0
M  V30 2466 H 238.563 -1.73203 0.889306 0
M  V30 2467 H 236.734 -3.85576 -0.467483 0
M  V30 2468 H 238.466 -4.03603 -0.297808 0
M  V30 2469 H 235.221 -4.4268 1.68319 0
M  V30 2470 H 235.645 -5.36338 4.13123 0
M  V30 2471 H 240.287 -3.90511 1.62051 0
M  V30 2472 H 238.005 -5.75995 5.66794 0
M  V30 2473 H 241.591 -4.55541 3.61903 0
M  V30 2474 H 240.471 -5.47287 5.61646 0
M  V30 2475 N 237.974 -0.419461 -1.51915 0
M  V30 2476 C 239.223 0.154346 -2.01109 0
M  V30 2477 C 239.536 1.45338 -1.30905 0
M  V30 2478 O 240.742 2.10906 -1.7097 0
M  V30 2479 C 239.198 0.325615 -3.58424 0
M  V30 2480 C 238.806 -0.961934 -4.37551 0
M  V30 2481 C 240.55 0.854155 -4.15818 0
M  V30 2482 C 238.457 -0.757287 -5.86531 0
M  V30 2483 H 237.387 0.0614563 -0.751491 0
M  V30 2484 H 240.038 -0.54649 -1.75173 0
M  V30 2485 H 238.42 1.08903 -3.80731 0
M  V30 2486 H 239.594 -1.7323 -4.26999 0
M  V30 2487 H 237.909 -1.41766 -3.91524 0
M  V30 2488 H 240.506 1.02346 -5.24814 0
M  V30 2489 H 240.849 1.83172 -3.73837 0
M  V30 2490 H 241.382 0.149528 -3.97519 0
M  V30 2491 H 238.121 -1.70671 -6.32892 0
M  V30 2492 H 237.641 -0.0264061 -5.99794 0
M  V30 2493 H 239.32 -0.403482 -6.45741 0
M  V30 2494 N 239.452 1.56882 -0.150215 0
M  V30 2495 C 240.4 2.18214 0.805313 0
M  V30 2496 C 241.394 1.14006 1.25296 0
M  V30 2497 O 242.6 1.3225 1.22107 0
M  V30 2498 H 238.975 0.698762 0.277913 0
M  V30 2499 H 240.946 2.97231 0.263862 0
M  V30 2500 C 239.695 2.82065 2.03309 0
M  V30 2501 H 239.018 3.61968 1.69763 0
M  V30 2502 H 240.458 3.28477 2.68103 0
M  V30 2503 C 238.917 1.80739 2.84315 0
M  V30 2504 O 239.447 1.27983 3.80767 0
M  V30 2505 N 237.653 1.4997 2.48913 0
M  V30 2506 H 237.2 1.93062 1.70542 0
M  V30 2507 H 237.158 0.824217 3.03404 0
M  V30 2508 N 240.93 -0.123565 1.57115 0
M  V30 2509 C 242.341 -0.681198 1.73829 0
M  V30 2510 C 242.692 -1.80535 0.768214 0
M  V30 2511 O 241.817 -2.16317 -0.0599103 0
M  V30 2512 C 242.412 -1.24246 3.15196 0
M  V30 2513 C 240.971 -1.74643 3.33432 0
M  V30 2514 C 240.118 -0.644284 2.69711 0
M  V30 2515 H 243.069 0.102315 1.5837 0
M  V30 2516 H 243.09 -2.11216 3.16493 0
M  V30 2517 H 242.602 -0.424062 3.85776 0
M  V30 2518 H 240.703 -2.58974 2.67886 0
M  V30 2519 H 240.816 -1.85902 4.41562 0
M  V30 2520 H 239.18 -1.07676 2.3082 0
M  V30 2521 H 239.963 0.163058 3.42913 0
M  V30 2522 N 242.408 -1.52605 -0.393616 0
M  V30 2523 C 243.655 -1.67424 -1.1391 0
M  V30 2524 C 243.983 -0.411859 -1.90089 0
M  V30 2525 O 243.238 0.605626 -1.86093 0
M  V30 2526 C 243.537 -2.85721 -2.14705 0
M  V30 2527 C 243.203 -4.23342 -1.55218 0
M  V30 2528 C 241.865 -4.60771 -1.3872 0
M  V30 2529 C 244.217 -5.09041 -1.11924 0
M  V30 2530 C 241.545 -5.81563 -0.774689 0
M  V30 2531 C 243.897 -6.30452 -0.520853 0
M  V30 2532 C 242.561 -6.66617 -0.343134 0
M  V30 2533 H 241.831 -0.612648 -0.416826 0
M  V30 2534 H 244.478 -1.8674 -0.424315 0
M  V30 2535 H 242.783 -2.60803 -2.92385 0
M  V30 2536 H 244.48 -2.94382 -2.72288 0
M  V30 2537 H 241.07 -3.93855 -1.69045 0
M  V30 2538 H 245.254 -4.80695 -1.23473 0
M  V30 2539 H 240.51 -6.08196 -0.625154 0
M  V30 2540 H 244.684 -6.96175 -0.177065 0
M  V30 2541 H 242.311 -7.60083 0.133571 0
M  V30 2542 N 243.887 0.651787 -1.4349 0
M  V30 2543 C 245.115 1.43937 -1.48626 0
M  V30 2544 C 245.53 1.8851 -0.104587 0
M  V30 2545 O 244.887 1.5958 0.885464 0
M  V30 2546 C 244.938 2.6734 -2.43334 0
M  V30 2547 O 244.659 2.24631 -3.76128 0
M  V30 2548 C 246.16 3.60683 -2.57726 0
M  V30 2549 H 243.38 0.44213 -0.504739 0
M  V30 2550 H 245.924 0.798944 -1.88248 0
M  V30 2551 H 244.079 3.2752 -2.06904 0
M  V30 2552 H 244.493 3.04485 -4.2707 0
M  V30 2553 H 245.967 4.43933 -3.28067 0
M  V30 2554 H 246.444 4.08126 -1.62265 0
M  V30 2555 H 247.05 3.06384 -2.94973 0
M  V30 2556 N 245.365 1.30045 0.890287 0
M  V30 2557 C 246.328 1.15963 1.977 0
M  V30 2558 C 247.328 0.0923777 1.60534 0
M  V30 2559 O 248.518 0.340071 1.70848 0
M  V30 2560 C 245.65 0.775451 3.31963 0
M  V30 2561 H 246.843 2.12502 2.11619 0
M  V30 2562 H 244.396 1.13366 1.07601 0
M  V30 2563 H 245.131 -0.189671 3.23745 0
M  V30 2564 H 244.916 1.54668 3.60306 0
M  V30 2565 H 246.406 0.700251 4.11687 0
M  V30 2566 N 246.843 -1.10192 1.12674 0
M  V30 2567 C 248.09 -1.82205 0.883606 0
M  V30 2568 C 248.418 -1.8532 -0.590492 0
M  V30 2569 O 247.673 -1.31137 -1.45264 0
M  V30 2570 C 247.972 -3.28552 1.4067 0
M  V30 2571 C 247.638 -3.45582 2.89627 0
M  V30 2572 C 246.3 -3.49937 3.30299 0
M  V30 2573 C 248.652 -3.50768 3.85501 0
M  V30 2574 C 245.98 -3.57049 4.65546 0
M  V30 2575 C 248.332 -3.59414 5.20581 0
M  V30 2576 C 246.996 -3.62034 5.60792 0
M  V30 2577 H 246.266 -0.666735 0.323334 0
M  V30 2578 H 248.913 -1.29868 1.40736 0
M  V30 2579 H 247.218 -3.83473 0.80347 0
M  V30 2580 H 248.915 -3.82788 1.19475 0
M  V30 2581 H 245.505 -3.42871 2.57172 0
M  V30 2582 H 249.689 -3.46651 3.55171 0
M  V30 2583 H 244.945 -3.57361 4.96088 0
M  V30 2584 H 249.119 -3.62371 5.94693 0
M  V30 2585 H 246.746 -3.67298 6.6558 0
M  V30 2586 N 248.321 -0.919034 -1.28029 0
M  V30 2587 C 249.569 -0.553838 -1.94363 0
M  V30 2588 C 249.89 0.906357 -1.72656 0
M  V30 2589 O 249.16 1.64143 -1.0693 0
M  V30 2590 H 247.74 -0.201834 -0.719216 0
M  V30 2591 H 250.402 -1.16954 -1.55909 0
M  V30 2592 H 249.498 -0.752758 -3.02886 0
M  V30 2593 N 249.799 1.42003 -0.683588 0
M  V30 2594 C 251.029 2.05448 -0.217866 0
M  V30 2595 C 251.437 1.51491 1.13346 0
M  V30 2596 O 250.78 0.653048 1.717 0
M  V30 2597 C 250.842 3.59399 -0.0850118 0
M  V30 2598 C 250.506 4.36093 -1.36645 0
M  V30 2599 C 251.503 4.66169 -2.30179 0
M  V30 2600 C 249.188 4.75578 -1.61649 0
M  V30 2601 C 251.182 5.34676 -3.46988 0
M  V30 2602 C 248.869 5.43824 -2.78745 0
M  V30 2603 C 249.867 5.73299 -3.71238 0
M  V30 2604 O 249.555 6.40142 -4.86285 0
M  V30 2605 H 249.287 0.668344 -0.101454 0
M  V30 2606 H 251.841 1.82974 -0.933248 0
M  V30 2607 H 250.071 3.80566 0.686031 0
M  V30 2608 H 251.76 4.04457 0.341973 0
M  V30 2609 H 252.526 4.36156 -2.12115 0
M  V30 2610 H 248.405 4.52025 -0.905243 0
M  V30 2611 H 251.949 5.57599 -4.19201 0
M  V30 2612 H 247.846 5.73254 -2.96732 0
M  V30 2613 H 248.614 6.58636 -4.85944 0
M  V30 2614 N 251.277 0.427512 1.51691 0
M  V30 2615 C 252.525 -0.141948 2.01601 0
M  V30 2616 C 252.846 -1.44067 1.31414 0
M  V30 2617 O 252.116 -1.90763 0.445658 0
M  V30 2618 H 250.696 -0.0554468 0.744939 0
M  V30 2619 H 253.358 0.567968 1.86441 0
M  V30 2620 H 252.454 -0.324913 3.10404 0
M  V30 2621 N 252.755 -1.56801 0.158532 0
M  V30 2622 C 253.705 -2.13923 -0.788738 0
M  V30 2623 C 254.689 -1.07006 -1.2016 0
M  V30 2624 O 255.881 -1.33159 -1.1661 0
M  V30 2625 C 253.01 -2.77348 -2.02319 0
M  V30 2626 C 252.096 -3.91404 -1.6329 0
M  V30 2627 N 252.487 -4.9677 -0.951463 0
M  V30 2628 C 250.785 -4.02326 -1.92482 0
M  V30 2629 C 251.486 -5.76698 -0.761221 0
M  V30 2630 N 250.462 -5.27859 -1.29869 0
M  V30 2631 H 254.264 -2.92757 -0.258995 0
M  V30 2632 H 251.778 -1.62344 -0.0426055 0
M  V30 2633 H 253.775 -3.16639 -2.71192 0
M  V30 2634 H 252.435 -1.99991 -2.558 0
M  V30 2635 H 253.446 -5.14284 -0.610928 0
M  V30 2636 H 250.123 -3.36059 -2.47732 0
M  V30 2637 H 251.513 -6.71529 -0.223284 0
M  V30 2638 N 254.233 0.115231 -1.57178 0
M  V30 2639 C 255.48 0.822351 -1.8505 0
M  V30 2640 C 255.808 1.79701 -0.744168 0
M  V30 2641 O 255.063 1.93909 0.26414 0
M  V30 2642 C 255.362 1.60324 -3.19423 0
M  V30 2643 C 255.028 0.772536 -4.44233 0
M  V30 2644 C 253.69 0.543468 -4.78121 0
M  V30 2645 C 256.042 0.193746 -5.2084 0
M  V30 2646 C 253.37 -0.274583 -5.86057 0
M  V30 2647 C 255.722 -0.611517 -6.29637 0
M  V30 2648 C 254.386 -0.850867 -6.62055 0
M  V30 2649 H 253.656 0.30092 -0.677147 0
M  V30 2650 H 256.303 0.0845802 -1.91313 0
M  V30 2651 H 254.608 2.41203 -3.08753 0
M  V30 2652 H 256.305 2.1544 -3.38211 0
M  V30 2653 H 252.895 0.96117 -4.17683 0
M  V30 2654 H 257.079 0.357926 -4.95008 0
M  V30 2655 H 252.335 -0.469206 -6.09597 0
M  V30 2656 H 256.509 -1.06697 -6.88178 0
M  V30 2657 H 254.136 -1.48657 -7.45523 0
M  V30 2658 N 255.711 1.52812 0.385517 0
M  V30 2659 C 256.988 1.5861 1.14465 0
M  V30 2660 C 257.368 0.381402 2.07626 0
M  V30 2661 O 256.716 -0.629999 2.19643 0
M  V30 2662 C 256.926 2.92664 1.90128 0
M  V30 2663 C 258.274 3.46526 2.45367 0
M  V30 2664 O 259.298 2.94562 2.0028 0
M  V30 2665 O 258.157 4.37323 3.27736 0
M  V30 2666 H 255.251 0.639855 0.523941 0
M  V30 2667 H 257.797 1.65149 0.390389 0
M  V30 2668 H 256.569 3.71788 1.22022 0
M  V30 2669 H 256.192 2.89527 2.72507 0
M  V30 2670 N 257.189 -0.644168 1.43834 0
M  V30 2671 C 258.137 -1.77793 1.49974 0
M  V30 2672 C 259.131 -1.65253 0.372536 0
M  V30 2673 O 260.337 -1.7149 0.546924 0
M  V30 2674 H 256.712 -0.58675 0.47035 0
M  V30 2675 H 258.683 -1.69736 2.45423 0
M  V30 2676 C 257.432 -3.16087 1.4486 0
M  V30 2677 H 256.755 -3.26378 2.30905 0
M  V30 2678 H 258.195 -3.95349 1.53217 0
M  V30 2679 C 256.654 -3.36484 0.167463 0
M  V30 2680 O 257.184 -3.94298 -0.767609 0
M  V30 2681 N 255.39 -2.90504 0.0747556 0
M  V30 2682 H 254.937 -2.4364 0.836507 0
M  V30 2683 H 254.895 -3.04527 -0.781714 0
M  V30 2684 N 258.668 -1.30515 -0.883378 0
M  V30 2685 C 259.914 -1.19607 -1.63774 0
M  V30 2686 C 260.247 0.248314 -1.92606 0
M  V30 2687 O 259.522 1.17742 -1.54813 0
M  V30 2688 C 259.805 -2.02669 -2.97653 0
M  V30 2689 C 259.658 -3.55335 -2.75784 0
M  V30 2690 C 260.977 -1.86573 -3.98596 0
M  V30 2691 H 258.096 -0.435856 -0.594305 0
M  V30 2692 H 260.738 -1.60165 -1.02212 0
M  V30 2693 H 258.888 -1.68208 -3.50197 0
M  V30 2694 H 260.56 -3.99863 -2.30016 0
M  V30 2695 H 258.803 -3.79438 -2.1026 0
M  V30 2696 H 259.474 -4.08745 -3.70988 0
M  V30 2697 H 261.95 -2.16703 -3.55217 0
M  V30 2698 H 260.826 -2.47014 -4.90179 0
M  V30 2699 H 261.087 -0.825321 -4.34328 0
M  V30 2700 N 260.146 1.09593 -1.13257 0
M  V30 2701 C 261.557 1.63229 -0.906274 0
M  V30 2702 C 261.908 1.8811 0.557578 0
M  V30 2703 O 261.033 1.62953 1.42391 0
M  V30 2704 C 261.628 2.96535 -1.63867 0
M  V30 2705 C 260.187 3.47003 -1.45828 0
M  V30 2706 C 259.334 2.2145 -1.66898 0
M  V30 2707 H 262.285 0.92978 -1.28611 0
M  V30 2708 H 262.306 3.64411 -1.09476 0
M  V30 2709 H 261.818 2.78394 -2.70404 0
M  V30 2710 H 259.919 3.70272 -0.415848 0
M  V30 2711 H 260.032 4.24551 -2.2202 0
M  V30 2712 H 258.396 2.30022 -1.09371 0
M  V30 2713 H 259.179 2.0583 -2.74752 0
M  V30 2714 N 261.624 0.925811 1.2754 0
M  V30 2715 C 262.587 0.428129 2.25166 0
M  V30 2716 C 263.587 -0.452261 1.54309 0
M  V30 2717 O 264.777 -0.253608 1.72344 0
M  V30 2718 C 261.909 -0.384749 3.38722 0
M  V30 2719 H 263.102 1.29066 2.70706 0
M  V30 2720 H 260.655 0.706323 1.3943 0
M  V30 2721 H 261.39 -1.26618 2.98561 0
M  V30 2722 H 261.175 0.246454 3.91325 0
M  V30 2723 H 262.665 -0.723389 4.11287 0
M  V30 2724 N 263.102 -1.41638 0.69111 0
M  V30 2725 C 264.065 -2.29178 0.0319786 0
M  V30 2726 C 265.065 -1.44153 -0.712496 0
M  V30 2727 O 266.255 -1.65354 -0.548053 0
M  V30 2728 C 263.387 -3.26952 -0.965161 0
M  V30 2729 H 264.58 -2.88959 0.802681 0
M  V30 2730 H 262.133 -1.4955 0.454356 0
M  V30 2731 H 262.868 -2.72142 -1.76378 0
M  V30 2732 H 262.653 -3.89685 -0.434522 0
M  V30 2733 H 264.143 -3.92561 -1.42428 0
M  V30 2734 N 264.58 -0.43555 -1.51462 0
M  V30 2735 C 265.81 0.130053 -2.0619 0
M  V30 2736 C 266.218 1.37164 -1.30317 0
M  V30 2737 O 265.561 1.80225 -0.355598 0
M  V30 2738 C 265.623 0.519418 -3.55728 0
M  V30 2739 C 265.287 -0.615119 -4.52841 0
M  V30 2740 C 266.284 -1.48671 -4.9819 0
M  V30 2741 C 263.969 -0.795341 -4.95963 0
M  V30 2742 C 265.963 -2.52324 -5.8533 0
M  V30 2743 C 263.65 -1.83514 -5.82894 0
M  V30 2744 C 264.648 -2.69748 -6.27475 0
M  V30 2745 O 264.336 -3.71944 -7.1268 0
M  V30 2746 H 264.068 0.0121612 -0.675891 0
M  V30 2747 H 266.622 -0.6129 -1.96043 0
M  V30 2748 H 264.852 1.31505 -3.63653 0
M  V30 2749 H 266.541 1.01597 -3.92979 0
M  V30 2750 H 267.307 -1.359 -4.65571 0
M  V30 2751 H 263.186 -0.133713 -4.60806 0
M  V30 2752 H 266.73 -3.19665 -6.20048 0
M  V30 2753 H 262.627 -1.96306 -6.14926 0
M  V30 2754 H 263.395 -3.68503 -7.30854 0
M  V30 2755 N 266.058 1.56714 -0.166846 0
M  V30 2756 C 267.304 1.97039 0.479962 0
M  V30 2757 C 267.637 1.05264 1.63197 0
M  V30 2758 O 266.912 0.0988833 1.94248 0
M  V30 2759 C 267.195 3.46867 0.967212 0
M  V30 2760 C 267.048 4.49421 -0.18466 0
M  V30 2761 C 268.367 3.9968 1.84238 0
M  V30 2762 H 265.486 0.71641 0.172992 0
M  V30 2763 H 268.128 1.8832 -0.252079 0
M  V30 2764 H 266.278 3.54428 1.59101 0
M  V30 2765 H 267.95 4.53924 -0.821621 0
M  V30 2766 H 266.193 4.25573 -0.840837 0
M  V30 2767 H 266.864 5.51644 0.198317 0
M  V30 2768 H 269.34 3.94723 1.31655 0
M  V30 2769 H 268.216 5.04941 2.15234 0
M  V30 2770 H 268.477 3.43226 2.78654 0
M  V30 2771 N 267.536 -0.106894 1.57237 0
M  V30 2772 C 268.466 -1.13148 2.04254 0
M  V30 2773 C 269.447 -1.42476 0.929224 0
M  V30 2774 O 270.632 -1.52709 1.19973 0
M  V30 2775 C 267.762 -2.4545 2.45706 0
M  V30 2776 C 266.716 -2.30558 3.60592 0
M  V30 2777 C 266.042 -3.67931 3.87983 0
M  V30 2778 C 267.342 -1.75597 4.91897 0
M  V30 2779 H 269.036 -0.740374 2.90101 0
M  V30 2780 H 266.582 -0.354696 1.39563 0
M  V30 2781 H 268.535 -3.17389 2.77205 0
M  V30 2782 H 267.259 -2.86475 1.56843 0
M  V30 2783 H 265.918 -1.61067 3.29322 0
M  V30 2784 H 265.566 -4.06462 2.96306 0
M  V30 2785 H 265.266 -3.58817 4.65322 0
M  V30 2786 H 266.79 -4.41356 4.21945 0
M  V30 2787 H 268.204 -2.37364 5.21854 0
M  V30 2788 H 266.601 -1.77272 5.73319 0
M  V30 2789 H 267.671 -0.714451 4.79608 0
M  V30 2790 N 269.014 -1.53014 -0.377408 0
M  V30 2791 C 269.961 -1.78616 -1.46168 0
M  V30 2792 C 270.931 -0.629917 -1.53692 0
M  V30 2793 O 272.116 -0.870861 -1.69766 0
M  V30 2794 C 269.256 -1.97123 -2.8326 0
M  V30 2795 C 268.369 -3.24831 -2.84796 0
M  V30 2796 C 267.504 -3.33591 -4.13389 0
M  V30 2797 C 266.543 -4.55377 -4.09021 0
M  V30 2798 N 265.68 -4.61355 -5.29241 0
M  V30 2799 H 270.52 -2.71142 -1.23637 0
M  V30 2800 H 268.057 -1.34326 -0.599577 0
M  V30 2801 H 270.015 -2.05839 -3.62886 0
M  V30 2802 H 268.645 -1.07946 -3.04216 0
M  V30 2803 H 267.697 -3.25128 -1.97474 0
M  V30 2804 H 269.009 -4.14523 -2.77439 0
M  V30 2805 H 268.163 -3.41554 -5.01424 0
M  V30 2806 H 266.902 -2.41894 -4.23484 0
M  V30 2807 H 265.907 -4.47527 -3.19373 0
M  V30 2808 H 267.132 -5.48402 -4.00539 0
M  V30 2809 H 265.078 -3.72554 -5.39944 0
M  V30 2810 H 264.995 -5.44935 -5.24006 0
M  V30 2811 H 266.263 -4.73586 -6.19141 0
M  V30 2812 N 270.492 0.636531 -1.44174 0
M  V30 2813 C 271.722 1.42146 -1.49927 0
M  V30 2814 C 272.13 1.88812 -0.121063 0
M  V30 2815 O 271.473 1.61126 0.882267 0
M  V30 2816 C 271.535 2.67883 -2.39748 0
M  V30 2817 C 271.199 2.43048 -3.8701 0
M  V30 2818 C 272.196 2.05216 -4.77684 0
M  V30 2819 C 269.881 2.56856 -4.3166 0
M  V30 2820 C 271.875 1.81512 -6.11009 0
M  V30 2821 C 269.562 2.32766 -5.65034 0
M  V30 2822 C 270.56 1.95152 -6.54526 0
M  V30 2823 O 270.248 1.71326 -7.85431 0
M  V30 2824 H 269.98 0.442567 -0.51099 0
M  V30 2825 H 272.534 0.786158 -1.8976 0
M  V30 2826 H 270.764 3.34032 -1.94832 0
M  V30 2827 H 272.453 3.29874 -2.36513 0
M  V30 2828 H 273.219 1.94111 -4.44462 0
M  V30 2829 H 269.098 2.85104 -3.62266 0
M  V30 2830 H 272.642 1.52077 -6.80822 0
M  V30 2831 H 268.539 2.43479 -5.97819 0
M  V30 2832 H 269.307 1.85616 -7.97176 0
M  V30 2833 N 271.97 1.30982 0.876444 0
M  V30 2834 C 272.9 1.20668 1.99903 0
M  V30 2835 C 273.881 0.095354 1.69833 0
M  V30 2836 O 275.066 0.27885 1.92188 0
M  V30 2837 C 272.196 0.90655 3.3526 0
M  V30 2838 C 271.15 1.97675 3.79617 0
M  V30 2839 C 270.476 1.52943 5.1236 0
M  V30 2840 C 271.776 3.389 3.97422 0
M  V30 2841 H 273.47 2.14586 2.0879 0
M  V30 2842 H 271.016 1.03308 1.00317 0
M  V30 2843 H 272.969 0.821025 4.13324 0
M  V30 2844 H 271.693 -0.0682969 3.26529 0
M  V30 2845 H 270.352 2.05205 3.03787 0
M  V30 2846 H 270 0.54262 5.00065 0
M  V30 2847 H 269.7 2.24532 5.43009 0
M  V30 2848 H 271.224 1.45786 5.92941 0
M  V30 2849 H 272.638 3.34081 4.659 0
M  V30 2850 H 271.035 4.0865 4.3946 0
M  V30 2851 H 272.105 3.80163 3.01006 0
M  V30 2852 N 273.449 -1.08991 1.13837 0
M  V30 2853 C 274.726 -1.77863 0.813876 0
M  V30 2854 C 275.106 -1.99375 -0.693746 0
M  V30 2855 O 274.454 -1.59875 -1.63255 0
M  V30 2856 C 274.664 -3.0986 1.60586 0
M  V30 2857 C 276.012 -3.84493 1.8014 0
M  V30 2858 O 277.036 -3.19624 1.57222 0
M  V30 2859 O 275.895 -5.00957 2.18413 0
M  V30 2860 H 272.989 -0.771589 0.297624 0
M  V30 2861 H 275.535 -1.15507 1.24323 0
M  V30 2862 H 274.307 -2.89715 2.63022 0
M  V30 2863 H 273.93 -3.79942 1.17173 0
M  V30 2864 N 274.927 -0.932562 -1.27047 0
M  V30 2865 C 276.174 -0.575559 -1.94148 0
M  V30 2866 C 276.502 0.883984 -1.73251 0
M  V30 2867 O 275.757 1.64655 -1.0577 0
M  V30 2868 C 276.056 -0.853713 -3.47054 0
M  V30 2869 C 275.722 -2.29577 -3.88079 0
M  V30 2870 C 274.384 -2.68999 -3.9899 0
M  V30 2871 C 276.736 -3.23331 -4.08787 0
M  V30 2872 C 274.064 -4.01289 -4.28 0
M  V30 2873 C 276.416 -4.55207 -4.39282 0
M  V30 2874 C 275.08 -4.94457 -4.48407 0
M  V30 2875 H 274.35 -0.210612 -0.710439 0
M  V30 2876 H 276.997 -1.17744 -1.51025 0
M  V30 2877 H 275.302 -0.169204 -3.91434 0
M  V30 2878 H 276.999 -0.55639 -3.97121 0
M  V30 2879 H 273.589 -1.97994 -3.80127 0
M  V30 2880 H 277.773 -2.94074 -3.99793 0
M  V30 2881 H 273.029 -4.31374 -4.33275 0
M  V30 2882 H 277.203 -5.27852 -4.54252 0
M  V30 2883 H 274.83 -5.96994 -4.7064 0
M  V30 2884 N 276.405 1.4127 -0.698611 0
M  V30 2885 C 277.651 2.01478 -0.231207 0
M  V30 2886 C 277.984 1.55215 1.16713 0
M  V30 2887 O 277.259 0.764672 1.78838 0
M  V30 2888 C 277.542 3.58912 -0.292281 0
M  V30 2889 C 277.395 4.15293 -1.72778 0
M  V30 2890 C 278.714 4.38736 0.346194 0
M  V30 2891 H 275.833 0.732025 -0.0854878 0
M  V30 2892 H 278.475 1.67977 -0.887906 0
M  V30 2893 H 276.625 3.87582 0.26686 0
M  V30 2894 H 278.297 3.97486 -2.341 0
M  V30 2895 H 276.54 3.7022 -2.26096 0
M  V30 2896 H 277.211 5.24452 -1.72202 0
M  V30 2897 H 279.687 4.15897 -0.130035 0
M  V30 2898 H 278.563 5.48221 0.272932 0
M  V30 2899 H 278.824 4.18425 1.42734 0
M  V30 2900 N 277.883 0.443576 1.51229 0
M  V30 2901 C 279.111 -0.11929 2.06556 0
M  V30 2902 C 279.526 -1.35921 1.31038 0
M  V30 2903 O 278.883 -1.78675 0.371704 0
M  V30 2904 C 278.934 -0.435228 3.5887 0
M  V30 2905 O 278.655 0.755486 4.31537 0
M  V30 2906 C 280.156 -1.04808 4.30732 0
M  V30 2907 H 277.376 -0.0051584 0.67098 0
M  V30 2908 H 279.92 0.624453 1.94733 0
M  V30 2909 H 278.075 -1.12887 3.70588 0
M  V30 2910 H 278.489 0.483491 5.22267 0
M  V30 2911 H 279.963 -1.2191 5.3837 0
M  V30 2912 H 280.44 -2.03081 3.89429 0
M  V30 2913 H 281.046 -0.393637 4.23474 0
M  V30 2914 N 279.361 -1.56624 0.175154 0
M  V30 2915 C 280.294 -2.14 -0.792412 0
M  V30 2916 C 281.272 -1.07114 -1.22333 0
M  V30 2917 O 282.456 -1.35112 -1.31442 0
M  V30 2918 C 279.583 -2.68268 -2.0676 0
M  V30 2919 C 278.629 -3.87562 -1.7804 0
M  V30 2920 S 279.462 -5.27074 -0.946222 0
M  V30 2921 C 280.618 -5.8475 -2.23199 0
M  V30 2922 H 280.851 -2.95736 -0.304588 0
M  V30 2923 H 278.384 -1.54349 -0.0395705 0
M  V30 2924 H 280.342 -3.00182 -2.80002 0
M  V30 2925 H 279.003 -1.86612 -2.52656 0
M  V30 2926 H 278.196 -4.23874 -2.72666 0
M  V30 2927 H 277.798 -3.56555 -1.12891 0
M  V30 2928 H 280.09 -5.97898 -3.18629 0
M  V30 2929 H 281.033 -6.81756 -1.91349 0
M  V30 2930 H 281.441 -5.13198 -2.35134 0
M  V30 2931 N 280.839 0.0985539 -1.57292 0
M  V30 2932 C 281.772 1.15082 -1.97057 0
M  V30 2933 C 282.75 1.39025 -0.843255 0
M  V30 2934 O 283.934 1.52842 -1.10325 0
M  V30 2935 C 281.061 2.50069 -2.28437 0
M  V30 2936 C 280.107 2.42428 -3.509 0
M  V30 2937 S 280.94 1.84414 -5.02744 0
M  V30 2938 C 282.096 3.21032 -5.37298 0
M  V30 2939 H 282.329 0.811815 -2.86002 0
M  V30 2940 H 279.862 0.306102 -1.51335 0
M  V30 2941 H 281.82 3.27729 -2.47192 0
M  V30 2942 H 280.481 2.8114 -1.40069 0
M  V30 2943 H 279.674 3.41911 -3.70288 0
M  V30 2944 H 279.276 1.72896 -3.31637 0
M  V30 2945 H 281.568 4.17297 -5.33731 0
M  V30 2946 H 282.511 3.06452 -6.38352 0
M  V30 2947 H 282.919 3.20404 -4.64759 0
M  V30 2948 N 282.317 1.53212 0.369288 0
M  V30 2949 C 283.542 1.73423 1.1375 0
M  V30 2950 C 283.967 0.460404 1.82378 0
M  V30 2951 O 283.325 -0.585298 1.71592 0
M  V30 2952 C 283.373 2.89769 2.1463 0
M  V30 2953 O 282.477 2.58119 3.21634 0
M  V30 2954 H 281.818 0.576061 0.330227 0
M  V30 2955 H 284.348 2.00083 0.427547 0
M  V30 2956 H 284.358 3.15829 2.58294 0
M  V30 2957 H 283.033 3.8217 1.64071 0
M  V30 2958 H 281.61 2.42864 2.82969 0
M  V30 2959 N 283.795 -0.628877 1.44509 0
M  V30 2960 C 285.042 -1.38839 1.47411 0
M  V30 2961 C 285.37 -1.94202 0.10757 0
M  V30 2962 O 284.625 -1.74243 -0.890947 0
M  V30 2963 C 284.924 -2.56995 2.48371 0
M  V30 2964 C 284.59 -2.19908 3.93639 0
M  V30 2965 C 283.252 -2.09506 4.33198 0
M  V30 2966 C 285.604 -1.9064 4.85083 0
M  V30 2967 C 282.932 -1.68028 5.62124 0
M  V30 2968 C 285.284 -1.50655 6.14399 0
M  V30 2969 C 283.948 -1.38796 6.5291 0
M  V30 2970 H 283.218 -0.508048 0.539414 0
M  V30 2971 H 285.865 -0.712913 1.77735 0
M  V30 2972 H 284.17 -3.29786 2.11538 0
M  V30 2973 H 285.867 -3.15223 2.47861 0
M  V30 2974 H 282.457 -2.28922 3.62343 0
M  V30 2975 H 286.641 -1.97585 4.55273 0
M  V30 2976 H 281.897 -1.57452 5.90778 0
M  V30 2977 H 286.071 -1.27048 6.84713 0
M  V30 2978 H 283.698 -1.06429 7.52713 0
M  V30 2979 N 285.273 -1.31445 -0.869486 0
M  V30 2980 C 286.236 -1.19094 -1.9583 0
M  V30 2981 C 287.236 -0.117906 -1.60367 0
M  V30 2982 O 288.426 -0.367208 -1.70286 0
M  V30 2983 C 285.558 -0.828165 -3.30688 0
M  V30 2984 H 286.751 -2.15842 -2.08212 0
M  V30 2985 H 284.304 -1.15063 -1.05784 0
M  V30 2986 H 285.039 0.138142 -3.24006 0
M  V30 2987 H 284.824 -1.6038 -3.578 0
M  V30 2988 H 286.314 -0.765658 -4.10521 0
M  V30 2989 N 286.751 1.08385 -1.14413 0
M  V30 2990 C 287.698 2.15311 -0.831265 0
M  V30 2991 C 288.668 1.64751 0.211292 0
M  V30 2992 O 289.853 1.90627 0.0811674 0
M  V30 2993 C 286.993 3.43658 -0.315143 0
M  V30 2994 C 286.106 4.08064 -1.41802 0
M  V30 2995 C 285.241 5.24207 -0.859126 0
M  V30 2996 C 284.28 5.80554 -1.93967 0
M  V30 2997 N 283.417 6.88042 -1.39793 0
M  V30 2998 H 288.257 2.41415 -1.74708 0
M  V30 2999 H 285.794 1.18474 -0.871909 0
M  V30 3000 H 287.752 4.172 0.00230884 0
M  V30 3001 H 286.382 3.17839 0.56378 0
M  V30 3002 H 285.434 3.3228 -1.85187 0
M  V30 3003 H 286.746 4.45962 -2.23427 0
M  V30 3004 H 285.9 6.04689 -0.49359 0
M  V30 3005 H 284.639 4.87699 -0.011932 0
M  V30 3006 H 283.644 4.98725 -2.31415 0
M  V30 3007 H 284.869 6.19121 -2.79046 0
M  V30 3008 H 282.815 6.53493 -0.572919 0
M  V30 3009 H 282.732 7.24767 -2.15054 0
M  V30 3010 H 284 7.72255 -1.0603 0
M  V30 3011 N 288.23 0.939286 1.26551 0
M  V30 3012 C 289.478 0.58469 1.93457 0
M  V30 3013 C 289.799 -0.878774 1.74076 0
M  V30 3014 O 289.069 -1.62421 1.09528 0
M  V30 3015 H 287.649 0.21325 0.715914 0
M  V30 3016 H 290.311 1.1942 1.54029 0
M  V30 3017 H 289.407 0.800849 3.0165 0
M  V30 3018 N 289.708 -1.40897 0.706093 0
M  V30 3019 C 290.985 -1.94868 0.169099 0
M  V30 3020 C 291.365 -1.64485 -1.32318 0
M  V30 3021 O 290.713 -0.95744 -2.07474 0
M  V30 3022 C 290.923 -3.45798 0.471654 0
M  V30 3023 C 292.271 -4.22663 0.405127 0
M  V30 3024 O 293.295 -3.53865 0.407168 0
M  V30 3025 O 292.154 -5.45216 0.374383 0
M  V30 3026 H 289.248 -0.82673 0.0211352 0
M  V30 3027 H 291.794 -1.50558 0.782976 0
M  V30 3028 H 290.566 -3.61235 1.50416 0
M  V30 3029 H 290.189 -3.97225 -0.172666 0
M  V30 3030 N 291.186 -0.45159 -1.50991 0
M  V30 3031 C 292.116 0.342898 -2.30969 0
M  V30 3032 C 293.097 1.00815 -1.37005 0
M  V30 3033 O 294.282 1.00907 -1.65926 0
M  V30 3034 C 291.412 1.43637 -3.16205 0
M  V30 3035 C 290.366 0.893818 -4.18563 0
M  V30 3036 C 289.692 2.08411 -4.92411 0
M  V30 3037 C 290.992 -0.0815568 -5.22236 0
M  V30 3038 H 292.686 -0.324556 -2.97636 0
M  V30 3039 H 290.232 -0.157531 -1.43136 0
M  V30 3040 H 292.185 1.9995 -3.70942 0
M  V30 3041 H 290.909 2.13232 -2.47386 0
M  V30 3042 H 289.568 0.352798 -3.64898 0
M  V30 3043 H 289.216 2.76658 -4.20082 0
M  V30 3044 H 288.916 1.72741 -5.61636 0
M  V30 3045 H 290.44 2.65251 -5.49976 0
M  V30 3046 H 291.854 0.391742 -5.7196 0
M  V30 3047 H 290.251 -0.351551 -5.99069 0
M  V30 3048 H 291.321 -1.01374 -4.74185 0
M  V30 3049 N 292.664 1.56529 -0.183458 0
M  V30 3050 C 293.91 1.98304 0.452466 0
M  V30 3051 C 294.265 1.06799 1.60037 0
M  V30 3052 O 293.558 0.110049 1.91284 0
M  V30 3053 C 293.752 3.43939 0.971637 0
M  V30 3054 C 293.581 4.49528 -0.124425 0
M  V30 3055 C 292.351 5.01981 -0.578168 0
M  V30 3056 C 294.549 5.05836 -0.929207 0
M  V30 3057 N 292.531 5.91219 -1.65327 0
M  V30 3058 C 293.902 5.91632 -1.85396 0
M  V30 3059 C 295.957 4.88302 -0.972929 0
M  V30 3060 C 294.66 6.61768 -2.81878 0
M  V30 3061 C 296.686 5.59168 -1.92574 0
M  V30 3062 C 296.048 6.44701 -2.83795 0
M  V30 3063 H 292.147 0.770551 0.133324 0
M  V30 3064 H 294.731 1.92581 -0.286473 0
M  V30 3065 H 292.902 3.50184 1.68006 0
M  V30 3066 H 294.634 3.72702 1.5772 0
M  V30 3067 H 291.389 4.73282 -0.173639 0
M  V30 3068 H 291.813 6.40543 -2.19167 0
M  V30 3069 H 296.455 4.21861 -0.28168 0
M  V30 3070 H 294.173 7.27415 -3.51984 0
M  V30 3071 H 297.759 5.47582 -1.96583 0
M  V30 3072 H 296.639 6.98573 -3.56322 0
M  V30 3073 N 294.142 -0.090211 1.57342 0
M  V30 3074 C 295.37 -0.806224 1.90546 0
M  V30 3075 C 295.785 -1.72041 0.777644 0
M  V30 3076 O 295.142 -1.80778 -0.250103 0
M  V30 3077 C 295.193 -1.61546 3.23396 0
M  V30 3078 O 294.914 -0.738043 4.31839 0
M  V30 3079 C 296.415 -2.4341 3.70495 0
M  V30 3080 H 293.635 -0.230256 0.630257 0
M  V30 3081 H 296.179 -0.0659843 2.04394 0
M  V30 3082 H 294.334 -2.30816 3.11131 0
M  V30 3083 H 294.748 -1.29901 5.08159 0
M  V30 3084 H 296.222 -2.95676 4.66133 0
M  V30 3085 H 296.699 -3.22098 2.98579 0
M  V30 3086 H 297.305 -1.79331 3.85643 0
M  V30 3087 N 295.62 -1.53406 -0.361157 0
M  V30 3088 C 296.866 -1.70999 -1.1014 0
M  V30 3089 C 297.221 -0.458425 -1.86859 0
M  V30 3090 O 296.514 0.548654 -1.83577 0
M  V30 3091 C 296.708 -2.90211 -2.08596 0
M  V30 3092 C 296.537 -4.26841 -1.41553 0
M  V30 3093 C 295.307 -4.91621 -1.16778 0
M  V30 3094 C 297.505 -5.07212 -0.850915 0
M  V30 3095 N 295.487 -6.12164 -0.461312 0
M  V30 3096 C 296.858 -6.19394 -0.274046 0
M  V30 3097 C 298.913 -4.92218 -0.750036 0
M  V30 3098 C 297.616 -7.18221 0.393868 0
M  V30 3099 C 299.642 -5.91322 -0.095894 0
M  V30 3100 C 299.004 -7.0283 0.470081 0
M  V30 3101 H 295.103 -0.678939 -0.388028 0
M  V30 3102 H 297.687 -1.90811 -0.38722 0
M  V30 3103 H 295.858 -2.71931 -2.77323 0
M  V30 3104 H 297.59 -2.96606 -2.7533 0
M  V30 3105 H 294.345 -4.50849 -1.45024 0
M  V30 3106 H 294.769 -6.76888 -0.123312 0
M  V30 3107 H 299.411 -4.06192 -1.17337 0
M  V30 3108 H 297.129 -8.03835 0.82914 0
M  V30 3109 H 300.715 -5.81797 -0.0187075 0
M  V30 3110 H 299.595 -7.782 0.968241 0
M  V30 3111 N 297.098 0.621204 -1.44841 0
M  V30 3112 C 298.061 1.71459 -1.521 0
M  V30 3113 C 299.061 1.55696 -0.401933 0
M  V30 3114 O 300.251 1.61011 -0.664925 0
M  V30 3115 C 297.383 3.10624 -1.40447 0
M  V30 3116 H 298.576 1.66394 -2.49506 0
M  V30 3117 H 296.129 0.835745 -1.3208 0
M  V30 3118 H 296.864 3.21277 -0.441737 0
M  V30 3119 H 296.649 3.23473 -2.21602 0
M  V30 3120 H 298.139 3.90293 -1.4853 0
M  V30 3121 N 298.576 1.31904 0.862503 0
M  V30 3122 C 299.853 1.12644 1.59908 0
M  V30 3123 C 300.233 -0.316104 2.0872 0
M  V30 3124 O 299.581 -1.31145 1.87118 0
M  V30 3125 C 299.791 2.1472 2.7513 0
M  V30 3126 C 301.139 2.47637 3.44907 0
M  V30 3127 O 302.163 2.13205 2.85346 0
M  V30 3128 O 301.022 3.06632 4.52371 0
M  V30 3129 H 298.116 0.43416 0.703871 0
M  V30 3130 H 300.662 1.43408 0.907314 0
M  V30 3131 H 299.434 3.1172 2.3653 0
M  V30 3132 H 299.057 1.84905 3.51989 0
M  V30 3133 N 300.054 -1.07777 1.14986 0
M  V30 3134 C 301.302 -1.79934 0.920235 0
M  V30 3135 C 301.623 -1.86955 -0.554336 0
M  V30 3136 O 300.893 -1.36731 -1.40291 0
M  V30 3137 H 299.473 -0.666424 0.337473 0
M  V30 3138 H 302.135 -1.3027 1.44968 0
M  V30 3139 H 301.231 -2.82539 1.32583 0
M  V30 3140 N 301.532 -0.945985 -1.26051 0
M  V30 3141 C 302.76 -0.613025 -1.9761 0
M  V30 3142 C 303.175 0.813035 -1.70397 0
M  V30 3143 O 302.532 1.54274 -0.974979 0
M  V30 3144 C 302.583 -0.85159 -3.51326 0
M  V30 3145 O 302.304 -2.22157 -3.77595 0
M  V30 3146 C 303.805 -0.529831 -4.40122 0
M  V30 3147 H 301.025 -0.230593 -0.630133 0
M  V30 3148 H 303.569 -1.268 -1.60443 0
M  V30 3149 H 301.724 -0.243151 -3.86636 0
M  V30 3150 H 302.138 -2.2852 -4.721 0
M  V30 3151 H 303.612 -0.747348 -5.46917 0
M  V30 3152 H 304.089 0.535341 -4.35925 0
M  V30 3153 H 304.695 -1.11721 -4.10364 0
M  V30 3154 N 303.011 1.40521 -0.713556 0
M  V30 3155 C 303.943 2.29191 -0.0203126 0
M  V30 3156 C 304.956 1.45723 0.725864 0
M  V30 3157 O 306.145 1.69033 0.573581 0
M  V30 3158 C 303.245 3.2395 0.995486 0
M  V30 3159 C 302.418 4.36262 0.315256 0
M  V30 3160 C 301.477 5.11474 1.23616 0
M  V30 3161 O 300.503 5.64606 0.721719 0
M  V30 3162 N 301.705 5.20638 2.56743 0
M  V30 3163 H 304.47 2.89327 -0.781652 0
M  V30 3164 H 302.031 1.51869 -0.561022 0
M  V30 3165 H 304.023 3.71137 1.61368 0
M  V30 3166 H 302.593 2.64995 1.6582 0
M  V30 3167 H 301.813 3.91228 -0.483106 0
M  V30 3168 H 303.101 5.08558 -0.157004 0
M  V30 3169 H 302.499 4.7895 3.01037 0
M  V30 3170 H 301.056 5.71339 3.13712 0
M  V30 3171 N 304.489 0.459591 1.5075 0
M  V30 3172 C 305.452 -0.329093 2.26825 0
M  V30 3173 C 306.452 -0.930481 1.31144 0
M  V30 3174 O 307.642 -0.801453 1.54669 0
M  V30 3175 C 304.774 -1.46768 3.07688 0
M  V30 3176 H 305.967 0.337924 2.9799 0
M  V30 3177 H 303.52 0.213336 1.54837 0
M  V30 3178 H 304.255 -2.17009 2.40993 0
M  V30 3179 H 304.04 -1.04238 3.77991 0
M  V30 3180 H 305.53 -2.02433 3.65254 0
M  V30 3181 N 305.967 -1.56429 0.191757 0
M  V30 3182 C 306.9 -2.14829 -0.76967 0
M  V30 3183 C 307.878 -1.08405 -1.2119 0
M  V30 3184 O 309.062 -1.36498 -1.30002 0
M  V30 3185 C 306.189 -2.70446 -2.03903 0
M  V30 3186 C 305.235 -3.89428 -1.7392 0
M  V30 3187 S 306.068 -5.28048 -0.890265 0
M  V30 3188 C 307.224 -5.87085 -2.16984 0
M  V30 3189 H 307.457 -2.96042 -0.273204 0
M  V30 3190 H 304.99 -1.54383 -0.0231975 0
M  V30 3191 H 306.948 -3.03134 -2.76803 0
M  V30 3192 H 305.609 -1.89281 -2.50662 0
M  V30 3193 H 304.802 -4.26742 -2.68155 0
M  V30 3194 H 304.404 -3.57732 -1.09103 0
M  V30 3195 H 306.696 -6.01244 -3.12269 0
M  V30 3196 H 307.639 -6.83747 -1.84108 0
M  V30 3197 H 308.047 -5.15663 -2.29678 0
M  V30 3198 N 307.445 0.0818655 -1.57387 0
M  V30 3199 C 308.692 0.782914 -1.86753 0
M  V30 3200 C 309.02 1.78082 -0.782118 0
M  V30 3201 O 308.275 1.94426 0.22295 0
M  V30 3202 C 308.574 1.53513 -3.22752 0
M  V30 3203 C 308.24 0.678134 -4.45771 0
M  V30 3204 C 306.902 0.441929 -4.79166 0
M  V30 3205 C 309.254 0.0832243 -5.21134 0
M  V30 3206 C 306.582 -0.398833 -5.85343 0
M  V30 3207 C 308.934 -0.744935 -6.28199 0
M  V30 3208 C 307.598 -0.991107 -6.60101 0
M  V30 3209 H 306.868 0.286489 -0.683378 0
M  V30 3210 H 309.515 0.0439808 -1.91449 0
M  V30 3211 H 307.82 2.34599 -3.138 0
M  V30 3212 H 309.517 2.08218 -3.42705 0
M  V30 3213 H 306.107 0.872357 -4.19628 0
M  V30 3214 H 310.291 0.252847 -4.95655 0
M  V30 3215 H 305.547 -0.598405 -6.08465 0
M  V30 3216 H 309.721 -1.21271 -6.8576 0
M  V30 3217 H 307.348 -1.64437 -7.42202 0
M  V30 3218 N 308.923 1.53595 0.353017 0
M  V30 3219 C 309.833 1.83897 1.45667 0
M  V30 3220 C 310.849 0.728334 1.58023 0
M  V30 3221 O 312.025 1.01968 1.73679 0
M  V30 3222 C 309.09 2.03383 2.80778 0
M  V30 3223 C 308.151 3.27262 2.77845 0
M  V30 3224 C 307.384 3.45809 4.06512 0
M  V30 3225 O 307.607 2.68387 5.03314 0
M  V30 3226 O 306.541 4.39207 4.11559 0
M  V30 3227 H 310.367 2.77686 1.2298 0
M  V30 3228 H 307.952 1.39132 0.544308 0
M  V30 3229 H 309.834 2.17698 3.60812 0
M  V30 3230 H 308.509 1.12783 3.03417 0
M  V30 3231 H 307.416 3.18359 1.96465 0
M  V30 3232 H 308.749 4.17824 2.60161 0
M  V30 3233 N 310.401 -0.613514 1.45168 0
M  V30 3234 C 311.351 -1.71871 1.49815 0
M  V30 3235 C 312.335 -1.56774 0.362021 0
M  V30 3236 O 313.527 -1.66212 0.608493 0
M  V30 3237 C 310.656 -3.1061 1.46207 0
M  V30 3238 C 309.742 -3.31114 2.64999 0
M  V30 3239 N 310.133 -3.21904 3.90143 0
M  V30 3240 C 308.431 -3.61966 2.6057 0
M  V30 3241 C 309.132 -3.43577 4.69393 0
M  V30 3242 N 308.108 -3.67287 4.00751 0
M  V30 3243 H 311.91 -1.63235 2.444 0
M  V30 3244 H 309.424 -0.816577 1.40377 0
M  V30 3245 H 311.421 -3.8989 1.4762 0
M  V30 3246 H 310.081 -3.20399 0.52673 0
M  V30 3247 H 311.092 -3.00436 4.21852 0
M  V30 3248 H 307.769 -3.78629 1.75916 0
M  V30 3249 H 309.159 -3.41901 5.78406 0
M  V30 3250 N 311.879 -1.3236 -0.855495 0
M  V30 3251 C 312.809 -1.23833 -1.97958 0
M  V30 3252 C 313.79 -0.122361 -1.69659 0
M  V30 3253 O 314.975 -0.30939 -1.9172 0
M  V30 3254 C 312.105 -0.959772 -3.33775 0
M  V30 3255 C 311.059 -2.03689 -3.76424 0
M  V30 3256 C 310.385 -1.61075 -5.09862 0
M  V30 3257 C 311.685 -3.4518 -3.9198 0
M  V30 3258 H 313.379 -2.1788 -2.0535 0
M  V30 3259 H 310.925 -1.04891 -0.986605 0
M  V30 3260 H 312.878 -0.886678 -4.11966 0
M  V30 3261 H 311.602 0.0163404 -3.26596 0
M  V30 3262 H 310.261 -2.10012 -3.00484 0
M  V30 3263 H 309.909 -0.622107 -4.99138 0
M  V30 3264 H 309.609 -2.33143 -5.39368 0
M  V30 3265 H 311.133 -1.55201 -5.90546 0
M  V30 3266 H 312.547 -3.4145 -4.60526 0
M  V30 3267 H 310.944 -4.1559 -4.32903 0
M  V30 3268 H 312.014 -3.84903 -2.94919 0
M  V30 3269 N 313.357 1.07166 -1.15556 0
M  V30 3270 C 314.305 2.16517 -0.8499 0
M  V30 3271 C 315.299 1.68468 0.177454 0
M  V30 3272 O 316.505 1.79971 0.0323026 0
M  V30 3273 H 312.88 0.706652 -0.25719 0
M  V30 3274 H 314.851 2.39514 -1.77976 0
M  V30 3275 C 313.6 3.45855 -0.357682 0
M  V30 3276 H 312.923 3.83214 -1.13961 0
M  V30 3277 H 314.363 4.23607 -0.182489 0
M  V30 3278 C 312.822 3.24062 0.921152 0
M  V30 3279 O 313.352 3.48813 1.9923 0
M  V30 3280 N 311.558 2.77539 0.86141 0
M  V30 3281 H 311.105 2.57598 -0.0104408 0
M  V30 3282 H 311.063 2.63337 1.71758 0
M  V30 3283 N 314.835 0.952656 1.25548 0
M  V30 3284 C 315.798 0.475794 2.24207 0
M  V30 3285 C 316.798 -0.419428 1.55234 0
M  V30 3286 O 317.988 -0.216994 1.72843 0
M  V30 3287 C 315.12 -0.312814 3.39462 0
M  V30 3288 H 316.313 1.34779 2.67908 0
M  V30 3289 H 313.866 0.735739 1.37901 0
M  V30 3290 H 314.601 -1.20257 3.01179 0
M  V30 3291 H 314.386 0.329404 3.90714 0
M  V30 3292 H 315.876 -0.635986 4.12729 0
M  V30 3293 N 316.313 -1.40141 0.720998 0
M  V30 3294 C 317.541 -2.05096 0.272656 0
M  V30 3295 C 317.956 -1.54334 -1.0875 0
M  V30 3296 O 317.313 -0.702211 -1.6845 0
M  V30 3297 C 317.364 -3.60636 0.249835 0
M  V30 3298 O 317.085 -4.09526 1.55629 0
M  V30 3299 C 318.586 -4.42772 -0.216396 0
M  V30 3300 H 315.806 -0.659897 0.121558 0
M  V30 3301 H 318.35 -1.79449 0.980723 0
M  V30 3302 H 316.505 -3.85232 -0.409237 0
M  V30 3303 H 316.919 -5.03758 1.4604 0
M  V30 3304 H 318.393 -5.51702 -0.181212 0
M  V30 3305 H 318.87 -4.20756 -1.25941 0
M  V30 3306 H 319.476 -4.23294 0.412596 0
M  V30 3307 N 317.792 -0.46758 -1.50504 0
M  V30 3308 C 318.722 0.318381 -2.31319 0
M  V30 3309 C 319.703 0.993564 -1.38066 0
M  V30 3310 O 320.888 0.991411 -1.66987 0
M  V30 3311 C 318.018 1.40275 -3.17711 0
M  V30 3312 C 316.972 0.849373 -4.19487 0
M  V30 3313 C 316.298 2.03177 -4.94594 0
M  V30 3314 C 317.598 -0.136942 -5.2212 0
M  V30 3315 H 319.292 -0.356106 -2.97275 0
M  V30 3316 H 316.838 -0.172703 -1.42961 0
M  V30 3317 H 318.791 1.96004 -3.73042 0
M  V30 3318 H 317.515 2.10596 -2.49634 0
M  V30 3319 H 316.174 0.314076 -3.65252 0
M  V30 3320 H 315.822 2.72187 -4.22993 0
M  V30 3321 H 315.522 1.66774 -5.63436 0
M  V30 3322 H 317.046 2.59403 -5.52759 0
M  V30 3323 H 318.46 0.331056 -5.72343 0
M  V30 3324 H 316.857 -0.41507 -5.98663 0
M  V30 3325 H 317.927 -1.06398 -4.73083 0
M  V30 3326 N 319.27 1.56325 -0.20005 0
M  V30 3327 C 320.18 2.22931 0.730668 0
M  V30 3328 C 321.196 1.22997 1.23076 0
M  V30 3329 O 322.372 1.55748 1.27689 0
M  V30 3330 C 319.437 2.87948 1.93098 0
M  V30 3331 C 318.498 4.03166 1.47497 0
M  V30 3332 C 317.731 4.65073 2.61807 0
M  V30 3333 O 317.954 4.25913 3.79413 0
M  V30 3334 O 316.888 5.54452 2.34237 0
M  V30 3335 H 320.714 3.03084 0.193391 0
M  V30 3336 H 318.299 1.49371 0.0294621 0
M  V30 3337 H 320.181 3.29063 2.6324 0
M  V30 3338 H 318.856 2.10771 2.45677 0
M  V30 3339 H 317.763 3.66664 0.742201 0
M  V30 3340 H 319.096 4.82022 0.995796 0
M  V30 3341 N 320.748 -0.0735177 1.57428 0
M  V30 3342 C 321.698 -1.09442 2.00016 0
M  V30 3343 C 322.682 -1.34575 0.881947 0
M  V30 3344 O 323.874 -1.34905 1.14585 0
M  V30 3345 C 321.003 -2.40865 2.4462 0
M  V30 3346 C 320.089 -2.19014 3.63172 0
M  V30 3347 N 320.48 -1.67087 4.77405 0
M  V30 3348 C 318.778 -2.49494 3.69688 0
M  V30 3349 C 319.479 -1.6001 5.5926 0
M  V30 3350 N 318.455 -2.05999 5.03056 0
M  V30 3351 H 322.257 -0.686227 2.85776 0
M  V30 3352 H 319.771 -0.280617 1.59957 0
M  V30 3353 H 321.768 -3.14763 2.73368 0
M  V30 3354 H 320.428 -2.82403 1.60246 0
M  V30 3355 H 321.439 -1.35975 4.99731 0
M  V30 3356 H 318.116 -2.94409 2.96023 0
M  V30 3357 H 319.506 -1.2073 6.60964 0
M  V30 3358 N 322.226 -1.5378 -0.344866 0
M  V30 3359 C 323.637 -1.62428 -0.920552 0
M  V30 3360 C 323.988 -0.504747 -1.89596 0
M  V30 3361 O 323.113 0.365711 -2.13287 0
M  V30 3362 C 323.708 -2.94419 -1.67639 0
M  V30 3363 C 322.267 -3.05333 -2.20111 0
M  V30 3364 C 321.414 -2.57866 -1.01982 0
M  V30 3365 H 324.365 -1.58222 -0.123042 0
M  V30 3366 H 324.386 -2.83384 -2.53917 0
M  V30 3367 H 323.898 -3.7588 -0.966224 0
M  V30 3368 H 321.999 -2.28502 -2.94308 0
M  V30 3369 H 322.112 -4.10778 -2.46573 0
M  V30 3370 H 320.476 -2.13241 -1.39285 0
M  V30 3371 H 321.259 -3.41765 -0.324308 0
M  V30 3372 N 323.704 0.605807 -1.45491 0
M  V30 3373 C 324.667 1.69836 -1.5391 0
M  V30 3374 C 325.667 1.55261 -0.418424 0
M  V30 3375 O 326.857 1.60296 -0.681965 0
M  V30 3376 C 323.989 3.09117 -1.43734 0
M  V30 3377 H 325.182 1.63738 -2.51257 0
M  V30 3378 H 322.735 0.821689 -1.32959 0
M  V30 3379 H 323.47 3.20791 -0.475788 0
M  V30 3380 H 323.255 3.21104 -2.25021 0
M  V30 3381 H 324.745 3.88696 -1.52661 0
M  V30 3382 N 325.182 1.32811 0.848464 0
M  V30 3383 C 326.092 1.24278 1.98978 0
M  V30 3384 C 327.108 0.155176 1.73307 0
M  V30 3385 O 328.284 0.376999 1.9784 0
M  V30 3386 C 325.349 0.972444 3.32783 0
M  V30 3387 C 324.41 2.14911 3.71634 0
M  V30 3388 C 323.643 1.89157 4.99054 0
M  V30 3389 O 323.866 0.837165 5.64223 0
M  V30 3390 O 322.8 2.75433 5.35183 0
M  V30 3391 H 326.626 2.20238 2.09115 0
M  V30 3392 H 324.211 1.12762 0.980052 0
M  V30 3393 H 326.093 0.838432 4.12975 0
M  V30 3394 H 324.768 0.043051 3.23671 0
M  V30 3395 H 323.675 2.33862 2.91992 0
M  V30 3396 H 325.008 3.06151 3.85399 0
M  V30 3397 N 326.66 -1.06551 1.16123 0
M  V30 3398 C 328.076 -1.3142 0.905585 0
M  V30 3399 C 328.276 -1.96571 -0.442964 0
M  V30 3400 O 327.332 -2.23068 -1.18308 0
M  V30 3401 C 328.645 -2.19741 2.05267 0
M  V30 3402 C 330.193 -2.33165 2.08813 0
M  V30 3403 C 330.668 -3.24838 3.22868 0
M  V30 3404 N 332.159 -3.32421 3.22568 0
M  V30 3405 C 332.894 -4.0344 4.0746 0
M  V30 3406 N 332.39 -4.77003 5.02434 0
M  V30 3407 N 334.183 -3.99464 3.95456 0
M  V30 3408 H 326.334 -0.626548 2.02949 0
M  V30 3409 H 328.597 -0.338777 0.8854 0
M  V30 3410 H 328.303 -1.79142 3.02657 0
M  V30 3411 H 328.177 -3.20313 1.99198 0
M  V30 3412 H 330.564 -2.73013 1.12018 0
M  V30 3413 H 330.645 -1.3227 2.18948 0
M  V30 3414 H 330.289 -2.85708 4.19921 0
M  V30 3415 H 330.219 -4.25707 3.0997 0
M  V30 3416 H 332.71 -2.79994 2.53795 0
M  V30 3417 H 333.023 -5.28712 5.63634 0
M  V30 3418 H 331.368 -4.75992 5.06415 0
M  V30 3419 H 334.559 -3.4111 3.20564 0
M  V30 3420 H 334.732 -4.54544 4.61837 0
M  V30 3421 N 328.138 -0.959301 -1.25041 0
M  V30 3422 C 329.086 -0.474437 -2.2771 0
M  V30 3423 C 330.08 0.457697 -1.631 0
M  V30 3424 O 331.286 0.333912 -1.76876 0
M  V30 3425 H 327.661 -0.134936 -0.739795 0
M  V30 3426 H 329.632 -1.35251 -2.65988 0
M  V30 3427 C 328.381 0.227884 -3.46952 0
M  V30 3428 H 327.704 -0.480248 -3.96905 0
M  V30 3429 H 329.144 0.531091 -4.20661 0
M  V30 3430 C 327.603 1.452 -3.04004 0
M  V30 3431 O 328.133 2.54949 -3.10426 0
M  V30 3432 N 326.339 1.31502 -2.59144 0
M  V30 3433 H 325.886 0.422065 -2.54119 0
M  V30 3434 H 325.844 2.13521 -2.30773 0
M  V30 3435 N 329.616 1.39756 -0.72842 0
M  V30 3436 C 330.862 2.00942 -0.273892 0
M  V30 3437 C 331.195 1.57656 1.13394 0
M  V30 3438 O 330.47 0.802434 1.77176 0
M  V30 3439 C 330.753 3.58211 -0.368346 0
M  V30 3440 C 330.606 4.11534 -1.81548 0
M  V30 3441 C 331.925 4.39372 0.253054 0
M  V30 3442 H 329.044 0.730047 -0.100996 0
M  V30 3443 H 331.686 1.66056 -0.923337 0
M  V30 3444 H 329.836 3.88061 0.184588 0
M  V30 3445 H 331.508 3.92431 -2.42478 0
M  V30 3446 H 329.751 3.65341 -2.33898 0
M  V30 3447 H 330.422 5.20682 -1.83288 0
M  V30 3448 H 332.898 4.15527 -0.218224 0
M  V30 3449 H 331.774 5.48677 0.156585 0
M  V30 3450 H 332.035 4.21358 1.33826 0
M  V30 3451 N 331.094 0.475555 1.50254 0
M  V30 3452 C 332.371 -0.139685 1.95101 0
M  V30 3453 C 332.751 -1.56555 1.41611 0
M  V30 3454 O 332.099 -2.19956 0.618993 0
M  V30 3455 C 332.309 -0.0784298 3.48912 0
M  V30 3456 C 333.657 -0.265095 4.23772 0
M  V30 3457 O 334.681 -0.154808 3.55863 0
M  V30 3458 O 333.54 -0.488327 5.44314 0
M  V30 3459 H 330.634 -0.109236 0.819754 0
M  V30 3460 H 333.18 0.536276 1.61004 0
M  V30 3461 H 331.952 0.916918 3.80405 0
M  V30 3462 H 331.575 -0.795655 3.89558 0
M  V30 3463 N 332.573 -1.56217 0.208337 0
M  V30 3464 C 333.822 -1.97124 -0.427204 0
M  V30 3465 C 334.135 -1.09859 -1.61835 0
M  V30 3466 O 335.341 -1.40606 -2.32255 0
M  V30 3467 C 333.797 -3.50633 -0.811442 0
M  V30 3468 C 333.405 -4.46582 0.35615 0
M  V30 3469 C 335.149 -4.00282 -1.41332 0
M  V30 3470 C 333.056 -5.91379 -0.0497852 0
M  V30 3471 H 331.986 -0.736086 -0.163381 0
M  V30 3472 H 334.637 -1.8099 0.302456 0
M  V30 3473 H 333.019 -3.62319 -1.59815 0
M  V30 3474 H 334.193 -4.46636 1.1337 0
M  V30 3475 H 332.508 -4.07202 0.870396 0
M  V30 3476 H 335.105 -5.0595 -1.72972 0
M  V30 3477 H 335.448 -3.45359 -2.32449 0
M  V30 3478 H 335.981 -3.91764 -0.690323 0
M  V30 3479 H 332.72 -6.50255 0.827529 0
M  V30 3480 H 332.24 -5.94549 -0.791926 0
M  V30 3481 H 333.919 -6.45209 -0.481042 0
M  V30 3482 N 334.051 0.0651679 -1.57465 0
M  V30 3483 C 335.279 0.775808 -1.91804 0
M  V30 3484 C 335.694 1.70782 -0.804916 0
M  V30 3485 O 335.051 1.81153 0.221311 0
M  V30 3486 C 335.102 1.56381 -3.25925 0
M  V30 3487 O 334.823 0.669248 -4.32958 0
M  V30 3488 C 336.324 2.37485 -3.7432 0
M  V30 3489 H 333.544 0.2202 -0.63384 0
M  V30 3490 H 336.088 0.0334587 -2.04473 0
M  V30 3491 H 334.243 2.25837 -3.14764 0
M  V30 3492 H 334.657 1.21801 -5.10162 0
M  V30 3493 H 336.131 2.88223 -4.70778 0
M  V30 3494 H 336.608 3.17307 -3.03666 0
M  V30 3495 H 337.214 1.73173 -3.88447 0
M  V30 3496 N 335.529 1.53961 0.336706 0
M  V30 3497 C 336.945 1.44378 0.680241 0
M  V30 3498 C 337.145 0.606034 1.9217 0
M  V30 3499 O 336.201 0.099688 2.52303 0
M  V30 3500 C 337.514 2.87945 0.8665 0
M  V30 3501 C 339.062 2.97763 0.964682 0
M  V30 3502 C 339.537 4.42453 1.18321 0
M  V30 3503 N 341.028 4.46008 1.25025 0
M  V30 3504 C 341.763 5.55102 1.43697 0
M  V30 3505 N 341.259 6.7419 1.59498 0
M  V30 3506 N 343.052 5.42727 1.463 0
M  V30 3507 H 335.203 2.06918 -0.479455 0
M  V30 3508 H 337.466 0.935634 -0.152619 0
M  V30 3509 H 337.172 3.51691 0.0256937 0
M  V30 3510 H 337.046 3.33293 1.76623 0
M  V30 3511 H 339.433 2.34153 1.796 0
M  V30 3512 H 339.514 2.55766 0.041708 0
M  V30 3513 H 339.158 5.06645 0.356788 0
M  V30 3514 H 339.088 4.82048 2.11985 0
M  V30 3515 H 341.579 3.60196 1.14312 0
M  V30 3516 H 341.892 7.53095 1.734 0
M  V30 3517 H 340.237 6.77123 1.56621 0
M  V30 3518 H 343.428 4.48647 1.33543 0
M  V30 3519 H 343.601 6.27806 1.6051 0
M  V30 3520 N 337.007 -0.598083 1.45811 0
M  V30 3521 C 338.256 -1.35295 1.49594 0
M  V30 3522 C 338.569 -1.95057 0.145679 0
M  V30 3523 O 339.775 -2.71431 0.0612099 0
M  V30 3524 C 338.231 -2.45124 2.63519 0
M  V30 3525 C 337.839 -1.91732 4.04899 0
M  V30 3526 C 339.583 -3.2205 2.76558 0
M  V30 3527 C 337.49 -2.991 5.1019 0
M  V30 3528 H 336.42 -0.508552 0.556679 0
M  V30 3529 H 339.071 -0.639977 1.71978 0
M  V30 3530 H 337.453 -3.19149 2.34435 0
M  V30 3531 H 338.627 -1.24352 4.43704 0
M  V30 3532 H 336.942 -1.27522 3.96393 0
M  V30 3533 H 339.539 -4.0215 3.52391 0
M  V30 3534 H 339.882 -3.73663 1.83526 0
M  V30 3535 H 340.415 -2.55127 3.05213 0
M  V30 3536 H 337.154 -2.52393 6.04961 0
M  V30 3537 H 336.674 -3.65017 4.75944 0
M  V30 3538 H 338.353 -3.63318 5.35359 0
M  V30 3539 N 338.485 -1.33259 -0.841409 0
M  V30 3540 C 339.713 -1.27605 -1.62864 0
M  V30 3541 C 340.128 0.153507 -1.88175 0
M  V30 3542 O 339.485 1.09485 -1.46011 0
M  V30 3543 C 339.536 -2.04596 -2.98031 0
M  V30 3544 O 339.257 -3.41975 -2.73834 0
M  V30 3545 C 340.758 -2.06122 -3.92465 0
M  V30 3546 H 337.978 -0.439718 -0.506842 0
M  V30 3547 H 340.522 -1.75591 -1.04824 0
M  V30 3548 H 338.677 -1.60299 -3.5268 0
M  V30 3549 H 339.091 -3.81549 -3.59889 0
M  V30 3550 H 340.565 -2.64451 -4.84531 0
M  V30 3551 H 341.042 -1.05083 -4.26444 0
M  V30 3552 H 341.648 -2.50427 -3.43753 0
M  V30 3553 N 339.963 1.05934 -1.16686 0
M  V30 3554 C 341.379 1.30938 -0.912542 0
M  V30 3555 C 341.579 1.96803 0.432533 0
M  V30 3556 O 340.635 2.23693 1.17123 0
M  V30 3557 C 341.948 2.18649 -2.06429 0
M  V30 3558 C 343.496 2.32055 -2.10047 0
M  V30 3559 C 343.971 3.23122 -3.24586 0
M  V30 3560 N 345.462 3.30706 -3.24327 0
M  V30 3561 C 346.197 4.01273 -4.09594 0
M  V30 3562 N 345.693 4.74332 -5.04956 0
M  V30 3563 N 347.486 3.97361 -3.97569 0
M  V30 3564 H 339.637 0.615777 -2.03278 0
M  V30 3565 H 341.9 0.334077 -0.887185 0
M  V30 3566 H 341.606 1.77534 -3.03603 0
M  V30 3567 H 341.48 3.19252 -2.00894 0
M  V30 3568 H 343.867 2.72415 -1.13464 0
M  V30 3569 H 343.948 1.31107 -2.19647 0
M  V30 3570 H 343.592 2.83477 -4.2143 0
M  V30 3571 H 343.522 4.24057 -3.12223 0
M  V30 3572 H 346.013 2.78644 -2.55276 0
M  V30 3573 H 346.326 5.25716 -5.6643 0
M  V30 3574 H 344.671 4.733 -5.08933 0
M  V30 3575 H 347.862 3.39405 -3.22369 0
M  V30 3576 H 348.035 4.52089 -4.64241 0
M  V30 3577 N 341.441 0.965919 1.2453 0
M  V30 3578 C 342.351 0.502154 2.29163 0
M  V30 3579 C 343.367 -0.436017 1.68448 0
M  V30 3580 O 344.543 -0.309497 1.99008 0
M  V30 3581 C 341.608 -0.201956 3.46111 0
M  V30 3582 C 340.669 0.775821 4.22232 0
M  V30 3583 C 339.902 0.105217 5.33596 0
M  V30 3584 O 340.125 -1.10683 5.59558 0
M  V30 3585 O 339.059 0.796475 5.96607 0
M  V30 3586 H 342.885 1.37194 2.70946 0
M  V30 3587 H 340.47 0.732875 1.30189 0
M  V30 3588 H 342.352 -0.597564 4.17142 0
M  V30 3589 H 341.027 -1.04673 3.06309 0
M  V30 3590 H 339.934 1.22185 3.53584 0
M  V30 3591 H 341.267 1.58896 4.65846 0
M  V30 3592 N 342.919 -1.39368 0.735821 0
M  V30 3593 C 344.196 -1.94465 0.210395 0
M  V30 3594 C 344.576 -1.67254 -1.28799 0
M  V30 3595 O 343.924 -1.00123 -2.05396 0
M  V30 3596 C 344.134 -3.4472 0.544897 0
M  V30 3597 C 345.482 -4.21708 0.494689 0
M  V30 3598 O 346.506 -3.52922 0.482136 0
M  V30 3599 O 345.365 -5.44299 0.489947 0
M  V30 3600 H 342.459 -0.826096 0.0386666 0
M  V30 3601 H 345.005 -1.48863 0.814735 0
M  V30 3602 H 343.777 -3.57963 1.58045 0
M  V30 3603 H 343.4 -3.97502 -0.08837 0
M  V30 3604 N 344.397 -0.483516 -1.5 0
M  V30 3605 C 345.645 0.067027 -2.01989 0
M  V30 3606 C 345.966 1.3909 -1.36671 0
M  V30 3607 O 345.236 1.88978 -0.516152 0
M  V30 3608 H 343.816 0.0277606 -0.746484 0
M  V30 3609 H 346.478 -0.636773 -1.84204 0
M  V30 3610 H 345.574 0.209484 -3.11396 0
M  V30 3611 N 345.875 1.56104 -0.216619 0
M  V30 3612 C 346.822 2.2007 0.695531 0
M  V30 3613 C 347.792 1.15471 1.19397 0
M  V30 3614 O 348.977 1.43807 1.25396 0
M  V30 3615 C 346.117 2.88073 1.90021 0
M  V30 3616 C 345.23 4.07253 1.44113 0
M  V30 3617 C 344.365 4.63052 2.603 0
M  V30 3618 C 343.404 5.74545 2.11103 0
M  V30 3619 N 342.541 6.24656 3.20545 0
M  V30 3620 H 347.381 2.97655 0.143327 0
M  V30 3621 H 344.918 1.46982 0.0589934 0
M  V30 3622 H 346.876 3.25681 2.60745 0
M  V30 3623 H 345.506 2.13015 2.42538 0
M  V30 3624 H 344.558 3.75164 0.628999 0
M  V30 3625 H 345.87 4.8783 1.04036 0
M  V30 3626 H 345.024 5.03078 3.39113 0
M  V30 3627 H 343.763 3.81628 3.03663 0
M  V30 3628 H 342.768 5.34027 1.3075 0
M  V30 3629 H 343.993 6.57801 1.68746 0
M  V30 3630 H 341.939 5.46148 3.63399 0
M  V30 3631 H 341.856 7.00343 2.84704 0
M  V30 3632 H 343.124 6.69338 3.99508 0
M  V30 3633 N 347.353 -0.0568162 1.57498 0
M  V30 3634 C 348.599 -0.75422 1.88253 0
M  V30 3635 C 348.932 -1.76461 0.810865 0
M  V30 3636 O 348.207 -1.93691 -0.177259 0
M  V30 3637 C 348.49 -1.44878 3.2967 0
M  V30 3638 C 348.343 -0.453789 4.47505 0
M  V30 3639 C 349.662 -2.38994 3.69554 0
M  V30 3640 H 346.781 -0.272724 0.684683 0
M  V30 3641 H 349.423 -0.0172113 1.89992 0
M  V30 3642 H 347.573 -2.077 3.28318 0
M  V30 3643 H 349.245 0.170371 4.60985 0
M  V30 3644 H 347.488 0.229552 4.33192 0
M  V30 3645 H 348.159 -0.977699 5.43273 0
M  V30 3646 H 350.635 -1.86239 3.72095 0
M  V30 3647 H 349.511 -2.84587 4.69363 0
M  V30 3648 H 349.772 -3.24461 3.00296 0
M  V30 3649 N 348.832 -1.54138 -0.328536 0
M  V30 3650 C 349.782 -1.79557 -1.4051 0
M  V30 3651 C 350.766 -0.651373 -1.47126 0
M  V30 3652 O 351.958 -0.911226 -1.51742 0
M  V30 3653 C 349.087 -2.02196 -2.77438 0
M  V30 3654 C 348.173 -3.22724 -2.75155 0
M  V30 3655 N 348.564 -4.43881 -2.42494 0
M  V30 3656 C 346.862 -3.24196 -3.06289 0
M  V30 3657 C 347.563 -5.25797 -2.48822 0
M  V30 3658 N 346.539 -4.62862 -2.8506 0
M  V30 3659 H 350.341 -2.70814 -1.1418 0
M  V30 3660 H 347.855 -1.53265 -0.536991 0
M  V30 3661 H 349.852 -2.18546 -3.55026 0
M  V30 3662 H 348.512 -1.12191 -3.04702 0
M  V30 3663 H 349.523 -4.70969 -2.15428 0
M  V30 3664 H 346.2 -2.44208 -3.38627 0
M  V30 3665 H 347.59 -6.32535 -2.26603 0
M  V30 3666 N 350.31 0.590341 -1.46126 0
M  V30 3667 C 351.559 1.34499 -1.50309 0
M  V30 3668 C 351.872 1.94977 -0.156021 0
M  V30 3669 O 353.078 2.71395 -0.0756037 0
M  V30 3670 C 351.534 2.43723 -2.64815 0
M  V30 3671 C 351.142 1.89582 -4.0591 0
M  V30 3672 C 352.886 3.20579 -2.78262 0
M  V30 3673 C 350.793 2.9639 -5.11769 0
M  V30 3674 H 349.723 0.505593 -0.559368 0
M  V30 3675 H 352.374 0.630848 -1.72315 0
M  V30 3676 H 350.756 3.17902 -2.36124 0
M  V30 3677 H 351.93 1.21997 -4.44357 0
M  V30 3678 H 350.245 1.25418 -3.97063 0
M  V30 3679 H 352.842 4.00276 -3.54519 0
M  V30 3680 H 353.185 3.72684 -1.85505 0
M  V30 3681 H 353.718 2.53505 -3.06562 0
M  V30 3682 H 350.457 2.49181 -6.06291 0
M  V30 3683 H 349.977 3.62487 -4.77873 0
M  V30 3684 H 351.656 3.60474 -5.37278 0
M  V30 3685 N 351.788 1.33704 0.83433 0
M  V30 3686 C 352.738 1.20899 1.93306 0
M  V30 3687 C 353.722 0.110783 1.60518 0
M  V30 3688 O 354.914 0.339331 1.73717 0
M  V30 3689 C 352.043 0.955018 3.29749 0
M  V30 3690 C 351.129 2.09587 3.68692 0
M  V30 3691 N 351.52 3.34621 3.79292 0
M  V30 3692 C 349.818 2.00358 3.98463 0
M  V30 3693 C 350.519 4.09472 4.13167 0
M  V30 3694 N 349.495 3.37954 4.25779 0
M  V30 3695 H 353.297 2.15665 1.99664 0
M  V30 3696 H 350.811 1.25777 1.02732 0
M  V30 3697 H 352.808 0.844208 4.08263 0
M  V30 3698 H 351.468 0.0159317 3.24696 0
M  V30 3699 H 352.479 3.69313 3.63082 0
M  V30 3700 H 349.156 1.14137 4.01596 0
M  V30 3701 H 350.546 5.17391 4.28668 0
M  V30 3702 N 353.266 -1.05314 1.17247 0
M  V30 3703 C 354.494 -1.81971 0.984593 0
M  V30 3704 C 354.909 -1.82929 -0.467166 0
M  V30 3705 O 354.266 -1.25564 -1.32438 0
M  V30 3706 C 354.317 -3.28143 1.51672 0
M  V30 3707 O 354.038 -3.27347 2.91163 0
M  V30 3708 C 355.539 -4.21493 1.37326 0
M  V30 3709 H 352.759 -0.573455 0.348411 0
M  V30 3710 H 355.303 -1.32808 1.55506 0
M  V30 3711 H 353.458 -3.74582 0.988302 0
M  V30 3712 H 353.872 -4.18824 3.15732 0
M  V30 3713 H 355.346 -5.22043 1.79375 0
M  V30 3714 H 355.823 -4.38031 0.320169 0
M  V30 3715 H 356.429 -3.80909 1.89178 0
M  V30 3716 N 354.744 -0.972509 -1.24016 0
M  V30 3717 C 355.972 -0.654803 -1.96265 0
M  V30 3718 C 356.387 0.776708 -1.72083 0
M  V30 3719 O 355.744 1.52171 -1.00748 0
M  V30 3720 C 355.795 -0.92592 -3.49441 0
M  V30 3721 O 355.516 -2.30116 -3.72798 0
M  V30 3722 C 357.017 -0.623068 -4.38899 0
M  V30 3723 H 354.237 -0.243907 -0.6251 0
M  V30 3724 H 356.781 -1.30175 -1.57717 0
M  V30 3725 H 354.936 -0.325108 -3.86033 0
M  V30 3726 H 355.35 -2.38483 -4.67147 0
M  V30 3727 H 356.824 -0.863189 -5.45209 0
M  V30 3728 H 357.301 0.442754 -4.36963 0
M  V30 3729 H 357.907 -1.204 -4.07902 0
M  V30 3730 N 356.222 1.38976 -0.743202 0
M  V30 3731 C 357.499 1.94351 -0.220705 0
M  V30 3732 C 357.879 1.67935 1.2791 0
M  V30 3733 O 357.227 1.01211 2.04862 0
M  V30 3734 C 357.437 3.44426 -0.563171 0
M  V30 3735 C 358.785 4.2144 -0.517046 0
M  V30 3736 O 359.809 3.52661 -0.500846 0
M  V30 3737 O 358.668 5.44032 -0.518806 0
M  V30 3738 H 355.762 0.825879 -0.043047 0
M  V30 3739 H 358.308 1.48429 -0.822618 0
M  V30 3740 H 357.08 3.5712 -1.59941 0
M  V30 3741 H 356.703 3.97543 0.0672883 0
M  V30 3742 N 357.7 0.491464 1.49741 0
M  V30 3743 C 358.946 -0.0485431 2.03342 0
M  V30 3744 C 359.301 -1.35566 1.36527 0
M  V30 3745 O 358.594 -1.85262 0.488729 0
M  V30 3746 C 358.788 -0.267329 3.56399 0
M  V30 3747 C 358.617 1.01703 4.38049 0
M  V30 3748 C 357.387 1.56614 4.80417 0
M  V30 3749 C 359.585 1.91782 4.77204 0
M  V30 3750 N 357.567 2.7974 5.4646 0
M  V30 3751 C 358.938 2.99489 5.42868 0
M  V30 3752 C 360.993 1.92575 4.5915 0
M  V30 3753 C 359.696 4.08005 5.92389 0
M  V30 3754 C 361.722 3.0006 5.09626 0
M  V30 3755 C 361.084 4.06485 5.75282 0
M  V30 3756 H 357.183 0.0227779 0.781668 0
M  V30 3757 H 359.767 0.664204 1.8302 0
M  V30 3758 H 357.938 -0.949126 3.76625 0
M  V30 3759 H 359.67 -0.803492 3.96644 0
M  V30 3760 H 356.425 1.11256 4.60347 0
M  V30 3761 H 356.849 3.42323 5.84075 0
M  V30 3762 H 361.491 1.11605 4.07804 0
M  V30 3763 H 359.209 4.89779 6.42761 0
M  V30 3764 H 362.795 3.01681 4.97473 0
M  V30 3765 H 361.675 4.88287 6.13633 0
M  V30 3766 N 359.178 -1.55987 0.224894 0
M  V30 3767 C 360.455 -1.90232 -0.455083 0
M  V30 3768 C 360.835 -1.14269 -1.77499 0
M  V30 3769 O 360.183 -0.253079 -2.27094 0
M  V30 3770 C 360.393 -3.42993 -0.644758 0
M  V30 3771 C 361.741 -4.13821 -0.950669 0
M  V30 3772 O 362.765 -3.4861 -0.731423 0
M  V30 3773 O 361.624 -5.29128 -1.36695 0
M  V30 3774 H 358.718 -0.79108 -0.241084 0
M  V30 3775 H 361.264 -1.67581 0.267327 0
M  V30 3776 H 360.036 -3.90252 0.28613 0
M  V30 3777 H 359.659 -3.71434 -1.41853 0
M  V30 3778 N 360.656 0.0484629 -1.57525 0
M  V30 3779 C 362.072 0.40375 -1.54409 0
M  V30 3780 C 362.272 1.77786 -0.948384 0
M  V30 3781 O 361.328 2.46189 -0.560983 0
M  V30 3782 C 362.641 0.323394 -2.98956 0
M  V30 3783 C 364.189 0.401892 -3.10409 0
M  V30 3784 C 364.664 0.351195 -4.56652 0
M  V30 3785 N 366.155 0.410576 -4.61377 0
M  V30 3786 C 366.89 0.393933 -5.72045 0
M  V30 3787 N 366.386 0.330724 -6.9201 0
M  V30 3788 N 368.179 0.442227 -5.60358 0
M  V30 3789 H 360.33 -0.851016 -1.94606 0
M  V30 3790 H 362.593 -0.321721 -0.89174 0
M  V30 3791 H 362.299 -0.62011 -3.4619 0
M  V30 3792 H 362.173 1.12463 -3.60044 0
M  V30 3793 H 364.56 1.33582 -2.63134 0
M  V30 3794 H 364.641 -0.428342 -2.52188 0
M  V30 3795 H 364.285 -0.578987 -5.04589 0
M  V30 3796 H 364.215 1.19928 -5.12762 0
M  V30 3797 H 366.706 0.462729 -3.75056 0
M  V30 3798 H 367.019 0.322592 -7.72126 0
M  V30 3799 H 365.364 0.29706 -6.94365 0
M  V30 3800 H 368.555 0.489464 -4.65534 0
M  V30 3801 H 368.728 0.425788 -6.466 0
M  V30 3802 N 362.134 1.5431 0.320358 0
M  V30 3803 C 363.044 1.86946 1.41734 0
M  V30 3804 C 364.06 0.761689 1.56443 0
M  V30 3805 O 365.236 1.05629 1.71477 0
M  V30 3806 C 362.301 2.09293 2.76401 0
M  V30 3807 C 361.362 3.33082 2.70841 0
M  V30 3808 C 360.595 3.54353 3.99086 0
M  V30 3809 O 360.818 2.79002 4.97508 0
M  V30 3810 O 359.752 4.47838 4.0215 0
M  V30 3811 H 363.578 2.80232 1.17062 0
M  V30 3812 H 361.163 1.40255 0.514673 0
M  V30 3813 H 363.045 2.25303 3.56113 0
M  V30 3814 H 361.72 1.19194 3.00956 0
M  V30 3815 H 360.627 3.22454 1.89668 0
M  V30 3816 H 361.96 4.23249 2.5124 0
M  V30 3817 N 363.613 -0.582584 1.46437 0
M  V30 3818 C 364.838 -1.37168 1.55563 0
M  V30 3819 C 365.263 -1.87061 0.19743 0
M  V30 3820 O 364.621 -1.61572 -0.822451 0
M  V30 3821 C 364.669 -2.53511 2.56446 0
M  V30 3822 O 363.773 -3.54953 2.09958 0
M  V30 3823 H 363.114 -0.408494 0.523477 0
M  V30 3824 H 365.644 -0.706646 1.9201 0
M  V30 3825 H 365.654 -3.00426 2.76058 0
M  V30 3826 H 364.329 -2.16549 3.55076 0
M  V30 3827 H 362.906 -3.14516 2.00334 0
M  V30 3828 N 365.091 -1.34144 -0.827227 0
M  V30 3829 C 366.368 -1.16844 -1.56865 0
M  V30 3830 C 366.748 0.260654 -2.09485 0
M  V30 3831 O 366.096 1.26138 -1.9053 0
M  V30 3832 C 366.306 -2.21939 -2.6934 0
M  V30 3833 C 367.654 -2.56695 -3.3822 0
M  V30 3834 O 368.678 -2.20695 -2.79593 0
M  V30 3835 O 367.537 -3.18518 -4.44082 0
M  V30 3836 H 364.631 -0.452669 -0.692112 0
M  V30 3837 H 367.177 -1.45763 -0.868973 0
M  V30 3838 H 365.949 -3.17882 -2.28182 0
M  V30 3839 H 365.572 -1.94172 -3.46962 0
M  V30 3840 N 366.569 1.04691 -1.17803 0
M  V30 3841 C 367.815 1.78045 -0.970969 0
M  V30 3842 C 368.148 1.87686 0.498751 0
M  V30 3843 O 367.423 1.38035 1.37027 0
M  V30 3844 C 367.706 3.2166 -1.61884 0
M  V30 3845 C 367.559 3.20001 -3.161 0
M  V30 3846 C 368.878 4.1962 -1.3269 0
M  V30 3847 H 365.997 0.64633 -0.354155 0
M  V30 3848 H 368.639 1.22333 -1.45378 0
M  V30 3849 H 366.789 3.69232 -1.20831 0
M  V30 3850 H 368.461 2.80467 -3.66246 0
M  V30 3851 H 366.704 2.58203 -3.48588 0
M  V30 3852 H 367.375 4.21386 -3.56564 0
M  V30 3853 H 369.851 3.80567 -1.68249 0
M  V30 3854 H 368.727 5.18339 -1.80599 0
M  V30 3855 H 368.988 4.414 -0.248622 0
M  V30 3856 N 368.047 0.979072 1.23499 0
M  V30 3857 C 368.977 0.537606 2.27227 0
M  V30 3858 C 369.958 -0.428539 1.64613 0
M  V30 3859 O 371.143 -0.322191 1.91509 0
M  V30 3860 C 368.273 -0.162052 3.46922 0
M  V30 3861 C 367.227 0.721242 4.21879 0
M  V30 3862 C 366.553 -0.110555 5.34586 0
M  V30 3863 C 367.853 2.01141 4.82016 0
M  V30 3864 H 369.547 1.40462 2.64406 0
M  V30 3865 H 367.093 0.67684 1.27102 0
M  V30 3866 H 369.046 -0.482192 4.18632 0
M  V30 3867 H 367.77 -1.06351 3.08799 0
M  V30 3868 H 366.429 1.02482 3.51984 0
M  V30 3869 H 366.077 -1.0125 4.92704 0
M  V30 3870 H 365.777 0.477325 5.85658 0
M  V30 3871 H 367.301 -0.425107 6.09118 0
M  V30 3872 H 368.715 1.75612 5.45741 0
M  V30 3873 H 367.112 2.54695 5.43369 0
M  V30 3874 H 368.182 2.69909 4.02836 0
M  V30 3875 N 369.525 -1.3858 0.750561 0
M  V30 3876 C 370.771 -2.00481 0.305825 0
M  V30 3877 C 371.104 -1.5944 -1.10872 0
M  V30 3878 O 370.379 -0.83052 -1.75877 0
M  V30 3879 C 370.662 -3.5758 0.425287 0
M  V30 3880 C 370.515 -4.08594 1.88072 0
M  V30 3881 C 371.834 -4.39719 -0.183122 0
M  V30 3882 H 368.953 -0.728348 0.112598 0
M  V30 3883 H 371.595 -1.64566 0.949638 0
M  V30 3884 H 369.745 -3.88306 -0.122828 0
M  V30 3885 H 371.417 -3.88523 2.48691 0
M  V30 3886 H 369.66 -3.61574 2.39681 0
M  V30 3887 H 370.331 -5.177 1.91548 0
M  V30 3888 H 372.807 -4.15128 0.284303 0
M  V30 3889 H 371.683 -5.48856 -0.0692757 0
M  V30 3890 H 371.944 -4.23434 -1.27106 0
M  V30 3891 N 371.003 -0.499398 -1.49478 0
M  V30 3892 C 371.933 0.269244 -2.31943 0
M  V30 3893 C 372.914 0.964054 -1.40143 0
M  V30 3894 O 374.099 0.955767 -1.69052 0
M  V30 3895 C 371.229 1.33504 -3.20615 0
M  V30 3896 C 370.183 0.760202 -4.21195 0
M  V30 3897 C 369.509 1.9264 -4.98792 0
M  V30 3898 C 370.809 -0.247661 -5.21712 0
M  V30 3899 H 372.503 -0.419082 -2.96452 0
M  V30 3900 H 370.049 -0.202988 -1.42562 0
M  V30 3901 H 372.002 1.88048 -3.77115 0
M  V30 3902 H 370.726 2.05253 -2.54045 0
M  V30 3903 H 369.385 0.23653 -3.65836 0
M  V30 3904 H 369.033 2.63154 -4.28671 0
M  V30 3905 H 368.733 1.54785 -5.66847 0
M  V30 3906 H 370.257 2.4762 -5.58137 0
M  V30 3907 H 371.671 0.209579 -5.72917 0
M  V30 3908 H 370.068 -0.541962 -5.97648 0
M  V30 3909 H 371.138 -1.16409 -4.7072 0
M  V30 3910 N 372.481 1.55866 -0.233164 0
M  V30 3911 C 373.709 2.02998 0.399905 0
M  V30 3912 C 374.124 1.11274 1.52524 0
M  V30 3913 O 373.481 0.124528 1.82075 0
M  V30 3914 C 373.532 3.4958 0.920639 0
M  V30 3915 O 373.253 4.37808 -0.159834 0
M  V30 3916 C 374.754 4.12411 1.62578 0
M  V30 3917 H 371.974 0.664006 0.0966281 0
M  V30 3918 H 374.518 2.0143 -0.353013 0
M  V30 3919 H 372.673 3.51727 1.62379 0
M  V30 3920 H 373.087 5.23981 0.23337 0
M  V30 3921 H 374.561 5.16711 1.94201 0
M  V30 3922 H 375.038 3.5809 2.54299 0
M  V30 3923 H 375.644 4.14148 0.967553 0
M  V30 3924 N 373.959 -0.0401083 1.57549 0
M  V30 3925 C 375.205 -0.734211 1.89043 0
M  V30 3926 C 375.538 -1.75591 0.829535 0
M  V30 3927 O 374.813 -1.93868 -0.156706 0
M  V30 3928 C 375.096 -1.41374 3.31188 0
M  V30 3929 C 374.949 -0.406299 4.47961 0
M  V30 3930 C 376.268 -2.35061 3.72068 0
M  V30 3931 H 373.387 -0.265447 0.687537 0
M  V30 3932 H 376.029 0.00294087 1.9 0
M  V30 3933 H 374.179 -2.04206 3.30503 0
M  V30 3934 H 375.851 0.219255 4.60779 0
M  V30 3935 H 374.094 0.275485 4.32924 0
M  V30 3936 H 374.765 -0.920022 5.44279 0
M  V30 3937 H 377.241 -1.82282 3.74049 0
M  V30 3938 H 376.117 -2.79593 4.72355 0
M  V30 3939 H 376.378 -3.21258 3.0372 0
M  V30 3940 N 375.437 -1.54477 -0.31217 0
M  V30 3941 C 376.848 -1.64344 -0.885891 0
M  V30 3942 C 377.199 -0.54485 -1.88483 0
M  V30 3943 O 376.324 0.320387 -2.14015 0
M  V30 3944 C 376.919 -2.97908 -1.61357 0
M  V30 3945 C 375.478 -3.09933 -2.13585 0
M  V30 3946 C 374.625 -2.59971 -0.964897 0
M  V30 3947 H 377.576 -1.58448 -0.0894528 0
M  V30 3948 H 377.597 -2.88706 -2.47848 0
M  V30 3949 H 377.109 -3.77845 -0.886277 0
M  V30 3950 H 375.21 -2.34694 -2.89395 0
M  V30 3951 H 375.323 -4.15916 -2.37804 0
M  V30 3952 H 373.687 -2.16147 -1.34731 0
M  V30 3953 H 374.47 -3.42376 -0.251742 0
M  V30 3954 N 376.915 0.57481 -1.46744 0
M  V30 3955 C 377.845 1.69337 -1.60771 0
M  V30 3956 C 378.826 1.63825 -0.457736 0
M  V30 3957 O 380.011 1.8172 -0.684947 0
M  V30 3958 C 377.141 3.0798 -1.60517 0
M  V30 3959 C 376.095 3.28327 -2.74564 0
M  V30 3960 C 375.421 4.67578 -2.59373 0
M  V30 3961 C 376.721 3.15398 -4.16319 0
M  V30 3962 H 378.415 1.57853 -2.54407 0
M  V30 3963 H 375.961 0.75799 -1.22436 0
M  V30 3964 H 377.914 3.86061 -1.68923 0
M  V30 3965 H 376.638 3.20381 -0.634305 0
M  V30 3966 H 375.297 2.52649 -2.65639 0
M  V30 3967 H 374.945 4.76755 -1.60353 0
M  V30 3968 H 374.645 4.82144 -3.35873 0
M  V30 3969 H 376.169 5.47817 -2.69682 0
M  V30 3970 H 377.583 3.83315 -4.26313 0
M  V30 3971 H 375.98 3.41482 -4.93468 0
M  V30 3972 H 377.05 2.12372 -4.3592 0
M  V30 3973 N 378.394 1.34581 0.820102 0
M  V30 3974 C 379.304 1.28471 1.96297 0
M  V30 3975 C 380.32 0.191902 1.72939 0
M  V30 3976 O 381.496 0.418879 1.96996 0
M  V30 3977 C 378.561 1.04281 3.30645 0
M  V30 3978 C 377.622 2.22745 3.66992 0
M  V30 3979 C 376.855 1.997 4.9493 0
M  V30 3980 O 377.078 0.956656 5.6232 0
M  V30 3981 O 376.012 2.86723 5.2922 0
M  V30 3982 H 379.838 2.24624 2.04396 0
M  V30 3983 H 377.423 1.14816 0.955913 0
M  V30 3984 H 379.305 0.925841 4.11104 0
M  V30 3985 H 377.98 0.111697 3.23507 0
M  V30 3986 H 376.887 2.40003 2.86966 0
M  V30 3987 H 378.22 3.14257 3.78819 0
M  V30 3988 N 379.872 -1.04064 1.18357 0
M  V30 3989 C 380.819 -2.12077 0.910603 0
M  V30 3990 C 381.789 -1.65421 -0.15 0
M  V30 3991 O 382.974 -1.90797 -0.0103614 0
M  V30 3992 C 380.114 -3.42252 0.442472 0
M  V30 3993 C 379.227 -4.0252 1.5685 0
M  V30 3994 C 378.362 -5.20657 1.05309 0
M  V30 3995 C 377.401 -5.72955 2.1538 0
M  V30 3996 N 376.538 -6.8238 1.65233 0
M  V30 3997 H 381.378 -2.34764 1.83548 0
M  V30 3998 H 378.915 -1.15157 0.915279 0
M  V30 3999 H 380.873 -4.16921 0.152534 0
M  V30 4000 H 379.503 -3.19712 -0.445428 0
M  V30 4001 H 378.555 -3.25178 1.97391 0
M  V30 4002 H 379.867 -4.37362 2.39824 0
M  V30 4003 H 379.021 -6.0244 0.717677 0
M  V30 4004 H 377.76 -4.87318 0.19293 0
M  V30 4005 H 376.765 -4.89793 2.49766 0
M  V30 4006 H 377.99 -6.08337 3.01832 0
M  V30 4007 H 375.936 -6.50917 0.815064 0
M  V30 4008 H 375.853 -7.16286 2.41805 0
M  V30 4009 H 377.121 -7.67788 1.34619 0
M  V30 4010 N 381.35 -0.985608 -1.22978 0
M  V30 4011 C 382.597 -0.657386 -1.91532 0
M  V30 4012 C 382.925 0.809707 -1.76845 0
M  V30 4013 O 382.18 1.60021 -1.12658 0
M  V30 4014 C 382.479 -1.00014 -3.43121 0
M  V30 4015 C 382.145 -2.4583 -3.77993 0
M  V30 4016 C 380.807 -2.85679 -3.87222 0
M  V30 4017 C 383.159 -3.40378 -3.94705 0
M  V30 4018 C 380.487 -4.19081 -4.10595 0
M  V30 4019 C 382.839 -4.73429 -4.1958 0
M  V30 4020 C 381.503 -5.1303 -4.27032 0
M  V30 4021 H 380.773 -0.240555 -0.700867 0
M  V30 4022 H 383.42 -1.24044 -1.45895 0
M  V30 4023 H 381.725 -0.335072 -3.90365 0
M  V30 4024 H 383.422 -0.724322 -3.94404 0
M  V30 4025 H 380.012 -2.13939 -3.71387 0
M  V30 4026 H 384.196 -3.10766 -3.8696 0
M  V30 4027 H 379.452 -4.49362 -4.14589 0
M  V30 4028 H 383.626 -5.46644 -4.31455 0
M  V30 4029 H 381.253 -6.16418 -4.44896 0
M  V30 4030 N 382.828 1.3818 -0.7579 0
M  V30 4031 C 383.758 2.33027 -0.148597 0
M  V30 4032 C 384.739 1.55085 0.69875 0
M  V30 4033 O 385.924 1.83384 0.639053 0
M  V30 4034 C 383.054 3.3928 0.742034 0
M  V30 4035 C 382.008 4.28 -0.00291946 0
M  V30 4036 C 381.334 5.25146 1.00625 0
M  V30 4037 C 382.634 5.08938 -1.17385 0
M  V30 4038 H 384.328 2.84231 -0.940909 0
M  V30 4039 H 381.874 1.36659 -0.453908 0
M  V30 4040 H 383.827 4.046 1.17799 0
M  V30 4041 H 382.551 2.86569 1.56671 0
M  V30 4042 H 381.21 3.64192 -0.419504 0
M  V30 4043 H 380.858 4.68721 1.8251 0
M  V30 4044 H 380.558 5.85361 0.512428 0
M  V30 4045 H 382.082 5.93342 1.44143 0
M  V30 4046 H 383.496 5.67474 -0.815224 0
M  V30 4047 H 381.893 5.7841 -1.59882 0
M  V30 4048 H 382.963 4.42424 -1.98468 0
M  V30 4049 N 384.306 0.507319 1.49211 0
M  V30 4050 C 385.583 -0.0982702 1.95353 0
M  V30 4051 C 385.963 -1.53516 1.449 0
M  V30 4052 O 385.311 -2.18594 0.66551 0
M  V30 4053 C 385.521 -0.00440283 3.49 0
M  V30 4054 C 386.869 -0.175147 4.24239 0
M  V30 4055 O 387.893 -0.0792891 3.56112 0
M  V30 4056 O 386.752 -0.37276 5.45227 0
M  V30 4057 H 383.846 -0.0918236 0.821887 0
M  V30 4058 H 386.392 0.570307 1.5983 0
M  V30 4059 H 385.164 0.997402 3.78375 0
M  V30 4060 H 384.787 -0.712845 3.91158 0
M  V30 4061 N 385.784 -1.5574 0.241426 0
M  V30 4062 C 387.014 -2.02913 -0.38857 0
M  V30 4063 C 387.422 -1.12014 -1.52478 0
M  V30 4064 O 386.765 -0.125903 -1.83268 0
M  V30 4065 C 386.827 -3.4636 -0.963075 0
M  V30 4066 C 386.491 -4.56982 0.0401916 0
M  V30 4067 C 387.488 -5.12941 0.847766 0
M  V30 4068 C 385.173 -5.0203 0.164699 0
M  V30 4069 C 387.167 -6.12437 1.76636 0
M  V30 4070 C 384.854 -6.01358 1.0868 0
M  V30 4071 C 385.852 -6.5644 1.88616 0
M  V30 4072 O 385.54 -7.53831 2.79273 0
M  V30 4073 H 385.272 -0.668983 -0.0971452 0
M  V30 4074 H 387.826 -2.02198 0.361248 0
M  V30 4075 H 386.056 -3.44206 -1.76235 0
M  V30 4076 H 387.745 -3.77065 -1.50257 0
M  V30 4077 H 388.511 -4.78974 0.762133 0
M  V30 4078 H 384.39 -4.58824 -0.447411 0
M  V30 4079 H 387.934 -6.55355 2.39071 0
M  V30 4080 H 383.831 -6.34746 1.17338 0
M  V30 4081 H 384.599 -7.71428 2.73572 0
M  V30 4082 N 387.262 0.0317525 -1.57568 0
M  V30 4083 C 388.487 0.738664 -1.938 0
M  V30 4084 C 388.912 1.68242 -0.841208 0
M  V30 4085 O 388.27 1.80157 0.203267 0
M  V30 4086 C 388.318 1.47417 -3.29091 0
M  V30 4087 O 387.422 2.5872 -3.2115 0
M  V30 4088 H 386.763 0.198856 -0.633524 0
M  V30 4089 H 389.293 -0.0119713 -2.04596 0
M  V30 4090 H 389.303 1.84468 -3.63917 0
M  V30 4091 H 387.978 0.781988 -4.08482 0
M  V30 4092 H 386.555 2.24231 -2.97951 0
M  V30 4093 N 388.74 1.54641 0.303973 0
M  V30 4094 C 390.017 1.64455 1.05896 0
M  V30 4095 C 390.397 0.490923 2.05312 0
M  V30 4096 O 389.745 -0.512685 2.22674 0
M  V30 4097 C 389.955 3.02331 1.74347 0
M  V30 4098 C 391.303 3.59045 2.26653 0
M  V30 4099 O 392.327 3.04764 1.84384 0
M  V30 4100 O 391.186 4.54081 3.04093 0
M  V30 4101 H 388.28 0.666729 0.489287 0
M  V30 4102 H 390.826 1.66986 0.302298 0
M  V30 4103 H 389.598 3.77734 1.02142 0
M  V30 4104 H 389.221 3.03565 2.56777 0
M  V30 4105 N 390.218 -0.567019 1.47046 0
M  V30 4106 C 391.181 -1.65696 1.58359 0
M  V30 4107 C 392.181 -1.54097 0.459441 0
M  V30 4108 O 393.371 -1.58432 0.724225 0
M  V30 4109 C 390.503 -3.05197 1.51879 0
M  V30 4110 H 391.696 -1.57019 2.5551 0
M  V30 4111 H 389.249 -0.786148 1.3509 0
M  V30 4112 H 389.984 -3.19417 0.560673 0
M  V30 4113 H 389.769 -3.15025 2.33455 0
M  V30 4114 H 391.259 -3.84511 1.62913 0
M  V30 4115 N 391.696 -1.35014 -0.812953 0
M  V30 4116 C 392.973 -1.18502 -1.55617 0
M  V30 4117 C 393.353 0.238421 -2.09749 0
M  V30 4118 O 392.701 1.2411 -1.91857 0
M  V30 4119 C 392.911 -2.24783 -2.66971 0
M  V30 4120 C 394.259 -2.60268 -3.35478 0
M  V30 4121 O 395.283 -2.23648 -2.77236 0
M  V30 4122 O 394.142 -3.2321 -4.40678 0
M  V30 4123 H 391.236 -0.459984 -0.687272 0
M  V30 4124 H 393.782 -1.46677 -0.853464 0
M  V30 4125 H 392.554 -3.20284 -2.24798 0
M  V30 4126 H 392.177 -1.97841 -3.44884 0
M  V30 4127 N 393.175 1.03435 -1.18907 0
M  V30 4128 C 394.452 1.73778 -0.89781 0
M  V30 4129 C 394.832 2.02458 0.597832 0
M  V30 4130 O 394.18 1.67482 1.55441 0
M  V30 4131 C 394.39 3.01845 -1.75187 0
M  V30 4132 C 395.738 3.7546 -1.9828 0
M  V30 4133 O 396.762 3.11759 -1.72293 0
M  V30 4134 O 395.621 4.89966 -2.42065 0
M  V30 4135 H 392.715 0.75651 -0.334098 0
M  V30 4136 H 395.261 1.09444 -1.29693 0
M  V30 4137 H 394.033 2.76836 -2.76545 0
M  V30 4138 H 393.656 3.73919 -1.35167 0
M  V30 4139 N 394.653 0.992116 1.22453 0
M  V30 4140 C 395.93 0.583508 1.86694 0
M  V30 4141 C 396.31 -0.9392 1.89056 0
M  V30 4142 O 395.658 -1.82081 1.38053 0
M  V30 4143 C 395.868 1.20304 3.2761 0
M  V30 4144 C 397.216 1.30308 4.0411 0
M  V30 4145 O 398.24 1.15737 3.36873 0
M  V30 4146 O 397.099 1.53615 5.24466 0
M  V30 4147 H 394.193 0.198129 0.802916 0
M  V30 4148 H 396.739 1.08794 1.30238 0
M  V30 4149 H 395.511 2.24461 3.2052 0
M  V30 4150 H 395.134 0.684144 3.9167 0
M  V30 4151 N 396.131 -1.37776 0.765217 0
M  V30 4152 C 397.041 -2.34135 0.147666 0
M  V30 4153 C 398.057 -1.59854 -0.687215 0
M  V30 4154 O 399.233 -1.91983 -0.608659 0
M  V30 4155 C 396.298 -3.3901 -0.72617 0
M  V30 4156 C 395.359 -4.2912 0.124417 0
M  V30 4157 C 394.592 -5.28986 -0.707807 0
M  V30 4158 O 394.815 -5.36205 -1.94525 0
M  V30 4159 O 393.749 -6.01779 -0.12046 0
M  V30 4160 H 397.575 -2.88664 0.943758 0
M  V30 4161 H 395.16 -1.39824 0.526277 0
M  V30 4162 H 397.042 -4.03195 -1.22524 0
M  V30 4163 H 395.717 -2.86819 -1.50056 0
M  V30 4164 H 394.624 -3.68057 0.669696 0
M  V30 4165 H 395.957 -4.84598 0.861736 0
M  V30 4166 N 397.609 -0.515225 -1.4894 0
M  V30 4167 C 399.025 -0.172099 -1.58669 0
M  V30 4168 C 399.225 1.32405 -1.51892 0
M  V30 4169 O 398.281 2.10116 -1.40027 0
M  V30 4170 C 399.594 -0.761533 -2.90897 0
M  V30 4171 C 401.142 -0.728926 -3.04394 0
M  V30 4172 C 401.617 -1.29667 -4.39261 0
M  V30 4173 N 403.108 -1.25799 -4.4579 0
M  V30 4174 C 403.843 -1.66733 -5.48623 0
M  V30 4175 N 403.339 -2.15327 -6.58488 0
M  V30 4176 N 405.132 -1.58061 -5.39419 0
M  V30 4177 H 397.283 -1.48778 -1.51588 0
M  V30 4178 H 399.546 -0.617968 -0.718901 0
M  V30 4179 H 399.252 -1.81136 -3.01468 0
M  V30 4180 H 399.126 -0.230106 -3.76497 0
M  V30 4181 H 401.513 0.312098 -2.93445 0
M  V30 4182 H 401.594 -1.29766 -2.20442 0
M  V30 4183 H 401.238 -2.33655 -4.50963 0
M  V30 4184 H 401.168 -0.703752 -5.21876 0
M  V30 4185 H 403.659 -0.902102 -3.66975 0
M  V30 4186 H 403.972 -2.44594 -7.33071 0
M  V30 4187 H 402.317 -2.19311 -6.59491 0
M  V30 4188 H 405.508 -1.19906 -4.52482 0
M  V30 4189 H 405.681 -1.90284 -6.19432 0
M  V30 4190 N 399.087 1.5561 -0.249682 0
M  V30 4191 C 399.997 2.25143 0.659375 0
M  V30 4192 C 401.013 1.2685 1.19101 0
M  V30 4193 O 402.189 1.59732 1.22669 0
M  V30 4194 C 399.254 2.93945 1.8384 0
M  V30 4195 C 398.315 4.07655 1.34596 0
M  V30 4196 C 397.548 4.73167 2.46878 0
M  V30 4197 O 397.771 4.37768 3.65671 0
M  V30 4198 O 396.705 5.61623 2.16478 0
M  V30 4199 H 400.531 3.03545 0.0968698 0
M  V30 4200 H 398.116 1.49389 -0.018074 0
M  V30 4201 H 399.998 3.37271 2.52638 0
M  V30 4202 H 398.673 2.18481 2.38847 0
M  V30 4203 H 397.58 3.68839 0.625174 0
M  V30 4204 H 398.913 4.84946 0.841941 0
M  V30 4205 N 400.565 -0.0233959 1.57583 0
M  V30 4206 C 401.795 -0.723631 1.93513 0
M  V30 4207 C 402.203 -1.69115 0.848333 0
M  V30 4208 O 401.546 -1.82781 -0.183484 0
M  V30 4209 C 401.608 -1.53075 3.25282 0
M  V30 4210 C 401.272 -0.727388 4.51174 0
M  V30 4211 C 402.269 -0.0251924 5.19894 0
M  V30 4212 C 399.954 -0.680256 4.97672 0
M  V30 4213 C 401.948 0.713374 6.33395 0
M  V30 4214 C 399.635 0.0620523 6.11068 0
M  V30 4215 C 400.633 0.757622 6.78785 0
M  V30 4216 O 400.321 1.48787 7.90011 0
M  V30 4217 H 400.053 -0.208051 0.643188 0
M  V30 4218 H 402.607 0.0167489 2.05393 0
M  V30 4219 H 400.837 -2.31508 3.09744 0
M  V30 4220 H 402.526 -2.11413 3.46496 0
M  V30 4221 H 403.292 -0.0526003 4.84971 0
M  V30 4222 H 399.171 -1.21116 4.44805 0
M  V30 4223 H 402.715 1.25683 6.86185 0
M  V30 4224 H 398.612 0.0913634 6.45435 0
M  V30 4225 H 399.38 1.40213 8.06401 0
M  V30 4226 N 402.043 -1.548 -0.295768 0
M  V30 4227 C 403.29 -1.74329 -1.03032 0
M  V30 4228 C 403.618 -0.531915 -1.87085 0
M  V30 4229 O 402.873 0.486052 -1.89568 0
M  V30 4230 C 403.172 -2.98797 -1.961 0
M  V30 4231 C 402.838 -4.32356 -1.2798 0
M  V30 4232 C 401.5 -4.68661 -1.09135 0
M  V30 4233 C 403.852 -5.15128 -0.793243 0
M  V30 4234 C 401.18 -5.85312 -0.403269 0
M  V30 4235 C 403.532 -6.32488 -0.118854 0
M  V30 4236 C 402.196 -6.6745 0.0815043 0
M  V30 4237 H 401.466 -0.637916 -0.37702 0
M  V30 4238 H 404.113 -1.8906 -0.304696 0
M  V30 4239 H 402.418 -2.78869 -2.75207 0
M  V30 4240 H 404.115 -3.11102 -2.53015 0
M  V30 4241 H 400.705 -4.03808 -1.43655 0
M  V30 4242 H 404.889 -4.87575 -0.92653 0
M  V30 4243 H 400.145 -6.1094 -0.237098 0
M  V30 4244 H 404.319 -6.95892 0.266035 0
M  V30 4245 H 401.946 -7.57695 0.616685 0
M  V30 4246 N 403.521 0.559213 -1.47345 0
M  V30 4247 C 404.746 1.34676 -1.57725 0
M  V30 4248 C 405.171 1.86723 -0.227164 0
M  V30 4249 O 404.529 1.6286 0.796642 0
M  V30 4250 C 404.577 2.49399 -2.60447 0
M  V30 4251 O 403.681 3.51567 -2.15578 0
M  V30 4252 H 403.022 0.400115 -0.52991 0
M  V30 4253 H 405.552 0.676009 -1.93109 0
M  V30 4254 H 405.562 2.95996 -2.80803 0
M  V30 4255 H 404.237 2.10873 -3.58477 0
M  V30 4256 H 402.814 3.11289 -2.05313 0
M  V30 4257 N 404.999 1.35443 0.805782 0
M  V30 4258 C 405.946 1.28431 1.91766 0
M  V30 4259 C 406.916 0.156102 1.65365 0
M  V30 4260 O 408.101 0.339936 1.87747 0
M  V30 4261 C 405.241 1.06301 3.2832 0
M  V30 4262 C 404.354 2.2805 3.66902 0
M  V30 4263 C 403.489 1.99064 4.92491 0
M  V30 4264 C 402.528 3.16863 5.23703 0
M  V30 4265 N 401.665 2.87647 6.40471 0
M  V30 4266 H 406.505 2.23511 1.97096 0
M  V30 4267 H 404.042 1.11105 0.964054 0
M  V30 4268 H 406 0.915012 4.07042 0
M  V30 4269 H 404.63 0.148822 3.22457 0
M  V30 4270 H 403.682 2.53711 2.83434 0
M  V30 4271 H 404.994 3.1601 3.85927 0
M  V30 4272 H 404.148 1.81099 5.7904 0
M  V30 4273 H 402.887 1.0839 4.75503 0
M  V30 4274 H 401.892 3.35404 4.35642 0
M  V30 4275 H 403.117 4.08339 5.4262 0
M  V30 4276 H 401.063 1.99568 6.24907 0
M  V30 4277 H 400.98 3.69141 6.59751 0
M  V30 4278 H 402.248 2.73226 7.30047 0
M  V30 4279 N 406.477 -1.02803 1.19454 0
M  V30 4280 C 407.726 -1.7562 0.991996 0
M  V30 4281 C 408.039 -1.89672 -0.477901 0
M  V30 4282 O 409.245 -2.59468 -0.799287 0
M  V30 4283 C 407.701 -3.15812 1.72601 0
M  V30 4284 C 407.309 -3.0981 3.23607 0
M  V30 4285 C 409.053 -3.92918 1.60674 0
M  V30 4286 C 406.96 -4.44939 3.89594 0
M  V30 4287 H 405.89 -0.658352 0.367543 0
M  V30 4288 H 408.541 -1.15044 1.42959 0
M  V30 4289 H 406.923 -3.7686 1.21624 0
M  V30 4290 H 408.097 -2.58138 3.81709 0
M  V30 4291 H 406.412 -2.46201 3.35819 0
M  V30 4292 H 409.009 -4.9287 2.07323 0
M  V30 4293 H 409.352 -4.12502 0.561025 0
M  V30 4294 H 409.885 -3.38472 2.09001 0
M  V30 4295 H 406.624 -4.30559 4.94267 0
M  V30 4296 H 406.144 -4.96664 3.36281 0
M  V30 4297 H 407.823 -5.1382 3.93189 0
M  V30 4298 N 407.956 -0.998596 -1.21925 0
M  V30 4299 C 409.205 -0.673085 -1.90138 0
M  V30 4300 C 409.518 0.79895 -1.78539 0
M  V30 4301 O 410.724 1.23628 -2.4172 0
M  V30 4302 C 409.18 -1.15339 -3.40918 0
M  V30 4303 C 408.788 -2.65106 -3.61141 0
M  V30 4304 C 410.532 -0.902476 -4.14796 0
M  V30 4305 C 408.439 -3.0671 -5.05651 0
M  V30 4306 H 407.369 -0.248057 -0.712028 0
M  V30 4307 H 410.02 -1.20891 -1.38049 0
M  V30 4308 H 408.402 -0.545658 -3.92223 0
M  V30 4309 H 409.576 -3.31274 -3.20304 0
M  V30 4310 H 407.891 -2.88142 -3.00605 0
M  V30 4311 H 410.488 -1.18895 -5.21314 0
M  V30 4312 H 410.831 0.161349 -4.15987 0
M  V30 4313 H 411.364 -1.47269 -3.69536 0
M  V30 4314 H 408.103 -4.12292 -5.09603 0
M  V30 4315 H 407.623 -2.45249 -5.47369 0
M  V30 4316 H 409.302 -2.9833 -5.74115 0
M  V30 4317 N 409.434 1.37368 -0.772513 0
M  V30 4318 C 410.384 2.27613 -0.132823 0
M  V30 4319 C 411.368 1.46138 0.673247 0
M  V30 4320 O 412.56 1.68686 0.536095 0
M  V30 4321 C 409.689 3.35122 0.744864 0
M  V30 4322 C 408.775 4.24044 -0.0690771 0
M  V30 4323 N 409.166 4.93355 -1.1151 0
M  V30 4324 C 407.464 4.45731 0.154782 0
M  V30 4325 C 408.165 5.59 -1.60917 0
M  V30 4326 N 407.141 5.35737 -0.921222 0
M  V30 4327 H 410.943 2.78675 -0.933681 0
M  V30 4328 H 408.457 1.50494 -0.610342 0
M  V30 4329 H 410.454 3.98683 1.21892 0
M  V30 4330 H 409.114 2.85616 1.54446 0
M  V30 4331 H 410.125 4.95785 -1.49726 0
M  V30 4332 H 406.802 4.07096 0.926224 0
M  V30 4333 H 408.192 6.24395 -2.48153 0
M  V30 4334 N 410.912 0.523116 1.48665 0
M  V30 4335 C 411.844 -0.280421 2.27478 0
M  V30 4336 C 412.857 -0.910694 1.34945 0
M  V30 4337 O 414.046 -0.790295 1.60052 0
M  V30 4338 C 411.146 -1.41171 3.08097 0
M  V30 4339 C 410.319 -0.884642 4.28361 0
M  V30 4340 C 409.378 -1.89622 4.90846 0
M  V30 4341 O 408.404 -1.4559 5.50265 0
M  V30 4342 N 409.606 -3.22801 4.82472 0
M  V30 4343 H 412.371 0.395481 2.97079 0
M  V30 4344 H 409.932 0.357018 1.57915 0
M  V30 4345 H 411.924 -2.08645 3.4677 0
M  V30 4346 H 410.494 -1.99139 2.40961 0
M  V30 4347 H 409.714 -0.0341177 3.94185 0
M  V30 4348 H 411.002 -0.511268 5.06225 0
M  V30 4349 H 410.4 -3.61246 4.35336 0
M  V30 4350 H 408.957 -3.85927 5.25265 0
M  V30 4351 N 412.39 -1.55475 0.257931 0
M  V30 4352 C 413.322 -2.19192 -0.669881 0
M  V30 4353 C 414.335 -1.17148 -1.1305 0
M  V30 4354 O 415.524 -1.43959 -1.05537 0
M  V30 4355 C 412.624 -2.79016 -1.92363 0
M  V30 4356 C 411.797 -4.06586 -1.61265 0
M  V30 4357 C 410.856 -4.50622 -2.7171 0
M  V30 4358 O 409.882 -5.16765 -2.38627 0
M  V30 4359 N 411.084 -4.19325 -4.01431 0
M  V30 4360 H 413.849 -2.99441 -0.124635 0
M  V30 4361 H 411.41 -1.6171 0.0783311 0
M  V30 4362 H 413.402 -3.05427 -2.65511 0
M  V30 4363 H 411.972 -2.0286 -2.37837 0
M  V30 4364 H 411.192 -3.87646 -0.715811 0
M  V30 4365 H 412.48 -4.89737 -1.37967 0
M  V30 4366 H 411.878 -3.66247 -4.31138 0
M  V30 4367 H 410.435 -4.50547 -4.7101 0
M  V30 4368 N 413.868 0.0150385 -1.57593 0
M  V30 4369 C 415.098 0.713359 -1.93894 0
M  V30 4370 C 415.506 1.68663 -0.857289 0
M  V30 4371 O 414.849 1.82876 0.173788 0
M  V30 4372 C 414.911 1.51348 -3.26089 0
M  V30 4373 C 414.575 0.703451 -4.51554 0
M  V30 4374 C 415.572 -0.00237924 -5.199 0
M  V30 4375 C 413.257 0.653854 -4.98026 0
M  V30 4376 C 415.251 -0.746955 -6.33008 0
M  V30 4377 C 412.938 -0.0944578 -6.11027 0
M  V30 4378 C 413.936 -0.793609 -6.78374 0
M  V30 4379 O 413.624 -1.52974 -7.89211 0
M  V30 4380 H 413.356 0.204637 -0.644282 0
M  V30 4381 H 415.91 -0.0276411 -2.05381 0
M  V30 4382 H 414.14 2.29862 -3.10967 0
M  V30 4383 H 415.829 2.09572 -3.47612 0
M  V30 4384 H 416.595 0.0268803 -4.84993 0
M  V30 4385 H 412.474 1.18756 -4.45441 0
M  V30 4386 H 416.018 -1.2932 -6.85509 0
M  V30 4387 H 411.915 -0.125591 -6.45378 0
M  V30 4388 H 412.683 -1.44488 -8.05646 0
M  V30 4389 N 415.346 1.54954 0.287554 0
M  V30 4390 C 416.279 1.81737 1.3801 0
M  V30 4391 C 417.257 0.669412 1.48181 0
M  V30 4392 O 418.441 0.910839 1.65033 0
M  V30 4393 C 415.568 1.96606 2.75796 0
M  V30 4394 C 414.614 3.19098 2.82982 0
M  V30 4395 S 415.447 4.7683 2.43707 0
M  V30 4396 C 416.603 4.94653 3.83496 0
M  V30 4397 H 416.836 2.74122 1.15085 0
M  V30 4398 H 414.369 1.46538 0.486403 0
M  V30 4399 H 416.327 2.05858 3.55152 0
M  V30 4400 H 414.988 1.05136 2.95982 0
M  V30 4401 H 414.181 3.26344 3.84077 0
M  V30 4402 H 413.783 3.08361 2.11635 0
M  V30 4403 H 416.075 4.79502 4.78628 0
M  V30 4404 H 417.018 5.96728 3.8121 0
M  V30 4405 H 417.426 4.2272 3.74123 0
M  V30 4406 N 416.824 -0.551391 1.4764 0
M  V30 4407 C 418.07 -1.31024 1.54792 0
M  V30 4408 C 418.403 -1.9304 0.211967 0
M  V30 4409 O 417.678 -1.78175 -0.77999 0
M  V30 4410 C 417.961 -2.41593 2.67029 0
M  V30 4411 C 417.814 -1.84408 4.10261 0
M  V30 4412 C 419.133 -3.43488 2.75143 0
M  V30 4413 H 416.252 -0.475031 0.563485 0
M  V30 4414 H 418.894 -0.616454 1.79722 0
M  V30 4415 H 417.044 -3.00772 2.45904 0
M  V30 4416 H 418.716 -1.29445 4.42766 0
M  V30 4417 H 416.959 -1.15051 4.18265 0
M  V30 4418 H 417.63 -2.64367 4.84576 0
M  V30 4419 H 420.106 -2.94236 2.94218 0
M  V30 4420 H 418.982 -4.18274 3.55441 0
M  V30 4421 H 419.243 -4.02703 1.82435 0
M  V30 4422 N 418.302 -1.35869 -0.798587 0
M  V30 4423 C 419.579 -1.20145 -1.54352 0
M  V30 4424 C 419.959 0.216161 -2.0999 0
M  V30 4425 O 419.307 1.22068 -1.93162 0
M  V30 4426 C 419.517 -2.27602 -2.64572 0
M  V30 4427 C 420.865 -2.63811 -3.32699 0
M  V30 4428 O 421.889 -2.26576 -2.74849 0
M  V30 4429 O 420.748 -3.27866 -4.37226 0
M  V30 4430 H 417.842 -0.467248 -0.682355 0
M  V30 4431 H 420.388 -1.47574 -0.837859 0
M  V30 4432 H 419.16 -3.2265 -2.21388 0
M  V30 4433 H 418.783 -2.01488 -3.42766 0
M  V30 4434 N 419.78 1.02168 -1.19998 0
M  V30 4435 C 420.743 2.08765 -0.94604 0
M  V30 4436 C 421.743 1.60618 0.0763846 0
M  V30 4437 O 422.933 1.73472 -0.159135 0
M  V30 4438 C 420.065 3.38262 -0.423255 0
M  V30 4439 H 421.258 2.32726 -1.89153 0
M  V30 4440 H 418.811 1.1889 -1.01464 0
M  V30 4441 H 419.546 3.19974 0.527938 0
M  V30 4442 H 419.331 3.74532 -1.16053 0
M  V30 4443 H 420.821 4.16759 -0.264911 0
M  V30 4444 N 421.258 1.00505 1.21394 0
M  V30 4445 C 422.498 0.696149 1.9218 0
M  V30 4446 C 422.862 -0.759099 1.76357 0
M  V30 4447 O 424.063 -1.17998 2.41516 0
M  V30 4448 C 422.334 1.10571 3.39866 0
M  V30 4449 S 423.893 0.91702 4.29111 0
M  V30 4450 H 420.711 0.254147 0.664026 0
M  V30 4451 H 423.313 1.28988 1.46909 0
M  V30 4452 H 422.017 2.16096 3.489 0
M  V30 4453 H 421.548 0.504268 3.90155 0
M  V30 4454 H 423.563 -0.185855 4.95852 0
M  V30 4455 N 422.737 -1.36956 0.779787 0
M  V30 4456 C 423.667 -2.32761 0.185651 0
M  V30 4457 C 424.648 -1.56177 -0.673989 0
M  V30 4458 O 425.833 -1.84378 -0.609797 0
M  V30 4459 C 422.963 -3.40418 -0.687964 0
M  V30 4460 C 421.917 -4.27941 0.0710102 0
M  V30 4461 C 421.243 -5.26681 -0.922573 0
M  V30 4462 C 422.543 -5.07006 1.25467 0
M  V30 4463 H 424.237 -2.82698 0.986008 0
M  V30 4464 H 421.783 -1.3592 0.475592 0
M  V30 4465 H 423.736 -4.06423 -1.11348 0
M  V30 4466 H 422.46 -2.89025 -1.52093 0
M  V30 4467 H 421.119 -3.63478 0.47739 0
M  V30 4468 H 420.767 -4.71565 -1.7503 0
M  V30 4469 H 420.467 -5.86103 -0.419237 0
M  V30 4470 H 421.991 -5.9556 -1.34686 0
M  V30 4471 H 423.405 -5.66105 0.905401 0
M  V30 4472 H 421.802 -5.75793 1.69063 0
M  V30 4473 H 422.872 -4.3921 2.05481 0
M  V30 4474 N 424.215 -0.530993 -1.48385 0
M  V30 4475 C 425.461 0.00274135 -2.028 0
M  V30 4476 C 425.794 1.33838 -1.40716 0
M  V30 4477 O 425.069 1.86465 -0.553277 0
M  V30 4478 C 425.352 0.123676 -3.59888 0
M  V30 4479 C 425.205 -1.2372 -4.3245 0
M  V30 4480 C 426.524 0.849967 -4.31814 0
M  V30 4481 H 423.643 -0.000477758 -0.737 0
M  V30 4482 H 426.285 -0.688217 -1.77098 0
M  V30 4483 H 424.435 0.712157 -3.81917 0
M  V30 4484 H 426.107 -1.86687 -4.21836 0
M  V30 4485 H 424.35 -1.81882 -3.93829 0
M  V30 4486 H 425.021 -1.10557 -5.40815 0
M  V30 4487 H 427.497 0.350572 -4.14621 0
M  V30 4488 H 426.373 0.903486 -5.41413 0
M  V30 4489 H 426.634 1.90047 -3.99167 0
M  V30 4490 N 425.693 1.55336 -0.266172 0
M  V30 4491 C 426.64 2.22172 0.625165 0
M  V30 4492 C 427.61 1.19211 1.15663 0
M  V30 4493 O 428.795 1.47723 1.20758 0
M  V30 4494 C 425.935 2.93972 1.8076 0
M  V30 4495 C 425.048 4.11632 1.31084 0
M  V30 4496 C 424.183 4.71099 2.45436 0
M  V30 4497 C 423.222 5.8097 1.92718 0
M  V30 4498 N 422.359 6.34538 3.00509 0
M  V30 4499 H 427.199 2.9796 0.0485582 0
M  V30 4500 H 424.736 1.47095 0.0122024 0
M  V30 4501 H 426.694 3.33811 2.50251 0
M  V30 4502 H 425.324 2.20623 2.35638 0
M  V30 4503 H 424.376 3.76975 0.509326 0
M  V30 4504 H 425.688 4.90893 0.884633 0
M  V30 4505 H 424.842 5.13612 3.22936 0
M  V30 4506 H 423.581 3.91096 2.91368 0
M  V30 4507 H 422.586 5.37916 1.13695 0
M  V30 4508 H 423.811 6.62836 1.47733 0
M  V30 4509 H 421.757 5.57433 3.45839 0
M  V30 4510 H 421.674 7.09046 2.62279 0
M  V30 4511 H 422.942 6.81709 3.78011 0
M  V30 4512 N 427.171 -0.0066808 1.57599 0
M  V30 4513 C 428.081 -1.01671 2.11424 0
M  V30 4514 C 429.097 -1.38143 1.05795 0
M  V30 4515 O 430.273 -1.47011 1.37658 0
M  V30 4516 C 427.338 -2.29192 2.60139 0
M  V30 4517 C 426.399 -1.99094 3.80342 0
M  V30 4518 C 425.632 -3.20535 4.26724 0
M  V30 4519 O 425.855 -4.3199 3.72479 0
M  V30 4520 O 424.789 -3.04924 5.18946 0
M  V30 4521 H 428.615 -0.589181 2.9793 0
M  V30 4522 H 426.2 -0.225091 1.47695 0
M  V30 4523 H 428.082 -3.0412 2.917 0
M  V30 4524 H 426.757 -2.71195 1.76733 0
M  V30 4525 H 425.664 -1.21663 3.53764 0
M  V30 4526 H 426.997 -1.61931 4.648 0
M  V30 4527 N 428.649 -1.55105 -0.279332 0
M  V30 4528 C 429.879 -1.7917 -1.02867 0
M  V30 4529 C 430.287 -0.56204 -1.80659 0
M  V30 4530 O 429.63 0.478266 -1.77365 0
M  V30 4531 C 429.692 -2.96061 -2.03932 0
M  V30 4532 C 429.356 -4.33341 -1.45137 0
M  V30 4533 C 430.353 -5.12565 -0.870266 0
M  V30 4534 C 428.038 -4.79987 -1.48048 0
M  V30 4535 C 430.032 -6.36565 -0.326097 0
M  V30 4536 C 427.719 -6.03944 -0.932443 0
M  V30 4537 C 428.717 -6.8207 -0.356247 0
M  V30 4538 O 428.405 -8.03691 0.183412 0
M  V30 4539 H 428.137 -0.600796 -0.309872 0
M  V30 4540 H 430.691 -2.02932 -0.317468 0
M  V30 4541 H 428.921 -2.67975 -2.78794 0
M  V30 4542 H 430.61 -3.07506 -2.64943 0
M  V30 4543 H 431.376 -4.77661 -0.840521 0
M  V30 4544 H 427.255 -4.1919 -1.91835 0
M  V30 4545 H 430.799 -6.97489 0.124286 0
M  V30 4546 H 426.696 -6.3833 -0.959407 0
M  V30 4547 H 427.464 -8.18468 0.0721681 0
M  V30 4548 N 430.127 0.543554 -1.4793 0
M  V30 4549 C 431.538 1.12561 -1.48953 0
M  V30 4550 C 431.889 1.94578 -0.251754 0
M  V30 4551 O 431.014 2.0665 0.642255 0
M  V30 4552 C 431.609 2.04801 -2.69892 0
M  V30 4553 C 430.168 2.58251 -2.73831 0
M  V30 4554 C 429.315 1.34918 -2.42265 0
M  V30 4555 H 432.266 0.32947 -1.55242 0
M  V30 4556 H 432.287 2.88886 -2.47639 0
M  V30 4557 H 431.799 1.4508 -3.59963 0
M  V30 4558 H 429.9 3.21732 -1.87934 0
M  V30 4559 H 430.013 2.98312 -3.74895 0
M  V30 4560 H 428.377 1.66046 -1.93134 0
M  V30 4561 H 429.16 0.769693 -3.3456 0
M  V30 4562 N 431.605 1.3629 0.791371 0
M  V30 4563 C 432.833 1.33562 1.58016 0
M  V30 4564 C 433.248 -0.0835616 1.88615 0
M  V30 4565 O 432.605 -1.0399 1.49974 0
M  V30 4566 C 432.656 2.15517 2.90232 0
M  V30 4567 O 432.377 3.51902 2.60953 0
M  V30 4568 C 433.878 2.20546 3.84544 0
M  V30 4569 H 431.098 0.458226 0.490173 0
M  V30 4570 H 433.642 1.79361 0.982345 0
M  V30 4571 H 431.797 1.73278 3.46487 0
M  V30 4572 H 432.211 3.94644 3.4548 0
M  V30 4573 H 433.685 2.82252 4.74382 0
M  V30 4574 H 434.162 1.20838 4.2225 0
M  V30 4575 H 434.768 2.63013 3.34222 0
M  V30 4576 N 433.083 -1.0153 1.20538 0
M  V30 4577 C 434.332 -1.74558 1.01057 0
M  V30 4578 C 434.645 -1.90168 -0.457756 0
M  V30 4579 O 435.851 -2.60301 -0.771722 0
M  V30 4580 C 434.307 -3.13963 1.75941 0
M  V30 4581 C 433.915 -3.06361 3.26875 0
M  V30 4582 C 435.659 -3.91191 1.64832 0
M  V30 4583 C 433.566 -4.40782 3.94291 0
M  V30 4584 H 432.496 -0.654417 0.374505 0
M  V30 4585 H 435.147 -1.13521 1.44171 0
M  V30 4586 H 433.529 -3.75549 1.25614 0
M  V30 4587 H 434.703 -2.54074 3.84425 0
M  V30 4588 H 433.018 -2.42625 3.38411 0
M  V30 4589 H 435.615 -4.90644 2.12539 0
M  V30 4590 H 435.958 -4.11884 0.604745 0
M  V30 4591 H 436.491 -3.36236 2.12579 0
M  V30 4592 H 433.23 -4.25292 4.98805 0
M  V30 4593 H 432.75 -4.9307 3.41529 0
M  V30 4594 H 434.429 -5.09621 3.98617 0
M  V30 4595 N 434.561 -1.01147 -1.20859 0
M  V30 4596 C 435.786 -0.716698 -1.94623 0
M  V30 4597 C 436.211 0.715415 -1.73964 0
M  V30 4598 O 435.569 1.49157 -1.03062 0
M  V30 4599 C 435.617 -1.0513 -3.44935 0
M  V30 4600 O 434.721 -0.160131 -4.12089 0
M  V30 4601 H 434.062 -0.266404 -0.608214 0
M  V30 4602 H 436.592 -1.35346 -1.53436 0
M  V30 4603 H 436.602 -1.00086 -3.95533 0
M  V30 4604 H 435.277 -2.09475 -3.59295 0
M  V30 4605 H 433.854 -0.267657 -3.71938 0
M  V30 4606 N 436.039 1.36541 -0.78704 0
M  V30 4607 C 437.287 1.98911 -0.357633 0
M  V30 4608 C 437.608 1.62778 1.07371 0
M  V30 4609 O 436.878 0.900612 1.73971 0
M  V30 4610 H 435.458 0.735734 -0.129246 0
M  V30 4611 H 438.12 1.66776 -1.00855 0
M  V30 4612 H 437.216 3.08874 -0.447549 0
M  V30 4613 N 437.518 0.538854 1.48102 0
M  V30 4614 C 438.748 0.0122958 2.06596 0
M  V30 4615 C 439.156 -1.27861 1.39457 0
M  V30 4616 O 438.499 -1.77348 0.478907 0
M  V30 4617 C 438.561 -0.273131 3.58461 0
M  V30 4618 C 438.225 0.92561 4.47528 0
M  V30 4619 C 439.222 1.82637 4.86765 0
M  V30 4620 C 436.907 1.13511 4.89306 0
M  V30 4621 C 438.901 2.92047 5.66558 0
M  V30 4622 C 436.588 2.23233 5.68868 0
M  V30 4623 C 437.586 3.12333 6.07402 0
M  V30 4624 O 437.274 4.20155 6.85365 0
M  V30 4625 H 437.006 0.0344283 0.675123 0
M  V30 4626 H 439.56 0.746494 1.91355 0
M  V30 4627 H 437.79 -1.06141 3.71848 0
M  V30 4628 H 439.479 -0.742842 3.99045 0
M  V30 4629 H 440.245 1.67649 4.55103 0
M  V30 4630 H 436.124 0.450835 4.5879 0
M  V30 4631 H 439.668 3.6162 5.96554 0
M  V30 4632 H 435.565 2.38201 5.99942 0
M  V30 4633 H 436.333 4.17975 7.03732 0
M  V30 4634 N 438.996 -1.55193 0.274407 0
M  V30 4635 C 440.242 -1.99877 -0.343086 0
M  V30 4636 C 440.575 -1.16256 -1.55558 0
M  V30 4637 O 439.85 -0.232462 -1.93106 0
M  V30 4638 C 440.133 -3.52706 -0.725965 0
M  V30 4639 C 439.986 -4.47081 0.493818 0
M  V30 4640 C 441.305 -4.11422 -1.56268 0
M  V30 4641 H 438.424 -0.726625 -0.123229 0
M  V30 4642 H 441.066 -1.86136 0.38121 0
M  V30 4643 H 439.216 -3.64546 -1.34307 0
M  V30 4644 H 440.888 -4.47186 1.13237 0
M  V30 4645 H 439.131 -4.1877 1.13201 0
M  V30 4646 H 439.802 -5.51699 0.18217 0
M  V30 4647 H 442.278 -4.02855 -1.04151 0
M  V30 4648 H 441.154 -5.18568 -1.79939 0
M  V30 4649 H 441.415 -3.61607 -2.54348 0
M  V30 4650 N 440.474 -0.00167713 -1.576 0
M  V30 4651 C 441.885 0.54091 -1.78693 0
M  V30 4652 C 442.236 1.7386 -0.909247 0
M  V30 4653 O 441.361 2.16109 -0.112176 0
M  V30 4654 C 441.956 0.98806 -3.24072 0
M  V30 4655 C 440.515 1.47594 -3.46256 0
M  V30 4656 C 439.662 0.42792 -2.73978 0
M  V30 4657 H 442.613 -0.22784 -1.57056 0
M  V30 4658 H 442.634 1.85398 -3.32277 0
M  V30 4659 H 442.146 0.116164 -3.87926 0
M  V30 4660 H 440.247 2.36868 -2.87618 0
M  V30 4661 H 440.36 1.50225 -4.54939 0
M  V30 4662 H 438.724 0.889934 -2.38647 0
M  V30 4663 H 439.507 -0.435038 -3.40532 0
M  V30 4664 N 441.952 1.55251 0.271103 0
M  V30 4665 C 443.229 1.66664 1.02384 0
M  V30 4666 C 443.609 0.534363 2.04225 0
M  V30 4667 O 442.957 -0.465337 2.23712 0
M  V30 4668 C 443.167 3.05961 1.67895 0
M  V30 4669 C 444.515 3.63772 2.18986 0
M  V30 4670 O 445.539 3.08606 1.77878 0
M  V30 4671 O 444.398 4.60429 2.94393 0
M  V30 4672 H 441.492 0.676957 0.475035 0
M  V30 4673 H 444.038 1.67589 0.26681 0
M  V30 4674 H 442.81 3.79815 0.941071 0
M  V30 4675 H 442.433 3.08943 2.5028 0
M  V30 4676 N 443.43 -0.535701 1.48216 0
M  V30 4677 C 444.378 -1.66179 1.62749 0
M  V30 4678 C 445.372 -1.62034 0.49409 0
M  V30 4679 O 446.578 -1.6696 0.672624 0
M  V30 4680 H 442.953 -0.550244 0.512578 0
M  V30 4681 H 444.924 -1.51063 2.57337 0
M  V30 4682 C 443.673 -3.04471 1.67907 0
M  V30 4683 H 442.996 -3.08351 2.54479 0
M  V30 4684 H 444.436 -3.82894 1.82121 0
M  V30 4685 C 442.895 -3.34314 0.416596 0
M  V30 4686 O 443.425 -3.98905 -0.473014 0
M  V30 4687 N 441.631 -2.89149 0.290038 0
M  V30 4688 H 441.178 -2.36764 1.01493 0
M  V30 4689 H 441.136 -3.09486 -0.55367 0
M  V30 4690 N 444.908 -1.36708 -0.784132 0
M  V30 4691 C 445.841 -1.25827 -1.90375 0
M  V30 4692 C 446.819 -0.141331 -1.61985 0
M  V30 4693 O 448.003 -0.313389 -1.85877 0
M  V30 4694 C 445.13 -0.942621 -3.25319 0
M  V30 4695 C 444.176 -2.07474 -3.72635 0
M  V30 4696 S 445.009 -3.69317 -3.8777 0
M  V30 4697 C 446.165 -3.39876 -5.25581 0
M  V30 4698 H 446.398 -2.20593 -1.99314 0
M  V30 4699 H 443.931 -1.22186 -0.943926 0
M  V30 4700 H 445.889 -0.767321 -4.03265 0
M  V30 4701 H 444.55 -0.0126566 -3.14097 0
M  V30 4702 H 443.743 -1.80858 -4.70432 0
M  V30 4703 H 443.345 -2.20953 -3.01754 0
M  V30 4704 H 445.637 -2.94097 -6.10339 0
M  V30 4705 H 446.58 -4.36956 -5.57203 0
M  V30 4706 H 446.988 -2.75098 -4.92931 0
M  V30 4707 N 446.386 1.0089 -1.21074 0
M  V30 4708 C 447.802 1.2695 -0.967257 0
M  V30 4709 C 448.002 1.9846 0.348673 0
M  V30 4710 O 447.058 2.28459 1.0753 0
M  V30 4711 C 448.371 2.09697 -2.15517 0
M  V30 4712 C 449.919 2.22937 -2.197 0
M  V30 4713 C 450.394 3.09064 -3.37999 0
M  V30 4714 N 451.885 3.16653 -3.38061 0
M  V30 4715 C 452.62 3.8354 -4.26245 0
M  V30 4716 N 452.116 4.52488 -5.2462 0
M  V30 4717 N 453.909 3.80141 -4.14064 0
M  V30 4718 H 446.06 0.529005 -2.05707 0
M  V30 4719 H 448.323 0.296148 -0.900556 0
M  V30 4720 H 448.029 1.64497 -3.10859 0
M  V30 4721 H 447.903 3.10444 -2.14253 0
M  V30 4722 H 450.29 2.67357 -1.24916 0
M  V30 4723 H 450.371 1.21673 -2.2501 0
M  V30 4724 H 450.015 2.65347 -4.33074 0
M  V30 4725 H 449.945 4.10433 -3.29928 0
M  V30 4726 H 452.436 2.67566 -2.66865 0
M  V30 4727 H 452.749 5.01219 -5.88217 0
M  V30 4728 H 451.094 4.51288 -5.28549 0
M  V30 4729 H 454.285 3.25427 -3.36474 0
M  V30 4730 H 454.458 4.31992 -4.82998 0
M  V30 4731 N 447.864 1.01787 1.20321 0
M  V30 4732 C 449.275 0.739307 1.71438 0
M  V30 4733 C 449.626 -0.742041 1.81627 0
M  V30 4734 O 448.751 -1.57903 1.47971 0
M  V30 4735 C 449.346 1.33538 3.11373 0
M  V30 4736 C 447.905 1.10566 3.59795 0
M  V30 4737 C 447.052 1.44028 2.36962 0
M  V30 4738 H 450.003 1.18718 1.05317 0
M  V30 4739 H 450.024 0.726611 3.73498 0
M  V30 4740 H 449.536 2.41352 3.03926 0
M  V30 4741 H 447.637 0.0452405 3.72573 0
M  V30 4742 H 447.75 1.78661 4.44542 0
M  V30 4743 H 446.114 0.85933 2.39766 0
M  V30 4744 H 446.897 2.52901 2.32155 0
M  V30 4745 N 449.342 -1.36122 0.79427 0
M  V30 4746 C 450.252 -2.33769 0.197296 0
M  V30 4747 C 451.268 -1.61276 -0.653153 0
M  V30 4748 O 452.444 -1.9323 -0.5678 0
M  V30 4749 C 449.509 -3.40474 -0.654098 0
M  V30 4750 C 448.57 -4.28759 0.215411 0
M  V30 4751 C 447.803 -5.30368 -0.595443 0
M  V30 4752 O 448.026 -5.40211 -1.83107 0
M  V30 4753 O 446.96 -6.019 0.00721351 0
M  V30 4754 H 450.786 -2.86597 1.00478 0
M  V30 4755 H 448.371 -1.38676 0.555818 0
M  V30 4756 H 450.253 -4.05703 -1.13944 0
M  V30 4757 H 448.928 -2.89937 -1.43938 0
M  V30 4758 H 447.835 -3.66554 0.747615 0
M  V30 4759 H 449.168 -4.82661 0.964332 0
M  V30 4760 N 450.82 -0.546701 -1.47814 0
M  V30 4761 C 452.236 -0.205717 -1.58269 0
M  V30 4762 C 452.436 1.29153 -1.54667 0
M  V30 4763 O 451.492 2.07098 -1.44453 0
M  V30 4764 C 452.805 -0.823065 -2.89216 0
M  V30 4765 C 454.353 -0.793328 -3.02779 0
M  V30 4766 C 454.828 -1.38955 -4.36412 0
M  V30 4767 N 456.319 -1.35227 -4.43021 0
M  V30 4768 C 457.054 -1.78333 -5.44963 0
M  V30 4769 N 456.55 -2.29246 -6.53772 0
M  V30 4770 N 458.343 -1.69467 -5.35945 0
M  V30 4771 H 450.494 -1.5196 -1.48398 0
M  V30 4772 H 452.757 -0.633078 -0.705632 0
M  V30 4773 H 452.463 -1.8749 -2.97558 0
M  V30 4774 H 452.337 -0.309915 -3.75925 0
M  V30 4775 H 454.724 0.249784 -2.94041 0
M  V30 4776 H 454.805 -1.34412 -2.17639 0
M  V30 4777 H 454.449 -2.43168 -4.45906 0
M  V30 4778 H 454.379 -0.814291 -5.20266 0
M  V30 4779 H 456.87 -0.979739 -3.64979 0
M  V30 4780 H 457.183 -2.60089 -7.27718 0
M  V30 4781 H 455.528 -2.3325 -6.5469 0
M  V30 4782 H 458.719 -1.29477 -4.49837 0
M  V30 4783 H 458.892 -2.03381 -6.15256 0
M  V30 4784 N 452.299 1.55045 -0.282633 0
M  V30 4785 C 453.229 2.2579 0.595066 0
M  V30 4786 C 454.21 1.25074 1.15284 0
M  V30 4787 O 455.395 1.5381 1.18559 0
M  V30 4788 C 452.525 2.98472 1.77572 0
M  V30 4789 C 451.479 4.0618 1.34914 0
M  V30 4790 C 450.805 4.66477 2.6135 0
M  V30 4791 C 452.105 5.1996 0.493821 0
M  V30 4792 H 453.799 2.994 0.00505653 0
M  V30 4793 H 451.345 1.44 0.000992001 0
M  V30 4794 H 453.298 3.46677 2.39568 0
M  V30 4795 H 452.022 2.2241 2.39168 0
M  V30 4796 H 450.681 3.58797 0.752338 0
M  V30 4797 H 450.329 3.87074 3.2122 0
M  V30 4798 H 450.029 5.39207 2.33516 0
M  V30 4799 H 451.553 5.17435 3.24181 0
M  V30 4800 H 452.967 5.64172 1.01898 0
M  V30 4801 H 451.364 5.99299 0.310047 0
M  V30 4802 H 452.434 4.82462 -0.485593 0
M  V30 4803 N 453.777 0.010035 1.57597 0
M  V30 4804 C 455.025 -0.671371 1.90623 0
M  V30 4805 C 455.346 -1.73753 0.885151 0
M  V30 4806 O 454.616 -1.95752 -0.0760611 0
M  V30 4807 H 453.196 -0.250968 0.703579 0
M  V30 4808 H 455.858 0.0533325 1.94827 0
M  V30 4809 H 454.954 -1.13626 2.90681 0
M  V30 4810 N 455.255 -1.55392 -0.262866 0
M  V30 4811 C 456.205 -1.85355 -1.32768 0
M  V30 4812 C 457.189 -0.713188 -1.44231 0
M  V30 4813 O 458.381 -0.974765 -1.47741 0
M  V30 4814 C 455.51 -2.13781 -2.68612 0
M  V30 4815 C 454.596 -3.34104 -2.61219 0
M  V30 4816 N 454.987 -4.53766 -2.2345 0
M  V30 4817 C 453.285 -3.36895 -2.92263 0
M  V30 4818 C 453.986 -5.35877 -2.26298 0
M  V30 4819 N 452.962 -4.74536 -2.65172 0
M  V30 4820 H 456.764 -2.75413 -1.02591 0
M  V30 4821 H 454.278 -1.55405 -0.471503 0
M  V30 4822 H 456.275 -2.33407 -3.45437 0
M  V30 4823 H 454.935 -1.25013 -2.99669 0
M  V30 4824 H 455.946 -4.79682 -1.95258 0
M  V30 4825 H 452.623 -2.58351 -3.27965 0
M  V30 4826 H 454.013 -6.41577 -1.99572 0
M  V30 4827 N 456.733 0.527833 -1.48498 0
M  V30 4828 C 457.979 1.28545 -1.56857 0
M  V30 4829 C 458.312 1.92678 -0.242651 0
M  V30 4830 O 457.587 1.79394 0.751545 0
M  V30 4831 C 457.87 2.37314 -2.70839 0
M  V30 4832 C 457.723 1.77858 -4.13142 0
M  V30 4833 C 459.042 3.39068 -2.80573 0
M  V30 4834 H 456.161 0.466006 -0.570971 0
M  V30 4835 H 458.803 0.587784 -1.8068 0
M  V30 4836 H 456.953 2.96821 -2.50658 0
M  V30 4837 H 458.625 1.22385 -4.44769 0
M  V30 4838 H 456.868 1.08383 -4.20042 0
M  V30 4839 H 457.539 2.56624 -4.88721 0
M  V30 4840 H 460.015 2.89518 -2.98862 0
M  V30 4841 H 458.891 4.12566 -3.6205 0
M  V30 4842 H 459.152 3.9975 -1.88818 0
M  V30 4843 N 458.211 1.37122 0.776871 0
M  V30 4844 C 459.144 1.26835 1.89705 0
M  V30 4845 C 460.122 0.14992 1.61907 0
M  V30 4846 O 461.306 0.323242 1.85708 0
M  V30 4847 C 458.433 0.95986 3.24814 0
M  V30 4848 C 457.479 2.09447 3.7153 0
M  V30 4849 S 458.312 3.71368 3.85806 0
M  V30 4850 C 459.468 3.42659 5.23771 0
M  V30 4851 H 459.701 2.21647 1.98141 0
M  V30 4852 H 457.234 1.22685 0.937433 0
M  V30 4853 H 459.192 0.788696 4.02852 0
M  V30 4854 H 457.853 0.0293137 3.14086 0
M  V30 4855 H 457.046 1.8335 4.69467 0
M  V30 4856 H 456.648 2.2255 3.00578 0
M  V30 4857 H 458.94 2.9733 6.0877 0
M  V30 4858 H 459.883 4.39905 5.54878 0
M  V30 4859 H 460.291 2.77708 4.91466 0
M  V30 4860 N 459.689 -1.00246 1.21608 0
M  V30 4861 C 460.935 -1.74319 1.03638 0
M  V30 4862 C 461.268 -1.89408 -0.428749 0
M  V30 4863 O 460.543 -1.43026 -1.3181 0
M  V30 4864 C 460.826 -3.15431 1.73711 0
M  V30 4865 C 460.679 -3.08049 3.27759 0
M  V30 4866 C 461.998 -4.14407 1.48173 0
M  V30 4867 H 459.117 -0.632741 0.377899 0
M  V30 4868 H 461.759 -1.16853 1.49818 0
M  V30 4869 H 459.909 -3.64493 1.34452 0
M  V30 4870 H 461.581 -2.66681 3.76403 0
M  V30 4871 H 459.824 -2.45088 3.57931 0
M  V30 4872 H 460.495 -4.07862 3.71958 0
M  V30 4873 H 462.971 -3.74061 1.82258 0
M  V30 4874 H 461.847 -5.11279 1.99713 0
M  V30 4875 H 462.108 -4.40174 0.412273 0
M  V30 4876 N 461.167 -1.02423 -1.1978 0
M  V30 4877 C 462.397 -0.736387 -1.93031 0
M  V30 4878 C 462.805 0.708023 -1.75453 0
M  V30 4879 O 462.148 1.4927 -1.07071 0
M  V30 4880 C 462.21 -1.00194 -3.45255 0
M  V30 4881 C 461.874 -2.43698 -3.86601 0
M  V30 4882 C 462.871 -3.41814 -3.91738 0
M  V30 4883 C 460.556 -2.77975 -4.18372 0
M  V30 4884 C 462.55 -4.72265 -4.28071 0
M  V30 4885 C 460.237 -4.08636 -4.54378 0
M  V30 4886 C 461.235 -5.05592 -4.59201 0
M  V30 4887 O 460.923 -6.33914 -4.94376 0
M  V30 4888 H 460.655 -0.269116 -0.620123 0
M  V30 4889 H 463.209 -1.37043 -1.52998 0
M  V30 4890 H 461.439 -0.310747 -3.85449 0
M  V30 4891 H 463.128 -0.704488 -3.9974 0
M  V30 4892 H 463.894 -3.16671 -3.67348 0
M  V30 4893 H 459.773 -2.0319 -4.13805 0
M  V30 4894 H 463.317 -5.4794 -4.3175 0
M  V30 4895 H 459.214 -4.33556 -4.78226 0
M  V30 4896 H 459.982 -6.38317 -5.12341 0
M  V30 4897 N 462.645 1.35699 -0.801477 0
M  V30 4898 C 463.875 2.02862 -0.3912 0
M  V30 4899 C 464.283 1.60552 1.00099 0
M  V30 4900 O 463.626 0.796215 1.65548 0
M  V30 4901 C 463.688 3.57386 -0.389299 0
M  V30 4902 C 463.352 4.22943 -1.73113 0
M  V30 4903 C 464.349 4.44984 -2.68859 0
M  V30 4904 C 462.034 4.60167 -2.01373 0
M  V30 4905 C 464.028 5.03345 -3.91053 0
M  V30 4906 C 461.715 5.18243 -3.23832 0
M  V30 4907 C 462.713 5.39773 -4.1849 0
M  V30 4908 O 462.401 5.96626 -5.38788 0
M  V30 4909 H 462.133 0.657341 -0.157732 0
M  V30 4910 H 464.687 1.74407 -1.08496 0
M  V30 4911 H 462.917 3.85011 0.361031 0
M  V30 4912 H 464.606 4.059 -0.0020365 0
M  V30 4913 H 465.372 4.1661 -2.48316 0
M  V30 4914 H 461.251 4.42726 -1.28508 0
M  V30 4915 H 464.795 5.20065 -4.64949 0
M  V30 4916 H 460.692 5.46044 -3.44248 0
M  V30 4917 H 461.46 6.15082 -5.40015 0
M  V30 4918 N 464.123 0.554532 1.47522 0
M  V30 4919 C 465.073 -0.215008 2.26984 0
M  V30 4920 C 466.057 -0.88774 1.34194 0
M  V30 4921 O 467.249 -0.786489 1.58567 0
M  V30 4922 C 464.378 -1.24604 3.19889 0
M  V30 4923 C 463.464 -0.576857 4.20159 0
M  V30 4924 N 463.855 0.351541 5.04577 0
M  V30 4925 C 462.153 -0.831104 4.38188 0
M  V30 4926 C 462.854 0.739995 5.76974 0
M  V30 4927 N 461.83 0.0954407 5.43516 0
M  V30 4928 H 465.632 0.498843 2.89636 0
M  V30 4929 H 463.146 0.374279 1.58028 0
M  V30 4930 H 465.143 -1.81128 3.75498 0
M  V30 4931 H 463.803 -1.96101 2.58794 0
M  V30 4932 H 464.814 0.725556 5.12792 0
M  V30 4933 H 461.491 -1.53479 3.88266 0
M  V30 4934 H 462.881 1.50271 6.5488 0
M  V30 4935 N 465.601 -1.54893 0.290851 0
M  V30 4936 C 467.017 -1.59476 -0.0628432 0
M  V30 4937 C 467.217 -1.30795 -1.5328 0
M  V30 4938 O 466.273 -1.07644 -2.28406 0
M  V30 4939 C 467.586 -2.98928 0.325962 0
M  V30 4940 C 469.134 -3.11799 0.273882 0
M  V30 4941 C 469.609 -4.53544 0.637359 0
M  V30 4942 N 471.1 -4.59433 0.589507 0
M  V30 4943 C 471.835 -5.67164 0.84335 0
M  V30 4944 N 471.331 -6.82975 1.16263 0
M  V30 4945 N 473.124 -5.56786 0.771091 0
M  V30 4946 H 465.275 -1.71798 1.24896 0
M  V30 4947 H 467.538 -0.801879 0.505663 0
M  V30 4948 H 467.244 -3.24805 1.34887 0
M  V30 4949 H 467.118 -3.75793 -0.325441 0
M  V30 4950 H 469.505 -2.85677 -0.739765 0
M  V30 4951 H 469.586 -2.37112 0.959766 0
M  V30 4952 H 469.23 -4.80394 1.64877 0
M  V30 4953 H 469.16 -5.26553 -0.0704866 0
M  V30 4954 H 471.651 -3.76245 0.353252 0
M  V30 4955 H 471.964 -7.61048 1.34257 0
M  V30 4956 H 470.309 -6.84552 1.20057 0
M  V30 4957 H 473.5 -4.65187 0.521383 0
M  V30 4958 H 473.673 -6.40664 0.972295 0
M  V30 4959 N 467.08 -0.0183926 -1.57589 0
M  V30 4960 C 468.326 0.657813 -1.92469 0
M  V30 4961 C 468.681 1.70349 -0.894375 0
M  V30 4962 O 467.974 1.91384 0.0910389 0
M  V30 4963 C 468.168 1.32676 -3.31861 0
M  V30 4964 C 467.997 0.347403 -4.48356 0
M  V30 4965 C 466.767 -0.0488653 -5.05276 0
M  V30 4966 C 468.965 -0.393931 -5.12789 0
M  V30 4967 N 466.947 -1.02451 -6.05291 0
M  V30 4968 C 468.318 -1.22367 -6.07804 0
M  V30 4969 C 470.373 -0.455789 -4.95809 0
M  V30 4970 C 469.076 -2.10966 -6.87667 0
M  V30 4971 C 471.102 -1.32908 -5.76272 0
M  V30 4972 C 470.464 -2.14662 -6.70894 0
M  V30 4973 H 466.563 0.21335 -0.752334 0
M  V30 4974 H 469.147 -0.0830547 -1.94523 0
M  V30 4975 H 467.318 2.03782 -3.30647 0
M  V30 4976 H 469.05 1.95913 -3.54119 0
M  V30 4977 H 465.805 0.323356 -4.72495 0
M  V30 4978 H 466.229 -1.50826 -6.59985 0
M  V30 4979 H 470.871 0.162017 -4.22489 0
M  V30 4980 H 468.589 -2.73807 -7.603 0
M  V30 4981 H 472.175 -1.38109 -5.6517 0
M  V30 4982 H 471.055 -2.81143 -7.32071 0
M  V30 4983 N 468.558 1.5553 0.254621 0
M  V30 4984 C 469.521 1.88872 1.29846 0
M  V30 4985 C 470.521 0.764591 1.41459 0
M  V30 4986 O 471.711 1.03265 1.40293 0
M  V30 4987 C 468.843 2.11032 2.67728 0
M  V30 4988 H 470.036 2.82201 1.01502 0
M  V30 4989 H 467.589 1.48303 0.493556 0
M  V30 4990 H 468.324 1.20146 3.01223 0
M  V30 4991 H 468.109 2.92895 2.60682 0
M  V30 4992 H 469.599 2.38038 3.43115 0
M  V30 4993 N 470.036 -0.519951 1.48776 0
M  V30 4994 C 471.313 -1.28123 1.47797 0
M  V30 4995 C 471.693 -2.10196 0.195157 0
M  V30 4996 O 471.041 -2.13167 -0.822925 0
M  V30 4997 C 471.251 -2.15413 2.74587 0
M  V30 4998 C 472.599 -2.75225 3.23321 0
M  V30 4999 O 473.623 -2.25694 2.75574 0
M  V30 5000 O 472.482 -3.65346 4.06429 0
M  V30 5001 H 469.576 -0.578793 0.590701 0
M  V30 5002 H 472.122 -0.535779 1.6102 0
M  V30 5003 H 470.894 -1.54617 3.59457 0
M  V30 5004 H 470.517 -2.97186 2.64132 0
M  V30 5005 N 471.514 -1.37532 -0.769588 0
M  V30 5006 C 472.791 -1.23392 -1.51768 0
M  V30 5007 C 473.171 0.17157 -2.10402 0
M  V30 5008 O 472.519 1.17943 -1.95708 0
M  V30 5009 C 472.729 -2.33163 -2.59685 0
M  V30 5010 C 474.077 -2.70809 -3.27028 0
M  V30 5011 O 475.101 -2.32355 -2.69981 0
M  V30 5012 O 473.96 -3.37066 -4.30173 0
M  V30 5013 H 471.054 -0.481617 -0.67229 0
M  V30 5014 H 473.6 -1.49318 -0.806368 0
M  V30 5015 H 472.372 -3.27273 -2.14494 0
M  V30 5016 H 471.995 -2.08713 -3.38415 0
M  V30 5017 N 472.992 0.995999 -1.22138 0
M  V30 5018 C 474.403 1.54961 -1.04135 0
M  V30 5019 C 474.754 1.92159 0.396147 0
M  V30 5020 O 473.879 1.74435 1.28069 0
M  V30 5021 C 474.474 2.81581 -1.88408 0
M  V30 5022 C 473.033 3.33396 -1.74712 0
M  V30 5023 C 472.18 2.06509 -1.85066 0
M  V30 5024 H 475.131 0.817436 -1.36028 0
M  V30 5025 H 475.152 3.53822 -1.39966 0
M  V30 5026 H 474.664 2.54476 -2.93025 0
M  V30 5027 H 472.765 3.65416 -0.728159 0
M  V30 5028 H 472.878 4.04208 -2.57202 0
M  V30 5029 H 471.242 2.19925 -1.28472 0
M  V30 5030 H 472.025 1.81804 -2.91208 0
M  V30 5031 N 474.47 1.03057 1.19235 0
M  V30 5032 C 475.42 0.583386 2.2041 0
M  V30 5033 C 476.404 -0.368776 1.56617 0
M  V30 5034 O 477.596 -0.189471 1.75983 0
M  V30 5035 C 474.725 -0.0626534 3.43243 0
M  V30 5036 C 473.811 0.91205 4.14177 0
M  V30 5037 N 474.202 2.07514 4.61272 0
M  V30 5038 C 472.5 0.735859 4.39888 0
M  V30 5039 C 473.201 2.69003 5.15764 0
M  V30 5040 N 472.177 1.96954 5.06666 0
M  V30 5041 H 475.979 1.46988 2.54503 0
M  V30 5042 H 473.493 0.897785 1.35328 0
M  V30 5043 H 475.49 -0.400653 4.1497 0
M  V30 5044 H 474.15 -0.944813 3.1065 0
M  V30 5045 H 475.161 2.45448 4.56043 0
M  V30 5046 H 471.838 -0.0970656 4.17387 0
M  V30 5047 H 473.228 3.67514 5.6248 0
M  V30 5048 N 475.948 -1.35272 0.808662 0
M  V30 5049 C 476.88 -2.28507 0.178149 0
M  V30 5050 C 477.893 -1.50377 -0.623754 0
M  V30 5051 O 479.082 -1.72583 -0.455774 0
M  V30 5052 C 476.182 -3.30038 -0.769959 0
M  V30 5053 C 475.355 -4.37398 -0.0139749 0
M  V30 5054 C 474.414 -5.18775 -0.880875 0
M  V30 5055 O 473.44 -5.68236 -0.331059 0
M  V30 5056 N 474.642 -5.37087 -2.20267 0
M  V30 5057 H 477.407 -2.83255 0.979106 0
M  V30 5058 H 474.968 -1.47643 0.664308 0
M  V30 5059 H 476.96 -3.81371 -1.35418 0
M  V30 5060 H 475.53 -2.75789 -1.47171 0
M  V30 5061 H 474.75 -3.86971 0.751468 0
M  V30 5062 H 476.038 -5.06268 0.506965 0
M  V30 5063 H 475.436 -4.9855 -2.67328 0
M  V30 5064 H 473.993 -5.91593 -2.73608 0
M  V30 5065 N 477.426 -0.562348 -1.47226 0
M  V30 5066 C 478.675 -0.038041 -2.01664 0
M  V30 5067 C 478.988 1.32199 -1.44162 0
M  V30 5068 O 480.194 1.9365 -1.90294 0
M  V30 5069 C 478.65 -0.0174958 -3.59896 0
M  V30 5070 C 478.258 -1.3746 -4.2639 0
M  V30 5071 C 480.002 0.453934 -4.22066 0
M  V30 5072 C 477.909 -1.31289 -5.76643 0
M  V30 5073 H 476.839 -0.0104511 -0.753928 0
M  V30 5074 H 479.49 -0.710966 -1.69167 0
M  V30 5075 H 477.872 0.721182 -3.89378 0
M  V30 5076 H 479.046 -2.1314 -4.08544 0
M  V30 5077 H 477.361 -1.78438 -3.7623 0
M  V30 5078 H 479.958 0.518584 -5.32179 0
M  V30 5079 H 480.301 1.46706 -3.89594 0
M  V30 5080 H 480.834 -0.230044 -3.97134 0
M  V30 5081 H 477.573 -2.30217 -6.13743 0
M  V30 5082 H 477.093 -0.597973 -5.96812 0
M  V30 5083 H 478.772 -1.01713 -6.38955 0
M  V30 5084 N 478.904 1.54736 -0.299062 0
M  V30 5085 C 480.153 1.99279 0.311549 0
M  V30 5086 C 480.466 1.19107 1.55154 0
M  V30 5087 O 481.672 1.53908 2.23662 0
M  V30 5088 C 480.128 3.54768 0.605632 0
M  V30 5089 C 479.736 4.43746 -0.615914 0
M  V30 5090 C 481.48 4.07841 1.17754 0
M  V30 5091 C 479.387 5.90663 -0.29509 0
M  V30 5092 H 478.317 0.744359 0.120187 0
M  V30 5093 H 480.968 1.78919 -0.407464 0
M  V30 5094 H 479.35 3.71021 1.38419 0
M  V30 5095 H 480.524 4.39267 -1.39218 0
M  V30 5096 H 478.839 4.01434 -1.10633 0
M  V30 5097 H 481.436 5.15174 1.43179 0
M  V30 5098 H 481.779 3.58324 2.11918 0
M  V30 5099 H 482.312 3.95123 0.460739 0
M  V30 5100 H 479.051 6.44325 -1.20524 0
M  V30 5101 H 478.571 5.98155 0.44394 0
M  V30 5102 H 480.25 6.46916 0.104048 0
M  V30 5103 N 480.382 0.0267497 1.57577 0
M  V30 5104 C 481.61 -0.662661 1.96001 0
M  V30 5105 C 482.025 -1.65799 0.903117 0
M  V30 5106 O 481.382 -1.82135 -0.115317 0
M  V30 5107 C 481.433 -1.37112 3.34488 0
M  V30 5108 O 481.154 -0.415683 4.36123 0
M  V30 5109 C 482.655 -2.15257 3.8753 0
M  V30 5110 H 479.875 -0.18287 0.6456 0
M  V30 5111 H 482.419 0.0858116 2.0432 0
M  V30 5112 H 480.574 -2.07101 3.27395 0
M  V30 5113 H 480.988 -0.918496 5.16395 0
M  V30 5114 H 482.462 -2.60285 4.86781 0
M  V30 5115 H 482.939 -2.99063 3.21649 0
M  V30 5116 H 483.545 -1.50231 3.97883 0
M  V30 5117 N 481.861 -1.55662 -0.24637 0
M  V30 5118 C 483.089 -1.81575 -0.991876 0
M  V30 5119 C 483.504 -0.602545 -1.78927 0
M  V30 5120 O 482.861 0.428795 -1.77391 0
M  V30 5121 C 482.912 -3.05711 -1.92933 0
M  V30 5122 O 482.633 -4.22348 -1.1642 0
M  V30 5123 C 484.134 -3.44428 -2.79078 0
M  V30 5124 H 481.354 -0.604209 -0.291844 0
M  V30 5125 H 483.898 -2.02722 -0.269095 0
M  V30 5126 H 482.053 -2.86612 -2.60638 0
M  V30 5127 H 482.467 -4.92706 -1.79835 0
M  V30 5128 H 483.941 -4.34388 -3.40603 0
M  V30 5129 H 484.418 -2.65037 -3.50217 0
M  V30 5130 H 485.024 -3.65879 -2.16824 0
M  V30 5131 N 483.339 0.512053 -1.4905 0
M  V30 5132 C 484.569 1.28928 -1.61434 0
M  V30 5133 C 484.977 1.87107 -0.280647 0
M  V30 5134 O 484.32 1.68024 0.742537 0
M  V30 5135 C 484.382 2.466 -2.61588 0
M  V30 5136 C 484.046 2.09375 -4.06216 0
M  V30 5137 C 485.043 1.63994 -4.93358 0
M  V30 5138 C 482.728 2.19348 -4.51876 0
M  V30 5139 C 484.722 1.29076 -6.24194 0
M  V30 5140 C 482.409 1.84041 -5.82728 0
M  V30 5141 C 483.407 1.38978 -6.68711 0
M  V30 5142 O 483.095 1.04144 -7.97126 0
M  V30 5143 H 482.827 0.397668 -0.546659 0
M  V30 5144 H 485.381 0.622507 -1.9574 0
M  V30 5145 H 483.611 3.16318 -2.22441 0
M  V30 5146 H 485.3 3.08642 -2.63619 0
M  V30 5147 H 486.066 1.55744 -4.59313 0
M  V30 5148 H 481.945 2.53376 -3.85125 0
M  V30 5149 H 485.489 0.938303 -6.91261 0
M  V30 5150 H 481.386 1.91938 -6.16304 0
M  V30 5151 H 482.154 1.17387 -8.10039 0
M  V30 5152 N 484.817 1.37938 0.762283 0
M  V30 5153 C 485.747 1.37176 1.88958 0
M  V30 5154 C 486.728 0.238945 1.68413 0
M  V30 5155 O 487.913 0.440726 1.89133 0
M  V30 5156 C 485.043 1.18742 3.2637 0
M  V30 5157 C 483.997 2.29136 3.61498 0
M  V30 5158 C 483.323 1.95816 4.97554 0
M  V30 5159 C 484.623 3.71363 3.6727 0
M  V30 5160 H 486.317 2.31509 1.89853 0
M  V30 5161 H 483.863 1.11438 0.912005 0
M  V30 5162 H 485.816 1.16837 4.04879 0
M  V30 5163 H 484.54 0.208683 3.25933 0
M  V30 5164 H 483.199 2.30213 2.85303 0
M  V30 5165 H 482.847 0.964475 4.93667 0
M  V30 5166 H 482.547 2.69745 5.22026 0
M  V30 5167 H 484.071 1.95513 5.78452 0
M  V30 5168 H 485.485 3.72364 4.35911 0
M  V30 5169 H 483.882 4.44425 4.03245 0
M  V30 5170 H 484.952 4.04305 2.67704 0
M  V30 5171 N 486.295 -0.989507 1.22664 0
M  V30 5172 C 487.225 -2.09847 1.02404 0
M  V30 5173 C 488.206 -1.70007 -0.0561303 0
M  V30 5174 O 489.391 -1.93906 0.106748 0
M  V30 5175 C 486.521 -3.41996 0.604663 0
M  V30 5176 C 485.475 -3.95699 1.63115 0
M  V30 5177 C 484.801 -5.23936 1.0675 0
M  V30 5178 C 486.101 -4.25999 3.02196 0
M  V30 5179 H 487.795 -2.27054 1.95158 0
M  V30 5180 H 485.341 -1.09111 0.939727 0
M  V30 5181 H 487.294 -4.1899 0.45002 0
M  V30 5182 H 486.018 -3.24626 -0.35855 0
M  V30 5183 H 484.677 -3.2084 1.77362 0
M  V30 5184 H 484.325 -5.02909 0.0955422 0
M  V30 5185 H 484.025 -5.60833 1.75328 0
M  V30 5186 H 485.549 -6.0356 0.924516 0
M  V30 5187 H 486.963 -4.93777 2.91303 0
M  V30 5188 H 485.36 -4.74076 3.67929 0
M  V30 5189 H 486.43 -3.33636 3.51873 0
M  V30 5190 N 487.773 -1.03688 -1.18687 0
M  V30 5191 C 489.189 -0.755413 -1.4059 0
M  V30 5192 C 489.389 0.656659 -1.905 0
M  V30 5193 O 488.445 1.42144 -2.08689 0
M  V30 5194 C 489.758 -1.7983 -2.41001 0
M  V30 5195 C 491.306 -1.81877 -2.54735 0
M  V30 5196 C 491.781 -2.85148 -3.58406 0
M  V30 5197 N 493.272 -2.84015 -3.6591 0
M  V30 5198 C 494.007 -3.60573 -4.45841 0
M  V30 5199 N 493.503 -4.46871 -5.29413 0
M  V30 5200 N 495.296 -3.49079 -4.40568 0
M  V30 5201 H 487.447 -1.94818 -0.846148 0
M  V30 5202 H 489.71 -0.842727 -0.434184 0
M  V30 5203 H 489.416 -2.81097 -2.1137 0
M  V30 5204 H 489.29 -1.62727 -3.40294 0
M  V30 5205 H 491.677 -0.812836 -2.83685 0
M  V30 5206 H 491.758 -2.03057 -1.55568 0
M  V30 5207 H 491.402 -3.85918 -3.30197 0
M  V30 5208 H 491.332 -2.61224 -4.57241 0
M  V30 5209 H 493.823 -2.21431 -3.0623 0
M  V30 5210 H 494.136 -5.02007 -5.87545 0
M  V30 5211 H 492.481 -4.5094 -5.28846 0
M  V30 5212 H 495.672 -2.81066 -3.74325 0
M  V30 5213 H 495.845 -4.08994 -5.02621 0
M  V30 5214 N 489.251 1.34841 -0.815825 0
M  V30 5215 C 490.199 2.31549 -0.220888 0
M  V30 5216 C 491.193 1.5707 0.634457 0
M  V30 5217 O 492.399 1.72125 0.526589 0
M  V30 5218 H 488.774 0.750153 -0.0526782 0
M  V30 5219 H 490.745 2.7926 -1.05149 0
M  V30 5220 C 489.494 3.42335 0.608427 0
M  V30 5221 H 488.817 3.9978 -0.0404121 0
M  V30 5222 H 490.257 4.12258 0.990931 0
M  V30 5223 C 488.716 2.86173 1.77782 0
M  V30 5224 O 489.246 2.80474 2.87571 0
M  V30 5225 N 487.452 2.43093 1.59229 0
M  V30 5226 H 486.999 2.47928 0.699237 0
M  V30 5227 H 486.957 2.05866 2.37627 0
M  V30 5228 N 490.729 0.570148 1.46925 0
M  V30 5229 C 491.679 -0.190921 2.27199 0
M  V30 5230 C 492.663 -0.873457 1.35128 0
M  V30 5231 O 493.855 -0.769627 1.59392 0
M  V30 5232 C 490.984 -1.21204 3.21192 0
M  V30 5233 C 490.07 -0.532261 4.20747 0
M  V30 5234 N 490.461 0.405038 5.04176 0
M  V30 5235 C 488.759 -0.784582 4.39045 0
M  V30 5236 C 489.46 0.801149 5.76157 0
M  V30 5237 N 488.436 0.153082 5.43384 0
M  V30 5238 H 492.238 0.529535 2.8909 0
M  V30 5239 H 489.752 0.391019 1.57622 0
M  V30 5240 H 491.749 -1.77135 3.77398 0
M  V30 5241 H 490.409 -1.93345 2.6086 0
M  V30 5242 H 491.42 0.779903 5.11994 0
M  V30 5243 H 488.097 -1.49352 3.89872 0
M  V30 5244 H 489.487 1.57208 6.5325 0
M  V30 5245 N 492.207 -1.54576 0.307264 0
M  V30 5246 C 493.618 -1.8579 -0.184121 0
M  V30 5247 C 493.969 -1.22914 -1.52927 0
M  V30 5248 O 493.094 -0.529126 -2.09831 0
M  V30 5249 C 493.689 -3.37081 -0.340862 0
M  V30 5250 C 492.248 -3.68304 -0.776465 0
M  V30 5251 C 491.395 -2.77076 0.111503 0
M  V30 5252 H 494.346 -1.49656 0.528078 0
M  V30 5253 H 494.367 -3.61922 -1.17443 0
M  V30 5254 H 493.879 -3.82815 0.638309 0
M  V30 5255 H 491.98 -3.28092 -1.76596 0
M  V30 5256 H 492.093 -4.75434 -0.591512 0
M  V30 5257 H 490.457 -2.51374 -0.410256 0
M  V30 5258 H 491.24 -3.25632 1.08714 0
M  V30 5259 N 493.685 -0.035106 -1.57561 0
M  V30 5260 C 494.962 0.681212 -1.83354 0
M  V30 5261 C 495.342 1.89986 -0.920252 0
M  V30 5262 O 494.69 2.28489 0.0226815 0
M  V30 5263 C 494.9 1.05376 -3.32712 0
M  V30 5264 C 496.248 1.44286 -3.99333 0
M  V30 5265 O 497.272 1.14656 -3.37242 0
M  V30 5266 O 496.131 1.99518 -5.08778 0
M  V30 5267 H 493.225 0.334741 -0.756226 0
M  V30 5268 H 495.771 -0.0632448 -1.69582 0
M  V30 5269 H 494.543 0.186668 -3.90854 0
M  V30 5270 H 494.166 1.85619 -3.51613 0
M  V30 5271 N 495.163 1.55791 0.238111 0
M  V30 5272 C 496.393 1.81834 0.980809 0
M  V30 5273 C 496.801 0.609741 1.79106 0
M  V30 5274 O 496.144 -0.431073 1.78571 0
M  V30 5275 C 496.206 3.01363 1.96011 0
M  V30 5276 C 495.87 4.37037 1.33597 0
M  V30 5277 C 496.867 5.14692 0.734063 0
M  V30 5278 C 494.552 4.83743 1.3527 0
M  V30 5279 C 496.546 6.37206 0.157208 0
M  V30 5280 C 494.233 6.06204 0.77199 0
M  V30 5281 C 495.231 6.82775 0.175282 0
M  V30 5282 O 494.919 8.02922 -0.396432 0
M  V30 5283 H 494.651 0.6088 0.293834 0
M  V30 5284 H 497.205 2.03702 0.263552 0
M  V30 5285 H 495.435 2.75273 2.71591 0
M  V30 5286 H 497.124 3.14422 2.56697 0
M  V30 5287 H 497.89 4.79722 0.713582 0
M  V30 5288 H 493.769 4.24129 1.80653 0
M  V30 5289 H 497.313 6.96915 -0.30917 0
M  V30 5290 H 493.21 6.4065 0.789828 0
M  V30 5291 H 493.978 8.17989 -0.289145 0
M  V30 5292 N 496.642 -0.504142 1.49319 0
M  V30 5293 C 497.605 -1.5883 1.65244 0
M  V30 5294 C 498.605 -1.52009 0.524386 0
M  V30 5295 O 499.795 -1.55218 0.79077 0
M  V30 5296 C 496.927 -2.98481 1.64687 0
M  V30 5297 H 498.12 -1.4604 2.61939 0
M  V30 5298 H 495.673 -0.728144 1.38303 0
M  V30 5299 H 496.408 -3.16751 0.695644 0
M  V30 5300 H 496.193 -3.0484 2.46607 0
M  V30 5301 H 497.683 -3.77256 1.79075 0
M  V30 5302 N 498.12 -1.38341 -0.754957 0
M  V30 5303 C 499.397 -1.24995 -1.50451 0
M  V30 5304 C 499.777 0.149244 -2.10572 0
M  V30 5305 O 499.125 1.15861 -1.96948 0
M  V30 5306 C 499.335 -2.35904 -2.57197 0
M  V30 5307 C 500.683 -2.74262 -3.24138 0
M  V30 5308 O 501.707 -2.35205 -2.67501 0
M  V30 5309 O 500.566 -3.4161 -4.26574 0
M  V30 5310 H 497.66 -0.48872 -0.667144 0
M  V30 5311 H 500.206 -1.50165 -0.790486 0
M  V30 5312 H 498.978 -3.2953 -2.11011 0
M  V30 5313 H 498.601 -2.12291 -3.36182 0
M  V30 5314 N 499.598 0.982988 -1.23187 0
M  V30 5315 C 500.545 2.07491 -1.01075 0
M  V30 5316 C 501.515 1.65949 0.070905 0
M  V30 5317 O 502.7 1.90629 -0.0806822 0
M  V30 5318 C 499.84 3.39751 -0.605261 0
M  V30 5319 C 498.953 3.94578 -1.75876 0
M  V30 5320 C 498.088 5.15039 -1.3003 0
M  V30 5321 C 497.127 5.62027 -2.42472 0
M  V30 5322 N 496.264 6.73719 -1.97602 0
M  V30 5323 H 501.104 2.25739 -1.9454 0
M  V30 5324 H 498.641 1.10659 -0.969179 0
M  V30 5325 H 500.599 4.15719 -0.351279 0
M  V30 5326 H 499.229 3.21473 0.292382 0
M  V30 5327 H 498.281 3.1539 -2.12681 0
M  V30 5328 H 499.593 4.25422 -2.60418 0
M  V30 5329 H 498.747 5.9833 -1.00429 0
M  V30 5330 H 497.486 4.85843 -0.425216 0
M  V30 5331 H 496.491 4.77318 -2.7285 0
M  V30 5332 H 497.716 5.93244 -3.30512 0
M  V30 5333 H 495.662 6.46287 -1.1247 0
M  V30 5334 H 495.579 7.03934 -2.75705 0
M  V30 5335 H 496.847 7.6049 -1.71098 0
M  V30 5336 N 501.076 1.04316 1.18135 0
M  V30 5337 C 502.304 0.768117 1.92113 0
M  V30 5338 C 502.719 -0.675057 1.76319 0
M  V30 5339 O 502.076 -1.46038 1.09449 0
M  V30 5340 C 502.127 1.12808 3.43448 0
M  V30 5341 O 501.848 2.5146 3.58747 0
M  V30 5342 C 503.349 0.8779 4.3452 0
M  V30 5343 H 500.569 0.279937 0.609817 0
M  V30 5344 H 503.113 1.39149 1.49859 0
M  V30 5345 H 501.268 0.549623 3.83481 0
M  V30 5346 H 501.682 2.65313 4.52448 0
M  V30 5347 H 503.156 1.17959 5.39249 0
M  V30 5348 H 503.633 -0.187239 4.38801 0
M  V30 5349 H 504.239 1.43977 4.00188 0
M  V30 5350 N 502.554 -1.34406 0.822964 0
M  V30 5351 C 503.486 -2.28305 0.202375 0
M  V30 5352 C 504.499 -1.5103 -0.60777 0
M  V30 5353 O 505.688 -1.73057 -0.437444 0
M  V30 5354 C 502.788 -3.30836 -0.734911 0
M  V30 5355 C 501.961 -4.37388 0.0324177 0
M  V30 5356 C 501.02 -5.1968 -0.825803 0
M  V30 5357 O 500.046 -5.68556 -0.270771 0
M  V30 5358 N 501.248 -5.39393 -2.14558 0
M  V30 5359 H 504.013 -2.82201 1.00909 0
M  V30 5360 H 501.574 -1.4693 0.67993 0
M  V30 5361 H 503.566 -3.82786 -1.31365 0
M  V30 5362 H 502.136 -2.77334 -1.44238 0
M  V30 5363 H 501.356 -3.86152 0.792469 0
M  V30 5364 H 502.644 -5.05702 0.560633 0
M  V30 5365 H 502.042 -5.01357 -2.62025 0
M  V30 5366 H 500.599 -5.94461 -2.67318 0
M  V30 5367 N 504.032 -0.577932 -1.46621 0
M  V30 5368 C 504.942 0.160651 -2.34049 0
M  V30 5369 C 505.958 0.890911 -1.49462 0
M  V30 5370 O 507.134 0.855166 -1.82343 0
M  V30 5371 C 504.199 1.16447 -3.26559 0
M  V30 5372 C 503.26 0.4394 -4.27045 0
M  V30 5373 C 502.493 1.3954 -5.15135 0
M  V30 5374 O 502.716 2.63162 -5.06065 0
M  V30 5375 O 501.65 0.908585 -5.95003 0
M  V30 5376 H 505.476 -0.557057 -2.98547 0
M  V30 5377 H 503.061 -0.338369 -1.45518 0
M  V30 5378 H 504.943 1.7434 -3.83645 0
M  V30 5379 H 503.618 1.86373 -2.64663 0
M  V30 5380 H 502.525 -0.181247 -3.73661 0
M  V30 5381 H 503.858 -0.218799 -4.91713 0
M  V30 5382 N 505.51 1.54411 -0.315457 0
M  V30 5383 C 506.42 2.27737 0.56329 0
M  V30 5384 C 507.436 1.31787 1.13614 0
M  V30 5385 O 508.612 1.64791 1.15784 0
M  V30 5386 C 505.677 3.01478 1.71207 0
M  V30 5387 C 504.738 4.12997 1.17185 0
M  V30 5388 C 503.971 4.83212 2.26588 0
M  V30 5389 O 504.194 4.52884 3.46775 0
M  V30 5390 O 503.128 5.70299 1.92463 0
M  V30 5391 H 506.954 3.03683 -0.0319614 0
M  V30 5392 H 504.539 1.49178 -0.0814188 0
M  V30 5393 H 506.421 3.47683 2.38106 0
M  V30 5394 H 505.096 2.28414 2.29366 0
M  V30 5395 H 504.003 3.71159 0.468174 0
M  V30 5396 H 505.336 4.8808 0.635501 0
M  V30 5397 N 506.988 0.0434614 1.5754 0
M  V30 5398 C 508.228 -0.636023 1.94253 0
M  V30 5399 C 508.592 -1.68461 0.921132 0
M  V30 5400 O 509.793 -2.41762 1.17494 0
M  V30 5401 C 508.064 -1.22357 3.35803 0
M  V30 5402 S 509.623 -1.92213 3.94461 0
M  V30 5403 H 506.441 -0.209041 0.679575 0
M  V30 5404 H 509.043 0.110556 1.95187 0
M  V30 5405 H 507.747 -0.448162 4.07946 0
M  V30 5406 H 507.278 -2.00713 3.38346 0
M  V30 5407 H 509.293 -3.20199 3.79061 0
M  V30 5408 N 508.466 -1.55915 -0.229846 0
M  V30 5409 C 509.882 -1.48721 -0.579166 0
M  V30 5410 C 510.082 -0.736976 -1.87539 0
M  V30 5411 O 509.138 -0.273258 -2.51017 0
M  V30 5412 C 510.451 -2.9323 -0.666082 0
M  V30 5413 C 511.999 -3.03701 -0.757267 0
M  V30 5414 C 512.474 -4.49552 -0.8756 0
M  V30 5415 N 513.965 -4.53561 -0.940035 0
M  V30 5416 C 514.7 -5.63683 -1.05116 0
M  V30 5417 N 514.196 -6.83576 -1.12675 0
M  V30 5418 N 515.989 -5.51516 -1.08565 0
M  V30 5419 H 508.14 -2.03123 0.620857 0
M  V30 5420 H 510.403 -0.922898 0.21671 0
M  V30 5421 H 510.109 -3.51032 0.21664 0
M  V30 5422 H 509.983 -3.44668 -1.53243 0
M  V30 5423 H 512.37 -2.45969 -1.63043 0
M  V30 5424 H 512.451 -2.55446 0.134583 0
M  V30 5425 H 512.095 -5.079 -0.00692351 0
M  V30 5426 H 512.025 -4.95506 -1.78274 0
M  V30 5427 H 514.516 -3.67215 -0.892269 0
M  V30 5428 H 514.829 -7.63251 -1.21109 0
M  V30 5429 H 513.174 -6.86303 -1.09603 0
M  V30 5430 H 516.365 -4.5678 -1.02319 0
M  V30 5431 H 516.538 -6.37372 -1.1688 0
M  V30 5432 N 509.944 0.496216 -1.49584 0
M  V30 5433 C 510.876 1.61404 -1.62731 0
M  V30 5434 C 511.889 1.54613 -0.50978 0
M  V30 5435 O 513.078 1.60458 -0.782017 0
M  V30 5436 C 510.178 3.00212 -1.57245 0
M  V30 5437 C 509.351 3.32138 -2.84611 0
M  V30 5438 C 508.41 4.5038 -2.72112 0
M  V30 5439 O 507.436 4.51926 -3.46051 0
M  V30 5440 N 508.638 5.50575 -1.83977 0
M  V30 5441 H 511.403 1.50552 -2.59141 0
M  V30 5442 H 508.964 0.684182 -1.46733 0
M  V30 5443 H 510.956 3.77241 -1.4653 0
M  V30 5444 H 509.526 3.04964 -0.686729 0
M  V30 5445 H 508.746 2.4396 -3.09641 0
M  V30 5446 H 510.034 3.50268 -3.69039 0
M  V30 5447 H 509.432 5.52128 -1.23171 0
M  V30 5448 H 507.989 6.26687 -1.79182 0
M  V30 5449 N 511.423 1.38739 0.74761 0
M  V30 5450 C 512.356 1.3083 1.86972 0
M  V30 5451 C 513.334 0.184229 1.61553 0
M  V30 5452 O 514.518 0.36256 1.8498 0
M  V30 5453 C 511.645 1.02854 3.22705 0
M  V30 5454 C 510.691 2.17281 3.67003 0
M  V30 5455 S 511.524 3.79468 3.77842 0
M  V30 5456 C 512.68 3.53692 5.16385 0
M  V30 5457 H 512.913 2.258 1.93395 0
M  V30 5458 H 510.446 1.24646 0.911199 0
M  V30 5459 H 512.404 0.87397 4.01089 0
M  V30 5460 H 511.065 0.0959295 3.13953 0
M  V30 5461 H 510.258 1.93267 4.65472 0
M  V30 5462 H 509.86 2.28876 2.9579 0
M  V30 5463 H 512.152 3.10176 6.02327 0
M  V30 5464 H 513.095 4.51576 5.45422 0
M  V30 5465 H 513.503 2.8807 4.85464 0
M  V30 5466 N 512.901 -0.976442 1.23707 0
M  V30 5467 C 514.147 -1.72081 1.07312 0
M  V30 5468 C 514.48 -1.90275 -0.388476 0
M  V30 5469 O 513.755 -1.4579 -1.28746 0
M  V30 5470 C 514.038 -3.11675 1.80363 0
M  V30 5471 C 513.891 -3.01027 3.3422 0
M  V30 5472 C 515.21 -4.1117 1.5693 0
M  V30 5473 H 512.329 -0.624583 0.391236 0
M  V30 5474 H 514.971 -1.13649 1.52263 0
M  V30 5475 H 513.121 -3.61559 1.42153 0
M  V30 5476 H 514.793 -2.58637 3.81975 0
M  V30 5477 H 513.036 -2.3744 3.63049 0
M  V30 5478 H 513.707 -3.9988 3.80525 0
M  V30 5479 H 516.183 -3.7011 1.90151 0
M  V30 5480 H 515.059 -5.06928 2.10513 0
M  V30 5481 H 515.32 -4.392 0.505548 0
M  V30 5482 N 514.379 -1.04941 -1.1758 0
M  V30 5483 C 515.309 -0.669172 -2.23706 0
M  V30 5484 C 516.29 0.331835 -1.66832 0
M  V30 5485 O 517.475 0.209988 -1.93061 0
M  V30 5486 C 514.605 -0.0404889 -3.47276 0
M  V30 5487 C 513.559 -0.965983 -4.16957 0
M  V30 5488 C 512.885 -0.201312 -5.34321 0
M  V30 5489 C 514.185 -2.28902 -4.69469 0
M  V30 5490 H 515.879 -1.55639 -2.55767 0
M  V30 5491 H 513.425 -0.749793 -1.22939 0
M  V30 5492 H 515.378 0.237298 -4.20731 0
M  V30 5493 H 514.102 0.881658 -3.14475 0
M  V30 5494 H 512.761 -1.22829 -3.45411 0
M  V30 5495 H 512.409 0.723519 -4.97769 0
M  V30 5496 H 512.109 -0.817968 -5.81879 0
M  V30 5497 H 513.633 0.0692499 -6.10561 0
M  V30 5498 H 515.047 -2.07132 -5.34574 0
M  V30 5499 H 513.444 -2.85942 -5.27596 0
M  V30 5500 H 514.514 -2.92937 -3.86414 0
M  V30 5501 N 515.857 1.33968 -0.830081 0
M  V30 5502 C 517.134 1.92554 -0.343858 0
M  V30 5503 C 517.514 1.7573 1.16971 0
M  V30 5504 O 516.862 1.14035 1.98011 0
M  V30 5505 C 517.072 3.40147 -0.781073 0
M  V30 5506 C 518.42 4.17299 -0.78402 0
M  V30 5507 O 519.444 3.48762 -0.724112 0
M  V30 5508 O 518.303 5.39631 -0.863739 0
M  V30 5509 H 515.397 0.821469 -0.0954827 0
M  V30 5510 H 517.943 1.42897 -0.915348 0
M  V30 5511 H 516.715 3.46225 -1.82329 0
M  V30 5512 H 516.338 3.97166 -0.18567 0
M  V30 5513 N 517.335 0.585699 1.46312 0
M  V30 5514 C 518.612 0.00542031 1.95599 0
M  V30 5515 C 518.992 -1.45619 1.52834 0
M  V30 5516 O 518.34 -2.14759 0.780446 0
M  V30 5517 C 518.55 0.180601 3.48532 0
M  V30 5518 C 519.898 0.049979 4.24571 0
M  V30 5519 O 520.922 0.109589 3.56031 0
M  V30 5520 O 519.781 -0.0832226 5.46437 0
M  V30 5521 H 516.875 -0.0481281 0.825598 0
M  V30 5522 H 519.421 0.654227 1.56582 0
M  V30 5523 H 518.193 1.19657 3.72556 0
M  V30 5524 H 517.816 -0.504498 3.94386 0
M  V30 5525 N 518.813 -1.54241 0.323641 0
M  V30 5526 C 519.746 -2.20579 -0.584833 0
M  V30 5527 C 520.724 -1.18286 -1.11567 0
M  V30 5528 O 521.908 -1.47025 -1.17966 0
M  V30 5529 C 519.035 -2.86754 -1.80249 0
M  V30 5530 C 518.081 -4.02767 -1.4029 0
M  V30 5531 S 518.914 -5.33693 -0.439539 0
M  V30 5532 C 520.07 -6.03362 -1.66448 0
M  V30 5533 H 520.303 -2.97292 -0.0213238 0
M  V30 5534 H 517.836 -1.54024 0.107726 0
M  V30 5535 H 519.794 -3.25503 -2.50116 0
M  V30 5536 H 518.455 -2.09844 -2.33719 0
M  V30 5537 H 517.648 -4.47933 -2.31024 0
M  V30 5538 H 517.25 -3.65692 -0.783928 0
M  V30 5539 H 519.542 -6.25546 -2.6019 0
M  V30 5540 H 520.485 -6.9689 -1.25498 0
M  V30 5541 H 520.893 -5.33273 -1.85149 0
M  V30 5542 N 520.291 -0.0518155 -1.57515 0
M  V30 5543 C 521.201 0.937539 -2.15052 0
M  V30 5544 C 522.217 1.34121 -1.10849 0
M  V30 5545 O 523.393 1.418 -1.4302 0
M  V30 5546 C 520.458 2.19379 -2.68466 0
M  V30 5547 C 519.519 1.84841 -3.87469 0
M  V30 5548 C 518.752 3.04477 -4.38326 0
M  V30 5549 O 518.975 4.17868 -3.88256 0
M  V30 5550 O 517.909 2.85453 -5.29906 0
M  V30 5551 H 521.735 0.478201 -2.99912 0
M  V30 5552 H 519.32 0.17012 -1.48428 0
M  V30 5553 H 521.202 2.93084 -3.02787 0
M  V30 5554 H 519.877 2.64449 -1.86677 0
M  V30 5555 H 518.784 1.08449 -3.58036 0
M  V30 5556 H 520.117 1.44569 -4.7049 0
M  V30 5557 N 521.769 1.56035 0.221574 0
M  V30 5558 C 522.997 1.8313 0.962864 0
M  V30 5559 C 523.412 0.630934 1.77946 0
M  V30 5560 O 522.769 -0.400519 1.78051 0
M  V30 5561 C 522.82 3.08742 1.88045 0
M  V30 5562 O 522.541 4.24147 1.09686 0
M  V30 5563 C 524.042 3.48824 2.73563 0
M  V30 5564 H 521.262 0.608775 0.282194 0
M  V30 5565 H 523.806 2.03124 0.23681 0
M  V30 5566 H 521.961 2.90723 2.56045 0
M  V30 5567 H 522.375 4.95505 1.71974 0
M  V30 5568 H 523.849 4.39752 3.3365 0
M  V30 5569 H 524.326 2.70575 3.45956 0
M  V30 5570 H 524.932 3.69282 2.10976 0
M  V30 5571 N 523.247 -0.488276 1.49845 0
M  V30 5572 C 524.494 -1.24157 1.59973 0
M  V30 5573 C 524.822 -1.92293 0.292182 0
M  V30 5574 O 524.077 -1.81942 -0.720813 0
M  V30 5575 C 524.376 -2.32152 2.71735 0
M  V30 5576 C 524.042 -1.81387 4.12807 0
M  V30 5577 C 522.704 -1.67262 4.51195 0
M  V30 5578 C 525.056 -1.43537 5.01045 0
M  V30 5579 C 522.384 -1.13685 5.7558 0
M  V30 5580 C 524.736 -0.914081 6.25961 0
M  V30 5581 C 523.4 -0.759327 6.63167 0
M  V30 5582 H 522.67 -0.454322 0.585383 0
M  V30 5583 H 525.317 -0.540261 1.83721 0
M  V30 5584 H 523.622 -3.08122 2.42008 0
M  V30 5585 H 525.319 -2.90164 2.76778 0
M  V30 5586 H 521.909 -1.93344 3.82513 0
M  V30 5587 H 526.093 -1.53292 4.72033 0
M  V30 5588 H 521.349 -1.00426 6.03096 0
M  V30 5589 H 525.523 -0.612066 6.93705 0
M  V30 5590 H 523.15 -0.342002 7.5943 0
M  V30 5591 N 524.725 -1.39134 -0.740242 0
M  V30 5592 C 525.973 -1.35803 -1.49673 0
M  V30 5593 C 526.294 0.0470897 -1.94943 0
M  V30 5594 O 525.564 0.997347 -1.68611 0
M  V30 5595 H 524.144 -0.499736 -0.555224 0
M  V30 5596 H 526.806 -1.73947 -0.879107 0
M  V30 5597 H 525.902 -2.0174 -2.38133 0
M  V30 5598 N 526.204 0.969867 -1.24223 0
M  V30 5599 C 527.154 2.04913 -0.999732 0
M  V30 5600 C 528.138 1.60795 0.0580636 0
M  V30 5601 O 529.33 1.76317 -0.155392 0
M  V30 5602 C 526.459 3.37942 -0.604154 0
M  V30 5603 C 525.545 3.88628 -1.69791 0
M  V30 5604 N 525.936 4.12274 -2.93025 0
M  V30 5605 C 524.234 4.17268 -1.57492 0
M  V30 5606 C 524.935 4.53808 -3.63914 0
M  V30 5607 N 523.911 4.58855 -2.91468 0
M  V30 5608 H 527.713 2.21168 -1.93551 0
M  V30 5609 H 525.227 1.15349 -1.14317 0
M  V30 5610 H 527.224 4.14863 -0.411665 0
M  V30 5611 H 525.884 3.23075 0.324465 0
M  V30 5612 H 526.895 3.99789 -3.29225 0
M  V30 5613 H 523.572 4.11346 -0.714175 0
M  V30 5614 H 524.962 4.80534 -4.69614 0
M  V30 5615 N 527.682 1.05563 1.17022 0
M  V30 5616 C 529.093 0.793475 1.69 0
M  V30 5617 C 529.444 -0.683882 1.83895 0
M  V30 5618 O 528.569 -1.53116 1.5292 0
M  V30 5619 C 529.164 1.43376 3.06967 0
M  V30 5620 C 527.723 1.21956 3.56095 0
M  V30 5621 C 526.87 1.51494 2.3226 0
M  V30 5622 H 529.821 1.22008 1.01487 0
M  V30 5623 H 529.842 0.845068 3.70997 0
M  V30 5624 H 529.354 2.50899 2.96093 0
M  V30 5625 H 527.455 0.163749 3.7224 0
M  V30 5626 H 527.568 1.92713 4.38633 0
M  V30 5627 H 525.932 0.935175 2.3691 0
M  V30 5628 H 526.715 2.60159 2.23992 0
M  V30 5629 N 529.16 -1.33526 0.837174 0
M  V30 5630 C 530.406 -1.9813 0.432704 0
M  V30 5631 C 530.739 -1.66168 -1.00508 0
M  V30 5632 O 530.014 -0.94069 -1.70239 0
M  V30 5633 C 530.297 -3.54151 0.651834 0
M  V30 5634 C 530.15 -3.95806 2.13676 0
M  V30 5635 C 531.469 -4.39993 0.0968937 0
M  V30 5636 H 528.588 -0.719713 0.15869 0
M  V30 5637 H 531.23 -1.58193 1.05237 0
M  V30 5638 H 529.38 -3.88301 0.124369 0
M  V30 5639 H 531.052 -3.71921 2.72896 0
M  V30 5640 H 529.295 -3.45599 2.62191 0
M  V30 5641 H 529.966 -5.0447 2.24084 0
M  V30 5642 H 532.442 -4.12479 0.547733 0
M  V30 5643 H 531.318 -5.48186 0.279917 0
M  V30 5644 H 531.579 -4.3066 -0.9992 0
M  V30 5645 N 530.638 -0.59345 -1.46 0
M  V30 5646 C 531.548 0.135817 -2.34207 0
M  V30 5647 C 532.564 0.875008 -1.50398 0
M  V30 5648 O 533.74 0.835778 -1.83239 0
M  V30 5649 C 530.805 1.12977 -3.27776 0
M  V30 5650 C 529.866 0.394081 -4.27487 0
M  V30 5651 C 529.099 1.34068 -5.16586 0
M  V30 5652 O 529.322 2.5778 -5.08828 0
M  V30 5653 O 528.256 0.845426 -5.95933 0
M  V30 5654 H 532.082 -0.588691 -2.9794 0
M  V30 5655 H 529.667 -0.353784 -1.45151 0
M  V30 5656 H 531.549 1.70261 -3.85473 0
M  V30 5657 H 530.224 1.83556 -2.66625 0
M  V30 5658 H 529.131 -0.220869 -3.73447 0
M  V30 5659 H 530.464 -0.270939 -4.91454 0
M  V30 5660 N 532.116 1.54067 -0.331816 0
M  V30 5661 C 533.063 2.24623 0.530372 0
M  V30 5662 C 534.033 1.24009 1.10503 0
M  V30 5663 O 535.218 1.52712 1.14384 0
M  V30 5664 C 532.358 3.01374 1.68129 0
M  V30 5665 C 531.471 4.16821 1.13507 0
M  V30 5666 C 530.606 4.81085 2.25234 0
M  V30 5667 C 529.645 5.88621 1.67903 0
M  V30 5668 N 528.782 6.46713 2.73326 0
M  V30 5669 H 533.622 2.97898 -0.0778607 0
M  V30 5670 H 531.159 1.47014 -0.0501965 0
M  V30 5671 H 533.117 3.44125 2.35868 0
M  V30 5672 H 531.747 2.30419 2.26069 0
M  V30 5673 H 530.799 3.78796 0.348979 0
M  V30 5674 H 532.111 4.94203 0.675633 0
M  V30 5675 H 531.265 5.26846 3.00862 0
M  V30 5676 H 530.004 4.03102 2.74518 0
M  V30 5677 H 529.009 5.42254 0.907773 0
M  V30 5678 H 530.234 6.68506 1.19487 0
M  V30 5679 H 528.18 5.71599 3.21886 0
M  V30 5680 H 528.097 7.19532 2.3197 0
M  V30 5681 H 529.365 6.97129 3.48758 0
M  V30 5682 N 533.594 0.0601682 1.57485 0
M  V30 5683 C 534.843 -0.611101 1.9222 0
M  V30 5684 C 535.156 -1.71469 0.941159 0
M  V30 5685 O 536.362 -2.44473 1.18089 0
M  V30 5686 C 534.818 -1.13832 3.41424 0
M  V30 5687 C 534.426 -0.0663596 4.47951 0
M  V30 5688 C 536.17 -1.78432 3.85178 0
M  V30 5689 C 534.077 -0.606965 5.88277 0
M  V30 5690 H 533.007 -0.232033 0.71741 0
M  V30 5691 H 535.658 0.130518 1.83035 0
M  V30 5692 H 534.04 -1.93254 3.45643 0
M  V30 5693 H 535.214 0.707682 4.55333 0
M  V30 5694 H 533.529 0.482715 4.13593 0
M  V30 5695 H 536.126 -2.1989 4.87394 0
M  V30 5696 H 536.469 -2.63966 3.21913 0
M  V30 5697 H 537.002 -1.05651 3.83514 0
M  V30 5698 H 533.741 0.21095 6.5516 0
M  V30 5699 H 533.261 -1.34879 5.84438 0
M  V30 5700 H 534.94 -1.08704 6.37803 0
M  V30 5701 N 535.072 -1.5615 -0.213296 0
M  V30 5702 C 536.321 -1.78743 -0.93455 0
M  V30 5703 C 536.634 -0.630199 -1.8517 0
M  V30 5704 O 537.84 -0.739966 -2.61222 0
M  V30 5705 C 536.296 -3.16571 -1.71203 0
M  V30 5706 C 535.904 -4.40043 -0.840617 0
M  V30 5707 C 537.648 -3.48485 -2.42401 0
M  V30 5708 C 535.555 -5.68895 -1.61592 0
M  V30 5709 H 534.485 -0.666426 -0.352692 0
M  V30 5710 H 537.136 -1.82532 -0.188227 0
M  V30 5711 H 535.518 -3.06981 -2.50157 0
M  V30 5712 H 536.692 -4.6071 -0.0910326 0
M  V30 5713 H 535.007 -4.15706 -0.240365 0
M  V30 5714 H 537.604 -4.41983 -3.00924 0
M  V30 5715 H 537.947 -2.71371 -3.15695 0
M  V30 5716 H 538.48 -3.59442 -1.7043 0
M  V30 5717 H 535.219 -6.48925 -0.926106 0
M  V30 5718 H 534.739 -5.52275 -2.33991 0
M  V30 5719 H 536.418 -6.09365 -2.17447 0
M  V30 5720 N 536.55 0.480323 -1.50102 0
M  V30 5721 C 537.46 1.60547 -1.71061 0
M  V30 5722 C 538.476 1.63564 -0.593529 0
M  V30 5723 O 539.652 1.81604 -0.870751 0
M  V30 5724 C 536.717 2.96814 -1.79171 0
M  V30 5725 C 535.778 3.04259 -3.02861 0
M  V30 5726 C 535.011 4.34027 -3.10574 0
M  V30 5727 O 535.234 5.24009 -2.25323 0
M  V30 5728 O 534.168 4.46873 -4.03223 0
M  V30 5729 H 537.994 1.45788 -2.6642 0
M  V30 5730 H 535.579 0.658838 -1.34088 0
M  V30 5731 H 537.461 3.77765 -1.86738 0
M  V30 5732 H 536.136 3.11791 -0.869947 0
M  V30 5733 H 535.043 2.22419 -3.008 0
M  V30 5734 H 536.376 2.94216 -3.94586 0
M  V30 5735 N 538.028 1.39524 0.732853 0
M  V30 5736 C 538.938 1.40695 1.87729 0
M  V30 5737 C 539.954 0.301496 1.71368 0
M  V30 5738 O 541.13 0.543313 1.93933 0
M  V30 5739 C 538.195 1.25098 3.23344 0
M  V30 5740 C 537.256 2.45634 3.52083 0
M  V30 5741 C 536.489 2.30772 4.81228 0
M  V30 5742 O 536.712 1.31233 5.55098 0
M  V30 5743 O 535.646 3.19799 5.09914 0
M  V30 5744 H 539.472 2.37168 1.89697 0
M  V30 5745 H 537.057 1.20663 0.880959 0
M  V30 5746 H 538.939 1.18541 4.04383 0
M  V30 5747 H 537.614 0.317209 3.22142 0
M  V30 5748 H 536.521 2.57767 2.71122 0
M  V30 5749 H 537.854 3.37712 3.58066 0
M  V30 5750 N 539.506 -0.963266 1.24736 0
M  V30 5751 C 540.438 -2.06162 1.0015 0
M  V30 5752 C 541.451 -1.62771 -0.0305905 0
M  V30 5753 O 542.64 -1.77296 0.206966 0
M  V30 5754 C 539.74 -3.35333 0.490385 0
M  V30 5755 C 538.913 -4.07609 1.58663 0
M  V30 5756 C 537.972 -5.15052 1.0774 0
M  V30 5757 O 536.998 -5.4098 1.77002 0
M  V30 5758 N 538.2 -5.80436 -0.0858605 0
M  V30 5759 H 540.965 -2.27825 1.94719 0
M  V30 5760 H 538.526 -1.13121 1.15825 0
M  V30 5761 H 540.518 -4.04477 0.134371 0
M  V30 5762 H 539.088 -3.10507 -0.361155 0
M  V30 5763 H 538.308 -3.32681 2.11463 0
M  V30 5764 H 539.596 -4.52656 2.32336 0
M  V30 5765 H 538.994 -5.6178 -0.664806 0
M  V30 5766 H 537.551 -6.50674 -0.382981 0
M  V30 5767 N 540.985 -1.06182 -1.16461 0
M  V30 5768 C 542.213 -0.798583 -1.90867 0
M  V30 5769 C 542.628 0.646921 -1.77371 0
M  V30 5770 O 541.985 1.44279 -1.11758 0
M  V30 5771 C 542.036 -1.18258 -3.4161 0
M  V30 5772 O 541.757 -2.57135 -3.54701 0
M  V30 5773 C 543.258 -0.946917 -4.33069 0
M  V30 5774 H 540.478 -0.289603 -0.605286 0
M  V30 5775 H 543.022 -1.41515 -1.47627 0
M  V30 5776 H 541.177 -0.610562 -3.82558 0
M  V30 5777 H 541.591 -2.72477 -4.4817 0
M  V30 5778 H 543.065 -1.26523 -5.37304 0
M  V30 5779 H 543.542 0.117406 -4.39043 0
M  V30 5780 H 544.148 -1.50326 -3.97847 0
M  V30 5781 N 542.463 1.3308 -0.844243 0
M  V30 5782 C 543.709 1.98304 -0.452453 0
M  V30 5783 C 544.064 1.65645 0.978746 0
M  V30 5784 O 543.357 0.928849 1.6758 0
M  V30 5785 C 543.551 3.52045 -0.616354 0
M  V30 5786 C 543.38 3.99643 -2.06193 0
M  V30 5787 C 542.15 4.27224 -2.69829 0
M  V30 5788 C 544.348 4.15471 -3.03131 0
M  V30 5789 N 542.33 4.60998 -4.05406 0
M  V30 5790 C 543.701 4.52665 -4.23668 0
M  V30 5791 C 545.756 3.97776 -2.99465 0
M  V30 5792 C 544.459 4.74011 -5.41023 0
M  V30 5793 C 546.485 4.20301 -4.16055 0
M  V30 5794 C 545.847 4.57801 -5.35348 0
M  V30 5795 H 541.946 0.752122 -0.214096 0
M  V30 5796 H 544.53 1.61096 -1.09344 0
M  V30 5797 H 542.701 3.884 -0.00513205 0
M  V30 5798 H 544.433 4.04228 -0.19548 0
M  V30 5799 H 541.188 4.18911 -2.20931 0
M  V30 5800 H 541.612 4.82087 -4.75312 0
M  V30 5801 H 546.254 3.67893 -2.08362 0
M  V30 5802 H 543.972 5.02753 -6.32665 0
M  V30 5803 H 547.558 4.08122 -4.14641 0
M  V30 5804 H 546.438 4.74884 -6.24063 0
M  V30 5805 N 543.941 0.601185 1.45683 0
M  V30 5806 C 545.171 0.0999093 2.06358 0
M  V30 5807 C 545.579 -1.21831 1.44754 0
M  V30 5808 O 544.922 -1.75157 0.553695 0
M  V30 5809 C 544.984 -0.12085 3.59297 0
M  V30 5810 C 544.648 1.11459 4.432 0
M  V30 5811 C 545.645 2.03118 4.7858 0
M  V30 5812 C 543.33 1.34162 4.84051 0
M  V30 5813 C 545.324 3.15814 5.53661 0
M  V30 5814 C 543.011 2.4716 5.58888 0
M  V30 5815 C 544.009 3.37814 5.93608 0
M  V30 5816 O 543.697 4.48846 6.66928 0
M  V30 5817 H 543.429 0.0630316 0.673055 0
M  V30 5818 H 545.983 0.826982 1.88016 0
M  V30 5819 H 544.213 -0.902744 3.76015 0
M  V30 5820 H 545.902 -0.572925 4.01836 0
M  V30 5821 H 546.668 1.86801 4.47583 0
M  V30 5822 H 542.547 0.645018 4.56465 0
M  V30 5823 H 546.091 3.86596 5.8068 0
M  V30 5824 H 541.988 2.63432 5.89299 0
M  V30 5825 H 542.756 4.47446 6.85371 0
M  V30 5826 N 545.419 -1.53889 0.339982 0
M  V30 5827 C 546.649 -2.04973 -0.258738 0
M  V30 5828 C 547.057 -1.21485 -1.45045 0
M  V30 5829 O 546.4 -0.2422 -1.82096 0
M  V30 5830 C 546.462 -3.51783 -0.740853 0
M  V30 5831 C 546.126 -4.55802 0.330734 0
M  V30 5832 C 547.123 -5.06512 1.17226 0
M  V30 5833 C 544.808 -4.99966 0.483637 0
M  V30 5834 C 546.802 -5.99963 2.15227 0
M  V30 5835 C 544.489 -5.93229 1.46704 0
M  V30 5836 C 545.487 -6.43115 2.29981 0
M  V30 5837 O 545.175 -7.34545 3.26649 0
M  V30 5838 H 544.907 -0.673807 -0.0544037 0
M  V30 5839 H 547.461 -1.99492 0.489107 0
M  V30 5840 H 545.691 -3.54717 -1.53988 0
M  V30 5841 H 547.38 -3.85857 -1.25973 0
M  V30 5842 H 548.146 -4.73158 1.0652 0
M  V30 5843 H 544.025 -4.6074 -0.15471 0
M  V30 5844 H 547.569 -6.38825 2.80265 0
M  V30 5845 H 543.466 -6.25998 1.57468 0
M  V30 5846 H 544.234 -7.52468 3.22078 0
M  V30 5847 N 546.897 -0.0685191 -1.57451 0
M  V30 5848 C 548.144 0.601348 -1.93365 0
M  V30 5849 C 548.472 1.69816 -0.948294 0
M  V30 5850 O 547.727 1.95666 0.0366199 0
M  V30 5851 C 548.026 1.22051 -3.35914 0
M  V30 5852 C 547.692 0.250165 -4.50205 0
M  V30 5853 C 546.354 -0.0167954 -4.81197 0
M  V30 5854 C 548.706 -0.413867 -5.19554 0
M  V30 5855 C 546.034 -0.95493 -5.78876 0
M  V30 5856 C 548.386 -1.3403 -6.18238 0
M  V30 5857 C 547.05 -1.61576 -6.47649 0
M  V30 5858 H 546.32 0.220049 -0.707573 0
M  V30 5859 H 548.967 -0.138697 -1.90997 0
M  V30 5860 H 547.272 2.03622 -3.34732 0
M  V30 5861 H 548.969 1.74605 -3.6099 0
M  V30 5862 H 545.559 0.468421 -4.26033 0
M  V30 5863 H 549.743 -0.220733 -4.95809 0
M  V30 5864 H 544.999 -1.17563 -5.99991 0
M  V30 5865 H 549.173 -1.86081 -6.71079 0
M  V30 5866 H 546.8 -2.34431 -7.2315 0
M  V30 5867 N 548.375 1.56261 0.205012 0
M  V30 5868 C 549.786 1.70056 0.770574 0
M  V30 5869 C 550.137 0.673398 1.84282 0
M  V30 5870 O 549.262 -0.172196 2.15714 0
M  V30 5871 C 549.857 3.08316 1.40451 0
M  V30 5872 C 548.416 3.2391 1.91727 0
M  V30 5873 C 547.563 2.66001 0.783516 0
M  V30 5874 H 550.514 1.58688 -0.019911 0
M  V30 5875 H 550.535 3.05094 2.27371 0
M  V30 5876 H 550.047 3.83053 0.623882 0
M  V30 5877 H 548.148 2.54072 2.7254 0
M  V30 5878 H 548.261 4.3131 2.08588 0
M  V30 5879 H 546.625 2.24915 1.19521 0
M  V30 5880 H 547.408 3.43297 0.0152883 0
M  V30 5881 N 549.853 -0.472356 1.50355 0
M  V30 5882 C 550.803 -1.56809 1.65514 0
M  V30 5883 C 551.787 -1.5261 0.509801 0
M  V30 5884 O 552.979 -1.59655 0.764145 0
M  V30 5885 C 550.108 -2.9526 1.75146 0
M  V30 5886 C 549.194 -3.04348 2.95353 0
M  V30 5887 N 549.585 -2.83253 4.19048 0
M  V30 5888 C 547.883 -3.35482 2.93884 0
M  V30 5889 C 548.584 -2.97273 5.00003 0
M  V30 5890 N 547.56 -3.27418 4.33934 0
M  V30 5891 H 551.362 -1.39197 2.58846 0
M  V30 5892 H 548.876 -0.67906 1.47521 0
M  V30 5893 H 550.873 -3.74044 1.8411 0
M  V30 5894 H 549.533 -3.1392 0.829717 0
M  V30 5895 H 550.544 -2.5886 4.48567 0
M  V30 5896 H 547.221 -3.60138 2.11204 0
M  V30 5897 H 548.611 -2.85214 6.08361 0
M  V30 5898 N 551.331 -1.39911 -0.725443 0
M  V30 5899 C 552.577 -1.37858 -1.48738 0
M  V30 5900 C 552.91 0.0224187 -1.94187 0
M  V30 5901 O 552.185 0.989204 -1.67466 0
M  V30 5902 C 552.468 -2.3594 -2.72038 0
M  V30 5903 C 552.321 -3.85023 -2.32546 0
M  V30 5904 C 553.64 -2.31704 -3.74167 0
M  V30 5905 H 550.759 -0.502074 -0.539528 0
M  V30 5906 H 553.401 -1.70974 -0.828728 0
M  V30 5907 H 551.551 -2.0783 -3.28236 0
M  V30 5908 H 553.223 -4.2392 -1.81905 0
M  V30 5909 H 551.466 -4.01334 -1.64661 0
M  V30 5910 H 552.137 -4.49152 -3.20884 0
M  V30 5911 H 554.613 -2.5658 -3.27576 0
M  V30 5912 H 553.489 -3.02395 -4.58092 0
M  V30 5913 H 553.75 -1.3253 -4.21768 0
M  V30 5914 N 552.809 0.956637 -1.25245 0
M  V30 5915 C 554.034 1.74104 -1.12706 0
M  V30 5916 C 554.459 1.85436 0.315429 0
M  V30 5917 O 553.817 1.33334 1.22848 0
M  V30 5918 C 553.865 3.1338 -1.78396 0
M  V30 5919 O 552.969 3.98485 -1.06224 0
M  V30 5920 H 552.31 0.53476 -0.393609 0
M  V30 5921 H 554.84 1.19924 -1.65769 0
M  V30 5922 H 554.85 3.6385 -1.846 0
M  V30 5923 H 553.525 3.04448 -2.83345 0
M  V30 5924 H 552.102 3.56952 -1.07886 0
M  V30 5925 N 554.287 1.06798 1.15896 0
M  V30 5926 C 555.512 0.808739 1.90982 0
M  V30 5927 C 555.937 -0.6316 1.77179 0
M  V30 5928 O 555.295 -1.4407 1.10061 0
M  V30 5929 C 555.343 1.21468 3.39526 0
M  V30 5930 O 554.447 0.356562 4.10856 0
M  V30 5931 H 553.788 0.29512 0.594811 0
M  V30 5932 H 556.318 1.42513 1.46804 0
M  V30 5933 H 556.328 1.18844 3.90308 0
M  V30 5934 H 555.003 2.26379 3.48891 0
M  V30 5935 H 553.58 0.444808 3.70238 0
M  V30 5936 N 555.766 -1.3263 0.851289 0
M  V30 5937 C 556.676 -2.32722 0.296268 0
M  V30 5938 C 557.692 -1.63901 -0.584162 0
M  V30 5939 O 558.868 -1.95465 -0.485334 0
M  V30 5940 C 555.933 -3.42942 -0.509103 0
M  V30 5941 C 554.994 -4.2746 0.397069 0
M  V30 5942 C 554.227 -5.32416 -0.36996 0
M  V30 5943 O 554.45 -5.47491 -1.6003 0
M  V30 5944 O 553.384 -6.01327 0.262493 0
M  V30 5945 H 557.21 -2.82078 1.12543 0
M  V30 5946 H 554.795 -1.36194 0.614135 0
M  V30 5947 H 556.677 -4.1017 -0.96634 0
M  V30 5948 H 555.352 -2.95781 -1.31512 0
M  V30 5949 H 554.259 -3.63053 0.902411 0
M  V30 5950 H 555.592 -4.78136 1.16818 0
M  V30 5951 N 557.244 -0.608902 -1.45362 0
M  V30 5952 C 558.521 -0.0365378 -1.95566 0
M  V30 5953 C 558.901 1.43169 -1.55131 0
M  V30 5954 O 558.249 2.1349 -0.814513 0
M  V30 5955 C 558.459 -0.236026 -3.48201 0
M  V30 5956 C 559.807 -0.117518 -4.24437 0
M  V30 5957 O 560.831 -0.166217 -3.55812 0
M  V30 5958 O 559.69 -0.00372127 -5.465 0
M  V30 5959 H 556.784 0.0349874 -0.82626 0
M  V30 5960 H 559.33 -0.679055 -1.55521 0
M  V30 5961 H 558.102 -1.25569 -3.70605 0
M  V30 5962 H 557.725 0.441691 -3.95139 0
M  V30 5963 N 558.722 1.53707 -0.348139 0
M  V30 5964 C 559.952 2.05108 0.247864 0
M  V30 5965 C 560.36 1.22252 1.44399 0
M  V30 5966 O 559.703 0.251853 1.81965 0
M  V30 5967 C 559.765 3.52171 0.722187 0
M  V30 5968 C 559.429 4.5562 -0.354902 0
M  V30 5969 C 560.426 5.05883 -1.19911 0
M  V30 5970 C 558.111 4.99703 -0.510145 0
M  V30 5971 C 560.105 5.98814 -2.18406 0
M  V30 5972 C 557.792 5.92443 -1.49848 0
M  V30 5973 C 558.79 6.41887 -2.33389 0
M  V30 5974 O 558.478 7.32802 -3.3054 0
M  V30 5975 H 558.21 0.674086 0.0508296 0
M  V30 5976 H 560.764 1.99229 -0.49968 0
M  V30 5977 H 558.994 3.55529 1.52105 0
M  V30 5978 H 560.683 3.8652 1.23925 0
M  V30 5979 H 561.449 4.72586 -1.09028 0
M  V30 5980 H 557.328 4.60816 0.130274 0
M  V30 5981 H 560.872 6.3733 -2.83649 0
M  V30 5982 H 556.769 6.25155 -1.60786 0
M  V30 5983 H 557.537 7.50749 -3.26064 0
M  V30 5984 N 560.2 0.0768682 1.57412 0
M  V30 5985 C 561.147 -0.888577 2.13009 0
M  V30 5986 C 562.117 -1.29198 1.0439 0
M  V30 5987 O 563.302 -1.37694 1.3208 0
M  V30 5988 C 560.442 -2.14899 2.70023 0
M  V30 5989 C 559.555 -1.79777 3.92816 0
M  V30 5990 C 558.69 -3.00467 4.38056 0
M  V30 5991 C 557.729 -2.61385 5.53484 0
M  V30 5992 N 556.866 -3.74851 5.93659 0
M  V30 5993 H 561.706 -0.407593 2.95199 0
M  V30 5994 H 559.243 -0.189534 1.45874 0
M  V30 5995 H 561.201 -2.88688 3.0119 0
M  V30 5996 H 559.831 -2.60529 1.9059 0
M  V30 5997 H 558.883 -0.960301 3.68079 0
M  V30 5998 H 560.195 -1.47027 4.76639 0
M  V30 5999 H 559.349 -3.82529 4.7091 0
M  V30 6000 H 558.088 -3.36413 3.53097 0
M  V30 6001 H 557.093 -1.77746 5.20275 0
M  V30 6002 H 558.318 -2.26603 6.40178 0
M  V30 6003 H 556.264 -4.1055 5.11649 0
M  V30 6004 H 556.181 -3.45887 6.72234 0
M  V30 6005 H 557.449 -4.57477 6.31138 0
M  V30 6006 N 561.678 -1.56367 -0.196722 0
M  V30 6007 C 562.641 -1.93561 -1.22746 0
M  V30 6008 C 563.641 -0.816566 -1.38524 0
M  V30 6009 O 564.831 -1.084 -1.36363 0
M  V30 6010 C 561.963 -2.20823 -2.59712 0
M  V30 6011 H 563.156 -2.85774 -0.909586 0
M  V30 6012 H 560.709 -1.50032 -0.438174 0
M  V30 6013 H 561.444 -1.31243 -2.96557 0
M  V30 6014 H 561.229 -3.02368 -2.49632 0
M  V30 6015 H 562.719 -2.50608 -3.34044 0
M  V30 6016 N 563.156 0.464375 -1.50603 0
M  V30 6017 C 564.404 1.21356 -1.61608 0
M  V30 6018 C 564.725 1.92329 -0.321643 0
M  V30 6019 O 563.995 1.84403 0.661232 0
M  V30 6020 H 562.575 0.45094 -0.595535 0
M  V30 6021 H 565.237 0.535046 -1.87412 0
M  V30 6022 H 564.333 1.95783 -2.43054 0
M  V30 6023 N 564.634 1.40294 0.718013 0
M  V30 6024 C 565.88 1.39648 1.47885 0
M  V30 6025 C 566.235 -0.0023879 1.924 0
M  V30 6026 O 565.528 -0.972304 1.65096 0
M  V30 6027 C 565.722 2.31814 2.72024 0
M  V30 6028 C 565.551 3.80523 2.3965 0
M  V30 6029 C 564.321 4.49351 2.3111 0
M  V30 6030 C 566.519 4.72077 2.04079 0
M  V30 6031 N 564.501 5.83305 1.91385 0
M  V30 6032 C 565.872 5.94809 1.74935 0
M  V30 6033 C 567.927 4.59935 1.90694 0
M  V30 6034 C 566.63 7.06755 1.33753 0
M  V30 6035 C 568.656 5.7182 1.50915 0
M  V30 6036 C 568.018 6.93637 1.22668 0
M  V30 6037 H 564.117 0.566263 0.539324 0
M  V30 6038 H 566.701 1.75986 0.832891 0
M  V30 6039 H 564.872 1.97607 3.34374 0
M  V30 6040 H 566.604 2.22042 3.38348 0
M  V30 6041 H 563.359 4.03002 2.4877 0
M  V30 6042 H 563.783 6.54239 1.74068 0
M  V30 6043 H 568.425 3.66274 2.11194 0
M  V30 6044 H 566.143 8.00302 1.11995 0
M  V30 6045 H 569.729 5.64421 1.4114 0
M  V30 6046 H 568.609 7.78743 0.923502 0
M  V30 6047 N 566.112 -0.949982 1.2575 0
M  V30 6048 C 567.342 -1.72721 1.13363 0
M  V30 6049 C 567.75 -1.86562 -0.314842 0
M  V30 6050 O 567.093 -1.36621 -1.22803 0
M  V30 6051 C 567.155 -3.15695 1.7198 0
M  V30 6052 C 566.819 -3.25268 3.21014 0
M  V30 6053 C 567.816 -3.09222 4.17945 0
M  V30 6054 C 565.501 -3.4894 3.61312 0
M  V30 6055 C 567.495 -3.16701 5.53154 0
M  V30 6056 C 565.182 -3.56055 4.96657 0
M  V30 6057 C 566.18 -3.3995 5.92387 0
M  V30 6058 O 565.868 -3.46757 7.25269 0
M  V30 6059 H 565.6 -0.547888 0.395973 0
M  V30 6060 H 568.154 -1.20009 1.66694 0
M  V30 6061 H 566.384 -3.69791 1.13101 0
M  V30 6062 H 568.073 -3.75295 1.54624 0
M  V30 6063 H 568.839 -2.90798 3.88151 0
M  V30 6064 H 564.718 -3.60534 2.87291 0
M  V30 6065 H 568.262 -3.04048 6.27854 0
M  V30 6066 H 564.159 -3.73997 5.26115 0
M  V30 6067 H 564.927 -3.63358 7.33426 0
M  V30 6068 N 567.59 -1.07411 -1.15328 0
M  V30 6069 C 568.5 -0.706438 -2.23711 0
M  V30 6070 C 569.516 0.282586 -1.7169 0
M  V30 6071 O 570.692 0.129066 -2.00986 0
M  V30 6072 C 567.757 -0.11048 -3.46524 0
M  V30 6073 C 566.818 -1.15282 -4.13532 0
M  V30 6074 C 566.051 -0.585205 -5.30482 0
M  V30 6075 O 566.274 0.598549 -5.67251 0
M  V30 6076 O 565.208 -1.33039 -5.87013 0
M  V30 6077 H 569.034 -1.61031 -2.57493 0
M  V30 6078 H 566.619 -0.847113 -1.23062 0
M  V30 6079 H 568.501 0.21957 -4.20828 0
M  V30 6080 H 567.176 0.766703 -3.14489 0
M  V30 6081 H 566.083 -1.53523 -3.41147 0
M  V30 6082 H 567.416 -2.00192 -4.49649 0
M  V30 6083 N 569.068 1.32177 -0.85831 0
M  V30 6084 C 570.015 2.28794 -0.303607 0
M  V30 6085 C 570.985 1.55213 0.591453 0
M  V30 6086 O 572.17 1.83418 0.525585 0
M  V30 6087 C 569.31 3.41475 0.49889 0
M  V30 6088 C 568.423 4.2993 -0.422373 0
M  V30 6089 C 567.558 5.29743 0.393111 0
M  V30 6090 C 566.597 6.09842 -0.525317 0
M  V30 6091 N 565.734 7.01643 0.253208 0
M  V30 6092 H 570.574 2.75631 -1.13276 0
M  V30 6093 H 568.111 1.35606 -0.570026 0
M  V30 6094 H 570.069 4.05531 0.979826 0
M  V30 6095 H 568.699 2.95779 1.29284 0
M  V30 6096 H 567.751 3.66422 -1.02171 0
M  V30 6097 H 569.063 4.85899 -1.12709 0
M  V30 6098 H 568.217 5.9942 0.937056 0
M  V30 6099 H 566.956 4.744 1.13117 0
M  V30 6100 H 565.961 5.39066 -1.08112 0
M  V30 6101 H 567.186 6.6727 -1.26205 0
M  V30 6102 H 565.132 6.48725 0.974295 0
M  V30 6103 H 565.049 7.54981 -0.392398 0
M  V30 6104 H 566.317 7.756 0.778761 0
M  V30 6105 N 570.547 0.616602 1.45037 0
M  V30 6106 C 571.793 0.115501 2.02471 0
M  V30 6107 C 572.126 -1.25406 1.4828 0
M  V30 6108 O 571.401 -1.82922 0.661051 0
M  V30 6109 C 571.684 0.0863588 3.59996 0
M  V30 6110 C 571.537 1.48723 4.24501 0
M  V30 6111 C 572.856 -0.596762 4.36035 0
M  V30 6112 H 569.975 0.0434461 0.735718 0
M  V30 6113 H 572.617 0.7903 1.72784 0
M  V30 6114 H 570.767 -0.488277 3.85419 0
M  V30 6115 H 572.439 2.10964 4.10234 0
M  V30 6116 H 570.682 2.04534 3.82555 0
M  V30 6117 H 571.353 1.419 5.3345 0
M  V30 6118 H 573.829 -0.10824 4.15959 0
M  V30 6119 H 572.705 -0.586289 5.4576 0
M  V30 6120 H 572.966 -1.66451 4.09569 0
M  V30 6121 N 572.025 -1.5352 0.356285 0
M  V30 6122 C 572.935 -2.29151 -0.502712 0
M  V30 6123 C 573.951 -1.34753 -1.1008 0
M  V30 6124 O 575.127 -1.67803 -1.11374 0
M  V30 6125 C 572.192 -3.05911 -1.63154 0
M  V30 6126 C 571.253 -4.15958 -1.06194 0
M  V30 6127 C 570.486 -4.8905 -2.13696 0
M  V30 6128 O 570.709 -4.61919 -3.34645 0
M  V30 6129 O 569.643 -5.75202 -1.77275 0
M  V30 6130 H 573.469 -3.03492 0.112466 0
M  V30 6131 H 571.054 -1.4891 0.120942 0
M  V30 6132 H 572.936 -3.53874 -2.28804 0
M  V30 6133 H 571.611 -2.34415 -2.23229 0
M  V30 6134 H 570.518 -3.7227 -0.369603 0
M  V30 6135 H 571.851 -4.89593 -0.505872 0
M  V30 6136 N 573.503 -0.0852151 -1.57369 0
M  V30 6137 C 574.751 0.579658 -1.93609 0
M  V30 6138 C 575.072 1.69332 -0.967043 0
M  V30 6139 O 574.342 1.95892 -0.0174215 0
M  V30 6140 H 572.922 0.217113 -0.714752 0
M  V30 6141 H 575.584 -0.146226 -1.94351 0
M  V30 6142 H 574.68 0.996276 -2.95771 0
M  V30 6143 N 574.981 1.5647 0.188427 0
M  V30 6144 C 575.914 1.90146 1.26173 0
M  V30 6145 C 576.892 0.762294 1.43624 0
M  V30 6146 O 578.076 1.01395 1.58907 0
M  V30 6147 C 575.203 2.13748 2.62735 0
M  V30 6148 C 574.249 3.36448 2.62116 0
M  V30 6149 S 575.082 4.91364 2.12889 0
M  V30 6150 C 576.238 5.18041 3.51261 0
M  V30 6151 H 576.471 2.80886 0.974192 0
M  V30 6152 H 574.004 1.49335 0.392226 0
M  V30 6153 H 575.962 2.28028 3.41341 0
M  V30 6154 H 574.623 1.23747 2.88696 0
M  V30 6155 H 573.816 3.50109 3.62546 0
M  V30 6156 H 573.418 3.21196 1.91596 0
M  V30 6157 H 575.71 5.0897 4.47164 0
M  V30 6158 H 576.653 6.19764 3.42489 0
M  V30 6159 H 577.061 4.45657 3.46482 0
M  V30 6160 N 576.459 -0.456382 1.50847 0
M  V30 6161 C 577.391 -1.57033 1.66953 0
M  V30 6162 C 578.404 -1.53207 0.550593 0
M  V30 6163 O 579.593 -1.58328 0.824285 0
M  V30 6164 C 576.693 -2.95937 1.65149 0
M  V30 6165 C 575.866 -3.24475 2.93317 0
M  V30 6166 C 574.925 -4.43007 2.83957 0
M  V30 6167 O 573.951 -4.42592 3.57912 0
M  V30 6168 N 575.153 -5.45503 1.9851 0
M  V30 6169 H 577.918 -1.43629 2.63042 0
M  V30 6170 H 575.479 -0.645037 1.48495 0
M  V30 6171 H 577.471 -3.73224 1.56481 0
M  V30 6172 H 576.041 -3.03036 0.767343 0
M  V30 6173 H 575.261 -2.35664 3.16 0
M  V30 6174 H 576.549 -3.4036 3.78196 0
M  V30 6175 H 575.947 -5.48668 1.37766 0
M  V30 6176 H 574.504 -6.21716 1.95735 0
M  V30 6177 N 577.937 -1.40673 -0.710563 0
M  V30 6178 C 579.185 -1.38947 -1.46759 0
M  V30 6179 C 579.506 0.00572879 -1.94999 0
M  V30 6180 O 578.776 0.961358 -1.70689 0
M  V30 6181 H 577.356 -0.5114 -0.544499 0
M  V30 6182 H 580.018 -1.75773 -0.842012 0
M  V30 6183 H 579.114 -2.06745 -2.33801 0
M  V30 6184 N 579.415 0.9433 -1.26252 0
M  V30 6185 C 580.831 1.21644 -1.03319 0
M  V30 6186 C 581.031 2.0003 0.242983 0
M  V30 6187 O 580.087 2.33838 0.952688 0
M  V30 6188 C 581.4 1.97978 -2.2633 0
M  V30 6189 C 582.948 2.10978 -2.31209 0
M  V30 6190 C 583.423 2.90713 -3.53907 0
M  V30 6191 N 584.914 2.98287 -3.54371 0
M  V30 6192 C 585.649 3.60406 -4.45976 0
M  V30 6193 N 585.145 4.24043 -5.47868 0
M  V30 6194 N 586.938 3.57658 -4.33633 0
M  V30 6195 H 579.089 0.419221 -2.08222 0
M  V30 6196 H 581.352 0.247995 -0.914988 0
M  V30 6197 H 581.058 1.47788 -3.19142 0
M  V30 6198 H 580.932 2.9865 -2.30408 0
M  V30 6199 H 583.319 2.6036 -1.38913 0
M  V30 6200 H 583.4 1.09575 -2.31143 0
M  V30 6201 H 583.044 2.42018 -4.46531 0
M  V30 6202 H 582.974 3.92367 -3.5122 0
M  V30 6203 H 585.465 2.53044 -2.80673 0
M  V30 6204 H 585.778 4.69334 -6.13959 0
M  V30 6205 H 584.123 4.22637 -5.51728 0
M  V30 6206 H 587.314 3.07134 -3.53251 0
M  V30 6207 H 587.487 4.05782 -5.05218 0
M  V30 6208 N 580.893 1.08022 1.14757 0
M  V30 6209 C 582.309 0.807072 1.3769 0
M  V30 6210 C 582.509 -0.585504 1.92806 0
M  V30 6211 O 581.565 -1.34301 2.13821 0
M  V30 6212 C 582.878 1.88651 2.34161 0
M  V30 6213 C 584.426 1.91206 2.47809 0
M  V30 6214 C 584.901 2.98253 3.47576 0
M  V30 6215 N 586.392 2.974 3.55117 0
M  V30 6216 C 587.127 3.76872 4.32152 0
M  V30 6217 N 586.623 4.66212 5.12463 0
M  V30 6218 N 588.416 3.6519 4.27309 0
M  V30 6219 H 580.567 1.97824 0.77326 0
M  V30 6220 H 582.83 0.85826 0.402608 0
M  V30 6221 H 582.536 2.88749 2.00791 0
M  V30 6222 H 582.41 1.75244 3.3402 0
M  V30 6223 H 584.797 0.917564 2.80472 0
M  V30 6224 H 584.878 2.08691 1.47925 0
M  V30 6225 H 584.522 3.97907 3.15646 0
M  V30 6226 H 584.452 2.78014 4.47231 0
M  V30 6227 H 586.943 2.32643 2.97801 0
M  V30 6228 H 587.256 5.23468 5.68508 0
M  V30 6229 H 585.601 4.70257 5.11745 0
M  V30 6230 H 588.792 2.94765 3.63636 0
M  V30 6231 H 588.965 4.27366 4.87095 0
M  V30 6232 N 582.371 -1.3172 0.865308 0
M  V30 6233 C 583.319 -2.30569 0.306674 0
M  V30 6234 C 584.313 -1.59317 -0.575724 0
M  V30 6235 O 585.519 -1.73961 -0.462343 0
M  V30 6236 H 581.894 -0.747681 0.0804834 0
M  V30 6237 H 583.865 -2.75165 1.15441 0
M  V30 6238 C 582.614 -3.44358 -0.480952 0
M  V30 6239 H 581.937 -3.99354 0.18876 0
M  V30 6240 H 583.377 -4.15652 -0.837241 0
M  V30 6241 C 581.836 -2.92574 -1.67039 0
M  V30 6242 O 582.366 -2.90954 -2.76964 0
M  V30 6243 N 580.572 -2.48835 -1.50097 0
M  V30 6244 H 580.119 -2.50353 -0.606738 0
M  V30 6245 H 580.077 -2.14543 -2.29823 0
M  V30 6246 N 583.85 -0.624285 -1.44708 0
M  V30 6247 C 585.077 -0.132919 -2.06473 0
M  V30 6248 C 585.493 1.18967 -1.46602 0
M  V30 6249 O 584.85 1.72824 -0.586341 0
M  V30 6250 C 584.901 -0.00465418 -3.615 0
M  V30 6251 O 584.622 -1.27494 -4.19138 0
M  V30 6252 C 586.123 0.516213 -4.40284 0
M  V30 6253 H 583.343 -0.0765201 -0.666623 0
M  V30 6254 H 585.887 -0.856751 -1.85688 0
M  V30 6255 H 584.042 0.669583 -3.8157 0
M  V30 6256 H 584.456 -1.11536 -5.12504 0
M  V30 6257 H 585.93 0.554994 -5.49203 0
M  V30 6258 H 586.407 1.5419 -4.11245 0
M  V30 6259 H 587.013 -0.124542 -4.25118 0
M  V30 6260 N 585.328 1.53329 -0.364422 0
M  V30 6261 C 586.575 2.01239 0.225634 0
M  V30 6262 C 586.903 1.25172 1.48869 0
M  V30 6263 O 586.158 0.333289 1.92841 0
M  V30 6264 C 586.457 3.52911 0.564661 0
M  V30 6265 C 586.123 4.46837 -0.603936 0
M  V30 6266 C 584.785 4.72234 -0.924585 0
M  V30 6267 C 587.137 5.02409 -1.38691 0
M  V30 6268 C 584.465 5.50454 -2.0302 0
M  V30 6269 C 586.817 5.81836 -2.48293 0
M  V30 6270 C 585.481 6.0552 -2.80894 0
M  V30 6271 H 584.751 0.736386 0.0825654 0
M  V30 6272 H 587.398 1.84948 -0.496645 0
M  V30 6273 H 585.703 3.67144 1.36794 0
M  V30 6274 H 587.4 3.87455 1.03344 0
M  V30 6275 H 583.99 4.27217 -0.343983 0
M  V30 6276 H 588.174 4.82735 -1.15243 0
M  V30 6277 H 583.43 5.67024 -2.28678 0
M  V30 6278 H 587.604 6.23905 -3.0938 0
M  V30 6279 H 585.231 6.65916 -3.66688 0
M  V30 6280 N 586.806 0.0935595 1.57322 0
M  V30 6281 C 588.036 -0.578095 1.98347 0
M  V30 6282 C 588.444 -1.62357 0.971441 0
M  V30 6283 O 587.787 -1.83639 -0.0473959 0
M  V30 6284 C 587.849 -1.28525 3.3574 0
M  V30 6285 C 587.513 -0.390714 4.55327 0
M  V30 6286 C 588.51 0.360522 5.18648 0
M  V30 6287 C 586.195 -0.309221 5.01347 0
M  V30 6288 C 588.189 1.18125 6.26359 0
M  V30 6289 C 585.876 0.515157 6.08925 0
M  V30 6290 C 586.874 1.25904 6.71295 0
M  V30 6291 O 586.562 2.06978 7.76798 0
M  V30 6292 H 586.294 -0.159767 0.656849 0
M  V30 6293 H 588.848 0.169058 2.04703 0
M  V30 6294 H 587.078 -2.07894 3.26063 0
M  V30 6295 H 588.767 -1.85128 3.61223 0
M  V30 6296 H 589.533 0.307285 4.84026 0
M  V30 6297 H 585.412 -0.877881 4.52564 0
M  V30 6298 H 588.956 1.76236 6.74971 0
M  V30 6299 H 584.853 0.56988 6.42979 0
M  V30 6300 H 585.621 1.99644 7.93779 0
M  V30 6301 N 588.284 -1.56567 -0.180126 0
M  V30 6302 C 589.247 -1.94852 -1.20686 0
M  V30 6303 C 590.247 -0.831212 -1.3765 0
M  V30 6304 O 591.437 -1.09841 -1.35206 0
M  V30 6305 C 588.569 -2.23565 -2.57355 0
M  V30 6306 H 589.762 -2.86722 -0.879225 0
M  V30 6307 H 587.315 -1.50489 -0.422237 0
M  V30 6308 H 588.05 -1.34381 -2.95148 0
M  V30 6309 H 587.835 -3.04999 -2.46411 0
M  V30 6310 H 589.325 -2.54137 -3.31367 0
M  V30 6311 N 589.762 0.448376 -1.51087 0
M  V30 6312 C 591.01 1.19635 -1.62886 0
M  V30 6313 C 591.331 1.91977 -0.342024 0
M  V30 6314 O 590.601 1.85094 0.641636 0
M  V30 6315 H 589.181 0.444598 -0.600285 0
M  V30 6316 H 591.843 0.515138 -1.87969 0
M  V30 6317 H 590.939 1.93194 -2.45117 0
M  V30 6318 N 591.24 1.41047 0.703093 0
M  V30 6319 C 592.15 1.44645 1.84703 0
M  V30 6320 C 593.166 0.337778 1.7069 0
M  V30 6321 O 594.342 0.584327 1.92737 0
M  V30 6322 C 591.407 1.31928 3.20618 0
M  V30 6323 C 590.468 2.53047 3.46794 0
M  V30 6324 C 589.701 2.40927 4.76224 0
M  V30 6325 O 589.924 1.42978 5.5219 0
M  V30 6326 O 588.858 3.30543 5.03016 0
M  V30 6327 H 592.684 2.41139 1.84624 0
M  V30 6328 H 590.269 1.22504 0.855167 0
M  V30 6329 H 592.151 1.27092 4.01778 0
M  V30 6330 H 590.826 0.385469 3.21397 0
M  V30 6331 H 589.733 2.6346 2.65593 0
M  V30 6332 H 591.066 3.45231 3.50822 0
M  V30 6333 N 592.718 -0.936591 1.26751 0
M  V30 6334 C 593.967 -1.67778 1.11953 0
M  V30 6335 C 594.28 -1.92694 -0.33589 0
M  V30 6336 O 595.486 -2.64682 -0.604618 0
M  V30 6337 C 593.942 -3.02138 1.95551 0
M  V30 6338 C 593.55 -2.84953 3.45696 0
M  V30 6339 C 595.294 -3.79917 1.89377 0
M  V30 6340 C 593.201 -4.14814 4.21525 0
M  V30 6341 H 592.131 -0.629275 0.415366 0
M  V30 6342 H 594.782 -1.04122 1.51099 0
M  V30 6343 H 593.164 -3.668 1.49243 0
M  V30 6344 H 594.338 -2.29112 3.99805 0
M  V30 6345 H 592.653 -2.20612 3.53156 0
M  V30 6346 H 595.25 -4.76134 2.43312 0
M  V30 6347 H 595.593 -4.07204 0.865464 0
M  V30 6348 H 596.126 -3.22037 2.33532 0
M  V30 6349 H 592.865 -3.92709 5.24843 0
M  V30 6350 H 592.385 -4.70352 3.72195 0
M  V30 6351 H 594.064 -4.83239 4.3022 0
M  V30 6352 N 594.196 -1.08629 -1.14182 0
M  V30 6353 C 595.129 -0.662329 -2.18377 0
M  V30 6354 C 596.107 0.327054 -1.59277 0
M  V30 6355 O 597.291 0.230376 -1.87087 0
M  V30 6356 C 594.418 0.0254765 -3.3869 0
M  V30 6357 C 593.464 -0.924414 -4.16361 0
M  V30 6358 S 594.297 -2.43226 -4.77076 0
M  V30 6359 C 595.453 -1.75663 -6.00744 0
M  V30 6360 H 595.686 -1.54501 -2.54001 0
M  V30 6361 H 593.219 -0.901484 -1.2535 0
M  V30 6362 H 595.177 0.416032 -4.08386 0
M  V30 6363 H 593.838 0.884689 -3.01384 0
M  V30 6364 H 593.031 -0.390099 -5.02488 0
M  V30 6365 H 592.633 -1.25598 -3.5228 0
M  V30 6366 H 594.925 -1.07589 -6.68903 0
M  V30 6367 H 595.868 -2.59673 -6.58768 0
M  V30 6368 H 596.276 -1.22903 -5.50958 0
M  V30 6369 N 595.674 1.31259 -0.872281 0
M  V30 6370 C 596.899 2.0133 -0.498099 0
M  V30 6371 C 597.324 1.65031 0.902568 0
M  V30 6372 O 596.682 0.860164 1.59596 0
M  V30 6373 C 596.73 3.54411 -0.665205 0
M  V30 6374 O 595.834 4.11347 0.294473 0
M  V30 6375 H 595.175 0.633844 -0.197832 0
M  V30 6376 H 597.705 1.67402 -1.17633 0
M  V30 6377 H 597.715 4.04147 -0.559373 0
M  V30 6378 H 596.39 3.80171 -1.68651 0
M  V30 6379 H 594.967 3.72624 0.143403 0
M  V30 6380 N 597.152 0.631951 1.44375 0
M  V30 6381 C 598.399 0.136767 2.02038 0
M  V30 6382 C 598.727 -1.24168 1.49709 0
M  V30 6383 O 597.982 -1.83809 0.671763 0
M  V30 6384 C 598.281 0.0735861 3.57324 0
M  V30 6385 C 597.947 1.39092 4.28911 0
M  V30 6386 C 596.609 1.75171 4.48184 0
M  V30 6387 C 598.961 2.26042 4.69632 0
M  V30 6388 C 596.289 2.97907 5.05439 0
M  V30 6389 C 598.641 3.4805 5.28246 0
M  V30 6390 C 597.305 3.84351 5.45738 0
M  V30 6391 H 596.575 0.0500466 0.739308 0
M  V30 6392 H 599.222 0.818429 1.7313 0
M  V30 6393 H 597.527 -0.691449 3.8565 0
M  V30 6394 H 599.224 -0.326091 3.99672 0
M  V30 6395 H 595.814 1.10015 4.1424 0
M  V30 6396 H 599.998 1.99463 4.54454 0
M  V30 6397 H 595.254 3.26108 5.17169 0
M  V30 6398 H 599.428 4.15658 5.5875 0
M  V30 6399 H 597.055 4.79538 5.8987 0
M  V30 6400 N 598.631 -1.53133 0.372548 0
M  V30 6401 C 599.879 -2.00958 -0.214534 0
M  V30 6402 C 600.2 -1.26135 -1.48711 0
M  V30 6403 O 599.47 -0.376597 -1.92246 0
M  V30 6404 H 598.05 -0.742456 -0.0822664 0
M  V30 6405 H 600.712 -1.88367 0.500385 0
M  V30 6406 H 599.808 -3.09031 -0.436605 0
M  V30 6407 N 600.109 -0.101901 -1.5727 0
M  V30 6408 C 601.057 0.872034 -2.15635 0
M  V30 6409 C 602.051 1.28742 -1.10099 0
M  V30 6410 O 603.257 1.26116 -1.28432 0
M  V30 6411 H 599.632 0.299269 -0.689886 0
M  V30 6412 H 601.603 0.355137 -2.96279 0
M  V30 6413 C 600.352 2.11886 -2.7568 0
M  V30 6414 H 599.675 1.80813 -3.56576 0
M  V30 6415 H 601.115 2.78077 -3.20077 0
M  V30 6416 C 599.574 2.89739 -1.7191 0
M  V30 6417 O 600.104 3.84522 -1.16213 0
M  V30 6418 N 598.31 2.53407 -1.42245 0
M  V30 6419 H 597.857 1.76398 -1.87727 0
M  V30 6420 H 597.815 3.05795 -0.730529 0
M  V30 6421 N 601.587 1.56661 0.17182 0
M  V30 6422 C 602.834 1.81965 0.888529 0
M  V30 6423 C 603.162 0.6789 1.82267 0
M  V30 6424 O 602.417 -0.333875 1.92831 0
M  V30 6425 C 602.716 3.13435 1.71736 0
M  V30 6426 C 602.382 4.41159 0.932184 0
M  V30 6427 C 601.044 4.75851 0.715481 0
M  V30 6428 C 603.396 5.19803 0.381387 0
M  V30 6429 C 600.724 5.86666 -0.063126 0
M  V30 6430 C 603.076 6.31433 -0.384129 0
M  V30 6431 C 601.74 6.64692 -0.611637 0
M  V30 6432 H 601.01 0.665859 0.325136 0
M  V30 6433 H 603.657 1.90884 0.153495 0
M  V30 6434 H 601.962 2.99857 2.52177 0
M  V30 6435 H 603.659 3.30224 2.27493 0
M  V30 6436 H 600.249 4.13947 1.11112 0
M  V30 6437 H 604.433 4.93396 0.536148 0
M  V30 6438 H 599.689 6.10892 -0.249136 0
M  V30 6439 H 603.863 6.91577 -0.818185 0
M  V30 6440 H 601.49 7.50398 -1.21684 0
M  V30 6441 N 603.065 -0.440357 1.51323 0
M  V30 6442 C 604.342 -1.20109 1.5438 0
M  V30 6443 C 604.722 -2.08866 0.306303 0
M  V30 6444 O 604.07 -2.1723 -0.708773 0
M  V30 6445 C 604.28 -2.00555 2.8562 0
M  V30 6446 C 605.628 -2.577 3.37455 0
M  V30 6447 O 606.652 -2.10769 2.8715 0
M  V30 6448 O 605.511 -3.43289 4.25224 0
M  V30 6449 H 602.605 -0.546668 0.620551 0
M  V30 6450 H 605.151 -0.449672 1.63634 0
M  V30 6451 H 603.923 -1.35346 3.67147 0
M  V30 6452 H 603.546 -2.82768 2.79514 0
M  V30 6453 N 604.543 -1.41418 -0.695603 0
M  V30 6454 C 605.453 -1.45622 -1.83933 0
M  V30 6455 C 606.469 -0.346825 -1.70508 0
M  V30 6456 O 607.645 -0.59454 -1.92424 0
M  V30 6457 C 604.71 -1.33627 -3.19914 0
M  V30 6458 C 603.771 -2.54882 -3.45447 0
M  V30 6459 C 603.004 -2.43449 -4.7494 0
M  V30 6460 O 603.227 -1.45905 -5.51424 0
M  V30 6461 O 602.161 -3.33206 -5.01256 0
M  V30 6462 H 605.987 -2.42114 -1.83342 0
M  V30 6463 H 603.572 -1.22956 -0.848658 0
M  V30 6464 H 605.454 -1.29221 -4.01098 0
M  V30 6465 H 604.129 -0.402508 -3.21188 0
M  V30 6466 H 603.036 -2.64865 -2.64192 0
M  V30 6467 H 604.369 -3.47087 -3.48987 0
M  V30 6468 N 606.021 0.929856 -1.27246 0
M  V30 6469 C 607.267 1.6798 -1.13625 0
M  V30 6470 C 607.6 1.91586 0.317589 0
M  V30 6471 O 606.875 1.50467 1.23247 0
M  V30 6472 C 607.158 3.04766 -1.91806 0
M  V30 6473 C 607.011 2.88415 -3.45162 0
M  V30 6474 C 608.33 4.05063 -1.72082 0
M  V30 6475 H 605.449 0.609632 -0.414147 0
M  V30 6476 H 608.091 1.0792 -1.56376 0
M  V30 6477 H 606.241 3.56034 -1.55474 0
M  V30 6478 H 607.913 2.44282 -3.91311 0
M  V30 6479 H 606.156 2.23802 -3.71611 0
M  V30 6480 H 606.827 3.85482 -3.95105 0
M  V30 6481 H 609.303 3.62798 -2.03757 0
M  V30 6482 H 608.179 4.98765 -2.29182 0
M  V30 6483 H 608.44 4.37021 -0.668206 0
M  V30 6484 N 607.499 1.09233 1.13605 0
M  V30 6485 C 608.739 0.836786 1.86487 0
M  V30 6486 C 609.103 -0.626191 1.81502 0
M  V30 6487 O 610.304 -0.99758 2.49603 0
M  V30 6488 C 608.575 1.35476 3.30728 0
M  V30 6489 S 610.134 1.2328 4.21126 0
M  V30 6490 H 606.952 0.302702 0.643345 0
M  V30 6491 H 609.554 1.3953 1.36936 0
M  V30 6492 H 608.258 2.41381 3.31909 0
M  V30 6493 H 607.789 0.792286 3.85339 0
M  V30 6494 H 609.804 0.182468 4.95864 0
M  V30 6495 N 608.977 -1.30795 0.87923 0
M  V30 6496 C 609.927 -2.25838 0.313276 0
M  V30 6497 C 610.911 -1.51025 -0.55499 0
M  V30 6498 O 612.103 -1.72413 -0.400353 0
M  V30 6499 C 609.232 -3.39981 -0.476204 0
M  V30 6500 C 608.318 -4.22154 0.405826 0
M  V30 6501 N 608.709 -4.82934 1.50362 0
M  V30 6502 C 607.007 -4.45552 0.199909 0
M  V30 6503 C 607.708 -5.44444 2.0483 0
M  V30 6504 N 606.684 -5.26723 1.34403 0
M  V30 6505 H 610.486 -2.70374 1.15218 0
M  V30 6506 H 608 -1.45168 0.728003 0
M  V30 6507 H 609.997 -4.07108 -0.898251 0
M  V30 6508 H 608.657 -2.96986 -1.31261 0
M  V30 6509 H 609.668 -4.82319 1.8865 0
M  V30 6510 H 606.345 -4.13169 -0.599795 0
M  V30 6511 H 607.735 -6.02701 2.96986 0
M  V30 6512 N 610.455 -0.639598 -1.44038 0
M  V30 6513 C 611.685 -0.154586 -2.06021 0
M  V30 6514 C 612.093 1.17951 -1.47933 0
M  V30 6515 O 611.436 1.73627 -0.59994 0
M  V30 6516 C 611.498 0.0255459 -3.59491 0
M  V30 6517 C 611.162 -1.2317 -4.40089 0
M  V30 6518 C 612.159 -2.15735 -4.73027 0
M  V30 6519 C 609.844 -1.46949 -4.80324 0
M  V30 6520 C 611.838 -3.30382 -5.45093 0
M  V30 6521 C 609.525 -2.61891 -5.52138 0
M  V30 6522 C 610.523 -3.53433 -5.84443 0
M  V30 6523 O 610.211 -4.6637 -6.54793 0
M  V30 6524 H 609.943 -0.0808543 -0.671147 0
M  V30 6525 H 612.497 -0.876541 -1.85758 0
M  V30 6526 H 610.727 0.802733 -3.78276 0
M  V30 6527 H 612.416 0.466184 -4.03214 0
M  V30 6528 H 613.182 -1.98602 -4.42473 0
M  V30 6529 H 609.061 -0.765815 -4.54595 0
M  V30 6530 H 612.605 -4.01856 -5.70226 0
M  V30 6531 H 608.502 -2.78964 -5.82108 0
M  V30 6532 H 609.27 -4.6546 -6.73267 0
M  V30 6533 N 611.933 1.52934 -0.380664 0
M  V30 6534 C 613.158 2.06363 0.207157 0
M  V30 6535 C 613.583 1.25122 1.4045 0
M  V30 6536 O 612.941 0.274062 1.79217 0
M  V30 6537 C 612.989 3.56162 0.563996 0
M  V30 6538 O 612.093 3.77552 1.65917 0
M  V30 6539 H 611.434 0.663468 0.0265859 0
M  V30 6540 H 613.964 1.9719 -0.545635 0
M  V30 6541 H 613.974 3.99453 0.830752 0
M  V30 6542 H 612.649 4.14732 -0.311427 0
M  V30 6543 H 611.226 3.46154 1.3868 0
M  V30 6544 N 613.412 0.11024 1.57214 0
M  V30 6545 C 614.359 -0.843195 2.14846 0
M  V30 6546 C 615.329 -1.26954 1.07107 0
M  V30 6547 O 616.514 -1.34861 1.34971 0
M  V30 6548 C 613.654 -2.09123 2.74521 0
M  V30 6549 C 612.767 -1.71404 3.96541 0
M  V30 6550 C 611.902 -2.91107 4.44331 0
M  V30 6551 C 610.941 -2.49586 5.58903 0
M  V30 6552 N 610.078 -3.62175 6.01477 0
M  V30 6553 H 614.918 -0.344886 2.95998 0
M  V30 6554 H 612.455 -0.15855 1.46243 0
M  V30 6555 H 614.413 -2.82234 3.07246 0
M  V30 6556 H 613.043 -2.56427 1.96074 0
M  V30 6557 H 612.095 -0.88201 3.70033 0
M  V30 6558 H 613.407 -1.36884 4.7965 0
M  V30 6559 H 612.561 -3.72454 4.78919 0
M  V30 6560 H 611.3 -3.28848 3.60153 0
M  V30 6561 H 610.305 -1.6667 5.23929 0
M  V30 6562 H 611.53 -2.12973 6.4484 0
M  V30 6563 H 609.476 -3.99605 5.20242 0
M  V30 6564 H 609.393 -3.3155 6.79419 0
M  V30 6565 H 610.661 -4.43987 6.407 0
M  V30 6566 N 614.89 -1.56749 -0.16351 0
M  V30 6567 C 616.167 -1.73321 -0.906599 0
M  V30 6568 C 616.547 -0.673779 -2.00059 0
M  V30 6569 O 615.895 0.310121 -2.26386 0
M  V30 6570 C 616.105 -3.168 -1.46419 0
M  V30 6571 C 617.453 -3.77993 -1.93407 0
M  V30 6572 O 618.477 -3.20127 -1.56196 0
M  V30 6573 O 617.336 -4.79615 -2.61976 0
M  V30 6574 H 614.43 -0.708073 -0.427272 0
M  V30 6575 H 616.976 -1.69029 -0.150727 0
M  V30 6576 H 615.748 -3.85396 -0.677189 0
M  V30 6577 H 615.371 -3.2545 -2.28403 0
M  V30 6578 N 616.368 0.432326 -1.51554 0
M  V30 6579 C 617.298 1.53242 -1.76179 0
M  V30 6580 C 618.279 1.58717 -0.611801 0
M  V30 6581 O 619.464 1.74364 -0.855033 0
M  V30 6582 C 616.594 2.91278 -1.89141 0
M  V30 6583 C 615.548 3.00663 -3.04608 0
M  V30 6584 C 614.874 4.40728 -3.02759 0
M  V30 6585 C 616.174 2.74281 -4.44485 0
M  V30 6586 H 617.868 1.32886 -2.68294 0
M  V30 6587 H 615.414 0.637841 -1.29103 0
M  V30 6588 H 617.367 3.68203 -2.04951 0
M  V30 6589 H 616.091 3.12877 -0.936785 0
M  V30 6590 H 614.75 2.26179 -2.88511 0
M  V30 6591 H 614.398 4.59301 -2.05065 0
M  V30 6592 H 614.098 4.47936 -3.80299 0
M  V30 6593 H 615.622 5.19619 -3.20669 0
M  V30 6594 H 617.036 3.40936 -4.60907 0
M  V30 6595 H 615.433 2.92893 -5.23769 0
M  V30 6596 H 616.503 1.69856 -4.54177 0
M  V30 6597 N 617.846 1.41785 0.688094 0
M  V30 6598 C 619.092 1.41753 1.4503 0
M  V30 6599 C 619.425 0.0290745 1.94178 0
M  V30 6600 O 618.7 -0.944456 1.7003 0
M  V30 6601 C 618.983 2.43069 2.65686 0
M  V30 6602 C 618.836 3.91053 2.22256 0
M  V30 6603 C 620.155 2.41543 3.67893 0
M  V30 6604 H 617.274 0.516202 0.526027 0
M  V30 6605 H 619.916 1.73111 0.783105 0
M  V30 6606 H 618.066 2.1646 3.2261 0
M  V30 6607 H 619.738 4.28594 1.70602 0
M  V30 6608 H 617.981 4.05559 1.53963 0
M  V30 6609 H 618.652 4.57501 3.08863 0
M  V30 6610 H 621.128 2.65175 3.20658 0
M  V30 6611 H 620.004 3.14434 4.49914 0
M  V30 6612 H 620.265 1.43666 4.18106 0
M  V30 6613 N 619.324 -0.923095 1.27737 0
M  V30 6614 C 620.552 -1.70525 1.17171 0
M  V30 6615 C 620.967 -1.86847 -0.270881 0
M  V30 6616 O 620.324 -1.38879 -1.18401 0
M  V30 6617 C 620.375 -3.10242 1.85559 0
M  V30 6618 O 620.096 -2.94683 3.24182 0
M  V30 6619 C 621.597 -4.04586 1.81176 0
M  V30 6620 H 618.817 -0.533347 0.407163 0
M  V30 6621 H 621.361 -1.15599 1.68692 0
M  V30 6622 H 619.516 -3.62014 1.3793 0
M  V30 6623 H 619.93 -3.83045 3.58297 0
M  V30 6624 H 621.404 -5.00119 2.33633 0
M  V30 6625 H 621.881 -4.3218 0.782099 0
M  V30 6626 H 622.487 -3.58741 2.2844 0
M  V30 6627 N 620.802 -1.09834 -1.13024 0
M  V30 6628 C 622.218 -0.828875 -1.36388 0
M  V30 6629 C 622.418 0.554756 -1.93713 0
M  V30 6630 O 621.474 1.30882 -2.15931 0
M  V30 6631 C 622.787 -1.92352 -2.3113 0
M  V30 6632 C 624.335 -1.95124 -2.44735 0
M  V30 6633 C 624.81 -3.03745 -3.42787 0
M  V30 6634 N 626.301 -3.03012 -3.5034 0
M  V30 6635 C 627.036 -3.83699 -4.26101 0
M  V30 6636 N 626.532 -4.74306 -5.04981 0
M  V30 6637 N 628.325 -3.71942 -4.21445 0
M  V30 6638 H 620.476 -1.99029 -0.74169 0
M  V30 6639 H 622.739 -0.864557 -0.388903 0
M  V30 6640 H 622.445 -2.91906 -1.96172 0
M  V30 6641 H 622.319 -1.80536 -3.3119 0
M  V30 6642 H 624.706 -0.962069 -2.78977 0
M  V30 6643 H 624.787 -2.11018 -1.44586 0
M  V30 6644 H 624.431 -4.02878 -3.09276 0
M  V30 6645 H 624.361 -2.85094 -4.42752 0
M  V30 6646 H 626.852 -2.37352 -2.94062 0
M  V30 6647 H 627.165 -5.32446 -5.60108 0
M  V30 6648 H 625.51 -4.78339 -5.04199 0
M  V30 6649 H 628.701 -3.00513 -3.589 0
M  V30 6650 H 628.874 -4.35062 -4.80235 0
M  V30 6651 N 622.28 1.30327 -0.886154 0
M  V30 6652 C 623.527 1.96097 -0.505192 0
M  V30 6653 C 623.855 1.69952 0.945868 0
M  V30 6654 O 623.11 0.997653 1.68361 0
M  V30 6655 C 623.409 3.49906 -0.728042 0
M  V30 6656 C 623.075 3.96103 -2.15437 0
M  V30 6657 C 621.737 4.08428 -2.5444 0
M  V30 6658 C 624.089 4.20177 -3.08384 0
M  V30 6659 C 621.417 4.42189 -3.85598 0
M  V30 6660 C 623.769 4.55407 -4.39075 0
M  V30 6661 C 622.433 4.65941 -4.7797 0
M  V30 6662 H 621.703 0.71757 -0.184863 0
M  V30 6663 H 624.35 1.55171 -1.12223 0
M  V30 6664 H 622.655 3.9179 -0.027978 0
M  V30 6665 H 624.352 3.98869 -0.412862 0
M  V30 6666 H 620.942 3.87017 -1.84162 0
M  V30 6667 H 625.126 4.10134 -2.7947 0
M  V30 6668 H 620.382 4.48544 -4.15473 0
M  V30 6669 H 624.556 4.72986 -5.11133 0
M  V30 6670 H 622.183 4.91856 -5.79639 0
M  V30 6671 N 623.758 0.647228 1.43697 0
M  V30 6672 C 625.005 0.158188 2.01881 0
M  V30 6673 C 625.333 -1.22573 1.51017 0
M  V30 6674 O 624.588 -1.83086 0.69122 0
M  V30 6675 C 624.887 0.111481 3.57226 0
M  V30 6676 C 624.553 1.43633 4.27411 0
M  V30 6677 C 623.215 1.79915 4.463 0
M  V30 6678 C 625.567 2.31011 4.67208 0
M  V30 6679 C 622.895 3.03251 5.02251 0
M  V30 6680 C 625.247 3.53633 5.24525 0
M  V30 6681 C 623.911 3.90118 5.41631 0
M  V30 6682 H 623.181 0.0578851 0.738736 0
M  V30 6683 H 625.828 0.836746 1.72252 0
M  V30 6684 H 624.133 -0.650507 3.86362 0
M  V30 6685 H 625.83 -0.283682 3.99995 0
M  V30 6686 H 622.42 1.14403 4.1305 0
M  V30 6687 H 626.604 2.04272 4.52313 0
M  V30 6688 H 621.86 3.31575 5.13681 0
M  V30 6689 H 626.034 4.21561 5.5431 0
M  V30 6690 H 623.661 4.85768 5.84751 0
M  V30 6691 N 625.236 -1.5273 0.388769 0
M  V30 6692 C 626.482 -2.01871 -0.193877 0
M  V30 6693 C 626.815 -1.27475 -1.46505 0
M  V30 6694 O 626.09 -0.375063 -1.90849 0
M  V30 6695 C 626.373 -3.5712 -0.462336 0
M  V30 6696 C 626.226 -4.42186 0.824091 0
M  V30 6697 C 627.545 -4.21881 -1.25319 0
M  V30 6698 H 624.664 -0.733764 -0.0689899 0
M  V30 6699 H 627.306 -1.82796 0.518231 0
M  V30 6700 H 625.456 -3.73504 -1.06896 0
M  V30 6701 H 627.128 -4.37554 1.46096 0
M  V30 6702 H 625.371 -4.09219 1.43952 0
M  V30 6703 H 626.042 -5.48828 0.590905 0
M  V30 6704 H 628.518 -4.0947 -0.73981 0
M  V30 6705 H 627.394 -5.30487 -1.40977 0
M  V30 6706 H 627.655 -3.79478 -2.26824 0
M  V30 6707 O 626.753 -0.258973 -1.5941 0
M  V30 6708 H 627.444 0.314239 -1.91134 0
M  V30 END ATOM
M  V30 BEGIN BOND
M  V30 END BOND
M  V30 END CTAB
M  END
$$$$
