drugbank_target|O60551 Glycylpeptide N-tetradecanoyltransferase 2 (DB02180; DB02271; DB07061; DB07838)
 OpenBabel12092120393D

  0  0  0     0  0            999 V3000
M  V30 BEGIN CTAB
M  V30 COUNTS 8021 8115 0 0 0
M  V30 BEGIN ATOM
M  V30 1 H -0.908 1.98254 -0.117106 0
M  V30 2 N 0 1.576 0 0
M  V30 3 C 0.933 2.03868 1.02534 0
M  V30 4 C 1.911 0.928543 1.3348 0
M  V30 5 O 3.095 1.19667 1.45644 0
M  V30 6 C 0.222 2.43627 2.35294 0
M  V30 7 C -0.732 3.65373 2.2001 0
M  V30 8 S 0.101 5.13292 1.52614 0
M  V30 9 C 1.257 5.56322 2.86805 0
M  V30 10 H 1.49 2.90518 0.631377 0
M  V30 11 H -0.977 1.52953 0.210867 0
M  V30 12 H 0.981 2.67203 3.11629 0
M  V30 13 H -0.358 1.57376 2.7183 0
M  V30 14 H -1.165 3.90944 3.18086 0
M  V30 15 H -1.563 3.418 1.51819 0
M  V30 16 H 0.729 5.58782 3.83104 0
M  V30 17 H 1.672 6.56266 2.65933 0
M  V30 18 H 2.08 4.83886 2.90714 0
M  V30 19 N 1.4781 -0.272755 1.55222 0
M  V30 20 C 2.4411 -1.32041 1.87344 0
M  V30 21 C 3.4411 -1.42342 0.74803 0
M  V30 22 O 4.6311 -1.41488 1.0162 0
M  V30 23 C 1.7631 -2.70173 2.07893 0
M  V30 24 H 2.9561 -1.04789 2.80997 0
M  V30 25 H 0.5091 -0.51083 1.47717 0
M  V30 26 H 1.2441 -3.02605 1.16622 0
M  V30 27 H 1.0291 -2.64082 2.89833 0
M  V30 28 H 2.5191 -3.45869 2.34017 0
M  V30 29 N 2.9562 -1.48159 -0.537278 0
M  V30 30 C 3.8662 -1.64807 -1.6696 0
M  V30 31 C 4.8822 -0.530651 -1.65711 0
M  V30 32 O 6.0582 -0.800784 -1.84796 0
M  V30 33 C 3.1232 -1.67708 -3.03438 0
M  V30 34 C 2.1842 -2.91025 -3.156 0
M  V30 35 C 1.4172 -2.93778 -4.45567 0
M  V30 36 O 1.6402 -2.05153 -5.3223 0
M  V30 37 O 0.5742 -3.85868 -4.61941 0
M  V30 38 H 4.4002 -2.6066 -1.55853 0
M  V30 39 H 1.9852 -1.31475 -0.709549 0
M  V30 40 H 3.8672 -1.7218 -3.84619 0
M  V30 41 H 2.5422 -0.750278 -3.14885 0
M  V30 42 H 1.4492 -2.92089 -2.33741 0
M  V30 43 H 2.7822 -3.83065 -3.09066 0
M  V30 44 N 4.4343 0.785586 -1.36625 0
M  V30 45 C 5.7113 1.53198 -1.21613 0
M  V30 46 C 6.0913 2.10187 0.196113 0
M  V30 47 O 5.4393 1.94318 1.20219 0
M  V30 48 C 5.6493 2.62388 -2.30116 0
M  V30 49 C 6.9973 3.30167 -2.66974 0
M  V30 50 O 8.0213 2.72674 -2.29188 0
M  V30 51 O 6.8803 4.34077 -3.32023 0
M  V30 52 H 3.9743 0.677865 -0.473738 0
M  V30 53 H 6.5203 0.823739 -1.48367 0
M  V30 54 H 5.2923 2.18299 -3.24748 0
M  V30 55 H 4.9153 3.40827 -2.0475 0
M  V30 56 N 5.9124 1.20967 1.01018 0
M  V30 57 C 7.1374 1.0503 1.78839 0
M  V30 58 C 7.5624 -0.395752 1.8389 0
M  V30 59 O 6.9204 -1.28529 1.27867 0
M  V30 60 C 6.9684 1.64602 3.2084 0
M  V30 61 O 6.0724 0.887988 4.02726 0
M  V30 62 H 5.4134 0.369987 0.551367 0
M  V30 63 H 7.9434 1.60399 1.27018 0
M  V30 64 H 7.9534 1.68607 3.71532 0
M  V30 65 H 6.6284 2.69841 3.16479 0
M  V30 66 H 5.2054 0.922648 3.61305 0
M  V30 67 N 7.3905 -1.2043 1.01659 0
M  V30 68 C 8.3005 -2.2689 0.596484 0
M  V30 69 C 9.3165 -1.70107 -0.36599 0
M  V30 70 O 10.4925 -2.00117 -0.226942 0
M  V30 71 C 7.5575 -3.4665 -0.0586659 0
M  V30 72 C 6.6185 -4.18662 0.949751 0
M  V30 73 C 5.8515 -5.32705 0.32577 0
M  V30 74 O 6.0745 -5.63656 -0.874509 0
M  V30 75 O 5.0085 -5.92803 1.04249 0
M  V30 76 H 8.8345 -2.65041 1.4828 0
M  V30 77 H 6.4195 -1.27048 0.786082 0
M  V30 78 H 8.3015 -4.19256 -0.424564 0
M  V30 79 H 6.9765 -3.10375 -0.91918 0
M  V30 80 H 5.8835 -3.48229 1.36702 0
M  V30 81 H 7.2165 -4.58878 1.78023 0
M  V30 82 N 8.8686 -0.792821 -1.36206 0
M  V30 83 C 10.0936 -0.377701 -2.03932 0
M  V30 84 C 10.5186 0.998947 -1.59382 0
M  V30 85 O 9.8766 1.64421 -0.763903 0
M  V30 86 C 9.9246 -0.453635 -3.57735 0
M  V30 87 O 9.0286 0.538151 -4.08874 0
M  V30 88 H 8.3696 -0.159855 -0.644471 0
M  V30 89 H 10.8996 -1.07488 -1.7409 0
M  V30 90 H 10.9096 -0.318464 -4.06755 0
M  V30 91 H 9.5846 -1.45784 -3.89512 0
M  V30 92 H 8.1616 0.364359 -3.71116 0
M  V30 93 N 10.3467 1.47872 -0.545128 0
M  V30 94 C 11.3097 2.28337 0.198717 0
M  V30 95 C 12.3097 1.36255 0.853888 0
M  V30 96 O 13.4997 1.59003 0.711606 0
M  V30 97 C 10.6317 3.15585 1.28915 0
M  V30 98 H 11.8247 2.95567 -0.507941 0
M  V30 99 H 9.3777 1.53362 -0.301616 0
M  V30 100 H 10.1127 2.53019 2.02859 0
M  V30 101 H 9.8977 3.83337 0.824309 0
M  V30 102 H 11.3877 3.76243 1.81194 0
M  V30 103 N 11.8248 0.280983 1.55075 0
M  V30 104 C 12.7878 -0.590896 2.21452 0
M  V30 105 C 13.7878 -1.07682 1.19421 0
M  V30 106 O 14.9778 -0.97605 1.44288 0
M  V30 107 C 12.1098 -1.81587 2.88511 0
M  V30 108 H 13.3028 -0.0112554 2.99898 0
M  V30 109 H 10.8558 0.0316438 1.56268 0
M  V30 110 H 11.5908 -2.43587 2.14093 0
M  V30 111 H 11.3758 -1.4753 3.63287 0
M  V30 112 H 12.8658 -2.43575 3.39206 0
M  V30 113 N 13.3029 -1.57598 0.00835791 0
M  V30 114 C 14.5279 -1.95617 -0.689103 0
M  V30 115 C 14.9529 -0.883753 -1.66046 0
M  V30 116 O 14.3109 0.157352 -1.80616 0
M  V30 117 C 14.3589 -3.32736 -1.38994 0
M  V30 118 O 13.4629 -3.27631 -2.50463 0
M  V30 119 H 12.8039 -0.638379 -0.182668 0
M  V30 120 H 15.3339 -2.045 0.064036 0
M  V30 121 H 15.3439 -3.68494 -1.75147 0
M  V30 122 H 14.0189 -4.1034 -0.677778 0
M  V30 123 H 12.5959 -3.03561 -2.16576 0
M  V30 124 N 14.781 0.264519 -1.55364 0
M  V30 125 C 15.713 1.34965 -1.85248 0
M  V30 126 C 16.726 1.45136 -0.737525 0
M  V30 127 O 17.915 1.46801 -1.01547 0
M  V30 128 C 15.015 2.73008 -2.00797 0
M  V30 129 C 14.188 2.85324 -3.31525 0
M  V30 130 C 13.247 4.04097 -3.37034 0
M  V30 131 O 12.273 3.94455 -4.10358 0
M  V30 132 N 13.475 5.16458 -2.65049 0
M  V30 133 H 16.24 1.09672 -2.78913 0
M  V30 134 H 13.801 0.454635 -1.55386 0
M  V30 135 H 15.793 3.50772 -2.01844 0
M  V30 136 H 14.363 2.91087 -1.1396 0
M  V30 137 H 13.583 1.94377 -3.42945 0
M  V30 138 H 14.871 2.9049 -4.17724 0
M  V30 139 H 14.269 5.27181 -2.05175 0
M  V30 140 H 12.826 5.92422 -2.71809 0
M  V30 141 N 16.2591 1.48442 0.529413 0
M  V30 142 C 17.1911 1.59095 1.64989 0
M  V30 143 C 18.2041 0.475212 1.5571 0
M  V30 144 O 19.3931 0.746081 1.6216 0
M  V30 145 C 16.4931 1.50518 3.0364 0
M  V30 146 C 15.6661 2.77142 3.38395 0
M  V30 147 C 14.7251 2.62012 4.56329 0
M  V30 148 O 13.7511 3.35898 4.59522 0
M  V30 149 N 14.9531 1.71667 5.54536 0
M  V30 150 H 17.7181 2.55723 1.56287 0
M  V30 151 H 15.2791 1.45173 0.716697 0
M  V30 152 H 17.2711 1.38091 3.80412 0
M  V30 153 H 15.8411 0.618627 3.06418 0
M  V30 154 H 15.0611 3.0413 2.50796 0
M  V30 155 H 16.3491 3.61146 3.58401 0
M  V30 156 H 15.7471 1.10841 5.54735 0
M  V30 157 H 14.3041 1.65178 6.30523 0
M  V30 158 N 17.7372 -0.778329 1.37039 0
M  V30 159 C 18.9622 -1.57248 1.35233 0
M  V30 160 C 19.3872 -1.87999 -0.0615568 0
M  V30 161 O 18.7452 -1.48734 -1.03672 0
M  V30 162 C 18.7932 -2.86353 2.19167 0
M  V30 163 O 17.8972 -3.80442 1.59178 0
M  V30 164 H 17.2382 -0.476569 0.462362 0
M  V30 165 H 19.7682 -0.963853 1.80474 0
M  V30 166 H 19.7782 -3.35519 2.32145 0
M  V30 167 H 18.4532 -2.63299 3.21942 0
M  V30 168 H 17.0302 -3.39067 1.55203 0
M  V30 169 N 19.2153 -1.21501 -1.00376 0
M  V30 170 C 20.1453 -0.999478 -2.11028 0
M  V30 171 C 21.1263 0.0759671 -1.6993 0
M  V30 172 O 22.3113 -0.0841106 -1.94018 0
M  V30 173 C 19.4413 -0.564709 -3.42678 0
M  V30 174 C 18.3953 -1.58486 -3.97576 0
M  V30 175 C 17.7213 -1.00628 -5.25146 0
M  V30 176 C 19.0213 -2.97204 -4.29496 0
M  V30 177 H 20.7153 -1.92495 -2.29317 0
M  V30 178 H 18.2613 -0.92693 -1.102 0
M  V30 179 H 20.2143 -0.401091 -4.19487 0
M  V30 180 H 18.9383 0.396411 -3.24185 0
M  V30 181 H 17.5973 -1.73606 -3.22888 0
M  V30 182 H 17.2453 -0.0368439 -5.02987 0
M  V30 183 H 16.9453 -1.68771 -5.62841 0
M  V30 184 H 18.4693 -0.854015 -6.04598 0
M  V30 185 H 19.8833 -2.8552 -4.97143 0
M  V30 186 H 18.2803 -3.62372 -4.78338 0
M  V30 187 H 19.3503 -3.47956 -3.3772 0
M  V30 188 N 20.6934 1.19889 -1.02296 0
M  V30 189 C 21.6034 2.26571 -0.608508 0
M  V30 190 C 22.6194 1.70299 0.356964 0
M  V30 191 O 23.7954 2.00235 0.216326 0
M  V30 192 C 20.8604 3.46677 0.0402814 0
M  V30 193 C 19.9214 4.18153 -0.97194 0
M  V30 194 C 19.1544 5.32525 -0.354016 0
M  V30 195 O 19.3774 5.64112 0.844604 0
M  V30 196 O 18.3114 5.92242 -1.07391 0
M  V30 197 H 22.1374 2.64251 -1.49684 0
M  V30 198 H 19.7224 1.26629 -0.792809 0
M  V30 199 H 21.6044 4.19475 0.402324 0
M  V30 200 H 20.2794 3.10858 0.902707 0
M  V30 201 H 19.1864 3.47499 -1.38546 0
M  V30 202 H 20.5194 4.57927 -1.80454 0
M  V30 203 N 22.1715 0.800033 1.35784 0
M  V30 204 C 23.1015 0.220184 2.3246 0
M  V30 205 C 24.0825 -0.65073 1.57161 0
M  V30 206 O 25.2675 -0.582359 1.85263 0
M  V30 207 C 22.3975 -0.637353 3.41402 0
M  V30 208 C 21.3515 0.134531 4.27789 0
M  V30 209 C 20.6775 -0.844285 5.27992 0
M  V30 210 C 21.9775 1.32979 5.05088 0
M  V30 211 H 23.6715 1.02787 2.81203 0
M  V30 212 H 21.2175 0.495717 1.35199 0
M  V30 213 H 23.1705 -1.05302 4.08031 0
M  V30 214 H 21.8945 -1.47785 2.91251 0
M  V30 215 H 20.5535 0.531296 3.6273 0
M  V30 216 H 20.2015 -1.68011 4.74111 0
M  V30 217 H 19.9015 -0.332184 5.8666 0
M  V30 218 H 21.4255 -1.2583 5.97494 0
M  V30 219 H 22.8395 0.98934 5.64699 0
M  V30 220 H 21.2365 1.77593 5.7322 0
M  V30 221 H 22.3065 2.11978 4.36111 0
M  V30 222 N 23.6496 -1.47581 0.552962 0
M  V30 223 C 24.9266 -1.95563 -0.0381515 0
M  V30 224 C 25.3066 -1.49552 -1.48988 0
M  V30 225 O 24.6546 -0.732414 -2.16444 0
M  V30 226 C 24.8646 -3.48848 0.102919 0
M  V30 227 C 26.2126 -4.24577 -0.0446082 0
M  V30 228 O 27.2366 -3.56187 0.0302548 0
M  V30 229 O 26.0956 -5.46116 -0.204923 0
M  V30 230 H 23.1896 -0.824321 -0.0665067 0
M  V30 231 H 25.7356 -1.58001 0.619186 0
M  V30 232 H 24.5076 -3.75129 1.11328 0
M  V30 233 H 24.1306 -3.93165 -0.592224 0
M  V30 234 N 25.1277 -0.289203 -1.54924 0
M  V30 235 C 26.4047 0.376032 -1.91951 0
M  V30 236 C 26.7847 1.72622 -1.21511 0
M  V30 237 O 26.1327 2.25853 -0.346767 0
M  V30 238 C 26.3427 0.502378 -3.45365 0
M  V30 239 C 27.6907 0.778741 -4.17398 0
M  V30 240 O 28.7147 0.586647 -3.51336 0
M  V30 241 O 27.5737 1.14698 -5.34328 0
M  V30 242 H 24.6677 0.208167 -0.800372 0
M  V30 243 H 27.2137 -0.336394 -1.66332 0
M  V30 244 H 25.9857 -0.447255 -3.88736 0
M  V30 245 H 25.6087 1.26373 -3.76982 0
M  V30 246 N 26.6058 1.57591 -0.0167156 0
M  V30 247 C 27.5378 2.06343 0.997753 0
M  V30 248 C 28.5508 0.984469 1.29661 0
M  V30 249 O 29.7398 1.26093 1.26344 0
M  V30 250 C 26.8398 2.46255 2.32834 0
M  V30 251 C 26.0128 3.77083 2.21646 0
M  V30 252 C 25.0718 4.0368 3.37534 0
M  V30 253 O 24.0978 4.7411 3.14973 0
M  V30 254 N 25.2998 3.52881 4.60929 0
M  V30 255 H 28.0648 2.93997 0.581875 0
M  V30 256 H 25.6258 1.61002 0.170316 0
M  V30 257 H 27.6178 2.61149 3.09166 0
M  V30 258 H 26.1878 1.64032 2.66106 0
M  V30 259 H 25.4078 3.72106 1.30119 0
M  V30 260 H 26.6958 4.62822 2.11361 0
M  V30 261 H 26.0938 2.95878 4.82154 0
M  V30 262 H 24.6508 3.73076 5.34469 0
M  V30 263 N 28.0839 -0.256276 1.55502 0
M  V30 264 C 29.3609 -1.00789 1.67633 0
M  V30 265 C 29.7409 -2.03706 0.553826 0
M  V30 266 O 29.0889 -2.24145 -0.443969 0
M  V30 267 C 29.2989 -1.64968 3.07549 0
M  V30 268 C 30.6469 -2.15505 3.65845 0
M  V30 269 O 31.6709 -1.74925 3.1029 0
M  V30 270 O 30.5299 -2.89986 4.63217 0
M  V30 271 H 27.6239 -0.468553 0.681459 0
M  V30 272 H 30.1699 -0.250806 1.67836 0
M  V30 273 H 28.9419 -0.904785 3.80696 0
M  V30 274 H 28.5649 -2.47321 3.11317 0
M  V30 275 N 29.562 -1.4872 -0.521534 0
M  V30 276 C 30.79 -1.60843 -1.30142 0
M  V30 277 C 31.205 -0.271897 -1.86832 0
M  V30 278 O 30.562 0.739969 -1.66825 0
M  V30 279 C 30.613 -2.66155 -2.4463 0
M  V30 280 O 30.334 -3.94623 -1.90275 0
M  V30 281 C 31.835 -2.88795 -3.36322 0
M  V30 282 H 29.055 -0.542075 -0.395468 0
M  V30 283 H 31.599 -1.94609 -0.628285 0
M  V30 284 H 29.754 -2.35224 -3.07812 0
M  V30 285 H 30.168 -4.52468 -2.65279 0
M  V30 286 H 31.642 -3.66264 -4.12983 0
M  V30 287 H 32.119 -1.97934 -3.9207 0
M  V30 288 H 32.725 -3.21063 -2.78924 0
M  V30 289 N 31.0401 0.771051 -1.3745 0
M  V30 290 C 32.2801 1.54264 -1.34096 0
M  V30 291 C 32.6441 1.91858 0.0737639 0
M  V30 292 O 33.8451 2.67797 0.23203 0
M  V30 293 C 32.1161 2.77326 -2.25445 0
M  V30 294 S 33.6751 3.67383 -2.39948 0
M  V30 295 H 30.4931 0.528122 -0.476034 0
M  V30 296 H 33.0951 0.906633 -1.73206 0
M  V30 297 H 31.7991 2.47788 -3.27153 0
M  V30 298 H 31.3301 3.45886 -1.87421 0
M  V30 299 H 33.3451 4.69334 -1.61059 0
M  V30 300 N 32.5182 1.22032 0.997298 0
M  V30 301 C 33.7662 1.04016 1.73278 0
M  V30 302 C 34.0872 -0.426255 1.90284 0
M  V30 303 O 33.3572 -1.30694 1.45931 0
M  V30 304 H 31.9372 0.381897 0.642 0
M  V30 305 H 34.5992 1.5347 1.20137 0
M  V30 306 H 33.6952 1.51441 2.72896 0
M  V30 307 N 33.9963 -1.19345 1.0293 0
M  V30 308 C 35.2453 -1.88363 0.721256 0
M  V30 309 C 35.5583 -1.80514 -0.753254 0
M  V30 310 O 36.7643 -2.44788 -1.17436 0
M  V30 311 C 35.2203 -3.37872 1.23978 0
M  V30 312 C 34.8283 -3.54278 2.74211 0
M  V30 313 C 36.5723 -4.12365 1.00775 0
M  V30 314 C 34.4793 -4.97682 3.19479 0
M  V30 315 H 33.4093 -0.705484 0.266098 0
M  V30 316 H 36.0603 -1.34928 1.24365 0
M  V30 317 H 34.4423 -3.90707 0.6453 0
M  V30 318 H 35.6163 -3.11769 3.39318 0
M  V30 319 H 33.9313 -2.93174 2.95699 0
M  V30 320 H 36.5283 -5.18119 1.32123 0
M  V30 321 H 36.8713 -4.16263 -0.0554308 0
M  V30 322 H 37.4043 -3.65668 1.56625 0
M  V30 323 H 34.1433 -4.98945 4.25128 0
M  V30 324 H 33.6633 -5.4095 2.591 0
M  V30 325 H 35.3423 -5.66337 3.12845 0
M  V30 326 N 35.4744 -0.807222 -1.35358 0
M  V30 327 C 36.7514 -0.311126 -1.9311 0
M  V30 328 C 37.1314 1.19937 -1.73719 0
M  V30 329 O 36.4794 1.99918 -1.10657 0
M  V30 330 C 36.6894 -0.723226 -3.41424 0
M  V30 331 C 38.0374 -0.713078 -4.18569 0
M  V30 332 O 39.0614 -0.664811 -3.49941 0
M  V30 333 O 37.9204 -0.772022 -5.41019 0
M  V30 334 H 35.0144 -0.081526 -0.822972 0
M  V30 335 H 37.5604 -0.890962 -1.4443 0
M  V30 336 H 36.3324 -1.76426 -3.4927 0
M  V30 337 H 35.9554 -0.118232 -3.97424 0
M  V30 338 N 36.9525 1.47285 -0.560781 0
M  V30 339 C 38.2005 2.02064 -0.0379868 0
M  V30 340 C 38.5215 1.43711 1.31803 0
M  V30 341 O 37.7915 0.61362 1.86042 0
M  V30 342 H 36.3715 0.746918 -0.0110531 0
M  V30 343 H 39.0335 1.80648 -0.731598 0
M  V30 344 H 38.1295 3.12064 0.0474463 0
M  V30 345 N 38.4306 0.297415 1.54768 0
M  V30 346 C 39.7076 -0.365847 1.92148 0
M  V30 347 C 40.0876 -1.71975 1.22424 0
M  V30 348 O 39.4356 -2.25666 0.358739 0
M  V30 349 C 39.6456 -0.484056 3.45627 0
M  V30 350 C 40.9936 -0.756594 4.17805 0
M  V30 351 O 42.0176 -0.568007 3.51642 0
M  V30 352 O 40.8766 -1.11863 5.34929 0
M  V30 353 H 37.9706 -0.203919 0.801465 0
M  V30 354 H 40.5166 0.34521 1.66152 0
M  V30 355 H 39.2886 0.467865 3.88493 0
M  V30 356 H 38.9116 -1.24372 3.77647 0
M  V30 357 N 39.9087 -1.5758 0.0250728 0
M  V30 358 C 40.8567 -2.11125 -0.97617 0
M  V30 359 C 41.8507 -1.03689 -1.33959 0
M  V30 360 O 43.0567 -1.22128 -1.3223 0
M  V30 361 H 39.4317 -0.674468 -0.332561 0
M  V30 362 H 41.4027 -2.94194 -0.499223 0
M  V30 363 C 40.1517 -2.65017 -2.2508 0
M  V30 364 H 39.4747 -3.47333 -1.9799 0
M  V30 365 H 40.9147 -3.06133 -2.93357 0
M  V30 366 C 39.3737 -1.57574 -2.97779 0
M  V30 367 O 39.9037 -0.973203 -3.89733 0
M  V30 368 N 38.1097 -1.29716 -2.60043 0
M  V30 369 H 37.6567 -1.789 -1.85345 0
M  V30 370 H 37.6147 -0.58051 -3.08994 0
M  V30 371 N 41.3868 0.248026 -1.55636 0
M  V30 372 C 42.2968 1.32859 -1.93354 0
M  V30 373 C 43.3128 1.52719 -0.833838 0
M  V30 374 O 44.4888 1.66363 -1.13513 0
M  V30 375 C 41.5538 2.66337 -2.21958 0
M  V30 376 C 40.6148 2.55008 -3.45354 0
M  V30 377 C 39.8478 3.82121 -3.72584 0
M  V30 378 O 40.0708 4.83951 -3.01907 0
M  V30 379 O 39.0048 3.80822 -4.6611 0
M  V30 380 H 42.8308 1.03862 -2.85388 0
M  V30 381 H 40.4158 0.448686 -1.42503 0
M  V30 382 H 42.2978 3.45216 -2.4167 0
M  V30 383 H 40.9728 2.95068 -1.33103 0
M  V30 384 H 39.8798 1.7442 -3.30951 0
M  V30 385 H 41.2128 2.31222 -4.34508 0
M  V30 386 N 42.8649 1.48995 0.513639 0
M  V30 387 C 43.7749 1.67443 1.64317 0
M  V30 388 C 44.7909 0.556947 1.64846 0
M  V30 389 O 45.9669 0.830082 1.83498 0
M  V30 390 C 43.0319 1.72515 3.00732 0
M  V30 391 C 42.0929 2.96009 3.1093 0
M  V30 392 C 41.3259 3.00829 4.40837 0
M  V30 393 O 41.5489 2.13594 5.28898 0
M  V30 394 O 40.4829 3.93168 4.55744 0
M  V30 395 H 44.3089 2.63106 1.51687 0
M  V30 396 H 41.8939 1.32588 0.688543 0
M  V30 397 H 43.7759 1.78277 3.81831 0
M  V30 398 H 42.4509 0.800278 3.13651 0
M  V30 399 H 41.3579 2.9577 2.29065 0
M  V30 400 H 42.6909 3.87934 3.02933 0
M  V30 401 N 44.343 -0.763751 1.37857 0
M  V30 402 C 45.253 -1.90817 1.36478 0
M  V30 403 C 46.269 -1.71997 0.263248 0
M  V30 404 O 47.445 -1.95095 0.499979 0
M  V30 405 C 44.51 -3.2605 1.17864 0
M  V30 406 C 43.571 -3.57467 2.3773 0
M  V30 407 C 42.804 -4.86249 2.19995 0
M  V30 408 O 43.027 -5.57884 1.18836 0
M  V30 409 O 41.961 -5.16911 3.08361 0
M  V30 410 H 45.787 -1.94933 2.32884 0
M  V30 411 H 43.372 -0.907619 1.1867 0
M  V30 412 H 45.254 -4.06924 1.09504 0
M  V30 413 H 43.929 -3.22769 0.245372 0
M  V30 414 H 42.836 -2.76796 2.51664 0
M  V30 415 H 44.169 -3.655 3.29652 0
M  V30 416 N 45.8211 -1.22559 -0.990812 0
M  V30 417 C 47.0491 -1.07779 -1.76611 0
M  V30 418 C 47.4641 0.371513 -1.85109 0
M  V30 419 O 46.8211 1.25737 -1.32274 0
M  V30 420 C 46.8721 -1.68512 -3.19822 0
M  V30 421 O 46.5931 -3.07774 -3.1178 0
M  V30 422 C 48.0941 -1.59035 -4.13791 0
M  V30 423 H 45.3141 -0.377729 -0.554583 0
M  V30 424 H 47.8581 -1.62195 -1.24551 0
M  V30 425 H 46.0131 -1.18154 -3.68942 0
M  V30 426 H 46.4271 -3.37062 -4.01858 0
M  V30 427 H 47.9011 -2.0625 -5.1202 0
M  V30 428 H 48.3781 -0.547273 -4.35777 0
M  V30 429 H 48.9841 -2.08709 -3.70568 0
M  V30 430 N 47.2992 1.18797 -1.03562 0
M  V30 431 C 48.2092 2.25913 -0.632505 0
M  V30 432 C 49.2252 1.70668 0.338882 0
M  V30 433 O 50.4012 2.00453 0.195076 0
M  V30 434 C 47.4662 3.467 0.00350942 0
M  V30 435 C 46.5272 4.17098 -1.01624 0
M  V30 436 C 45.7602 5.32119 -0.410478 0
M  V30 437 O 45.9832 5.64976 0.784725 0
M  V30 438 O 44.9172 5.9107 -1.13667 0
M  V30 439 H 48.7432 2.62648 -1.52478 0
M  V30 440 H 46.3282 1.25781 -0.806195 0
M  V30 441 H 48.2102 4.19878 0.35781 0
M  V30 442 H 46.8852 3.11798 0.869686 0
M  V30 443 H 45.7922 3.4601 -1.42224 0
M  V30 444 H 47.1252 4.55987 -1.85301 0
M  V30 445 N 48.7773 0.814389 1.34928 0
M  V30 446 C 49.7273 0.202752 2.27097 0
M  V30 447 C 50.7113 -0.62799 1.48139 0
M  V30 448 O 51.9033 -0.483969 1.70255 0
M  V30 449 C 49.0323 -0.64146 3.37254 0
M  V30 450 C 48.1183 0.19944 4.23631 0
M  V30 451 N 48.5093 1.26628 4.89693 0
M  V30 452 C 46.8073 -0.0176433 4.45997 0
M  V30 453 C 47.5083 1.78031 5.53787 0
M  V30 454 N 46.4843 1.08553 5.32651 0
M  V30 455 H 50.2863 1.01893 2.75672 0
M  V30 456 H 47.8003 0.656332 1.48546 0
M  V30 457 H 49.7973 -1.09575 4.02243 0
M  V30 458 H 48.4573 -1.4559 2.9023 0
M  V30 459 H 49.4683 1.64901 4.90946 0
M  V30 460 H 46.1453 -0.800601 4.09752 0
M  V30 461 H 47.5353 2.67236 6.16469 0
M  V30 462 N 50.2554 -1.46986 0.568584 0
M  V30 463 C 51.2184 -2.28624 -0.162366 0
M  V30 464 C 52.2184 -1.37596 -0.832103 0
M  V30 465 O 53.4084 -1.60115 -0.68622 0
M  V30 466 C 50.5404 -3.17596 -1.23878 0
M  V30 467 H 51.7334 -2.94722 0.554899 0
M  V30 468 H 49.2864 -1.52863 0.325976 0
M  V30 469 H 50.0214 -2.56214 -1.98808 0
M  V30 470 H 49.8064 -3.846 -0.763219 0
M  V30 471 H 51.2964 -3.79078 -1.75185 0
M  V30 472 N 51.7335 -0.305618 -1.54608 0
M  V30 473 C 52.6805 0.568421 -2.23691 0
M  V30 474 C 53.6505 1.12592 -1.22116 0
M  V30 475 O 54.8355 1.16959 -1.50749 0
M  V30 476 C 51.9755 1.7322 -2.98477 0
M  V30 477 C 51.0885 1.20566 -4.14835 0
M  V30 478 C 50.2235 2.33368 -4.77193 0
M  V30 479 C 49.2625 1.7787 -5.85686 0
M  V30 480 N 48.3995 2.84263 -6.4198 0
M  V30 481 H 53.2395 -0.0272867 -2.97988 0
M  V30 482 H 50.7765 -0.0252363 -1.47078 0
M  V30 483 H 52.7345 2.41675 -3.40072 0
M  V30 484 H 51.3645 2.29947 -2.26548 0
M  V30 485 H 50.4165 0.413223 -3.78149 0
M  V30 486 H 51.7285 0.759417 -4.92985 0
M  V30 487 H 50.8825 3.09761 -5.21664 0
M  V30 488 H 49.6215 2.8132 -3.98385 0
M  V30 489 H 48.6265 0.99968 -5.40635 0
M  V30 490 H 49.8515 1.30816 -6.66381 0
M  V30 491 H 47.7975 3.31541 -5.66053 0
M  V30 492 H 47.7145 2.44149 -7.15491 0
M  V30 493 H 48.9825 3.6054 -6.91109 0
M  V30 494 N 53.2116 1.57565 -0.0334293 0
M  V30 495 C 54.4596 1.91598 0.642999 0
M  V30 496 C 54.7806 0.910847 1.7242 0
M  V30 497 O 54.0506 -0.0469931 1.95844 0
M  V30 498 H 52.6306 0.707228 0.240496 0
M  V30 499 H 55.2926 1.94726 -0.0822488 0
M  V30 500 H 54.3886 2.92336 1.09298 0
M  V30 501 N 54.6897 -0.239769 1.55765 0
M  V30 502 C 55.9147 -0.988373 1.82335 0
M  V30 503 C 56.3397 -1.77886 0.611421 0
M  V30 504 O 55.6977 -1.75889 -0.439639 0
M  V30 505 C 55.7457 -1.89627 3.06715 0
M  V30 506 O 54.8497 -2.98904 2.84131 0
M  V30 507 H 54.1907 -0.280858 0.601677 0
M  V30 508 H 56.7207 -0.258597 2.02959 0
M  V30 509 H 56.7307 -2.30957 3.36338 0
M  V30 510 H 55.4057 -1.31511 3.9456 0
M  V30 511 H 53.9827 -2.61651 2.65694 0
M  V30 512 N 56.1678 -1.49265 -0.50573 0
M  V30 513 C 57.5788 -1.51769 -1.08734 0
M  V30 514 C 57.9298 -0.301192 -1.93874 0
M  V30 515 O 57.0548 0.589456 -2.08217 0
M  V30 516 C 57.6498 -2.75017 -1.97867 0
M  V30 517 C 56.2088 -2.80314 -2.51199 0
M  V30 518 C 55.3558 -2.4562 -1.28709 0
M  V30 519 H 58.3068 -1.56031 -0.289855 0
M  V30 520 H 58.3278 -2.5491 -2.82491 0
M  V30 521 H 57.8398 -3.63539 -1.35873 0
M  V30 522 H 55.9408 -1.96061 -3.16845 0
M  V30 523 H 56.0538 -3.82366 -2.88675 0
M  V30 524 H 54.4178 -1.97297 -1.61078 0
M  V30 525 H 55.2008 -3.36411 -0.6843 0
M  V30 526 N 57.6459 0.756429 -1.3826 0
M  V30 527 C 58.8939 1.51248 -1.34047 0
M  V30 528 C 59.2149 1.94875 0.0698372 0
M  V30 529 O 58.4849 1.67436 1.01696 0
M  V30 530 H 57.0649 0.561018 -0.493222 0
M  V30 531 H 59.7269 0.899347 -1.7291 0
M  V30 532 H 58.8229 2.40472 -1.98947 0
M  V30 533 N 59.124 1.23083 0.984299 0
M  V30 534 C 60.372 1.05848 1.72165 0
M  V30 535 C 60.693 -0.406049 1.90726 0
M  V30 536 O 59.963 -1.29139 1.47309 0
M  V30 537 H 58.543 0.388685 0.637913 0
M  V30 538 H 61.205 1.54736 1.18503 0
M  V30 539 H 60.301 1.54327 2.71274 0
M  V30 540 N 60.6021 -1.18246 1.0419 0
M  V30 541 C 61.8321 -1.91916 0.764961 0
M  V30 542 C 62.2401 -1.76485 -0.681898 0
M  V30 543 O 61.5831 -1.09275 -1.47664 0
M  V30 544 C 61.6451 -3.4373 1.05309 0
M  V30 545 C 61.3091 -3.8294 2.4941 0
M  V30 546 C 62.3061 -3.86621 3.47592 0
M  V30 547 C 59.9911 -4.142 2.84155 0
M  V30 548 C 61.9851 -4.21013 4.78568 0
M  V30 549 C 59.6721 -4.48262 4.15337 0
M  V30 550 C 60.6701 -4.51645 5.12353 0
M  V30 551 O 60.3581 -4.84911 6.41183 0
M  V30 552 H 60.0901 -0.61606 0.278292 0
M  V30 553 H 62.6441 -1.50947 1.39299 0
M  V30 554 H 60.8741 -3.84946 0.367933 0
M  V30 555 H 62.5631 -3.9865 0.763752 0
M  V30 556 H 63.3291 -3.62607 3.22089 0
M  V30 557 H 59.2081 -4.10743 2.09311 0
M  V30 558 H 62.7521 -4.23568 5.54289 0
M  V30 559 H 58.6491 -4.71737 4.40607 0
M  V30 560 H 59.4171 -5.02809 6.45852 0
M  V30 561 N 62.0802 -0.821533 -1.34494 0
M  V30 562 C 63.0102 -0.257138 -2.3208 0
M  V30 563 C 63.9912 0.625645 -1.58176 0
M  V30 564 O 65.1762 0.552811 -1.86166 0
M  V30 565 C 62.3062 0.582958 -3.42372 0
M  V30 566 C 61.2602 -0.202571 -4.2752 0
M  V30 567 C 60.5862 0.760179 -5.29269 0
M  V30 568 C 61.8862 -1.40998 -5.02908 0
M  V30 569 H 63.5802 -1.07247 -2.79532 0
M  V30 570 H 61.1262 -0.517163 -1.34393 0
M  V30 571 H 63.0792 0.987972 -4.09655 0
M  V30 572 H 61.8032 1.43133 -2.93565 0
M  V30 573 H 60.4622 -0.588936 -3.61838 0
M  V30 574 H 60.1102 1.60447 -4.76724 0
M  V30 575 H 59.8102 0.238809 -5.87115 0
M  V30 576 H 61.3342 1.16308 -5.9942 0
M  V30 577 H 62.7482 -1.07905 -5.63054 0
M  V30 578 H 61.1452 -1.86689 -5.70322 0
M  V30 579 H 62.2152 -2.1889 -4.32684 0
M  V30 580 N 63.5583 1.46682 -0.576371 0
M  V30 581 C 64.8063 2.02013 -0.0594163 0
M  V30 582 C 65.1273 1.45101 1.30271 0
M  V30 583 O 64.3973 0.633317 1.8538 0
M  V30 584 H 62.9773 0.746759 -0.0189745 0
M  V30 585 H 65.6393 1.79862 -0.750717 0
M  V30 586 H 64.7353 3.12097 0.014345 0
M  V30 587 N 65.0364 0.313813 1.54444 0
M  V30 588 C 65.9994 -0.54379 2.22656 0
M  V30 589 C 66.9994 -1.05124 1.21678 0
M  V30 590 O 68.1894 -0.945225 1.46325 0
M  V30 591 C 65.3214 -1.75427 2.92298 0
M  V30 592 H 66.5144 0.0523599 2.99854 0
M  V30 593 H 64.0674 0.0647834 1.56166 0
M  V30 594 H 64.8024 -2.38991 2.19211 0
M  V30 595 H 64.5874 -1.39791 3.66334 0
M  V30 596 H 66.0774 -2.36325 3.44297 0
M  V30 597 N 66.5145 -1.57545 0.0417849 0
M  V30 598 C 67.4615 -2.10977 -0.935805 0
M  V30 599 C 68.4315 -1.01486 -1.31491 0
M  V30 600 O 69.6165 -1.2898 -1.40602 0
M  V30 601 C 66.7565 -2.65169 -2.2086 0
M  V30 602 C 65.8695 -3.88714 -1.88482 0
M  V30 603 C 65.0045 -4.31254 -3.1015 0
M  V30 604 C 64.0435 -5.47524 -2.7365 0
M  V30 605 N 63.1805 -5.85162 -3.87982 0
M  V30 606 H 68.0205 -2.94218 -0.473249 0
M  V30 607 H 65.5575 -1.45415 -0.221981 0
M  V30 608 H 67.5155 -2.94685 -2.95325 0
M  V30 609 H 66.1455 -1.8474 -2.64709 0
M  V30 610 H 65.1975 -3.65849 -1.04205 0
M  V30 611 H 66.5095 -4.73245 -1.57608 0
M  V30 612 H 65.6635 -4.62273 -3.92923 0
M  V30 613 H 64.4025 -3.45516 -3.44195 0
M  V30 614 H 63.4075 -5.16187 -1.89291 0
M  V30 615 H 64.6325 -6.34971 -2.40807 0
M  V30 616 H 62.5785 -5.02377 -4.21846 0
M  V30 617 H 62.4955 -6.64362 -3.60775 0
M  V30 618 H 63.7635 -6.20791 -4.71422 0
M  V30 619 N 67.9926 0.231505 -1.5589 0
M  V30 620 C 68.9396 1.28682 -1.91598 0
M  V30 621 C 69.9096 1.47071 -0.771974 0
M  V30 622 O 71.0946 1.60802 -1.027 0
M  V30 623 C 68.2346 2.6342 -2.22944 0
M  V30 624 C 67.3476 2.52912 -3.50228 0
M  V30 625 C 66.4826 3.80106 -3.7107 0
M  V30 626 C 65.5216 3.64279 -4.91902 0
M  V30 627 N 64.6586 4.834 -5.09184 0
M  V30 628 H 69.4986 0.975305 -2.81588 0
M  V30 629 H 67.0356 0.470299 -1.39379 0
M  V30 630 H 68.9936 3.41869 -2.39126 0
M  V30 631 H 67.6236 2.92687 -1.36139 0
M  V30 632 H 66.6756 1.6595 -3.42294 0
M  V30 633 H 67.9876 2.37133 -4.38827 0
M  V30 634 H 67.1416 4.66999 -3.87295 0
M  V30 635 H 65.8806 3.98799 -2.80733 0
M  V30 636 H 64.8856 2.7577 -4.75637 0
M  V30 637 H 66.1106 3.47067 -5.83714 0
M  V30 638 H 64.0566 5.02425 -4.21788 0
M  V30 639 H 63.9736 4.70311 -5.91898 0
M  V30 640 H 65.2416 5.71747 -5.29835 0
M  V30 641 N 69.4707 1.49531 0.497807 0
M  V30 642 C 70.4177 1.66436 1.59899 0
M  V30 643 C 71.3877 0.505793 1.58212 0
M  V30 644 O 72.5727 0.733202 1.7615 0
M  V30 645 C 69.7127 1.7399 2.98029 0
M  V30 646 C 68.8257 3.01172 3.09708 0
M  V30 647 C 67.9607 2.99686 4.38591 0
M  V30 648 C 66.9997 4.21434 4.43914 0
M  V30 649 N 66.1367 4.1784 5.64229 0
M  V30 650 H 70.9767 2.60459 1.44793 0
M  V30 651 H 68.5137 1.29137 0.704423 0
M  V30 652 H 70.4717 1.76352 3.78095 0
M  V30 653 H 69.1017 0.834301 3.11832 0
M  V30 654 H 68.1537 3.08408 2.22685 0
M  V30 655 H 69.4657 3.91165 3.09502 0
M  V30 656 H 68.6197 3.00628 5.2698 0
M  V30 657 H 67.3587 2.07477 4.41367 0
M  V30 658 H 66.3637 4.20733 3.53926 0
M  V30 659 H 67.5887 5.14839 4.42851 0
M  V30 660 H 65.5347 3.28469 5.67841 0
M  V30 661 H 65.4517 5.01571 5.65652 0
M  V30 662 H 66.7197 4.22889 6.54817 0
M  V30 663 N 70.9488 -0.749086 1.3866 0
M  V30 664 C 71.8958 -1.86291 1.36251 0
M  V30 665 C 72.8658 -1.64578 0.224347 0
M  V30 666 O 74.0508 -1.86181 0.417279 0
M  V30 667 C 71.1908 -3.23644 1.19786 0
M  V30 668 C 70.3038 -3.57158 2.43027 0
M  V30 669 C 69.4388 -4.83838 2.19258 0
M  V30 670 C 68.4778 -5.10152 3.38247 0
M  V30 671 N 67.6148 -6.28029 3.13884 0
M  V30 672 H 72.4548 -1.87685 2.3147 0
M  V30 673 H 69.9918 -0.917287 1.14997 0
M  V30 674 H 71.9498 -4.0291 1.08254 0
M  V30 675 H 70.5798 -3.21566 0.282031 0
M  V30 676 H 69.6318 -2.72701 2.65214 0
M  V30 677 H 70.9438 -3.7253 3.31697 0
M  V30 678 H 70.0978 -5.71057 2.04888 0
M  V30 679 H 68.8368 -4.70614 1.2796 0
M  V30 680 H 67.8418 -4.21401 3.53131 0
M  V30 681 H 69.0668 -5.25271 4.30427 0
M  V30 682 H 67.0128 -6.1612 2.25238 0
M  V30 683 H 66.9298 -6.43922 3.96106 0
M  V30 684 H 68.1978 -7.18124 3.03179 0
M  V30 685 N 72.4269 -1.23603 -0.977757 0
M  V30 686 C 73.3739 -1.01954 -2.07061 0
M  V30 687 C 74.3439 0.0638697 -1.65977 0
M  V30 688 O 75.5289 -0.0887624 -1.90593 0
M  V30 689 C 72.6689 -0.619658 -3.39491 0
M  V30 690 C 71.7819 -1.77547 -3.93829 0
M  V30 691 C 70.9169 -1.32212 -5.14484 0
M  V30 692 C 69.9559 -2.44852 -5.60994 0
M  V30 693 N 69.0929 -2.00456 -6.72876 0
M  V30 694 H 73.9329 -1.95495 -2.24913 0
M  V30 695 H 71.4699 -0.973861 -1.10247 0
M  V30 696 H 73.4279 -0.368898 -4.15566 0
M  V30 697 H 72.0579 0.278752 -3.21594 0
M  V30 698 H 71.1099 -2.14016 -3.14486 0
M  V30 699 H 72.4219 -2.62219 -4.24314 0
M  V30 700 H 71.5759 -1.02965 -5.97899 0
M  V30 701 H 70.3149 -0.445808 -4.85658 0
M  V30 702 H 69.3199 -2.74871 -4.76157 0
M  V30 703 H 70.5449 -3.33024 -5.91837 0
M  V30 704 H 68.4909 -1.15208 -6.45804 0
M  V30 705 H 68.4079 -2.78687 -7.02759 0
M  V30 706 H 69.6759 -1.7432 -7.59758 0
M  V30 707 N 73.905 1.17692 -1.04816 0
M  V30 708 C 74.852 2.21581 -0.645797 0
M  V30 709 C 75.822 1.62367 0.350159 0
M  V30 710 O 77.007 1.89254 0.242433 0
M  V30 711 C 74.147 3.45092 -0.0227568 0
M  V30 712 C 73.26 4.18613 -1.06709 0
M  V30 713 C 72.395 5.29602 -0.411767 0
M  V30 714 C 71.434 5.94904 -1.44067 0
M  V30 715 N 70.571 6.97414 -0.809781 0
M  V30 716 H 75.411 2.55353 -1.5362 0
M  V30 717 H 72.948 1.25438 -0.768364 0
M  V30 718 H 74.906 4.15679 0.35588 0
M  V30 719 H 73.536 3.11917 0.831122 0
M  V30 720 H 72.588 3.46779 -1.5636 0
M  V30 721 H 73.9 4.63293 -1.84827 0
M  V30 722 H 73.054 6.06696 0.0206623 0
M  V30 723 H 71.793 4.86045 0.401438 0
M  V30 724 H 70.798 5.16544 -1.88316 0
M  V30 725 H 72.023 6.40542 -2.25571 0
M  V30 726 H 69.969 6.55998 -0.0170186 0
M  V30 727 H 69.886 7.40386 -1.52856 0
M  V30 728 H 71.154 7.78463 -0.401999 0
M  V30 729 N 75.3831 0.828654 1.34056 0
M  V30 730 C 76.3151 0.212052 2.28217 0
M  V30 731 C 77.3281 -0.601362 1.51286 0
M  V30 732 O 78.5171 -0.430104 1.73241 0
M  V30 733 C 75.6171 -0.72088 3.31144 0
M  V30 734 C 74.7901 0.0509587 4.3737 0
M  V30 735 C 73.8491 -0.803766 5.20025 0
M  V30 736 O 72.8751 -0.246667 5.68665 0
M  V30 737 N 74.0771 -2.1227 5.40298 0
M  V30 738 H 76.8421 1.02105 2.81771 0
M  V30 739 H 74.4031 0.686153 1.46641 0
M  V30 740 H 76.3951 -1.29742 3.8334 0
M  V30 741 H 74.9651 -1.43061 2.77943 0
M  V30 742 H 74.1851 0.808831 3.85813 0
M  V30 743 H 75.4731 0.582065 5.0546 0
M  V30 744 H 74.8711 -2.59898 5.02464 0
M  V30 745 H 73.4281 -2.64796 5.95589 0
M  V30 746 N 76.8612 -1.46375 0.584142 0
M  V30 747 C 77.8082 -2.30323 -0.148286 0
M  V30 748 C 78.7782 -1.40703 -0.882713 0
M  V30 749 O 79.9632 -1.69651 -0.873099 0
M  V30 750 C 77.1032 -3.25196 -1.15507 0
M  V30 751 C 76.2162 -4.29915 -0.423943 0
M  V30 752 C 75.3512 -5.11914 -1.41838 0
M  V30 753 C 74.3902 -6.08381 -0.673736 0
M  V30 754 N 73.5272 -6.83242 -1.6163 0
M  V30 755 H 78.3672 -2.92427 0.573644 0
M  V30 756 H 75.9042 -1.44118 0.294703 0
M  V30 757 H 77.8622 -3.78646 -1.75166 0
M  V30 758 H 76.4922 -2.64898 -1.8447 0
M  V30 759 H 75.5442 -3.7931 0.287714 0
M  V30 760 H 76.8562 -4.98549 0.158128 0
M  V30 761 H 76.0102 -5.69648 -2.08773 0
M  V30 762 H 74.7492 -4.43243 -2.03438 0
M  V30 763 H 73.7542 -5.49799 0.00938483 0
M  V30 764 H 74.9792 -6.79071 -0.0631082 0
M  V30 765 H 72.9252 -6.1728 -2.22038 0
M  V30 766 H 72.8422 -7.48144 -1.08707 0
M  V30 767 H 74.1102 -7.45534 -2.27596 0
M  V30 768 N 78.3393 -0.321999 -1.54275 0
M  V30 769 C 79.7553 0.0306999 -1.5957 0
M  V30 770 C 79.9553 1.50614 -1.33857 0
M  V30 771 O 79.0113 2.2619 -1.12223 0
M  V30 772 C 80.3243 -0.386122 -2.98211 0
M  V30 773 C 81.8723 -0.336647 -3.11184 0
M  V30 774 C 82.3473 -0.728607 -4.52167 0
M  V30 775 N 83.8383 -0.681952 -4.58152 0
M  V30 776 C 84.5733 -0.957449 -5.6535 0
M  V30 777 N 84.0693 -1.3 -6.80494 0
M  V30 778 N 85.8623 -0.883113 -5.55119 0
M  V30 779 H 78.0133 -1.28332 -1.69247 0
M  V30 780 H 80.2763 -0.521716 -0.791528 0
M  V30 781 H 79.9823 -1.41404 -3.22022 0
M  V30 782 H 79.8563 0.249662 -3.76373 0
M  V30 783 H 82.2433 0.682058 -2.8711 0
M  V30 784 H 82.3243 -1.00734 -2.3513 0
M  V30 785 H 81.9683 -1.74522 -4.76974 0
M  V30 786 H 81.8983 -0.0356152 -5.26588 0
M  V30 787 H 84.3893 -0.428985 -3.75457 0
M  V30 788 H 84.7023 -1.49563 -7.58189 0
M  V30 789 H 83.0473 -1.33824 -6.81994 0
M  V30 790 H 86.2383 -0.615001 -4.64042 0
M  V30 791 H 86.4113 -1.10118 -6.38575 0
M  V30 792 N 79.8174 1.5752 -0.0501392 0
M  V30 793 C 80.7644 2.1147 0.924603 0
M  V30 794 C 81.7344 1.02182 1.30951 0
M  V30 795 O 82.9194 1.29723 1.39916 0
M  V30 796 C 80.0594 2.66337 2.19451 0
M  V30 797 C 79.1724 3.89708 1.86418 0
M  V30 798 C 78.3074 4.32893 3.07859 0
M  V30 799 C 77.3464 5.48967 2.70742 0
M  V30 800 N 76.4834 5.87211 3.84874 0
M  V30 801 H 81.3234 2.94465 0.457639 0
M  V30 802 H 78.8604 1.45531 0.214266 0
M  V30 803 H 80.8184 2.96247 2.93758 0
M  V30 804 H 79.4484 1.86141 2.63726 0
M  V30 805 H 78.5004 3.66396 1.02264 0
M  V30 806 H 79.8124 4.74074 1.55096 0
M  V30 807 H 78.9664 4.6435 3.90466 0
M  V30 808 H 77.7054 3.47336 3.42358 0
M  V30 809 H 76.7104 5.17183 1.86551 0
M  V30 810 H 77.9354 6.3624 2.37436 0
M  V30 811 H 75.8814 5.04607 4.19175 0
M  V30 812 H 75.7984 6.66266 3.57247 0
M  V30 813 H 77.0664 6.23282 4.68123 0
M  V30 814 N 81.2955 -0.223234 1.56011 0
M  V30 815 C 82.2425 -1.27664 1.92277 0
M  V30 816 C 83.2125 -1.46659 0.779763 0
M  V30 817 O 84.3975 -1.60256 1.03551 0
M  V30 818 C 81.5375 -2.62234 2.24338 0
M  V30 819 C 80.6505 -2.51051 3.51564 0
M  V30 820 C 79.7855 -3.78133 3.7308 0
M  V30 821 C 78.8245 -3.61665 4.93827 0
M  V30 822 N 77.9615 -4.80693 5.11741 0
M  V30 823 H 82.8015 -0.960358 2.82101 0
M  V30 824 H 80.3385 -0.462901 1.39627 0
M  V30 825 H 82.2965 -3.40596 2.40936 0
M  V30 826 H 80.9265 -2.91961 1.3769 0
M  V30 827 H 79.9785 -1.64132 3.43169 0
M  V30 828 H 81.2905 -2.34803 4.40079 0
M  V30 829 H 80.4445 -4.64938 3.89766 0
M  V30 830 H 79.1835 -3.97304 2.82844 0
M  V30 831 H 78.1885 -2.73244 4.77093 0
M  V30 832 H 79.4135 -3.43966 5.85546 0
M  V30 833 H 77.3595 -5.00181 4.24446 0
M  V30 834 H 77.2765 -4.67165 5.94384 0
M  V30 835 H 78.5445 -5.6893 5.3286 0
M  V30 836 N 82.7736 -1.49793 -0.48987 0
M  V30 837 C 83.6836 -1.70036 -1.61632 0
M  V30 838 C 84.6996 -0.583102 -1.63939 0
M  V30 839 O 85.8756 -0.859169 -1.82154 0
M  V30 840 C 82.9406 -1.77277 -2.97949 0
M  V30 841 C 82.0016 -3.00918 -3.06181 0
M  V30 842 C 81.2346 -3.07804 -4.35996 0
M  V30 843 O 81.4576 -2.21982 -5.25433 0
M  V30 844 O 80.3916 -4.00369 -4.49431 0
M  V30 845 H 84.2176 -2.65486 -1.47482 0
M  V30 846 H 81.8026 -1.33666 -0.667362 0
M  V30 847 H 83.6846 -1.84329 -3.78947 0
M  V30 848 H 82.3596 -0.850076 -3.12339 0
M  V30 849 H 81.2666 -2.99377 -2.2433 0
M  V30 850 H 82.5996 -3.92704 -2.96723 0
M  V30 851 N 84.2517 0.741722 -1.39055 0
M  V30 852 C 85.1987 1.85566 -1.37237 0
M  V30 853 C 86.1687 1.64457 -0.233072 0
M  V30 854 O 87.3537 1.85957 -0.427147 0
M  V30 855 C 84.4937 3.23004 -1.215 0
M  V30 856 C 83.6067 3.55864 -2.44918 0
M  V30 857 C 82.7417 4.82669 -2.21821 0
M  V30 858 C 81.7807 5.08351 -3.40948 0
M  V30 859 N 80.9177 6.26356 -3.17211 0
M  V30 860 H 85.7577 1.86455 -2.32462 0
M  V30 861 H 83.2947 0.911176 -1.15482 0
M  V30 862 H 85.2527 4.02331 -1.10389 0
M  V30 863 H 83.8827 3.21411 -0.29908 0
M  V30 864 H 82.9347 2.7129 -2.66657 0
M  V30 865 H 84.2467 3.70765 -3.33668 0
M  V30 866 H 83.4007 5.69962 -2.07914 0
M  V30 867 H 82.1397 4.69929 -1.30454 0
M  V30 868 H 81.1447 4.19522 -3.55361 0
M  V30 869 H 82.3697 5.22981 -4.33207 0
M  V30 870 H 80.3157 6.14917 -2.28502 0
M  V30 871 H 80.2327 6.41813 -3.99515 0
M  V30 872 H 81.5007 7.16506 -3.06984 0
M  V30 873 N 85.7298 1.2412 0.971189 0
M  V30 874 C 87.1408 1.07236 1.52831 0
M  V30 875 C 87.4918 -0.357352 1.92918 0
M  V30 876 O 86.6168 -1.24528 1.76979 0
M  V30 877 C 87.2118 1.94043 2.77728 0
M  V30 878 C 85.7708 1.81394 3.29808 0
M  V30 879 C 84.9178 1.89189 2.02738 0
M  V30 880 H 87.8688 1.37648 0.789864 0
M  V30 881 H 87.8898 1.47066 3.5093 0
M  V30 882 H 87.4018 2.98093 2.4852 0
M  V30 883 H 85.5028 0.801634 3.63874 0
M  V30 884 H 85.6158 2.65294 3.98944 0
M  V30 885 H 83.9798 1.32877 2.17292 0
M  V30 886 H 84.7628 2.94812 1.759 0
M  V30 887 N 87.2079 -1.17134 1.05439 0
M  V30 888 C 88.1559 -2.23289 0.651511 0
M  V30 889 C 89.1499 -1.66186 -0.328411 0
M  V30 890 O 90.3559 -1.78949 -0.194206 0
M  V30 891 H 86.7309 -0.726938 0.192523 0
M  V30 892 H 88.7019 -2.54565 1.55689 0
M  V30 893 C 87.4509 -3.47671 0.0448436 0
M  V30 894 H 86.7739 -3.91918 0.78996 0
M  V30 895 H 88.2139 -4.2353 -0.19964 0
M  V30 896 C 86.6729 -3.14453 -1.20918 0
M  V30 897 O 87.2029 -3.29459 -2.29825 0
M  V30 898 N 85.4089 -2.68657 -1.10779 0
M  V30 899 H 84.9559 -2.56646 -0.221526 0
M  V30 900 H 84.9139 -2.46804 -1.9477 0
M  V30 901 N 88.686 -0.835752 -1.33615 0
M  V30 902 C 89.911 -0.442389 -2.02627 0
M  V30 903 C 90.336 0.947735 -1.62479 0
M  V30 904 O 89.694 1.61907 -0.815826 0
M  V30 905 C 89.742 -0.567216 -3.56111 0
M  V30 906 O 88.846 0.407799 -4.10379 0
M  V30 907 H 88.187 -0.180278 -0.639059 0
M  V30 908 H 90.717 -1.12972 -1.70583 0
M  V30 909 H 90.727 -0.447708 -4.05536 0
M  V30 910 H 89.402 -1.58103 -3.84677 0
M  V30 911 H 87.979 0.246107 -3.72087 0
M  V30 912 N 90.1641 1.46063 -0.591896 0
M  V30 913 C 91.4121 2.01938 -0.0808391 0
M  V30 914 C 91.7331 1.46475 1.28725 0
M  V30 915 O 91.0031 0.652944 1.84698 0
M  V30 916 H 89.5831 0.746516 -0.0268938 0
M  V30 917 H 92.2451 1.79055 -0.769752 0
M  V30 918 H 91.3411 3.12094 -0.0187578 0
M  V30 919 N 91.6422 0.330177 1.54103 0
M  V30 920 C 92.8902 -0.269871 2.0029 0
M  V30 921 C 93.2112 -1.52133 1.21986 0
M  V30 922 O 92.4812 -1.93212 0.323438 0
M  V30 923 H 91.0612 -0.10271 0.739905 0
M  V30 924 H 93.7232 0.448249 1.89675 0
M  V30 925 H 92.8192 -0.52166 3.07709 0
M  V30 926 N 93.1203 -1.57491 0.0584922 0
M  V30 927 C 94.3483 -1.97296 -0.623037 0
M  V30 928 C 94.7633 -0.936338 -1.63946 0
M  V30 929 O 94.1203 0.0785981 -1.82331 0
M  V30 930 C 94.1713 -3.37183 -1.30345 0
M  V30 931 O 93.8923 -4.36872 -0.32773 0
M  V30 932 C 95.3933 -3.91788 -2.07406 0
M  V30 933 H 92.6133 -0.649153 -0.169826 0
M  V30 934 H 95.1573 -2.04106 0.12696 0
M  V30 935 H 93.3123 -3.31502 -2.00463 0
M  V30 936 H 93.7263 -5.18141 -0.814269 0
M  V30 937 H 95.2003 -4.91926 -2.50425 0
M  V30 938 H 95.6773 -3.27609 -2.92521 0
M  V30 939 H 96.2833 -4.00829 -1.42184 0
M  V30 940 N 94.5984 0.214957 -1.56127 0
M  V30 941 C 95.5454 1.26642 -1.92952 0
M  V30 942 C 96.5154 1.46244 -0.78753 0
M  V30 943 O 97.7004 1.59704 -1.04399 0
M  V30 944 C 94.8404 2.6104 -2.25726 0
M  V30 945 C 93.9534 2.49183 -3.52891 0
M  V30 946 C 93.0884 3.76149 -3.7508 0
M  V30 947 C 92.1274 3.59041 -4.95738 0
M  V30 948 N 91.2644 4.77972 -5.14283 0
M  V30 949 H 96.1044 0.945384 -2.82607 0
M  V30 950 H 93.6414 0.455489 -1.3987 0
M  V30 951 H 95.5994 3.39313 -2.42739 0
M  V30 952 H 94.2294 2.91227 -1.39236 0
M  V30 953 H 93.2814 1.6231 -3.44034 0
M  V30 954 H 94.5934 2.32466 -4.41318 0
M  V30 955 H 93.7474 4.62865 -3.92226 0
M  V30 956 H 92.4864 3.95799 -2.84947 0
M  V30 957 H 91.4914 2.7071 -4.78535 0
M  V30 958 H 92.7164 3.40856 -5.87362 0
M  V30 959 H 90.6624 4.97923 -4.27093 0
M  V30 960 H 90.5794 4.64006 -5.96853 0
M  V30 961 H 91.8474 5.66096 -5.35869 0
M  V30 962 N 96.0765 1.50051 0.48192 0
M  V30 963 C 97.3015 1.64508 1.26301 0
M  V30 964 C 97.7265 0.323851 1.85291 0
M  V30 965 O 97.0845 -0.710969 1.66778 0
M  V30 966 C 97.1325 2.7305 2.35533 0
M  V30 967 O 96.2365 2.3355 3.39895 0
M  V30 968 H 95.5775 0.549978 0.372048 0
M  V30 969 H 98.1075 1.9636 0.574786 0
M  V30 970 H 98.1175 2.95799 2.8101 0
M  V30 971 H 96.7925 3.68946 1.91967 0
M  V30 972 H 95.3695 2.21205 3.00204 0
M  V30 973 N 97.5546 -0.734337 1.39446 0
M  V30 974 C 98.8316 -1.48579 1.27215 0
M  V30 975 C 99.2116 -2.1077 -0.117968 0
M  V30 976 O 98.5596 -1.98646 -1.12924 0
M  V30 977 C 98.7696 -2.53667 2.39696 0
M  V30 978 C 100.118 -3.20031 2.79044 0
M  V30 979 O 101.142 -2.6398 2.39151 0
M  V30 980 O 100.001 -4.21455 3.47905 0
M  V30 981 H 97.0946 -0.659816 0.49857 0
M  V30 982 H 99.6406 -0.768106 1.51322 0
M  V30 983 H 98.4126 -2.06096 3.32626 0
M  V30 984 H 98.0356 -3.32994 2.17258 0
M  V30 985 N 99.0327 -1.24633 -0.964593 0
M  V30 986 C 100.258 -1.11596 -1.74818 0
M  V30 987 C 100.683 0.32723 -1.85232 0
M  V30 988 O 100.041 1.23695 -1.32549 0
M  V30 989 C 100.089 -1.76397 -3.1451 0
M  V30 990 O 99.1927 -1.03685 -3.99153 0
M  V30 991 H 98.5337 -0.390196 -0.537255 0
M  V30 992 H 101.064 -1.65002 -1.20977 0
M  V30 993 H 101.074 -1.8228 -3.65018 0
M  V30 994 H 99.7487 -2.81401 -3.06246 0
M  V30 995 H 98.3257 -1.05611 -3.57632 0
M  V30 996 N 100.511 1.16574 -1.06058 0
M  V30 997 C 101.474 2.19085 -0.673392 0
M  V30 998 C 102.474 1.5835 0.279648 0
M  V30 999 O 103.664 1.74088 0.0623488 0
M  V30 1000 C 100.796 3.40899 0.00954234 0
M  V30 1001 H 101.989 2.54853 -1.58081 0
M  V30 1002 H 99.5418 1.30808 -0.855516 0
M  V30 1003 H 100.277 3.10684 0.929826 0
M  V30 1004 H 100.062 3.86233 -0.67573 0
M  V30 1005 H 101.552 4.1675 0.266245 0
M  V30 1006 N 101.989 0.842826 1.3317 0
M  V30 1007 C 103.214 0.453129 2.02389 0
M  V30 1008 C 103.639 -0.939105 1.6298 0
M  V30 1009 O 102.997 -1.61472 0.8244 0
M  V30 1010 C 103.045 0.586094 3.55805 0
M  V30 1011 O 102.149 -0.386029 4.10589 0
M  V30 1012 H 101.49 0.183664 0.638094 0
M  V30 1013 H 104.02 1.13875 1.69981 0
M  V30 1014 H 104.03 0.469209 4.05293 0
M  V30 1015 H 102.705 1.6014 3.83833 0
M  V30 1016 H 101.282 -0.226371 3.72212 0
M  V30 1017 N 103.467 -1.45747 0.599634 0
M  V30 1018 C 104.744 -1.95585 0.0240846 0
M  V30 1019 C 105.124 -1.54217 -1.44154 0
M  V30 1020 O 104.472 -0.800903 -2.14004 0
M  V30 1021 C 104.682 -3.48344 0.21385 0
M  V30 1022 C 106.03 -4.24504 0.0904902 0
M  V30 1023 O 107.054 -3.55911 0.143558 0
M  V30 1024 O 105.913 -5.46491 -0.0310766 0
M  V30 1025 H 103.007 -0.82602 -0.0402478 0
M  V30 1026 H 105.553 -1.55951 0.669139 0
M  V30 1027 H 104.325 -3.71397 1.23206 0
M  V30 1028 H 103.948 -3.9485 -0.466842 0
M  V30 1029 N 104.945 -0.338344 -1.53925 0
M  V30 1030 C 106.17 0.263987 -2.05713 0
M  V30 1031 C 106.595 1.43847 -1.21201 0
M  V30 1032 O 105.953 1.79904 -0.224535 0
M  V30 1033 C 106.001 0.662 -3.54471 0
M  V30 1034 O 105.105 1.76265 -3.72833 0
M  V30 1035 H 104.446 0.0448722 -0.662482 0
M  V30 1036 H 106.976 -0.491048 -1.9862 0
M  V30 1037 H 106.986 0.940594 -3.9701 0
M  V30 1038 H 105.661 -0.196937 -4.15433 0
M  V30 1039 H 104.238 1.48173 -3.42198 0
M  V30 1040 N 106.423 1.57458 -0.0668435 0
M  V30 1041 C 107.355 2.09413 0.931601 0
M  V30 1042 C 108.368 1.02522 1.26464 0
M  V30 1043 O 109.557 1.30049 1.22269 0
M  V30 1044 C 106.657 2.53537 2.24882 0
M  V30 1045 C 105.83 3.83944 2.09537 0
M  V30 1046 C 104.889 4.14214 3.2452 0
M  V30 1047 O 103.915 4.83891 2.9973 0
M  V30 1048 N 105.117 3.67367 4.49469 0
M  V30 1049 H 107.882 2.95699 0.488048 0
M  V30 1050 H 105.443 1.61462 0.119009 0
M  V30 1051 H 107.435 2.70853 3.00701 0
M  V30 1052 H 106.005 1.72415 2.60753 0
M  V30 1053 H 105.225 3.76057 1.18215 0
M  V30 1054 H 106.513 4.69312 1.96529 0
M  V30 1055 H 105.911 3.11068 4.72497 0
M  V30 1056 H 104.468 3.89891 5.2233 0
M  V30 1057 N 107.901 -0.206675 1.56239 0
M  V30 1058 C 108.811 -1.27686 1.96808 0
M  V30 1059 C 109.827 -1.50455 0.874035 0
M  V30 1060 O 111.003 -1.63295 1.17884 0
M  V30 1061 C 108.068 -2.60358 2.28942 0
M  V30 1062 C 107.129 -2.45762 3.51994 0
M  V30 1063 C 106.362 -3.72108 3.82585 0
M  V30 1064 O 106.585 -4.75776 3.14631 0
M  V30 1065 O 105.519 -3.6833 4.76043 0
M  V30 1066 H 109.345 -0.962593 2.88041 0
M  V30 1067 H 106.93 -0.410746 1.43643 0
M  V30 1068 H 108.812 -3.38687 2.50737 0
M  V30 1069 H 107.487 -2.91435 1.4088 0
M  V30 1070 H 106.394 -1.65584 3.35459 0
M  V30 1071 H 107.727 -2.19621 4.40486 0
M  V30 1072 N 109.379 -1.50304 -0.473955 0
M  V30 1073 C 110.628 -1.60392 -1.22301 0
M  V30 1074 C 110.941 -0.308411 -1.93153 0
M  V30 1075 O 112.147 -0.288156 -2.69966 0
M  V30 1076 C 110.603 -2.83109 -2.2221 0
M  V30 1077 C 110.211 -4.19524 -1.57173 0
M  V30 1078 C 111.955 -3.0254 -2.97775 0
M  V30 1079 C 109.862 -5.33431 -2.55353 0
M  V30 1080 H 108.792 -0.597286 -0.460179 0
M  V30 1081 H 111.443 -1.76731 -0.493803 0
M  V30 1082 H 109.825 -2.60322 -2.9841 0
M  V30 1083 H 110.999 -4.52554 -0.867824 0
M  V30 1084 H 109.314 -4.05674 -0.939002 0
M  V30 1085 H 111.911 -3.84811 -3.71248 0
M  V30 1086 H 112.254 -2.14154 -3.56992 0
M  V30 1087 H 112.787 -3.25494 -2.28688 0
M  V30 1088 H 109.526 -6.23962 -2.00878 0
M  V30 1089 H 109.046 -5.04823 -3.23904 0
M  V30 1090 H 110.725 -5.63887 -3.17239 0
M  V30 1091 N 110.857 0.726932 -1.39834 0
M  V30 1092 C 111.804 1.841 -1.39197 0
M  V30 1093 C 112.774 1.642 -0.250502 0
M  V30 1094 O 113.959 1.85494 -0.446846 0
M  V30 1095 C 111.099 3.21697 -1.24919 0
M  V30 1096 C 110.212 3.53247 -2.48678 0
M  V30 1097 C 109.347 4.80289 -2.26928 0
M  V30 1098 C 108.386 5.04707 -3.4632 0
M  V30 1099 N 107.523 6.22956 -3.23836 0
M  V30 1100 H 112.363 1.83979 -2.34427 0
M  V30 1101 H 109.9 0.898876 -1.16442 0
M  V30 1102 H 111.858 4.01137 -1.1465 0
M  V30 1103 H 110.488 3.21076 -0.333153 0
M  V30 1104 H 109.54 2.68447 -2.69519 0
M  V30 1105 H 110.852 3.67205 -3.37582 0
M  V30 1106 H 110.006 5.67725 -2.13947 0
M  V30 1107 H 108.745 4.68519 -1.35431 0
M  V30 1108 H 107.75 4.1573 -3.5979 0
M  V30 1109 H 108.975 5.18357 -4.38729 0
M  V30 1110 H 106.921 6.12459 -2.35011 0
M  V30 1111 H 106.838 6.37539 -4.063 0
M  V30 1112 H 108.106 7.1321 -3.14566 0
M  V30 1113 N 112.336 1.25143 0.95797 0
M  V30 1114 C 113.585 1.0909 1.69654 0
M  V30 1115 C 113.898 -0.368548 1.92097 0
M  V30 1116 O 115.104 -0.649455 2.63618 0
M  V30 1117 C 113.56 1.90395 3.05414 0
M  V30 1118 C 113.168 3.4081 2.90779 0
M  V30 1119 C 114.912 1.82901 3.83076 0
M  V30 1120 C 112.819 4.14423 4.21909 0
M  V30 1121 H 111.749 0.404625 0.636235 0
M  V30 1122 H 114.4 1.4931 1.06672 0
M  V30 1123 H 112.782 1.42996 3.69281 0
M  V30 1124 H 113.956 3.95859 2.35865 0
M  V30 1125 H 112.271 3.49361 2.26575 0
M  V30 1126 H 114.868 2.35196 4.80195 0
M  V30 1127 H 115.211 0.796224 4.08615 0
M  V30 1128 H 115.744 2.28033 3.25954 0
M  V30 1129 H 112.483 5.18102 4.01561 0
M  V30 1130 H 112.003 3.64159 4.76601 0
M  V30 1131 H 113.682 4.21956 4.90471 0
M  V30 1132 N 113.814 -1.1601 1.06675 0
M  V30 1133 C 114.746 -2.20115 0.638921 0
M  V30 1134 C 115.759 -1.59916 -0.305057 0
M  V30 1135 O 116.948 -1.78245 -0.0954446 0
M  V30 1136 C 114.048 -3.38798 -0.0830083 0
M  V30 1137 C 113.221 -4.2855 0.875426 0
M  V30 1138 C 112.28 -5.25849 0.192042 0
M  V30 1139 O 111.306 -5.63102 0.830921 0
M  V30 1140 N 112.508 -5.70648 -1.06493 0
M  V30 1141 H 115.273 -2.57439 1.53444 0
M  V30 1142 H 112.834 -1.31057 0.950557 0
M  V30 1143 H 114.826 -4.00936 -0.550685 0
M  V30 1144 H 113.396 -2.99947 -0.880386 0
M  V30 1145 H 112.616 -3.63617 1.52238 0
M  V30 1146 H 113.904 -4.85393 1.52548 0
M  V30 1147 H 113.302 -5.42482 -1.60405 0
M  V30 1148 H 111.859 -6.34859 -1.47641 0
M  V30 1149 N 115.292 -0.849877 -1.32721 0
M  V30 1150 C 116.224 -0.248332 -2.27851 0
M  V30 1151 C 117.237 0.577218 -1.52224 0
M  V30 1152 O 118.426 0.402489 -1.73903 0
M  V30 1153 C 115.526 0.668107 -3.32249 0
M  V30 1154 C 114.699 -0.120534 -4.37234 0
M  V30 1155 C 113.758 0.720932 -5.21238 0
M  V30 1156 O 112.784 0.156166 -5.68986 0
M  V30 1157 N 113.986 2.03647 -5.43607 0
M  V30 1158 H 116.751 -1.06575 -2.80111 0
M  V30 1159 H 114.312 -0.709395 -1.45531 0
M  V30 1160 H 116.304 1.23627 -3.85355 0
M  V30 1161 H 114.874 1.38621 -2.80184 0
M  V30 1162 H 114.094 -0.870108 -3.84477 0
M  V30 1163 H 115.382 -0.662406 -5.0447 0
M  V30 1164 H 114.78 2.51871 -5.06535 0
M  V30 1165 H 113.337 2.55287 -5.99727 0
M  V30 1166 N 116.77 1.45427 -0.607355 0
M  V30 1167 C 118.181 1.85756 -0.187535 0
M  V30 1168 C 118.532 1.5077 1.25551 0
M  V30 1169 O 117.657 0.93427 1.95193 0
M  V30 1170 C 118.252 3.37154 -0.333572 0
M  V30 1171 C 116.811 3.76387 0.0315542 0
M  V30 1172 C 115.958 2.69377 -0.658117 0
M  V30 1173 H 118.909 1.36231 -0.81405 0
M  V30 1174 H 118.93 3.78014 0.43428 0
M  V30 1175 H 118.442 3.62586 -1.38393 0
M  V30 1176 H 116.543 3.56571 1.0811 0
M  V30 1177 H 116.656 4.77731 -0.361935 0
M  V30 1178 H 115.02 2.5452 -0.0957873 0
M  V30 1179 H 115.803 2.97646 -1.7106 0
M  V30 1180 N 118.248 0.346503 1.53744 0
M  V30 1181 C 119.473 -0.253074 2.0585 0
M  V30 1182 C 119.898 -1.43202 1.21962 0
M  V30 1183 O 119.256 -1.79783 0.234073 0
M  V30 1184 C 119.304 -0.643193 3.54817 0
M  V30 1185 O 118.408 -1.74286 3.73762 0
M  V30 1186 H 117.749 -0.0413583 0.662711 0
M  V30 1187 H 120.279 0.501574 1.98357 0
M  V30 1188 H 120.289 -0.919526 3.97503 0
M  V30 1189 H 118.964 0.218966 4.15323 0
M  V30 1190 H 117.541 -1.46356 3.42979 0
M  V30 1191 N 119.726 -1.57421 0.075193 0
M  V30 1192 C 120.673 -2.12915 -0.890843 0
M  V30 1193 C 121.643 -1.04252 -1.29309 0
M  V30 1194 O 122.828 -1.31933 -1.37834 0
M  V30 1195 C 119.968 -2.69795 -2.15186 0
M  V30 1196 C 119.081 -3.92624 -1.80194 0
M  V30 1197 C 118.216 -4.37736 -3.00933 0
M  V30 1198 C 117.255 -5.53205 -2.61974 0
M  V30 1199 N 116.392 -5.9326 -3.75483 0
M  V30 1200 H 121.232 -2.95156 -0.410735 0
M  V30 1201 H 118.769 -1.45854 -0.191086 0
M  V30 1202 H 120.727 -3.00883 -2.89008 0
M  V30 1203 H 119.357 -1.90313 -2.60731 0
M  V30 1204 H 118.409 -3.67977 -0.964218 0
M  V30 1205 H 119.721 -4.76482 -1.47534 0
M  V30 1206 H 118.875 -4.70503 -3.8303 0
M  V30 1207 H 117.614 -3.52739 -3.36789 0
M  V30 1208 H 116.619 -5.20086 -1.783 0
M  V30 1209 H 117.844 -6.39936 -2.27284 0
M  V30 1210 H 115.79 -5.11212 -4.11094 0
M  V30 1211 H 115.707 -6.71865 -3.46602 0
M  V30 1212 H 116.975 -6.30651 -4.58148 0
M  V30 1213 N 121.204 0.198386 -1.56346 0
M  V30 1214 C 122.152 1.26538 -1.95169 0
M  V30 1215 C 123.146 1.47295 -0.836685 0
M  V30 1216 O 124.352 1.48195 -1.02167 0
M  V30 1217 H 120.727 0.424744 -0.620561 0
M  V30 1218 H 122.698 0.910904 -2.84157 0
M  V30 1219 C 121.447 2.6035 -2.30463 0
M  V30 1220 H 120.77 2.45192 -3.15786 0
M  V30 1221 H 122.21 3.33762 -2.61494 0
M  V30 1222 C 120.669 3.17096 -1.13806 0
M  V30 1223 O 121.199 3.99588 -0.41135 0
M  V30 1224 N 119.405 2.75795 -0.915736 0
M  V30 1225 H 118.952 2.08816 -1.50843 0
M  V30 1226 H 118.91 3.14101 -0.136979 0
M  V30 1227 N 122.682 1.50554 0.465978 0
M  V30 1228 C 124.093 1.54599 1.04671 0
M  V30 1229 C 124.444 0.352488 1.93008 0
M  V30 1230 O 123.569 -0.534044 2.09707 0
M  V30 1231 C 124.164 2.80166 1.90505 0
M  V30 1232 C 122.723 2.86876 2.43678 0
M  V30 1233 C 121.87 2.48947 1.22151 0
M  V30 1234 H 124.821 1.56744 0.248384 0
M  V30 1235 H 124.842 2.62311 2.75633 0
M  V30 1236 H 124.354 3.67013 1.26186 0
M  V30 1237 H 122.455 2.04393 3.11536 0
M  V30 1238 H 122.568 3.89885 2.78436 0
M  V30 1239 H 120.932 2.01498 1.5579 0
M  V30 1240 H 121.715 3.38107 0.594866 0
M  V30 1241 N 124.16 -0.719506 1.40217 0
M  V30 1242 C 125.385 -1.51371 1.4178 0
M  V30 1243 C 125.81 -1.88091 0.0182355 0
M  V30 1244 O 125.168 -1.52997 -0.972707 0
M  V30 1245 C 125.216 -2.768 2.31115 0
M  V30 1246 O 124.32 -3.73349 1.7517 0
M  V30 1247 H 123.661 -0.456529 0.482159 0
M  V30 1248 H 126.191 -0.88644 1.844 0
M  V30 1249 H 126.201 -3.25371 2.46167 0
M  V30 1250 H 124.876 -2.49407 3.3282 0
M  V30 1251 H 123.453 -3.32179 1.69444 0
M  V30 1252 N 125.638 -1.25649 -0.95132 0
M  V30 1253 C 126.884 -1.10757 -1.69884 0
M  V30 1254 C 127.217 0.350061 -1.91019 0
M  V30 1255 O 126.492 1.25783 -1.48354 0
M  V30 1256 C 126.775 -1.86606 -3.07978 0
M  V30 1257 C 126.628 -3.40217 -2.94232 0
M  V30 1258 C 127.947 -1.65182 -4.07925 0
M  V30 1259 H 125.066 -0.40374 -0.616574 0
M  V30 1260 H 127.708 -1.54521 -1.10558 0
M  V30 1261 H 125.858 -1.49409 -3.58621 0
M  V30 1262 H 127.53 -3.87108 -2.50889 0
M  V30 1263 H 125.773 -3.67759 -2.30078 0
M  V30 1264 H 126.444 -3.88505 -3.92133 0
M  V30 1265 H 128.92 -1.9757 -3.66204 0
M  V30 1266 H 127.796 -2.20683 -5.02583 0
M  V30 1267 H 128.057 -0.593933 -4.38092 0
M  V30 1268 N 127.117 1.15442 -1.07289 0
M  V30 1269 C 128.528 1.67803 -0.818475 0
M  V30 1270 C 128.879 1.8489 0.656507 0
M  V30 1271 O 128.004 1.55176 1.50829 0
M  V30 1272 C 128.599 3.04805 -1.47917 0
M  V30 1273 C 127.158 3.54245 -1.27229 0
M  V30 1274 C 126.305 2.29986 -1.54925 0
M  V30 1275 H 129.256 0.996646 -1.23502 0
M  V30 1276 H 129.277 3.69702 -0.90005 0
M  V30 1277 H 128.789 2.92336 -2.55267 0
M  V30 1278 H 126.89 3.71956 -0.21899 0
M  V30 1279 H 127.003 4.35723 -1.99203 0
M  V30 1280 H 125.367 2.35496 -0.970242 0
M  V30 1281 H 126.15 2.20105 -2.63455 0
M  V30 1282 N 128.595 0.856903 1.32268 0
M  V30 1283 C 129.528 0.247937 2.26849 0
M  V30 1284 C 130.506 -0.615382 1.50505 0
M  V30 1285 O 131.69 -0.571689 1.79622 0
M  V30 1286 C 128.817 -0.650093 3.32403 0
M  V30 1287 C 127.863 0.140138 4.2627 0
M  V30 1288 S 128.696 1.51004 5.13769 0
M  V30 1289 C 129.852 0.61778 6.22844 0
M  V30 1290 H 130.085 1.04971 2.78152 0
M  V30 1291 H 127.618 0.654665 1.39834 0
M  V30 1292 H 129.576 -1.16256 3.93694 0
M  V30 1293 H 128.237 -1.4257 2.7988 0
M  V30 1294 H 127.43 -0.543945 5.01056 0
M  V30 1295 H 127.032 0.584267 3.69408 0
M  V30 1296 H 129.324 -0.177053 6.77269 0
M  V30 1297 H 130.267 1.33636 6.95375 0
M  V30 1298 H 130.675 0.191124 5.64176 0
M  V30 1299 N 130.073 -1.45103 0.615059 0
M  V30 1300 C 131.005 -2.28786 -0.13762 0
M  V30 1301 C 132.018 -1.40376 -0.824525 0
M  V30 1302 O 133.207 -1.64681 -0.688662 0
M  V30 1303 C 130.307 -3.16322 -1.21628 0
M  V30 1304 C 129.48 -4.33054 -0.615039 0
M  V30 1305 C 128.539 -5.01743 -1.58556 0
M  V30 1306 O 127.565 -5.58293 -1.10895 0
M  V30 1307 N 128.767 -5.01714 -2.91998 0
M  V30 1308 H 131.532 -2.94025 0.580483 0
M  V30 1309 H 129.093 -1.55373 0.45507 0
M  V30 1310 H 131.085 -3.59139 -1.86552 0
M  V30 1311 H 129.655 -2.52943 -1.83681 0
M  V30 1312 H 128.875 -3.93627 0.21245 0
M  V30 1313 H 130.163 -5.08431 -0.193704 0
M  V30 1314 H 129.561 -4.57075 -3.33316 0
M  V30 1315 H 128.118 -5.48371 -3.52325 0
M  V30 1316 N 131.551 -0.354651 -1.53558 0
M  V30 1317 C 132.498 0.496968 -2.25386 0
M  V30 1318 C 133.468 1.0865 -1.25636 0
M  V30 1319 O 134.653 1.12104 -1.54394 0
M  V30 1320 C 131.793 1.63637 -3.03837 0
M  V30 1321 C 130.906 1.07307 -4.18461 0
M  V30 1322 C 130.041 2.18068 -4.84376 0
M  V30 1323 C 129.08 1.59147 -5.91049 0
M  V30 1324 N 128.217 2.63695 -6.50699 0
M  V30 1325 H 133.057 -0.122075 -2.9775 0
M  V30 1326 H 130.594 -0.0720154 -1.46924 0
M  V30 1327 H 132.552 2.30734 -3.47589 0
M  V30 1328 H 131.182 2.22623 -2.33749 0
M  V30 1329 H 130.234 0.292708 -3.79272 0
M  V30 1330 H 131.546 0.602193 -4.95152 0
M  V30 1331 H 130.7 2.93007 -5.31255 0
M  V30 1332 H 129.439 2.68504 -4.07133 0
M  V30 1333 H 128.444 0.827175 -5.43542 0
M  V30 1334 H 129.669 1.09549 -6.70206 0
M  V30 1335 H 127.615 3.13365 -5.76315 0
M  V30 1336 H 127.532 2.21263 -7.22896 0
M  V30 1337 H 128.8 3.3837 -7.02229 0
M  V30 1338 N 133.029 1.57378 -0.0835403 0
M  V30 1339 C 133.959 2.1641 0.87686 0
M  V30 1340 C 134.94 1.09429 1.30228 0
M  V30 1341 O 136.125 1.37516 1.37124 0
M  V30 1342 C 133.255 2.73517 2.14022 0
M  V30 1343 C 132.209 3.85769 1.85381 0
M  V30 1344 C 131.535 4.29529 3.18448 0
M  V30 1345 C 132.835 5.09486 1.14984 0
M  V30 1346 H 134.529 2.96914 0.385059 0
M  V30 1347 H 132.075 1.42823 0.18377 0
M  V30 1348 H 134.028 3.13463 2.81636 0
M  V30 1349 H 132.752 1.90252 2.65465 0
M  V30 1350 H 131.411 3.46345 1.20169 0
M  V30 1351 H 131.059 3.43169 3.67755 0
M  V30 1352 H 130.759 5.05204 3.00071 0
M  V30 1353 H 132.283 4.72099 3.8724 0
M  V30 1354 H 133.697 5.46674 1.72687 0
M  V30 1355 H 132.094 5.90515 1.06826 0
M  V30 1356 H 133.164 4.84724 0.130749 0
M  V30 1357 N 134.507 -0.190092 1.56449 0
M  V30 1358 C 135.439 -1.25973 1.91477 0
M  V30 1359 C 136.452 -1.41452 0.805931 0
M  V30 1360 O 137.641 -1.41789 1.08435 0
M  V30 1361 C 134.741 -2.63117 2.13594 0
M  V30 1362 C 133.914 -2.69182 3.4476 0
M  V30 1363 C 132.973 -3.87557 3.5593 0
M  V30 1364 O 131.999 -3.74427 4.28711 0
M  V30 1365 N 133.201 -5.03224 2.89388 0
M  V30 1366 H 135.966 -0.962394 2.83828 0
M  V30 1367 H 133.527 -0.379981 1.57378 0
M  V30 1368 H 135.519 -3.40742 2.1835 0
M  V30 1369 H 134.089 -2.85319 1.27719 0
M  V30 1370 H 133.309 -1.77793 3.51828 0
M  V30 1371 H 134.597 -2.70229 4.31107 0
M  V30 1372 H 133.995 -5.16791 2.30094 0
M  V30 1373 H 132.552 -5.78778 2.99764 0
M  V30 1374 N 135.985 -1.50799 -0.457987 0
M  V30 1375 C 137.262 -1.52968 -1.21902 0
M  V30 1376 C 137.642 -0.281906 -2.09209 0
M  V30 1377 O 136.99 0.734076 -2.16388 0
M  V30 1378 C 137.2 -2.8326 -2.03875 0
M  V30 1379 C 138.548 -3.34425 -2.6162 0
M  V30 1380 O 139.572 -2.8467 -2.14106 0
M  V30 1381 O 138.431 -4.21188 -3.48228 0
M  V30 1382 H 135.525 -0.614129 -0.553873 0
M  V30 1383 H 138.071 -1.63098 -0.468739 0
M  V30 1384 H 136.843 -3.65543 -1.39621 0
M  V30 1385 H 136.466 -2.76195 -2.8601 0
M  V30 1386 N 137.463 0.71206 -1.40597 0
M  V30 1387 C 138.712 1.46754 -1.38369 0
M  V30 1388 C 139.025 1.95598 0.0097839 0
M  V30 1389 O 140.231 2.71059 0.154677 0
M  V30 1390 C 138.687 2.65289 -2.43207 0
M  V30 1391 C 138.295 2.23301 -3.88382 0
M  V30 1392 C 140.039 3.43008 -2.50091 0
M  V30 1393 C 137.946 3.38696 -4.84808 0
M  V30 1394 H 136.876 0.55118 -0.514506 0
M  V30 1395 H 139.527 0.774616 -1.66349 0
M  V30 1396 H 137.909 3.36769 -2.08332 0
M  V30 1397 H 139.083 1.59218 -4.32419 0
M  V30 1398 H 137.398 1.58618 -3.85006 0
M  V30 1399 H 139.995 4.28881 -3.1932 0
M  V30 1400 H 140.338 3.87065 -1.53253 0
M  V30 1401 H 140.871 2.78574 -2.83974 0
M  V30 1402 H 137.61 2.99668 -5.82992 0
M  V30 1403 H 137.13 4.01683 -4.45433 0
M  V30 1404 H 138.809 4.04712 -5.04794 0
M  V30 1405 N 138.941 1.26152 0.944643 0
M  V30 1406 C 139.873 1.03199 2.04652 0
M  V30 1407 C 140.886 -0.00642356 1.62799 0
M  V30 1408 O 142.075 0.233263 1.76969 0
M  V30 1409 C 139.175 0.540111 3.34568 0
M  V30 1410 C 138.348 1.64697 4.05208 0
M  V30 1411 C 137.407 1.15374 5.13396 0
M  V30 1412 O 136.433 1.85013 5.38293 0
M  V30 1413 N 137.635 0.00031529 5.805 0
M  V30 1414 H 140.4 1.9808 2.2491 0
M  V30 1415 H 137.961 1.17491 1.11389 0
M  V30 1416 H 139.953 0.194401 4.04233 0
M  V30 1417 H 138.523 -0.315021 3.11009 0
M  V30 1418 H 137.743 2.16379 3.29506 0
M  V30 1419 H 139.031 2.3903 4.49157 0
M  V30 1420 H 138.429 -0.581336 5.62705 0
M  V30 1421 H 136.986 -0.286346 6.51171 0
M  V30 1422 N 140.419 -1.14872 1.07899 0
M  V30 1423 C 141.835 -1.37776 0.805606 0
M  V30 1424 C 142.035 -1.92743 -0.587555 0
M  V30 1425 O 141.091 -2.13678 -1.34528 0
M  V30 1426 C 142.404 -2.34361 1.88402 0
M  V30 1427 C 143.952 -2.48012 1.90942 0
M  V30 1428 C 144.427 -3.47893 2.97883 0
M  V30 1429 N 145.918 -3.55433 2.97021 0
M  V30 1430 C 146.653 -4.32553 3.76412 0
M  V30 1431 N 146.149 -5.12959 4.65666 0
M  V30 1432 N 147.942 -4.27697 3.64735 0
M  V30 1433 H 140.093 -0.775365 1.97742 0
M  V30 1434 H 142.356 -0.403521 0.857831 0
M  V30 1435 H 142.062 -2.01098 2.88535 0
M  V30 1436 H 141.936 -3.34206 1.74889 0
M  V30 1437 H 144.323 -2.8057 0.914579 0
M  V30 1438 H 144.404 -1.48147 2.08534 0
M  V30 1439 H 144.048 -3.16069 3.97571 0
M  V30 1440 H 143.978 -4.47527 2.77538 0
M  V30 1441 H 146.469 -2.98048 2.32326 0
M  V30 1442 H 146.782 -5.69065 5.22862 0
M  V30 1443 H 145.127 -5.12245 4.69712 0
M  V30 1444 H 148.318 -3.63949 2.94378 0
M  V30 1445 H 148.491 -4.8755 4.26848 0
M  V30 1446 N 141.898 -0.863906 -1.31812 0
M  V30 1447 C 142.861 -0.320212 -2.26952 0
M  V30 1448 C 143.861 0.525369 -1.51975 0
M  V30 1449 O 145.051 0.335547 -1.70938 0
M  V30 1450 C 142.183 0.545919 -3.365 0
M  V30 1451 H 143.376 -1.16004 -2.76556 0
M  V30 1452 H 140.929 -0.638995 -1.42641 0
M  V30 1453 H 141.664 1.40718 -2.92179 0
M  V30 1454 H 141.449 -0.0594674 -3.92055 0
M  V30 1455 H 142.939 0.918796 -4.07367 0
M  V30 1456 N 143.376 1.44774 -0.622745 0
M  V30 1457 C 144.309 2.27792 0.136329 0
M  V30 1458 C 145.287 1.38041 0.859264 0
M  V30 1459 O 146.471 1.67478 0.86506 0
M  V30 1460 C 143.598 3.16776 1.19878 0
M  V30 1461 C 142.644 4.22575 0.57731 0
M  V30 1462 S 143.477 5.31825 -0.626294 0
M  V30 1463 C 144.633 6.24377 0.436378 0
M  V30 1464 H 144.866 2.91824 -0.567967 0
M  V30 1465 H 142.399 1.48838 -0.410677 0
M  V30 1466 H 144.357 3.68596 1.80686 0
M  V30 1467 H 143.018 2.5198 1.87523 0
M  V30 1468 H 142.211 4.84818 1.37721 0
M  V30 1469 H 141.813 3.73974 0.0440439 0
M  V30 1470 H 144.105 6.64689 1.31128 0
M  V30 1471 H 145.048 7.07941 -0.150271 0
M  V30 1472 H 145.456 5.59381 0.758513 0
M  V30 1473 N 144.854 0.36279 1.53368 0
M  V30 1474 C 145.764 -0.492994 2.29362 0
M  V30 1475 C 146.78 -1.09507 1.35219 0
M  V30 1476 O 147.956 -1.10662 1.68273 0
M  V30 1477 C 145.021 -1.61855 3.066 0
M  V30 1478 C 144.082 -1.04429 4.16405 0
M  V30 1479 C 143.315 -2.11621 4.89951 0
M  V30 1480 O 143.538 -3.32684 4.63333 0
M  V30 1481 O 142.472 -1.74835 5.75948 0
M  V30 1482 H 146.298 0.125331 3.03441 0
M  V30 1483 H 143.883 0.127253 1.48857 0
M  V30 1484 H 145.765 -2.27302 3.54841 0
M  V30 1485 H 144.44 -2.22233 2.3536 0
M  V30 1486 H 143.347 -0.353819 3.72423 0
M  V30 1487 H 144.68 -0.485113 4.89804 0
M  V30 1488 N 146.332 -1.57332 0.0918853 0
M  V30 1489 C 147.262 -2.16872 -0.865371 0
M  V30 1490 C 148.243 -1.10118 -1.29646 0
M  V30 1491 O 149.428 -1.38242 -1.36392 0
M  V30 1492 C 146.558 -2.74649 -2.12569 0
M  V30 1493 C 145.512 -3.86747 -1.83333 0
M  V30 1494 C 144.838 -4.31212 -3.16166 0
M  V30 1495 C 146.138 -5.10089 -1.1228 0
M  V30 1496 H 147.832 -2.97114 -0.369307 0
M  V30 1497 H 145.378 -1.42918 -0.176194 0
M  V30 1498 H 147.331 -3.14952 -2.7997 0
M  V30 1499 H 146.055 -1.91657 -2.64452 0
M  V30 1500 H 144.714 -3.46978 -1.18331 0
M  V30 1501 H 144.362 -3.45115 -3.6593 0
M  V30 1502 H 144.062 -5.06788 -2.97388 0
M  V30 1503 H 145.586 -4.74146 -3.84731 0
M  V30 1504 H 147 -5.47582 -1.69785 0
M  V30 1505 H 145.397 -5.91073 -1.03693 0
M  V30 1506 H 146.467 -4.84786 -0.105041 0
M  V30 1507 N 147.81 0.181792 -1.56548 0
M  V30 1508 C 148.74 1.22765 -1.98623 0
M  V30 1509 C 149.721 1.46747 -0.860189 0
M  V30 1510 O 150.906 1.58259 -1.12551 0
M  V30 1511 C 148.036 2.56894 -2.33715 0
M  V30 1512 C 146.99 2.475 -3.49182 0
M  V30 1513 C 146.316 3.86023 -3.69986 0
M  V30 1514 C 147.616 1.98866 -4.82959 0
M  V30 1515 H 149.31 0.877942 -2.86239 0
M  V30 1516 H 146.856 0.42088 -1.37712 0
M  V30 1517 H 148.809 3.30253 -2.61746 0
M  V30 1518 H 147.533 2.93632 -1.42997 0
M  V30 1519 H 146.192 1.76596 -3.21262 0
M  V30 1520 H 145.84 4.20136 -2.76576 0
M  V30 1521 H 145.54 3.80609 -4.47672 0
M  V30 1522 H 147.064 4.60984 -4.00407 0
M  V30 1523 H 148.478 2.61992 -5.09934 0
M  V30 1524 H 146.875 2.04424 -5.64208 0
M  V30 1525 H 147.945 0.942465 -4.75653 0
M  V30 1526 N 149.288 1.51039 0.449983 0
M  V30 1527 C 150.513 1.6715 1.22783 0
M  V30 1528 C 150.938 0.363081 1.84563 0
M  V30 1529 O 150.296 -0.675433 1.68249 0
M  V30 1530 C 150.344 2.77985 2.29689 0
M  V30 1531 O 149.448 2.40707 3.34864 0
M  V30 1532 H 148.789 0.557746 0.360299 0
M  V30 1533 H 151.319 1.97535 0.533005 0
M  V30 1534 H 151.329 3.01693 2.74673 0
M  V30 1535 H 150.004 3.72935 1.84098 0
M  V30 1536 H 148.581 2.27523 2.95445 0
M  V30 1537 N 150.766 -0.704594 1.40972 0
M  V30 1538 C 151.729 -1.80035 1.41845 0
M  V30 1539 C 152.729 -1.57774 0.310474 0
M  V30 1540 O 153.919 -1.64613 0.56992 0
M  V30 1541 C 151.051 -3.18284 1.22098 0
M  V30 1542 H 152.244 -1.80658 2.3938 0
M  V30 1543 H 149.797 -0.911329 1.26982 0
M  V30 1544 H 150.532 -3.23306 0.253672 0
M  V30 1545 H 150.317 -3.35843 2.02366 0
M  V30 1546 H 151.807 -3.98289 1.25522 0
M  V30 1547 N 152.244 -1.26651 -0.937939 0
M  V30 1548 C 153.484 -1.13611 -1.69917 0
M  V30 1549 C 153.848 0.314687 -1.89404 0
M  V30 1550 O 155.049 0.567285 -2.62746 0
M  V30 1551 C 153.32 -1.88742 -3.03498 0
M  V30 1552 S 154.879 -1.91794 -3.94665 0
M  V30 1553 H 151.697 -0.405767 -0.583844 0
M  V30 1554 H 154.299 -1.60416 -1.11745 0
M  V30 1555 H 153.003 -2.9336 -2.86999 0
M  V30 1556 H 152.534 -1.42391 -3.66727 0
M  V30 1557 H 154.549 -1.00698 -4.85875 0
M  V30 1558 N 153.722 1.14298 -1.08507 0
M  V30 1559 C 154.654 2.1907 -0.673859 0
M  V30 1560 C 155.667 1.60381 0.279577 0
M  V30 1561 O 156.856 1.78374 0.0670754 0
M  V30 1562 C 153.956 3.38888 0.0290979 0
M  V30 1563 C 153.129 4.27103 -0.943494 0
M  V30 1564 C 152.188 5.25477 -0.275676 0
M  V30 1565 O 151.214 5.61709 -0.920401 0
M  V30 1566 N 152.416 5.7227 0.974013 0
M  V30 1567 H 155.181 2.54965 -1.57521 0
M  V30 1568 H 152.742 1.29528 -0.971287 0
M  V30 1569 H 154.734 4.01761 0.48683 0
M  V30 1570 H 153.304 3.01309 0.832555 0
M  V30 1571 H 152.524 3.61149 -1.58004 0
M  V30 1572 H 153.812 4.82905 -1.60251 0
M  V30 1573 H 153.21 5.44965 1.51755 0
M  V30 1574 H 151.767 6.37127 1.37522 0
M  V30 1575 N 155.201 0.870884 1.31352 0
M  V30 1576 C 156.449 0.48132 1.96285 0
M  V30 1577 C 156.77 -0.969813 1.69173 0
M  V30 1578 O 156.04 -1.67998 1.00764 0
M  V30 1579 H 154.62 0.175002 0.726212 0
M  V30 1580 H 157.282 1.11087 1.60143 0
M  V30 1581 H 156.378 0.639825 3.05471 0
M  V30 1582 N 156.679 -1.44442 0.630414 0
M  V30 1583 C 158.09 -1.85434 0.217063 0
M  V30 1584 C 158.441 -1.52748 -1.23136 0
M  V30 1585 O 157.566 -0.965205 -1.93682 0
M  V30 1586 C 158.161 -3.36581 0.387168 0
M  V30 1587 C 156.72 -3.76389 0.0283297 0
M  V30 1588 C 155.867 -2.68296 0.700889 0
M  V30 1589 H 158.818 -1.34919 0.83562 0
M  V30 1590 H 158.839 -3.78657 -0.374086 0
M  V30 1591 H 158.351 -3.60339 1.44144 0
M  V30 1592 H 156.452 -3.58246 -1.02423 0
M  V30 1593 H 156.565 -4.77095 0.437892 0
M  V30 1594 H 154.929 -2.54335 0.136267 0
M  V30 1595 H 155.712 -2.94887 1.75774 0
M  V30 1596 N 158.157 -0.370918 -1.53173 0
M  V30 1597 C 159.12 0.460778 -2.24521 0
M  V30 1598 C 160.12 1.00536 -1.25496 0
M  V30 1599 O 161.31 0.890266 -1.49733 0
M  V30 1600 C 158.442 1.64457 -2.98608 0
M  V30 1601 H 159.635 -0.163613 -2.99453 0
M  V30 1602 H 157.188 -0.122699 -1.55818 0
M  V30 1603 H 157.923 2.30691 -2.2793 0
M  V30 1604 H 157.708 1.26099 -3.7127 0
M  V30 1605 H 159.198 2.23384 -3.5283 0
M  V30 1606 N 159.635 1.57281 -0.100228 0
M  V30 1607 C 161.051 1.57527 0.256416 0
M  V30 1608 C 161.251 1.11173 1.68056 0
M  V30 1609 O 160.307 0.79053 2.39806 0
M  V30 1610 C 161.62 3.00673 0.0401747 0
M  V30 1611 C 163.168 3.12815 0.107528 0
M  V30 1612 C 163.643 4.57929 -0.0807834 0
M  V30 1613 N 165.134 4.63193 -0.0261207 0
M  V30 1614 C 165.869 5.73212 -0.146999 0
M  V30 1615 N 165.365 6.92047 -0.322999 0
M  V30 1616 N 167.158 5.62031 -0.0879044 0
M  V30 1617 H 159.309 1.85718 -1.03065 0
M  V30 1618 H 161.572 0.857446 -0.404339 0
M  V30 1619 H 161.278 3.38804 -0.943649 0
M  V30 1620 H 161.152 3.69042 0.780262 0
M  V30 1621 H 163.539 2.74554 1.08186 0
M  V30 1622 H 163.62 2.47028 -0.664134 0
M  V30 1623 H 163.264 4.96886 -1.05201 0
M  V30 1624 H 163.194 5.21783 0.710635 0
M  V30 1625 H 165.685 3.77748 0.107161 0
M  V30 1626 H 165.998 7.7173 -0.406608 0
M  V30 1627 H 164.343 6.94074 -0.358733 0
M  V30 1628 H 167.534 4.68075 0.048498 0
M  V30 1629 H 167.707 6.47734 -0.185557 0
M  V30 1630 N 161.113 -0.173488 1.56642 0
M  V30 1631 C 162.061 -1.23417 1.97157 0
M  V30 1632 C 163.055 -1.45946 0.860013 0
M  V30 1633 O 164.261 -1.46551 1.04512 0
M  V30 1634 H 160.636 -0.414818 0.62724 0
M  V30 1635 H 162.607 -0.865582 2.8557 0
M  V30 1636 C 161.356 -2.5665 2.34576 0
M  V30 1637 H 160.679 -2.40137 3.19647 0
M  V30 1638 H 162.119 -3.2956 2.6677 0
M  V30 1639 C 160.578 -3.15245 1.18836 0
M  V30 1640 O 161.108 -3.98883 0.474869 0
M  V30 1641 N 159.314 -2.74303 0.959497 0
M  V30 1642 H 158.861 -2.0639 1.54146 0
M  V30 1643 H 158.819 -3.13844 0.186932 0
M  V30 1644 N 162.591 -1.51276 -0.441967 0
M  V30 1645 C 163.84 -1.6295 -1.18871 0
M  V30 1646 C 164.153 -0.349312 -1.92456 0
M  V30 1647 O 165.359 -0.345355 -2.69295 0
M  V30 1648 C 163.815 -2.87759 -2.16155 0
M  V30 1649 C 163.423 -4.22764 -1.48239 0
M  V30 1650 C 165.167 -3.08788 -2.91291 0
M  V30 1651 C 163.074 -5.38728 -2.4398 0
M  V30 1652 H 162.004 -0.606913 -0.447406 0
M  V30 1653 H 164.655 -1.77739 -0.456205 0
M  V30 1654 H 163.037 -2.66593 -2.92821 0
M  V30 1655 H 164.211 -4.54293 -0.771635 0
M  V30 1656 H 162.526 -4.07575 -0.852741 0
M  V30 1657 H 165.123 -3.92599 -3.63002 0
M  V30 1658 H 165.466 -2.21679 -3.5237 0
M  V30 1659 H 165.999 -3.30272 -2.21733 0
M  V30 1660 H 162.738 -6.28082 -1.87598 0
M  V30 1661 H 162.258 -5.1158 -3.13123 0
M  V30 1662 H 163.937 -5.70489 -3.05207 0
M  V30 1663 N 164.069 0.697108 -1.41344 0
M  V30 1664 C 165.346 1.45154 -1.31109 0
M  V30 1665 C 165.726 2.11009 0.0620449 0
M  V30 1666 O 165.074 2.01571 1.07618 0
M  V30 1667 C 165.284 2.47223 -2.46337 0
M  V30 1668 C 166.632 3.1252 -2.87431 0
M  V30 1669 O 167.656 2.57547 -2.46065 0
M  V30 1670 O 166.515 4.12083 -3.58957 0
M  V30 1671 H 163.609 0.646365 -0.515889 0
M  V30 1672 H 166.155 0.727716 -1.53305 0
M  V30 1673 H 164.927 1.97204 -3.37974 0
M  V30 1674 H 164.55 3.27116 -2.2601 0
M  V30 1675 N 165.547 1.27147 0.931209 0
M  V30 1676 C 166.457 1.11372 2.06478 0
M  V30 1677 C 167.473 0.044645 1.73943 0
M  V30 1678 O 168.649 0.250417 1.99837 0
M  V30 1679 C 165.714 0.758838 3.38294 0
M  V30 1680 C 164.775 1.90841 3.84549 0
M  V30 1681 C 164.008 1.57036 5.10074 0
M  V30 1682 O 164.231 0.476645 5.68405 0
M  V30 1683 O 163.165 2.40839 5.51616 0
M  V30 1684 H 166.991 2.06493 2.22698 0
M  V30 1685 H 164.576 1.06301 1.04978 0
M  V30 1686 H 166.458 0.574098 4.17471 0
M  V30 1687 H 165.133 -0.162879 3.2329 0
M  V30 1688 H 164.04 2.14819 3.06274 0
M  V30 1689 H 165.373 2.81021 4.04089 0
M  V30 1690 N 167.025 -1.13721 1.09112 0
M  V30 1691 C 167.988 -2.17222 0.731241 0
M  V30 1692 C 168.988 -1.59035 -0.237566 0
M  V30 1693 O 170.178 -1.74192 -0.0161704 0
M  V30 1694 C 167.31 -3.40804 0.0808443 0
M  V30 1695 H 168.503 -2.50573 1.64783 0
M  V30 1696 H 166.056 -1.28493 0.889897 0
M  V30 1697 H 166.791 -3.1304 -0.847127 0
M  V30 1698 H 166.576 -3.84306 0.777896 0
M  V30 1699 H 168.066 -4.1731 -0.155657 0
M  V30 1700 N 168.503 -0.877838 -1.30888 0
M  V30 1701 C 169.466 -0.344265 -2.266 0
M  V30 1702 C 170.466 0.50922 -1.52524 0
M  V30 1703 O 171.656 0.317398 -1.71284 0
M  V30 1704 C 168.788 0.510198 -3.37061 0
M  V30 1705 H 169.981 -1.1893 -2.7531 0
M  V30 1706 H 167.534 -0.654088 -1.41956 0
M  V30 1707 H 168.269 1.37612 -2.93655 0
M  V30 1708 H 168.054 -0.101047 -3.9197 0
M  V30 1709 H 169.544 0.875537 -4.08319 0
M  V30 1710 N 169.982 1.44106 -0.638065 0
M  V30 1711 C 170.929 2.30715 0.062701 0
M  V30 1712 C 171.899 1.43882 0.829883 0
M  V30 1713 O 173.084 1.72775 0.809532 0
M  V30 1714 C 170.224 3.29258 1.03358 0
M  V30 1715 C 169.337 4.31192 0.26409 0
M  V30 1716 C 168.472 5.16825 1.22741 0
M  V30 1717 C 167.511 6.10462 0.447475 0
M  V30 1718 N 166.648 6.8877 1.36161 0
M  V30 1719 H 171.488 2.90096 -0.681781 0
M  V30 1720 H 169.025 1.42925 -0.347988 0
M  V30 1721 H 170.983 3.84886 1.60992 0
M  V30 1722 H 169.613 2.71562 1.74511 0
M  V30 1723 H 168.665 3.77981 -0.428295 0
M  V30 1724 H 169.977 4.97619 -0.343052 0
M  V30 1725 H 169.131 5.77004 1.87487 0
M  V30 1726 H 167.87 4.50488 1.86847 0
M  V30 1727 H 166.875 5.49386 -0.213433 0
M  V30 1728 H 168.1 6.78837 -0.188968 0
M  V30 1729 H 166.046 6.25096 1.98975 0
M  V30 1730 H 165.963 7.51663 0.808656 0
M  V30 1731 H 167.231 7.53467 1.99769 0
M  V30 1732 N 171.46 0.379036 1.52974 0
M  V30 1733 C 172.41 -0.477772 2.22938 0
M  V30 1734 C 173.394 -1.03792 1.22948 0
M  V30 1735 O 174.586 -0.965725 1.48333 0
M  V30 1736 C 171.715 -1.60994 3.03209 0
M  V30 1737 C 170.801 -1.06203 4.10587 0
M  V30 1738 N 171.192 -0.238214 5.05239 0
M  V30 1739 C 169.49 -1.33554 4.25534 0
M  V30 1740 C 170.191 0.0633235 5.81666 0
M  V30 1741 N 169.167 -0.537901 5.40932 0
M  V30 1742 H 172.969 0.158295 2.93473 0
M  V30 1743 H 170.483 0.187778 1.61311 0
M  V30 1744 H 172.48 -2.23607 3.5186 0
M  V30 1745 H 171.14 -2.24893 2.34207 0
M  V30 1746 H 172.151 0.123695 5.17752 0
M  V30 1747 H 168.828 -1.97632 3.6776 0
M  V30 1748 H 170.218 0.730161 6.67921 0
M  V30 1749 N 172.938 -1.57226 0.108567 0
M  V30 1750 C 174.354 -1.5766 -0.248058 0
M  V30 1751 C 174.554 -1.12063 -1.67464 0
M  V30 1752 O 173.61 -0.803236 -2.39383 0
M  V30 1753 C 174.923 -3.0069 -0.0242287 0
M  V30 1754 C 176.471 -3.12868 -0.0909372 0
M  V30 1755 C 176.946 -4.57879 0.105067 0
M  V30 1756 N 178.437 -4.63172 0.0506846 0
M  V30 1757 C 179.172 -5.73126 0.177396 0
M  V30 1758 N 178.668 -6.91866 0.359696 0
M  V30 1759 N 180.461 -5.61977 0.117709 0
M  V30 1760 H 172.612 -1.85169 1.04049 0
M  V30 1761 H 174.875 -0.85529 0.40888 0
M  V30 1762 H 174.581 -3.38299 0.961604 0
M  V30 1763 H 174.455 -3.6945 -0.76068 0
M  V30 1764 H 176.842 -2.75124 -1.06729 0
M  V30 1765 H 176.923 -2.46672 0.677225 0
M  V30 1766 H 176.567 -4.96321 1.07834 0
M  V30 1767 H 176.497 -5.22153 -0.682954 0
M  V30 1768 H 178.988 -3.778 -0.0871266 0
M  V30 1769 H 179.301 -7.71503 0.447529 0
M  V30 1770 H 177.646 -6.93874 0.395536 0
M  V30 1771 H 180.837 -4.68094 -0.0236741 0
M  V30 1772 H 181.01 -6.47627 0.219905 0
M  V30 1773 N 174.416 0.165178 -1.56732 0
M  V30 1774 C 175.646 0.894919 -1.86212 0
M  V30 1775 C 176.054 1.76066 -0.692627 0
M  V30 1776 O 175.397 1.80387 0.347303 0
M  V30 1777 C 175.459 1.8174 -3.10179 0
M  V30 1778 C 175.123 1.13064 -4.42793 0
M  V30 1779 C 176.12 0.493169 -5.17556 0
M  V30 1780 C 173.805 1.12556 -4.89527 0
M  V30 1781 C 175.799 -0.140209 -6.37246 0
M  V30 1782 C 173.486 0.488366 -6.09145 0
M  V30 1783 C 174.484 -0.143411 -6.82849 0
M  V30 1784 O 174.172 -0.77055 -8.00199 0
M  V30 1785 H 173.904 0.265114 -0.621844 0
M  V30 1786 H 176.458 0.168242 -2.0471 0
M  V30 1787 H 174.688 2.58455 -2.87642 0
M  V30 1788 H 176.377 2.4175 -3.26055 0
M  V30 1789 H 177.143 0.489023 -4.82528 0
M  V30 1790 H 173.022 1.60672 -4.32094 0
M  V30 1791 H 176.566 -0.633932 -6.94714 0
M  V30 1792 H 172.463 0.490116 -6.43637 0
M  V30 1793 H 173.231 -0.670408 -8.1575 0
M  V30 1794 N 175.894 1.51508 0.433938 0
M  V30 1795 C 176.826 1.69266 1.54537 0
M  V30 1796 C 177.839 0.573276 1.52373 0
M  V30 1797 O 179.028 0.847698 1.57087 0
M  V30 1798 C 176.128 1.69524 2.93453 0
M  V30 1799 C 175.301 2.98101 3.20085 0
M  V30 1800 C 174.36 2.90502 4.38742 0
M  V30 1801 O 173.386 3.64442 4.3723 0
M  V30 1802 N 174.588 2.06586 5.42496 0
M  V30 1803 H 177.353 2.65145 1.39708 0
M  V30 1804 H 174.914 1.49437 0.622922 0
M  V30 1805 H 176.906 1.62004 3.70859 0
M  V30 1806 H 175.476 0.812245 3.01863 0
M  V30 1807 H 174.696 3.19464 2.30947 0
M  V30 1808 H 175.984 3.83207 3.34708 0
M  V30 1809 H 175.382 1.45896 5.46563 0
M  V30 1810 H 173.939 2.04943 6.18742 0
M  V30 1811 N 177.372 -0.689602 1.41712 0
M  V30 1812 C 178.619 -1.44966 1.4139 0
M  V30 1813 C 178.947 -1.94484 0.025105 0
M  V30 1814 O 178.202 -1.70307 -0.964048 0
M  V30 1815 C 178.501 -2.67298 2.37247 0
M  V30 1816 C 178.167 -2.36405 3.83958 0
M  V30 1817 C 176.829 -2.27691 4.23923 0
M  V30 1818 C 179.181 -2.11043 4.76561 0
M  V30 1819 C 176.509 -1.91719 5.54492 0
M  V30 1820 C 178.861 -1.76578 6.07456 0
M  V30 1821 C 177.525 -1.66363 6.46436 0
M  V30 1822 H 176.795 -0.53047 0.517381 0
M  V30 1823 H 179.442 -0.787655 1.74552 0
M  V30 1824 H 177.747 -3.38461 1.9736 0
M  V30 1825 H 179.444 -3.25452 2.34269 0
M  V30 1826 H 176.034 -2.44085 3.52308 0
M  V30 1827 H 180.218 -2.16717 4.46483 0
M  V30 1828 H 175.474 -1.82367 5.83568 0
M  V30 1829 H 179.648 -1.55974 6.78708 0
M  V30 1830 H 177.275 -1.38258 7.47522 0
M  V30 1831 N 178.85 -1.27639 -0.924453 0
M  V30 1832 C 180.096 -1.15345 -1.67532 0
M  V30 1833 C 180.451 0.297096 -1.90092 0
M  V30 1834 O 179.744 1.21374 -1.48253 0
M  V30 1835 C 179.938 -1.87407 -3.04325 0
M  V30 1836 C 179.767 -3.3932 -2.95114 0
M  V30 1837 C 178.537 -4.08644 -2.97218 0
M  V30 1838 C 180.735 -4.35242 -2.73987 0
M  V30 1839 N 178.717 -5.47102 -2.78482 0
M  V30 1840 C 180.088 -5.6099 -2.63988 0
M  V30 1841 C 182.143 -4.25294 -2.589 0
M  V30 1842 C 180.846 -6.77924 -2.40442 0
M  V30 1843 C 182.872 -5.41952 -2.36731 0
M  V30 1844 C 182.234 -6.66658 -2.27478 0
M  V30 1845 H 178.333 -0.47696 -0.619704 0
M  V30 1846 H 180.917 -1.6115 -1.09265 0
M  V30 1847 H 179.088 -1.44053 -3.60699 0
M  V30 1848 H 180.82 -1.6759 -3.68369 0
M  V30 1849 H 177.575 -3.60136 -3.07569 0
M  V30 1850 H 177.999 -6.19852 -2.72236 0
M  V30 1851 H 182.641 -3.29598 -2.64811 0
M  V30 1852 H 180.359 -7.73699 -2.3327 0
M  V30 1853 H 183.945 -5.36137 -2.25938 0
M  V30 1854 H 182.825 -7.55405 -2.10555 0
M  V30 1855 N 180.328 1.1314 -1.09713 0
M  V30 1856 C 181.605 1.80762 -0.747302 0
M  V30 1857 C 181.985 1.96663 0.767265 0
M  V30 1858 O 181.333 1.53706 1.69076 0
M  V30 1859 C 181.543 3.15606 -1.48975 0
M  V30 1860 C 182.891 3.90914 -1.65746 0
M  V30 1861 O 183.915 3.25239 -1.45251 0
M  V30 1862 O 182.774 5.08718 -1.9967 0
M  V30 1863 H 179.868 0.782103 -0.268782 0
M  V30 1864 H 182.414 1.20041 -1.19951 0
M  V30 1865 H 181.186 2.99278 -2.52088 0
M  V30 1866 H 180.809 3.84029 -1.02991 0
M  V30 1867 N 181.806 0.884767 1.30421 0
M  V30 1868 C 183.034 0.518044 2.0031 0
M  V30 1869 C 183.449 -0.893408 1.66324 0
M  V30 1870 O 182.806 -1.5875 0.900262 0
M  V30 1871 C 182.857 0.682997 3.54989 0
M  V30 1872 O 182.578 2.03888 3.87764 0
M  V30 1873 C 184.079 0.31924 4.42149 0
M  V30 1874 H 181.299 0.200265 0.640418 0
M  V30 1875 H 183.843 1.19001 1.6631 0
M  V30 1876 H 181.998 0.0584052 3.87356 0
M  V30 1877 H 182.412 2.05735 4.82466 0
M  V30 1878 H 183.886 0.485555 5.4986 0
M  V30 1879 H 184.363 -0.742717 4.32875 0
M  V30 1880 H 184.969 0.920147 4.15227 0
M  V30 1881 N 183.284 -1.43765 0.645699 0
M  V30 1882 C 184.216 -2.29027 -0.0890605 0
M  V30 1883 C 185.229 -1.42093 -0.794563 0
M  V30 1884 O 186.418 -1.66104 -0.653575 0
M  V30 1885 C 183.518 -3.18831 -1.14891 0
M  V30 1886 C 182.691 -4.34261 -0.523043 0
M  V30 1887 C 181.75 -5.04994 -1.47878 0
M  V30 1888 O 180.776 -5.6052 -0.990277 0
M  V30 1889 N 181.978 -5.07795 -2.81291 0
M  V30 1890 H 184.743 -2.92727 0.64272 0
M  V30 1891 H 182.304 -1.54373 0.487924 0
M  V30 1892 H 184.296 -3.63015 -1.78892 0
M  V30 1893 H 182.866 -2.56782 -1.78275 0
M  V30 1894 H 182.086 -3.93088 0.295896 0
M  V30 1895 H 183.374 -5.08728 -0.0858147 0
M  V30 1896 H 182.772 -4.64042 -3.23546 0
M  V30 1897 H 181.329 -5.55721 -3.40614 0
M  V30 1898 N 184.763 -0.387143 -1.52771 0
M  V30 1899 C 186.174 0.0873634 -1.86495 0
M  V30 1900 C 186.525 1.46336 -1.30691 0
M  V30 1901 O 185.65 2.068 -0.637409 0
M  V30 1902 C 186.245 0.165305 -3.38396 0
M  V30 1903 C 184.804 0.584101 -3.7184 0
M  V30 1904 C 183.951 -0.255279 -2.76122 0
M  V30 1905 H 186.902 -0.605104 -1.46711 0
M  V30 1906 H 186.923 0.984848 -3.67534 0
M  V30 1907 H 186.435 -0.836301 -3.78982 0
M  V30 1908 H 184.536 1.59315 -3.36823 0
M  V30 1909 H 184.649 0.343749 -4.77865 0
M  V30 1910 H 183.013 0.279126 -2.53166 0
M  V30 1911 H 183.796 -1.25482 -3.19545 0
M  V30 1912 N 186.241 1.57166 -0.116904 0
M  V30 1913 C 187.487 1.95412 0.542405 0
M  V30 1914 C 187.82 1.00019 1.66463 0
M  V30 1915 O 187.095 0.0370346 1.94465 0
M  V30 1916 C 187.378 3.43615 1.07708 0
M  V30 1917 C 187.231 4.49781 -0.0415868 0
M  V30 1918 C 188.55 3.93616 1.96861 0
M  V30 1919 H 185.669 0.710543 0.195696 0
M  V30 1920 H 188.311 1.89027 -0.192038 0
M  V30 1921 H 186.461 3.49187 1.70296 0
M  V30 1922 H 188.133 4.56308 -0.676793 0
M  V30 1923 H 186.376 4.28033 -0.705019 0
M  V30 1924 H 187.047 5.50733 0.373717 0
M  V30 1925 H 189.523 3.90335 1.44146 0
M  V30 1926 H 188.399 4.97838 2.3119 0
M  V30 1927 H 188.66 3.34188 2.89432 0
M  V30 1928 N 187.719 -0.156864 1.56817 0
M  V30 1929 C 189.13 -0.717916 1.72345 0
M  V30 1930 C 189.481 -1.82124 0.729747 0
M  V30 1931 O 188.606 -2.16141 -0.105781 0
M  V30 1932 C 189.201 -1.30904 3.12489 0
M  V30 1933 C 187.76 -1.81676 3.29653 0
M  V30 1934 C 186.907 -0.701349 2.68284 0
M  V30 1935 H 189.858 0.0686989 1.58551 0
M  V30 1936 H 189.879 -2.17882 3.11942 0
M  V30 1937 H 189.391 -0.505796 3.8479 0
M  V30 1938 H 187.492 -2.64598 2.62333 0
M  V30 1939 H 187.605 -1.95226 4.3752 0
M  V30 1940 H 185.969 -1.12548 2.28484 0
M  V30 1941 H 186.752 0.0902846 3.43181 0
M  V30 1942 N 189.197 -1.51736 -0.425897 0
M  V30 1943 C 190.144 -1.73875 -1.51776 0
M  V30 1944 C 191.114 -0.580702 -1.55618 0
M  V30 1945 O 192.299 -0.81641 -1.72451 0
M  V30 1946 C 189.439 -1.88012 -2.89388 0
M  V30 1947 C 188.552 -3.15606 -2.94986 0
M  V30 1948 C 187.687 -3.20271 -4.23793 0
M  V30 1949 C 186.726 -4.42134 -4.23302 0
M  V30 1950 N 185.863 -4.44284 -5.43651 0
M  V30 1951 H 190.703 -2.67071 -1.32201 0
M  V30 1952 H 188.24 -1.32351 -0.642008 0
M  V30 1953 H 190.198 -1.9419 -3.69251 0
M  V30 1954 H 188.828 -0.98213 -3.07496 0
M  V30 1955 H 187.88 -3.18681 -2.07717 0
M  V30 1956 H 189.192 -4.05486 -2.90486 0
M  V30 1957 H 188.346 -3.25428 -5.12036 0
M  V30 1958 H 187.085 -2.28299 -4.30965 0
M  V30 1959 H 186.09 -4.3714 -3.3345 0
M  V30 1960 H 187.315 -5.35382 -4.17783 0
M  V30 1961 H 185.261 -3.55188 -5.51523 0
M  V30 1962 H 185.178 -5.27988 -5.41078 0
M  V30 1963 H 186.446 -4.53649 -6.33895 0
M  V30 1964 N 190.675 0.682077 -1.42076 0
M  V30 1965 C 191.605 1.80796 -1.47767 0
M  V30 1966 C 192.586 1.6677 -0.334954 0
M  V30 1967 O 193.771 1.863 -0.548264 0
M  V30 1968 C 190.901 3.19038 -1.37229 0
M  V30 1969 C 189.855 3.47789 -2.49453 0
M  V30 1970 C 189.181 4.8553 -2.23975 0
M  V30 1971 C 190.481 3.45411 -3.91776 0
M  V30 1972 H 192.175 1.7629 -2.41997 0
M  V30 1973 H 189.721 0.846721 -1.16476 0
M  V30 1974 H 191.674 3.97528 -1.39821 0
M  V30 1975 H 190.398 3.24204 -0.394907 0
M  V30 1976 H 189.057 2.71657 -2.46166 0
M  V30 1977 H 188.705 4.87337 -1.24547 0
M  V30 1978 H 188.405 5.0573 -2.99184 0
M  V30 1979 H 189.929 5.66312 -2.28304 0
M  V30 1980 H 191.343 4.13882 -3.96705 0
M  V30 1981 H 189.74 3.77145 -4.66778 0
M  V30 1982 H 190.81 2.44122 -4.18966 0
M  V30 1983 N 192.153 1.28127 0.917671 0
M  V30 1984 C 193.43 1.05761 1.64542 0
M  V30 1985 C 193.81 -0.404344 2.07191 0
M  V30 1986 O 193.158 -1.38963 1.81388 0
M  V30 1987 C 193.368 2.02857 2.83989 0
M  V30 1988 C 194.716 2.32786 3.551 0
M  V30 1989 O 195.74 2.0091 2.94132 0
M  V30 1990 O 194.599 2.87169 4.64969 0
M  V30 1991 H 191.693 0.403916 0.721652 0
M  V30 1992 H 194.239 1.39431 0.967322 0
M  V30 1993 H 193.011 3.01407 2.49538 0
M  V30 1994 H 192.634 1.69809 3.59514 0
M  V30 1995 N 193.631 -1.12557 1.10312 0
M  V30 1996 C 194.541 -2.21841 0.763142 0
M  V30 1997 C 195.557 -1.72354 -0.238801 0
M  V30 1998 O 196.733 -2.01249 -0.0778746 0
M  V30 1999 C 193.798 -3.46131 0.198632 0
M  V30 2000 C 192.859 -4.10464 1.25769 0
M  V30 2001 C 192.092 -5.28821 0.72002 0
M  V30 2002 O 192.315 -5.6859 -0.453993 0
M  V30 2003 O 191.249 -5.83437 1.47935 0
M  V30 2004 H 195.075 -2.53312 1.67532 0
M  V30 2005 H 192.66 -1.20867 0.878157 0
M  V30 2006 H 194.542 -4.2125 -0.112401 0
M  V30 2007 H 193.217 -3.16338 -0.686419 0
M  V30 2008 H 192.124 -3.3713 1.62156 0
M  V30 2009 H 193.457 -4.44408 2.11571 0
M  V30 2010 N 195.109 -0.891671 -1.2995 0
M  V30 2011 C 196.355 -0.514261 -1.96171 0
M  V30 2012 C 196.688 0.935506 -1.70182 0
M  V30 2013 O 195.963 1.66204 -1.01028 0
M  V30 2014 C 196.246 -0.797719 -3.51153 0
M  V30 2015 C 196.099 -2.2986 -3.86632 0
M  V30 2016 C 197.418 -0.278749 -4.39216 0
M  V30 2017 H 194.537 -0.188314 -0.712535 0
M  V30 2018 H 197.179 -1.11689 -1.53706 0
M  V30 2019 H 195.329 -0.284826 -3.87455 0
M  V30 2020 H 197.001 -2.88042 -3.60319 0
M  V30 2021 H 195.244 -2.76257 -3.34462 0
M  V30 2022 H 195.915 -2.44753 -4.94773 0
M  V30 2023 H 198.391 -0.717825 -4.09862 0
M  V30 2024 H 197.267 -0.506353 -5.46559 0
M  V30 2025 H 197.528 0.820266 -4.34424 0
M  V30 2026 N 196.587 1.43421 -0.653314 0
M  V30 2027 C 197.836 2.01032 -0.164076 0
M  V30 2028 C 198.149 1.52147 1.22926 0
M  V30 2029 O 199.355 2.02031 1.81371 0
M  V30 2030 C 197.811 3.59082 -0.24252 0
M  V30 2031 C 197.419 4.1696 -1.63855 0
M  V30 2032 C 199.163 4.24079 0.18911 0
M  V30 2033 C 197.07 5.67304 -1.67092 0
M  V30 2034 H 196 0.751798 -0.0575769 0
M  V30 2035 H 198.651 1.6439 -0.815362 0
M  V30 2036 H 197.033 3.93125 0.476276 0
M  V30 2037 H 198.207 3.94416 -2.38271 0
M  V30 2038 H 196.522 3.64335 -2.01616 0
M  V30 2039 H 199.119 5.34381 0.184775 0
M  V30 2040 H 199.462 3.98005 1.22056 0
M  V30 2041 H 199.995 3.94918 -0.477938 0
M  V30 2042 H 196.734 5.98145 -2.68146 0
M  V30 2043 H 196.254 5.91904 -0.970014 0
M  V30 2044 H 197.933 6.31344 -1.4147 0
M  V30 2045 N 198.065 0.39524 1.52563 0
M  V30 2046 C 199.293 -0.184943 2.06072 0
M  V30 2047 C 199.708 -1.40021 1.26647 0
M  V30 2048 O 199.065 -1.79767 0.314672 0
M  V30 2049 C 199.116 -0.549179 3.57304 0
M  V30 2050 O 198.837 0.617813 4.33722 0
M  V30 2051 C 200.338 -1.18459 4.2718 0
M  V30 2052 H 197.558 -0.0265025 0.670476 0
M  V30 2053 H 200.102 0.562184 1.96621 0
M  V30 2054 H 198.257 -1.2462 3.66809 0
M  V30 2055 H 198.671 0.317091 5.23541 0
M  V30 2056 H 200.145 -1.38976 5.34219 0
M  V30 2057 H 200.622 -2.15368 3.82771 0
M  V30 2058 H 201.228 -0.528163 4.22008 0
M  V30 2059 N 199.544 -1.57102 0.125237 0
M  V30 2060 C 200.769 -2.0019 -0.542101 0
M  V30 2061 C 201.194 -1.00449 -1.59034 0
M  V30 2062 O 200.552 0.0229423 -1.81285 0
M  V30 2063 C 200.6 -3.42129 -1.13929 0
M  V30 2064 O 199.704 -3.45307 -2.2547 0
M  V30 2065 H 199.045 -0.650171 -0.134812 0
M  V30 2066 H 201.575 -2.03461 0.215553 0
M  V30 2067 H 201.585 -3.80471 -1.4733 0
M  V30 2068 H 200.26 -4.14237 -0.371531 0
M  V30 2069 H 198.837 -3.1879 -1.93462 0
M  V30 2070 N 201.022 0.148545 -1.56898 0
M  V30 2071 C 201.972 1.1886 -1.94567 0
M  V30 2072 C 202.956 1.3863 -0.816735 0
M  V30 2073 O 204.148 1.40218 -1.08018 0
M  V30 2074 C 201.277 2.52262 -2.32849 0
M  V30 2075 C 200.363 2.36092 -3.52309 0
M  V30 2076 N 200.754 1.89674 -4.6889 0
M  V30 2077 C 199.052 2.66848 -3.57363 0
M  V30 2078 C 199.753 1.86511 -5.50989 0
M  V30 2079 N 198.729 2.29766 -4.92655 0
M  V30 2080 H 202.531 0.821793 -2.82177 0
M  V30 2081 H 200.045 0.356615 -1.58436 0
M  V30 2082 H 202.042 3.27447 -2.58039 0
M  V30 2083 H 200.702 2.89727 -1.46589 0
M  V30 2084 H 201.713 1.59663 -4.92674 0
M  V30 2085 H 198.39 3.08198 -2.81639 0
M  V30 2086 H 199.78 1.52128 -6.54452 0
M  V30 2087 N 202.5 1.5196 0.417844 0
M  V30 2088 C 203.748 1.65263 1.16329 0
M  V30 2089 C 204.069 0.380634 1.91249 0
M  V30 2090 O 203.339 -0.604214 1.86349 0
M  V30 2091 H 201.919 0.60912 0.432414 0
M  V30 2092 H 204.581 1.88969 0.477162 0
M  V30 2093 H 203.677 2.4896 1.88217 0
M  V30 2094 N 203.978 -0.674533 1.42435 0
M  V30 2095 C 204.941 -1.76986 1.45632 0
M  V30 2096 C 205.941 -1.5708 0.343871 0
M  V30 2097 O 207.131 -1.63367 0.604709 0
M  V30 2098 C 204.263 -3.15623 1.28822 0
M  V30 2099 H 205.456 -1.75539 2.43158 0
M  V30 2100 H 203.009 -0.884189 1.28887 0
M  V30 2101 H 203.744 -3.22696 0.322193 0
M  V30 2102 H 203.529 -3.31475 2.09444 0
M  V30 2103 H 205.019 -3.95537 1.33942 0
M  V30 2104 N 205.456 -1.28612 -0.910864 0
M  V30 2105 C 206.705 -1.15311 -1.65488 0
M  V30 2106 C 207.018 0.296999 -1.93332 0
M  V30 2107 O 208.224 0.551168 -2.65847 0
M  V30 2108 C 206.68 -2.01599 -2.98137 0
M  V30 2109 C 206.288 -3.51367 -2.7793 0
M  V30 2110 C 208.032 -1.96993 -3.76024 0
M  V30 2111 C 205.939 -4.29797 -4.06237 0
M  V30 2112 H 204.869 -0.42796 -0.620779 0
M  V30 2113 H 207.52 -1.53166 -1.01057 0
M  V30 2114 H 205.902 -1.56603 -3.63719 0
M  V30 2115 H 207.076 -4.0434 -2.21011 0
M  V30 2116 H 205.391 -3.57529 -2.13452 0
M  V30 2117 H 207.988 -2.52856 -4.71135 0
M  V30 2118 H 208.331 -0.94733 -4.05378 0
M  V30 2119 H 208.864 -2.39973 -3.17266 0
M  V30 2120 H 205.603 -5.32648 -3.82055 0
M  V30 2121 H 205.123 -3.81596 -4.62757 0
M  V30 2122 H 206.802 -4.39869 -4.74473 0
M  V30 2123 N 206.934 1.1197 -1.10907 0
M  V30 2124 C 207.844 2.21433 -0.774896 0
M  V30 2125 C 208.86 1.72478 0.229657 0
M  V30 2126 O 210.036 2.01288 0.0672008 0
M  V30 2127 C 207.101 3.4602 -0.216986 0
M  V30 2128 C 206.162 4.09791 -1.27944 0
M  V30 2129 C 205.395 5.28431 -0.748055 0
M  V30 2130 O 205.618 5.68823 0.423833 0
M  V30 2131 O 204.552 5.82644 -1.51027 0
M  V30 2132 H 208.378 2.5242 -1.68873 0
M  V30 2133 H 205.963 1.20399 -0.884555 0
M  V30 2134 H 207.845 4.21304 0.090059 0
M  V30 2135 H 206.52 3.16698 0.669633 0
M  V30 2136 H 205.427 3.36265 -1.63941 0
M  V30 2137 H 206.76 4.4328 -2.13925 0
M  V30 2138 N 208.412 0.89855 1.29475 0
M  V30 2139 C 209.823 0.572537 1.77705 0
M  V30 2140 C 210.174 -0.911778 1.73727 0
M  V30 2141 O 209.299 -1.71288 1.32247 0
M  V30 2142 C 209.894 1.03252 3.22683 0
M  V30 2143 C 208.453 0.757687 3.68695 0
M  V30 2144 C 207.6 1.20787 2.49612 0
M  V30 2145 H 210.551 1.08139 1.16153 0
M  V30 2146 H 210.572 0.367307 3.78723 0
M  V30 2147 H 210.084 2.11285 3.25546 0
M  V30 2148 H 208.185 -0.310079 3.71308 0
M  V30 2149 H 208.298 1.35476 4.59547 0
M  V30 2150 H 206.662 0.626888 2.46865 0
M  V30 2151 H 207.445 2.29622 2.55203 0
M  V30 2152 N 209.89 -1.43072 0.660911 0
M  V30 2153 C 211.167 -1.95307 0.107017 0
M  V30 2154 C 211.547 -1.60192 -1.37484 0
M  V30 2155 O 210.895 -0.890949 -2.10415 0
M  V30 2156 C 211.105 -3.47124 0.361402 0
M  V30 2157 C 212.453 -4.23738 0.270455 0
M  V30 2158 O 213.477 -3.54981 0.294382 0
M  V30 2159 O 212.336 -5.46131 0.200737 0
M  V30 2160 H 209.43 -0.826984 -0.00517729 0
M  V30 2161 H 211.976 -1.52972 0.734681 0
M  V30 2162 H 210.748 -3.65837 1.38848 0
M  V30 2163 H 210.371 -3.96475 -0.298953 0
M  V30 2164 N 211.368 -0.403325 -1.52352 0
M  V30 2165 C 212.315 0.425011 -2.26853 0
M  V30 2166 C 213.285 1.04598 -1.29029 0
M  V30 2167 O 214.47 1.07135 -1.57882 0
M  V30 2168 C 211.61 1.53888 -3.08889 0
M  V30 2169 C 210.723 0.939396 -4.21663 0
M  V30 2170 C 209.858 2.02547 -4.91068 0
M  V30 2171 C 208.897 1.40263 -5.95813 0
M  V30 2172 N 208.034 2.4286 -6.58759 0
M  V30 2173 H 212.874 -0.21674 -2.97211 0
M  V30 2174 H 210.411 -0.118722 -1.4662 0
M  V30 2175 H 212.369 2.19558 -3.54753 0
M  V30 2176 H 210.999 2.15074 -2.40714 0
M  V30 2177 H 210.051 0.171898 -3.80011 0
M  V30 2178 H 211.363 0.44436 -4.96817 0
M  V30 2179 H 210.517 2.75958 -5.40308 0
M  V30 2180 H 209.256 2.55415 -4.15469 0
M  V30 2181 H 208.261 0.653833 -5.45898 0
M  V30 2182 H 209.486 0.881719 -6.73352 0
M  V30 2183 H 207.432 2.94871 -5.85992 0
M  V30 2184 H 207.349 1.98152 -7.2957 0
M  V30 2185 H 208.617 3.15858 -7.12639 0
M  V30 2186 N 212.846 1.57033 -0.133567 0
M  V30 2187 C 214.123 1.87256 0.56522 0
M  V30 2188 C 214.503 1.03726 1.83859 0
M  V30 2189 O 213.851 0.120247 2.28183 0
M  V30 2190 C 214.061 3.3865 0.843636 0
M  V30 2191 C 215.409 4.07574 1.19032 0
M  V30 2192 O 216.433 3.43752 0.933429 0
M  V30 2193 O 215.292 5.20259 1.67312 0
M  V30 2194 H 212.386 0.775678 0.286796 0
M  V30 2195 H 214.932 1.68855 -0.169168 0
M  V30 2196 H 213.704 3.91257 -0.0581149 0
M  V30 2197 H 213.327 3.62532 1.63268 0
M  V30 2198 N 214.325 -0.140222 1.56975 0
M  V30 2199 C 215.273 -1.19207 1.99731 0
M  V30 2200 C 216.267 -1.44089 0.890777 0
M  V30 2201 O 217.473 -1.44301 1.07597 0
M  V30 2202 H 213.848 -0.40142 0.635898 0
M  V30 2203 H 215.819 -0.804813 2.87342 0
M  V30 2204 C 214.568 -2.51617 2.39967 0
M  V30 2205 H 213.891 -2.33303 3.24669 0
M  V30 2206 H 215.331 -3.23827 2.73701 0
M  V30 2207 C 213.79 -3.12654 1.25496 0
M  V30 2208 O 214.32 -3.97786 0.559371 0
M  V30 2209 N 212.526 -2.72206 1.01746 0
M  V30 2210 H 212.073 -2.03074 1.58489 0
M  V30 2211 H 212.031 -3.13377 0.253461 0
M  V30 2212 N 215.803 -1.52179 -0.40978 0
M  V30 2213 C 217.049 -1.66453 -1.15851 0
M  V30 2214 C 217.382 -0.392972 -1.90182 0
M  V30 2215 O 216.657 0.608579 -1.84734 0
M  V30 2216 C 216.94 -2.88612 -2.15349 0
M  V30 2217 C 216.793 -4.25815 -1.44918 0
M  V30 2218 C 218.112 -3.06294 -3.16026 0
M  V30 2219 H 215.231 -0.60575 -0.419805 0
M  V30 2220 H 217.873 -1.84732 -0.444314 0
M  V30 2221 H 216.023 -2.73158 -2.76255 0
M  V30 2222 H 217.695 -4.52995 -0.871365 0
M  V30 2223 H 215.938 -4.27247 -0.751159 0
M  V30 2224 H 216.609 -5.07337 -2.17516 0
M  V30 2225 H 219.085 -3.20641 -2.65195 0
M  V30 2226 H 217.961 -3.93283 -3.8291 0
M  V30 2227 H 218.222 -2.19579 -3.83715 0
M  V30 2228 N 217.281 0.66697 -1.42791 0
M  V30 2229 C 218.697 0.981027 -1.25889 0
M  V30 2230 C 218.897 2.00793 -0.168695 0
M  V30 2231 O 217.953 2.48321 0.45747 0
M  V30 2232 C 219.266 1.47838 -2.61848 0
M  V30 2233 C 220.814 1.59575 -2.69267 0
M  V30 2234 C 221.289 2.12704 -4.05612 0
M  V30 2235 N 222.78 2.20026 -4.07606 0
M  V30 2236 C 223.515 2.62227 -5.09926 0
M  V30 2237 N 223.011 3.03824 -6.22626 0
M  V30 2238 N 224.804 2.62045 -4.97281 0
M  V30 2239 H 216.955 -0.0127891 -2.12396 0
M  V30 2240 H 219.218 0.0568258 -0.946295 0
M  V30 2241 H 218.924 0.798299 -3.4252 0
M  V30 2242 H 218.798 2.45579 -2.86305 0
M  V30 2243 H 221.185 2.26687 -1.88936 0
M  V30 2244 H 221.266 0.60302 -2.48591 0
M  V30 2245 H 220.91 1.46198 -4.86404 0
M  V30 2246 H 220.84 3.12782 -4.23645 0
M  V30 2247 H 223.331 1.90708 -3.2625 0
M  V30 2248 H 223.644 3.34734 -6.96544 0
M  V30 2249 H 221.989 3.01662 -6.26119 0
M  V30 2250 H 225.18 2.28916 -4.08308 0
M  V30 2251 H 225.353 2.94613 -5.77154 0
M  V30 2252 N 218.759 1.29093 0.90403 0
M  V30 2253 C 219.691 1.09658 2.01266 0
M  V30 2254 C 220.704 0.0453729 1.62737 0
M  V30 2255 O 221.893 0.289446 1.76138 0
M  V30 2256 C 218.993 0.646278 3.32681 0
M  V30 2257 C 218.166 1.77505 3.99763 0
M  V30 2258 C 217.225 1.31649 5.09465 0
M  V30 2259 O 216.251 2.02045 5.32134 0
M  V30 2260 N 217.453 0.184997 5.80205 0
M  V30 2261 H 220.218 2.05135 2.18494 0
M  V30 2262 H 217.779 1.20975 1.07594 0
M  V30 2263 H 219.771 0.322906 4.0341 0
M  V30 2264 H 218.341 -0.215916 3.11853 0
M  V30 2265 H 217.561 2.26752 3.22455 0
M  V30 2266 H 218.849 2.53198 4.41325 0
M  V30 2267 H 218.247 -0.402021 5.6427 0
M  V30 2268 H 216.804 -0.0790358 6.51752 0
M  V30 2269 N 220.237 -1.11381 1.11499 0
M  V30 2270 C 221.147 -2.21019 0.786628 0
M  V30 2271 C 222.163 -1.72597 -0.220507 0
M  V30 2272 O 223.339 -2.01321 -0.0565251 0
M  V30 2273 C 220.404 -3.459 0.235333 0
M  V30 2274 C 219.465 -4.09107 1.30115 0
M  V30 2275 C 218.698 -5.28027 0.776068 0
M  V30 2276 O 218.921 -5.6904 -0.393661 0
M  V30 2277 O 217.855 -5.81835 1.54114 0
M  V30 2278 H 221.681 -2.51521 1.70209 0
M  V30 2279 H 219.266 -1.19928 0.890928 0
M  V30 2280 H 221.148 -4.21346 -0.067715 0
M  V30 2281 H 219.823 -3.17049 -0.652828 0
M  V30 2282 H 218.73 -3.35391 1.65722 0
M  V30 2283 H 220.063 -4.42139 2.16273 0
M  V30 2284 N 221.715 -0.905404 -1.28997 0
M  V30 2285 C 223.126 -0.581953 -1.77398 0
M  V30 2286 C 223.477 0.902552 -1.74208 0
M  V30 2287 O 222.602 1.70584 -1.33154 0
M  V30 2288 C 223.197 -1.04961 -3.22131 0
M  V30 2289 C 221.756 -0.777229 -3.68288 0
M  V30 2290 C 220.903 -1.22109 -2.48967 0
M  V30 2291 H 223.854 -1.08754 -1.15578 0
M  V30 2292 H 223.875 -0.387387 -3.78523 0
M  V30 2293 H 223.387 -2.13008 -3.24421 0
M  V30 2294 H 221.488 0.290383 -3.71467 0
M  V30 2295 H 221.601 -1.37911 -4.58822 0
M  V30 2296 H 219.965 -0.639971 -2.46529 0
M  V30 2297 H 220.748 -2.30972 -2.53982 0
M  V30 2298 N 223.193 1.4272 -0.668489 0
M  V30 2299 C 224.423 2.05668 -0.196063 0
M  V30 2300 C 224.831 1.5028 1.14946 0
M  V30 2301 O 224.174 0.6348 1.72383 0
M  V30 2302 C 224.236 3.59469 -0.0468879 0
M  V30 2303 C 223.9 4.37518 -1.32012 0
M  V30 2304 C 224.897 4.68584 -2.25222 0
M  V30 2305 C 222.582 4.77266 -1.56596 0
M  V30 2306 C 224.576 5.38326 -3.41297 0
M  V30 2307 C 222.263 5.4675 -2.72962 0
M  V30 2308 C 223.261 5.77204 -3.65137 0
M  V30 2309 O 222.949 6.45264 -4.79468 0
M  V30 2310 H 222.681 0.669382 -0.0943599 0
M  V30 2311 H 225.235 1.83954 -0.913788 0
M  V30 2312 H 223.465 3.79817 0.726357 0
M  V30 2313 H 225.154 4.04071 0.384852 0
M  V30 2314 H 225.92 4.38382 -2.07477 0
M  V30 2315 H 221.799 4.52959 -0.857249 0
M  V30 2316 H 225.343 5.62014 -4.13263 0
M  V30 2317 H 221.24 5.76369 -2.90635 0
M  V30 2318 H 222.008 6.63753 -4.78931 0
M  V30 2319 N 224.671 0.411399 1.52136 0
M  V30 2320 C 225.896 -0.165538 2.06738 0
M  V30 2321 C 226.321 -1.379 1.27926 0
M  V30 2322 O 225.679 -1.78628 0.310114 0
M  V30 2323 C 225.727 -0.492124 3.57226 0
M  V30 2324 O 224.831 -1.58276 3.80818 0
M  V30 2325 H 224.172 -0.0132132 0.663869 0
M  V30 2326 H 226.702 0.585253 1.96051 0
M  V30 2327 H 226.712 -0.750104 4.01045 0
M  V30 2328 H 225.387 0.394922 4.14021 0
M  V30 2329 H 223.964 -1.31677 3.48877 0
M  V30 2330 N 226.149 -1.5696 0.141893 0
M  V30 2331 C 227.079 -2.19516 -0.795936 0
M  V30 2332 C 228.06 -1.14187 -1.26077 0
M  V30 2333 O 229.245 -1.42511 -1.31925 0
M  V30 2334 C 226.375 -2.81272 -2.03723 0
M  V30 2335 C 225.329 -3.92384 -1.70936 0
M  V30 2336 C 224.655 -4.41052 -3.02287 0
M  V30 2337 C 225.955 -5.13403 -0.959954 0
M  V30 2338 H 227.649 -2.98138 -0.274596 0
M  V30 2339 H 225.195 -1.43406 -0.130636 0
M  V30 2340 H 227.148 -3.237 -2.69808 0
M  V30 2341 H 225.872 -1.99973 -2.58221 0
M  V30 2342 H 224.531 -3.50566 -1.07232 0
M  V30 2343 H 224.179 -3.56582 -3.54765 0
M  V30 2344 H 223.879 -5.15993 -2.81114 0
M  V30 2345 H 225.403 -4.86146 -3.69451 0
M  V30 2346 H 226.817 -5.52706 -1.52279 0
M  V30 2347 H 225.214 -5.94073 -0.848357 0
M  V30 2348 H 226.284 -4.84875 0.0492434 0
M  V30 2349 N 227.627 0.131896 -1.57047 0
M  V30 2350 C 229.038 0.690407 -1.73465 0
M  V30 2351 C 229.389 1.8094 -0.758629 0
M  V30 2352 O 228.514 2.16282 0.0713813 0
M  V30 2353 C 229.109 1.25916 -3.14532 0
M  V30 2354 C 227.668 1.76409 -3.32501 0
M  V30 2355 C 226.815 0.658579 -2.69366 0
M  V30 2356 H 229.766 -0.0939144 -1.58422 0
M  V30 2357 H 229.787 2.12892 -3.15369 0
M  V30 2358 H 229.299 0.444515 -3.85546 0
M  V30 2359 H 227.4 2.60391 -2.66509 0
M  V30 2360 H 227.513 1.88241 -4.4057 0
M  V30 2361 H 225.877 1.08899 -2.30246 0
M  V30 2362 H 226.66 -0.14487 -3.42994 0
M  V30 2363 N 229.106 1.52395 0.401703 0
M  V30 2364 C 230.038 1.72505 1.50912 0
M  V30 2365 C 231.051 0.605468 1.51122 0
M  V30 2366 O 232.24 0.880828 1.55254 0
M  V30 2367 C 229.34 1.75711 2.89791 0
M  V30 2368 C 228.513 3.04824 3.1369 0
M  V30 2369 C 227.572 2.99743 4.32482 0
M  V30 2370 O 226.598 3.73635 4.29402 0
M  V30 2371 N 227.8 2.18047 5.37992 0
M  V30 2372 H 230.565 2.68049 1.34052 0
M  V30 2373 H 228.126 1.50724 0.591084 0
M  V30 2374 H 230.118 1.69834 3.6734 0
M  V30 2375 H 228.688 0.876092 3.00072 0
M  V30 2376 H 227.908 3.2429 2.24119 0
M  V30 2377 H 229.196 3.90221 3.26504 0
M  V30 2378 H 228.594 1.57456 5.43345 0
M  V30 2379 H 227.151 2.18021 6.14256 0
M  V30 2380 N 230.584 -0.659388 1.43143 0
M  V30 2381 C 231.832 -1.41654 1.44147 0
M  V30 2382 C 232.153 -1.94893 0.0645739 0
M  V30 2383 O 231.423 -1.74044 -0.899198 0
M  V30 2384 H 230.003 -0.525708 0.530697 0
M  V30 2385 H 232.665 -0.778097 1.78694 0
M  V30 2386 H 231.761 -2.26195 2.1504 0
M  V30 2387 N 232.062 -1.29571 -0.897171 0
M  V30 2388 C 233.309 -1.17689 -1.6479 0
M  V30 2389 C 233.637 0.27107 -1.92602 0
M  V30 2390 O 232.892 1.21193 -1.53658 0
M  V30 2391 C 233.191 -1.9382 -3.00281 0
M  V30 2392 C 232.857 -3.43522 -2.92068 0
M  V30 2393 C 231.519 -3.84348 -2.89535 0
M  V30 2394 C 233.871 -4.38906 -2.81089 0
M  V30 2395 C 231.199 -5.18869 -2.73846 0
M  V30 2396 C 233.551 -5.73521 -2.66939 0
M  V30 2397 C 232.215 -6.13601 -2.62774 0
M  V30 2398 H 231.485 -0.430654 -0.603008 0
M  V30 2399 H 234.132 -1.60536 -1.04404 0
M  V30 2400 H 232.437 -1.4357 -3.64547 0
M  V30 2401 H 234.134 -1.82028 -3.57305 0
M  V30 2402 H 230.724 -3.11072 -2.94842 0
M  V30 2403 H 234.908 -4.08315 -2.82121 0
M  V30 2404 H 230.164 -5.4903 -2.69027 0
M  V30 2405 H 234.338 -6.47078 -2.57416 0
M  V30 2406 H 231.965 -7.17786 -2.50375 0
M  V30 2407 N 233.54 1.10788 -1.12088 0
M  V30 2408 C 234.473 2.16237 -0.729168 0
M  V30 2409 C 235.451 1.60207 0.277921 0
M  V30 2410 O 236.635 1.87707 0.172737 0
M  V30 2411 C 233.762 3.38609 -0.0786848 0
M  V30 2412 C 232.808 4.13322 -1.05201 0
M  V30 2413 S 233.641 4.69371 -2.57781 0
M  V30 2414 C 234.797 5.95058 -1.94053 0
M  V30 2415 H 235.03 2.4913 -1.62239 0
M  V30 2416 H 232.563 1.22519 -0.939603 0
M  V30 2417 H 234.521 4.09473 0.290254 0
M  V30 2418 H 233.182 3.03962 0.791593 0
M  V30 2419 H 232.375 5.01051 -0.544433 0
M  V30 2420 H 231.977 3.48251 -1.36371 0
M  V30 2421 H 234.269 6.65278 -1.28107 0
M  V30 2422 H 235.212 6.50472 -2.79807 0
M  V30 2423 H 235.62 5.46918 -1.39787 0
M  V30 2424 N 235.018 0.912232 1.28515 0
M  V30 2425 C 236.264 0.554851 1.95686 0
M  V30 2426 C 236.619 -0.89138 1.70506 0
M  V30 2427 O 235.912 -1.62529 1.01464 0
M  V30 2428 C 236.106 0.798392 3.48368 0
M  V30 2429 C 235.935 2.26674 3.88393 0
M  V30 2430 C 234.705 2.91657 4.12631 0
M  V30 2431 C 236.903 3.24303 3.99164 0
M  V30 2432 N 234.885 4.28805 4.39317 0
M  V30 2433 C 236.256 4.4661 4.30046 0
M  V30 2434 C 238.311 3.19723 3.81683 0
M  V30 2435 C 237.014 5.64915 4.45268 0
M  V30 2436 C 239.04 4.37325 3.98121 0
M  V30 2437 C 238.402 5.58406 4.29375 0
M  V30 2438 H 234.501 0.252876 0.739985 0
M  V30 2439 H 237.085 1.17565 1.55199 0
M  V30 2440 H 235.256 0.20688 3.87849 0
M  V30 2441 H 236.988 0.405193 4.02666 0
M  V30 2442 H 233.743 2.42393 4.06869 0
M  V30 2443 H 234.167 4.99712 4.56746 0
M  V30 2444 H 238.809 2.27191 3.56573 0
M  V30 2445 H 236.527 6.57927 4.6921 0
M  V30 2446 H 240.113 4.35282 3.86033 0
M  V30 2447 H 238.993 6.47889 4.41825 0
M  V30 2448 N 236.496 -1.42363 0.676048 0
M  V30 2449 C 237.773 -1.95183 0.127726 0
M  V30 2450 C 238.153 -1.61641 -1.35777 0
M  V30 2451 O 237.501 -0.913216 -2.09458 0
M  V30 2452 C 237.711 -3.46721 0.398199 0
M  V30 2453 C 239.059 -4.23427 0.315383 0
M  V30 2454 O 240.083 -3.54649 0.332016 0
M  V30 2455 O 238.942 -5.45888 0.25865 0
M  V30 2456 H 236.036 -0.826992 0.00359427 0
M  V30 2457 H 238.582 -1.52184 0.750864 0
M  V30 2458 H 237.354 -3.64344 1.4272 0
M  V30 2459 H 236.977 -3.96769 -0.256885 0
M  V30 2460 N 237.974 -0.419461 -1.51915 0
M  V30 2461 C 239.202 0.152136 -2.0634 0
M  V30 2462 C 239.617 1.37988 -1.28859 0
M  V30 2463 O 238.974 1.79243 -0.343232 0
M  V30 2464 C 239.025 0.492266 -3.58133 0
M  V30 2465 O 238.746 -0.686736 -4.32684 0
M  V30 2466 C 240.247 1.11648 -4.2901 0
M  V30 2467 H 237.467 0.0158325 -0.670813 0
M  V30 2468 H 240.011 -0.593394 -1.95702 0
M  V30 2469 H 238.166 1.18769 -3.68745 0
M  V30 2470 H 238.58 -0.400341 -5.2297 0
M  V30 2471 H 240.054 1.3046 -5.36362 0
M  V30 2472 H 240.531 2.09251 -3.86148 0
M  V30 2473 H 241.137 0.460958 -4.22795 0
M  V30 2474 N 239.452 1.56882 -0.150215 0
M  V30 2475 C 240.382 2.19935 0.784284 0
M  V30 2476 C 241.363 1.14854 1.25469 0
M  V30 2477 O 242.548 1.43209 1.31168 0
M  V30 2478 C 239.678 2.82349 2.02229 0
M  V30 2479 C 238.632 3.93285 1.68853 0
M  V30 2480 C 237.958 4.42649 2.99944 0
M  V30 2481 C 239.258 5.13904 0.932714 0
M  V30 2482 H 240.952 2.9828 0.258781 0
M  V30 2483 H 238.498 1.43473 0.123029 0
M  V30 2484 H 240.451 3.25126 2.68088 0
M  V30 2485 H 239.175 2.0134 2.57157 0
M  V30 2486 H 237.834 3.5113 1.05371 0
M  V30 2487 H 237.482 3.58458 3.52869 0
M  V30 2488 H 237.182 5.17476 2.78374 0
M  V30 2489 H 238.706 4.88099 3.66868 0
M  V30 2490 H 240.12 5.53506 1.49345 0
M  V30 2491 H 238.517 5.94515 0.81684 0
M  V30 2492 H 239.587 4.84842 -0.0749568 0
M  V30 2493 N 240.93 -0.123565 1.57115 0
M  V30 2494 C 242.207 -0.862196 1.75572 0
M  V30 2495 C 242.587 -1.98279 0.724475 0
M  V30 2496 O 241.935 -2.27102 -0.252407 0
M  V30 2497 C 242.145 -1.38309 3.20424 0
M  V30 2498 C 243.493 -1.83724 3.82793 0
M  V30 2499 O 244.517 -1.47999 3.23998 0
M  V30 2500 O 243.376 -2.49685 4.86127 0
M  V30 2501 H 240.47 -0.409113 0.718718 0
M  V30 2502 H 243.016 -0.107661 1.69358 0
M  V30 2503 H 241.788 -0.578889 3.86994 0
M  V30 2504 H 241.411 -2.20046 3.31158 0
M  V30 2505 N 242.408 -1.52605 -0.393616 0
M  V30 2506 C 243.338 -1.80022 -1.48709 0
M  V30 2507 C 244.319 -0.651995 -1.57108 0
M  V30 2508 O 245.504 -0.89913 -1.72132 0
M  V30 2509 C 242.634 -1.96492 -2.86371 0
M  V30 2510 C 241.588 -3.12161 -2.92813 0
M  V30 2511 C 240.914 -3.13877 -4.3288 0
M  V30 2512 C 242.214 -4.51322 -2.6288 0
M  V30 2513 H 243.908 -2.71589 -1.26015 0
M  V30 2514 H 241.454 -1.30684 -0.604778 0
M  V30 2515 H 243.407 -2.14255 -3.62867 0
M  V30 2516 H 242.131 -1.01611 -3.10391 0
M  V30 2517 H 240.79 -2.94173 -2.18764 0
M  V30 2518 H 240.438 -2.16687 -4.53933 0
M  V30 2519 H 240.138 -3.91576 -4.38112 0
M  V30 2520 H 241.662 -3.33789 -5.1129 0
M  V30 2521 H 243.076 -4.69435 -3.29096 0
M  V30 2522 H 241.473 -5.31053 -2.79468 0
M  V30 2523 H 242.543 -4.58353 -1.58242 0
M  V30 2524 N 243.887 0.651787 -1.4349 0
M  V30 2525 C 245.112 1.44434 -1.48841 0
M  V30 2526 C 245.537 1.8779 -0.107955 0
M  V30 2527 O 244.895 1.57464 0.898602 0
M  V30 2528 C 244.943 2.65458 -2.44059 0
M  V30 2529 O 244.047 3.64566 -1.92784 0
M  V30 2530 H 243.388 0.433005 -0.503391 0
M  V30 2531 H 245.918 0.797451 -1.88419 0
M  V30 2532 H 245.928 3.13255 -2.6141 0
M  V30 2533 H 244.603 2.33244 -3.4434 0
M  V30 2534 H 243.18 3.23716 -1.851 0
M  V30 2535 N 245.365 1.30045 0.890287 0
M  V30 2536 C 246.642 1.09227 1.62262 0
M  V30 2537 C 247.022 -0.360305 2.08002 0
M  V30 2538 O 246.37 -1.35084 1.84295 0
M  V30 2539 C 246.58 2.08835 2.79623 0
M  V30 2540 C 247.928 2.40266 3.50082 0
M  V30 2541 O 248.952 2.07104 2.89804 0
M  V30 2542 O 247.811 2.96967 4.58773 0
M  V30 2543 H 244.905 0.419132 0.712922 0
M  V30 2544 H 247.451 1.41451 0.937529 0
M  V30 2545 H 246.223 3.06633 2.43089 0
M  V30 2546 H 245.846 1.77397 3.55832 0
M  V30 2547 N 246.843 -1.10192 1.12674 0
M  V30 2548 C 247.806 -2.14786 0.799979 0
M  V30 2549 C 248.806 -1.59711 -0.18685 0
M  V30 2550 O 249.996 -1.74156 0.0392558 0
M  V30 2551 C 247.128 -3.40374 0.189228 0
M  V30 2552 H 248.321 -2.45203 1.72671 0
M  V30 2553 H 245.874 -1.25597 0.930326 0
M  V30 2554 H 246.609 -3.15577 -0.747107 0
M  V30 2555 H 246.394 -3.81637 0.899766 0
M  V30 2556 H 247.884 -4.17594 -0.0228143 0
M  V30 2557 N 248.321 -0.919034 -1.28029 0
M  V30 2558 C 249.231 -0.416756 -2.30869 0
M  V30 2559 C 250.247 0.498235 -1.66714 0
M  V30 2560 O 251.423 0.383144 -1.97722 0
M  V30 2561 C 248.488 0.330274 -3.45123 0
M  V30 2562 C 247.549 -0.618578 -4.2482 0
M  V30 2563 C 246.782 0.0928959 -5.33619 0
M  V30 2564 O 247.005 1.31375 -5.55065 0
M  V30 2565 O 245.939 -0.574499 -5.99152 0
M  V30 2566 H 249.765 -1.27043 -2.75851 0
M  V30 2567 H 247.35 -0.684052 -1.3282 0
M  V30 2568 H 249.232 0.751972 -4.14636 0
M  V30 2569 H 247.907 1.1597 -3.02213 0
M  V30 2570 H 246.814 -1.08978 -3.57875 0
M  V30 2571 H 248.147 -1.41497 -4.71423 0
M  V30 2572 N 249.799 1.42003 -0.683588 0
M  V30 2573 C 251.045 2.01712 -0.209825 0
M  V30 2574 C 251.378 1.53968 1.18353 0
M  V30 2575 O 250.653 0.745661 1.79639 0
M  V30 2576 C 250.936 3.59202 -0.254197 0
M  V30 2577 C 250.789 4.17102 -1.68363 0
M  V30 2578 C 252.108 4.38344 0.392709 0
M  V30 2579 H 249.227 0.732891 -0.0777189 0
M  V30 2580 H 251.869 1.68909 -0.87004 0
M  V30 2581 H 250.019 3.87278 0.307954 0
M  V30 2582 H 251.691 3.99946 -2.29871 0
M  V30 2583 H 249.934 3.72597 -2.22157 0
M  V30 2584 H 250.605 5.26249 -1.6663 0
M  V30 2585 H 253.081 4.16011 -0.0859162 0
M  V30 2586 H 251.957 5.47901 0.331063 0
M  V30 2587 H 252.218 4.16887 1.47164 0
M  V30 2588 N 251.277 0.427512 1.51691 0
M  V30 2589 C 252.207 -0.3796 2.30394 0
M  V30 2590 C 253.188 -1.02982 1.35384 0
M  V30 2591 O 254.373 -1.03534 1.643 0
M  V30 2592 C 251.503 -1.48649 3.1388 0
M  V30 2593 C 250.457 -0.960294 4.17088 0
M  V30 2594 C 249.783 -2.16219 4.89033 0
M  V30 2595 C 251.083 -0.00153679 5.223 0
M  V30 2596 H 252.777 0.277164 2.98114 0
M  V30 2597 H 250.323 0.134739 1.43368 0
M  V30 2598 H 252.276 -2.05826 3.67714 0
M  V30 2599 H 251 -2.1714 2.43962 0
M  V30 2600 H 249.659 -0.410806 3.64291 0
M  V30 2601 H 249.307 -2.83307 4.15628 0
M  V30 2602 H 249.007 -1.81654 5.58816 0
M  V30 2603 H 250.531 -2.73968 5.45687 0
M  V30 2604 H 251.945 -0.482687 5.71264 0
M  V30 2605 H 250.342 0.256199 5.99553 0
M  V30 2606 H 251.412 0.938174 4.75738 0
M  V30 2607 N 252.755 -1.56801 0.158532 0
M  V30 2608 C 253.702 -2.17337 -0.776729 0
M  V30 2609 C 254.672 -1.1096 -1.23601 0
M  V30 2610 O 255.857 -1.39054 -1.30647 0
M  V30 2611 C 252.997 -2.80822 -2.00582 0
M  V30 2612 C 252.11 -4.01624 -1.59129 0
M  V30 2613 C 251.245 -4.53072 -2.77306 0
M  V30 2614 C 250.284 -5.66314 -2.32282 0
M  V30 2615 N 249.421 -6.12329 -3.43508 0
M  V30 2616 H 254.261 -2.96918 -0.253701 0
M  V30 2617 H 251.798 -1.46661 -0.113504 0
M  V30 2618 H 253.756 -3.15779 -2.72652 0
M  V30 2619 H 252.386 -2.03866 -2.50277 0
M  V30 2620 H 251.438 -3.72571 -0.767806 0
M  V30 2621 H 252.75 -4.83633 -1.2207 0
M  V30 2622 H 251.904 -4.90145 -3.57551 0
M  V30 2623 H 250.643 -3.70095 -3.17617 0
M  V30 2624 H 249.648 -5.28806 -1.5048 0
M  V30 2625 H 250.873 -6.51085 -1.93043 0
M  V30 2626 H 248.819 -5.32284 -3.83418 0
M  V30 2627 H 248.736 -6.89293 -3.105 0
M  V30 2628 H 250.004 -6.5405 -4.24075 0
M  V30 2629 N 254.233 0.115231 -1.57178 0
M  V30 2630 C 255.143 1.15994 -2.03918 0
M  V30 2631 C 256.159 1.45103 -0.960268 0
M  V30 2632 O 257.335 1.56144 -1.27204 0
M  V30 2633 C 254.4 2.46568 -2.43732 0
M  V30 2634 C 253.461 2.24822 -3.65723 0
M  V30 2635 C 252.694 3.4917 -4.03629 0
M  V30 2636 O 252.917 4.56623 -3.41835 0
M  V30 2637 O 251.851 3.39949 -4.96708 0
M  V30 2638 H 255.677 0.793019 -2.93164 0
M  V30 2639 H 253.262 0.3263 -1.45793 0
M  V30 2640 H 255.144 3.23492 -2.70057 0
M  V30 2641 H 253.819 2.82726 -1.57631 0
M  V30 2642 H 252.726 1.45744 -3.44542 0
M  V30 2643 H 254.059 1.93566 -4.52541 0
M  V30 2644 N 255.711 1.52812 0.385517 0
M  V30 2645 C 256.641 1.80808 1.47752 0
M  V30 2646 C 257.622 0.660318 1.5676 0
M  V30 2647 O 258.807 0.908246 1.71652 0
M  V30 2648 C 255.937 1.98008 2.85324 0
M  V30 2649 C 254.891 3.13709 2.91154 0
M  V30 2650 C 254.217 3.16169 4.31209 0
M  V30 2651 C 255.517 4.52709 2.60483 0
M  V30 2652 H 257.211 2.72253 1.24573 0
M  V30 2653 H 254.757 1.31003 0.597839 0
M  V30 2654 H 256.71 2.16176 3.61726 0
M  V30 2655 H 255.434 1.03255 3.09848 0
M  V30 2656 H 254.093 2.95329 2.17201 0
M  V30 2657 H 253.741 2.19092 4.52778 0
M  V30 2658 H 253.441 3.93894 4.36029 0
M  V30 2659 H 254.965 3.36496 5.09512 0
M  V30 2660 H 256.379 4.71173 3.26602 0
M  V30 2661 H 254.776 5.32528 2.76648 0
M  V30 2662 H 255.846 4.59186 1.55809 0
M  V30 2663 N 257.189 -0.644168 1.43834 0
M  V30 2664 C 258.419 -1.42939 1.49171 0
M  V30 2665 C 258.827 -1.88874 0.111048 0
M  V30 2666 O 258.17 -1.60656 -0.8908 0
M  V30 2667 C 258.232 -2.69151 2.38324 0
M  V30 2668 C 257.896 -2.45097 3.85715 0
M  V30 2669 C 258.893 -2.07747 4.76589 0
M  V30 2670 C 256.578 -2.59141 4.30292 0
M  V30 2671 C 258.572 -1.8475 6.10038 0
M  V30 2672 C 256.259 -2.35759 5.63792 0
M  V30 2673 C 257.257 -1.9862 6.53482 0
M  V30 2674 O 256.945 -1.75489 7.84512 0
M  V30 2675 H 256.677 -0.445271 0.508635 0
M  V30 2676 H 259.231 -0.79621 1.8934 0
M  V30 2677 H 257.461 -3.3506 1.93058 0
M  V30 2678 H 259.15 -3.31123 2.3476 0
M  V30 2679 H 259.916 -1.96465 4.43426 0
M  V30 2680 H 255.795 -2.87022 3.60749 0
M  V30 2681 H 259.339 -1.55686 6.80006 0
M  V30 2682 H 255.236 -2.46646 5.9652 0
M  V30 2683 H 256.004 -1.89841 7.9618 0
M  V30 2684 N 258.668 -1.30515 -0.883378 0
M  V30 2685 C 259.896 -1.22359 -1.66841 0
M  V30 2686 C 260.311 0.213296 -1.87591 0
M  V30 2687 O 259.668 1.14075 -1.42454 0
M  V30 2688 C 259.719 -1.95011 -3.04389 0
M  V30 2689 O 259.44 -3.3309 -2.84575 0
M  V30 2690 C 260.941 -1.93532 -3.98824 0
M  V30 2691 H 258.161 -0.423371 -0.520575 0
M  V30 2692 H 260.705 -1.72167 -1.10357 0
M  V30 2693 H 258.86 -1.48997 -3.57601 0
M  V30 2694 H 259.274 -3.69907 -3.71846 0
M  V30 2695 H 260.748 -2.48902 -4.92699 0
M  V30 2696 H 261.225 -0.914627 -4.29571 0
M  V30 2697 H 261.831 -2.39364 -3.51547 0
M  V30 2698 N 260.146 1.09593 -1.13257 0
M  V30 2699 C 261.076 2.18214 -0.830946 0
M  V30 2700 C 262.057 1.68812 0.208966 0
M  V30 2701 O 263.242 1.9408 0.0682666 0
M  V30 2702 C 260.372 3.46051 -0.294296 0
M  V30 2703 C 259.326 4.08778 -1.26826 0
M  V30 2704 C 258.652 5.31419 -0.591449 0
M  V30 2705 C 259.952 4.51476 -2.62615 0
M  V30 2706 H 261.646 2.43703 -1.73923 0
M  V30 2707 H 259.192 1.17128 -0.837675 0
M  V30 2708 H 261.145 4.2134 -0.0709606 0
M  V30 2709 H 259.869 3.20079 0.649366 0
M  V30 2710 H 258.528 3.35505 -1.47756 0
M  V30 2711 H 258.176 5.01727 0.357633 0
M  V30 2712 H 257.876 5.74341 -1.24123 0
M  V30 2713 H 259.4 6.09433 -0.377355 0
M  V30 2714 H 260.814 5.17999 -2.45663 0
M  V30 2715 H 259.211 5.05277 -3.23752 0
M  V30 2716 H 260.281 3.63962 -3.20406 0
M  V30 2717 N 261.624 0.925811 1.2754 0
M  V30 2718 C 262.554 0.440748 2.29303 0
M  V30 2719 C 263.535 -0.497971 1.62648 0
M  V30 2720 O 264.72 -0.403126 1.8997 0
M  V30 2721 C 261.85 -0.309048 3.45922 0
M  V30 2722 C 260.804 0.54166 4.24559 0
M  V30 2723 C 260.13 -0.337191 5.33636 0
M  V30 2724 C 261.43 1.80516 4.90114 0
M  V30 2725 H 263.124 1.29121 2.70126 0
M  V30 2726 H 260.67 0.622323 1.29858 0
M  V30 2727 H 262.623 -0.659315 4.1621 0
M  V30 2728 H 261.347 -1.19352 3.04011 0
M  V30 2729 H 260.006 0.874609 3.56014 0
M  V30 2730 H 259.654 -1.22056 4.87966 0
M  V30 2731 H 259.354 0.228497 5.87156 0
M  V30 2732 H 260.878 -0.683072 6.06767 0
M  V30 2733 H 262.292 1.52307 5.52698 0
M  V30 2734 H 260.689 2.3142 5.53683 0
M  V30 2735 H 261.759 2.52581 4.13921 0
M  V30 2736 N 263.102 -1.41638 0.69111 0
M  V30 2737 C 264.05 -2.32597 0.0115199 0
M  V30 2738 C 265.044 -1.5072 -0.773296 0
M  V30 2739 O 266.25 -1.66685 -0.67942 0
M  V30 2740 H 262.625 -0.751849 -0.0150746 0
M  V30 2741 H 264.596 -2.87593 0.795791 0
M  V30 2742 C 263.345 -3.35467 -0.914172 0
M  V30 2743 H 262.668 -3.9852 -0.319687 0
M  V30 2744 H 264.108 -4.01662 -1.35808 0
M  V30 2745 C 262.567 -2.69004 -2.02826 0
M  V30 2746 O 263.097 -2.53444 -3.11655 0
M  V30 2747 N 261.303 -2.2777 -1.80469 0
M  V30 2748 H 260.85 -2.40626 -0.919615 0
M  V30 2749 H 260.808 -1.83635 -2.55197 0
M  V30 2750 N 264.58 -0.43555 -1.51462 0
M  V30 2751 C 265.49 0.383001 -2.31453 0
M  V30 2752 C 266.506 1.02931 -1.4029 0
M  V30 2753 O 267.682 1.02507 -1.73362 0
M  V30 2754 C 264.747 1.47043 -3.13973 0
M  V30 2755 C 263.808 0.844433 -4.20913 0
M  V30 2756 C 263.041 1.88004 -4.9949 0
M  V30 2757 O 263.264 3.10199 -4.78678 0
M  V30 2758 O 262.198 1.47157 -5.83634 0
M  V30 2759 H 266.024 -0.269964 -3.02498 0
M  V30 2760 H 263.609 -0.19813 -1.4808 0
M  V30 2761 H 265.491 2.10113 -3.65281 0
M  V30 2762 H 264.166 2.10751 -2.45695 0
M  V30 2763 H 263.073 0.175729 -3.73687 0
M  V30 2764 H 264.406 0.250869 -4.9156 0
M  V30 2765 N 266.058 1.56714 -0.166846 0
M  V30 2766 C 267.006 2.19056 0.782123 0
M  V30 2767 C 268 1.15328 1.24079 0
M  V30 2768 O 269.206 1.33537 1.20697 0
M  V30 2769 H 265.581 0.70167 0.270486 0
M  V30 2770 H 267.552 2.97494 0.232322 0
M  V30 2771 C 266.301 2.84206 2.00306 0
M  V30 2772 H 265.624 3.63748 1.65914 0
M  V30 2773 H 267.064 3.31302 2.64604 0
M  V30 2774 C 265.523 1.83744 2.82382 0
M  V30 2775 O 266.053 1.32014 3.79388 0
M  V30 2776 N 264.259 1.52601 2.47308 0
M  V30 2777 H 263.806 1.9486 1.68485 0
M  V30 2778 H 263.764 0.856351 3.02513 0
M  V30 2779 N 267.536 -0.106894 1.57237 0
M  V30 2780 C 268.766 -0.825191 1.89405 0
M  V30 2781 C 269.174 -1.73374 0.757496 0
M  V30 2782 O 268.517 -1.81552 -0.280115 0
M  V30 2783 C 268.579 -1.70102 3.1671 0
M  V30 2784 C 268.243 -0.965523 4.46684 0
M  V30 2785 C 269.24 -0.300741 5.19029 0
M  V30 2786 C 266.925 -0.943105 4.93367 0
M  V30 2787 C 268.919 0.376622 6.36286 0
M  V30 2788 C 266.606 -0.261949 6.10538 0
M  V30 2789 C 267.604 0.396748 6.81847 0
M  V30 2790 O 267.292 1.06701 7.96787 0
M  V30 2791 H 267.024 -0.241852 0.631255 0
M  V30 2792 H 269.578 -0.0921491 2.05193 0
M  V30 2793 H 267.808 -2.47601 2.97036 0
M  V30 2794 H 269.497 -2.29483 3.34802 0
M  V30 2795 H 270.263 -0.309599 4.84011 0
M  V30 2796 H 266.142 -1.44524 4.3776 0
M  V30 2797 H 269.686 0.891334 6.91882 0
M  V30 2798 H 265.583 -0.250896 6.45012 0
M  V30 2799 H 266.351 0.972707 8.127 0
M  V30 2800 N 269.014 -1.53014 -0.377408 0
M  V30 2801 C 270.26 -1.68872 -1.12294 0
M  V30 2802 C 270.593 -0.433224 -1.89306 0
M  V30 2803 O 269.868 0.569258 -1.85983 0
M  V30 2804 C 270.151 -2.93115 -2.09179 0
M  V30 2805 C 270.004 -4.28794 -1.35853 0
M  V30 2806 C 271.323 -3.12928 -3.09458 0
M  V30 2807 H 268.442 -0.614518 -0.406862 0
M  V30 2808 H 271.084 -1.85633 -0.40503 0
M  V30 2809 H 269.234 -2.78956 -2.70399 0
M  V30 2810 H 270.906 -4.54742 -0.775082 0
M  V30 2811 H 269.149 -4.28744 -0.660364 0
M  V30 2812 H 269.82 -5.11837 -2.06706 0
M  V30 2813 H 272.296 -3.26194 -2.58334 0
M  V30 2814 H 271.172 -4.01316 -3.74482 0
M  V30 2815 H 271.433 -2.27669 -3.78971 0
M  V30 2816 N 270.492 0.636531 -1.44174 0
M  V30 2817 C 271.402 1.77754 -1.53103 0
M  V30 2818 C 272.418 1.68928 -0.417034 0
M  V30 2819 O 273.594 1.89801 -0.6736 0
M  V30 2820 C 270.659 3.14115 -1.46741 0
M  V30 2821 C 269.72 3.34612 -2.68948 0
M  V30 2822 C 268.953 4.64467 -2.6288 0
M  V30 2823 O 269.176 5.44919 -1.68581 0
M  V30 2824 O 268.11 4.87049 -3.53648 0
M  V30 2825 H 271.936 1.73174 -2.49489 0
M  V30 2826 H 269.521 0.79709 -1.2636 0
M  V30 2827 H 271.403 3.95412 -1.45696 0
M  V30 2828 H 270.078 3.19249 -0.534975 0
M  V30 2829 H 268.985 2.53014 -2.75562 0
M  V30 2830 H 270.318 3.34336 -3.61221 0
M  V30 2831 N 271.97 1.30982 0.876444 0
M  V30 2832 C 273.247 1.10942 1.61094 0
M  V30 2833 C 273.627 -0.338223 2.08373 0
M  V30 2834 O 272.975 -1.33122 1.85717 0
M  V30 2835 C 273.185 2.11789 2.77392 0
M  V30 2836 C 274.533 2.43965 3.47514 0
M  V30 2837 O 275.557 2.10166 2.87591 0
M  V30 2838 O 274.416 3.01817 4.55597 0
M  V30 2839 H 271.51 0.42667 0.708436 0
M  V30 2840 H 274.056 1.42438 0.922474 0
M  V30 2841 H 272.828 3.09194 2.39823 0
M  V30 2842 H 272.451 1.81161 3.5393 0
M  V30 2843 N 273.449 -1.08991 1.13837 0
M  V30 2844 C 274.726 -1.77863 0.813876 0
M  V30 2845 C 275.106 -1.99375 -0.693746 0
M  V30 2846 O 274.454 -1.59875 -1.63255 0
M  V30 2847 C 274.664 -3.0986 1.60586 0
M  V30 2848 C 276.012 -3.84493 1.8014 0
M  V30 2849 O 277.036 -3.19624 1.57222 0
M  V30 2850 O 275.895 -5.00957 2.18413 0
M  V30 2851 H 272.989 -0.771589 0.297624 0
M  V30 2852 H 275.535 -1.15507 1.24323 0
M  V30 2853 H 274.307 -2.89715 2.63022 0
M  V30 2854 H 273.93 -3.79942 1.17173 0
M  V30 2855 N 274.927 -0.932562 -1.27047 0
M  V30 2856 C 276.204 -0.49377 -1.89265 0
M  V30 2857 C 276.584 1.02833 -1.8436 0
M  V30 2858 O 275.932 1.88461 -1.29209 0
M  V30 2859 C 276.142 -1.04536 -3.32976 0
M  V30 2860 C 277.49 -1.10879 -4.09867 0
M  V30 2861 O 278.514 -0.995327 -3.42011 0
M  V30 2862 O 277.373 -1.28417 -5.31198 0
M  V30 2863 H 274.467 -0.159596 -0.811454 0
M  V30 2864 H 277.013 -1.02457 -1.3528 0
M  V30 2865 H 275.785 -2.08913 -3.30864 0
M  V30 2866 H 275.408 -0.496494 -3.94488 0
M  V30 2867 N 276.405 1.4127 -0.698611 0
M  V30 2868 C 277.353 2.32588 -0.023855 0
M  V30 2869 C 278.347 1.51128 0.765292 0
M  V30 2870 O 279.553 1.67043 0.670571 0
M  V30 2871 H 275.928 0.751918 0.0110871 0
M  V30 2872 H 277.899 2.87167 -0.811031 0
M  V30 2873 C 276.648 3.35947 0.896369 0
M  V30 2874 H 275.971 3.98684 0.298548 0
M  V30 2875 H 277.411 4.02376 1.33676 0
M  V30 2876 C 275.87 2.70076 2.01396 0
M  V30 2877 O 276.4 2.55093 3.10307 0
M  V30 2878 N 274.606 2.28724 1.79259 0
M  V30 2879 H 274.153 2.4111 0.906841 0
M  V30 2880 H 274.111 1.84986 2.54219 0
M  V30 2881 N 277.883 0.443576 1.51229 0
M  V30 2882 C 278.816 -0.410089 2.24485 0
M  V30 2883 C 279.794 -1.01949 1.26669 0
M  V30 2884 O 280.978 -1.06075 1.55821 0
M  V30 2885 C 278.105 -1.57211 3.00004 0
M  V30 2886 C 277.151 -1.08279 4.12526 0
M  V30 2887 S 277.984 -0.0197476 5.35496 0
M  V30 2888 C 279.14 -1.18629 6.14555 0
M  V30 2889 H 279.373 0.211832 2.96544 0
M  V30 2890 H 276.906 0.228156 1.52705 0
M  V30 2891 H 278.864 -2.23825 3.44111 0
M  V30 2892 H 277.525 -2.16547 2.27522 0
M  V30 2893 H 276.718 -1.95193 4.64667 0
M  V30 2894 H 276.32 -0.494797 3.70713 0
M  V30 2895 H 278.612 -2.10344 6.4402 0
M  V30 2896 H 279.555 -0.70472 7.04584 0
M  V30 2897 H 279.963 -1.42768 5.46148 0
M  V30 2898 N 279.361 -1.56624 0.175154 0
M  V30 2899 C 280.608 -1.96999 -0.468811 0
M  V30 2900 C 280.936 -1.06129 -1.62994 0
M  V30 2901 O 280.191 -0.0961771 -1.95464 0
M  V30 2902 C 280.49 -3.43419 -0.989864 0
M  V30 2903 C 280.156 -4.50866 0.0557687 0
M  V30 2904 C 278.818 -4.79975 0.343134 0
M  V30 2905 C 281.17 -5.15551 0.765308 0
M  V30 2906 C 278.498 -5.71066 1.34536 0
M  V30 2907 C 280.85 -6.07724 1.75654 0
M  V30 2908 C 279.514 -6.35199 2.05132 0
M  V30 2909 H 278.784 -0.720869 -0.17155 0
M  V30 2910 H 281.431 -1.89616 0.267924 0
M  V30 2911 H 279.736 -3.47772 -1.80449 0
M  V30 2912 H 281.433 -3.72002 -1.49719 0
M  V30 2913 H 278.023 -4.28229 -0.178381 0
M  V30 2914 H 282.207 -4.9317 0.556513 0
M  V30 2915 H 277.463 -5.90635 1.57988 0
M  V30 2916 H 281.637 -6.56912 2.31169 0
M  V30 2917 H 279.264 -7.05584 2.8294 0
M  V30 2918 N 280.839 0.0985539 -1.57292 0
M  V30 2919 C 282.255 0.45267 -1.53046 0
M  V30 2920 C 282.455 1.80713 -0.891342 0
M  V30 2921 O 281.511 2.4785 -0.482375 0
M  V30 2922 C 282.824 0.418341 -2.97776 0
M  V30 2923 C 284.372 0.500443 -3.08973 0
M  V30 2924 C 284.847 0.496297 -4.55303 0
M  V30 2925 N 286.338 0.557151 -4.59837 0
M  V30 2926 C 287.073 0.575726 -5.70502 0
M  V30 2927 N 286.569 0.550714 -6.90608 0
M  V30 2928 N 288.362 0.620277 -5.58667 0
M  V30 2929 H 280.513 -0.788673 -1.97215 0
M  V30 2930 H 282.776 -0.293188 -0.901524 0
M  V30 2931 H 282.482 -0.509659 -3.47988 0
M  V30 2932 H 282.356 1.2386 -3.56284 0
M  V30 2933 H 284.743 1.41886 -2.58751 0
M  V30 2934 H 284.824 -0.347894 -2.53423 0
M  V30 2935 H 284.468 -0.418162 -5.06176 0
M  V30 2936 H 284.398 1.3618 -5.08687 0
M  V30 2937 H 286.889 0.581816 -3.73394 0
M  V30 2938 H 287.202 0.568075 -7.70709 0
M  V30 2939 H 285.547 0.517816 -6.93068 0
M  V30 2940 H 288.738 0.637322 -4.63741 0
M  V30 2941 H 288.911 0.631283 -6.44918 0
M  V30 2942 N 282.317 1.53212 0.369288 0
M  V30 2943 C 283.564 1.69215 1.11232 0
M  V30 2944 C 283.892 0.442048 1.8941 0
M  V30 2945 O 283.147 -0.575944 1.87033 0
M  V30 2946 C 283.446 2.89101 2.10132 0
M  V30 2947 C 283.112 4.25758 1.48463 0
M  V30 2948 C 281.774 4.6292 1.31372 0
M  V30 2949 C 284.126 5.10757 1.03811 0
M  V30 2950 C 281.454 5.82722 0.68207 0
M  V30 2951 C 283.806 6.31201 0.420487 0
M  V30 2952 C 282.47 6.67079 0.237038 0
M  V30 2953 H 281.74 0.619201 0.407027 0
M  V30 2954 H 284.387 1.87391 0.394552 0
M  V30 2955 H 282.692 2.65421 2.88199 0
M  V30 2956 H 284.389 2.98676 2.6757 0
M  V30 2957 H 280.979 3.96494 1.62758 0
M  V30 2958 H 285.163 4.82599 1.1581 0
M  V30 2959 H 280.419 6.09113 0.528316 0
M  V30 2960 H 284.593 6.96368 0.0662874 0
M  V30 2961 H 282.22 7.59774 -0.254477 0
M  V30 2962 N 283.795 -0.628877 1.44509 0
M  V30 2963 C 285.072 -1.38733 1.37886 0
M  V30 2964 C 285.452 -2.11065 0.0387008 0
M  V30 2965 O 284.8 -2.06476 -0.97878 0
M  V30 2966 C 285.01 -2.35188 2.57852 0
M  V30 2967 C 286.358 -2.9845 3.02014 0
M  V30 2968 O 287.382 -2.45513 2.58073 0
M  V30 2969 O 286.241 -3.94487 3.78209 0
M  V30 2970 H 283.335 -0.621015 0.54614 0
M  V30 2971 H 285.881 -0.653744 1.56602 0
M  V30 2972 H 284.653 -1.80855 3.46998 0
M  V30 2973 H 284.276 -3.1596 2.4136 0
M  V30 2974 N 285.273 -1.31445 -0.869486 0
M  V30 2975 C 286.503 -1.23942 -1.65294 0
M  V30 2976 C 286.911 0.197561 -1.88166 0
M  V30 2977 O 286.254 1.14019 -1.44033 0
M  V30 2978 C 286.316 -1.91385 -3.04322 0
M  V30 2979 C 285.98 -3.40726 -3.04557 0
M  V30 2980 C 286.977 -4.36464 -2.82481 0
M  V30 2981 C 284.662 -3.82425 -3.25663 0
M  V30 2982 C 286.656 -5.71876 -2.8149 0
M  V30 2983 C 284.343 -5.1795 -3.243 0
M  V30 2984 C 285.341 -6.12486 -3.02241 0
M  V30 2985 O 285.029 -7.45534 -3.00724 0
M  V30 2986 H 284.761 -0.429459 -0.522054 0
M  V30 2987 H 287.315 -1.73873 -1.0935 0
M  V30 2988 H 285.545 -1.36004 -3.61994 0
M  V30 2989 H 287.234 -1.77791 -3.64891 0
M  V30 2990 H 288 -4.05576 -2.65956 0
M  V30 2991 H 283.879 -3.09274 -3.41863 0
M  V30 2992 H 287.423 -6.45638 -2.64191 0
M  V30 2993 H 283.32 -5.48473 -3.40365 0
M  V30 2994 H 284.088 -7.54713 -3.16782 0
M  V30 2995 N 286.751 1.08385 -1.14413 0
M  V30 2996 C 287.976 1.85057 -0.936413 0
M  V30 2997 C 288.401 1.81055 0.509971 0
M  V30 2998 O 287.759 1.1958 1.36273 0
M  V30 2999 C 287.807 3.30505 -1.44217 0
M  V30 3000 O 286.911 4.07491 -0.634409 0
M  V30 3001 H 286.252 0.573425 -0.334784 0
M  V30 3002 H 288.782 1.36799 -1.52142 0
M  V30 3003 H 288.792 3.81348 -1.45043 0
M  V30 3004 H 287.467 3.32734 -2.49522 0
M  V30 3005 H 286.044 3.66368 -0.694902 0
M  V30 3006 N 288.23 0.939286 1.26551 0
M  V30 3007 C 289.641 0.628782 1.75793 0
M  V30 3008 C 289.992 -0.856046 1.7654 0
M  V30 3009 O 289.117 -1.66994 1.3763 0
M  V30 3010 C 289.712 1.13465 3.19235 0
M  V30 3011 C 288.271 0.874601 3.66098 0
M  V30 3012 C 287.418 1.28667 2.45642 0
M  V30 3013 H 290.369 1.1178 1.12654 0
M  V30 3014 H 290.39 0.487609 3.77363 0
M  V30 3015 H 289.902 2.21535 3.1866 0
M  V30 3016 H 288.003 -0.191793 3.72106 0
M  V30 3017 H 288.116 1.50028 4.55004 0
M  V30 3018 H 286.48 0.705109 2.44745 0
M  V30 3019 H 287.263 2.37625 2.47769 0
M  V30 3020 N 289.708 -1.40897 0.706093 0
M  V30 3021 C 290.618 -2.3455 0.0482286 0
M  V30 3022 C 291.634 -1.56796 -0.754396 0
M  V30 3023 O 292.81 -1.89228 -0.689538 0
M  V30 3024 C 289.875 -3.35625 -0.869303 0
M  V30 3025 C 288.936 -4.29261 -0.0576994 0
M  V30 3026 C 288.169 -5.25508 -0.931531 0
M  V30 3027 O 288.392 -5.27472 -2.17092 0
M  V30 3028 O 287.326 -6.00727 -0.375587 0
M  V30 3029 H 291.152 -2.92407 0.820476 0
M  V30 3030 H 288.737 -1.4193 0.4665 0
M  V30 3031 H 290.619 -3.97635 -1.39514 0
M  V30 3032 H 289.294 -2.80196 -1.62086 0
M  V30 3033 H 288.201 -3.70566 0.512988 0
M  V30 3034 H 289.534 -4.87817 0.655426 0
M  V30 3035 N 291.186 -0.45159 -1.50991 0
M  V30 3036 C 292.433 0.110074 -2.02201 0
M  V30 3037 C 292.761 1.4146 -1.33489 0
M  V30 3038 O 292.016 1.90617 -0.443125 0
M  V30 3039 C 292.315 0.361728 -3.55565 0
M  V30 3040 C 291.981 -0.858717 -4.42648 0
M  V30 3041 C 290.643 -1.19338 -4.66167 0
M  V30 3042 C 292.995 -1.67221 -4.93646 0
M  V30 3043 C 290.323 -2.34195 -5.37931 0
M  V30 3044 C 292.675 -2.8119 -5.6667 0
M  V30 3045 C 291.339 -3.15094 -5.88449 0
M  V30 3046 H 290.609 0.040279 -0.739904 0
M  V30 3047 H 293.256 -0.601696 -1.81802 0
M  V30 3048 H 291.561 1.15554 -3.74372 0
M  V30 3049 H 293.258 0.80996 -3.92735 0
M  V30 3050 H 289.848 -0.58796 -4.24548 0
M  V30 3051 H 294.032 -1.42686 -4.75347 0
M  V30 3052 H 289.288 -2.6076 -5.53005 0
M  V30 3053 H 293.462 -3.44585 -6.05173 0
M  V30 3054 H 291.089 -4.04204 -6.43835 0
M  V30 3055 N 292.664 1.56529 -0.183458 0
M  V30 3056 C 293.594 2.21549 0.737456 0
M  V30 3057 C 294.575 1.17489 1.23005 0
M  V30 3058 O 295.76 1.45959 1.281 0
M  V30 3059 C 292.89 2.86575 1.96194 0
M  V30 3060 C 291.844 3.96778 1.60473 0
M  V30 3061 C 291.17 4.48911 2.90487 0
M  V30 3062 C 292.47 5.15767 0.823497 0
M  V30 3063 H 294.164 2.98761 0.195453 0
M  V30 3064 H 291.71 1.43702 0.0925686 0
M  V30 3065 H 293.663 3.30739 2.61131 0
M  V30 3066 H 292.387 2.06749 2.52828 0
M  V30 3067 H 291.046 3.53286 0.978997 0
M  V30 3068 H 290.694 3.65862 3.45186 0
M  V30 3069 H 290.394 5.23265 2.67335 0
M  V30 3070 H 291.918 4.95771 3.56432 0
M  V30 3071 H 293.332 5.56549 1.37571 0
M  V30 3072 H 291.729 5.96114 0.690551 0
M  V30 3073 H 292.799 4.84574 -0.177782 0
M  V30 3074 N 294.142 -0.090211 1.57342 0
M  V30 3075 C 295.072 -1.10976 2.05443 0
M  V30 3076 C 296.053 -1.41482 0.944284 0
M  V30 3077 O 297.238 -1.51428 1.21586 0
M  V30 3078 C 294.368 -2.42831 2.48295 0
M  V30 3079 C 293.322 -2.26721 3.63018 0
M  V30 3080 C 292.648 -3.63796 3.91863 0
M  V30 3081 C 293.948 -1.7037 4.93732 0
M  V30 3082 H 295.642 -0.709564 2.9087 0
M  V30 3083 H 293.188 -0.339874 1.39932 0
M  V30 3084 H 295.141 -3.14431 2.80555 0
M  V30 3085 H 293.865 -2.84795 1.59873 0
M  V30 3086 H 292.524 -1.57565 3.31012 0
M  V30 3087 H 292.172 -4.03297 3.00601 0
M  V30 3088 H 291.872 -3.53861 4.69101 0
M  V30 3089 H 293.396 -4.36855 4.26603 0
M  V30 3090 H 294.81 -2.31816 5.24342 0
M  V30 3091 H 293.207 -1.71181 5.75167 0
M  V30 3092 H 294.277 -0.663542 4.80339 0
M  V30 3093 N 295.62 -1.53406 -0.361157 0
M  V30 3094 C 296.866 -1.70999 -1.1014 0
M  V30 3095 C 297.221 -0.458425 -1.86859 0
M  V30 3096 O 296.514 0.548654 -1.83577 0
M  V30 3097 C 296.708 -2.90211 -2.08596 0
M  V30 3098 C 296.537 -4.26841 -1.41553 0
M  V30 3099 C 295.307 -4.91621 -1.16778 0
M  V30 3100 C 297.505 -5.07212 -0.850915 0
M  V30 3101 N 295.487 -6.12164 -0.461312 0
M  V30 3102 C 296.858 -6.19394 -0.274046 0
M  V30 3103 C 298.913 -4.92218 -0.750036 0
M  V30 3104 C 297.616 -7.18221 0.393868 0
M  V30 3105 C 299.642 -5.91322 -0.095894 0
M  V30 3106 C 299.004 -7.0283 0.470081 0
M  V30 3107 H 295.103 -0.678939 -0.388028 0
M  V30 3108 H 297.687 -1.90811 -0.38722 0
M  V30 3109 H 295.858 -2.71931 -2.77323 0
M  V30 3110 H 297.59 -2.96606 -2.7533 0
M  V30 3111 H 294.345 -4.50849 -1.45024 0
M  V30 3112 H 294.769 -6.76888 -0.123312 0
M  V30 3113 H 299.411 -4.06192 -1.17337 0
M  V30 3114 H 297.129 -8.03835 0.82914 0
M  V30 3115 H 300.715 -5.81797 -0.0187075 0
M  V30 3116 H 299.595 -7.782 0.968241 0
M  V30 3117 N 297.098 0.621204 -1.44841 0
M  V30 3118 C 298.061 1.71459 -1.521 0
M  V30 3119 C 299.061 1.55696 -0.401933 0
M  V30 3120 O 300.251 1.61011 -0.664925 0
M  V30 3121 C 297.383 3.10624 -1.40447 0
M  V30 3122 H 298.576 1.66394 -2.49506 0
M  V30 3123 H 296.129 0.835745 -1.3208 0
M  V30 3124 H 296.864 3.21277 -0.441737 0
M  V30 3125 H 296.649 3.23473 -2.21602 0
M  V30 3126 H 298.139 3.90293 -1.4853 0
M  V30 3127 N 298.576 1.31904 0.862503 0
M  V30 3128 C 299.506 1.22782 1.98612 0
M  V30 3129 C 300.487 0.113362 1.69722 0
M  V30 3130 O 301.672 0.299218 1.91881 0
M  V30 3131 C 298.802 0.942058 3.34279 0
M  V30 3132 C 297.756 2.0169 3.77499 0
M  V30 3133 C 297.082 1.58369 5.10709 0
M  V30 3134 C 298.382 3.43096 3.93805 0
M  V30 3135 H 300.076 2.16788 2.06502 0
M  V30 3136 H 297.622 1.04366 0.992154 0
M  V30 3137 H 299.575 0.864818 4.1243 0
M  V30 3138 H 298.299 -0.0336603 3.26583 0
M  V30 3139 H 296.958 2.08416 3.01593 0
M  V30 3140 H 296.606 0.595628 4.99461 0
M  V30 3141 H 296.306 2.30279 5.40597 0
M  V30 3142 H 297.83 1.52067 5.91361 0
M  V30 3143 H 299.244 3.39003 4.62331 0
M  V30 3144 H 297.641 4.13288 4.35101 0
M  V30 3145 H 298.711 3.83334 2.96957 0
M  V30 3146 N 300.054 -1.07777 1.14986 0
M  V30 3147 C 301.47 -1.32373 0.891596 0
M  V30 3148 C 301.67 -1.9609 -0.463788 0
M  V30 3149 O 300.726 -2.21801 -1.20667 0
M  V30 3150 C 302.039 -2.21905 2.02925 0
M  V30 3151 C 303.587 -2.35367 2.06329 0
M  V30 3152 C 304.062 -3.28245 3.19405 0
M  V30 3153 N 305.553 -3.35824 3.19024 0
M  V30 3154 C 306.288 -4.07739 4.03158 0
M  V30 3155 N 305.784 -4.82306 4.97346 0
M  V30 3156 N 307.577 -4.03635 3.91197 0
M  V30 3157 H 299.728 -0.648039 2.02273 0
M  V30 3158 H 301.991 -0.348149 0.881757 0
M  V30 3159 H 301.697 -1.82342 3.0074 0
M  V30 3160 H 301.571 -3.22407 1.95789 0
M  V30 3161 H 303.958 -2.74186 1.09116 0
M  V30 3162 H 304.039 -1.34585 2.17533 0
M  V30 3163 H 303.683 -2.90146 4.16867 0
M  V30 3164 H 303.613 -4.28971 3.05437 0
M  V30 3165 H 306.104 -2.8267 2.50811 0
M  V30 3166 H 306.417 -5.34661 5.57994 0
M  V30 3167 H 304.762 -4.81337 5.01338 0
M  V30 3168 H 307.953 -3.44491 3.16928 0
M  V30 3169 H 308.126 -4.59417 4.5699 0
M  V30 3170 N 301.532 -0.945985 -1.26051 0
M  V30 3171 C 302.943 -0.638096 -1.75457 0
M  V30 3172 C 303.294 0.846672 -1.76991 0
M  V30 3173 O 302.419 1.66262 -1.38513 0
M  V30 3174 C 303.014 -1.15157 -3.18629 0
M  V30 3175 C 301.573 -0.894004 -3.65629 0
M  V30 3176 C 300.72 -1.29967 -2.44957 0
M  V30 3177 H 303.671 -1.12376 -1.1206 0
M  V30 3178 H 303.692 -0.507615 -3.77099 0
M  V30 3179 H 303.204 -2.23222 -3.1748 0
M  V30 3180 H 301.305 0.172057 -3.72203 0
M  V30 3181 H 301.418 -1.52439 -4.54202 0
M  V30 3182 H 299.782 -0.718078 -2.44368 0
M  V30 3183 H 300.565 -2.38935 -2.46505 0
M  V30 3184 N 303.011 1.40521 -0.713556 0
M  V30 3185 C 304.422 1.83853 -0.324807 0
M  V30 3186 C 304.773 1.59667 1.14021 0
M  V30 3187 O 303.898 1.07649 1.87725 0
M  V30 3188 C 304.493 3.33751 -0.582746 0
M  V30 3189 C 303.052 3.75584 -0.247727 0
M  V30 3190 C 302.199 2.63753 -0.856121 0
M  V30 3191 H 305.15 1.29817 -0.91286 0
M  V30 3192 H 305.171 3.80194 0.152682 0
M  V30 3193 H 304.683 3.51322 -1.64908 0
M  V30 3194 H 302.784 3.63608 0.813624 0
M  V30 3195 H 302.897 4.7373 -0.715307 0
M  V30 3196 H 301.261 2.53108 -0.28432 0
M  V30 3197 H 302.044 2.84137 -1.92668 0
M  V30 3198 N 304.489 0.459591 1.5075 0
M  V30 3199 C 305.737 -0.0991532 2.01857 0
M  V30 3200 C 306.058 -1.41247 1.34441 0
M  V30 3201 O 305.328 -1.89775 0.486022 0
M  V30 3202 H 303.908 -0.039633 0.745948 0
M  V30 3203 H 306.57 0.607387 1.85194 0
M  V30 3204 H 305.666 -0.258998 3.11023 0
M  V30 3205 N 305.967 -1.56429 0.191757 0
M  V30 3206 C 307.213 -1.98541 -0.441943 0
M  V30 3207 C 307.568 -1.07646 -1.59468 0
M  V30 3208 O 306.861 -0.120191 -1.91223 0
M  V30 3209 C 307.055 -3.44449 -0.953384 0
M  V30 3210 C 306.884 -4.49456 0.148262 0
M  V30 3211 C 305.654 -5.01668 0.604781 0
M  V30 3212 C 307.852 -5.05336 0.95602 0
M  V30 3213 N 305.834 -5.90334 1.6846 0
M  V30 3214 C 307.205 -5.9064 1.88531 0
M  V30 3215 C 309.26 -4.87779 0.998811 0
M  V30 3216 C 307.963 -6.60264 2.85383 0
M  V30 3217 C 309.989 -5.58139 1.95537 0
M  V30 3218 C 309.351 -6.43187 2.8721 0
M  V30 3219 H 305.45 -0.771247 -0.129236 0
M  V30 3220 H 308.034 -1.92426 0.296682 0
M  V30 3221 H 306.205 -3.5107 -1.66146 0
M  V30 3222 H 307.937 -3.73533 -1.55741 0
M  V30 3223 H 304.692 -4.73183 0.198736 0
M  V30 3224 H 305.116 -6.39371 2.22561 0
M  V30 3225 H 309.758 -4.21705 0.304048 0
M  V30 3226 H 307.476 -7.25538 3.55837 0
M  V30 3227 H 311.062 -5.46532 1.99484 0
M  V30 3228 H 309.942 -6.96674 3.60022 0
M  V30 3229 N 307.445 0.0818655 -1.57387 0
M  V30 3230 C 308.375 1.09885 -2.06028 0
M  V30 3231 C 309.356 1.4098 -0.951774 0
M  V30 3232 O 310.541 1.50781 -1.22387 0
M  V30 3233 C 307.671 2.4151 -2.4958 0
M  V30 3234 C 306.625 2.24792 -3.64215 0
M  V30 3235 C 305.951 3.61712 -3.93787 0
M  V30 3236 C 307.251 1.67749 -4.94629 0
M  V30 3237 H 308.945 0.694128 -2.91243 0
M  V30 3238 H 306.491 0.332448 -1.4011 0
M  V30 3239 H 308.444 3.12939 -2.82219 0
M  V30 3240 H 307.168 2.83943 -1.61381 0
M  V30 3241 H 305.827 1.55807 -3.31843 0
M  V30 3242 H 305.475 4.01697 -3.02735 0
M  V30 3243 H 305.175 3.51368 -4.70971 0
M  V30 3244 H 306.699 4.34587 -4.28913 0
M  V30 3245 H 308.113 2.29032 -5.25564 0
M  V30 3246 H 306.51 1.68128 -5.76067 0
M  V30 3247 H 307.58 0.638059 -4.80684 0
M  V30 3248 N 308.923 1.53595 0.353017 0
M  V30 3249 C 309.853 1.83902 1.43883 0
M  V30 3250 C 310.834 0.693421 1.55324 0
M  V30 3251 O 312.019 0.944452 1.69687 0
M  V30 3252 C 309.149 2.04016 2.8106 0
M  V30 3253 C 308.103 3.19814 2.84434 0
M  V30 3254 C 307.429 3.25244 4.24406 0
M  V30 3255 C 308.729 4.58133 2.50822 0
M  V30 3256 H 310.423 2.74835 1.1877 0
M  V30 3257 H 307.969 1.32242 0.569917 0
M  V30 3258 H 309.922 2.238 3.57059 0
M  V30 3259 H 308.646 1.09804 3.07588 0
M  V30 3260 H 307.305 2.9987 2.10887 0
M  V30 3261 H 306.953 2.28646 4.48029 0
M  V30 3262 H 306.653 4.03054 4.27576 0
M  V30 3263 H 308.177 3.47228 5.0226 0
M  V30 3264 H 309.591 4.77995 3.16534 0
M  V30 3265 H 307.988 5.38276 2.6529 0
M  V30 3266 H 309.058 4.62387 1.46034 0
M  V30 3267 N 310.401 -0.613514 1.45168 0
M  V30 3268 C 311.333 -1.73825 1.4939 0
M  V30 3269 C 312.346 -1.58175 0.385304 0
M  V30 3270 O 313.535 -1.66165 0.652036 0
M  V30 3271 C 310.635 -3.11758 1.32891 0
M  V30 3272 C 309.808 -3.53704 2.57317 0
M  V30 3273 C 308.867 -4.70579 2.35462 0
M  V30 3274 O 307.893 -4.77996 3.09044 0
M  V30 3275 N 309.095 -5.63454 1.39644 0
M  V30 3276 H 311.86 -1.70669 2.46358 0
M  V30 3277 H 309.421 -0.79862 1.40832 0
M  V30 3278 H 311.413 -3.87692 1.1609 0
M  V30 3279 H 309.983 -3.09456 0.442218 0
M  V30 3280 H 309.203 -2.67794 2.89275 0
M  V30 3281 H 310.491 -3.78486 3.40038 0
M  V30 3282 H 309.889 -5.6017 0.789062 0
M  V30 3283 H 308.446 -6.38944 1.28816 0
M  V30 3284 N 311.879 -1.3236 -0.855495 0
M  V30 3285 C 313.125 -1.24064 -1.61182 0
M  V30 3286 C 313.48 0.195914 -1.914 0
M  V30 3287 O 312.773 1.13345 -1.54478 0
M  V30 3288 C 312.967 -2.03275 -2.93963 0
M  V30 3289 C 312.796 -3.54486 -2.76712 0
M  V30 3290 C 311.566 -4.23824 -2.75139 0
M  V30 3291 C 313.764 -4.49154 -2.50531 0
M  V30 3292 N 311.746 -5.61095 -2.4909 0
M  V30 3293 C 313.117 -5.74195 -2.3388 0
M  V30 3294 C 315.172 -4.3842 -2.35992 0
M  V30 3295 C 313.875 -6.89716 -2.04168 0
M  V30 3296 C 315.901 -5.53739 -2.0767 0
M  V30 3297 C 315.263 -6.77779 -1.9182 0
M  V30 3298 H 311.362 -0.509139 -0.59355 0
M  V30 3299 H 313.946 -1.66715 -1.00569 0
M  V30 3300 H 312.117 -1.6297 -3.52555 0
M  V30 3301 H 313.849 -1.86881 -3.58967 0
M  V30 3302 H 310.604 -3.75934 -2.88047 0
M  V30 3303 H 311.028 -6.33411 -2.38996 0
M  V30 3304 H 315.67 -3.43172 -2.46967 0
M  V30 3305 H 313.388 -7.84977 -1.9193 0
M  V30 3306 H 316.974 -5.4736 -1.97201 0
M  V30 3307 H 315.854 -7.65504 -1.70217 0
M  V30 3308 N 313.357 1.07166 -1.15556 0
M  V30 3309 C 314.307 2.12649 -0.82247 0
M  V30 3310 C 315.291 1.59725 0.194129 0
M  V30 3311 O 316.483 1.76999 -0.00540402 0
M  V30 3312 C 313.612 3.41847 -0.315572 0
M  V30 3313 C 312.698 4.0162 -1.36244 0
M  V30 3314 N 313.089 4.35625 -2.5703 0
M  V30 3315 C 311.387 4.29114 -1.21562 0
M  V30 3316 C 312.088 4.83017 -3.24144 0
M  V30 3317 N 311.064 4.81906 -2.51531 0
M  V30 3318 H 314.866 2.36776 -1.74111 0
M  V30 3319 H 312.38 1.24622 -1.0413 0
M  V30 3320 H 314.377 4.16859 -0.0585855 0
M  V30 3321 H 313.037 3.19163 0.597105 0
M  V30 3322 H 314.048 4.26253 -2.94158 0
M  V30 3323 H 310.725 4.15919 -0.362988 0
M  V30 3324 H 312.115 5.18605 -4.27198 0
M  V30 3325 N 314.835 0.952656 1.25548 0
M  V30 3326 C 316.075 0.614013 1.9496 0
M  V30 3327 C 316.439 -0.833215 1.72978 0
M  V30 3328 O 317.64 -1.28135 2.36294 0
M  V30 3329 C 315.911 0.960562 3.4425 0
M  V30 3330 S 317.47 0.734195 4.32614 0
M  V30 3331 H 314.288 0.225754 0.674208 0
M  V30 3332 H 316.89 1.22641 1.52248 0
M  V30 3333 H 315.594 2.01103 3.57751 0
M  V30 3334 H 315.125 0.338336 3.91942 0
M  V30 3335 H 317.14 -0.395995 4.94617 0
M  V30 3336 N 316.313 -1.40141 0.720998 0
M  V30 3337 C 317.561 -2.0039 0.262323 0
M  V30 3338 C 317.882 -1.57469 -1.15015 0
M  V30 3339 O 317.152 -0.816582 -1.78069 0
M  V30 3340 H 315.732 -0.741063 0.093996 0
M  V30 3341 H 318.394 -1.71398 0.927835 0
M  V30 3342 H 317.49 -3.10658 0.299671 0
M  V30 3343 N 317.792 -0.46758 -1.50504 0
M  V30 3344 C 319.038 0.0887532 -2.02606 0
M  V30 3345 C 319.371 1.39686 -1.34913 0
M  V30 3346 O 318.646 1.88644 -0.473694 0
M  V30 3347 C 318.929 0.276206 -3.59039 0
M  V30 3348 C 318.782 -1.05267 -4.37309 0
M  V30 3349 C 320.101 1.03235 -4.27821 0
M  V30 3350 H 317.22 0.0307814 -0.736357 0
M  V30 3351 H 319.862 -0.612485 -1.79857 0
M  V30 3352 H 318.012 0.8735 -3.78553 0
M  V30 3353 H 319.684 -1.68628 -4.29374 0
M  V30 3354 H 317.927 -1.65015 -4.01189 0
M  V30 3355 H 318.598 -0.875197 -5.45018 0
M  V30 3356 H 321.074 0.526111 -4.12761 0
M  V30 3357 H 319.95 1.1323 -5.37094 0
M  V30 3358 H 320.211 2.06806 -3.90748 0
M  V30 3359 N 319.27 1.56325 -0.20005 0
M  V30 3360 C 320.686 1.58839 0.155716 0
M  V30 3361 C 320.886 1.21636 1.60645 0
M  V30 3362 O 319.942 0.941437 2.34293 0
M  V30 3363 C 321.255 3.0032 -0.151124 0
M  V30 3364 C 322.803 3.12866 -0.0916284 0
M  V30 3365 C 323.278 4.56488 -0.371845 0
M  V30 3366 N 324.769 4.62089 -0.320641 0
M  V30 3367 C 325.504 5.71116 -0.511243 0
M  V30 3368 N 325 6.88592 -0.762461 0
M  V30 3369 N 326.793 5.60335 -0.445157 0
M  V30 3370 H 318.944 1.78788 -1.14668 0
M  V30 3371 H 321.207 0.829996 -0.458051 0
M  V30 3372 H 320.913 3.32117 -1.15721 0
M  V30 3373 H 320.787 3.73257 0.543986 0
M  V30 3374 H 323.174 2.80878 0.905065 0
M  V30 3375 H 323.255 2.42304 -0.81989 0
M  V30 3376 H 322.899 4.89189 -1.36588 0
M  V30 3377 H 322.829 5.25246 0.377362 0
M  V30 3378 H 325.32 3.77665 -0.13329 0
M  V30 3379 H 325.633 7.67581 -0.896576 0
M  V30 3380 H 323.978 6.90387 -0.799412 0
M  V30 3381 H 327.169 4.67436 -0.249278 0
M  V30 3382 H 327.342 6.45243 -0.597116 0
M  V30 3383 N 320.748 -0.0735177 1.57428 0
M  V30 3384 C 321.994 -0.774145 1.87443 0
M  V30 3385 C 322.327 -1.77311 0.792103 0
M  V30 3386 O 321.602 -1.93492 -0.197793 0
M  V30 3387 C 321.885 -1.48367 3.28115 0
M  V30 3388 C 321.738 -0.501227 4.46999 0
M  V30 3389 C 323.057 -2.429 3.66998 0
M  V30 3390 H 320.176 -0.279971 0.681752 0
M  V30 3391 H 322.818 -0.0373616 1.89963 0
M  V30 3392 H 320.968 -2.11171 3.26097 0
M  V30 3393 H 322.64 0.121468 4.6114 0
M  V30 3394 H 320.883 0.183593 4.33411 0
M  V30 3395 H 321.554 -1.03526 5.42205 0
M  V30 3396 H 324.03 -1.90175 3.70098 0
M  V30 3397 H 322.906 -2.89549 4.66318 0
M  V30 3398 H 323.167 -3.27628 2.96837 0
M  V30 3399 N 322.226 -1.5378 -0.344866 0
M  V30 3400 C 323.451 -1.75211 -1.10977 0
M  V30 3401 C 323.876 -0.48936 -1.81623 0
M  V30 3402 O 323.234 0.557925 -1.72502 0
M  V30 3403 C 323.282 -2.93147 -2.09993 0
M  V30 3404 O 322.386 -2.63203 -3.17487 0
M  V30 3405 H 321.727 -0.581241 -0.321021 0
M  V30 3406 H 324.257 -2.00738 -0.395661 0
M  V30 3407 H 324.267 -3.19898 -2.53237 0
M  V30 3408 H 322.942 -3.84731 -1.5797 0
M  V30 3409 H 321.519 -2.47336 -2.79069 0
M  V30 3410 N 323.704 0.605807 -1.45491 0
M  V30 3411 C 324.929 1.39625 -1.53361 0
M  V30 3412 C 325.354 1.87351 -0.167645 0
M  V30 3413 O 324.712 1.60243 0.848051 0
M  V30 3414 C 324.76 2.57559 -2.5238 0
M  V30 3415 O 323.864 3.58248 -2.04285 0
M  V30 3416 H 323.205 0.416771 -0.516912 0
M  V30 3417 H 325.735 0.737103 -1.90861 0
M  V30 3418 H 325.745 3.0478 -2.71244 0
M  V30 3419 H 324.42 2.22171 -3.51586 0
M  V30 3420 H 322.997 3.17664 -1.95305 0
M  V30 3421 N 325.182 1.32811 0.848464 0
M  V30 3422 C 326.13 1.22231 1.97895 0
M  V30 3423 C 327.124 0.125749 1.68933 0
M  V30 3424 O 328.33 0.289083 1.77663 0
M  V30 3425 H 324.705 0.379058 0.649476 0
M  V30 3426 H 326.676 2.17828 2.03945 0
M  V30 3427 C 325.425 0.968572 3.33937 0
M  V30 3428 H 324.748 1.80458 3.56756 0
M  V30 3429 H 326.188 0.934808 4.13567 0
M  V30 3430 C 324.647 -0.328628 3.35293 0
M  V30 3431 O 325.177 -1.33848 3.78745 0
M  V30 3432 N 323.383 -0.352788 2.88451 0
M  V30 3433 H 322.93 0.469541 2.53285 0
M  V30 3434 H 322.888 -1.22057 2.89741 0
M  V30 3435 N 326.66 -1.06551 1.16123 0
M  V30 3436 C 327.607 -2.13961 0.865414 0
M  V30 3437 C 328.577 -1.65066 -0.185055 0
M  V30 3438 O 329.762 -1.90732 -0.05083 0
M  V30 3439 C 326.902 -3.43113 0.369776 0
M  V30 3440 C 326.015 -4.05756 1.48276 0
M  V30 3441 C 325.15 -5.22773 0.942414 0
M  V30 3442 C 324.189 -5.77395 2.03179 0
M  V30 3443 N 323.326 -6.85731 1.50721 0
M  V30 3444 H 328.166 -2.38605 1.78527 0
M  V30 3445 H 325.703 -1.17072 0.890646 0
M  V30 3446 H 327.661 -4.17151 0.0640643 0
M  V30 3447 H 326.291 -3.18695 -0.513143 0
M  V30 3448 H 325.343 -3.29292 1.9045 0
M  V30 3449 H 326.655 -4.42351 2.30493 0
M  V30 3450 H 325.809 -6.03827 0.589729 0
M  V30 3451 H 324.548 -4.87618 0.0895191 0
M  V30 3452 H 323.553 -4.94981 2.3932 0
M  V30 3453 H 324.778 -6.14603 2.8886 0
M  V30 3454 H 322.724 -6.52499 0.676811 0
M  V30 3455 H 322.641 -7.21254 2.26557 0
M  V30 3456 H 323.909 -7.7047 1.18303 0
M  V30 3457 N 328.138 -0.959301 -1.25041 0
M  V30 3458 C 329.085 -0.482057 -2.2571 0
M  V30 3459 C 330.055 0.467939 -1.59372 0
M  V30 3460 O 331.24 0.380159 -1.86974 0
M  V30 3461 C 328.38 0.229623 -3.44335 0
M  V30 3462 C 327.493 -0.758156 -4.25295 0
M  V30 3463 C 326.628 -0.0234403 -5.31195 0
M  V30 3464 C 325.667 -1.00184 -6.03846 0
M  V30 3465 N 324.804 -0.29769 -7.01469 0
M  V30 3466 H 329.644 -1.34538 -2.65901 0
M  V30 3467 H 327.181 -0.674592 -1.3072 0
M  V30 3468 H 329.139 0.658856 -4.11965 0
M  V30 3469 H 327.769 1.05696 -3.05005 0
M  V30 3470 H 326.821 -1.30586 -3.57284 0
M  V30 3471 H 328.133 -1.50458 -4.75567 0
M  V30 3472 H 327.287 0.464201 -6.04922 0
M  V30 3473 H 326.026 0.755741 -4.81809 0
M  V30 3474 H 325.031 -1.50044 -5.2893 0
M  V30 3475 H 326.256 -1.78133 -6.55321 0
M  V30 3476 H 324.202 0.462668 -6.54366 0
M  V30 3477 H 324.119 -0.983128 -7.4958 0
M  V30 3478 H 325.387 0.16826 -7.79318 0
M  V30 3479 N 329.616 1.39756 -0.72842 0
M  V30 3480 C 330.546 2.33289 -0.0991354 0
M  V30 3481 C 331.527 1.53568 0.731489 0
M  V30 3482 O 332.712 1.81987 0.677807 0
M  V30 3483 C 329.842 3.3763 0.813834 0
M  V30 3484 C 328.796 4.2791 0.0878663 0
M  V30 3485 C 328.122 5.22894 1.11741 0
M  V30 3486 C 329.422 5.11314 -1.06563 0
M  V30 3487 H 331.116 2.86163 -0.880408 0
M  V30 3488 H 328.662 1.37591 -0.424819 0
M  V30 3489 H 330.615 4.0201 1.26355 0
M  V30 3490 H 329.339 2.83181 1.62715 0
M  V30 3491 H 327.998 3.65 -0.342159 0
M  V30 3492 H 327.646 4.64744 1.92412 0
M  V30 3493 H 327.346 5.84143 0.636477 0
M  V30 3494 H 328.87 5.90151 1.56697 0
M  V30 3495 H 330.284 5.69076 -0.694671 0
M  V30 3496 H 328.681 5.81671 -1.47577 0
M  V30 3497 H 329.751 4.46534 -1.89038 0
M  V30 3498 N 331.094 0.475555 1.50254 0
M  V30 3499 C 332.34 -0.0780073 2.0265 0
M  V30 3500 C 332.673 -1.38968 1.35652 0
M  V30 3501 O 331.948 -1.8839 0.483691 0
M  V30 3502 C 332.231 -0.257161 3.59181 0
M  V30 3503 C 332.084 1.07585 4.36744 0
M  V30 3504 C 333.403 -1.00965 4.28362 0
M  V30 3505 H 330.522 -0.0268758 0.73651 0
M  V30 3506 H 333.164 0.622015 1.7953 0
M  V30 3507 H 331.314 -0.853412 3.79011 0
M  V30 3508 H 332.986 1.70902 4.28474 0
M  V30 3509 H 331.229 1.6714 4.00308 0
M  V30 3510 H 331.9 0.904088 5.44546 0
M  V30 3511 H 334.376 -0.504214 4.13034 0
M  V30 3512 H 333.252 -1.10381 5.37687 0
M  V30 3513 H 333.513 -2.04731 3.91839 0
M  V30 3514 N 332.573 -1.56217 0.208337 0
M  V30 3515 C 333.821 -1.97558 -0.426076 0
M  V30 3516 C 334.142 -1.09683 -1.61229 0
M  V30 3517 O 333.412 -0.170956 -1.95153 0
M  V30 3518 H 331.992 -0.729575 -0.160405 0
M  V30 3519 H 334.654 -1.92606 0.298155 0
M  V30 3520 H 333.75 -3.02672 -0.761312 0
M  V30 3521 N 334.051 0.0651679 -1.57465 0
M  V30 3522 C 335.298 0.763063 -1.87573 0
M  V30 3523 C 335.626 1.77242 -0.800961 0
M  V30 3524 O 334.881 1.94651 0.202316 0
M  V30 3525 C 335.18 1.50081 -3.24362 0
M  V30 3526 C 334.846 0.630816 -4.46466 0
M  V30 3527 C 333.508 0.391082 -4.79608 0
M  V30 3528 C 335.86 0.0279465 -5.21193 0
M  V30 3529 C 333.188 -0.460894 -5.84887 0
M  V30 3530 C 335.54 -0.811522 -6.27373 0
M  V30 3531 C 334.204 -1.06106 -6.59013 0
M  V30 3532 H 333.474 0.279224 -0.686378 0
M  V30 3533 H 336.121 0.0236726 -1.91485 0
M  V30 3534 H 334.426 2.31258 -3.16271 0
M  V30 3535 H 336.123 2.04571 -3.44894 0
M  V30 3536 H 332.713 0.8278 -4.2053 0
M  V30 3537 H 336.897 0.200262 -4.95896 0
M  V30 3538 H 332.153 -0.662907 -6.07796 0
M  V30 3539 H 336.327 -1.28537 -6.84435 0
M  V30 3540 H 333.954 -1.723 -7.40417 0
M  V30 3541 N 335.529 1.53961 0.336706 0
M  V30 3542 C 336.778 1.70751 1.07363 0
M  V30 3543 C 337.091 0.481061 1.89592 0
M  V30 3544 O 338.297 0.530046 2.66276 0
M  V30 3545 C 336.753 3.01965 1.95818 0
M  V30 3546 C 336.361 4.31971 1.18764 0
M  V30 3547 C 338.105 3.28121 2.69327 0
M  V30 3548 C 336.012 5.54255 2.06289 0
M  V30 3549 H 334.942 0.636292 0.404535 0
M  V30 3550 H 337.593 1.80459 0.332681 0
M  V30 3551 H 335.975 2.86132 2.7376 0
M  V30 3552 H 337.149 4.5853 0.456849 0
M  V30 3553 H 335.464 4.12481 0.569946 0
M  V30 3554 H 338.061 4.16673 3.35094 0
M  V30 3555 H 338.404 2.45426 3.36261 0
M  V30 3556 H 338.937 3.44762 1.98454 0
M  V30 3557 H 335.676 6.39513 1.43885 0
M  V30 3558 H 335.196 5.31935 2.77138 0
M  V30 3559 H 336.875 5.90159 2.65182 0
M  V30 3560 N 337.007 -0.598083 1.45811 0
M  V30 3561 C 338.232 -1.3881 1.54099 0
M  V30 3562 C 338.657 -1.8726 0.177578 0
M  V30 3563 O 338.015 -1.6069 -0.839541 0
M  V30 3564 C 338.063 -2.56217 2.53743 0
M  V30 3565 O 337.167 -3.5716 2.06182 0
M  V30 3566 H 336.508 -0.414024 0.519115 0
M  V30 3567 H 339.038 -0.726971 1.91249 0
M  V30 3568 H 339.048 -3.03337 2.72856 0
M  V30 3569 H 337.723 -2.20303 3.5276 0
M  V30 3570 H 336.3 -3.16624 1.96987 0
M  V30 3571 N 338.485 -1.33259 -0.841409 0
M  V30 3572 C 339.448 -1.23221 -1.9326 0
M  V30 3573 C 340.448 -0.151895 -1.60081 0
M  V30 3574 O 341.638 -0.403246 -1.69468 0
M  V30 3575 C 338.77 -0.898123 -3.28856 0
M  V30 3576 H 339.963 -2.2021 -2.03587 0
M  V30 3577 H 337.516 -1.17281 -1.03319 0
M  V30 3578 H 338.251 0.0693841 -3.24226 0
M  V30 3579 H 338.036 -1.67934 -3.54317 0
M  V30 3580 H 339.526 -0.852563 -4.08805 0
M  V30 3581 N 339.963 1.05934 -1.16686 0
M  V30 3582 C 341.212 1.78188 -0.945085 0
M  V30 3583 C 341.525 1.88338 0.528021 0
M  V30 3584 O 342.731 2.57258 0.867799 0
M  V30 3585 C 341.187 3.20277 -1.64167 0
M  V30 3586 C 340.795 3.18281 -3.15279 0
M  V30 3587 C 342.539 3.97039 -1.502 0
M  V30 3588 C 340.446 4.55112 -3.7766 0
M  V30 3589 H 339.376 0.667866 -0.349959 0
M  V30 3590 H 342.027 1.18794 -1.39858 0
M  V30 3591 H 340.409 3.79952 -1.11589 0
M  V30 3592 H 341.583 2.68167 -3.74731 0
M  V30 3593 H 339.898 2.55018 -3.29173 0
M  V30 3594 H 342.495 4.98194 -1.94183 0
M  V30 3595 H 342.838 4.13845 -0.451461 0
M  V30 3596 H 343.371 3.43894 -1.99954 0
M  V30 3597 H 340.11 4.43512 -4.82677 0
M  V30 3598 H 339.63 5.05406 -3.22994 0
M  V30 3599 H 341.309 5.24064 -3.79428 0
M  V30 3600 N 341.441 0.965919 1.2453 0
M  V30 3601 C 342.852 0.665929 1.7442 0
M  V30 3602 C 343.203 -0.818407 1.78316 0
M  V30 3603 O 342.328 -1.64037 1.41141 0
M  V30 3604 C 342.923 1.20211 3.16757 0
M  V30 3605 C 341.482 0.952059 3.6416 0
M  V30 3606 C 340.629 1.33848 2.42858 0
M  V30 3607 H 343.58 1.14144 1.10258 0
M  V30 3608 H 343.601 0.567544 3.76244 0
M  V30 3609 H 343.113 2.28244 3.13889 0
M  V30 3610 H 341.214 -0.112821 3.72429 0
M  V30 3611 H 341.327 1.59645 4.51719 0
M  V30 3612 H 339.691 0.756864 2.43195 0
M  V30 3613 H 340.474 2.42827 2.42673 0
M  V30 3614 N 342.919 -1.39368 0.735821 0
M  V30 3615 C 343.882 -2.2896 0.104874 0
M  V30 3616 C 344.882 -1.46347 -0.666274 0
M  V30 3617 O 346.072 -1.67014 -0.49517 0
M  V30 3618 C 343.204 -3.29857 -0.860656 0
M  V30 3619 H 344.397 -2.86259 0.894205 0
M  V30 3620 H 341.95 -1.48029 0.501704 0
M  V30 3621 H 342.685 -2.77615 -1.67631 0
M  V30 3622 H 342.47 -3.9087 -0.310327 0
M  V30 3623 H 343.96 -3.96893 -1.29867 0
M  V30 3624 N 344.397 -0.483516 -1.5 0
M  V30 3625 C 345.345 0.318061 -2.30415 0
M  V30 3626 C 346.339 0.978988 -1.38247 0
M  V30 3627 O 347.545 0.908673 -1.55381 0
M  V30 3628 H 343.92 0.121419 -0.742133 0
M  V30 3629 H 345.891 -0.380403 -2.95965 0
M  V30 3630 C 344.64 1.38013 -3.19136 0
M  V30 3631 H 343.963 0.880952 -3.89973 0
M  V30 3632 H 345.403 1.91332 -3.78375 0
M  V30 3633 C 343.862 2.38884 -2.37563 0
M  V30 3634 O 344.392 3.44412 -2.06744 0
M  V30 3635 N 342.598 2.10912 -1.99911 0
M  V30 3636 H 342.145 1.25118 -2.25174 0
M  V30 3637 H 342.103 2.78635 -1.45636 0
M  V30 3638 N 345.875 1.56104 -0.216619 0
M  V30 3639 C 347.124 1.97348 0.416744 0
M  V30 3640 C 347.437 1.10715 1.6125 0
M  V30 3641 O 348.643 1.41836 2.31506 0
M  V30 3642 C 347.099 3.51059 0.792835 0
M  V30 3643 C 346.707 4.46387 -0.379828 0
M  V30 3644 C 348.451 4.01026 1.39208 0
M  V30 3645 C 346.358 5.91397 0.0184223 0
M  V30 3646 H 345.288 0.736942 0.159475 0
M  V30 3647 H 347.939 1.80827 -0.31205 0
M  V30 3648 H 346.321 3.63162 1.57891 0
M  V30 3649 H 347.495 4.46029 -1.15737 0
M  V30 3650 H 345.81 4.06734 -0.891979 0
M  V30 3651 H 348.407 5.0686 1.70286 0
M  V30 3652 H 348.75 3.46587 2.30614 0
M  V30 3653 H 349.283 3.92125 0.669537 0
M  V30 3654 H 346.022 6.49807 -0.862002 0
M  V30 3655 H 345.542 5.94961 0.760384 0
M  V30 3656 H 347.221 6.45455 0.446818 0
M  V30 3657 N 347.353 -0.0568162 1.57498 0
M  V30 3658 C 348.769 -0.411933 1.54192 0
M  V30 3659 C 348.969 -1.78287 0.938942 0
M  V30 3660 O 348.025 -2.46483 0.547919 0
M  V30 3661 C 349.338 -0.339244 2.9878 0
M  V30 3662 C 350.886 -0.418348 3.10192 0
M  V30 3663 C 351.361 -0.375407 4.56459 0
M  V30 3664 N 352.852 -0.435038 4.61153 0
M  V30 3665 C 353.587 -0.424265 5.71828 0
M  V30 3666 N 353.083 -0.367418 6.91825 0
M  V30 3667 N 354.876 -0.471938 5.60115 0
M  V30 3668 H 347.027 0.840684 1.95055 0
M  V30 3669 H 349.29 0.316987 0.893433 0
M  V30 3670 H 348.996 0.601742 3.46514 0
M  V30 3671 H 348.87 -1.14371 3.59443 0
M  V30 3672 H 351.257 -1.34976 2.62422 0
M  V30 3673 H 351.338 0.414962 2.52412 0
M  V30 3674 H 350.982 0.552219 5.04889 0
M  V30 3675 H 350.912 -1.22645 5.12119 0
M  V30 3676 H 353.403 -0.482612 3.74806 0
M  V30 3677 H 353.716 -0.363535 7.71944 0
M  V30 3678 H 352.061 -0.333879 6.94198 0
M  V30 3679 H 355.252 -0.514145 4.65268 0
M  V30 3680 H 355.425 -0.460073 6.46365 0
M  V30 3681 N 348.832 -1.54138 -0.328536 0
M  V30 3682 C 350.081 -1.71318 -1.06456 0
M  V30 3683 C 350.394 -0.491109 -1.89334 0
M  V30 3684 O 351.6 -0.54416 -2.65991 0
M  V30 3685 C 350.056 -3.03 -1.94214 0
M  V30 3686 C 349.664 -4.32595 -1.16471 0
M  V30 3687 C 351.408 -3.29544 -2.67583 0
M  V30 3688 C 349.315 -5.55341 -2.03347 0
M  V30 3689 H 348.245 -0.638429 -0.401155 0
M  V30 3690 H 350.896 -1.80633 -0.323106 0
M  V30 3691 H 349.278 -2.87579 -2.72239 0
M  V30 3692 H 350.452 -4.58766 -0.432525 0
M  V30 3693 H 348.767 -4.12777 -0.548063 0
M  V30 3694 H 351.364 -4.18444 -3.3288 0
M  V30 3695 H 351.707 -2.47206 -3.34955 0
M  V30 3696 H 352.24 -3.45809 -1.96623 0
M  V30 3697 H 348.979 -6.40268 -1.40491 0
M  V30 3698 H 348.499 -5.33397 -2.74313 0
M  V30 3699 H 350.178 -5.91557 -2.62049 0
M  V30 3700 N 350.31 0.590341 -1.46126 0
M  V30 3701 C 351.54 1.37304 -1.54373 0
M  V30 3702 C 351.948 1.88332 -0.181071 0
M  V30 3703 O 351.291 1.63852 0.830559 0
M  V30 3704 C 351.353 2.6012 -2.48149 0
M  V30 3705 C 351.017 2.30613 -3.94546 0
M  V30 3706 C 352.014 1.89915 -4.83971 0
M  V30 3707 C 349.699 2.42993 -4.39613 0
M  V30 3708 C 351.693 1.61981 -6.16475 0
M  V30 3709 C 349.38 2.14672 -5.72153 0
M  V30 3710 C 350.378 1.7423 -6.60404 0
M  V30 3711 O 350.066 1.46251 -7.90485 0
M  V30 3712 H 349.798 0.426086 -0.524811 0
M  V30 3713 H 352.352 0.72539 -1.92165 0
M  V30 3714 H 350.582 3.27664 -2.05361 0
M  V30 3715 H 352.271 3.22182 -2.46887 0
M  V30 3716 H 353.037 1.79872 -4.50412 0
M  V30 3717 H 348.916 2.73435 -3.71153 0
M  V30 3718 H 352.46 1.30341 -6.85315 0
M  V30 3719 H 348.357 2.24337 -6.05263 0
M  V30 3720 H 349.125 1.6016 -8.02677 0
M  V30 3721 N 351.788 1.33704 0.83433 0
M  V30 3722 C 353.065 1.16011 1.57483 0
M  V30 3723 C 353.445 -0.27176 2.09343 0
M  V30 3724 O 352.793 -1.27146 1.89858 0
M  V30 3725 C 353.003 2.20507 2.70514 0
M  V30 3726 C 354.351 2.54898 3.39577 0
M  V30 3727 O 355.375 2.19209 2.80759 0
M  V30 3728 O 354.234 3.16158 4.45765 0
M  V30 3729 H 351.328 0.448992 0.694503 0
M  V30 3730 H 353.874 1.453 0.876691 0
M  V30 3731 H 352.646 3.16667 2.29865 0
M  V30 3732 H 352.269 1.92329 3.47987 0
M  V30 3733 N 353.266 -1.05314 1.17247 0
M  V30 3734 C 354.491 -1.82509 0.985148 0
M  V30 3735 C 354.916 -1.82343 -0.461788 0
M  V30 3736 O 354.274 -1.23151 -1.33055 0
M  V30 3737 C 354.322 -3.26566 1.52929 0
M  V30 3738 O 353.426 -4.05666 0.742225 0
M  V30 3739 H 352.767 -0.564347 0.349869 0
M  V30 3740 H 355.297 -1.32718 1.55715 0
M  V30 3741 H 355.307 -3.77369 1.55103 0
M  V30 3742 H 353.982 -3.26001 2.58256 0
M  V30 3743 H 352.559 -3.64397 0.791794 0
M  V30 3744 N 354.744 -0.972509 -1.24016 0
M  V30 3745 C 355.99 -0.637978 -1.92504 0
M  V30 3746 C 356.323 0.825383 -1.75787 0
M  V30 3747 O 355.598 1.59442 -1.11393 0
M  V30 3748 C 355.881 -1.01942 -3.45369 0
M  V30 3749 C 355.734 -2.53983 -3.71231 0
M  V30 3750 C 357.053 -0.55751 -4.36555 0
M  V30 3751 H 354.172 -0.233248 -0.699117 0
M  V30 3752 H 356.814 -1.21238 -1.46292 0
M  V30 3753 H 354.964 -0.530656 -3.84859 0
M  V30 3754 H 356.636 -3.10374 -3.41271 0
M  V30 3755 H 354.879 -2.96968 -3.16216 0
M  V30 3756 H 355.55 -2.75723 -4.78206 0
M  V30 3757 H 358.026 -0.977029 -4.04467 0
M  V30 3758 H 356.902 -0.85292 -5.42233 0
M  V30 3759 H 357.163 0.542328 -4.38761 0
M  V30 3760 N 356.222 1.38976 -0.743202 0
M  V30 3761 C 357.169 2.30544 -0.10861 0
M  V30 3762 C 358.139 1.49642 0.720869 0
M  V30 3763 O 359.324 1.78304 0.679142 0
M  V30 3764 C 356.464 3.36018 0.786496 0
M  V30 3765 C 355.577 4.31963 -0.0564849 0
M  V30 3766 C 354.712 5.24506 0.840657 0
M  V30 3767 C 353.751 6.121 -0.00658363 0
M  V30 3768 N 352.888 6.96973 0.846943 0
M  V30 3769 H 357.728 2.8424 -0.895088 0
M  V30 3770 H 355.265 1.3995 -0.453048 0
M  V30 3771 H 357.223 3.95768 1.31999 0
M  V30 3772 H 355.853 2.83758 1.53887 0
M  V30 3773 H 354.905 3.73763 -0.707492 0
M  V30 3774 H 356.217 4.93703 -0.711229 0
M  V30 3775 H 355.371 5.89322 1.4417 0
M  V30 3776 H 354.11 4.63107 1.52916 0
M  V30 3777 H 353.115 5.46289 -0.620366 0
M  V30 3778 H 354.34 6.75565 -0.691992 0
M  V30 3779 H 352.286 6.38133 1.52059 0
M  V30 3780 H 352.203 7.5559 0.248864 0
M  V30 3781 H 353.471 7.6621 1.43328 0
M  V30 3782 N 357.7 0.491464 1.49741 0
M  V30 3783 C 358.647 -0.292027 2.28945 0
M  V30 3784 C 359.617 -0.968973 1.34908 0
M  V30 3785 O 360.802 -0.97748 1.6386 0
M  V30 3786 C 357.942 -1.35617 3.17336 0
M  V30 3787 C 357.055 -0.691957 4.26422 0
M  V30 3788 C 356.19 -1.73572 5.02042 0
M  V30 3789 C 355.229 -1.05286 6.02977 0
M  V30 3790 N 354.366 -2.0404 6.71798 0
M  V30 3791 H 359.206 0.389654 2.95442 0
M  V30 3792 H 356.743 0.204003 1.45679 0
M  V30 3793 H 358.701 -1.98502 3.66951 0
M  V30 3794 H 357.331 -2.00674 2.52844 0
M  V30 3795 H 356.383 0.0499523 3.80367 0
M  V30 3796 H 357.695 -0.153946 4.98562 0
M  V30 3797 H 356.849 -2.43987 5.55478 0
M  V30 3798 H 355.588 -2.30757 4.29654 0
M  V30 3799 H 354.593 -0.334446 5.48782 0
M  V30 3800 H 355.818 -0.487636 6.77347 0
M  V30 3801 H 353.764 -2.60205 6.02187 0
M  V30 3802 H 353.681 -1.55279 7.39881 0
M  V30 3803 H 354.949 -2.73772 7.29842 0
M  V30 3804 N 359.178 -1.55987 0.224894 0
M  V30 3805 C 360.111 -2.16413 -0.723929 0
M  V30 3806 C 361.089 -1.10952 -1.18863 0
M  V30 3807 O 362.273 -1.39225 -1.27077 0
M  V30 3808 C 359.4 -2.74711 -1.98121 0
M  V30 3809 C 358.446 -3.9303 -1.6562 0
M  V30 3810 S 359.279 -5.29817 -0.778058 0
M  V30 3811 C 360.435 -5.91555 -2.04483 0
M  V30 3812 H 360.668 -2.96555 -0.210347 0
M  V30 3813 H 358.201 -1.54397 0.00955457 0
M  V30 3814 H 360.159 -3.08938 -2.70311 0
M  V30 3815 H 358.82 -1.94555 -2.46591 0
M  V30 3816 H 358.013 -4.32334 -2.59043 0
M  V30 3817 H 357.615 -3.59966 -1.01491 0
M  V30 3818 H 359.907 -6.07732 -2.99446 0
M  V30 3819 H 360.85 -6.87498 -1.69563 0
M  V30 3820 H 361.258 -5.20419 -2.18688 0
M  V30 3821 N 360.656 0.0484629 -1.57525 0
M  V30 3822 C 361.902 0.744226 -1.88651 0
M  V30 3823 C 362.235 1.76029 -0.820212 0
M  V30 3824 O 361.51 1.93782 0.166985 0
M  V30 3825 C 361.793 1.43128 -3.30434 0
M  V30 3826 C 361.646 0.43005 -4.47739 0
M  V30 3827 C 362.965 2.37031 -3.70816 0
M  V30 3828 H 360.084 0.269089 -0.68612 0
M  V30 3829 H 362.726 0.00713532 -1.89999 0
M  V30 3830 H 360.876 2.05956 -3.29415 0
M  V30 3831 H 362.548 -0.194816 -4.60888 0
M  V30 3832 H 360.791 -0.252522 -4.33064 0
M  V30 3833 H 361.462 0.948874 -5.43783 0
M  V30 3834 H 363.938 1.84263 -3.73077 0
M  V30 3835 H 362.814 2.82094 -4.70865 0
M  V30 3836 H 363.075 3.22864 -3.02012 0
M  V30 3837 N 362.134 1.5431 0.320358 0
M  V30 3838 C 363.044 1.86946 1.41734 0
M  V30 3839 C 364.06 0.761689 1.56443 0
M  V30 3840 O 365.236 1.05629 1.71477 0
M  V30 3841 C 362.301 2.09293 2.76401 0
M  V30 3842 C 361.362 3.33082 2.70841 0
M  V30 3843 C 360.595 3.54353 3.99086 0
M  V30 3844 O 360.818 2.79002 4.97508 0
M  V30 3845 O 359.752 4.47838 4.0215 0
M  V30 3846 H 363.578 2.80232 1.17062 0
M  V30 3847 H 361.163 1.40255 0.514673 0
M  V30 3848 H 363.045 2.25303 3.56113 0
M  V30 3849 H 361.72 1.19194 3.00956 0
M  V30 3850 H 360.627 3.22454 1.89668 0
M  V30 3851 H 361.96 4.23249 2.5124 0
M  V30 3852 N 363.613 -0.582584 1.46437 0
M  V30 3853 C 364.862 -1.337 1.5102 0
M  V30 3854 C 365.175 -1.94891 0.166359 0
M  V30 3855 O 366.381 -2.71351 0.0899954 0
M  V30 3856 C 364.837 -2.42315 2.66104 0
M  V30 3857 C 364.445 -1.87427 4.06909 0
M  V30 3858 C 366.189 -3.19099 2.79958 0
M  V30 3859 C 364.096 -2.93672 5.13333 0
M  V30 3860 H 363.026 -0.502619 0.562041 0
M  V30 3861 H 365.677 -0.621701 1.72647 0
M  V30 3862 H 364.059 -3.16645 2.37807 0
M  V30 3863 H 365.233 -1.19639 4.44998 0
M  V30 3864 H 363.548 -1.2331 3.97723 0
M  V30 3865 H 366.145 -3.9839 3.56636 0
M  V30 3866 H 366.488 -3.71695 1.87479 0
M  V30 3867 H 367.021 -2.51875 3.07902 0
M  V30 3868 H 363.76 -2.45962 6.07604 0
M  V30 3869 H 363.28 -3.59948 4.79789 0
M  V30 3870 H 364.959 -3.5762 5.39182 0
M  V30 3871 N 365.091 -1.34144 -0.827227 0
M  V30 3872 C 366.039 -1.25364 -1.95925 0
M  V30 3873 C 367.033 -0.152608 -1.68711 0
M  V30 3874 O 368.239 -0.317311 -1.77181 0
M  V30 3875 H 364.614 -0.389342 -0.643364 0
M  V30 3876 H 366.585 -2.21045 -2.00454 0
M  V30 3877 C 365.334 -1.02158 -3.32354 0
M  V30 3878 H 364.657 -1.86111 -3.5384 0
M  V30 3879 H 366.097 -1.00048 -4.12027 0
M  V30 3880 C 364.556 0.275244 -3.35774 0
M  V30 3881 O 365.086 1.27806 -3.80826 0
M  V30 3882 N 363.292 0.306853 -2.88975 0
M  V30 3883 H 362.839 -0.509777 -2.52506 0
M  V30 3884 H 362.797 1.17432 -2.91646 0
M  V30 3885 N 366.569 1.04691 -1.17803 0
M  V30 3886 C 367.816 1.77782 -0.969532 0
M  V30 3887 C 368.144 1.87926 0.501401 0
M  V30 3888 O 367.399 1.37918 1.38842 0
M  V30 3889 C 367.698 3.21467 -1.56186 0
M  V30 3890 C 367.364 3.3137 -3.05786 0
M  V30 3891 C 366.026 3.3378 -3.46619 0
M  V30 3892 C 368.378 3.31976 -4.01797 0
M  V30 3893 C 365.706 3.34431 -4.82051 0
M  V30 3894 C 368.058 3.34167 -5.37136 0
M  V30 3895 C 366.722 3.34866 -5.77426 0
M  V30 3896 H 365.992 0.650549 -0.354777 0
M  V30 3897 H 368.639 1.23006 -1.46772 0
M  V30 3898 H 366.944 3.79203 -0.985515 0
M  V30 3899 H 368.641 3.76652 -1.37602 0
M  V30 3900 H 365.231 3.3021 -2.73238 0
M  V30 3901 H 369.415 3.29311 -3.71306 0
M  V30 3902 H 364.671 3.33285 -5.12573 0
M  V30 3903 H 368.845 3.33585 -6.11305 0
M  V30 3904 H 366.472 3.35124 -6.82346 0
M  V30 3905 N 368.047 0.979072 1.23499 0
M  V30 3906 C 368.977 0.537606 2.27227 0
M  V30 3907 C 369.958 -0.428539 1.64613 0
M  V30 3908 O 371.143 -0.322191 1.91509 0
M  V30 3909 C 368.273 -0.162052 3.46922 0
M  V30 3910 C 367.227 0.721242 4.21879 0
M  V30 3911 C 366.553 -0.110555 5.34586 0
M  V30 3912 C 367.853 2.01141 4.82016 0
M  V30 3913 H 369.547 1.40462 2.64406 0
M  V30 3914 H 367.093 0.67684 1.27102 0
M  V30 3915 H 369.046 -0.482192 4.18632 0
M  V30 3916 H 367.77 -1.06351 3.08799 0
M  V30 3917 H 366.429 1.02482 3.51984 0
M  V30 3918 H 366.077 -1.0125 4.92704 0
M  V30 3919 H 365.777 0.477325 5.85658 0
M  V30 3920 H 367.301 -0.425107 6.09118 0
M  V30 3921 H 368.715 1.75612 5.45741 0
M  V30 3922 H 367.112 2.54695 5.43369 0
M  V30 3923 H 368.182 2.69909 4.02836 0
M  V30 3924 N 369.525 -1.3858 0.750561 0
M  V30 3925 C 370.765 -2.02032 0.310258 0
M  V30 3926 C 371.129 -1.58288 -1.08668 0
M  V30 3927 O 372.33 -2.14049 -1.62593 0
M  V30 3928 C 370.601 -3.54856 0.425647 0
M  V30 3929 S 372.16 -4.38748 0.0674797 0
M  V30 3930 H 368.978 -0.700705 0.120554 0
M  V30 3931 H 371.58 -1.69134 0.980512 0
M  V30 3932 H 370.284 -3.84182 1.44335 0
M  V30 3933 H 369.815 -3.92527 -0.261894 0
M  V30 3934 H 371.83 -4.82835 -1.14388 0
M  V30 3935 N 371.003 -0.499398 -1.49478 0
M  V30 3936 C 372.249 0.0457576 -2.02748 0
M  V30 3937 C 372.582 1.36793 -1.37846 0
M  V30 3938 O 371.857 1.87596 -0.513601 0
M  V30 3939 C 372.14 0.199986 -3.59544 0
M  V30 3940 C 371.993 -1.1452 -4.34977 0
M  V30 3941 C 373.312 0.94137 -4.29914 0
M  V30 3942 H 370.431 0.0151552 -0.736844 0
M  V30 3943 H 373.073 -0.650498 -1.78518 0
M  V30 3944 H 371.223 0.793007 -3.8032 0
M  V30 3945 H 372.895 -1.77697 -4.25701 0
M  V30 3946 H 371.138 -1.73488 -3.97598 0
M  V30 3947 H 371.809 -0.990607 -5.43039 0
M  V30 3948 H 374.285 0.43844 -4.13784 0
M  V30 3949 H 373.161 1.01812 -5.39375 0
M  V30 3950 H 373.422 1.98471 -3.95046 0
M  V30 3951 N 372.481 1.55866 -0.233164 0
M  V30 3952 C 373.431 2.17442 0.685774 0
M  V30 3953 C 374.415 1.12617 1.14918 0
M  V30 3954 O 375.607 1.3857 1.10124 0
M  V30 3955 C 372.736 2.86685 1.88856 0
M  V30 3956 C 371.822 3.98749 1.4443 0
M  V30 3957 N 372.213 5.00744 0.713364 0
M  V30 3958 C 370.511 4.11052 1.73068 0
M  V30 3959 C 371.212 5.79673 0.485205 0
M  V30 3960 N 370.188 5.33454 1.04536 0
M  V30 3961 H 373.99 2.93659 0.119022 0
M  V30 3962 H 371.504 1.62362 -0.0348995 0
M  V30 3963 H 373.501 3.29218 2.55776 0
M  V30 3964 H 372.161 2.11967 2.45967 0
M  V30 3965 H 373.172 5.16613 0.364861 0
M  V30 3966 H 369.849 3.47495 2.31416 0
M  V30 3967 H 371.239 6.71829 -0.097365 0
M  V30 3968 N 373.959 -0.0401083 1.57549 0
M  V30 3969 C 374.906 -1.04413 2.05831 0
M  V30 3970 C 375.876 -1.36585 0.945184 0
M  V30 3971 O 377.061 -1.47112 1.21502 0
M  V30 3972 C 374.201 -2.34336 2.53339 0
M  V30 3973 C 373.314 -2.08419 3.78398 0
M  V30 3974 C 372.449 -3.32133 4.14561 0
M  V30 3975 C 371.488 -3.01721 5.3257 0
M  V30 3976 N 370.625 -4.17855 5.64218 0
M  V30 3977 H 375.465 -0.625442 2.91363 0
M  V30 3978 H 373.002 -0.297218 1.44066 0
M  V30 3979 H 374.96 -3.10234 2.78946 0
M  V30 3980 H 373.59 -2.73948 1.7074 0
M  V30 3981 H 372.642 -1.23069 3.59942 0
M  V30 3982 H 373.954 -1.81978 4.64419 0
M  V30 3983 H 373.108 -4.16406 4.41238 0
M  V30 3984 H 371.847 -3.61678 3.2717 0
M  V30 3985 H 370.852 -2.15849 5.05657 0
M  V30 3986 H 372.077 -2.73466 6.21605 0
M  V30 3987 H 370.023 -4.47372 4.79786 0
M  V30 3988 H 369.94 -3.94798 6.44725 0
M  V30 3989 H 371.208 -5.03033 5.95465 0
M  V30 3990 N 375.437 -1.54477 -0.31217 0
M  V30 3991 C 376.384 -1.84655 -1.38461 0
M  V30 3992 C 377.354 -0.694536 -1.50882 0
M  V30 3993 O 378.539 -0.942081 -1.6592 0
M  V30 3994 C 375.679 -2.0896 -2.74645 0
M  V30 3995 C 374.792 -3.36618 -2.70763 0
M  V30 3996 C 373.927 -3.50824 -3.98868 0
M  V30 3997 C 372.966 -4.72315 -3.89339 0
M  V30 3998 N 372.103 -4.83387 -5.09197 0
M  V30 3999 H 376.943 -2.76142 -1.12026 0
M  V30 4000 H 374.48 -1.36748 -0.542065 0
M  V30 4001 H 376.438 -2.21045 -3.53829 0
M  V30 4002 H 375.068 -1.20752 -2.99364 0
M  V30 4003 H 374.12 -3.33211 -1.83506 0
M  V30 4004 H 375.432 -4.25917 -2.59608 0
M  V30 4005 H 374.586 -3.62513 -4.86486 0
M  V30 4006 H 373.325 -2.59638 -4.12843 0
M  V30 4007 H 372.33 -4.6067 -3.00105 0
M  V30 4008 H 373.555 -5.64897 -3.76919 0
M  V30 4009 H 371.501 -3.9512 -5.23657 0
M  V30 4010 H 371.418 -5.66669 -5.00422 0
M  V30 4011 H 372.686 -4.9942 -5.98498 0
M  V30 4012 N 376.915 0.57481 -1.46744 0
M  V30 4013 C 377.845 1.69337 -1.60771 0
M  V30 4014 C 378.826 1.63825 -0.457736 0
M  V30 4015 O 380.011 1.8172 -0.684947 0
M  V30 4016 C 377.141 3.0798 -1.60517 0
M  V30 4017 C 376.095 3.28327 -2.74564 0
M  V30 4018 C 375.421 4.67578 -2.59373 0
M  V30 4019 C 376.721 3.15398 -4.16319 0
M  V30 4020 H 378.415 1.57853 -2.54407 0
M  V30 4021 H 375.961 0.75799 -1.22436 0
M  V30 4022 H 377.914 3.86061 -1.68923 0
M  V30 4023 H 376.638 3.20381 -0.634305 0
M  V30 4024 H 375.297 2.52649 -2.65639 0
M  V30 4025 H 374.945 4.76755 -1.60353 0
M  V30 4026 H 374.645 4.82144 -3.35873 0
M  V30 4027 H 376.169 5.47817 -2.69682 0
M  V30 4028 H 377.583 3.83315 -4.26313 0
M  V30 4029 H 375.98 3.41482 -4.93468 0
M  V30 4030 H 377.05 2.12372 -4.3592 0
M  V30 4031 N 378.394 1.34581 0.820102 0
M  V30 4032 C 379.81 1.14325 1.11364 0
M  V30 4033 C 380.01 -0.0533648 2.01429 0
M  V30 4034 O 379.066 -0.728044 2.41776 0
M  V30 4035 C 380.379 2.43983 1.75764 0
M  V30 4036 C 381.927 2.50065 1.88246 0
M  V30 4037 C 382.402 3.79732 2.56061 0
M  V30 4038 N 383.893 3.80908 2.63558 0
M  V30 4039 C 384.628 4.77961 3.16766 0
M  V30 4040 N 384.124 5.85397 3.70517 0
M  V30 4041 N 385.917 4.65413 3.15194 0
M  V30 4042 H 378.068 2.11246 0.221096 0
M  V30 4043 H 380.331 0.934289 0.160649 0
M  V30 4044 H 380.037 3.31651 1.1705 0
M  V30 4045 H 379.911 2.57531 2.75604 0
M  V30 4046 H 382.298 1.62834 2.46108 0
M  V30 4047 H 382.379 2.40442 0.873006 0
M  V30 4048 H 382.023 4.67354 1.98853 0
M  V30 4049 H 381.953 3.86639 3.57516 0
M  V30 4050 H 384.444 3.03274 2.25463 0
M  V30 4051 H 384.757 6.55463 4.09376 0
M  V30 4052 H 383.102 5.89107 3.68752 0
M  V30 4053 H 386.293 3.80627 2.72471 0
M  V30 4054 H 386.466 5.41216 3.56356 0
M  V30 4055 N 379.872 -1.04064 1.18357 0
M  V30 4056 C 381.097 -1.81454 1.00445 0
M  V30 4057 C 381.522 -1.82823 -0.442423 0
M  V30 4058 O 380.88 -1.24555 -1.31741 0
M  V30 4059 C 380.928 -3.24925 1.56384 0
M  V30 4060 O 380.032 -4.04856 0.785209 0
M  V30 4061 H 379.373 -0.560604 0.355835 0
M  V30 4062 H 381.903 -1.31059 1.57114 0
M  V30 4063 H 381.913 -3.75702 1.59097 0
M  V30 4064 H 380.588 -3.23244 2.61699 0
M  V30 4065 H 379.165 -3.63537 0.830399 0
M  V30 4066 N 381.35 -0.985608 -1.22978 0
M  V30 4067 C 382.297 -0.529825 -2.24636 0
M  V30 4068 C 383.267 0.434028 -1.60329 0
M  V30 4069 O 384.452 0.340414 -1.87739 0
M  V30 4070 C 381.592 0.156533 -3.44745 0
M  V30 4071 C 380.705 -0.848197 -4.23591 0
M  V30 4072 C 379.84 -0.136109 -5.31026 0
M  V30 4073 C 378.879 -1.1297 -6.01585 0
M  V30 4074 N 378.016 -0.446415 -7.00679 0
M  V30 4075 H 382.856 -1.40148 -2.62988 0
M  V30 4076 H 380.393 -0.702168 -1.29259 0
M  V30 4077 H 382.351 0.571324 -4.1327 0
M  V30 4078 H 380.981 0.992025 -3.07179 0
M  V30 4079 H 380.033 -1.38135 -3.54433 0
M  V30 4080 H 381.345 -1.60512 -4.72268 0
M  V30 4081 H 380.499 0.335784 -6.0577 0
M  V30 4082 H 379.238 0.653373 -4.83304 0
M  V30 4083 H 378.243 -1.6123 -5.25628 0
M  V30 4084 H 379.468 -1.91993 -6.51395 0
M  V30 4085 H 377.414 0.323763 -6.55201 0
M  V30 4086 H 377.331 -1.1419 -7.47326 0
M  V30 4087 H 378.599 0.00291697 -7.795 0
M  V30 4088 N 382.828 1.3818 -0.7579 0
M  V30 4089 C 384.244 1.5353 -0.435972 0
M  V30 4090 C 384.444 1.71961 1.05032 0
M  V30 4091 O 383.5 1.73307 1.83633 0
M  V30 4092 C 384.813 2.73989 -1.23898 0
M  V30 4093 C 386.361 2.87841 -1.22949 0
M  V30 4094 C 386.836 4.11266 -2.01554 0
M  V30 4095 N 388.327 4.18352 -1.98837 0
M  V30 4096 C 389.062 5.12856 -2.5645 0
M  V30 4097 N 388.558 6.13005 -3.22794 0
M  V30 4098 N 390.351 5.05238 -2.46356 0
M  V30 4099 H 382.502 1.24467 -1.7211 0
M  V30 4100 H 384.765 0.604982 -0.729864 0
M  V30 4101 H 384.471 2.66789 -2.29165 0
M  V30 4102 H 384.345 3.67294 -0.858764 0
M  V30 4103 H 386.732 2.9452 -0.184854 0
M  V30 4104 H 386.813 1.95534 -1.64924 0
M  V30 4105 H 386.457 4.05349 -3.06031 0
M  V30 4106 H 386.387 5.02661 -1.5697 0
M  V30 4107 H 388.878 3.46628 -1.50524 0
M  V30 4108 H 389.191 6.81619 -3.64165 0
M  V30 4109 H 387.536 6.13325 -3.2689 0
M  V30 4110 H 390.727 4.25938 -1.9415 0
M  V30 4111 H 390.9 5.78707 -2.91552 0
M  V30 4112 N 384.306 0.507319 1.49211 0
M  V30 4113 C 385.552 -0.0350047 2.0277 0
M  V30 4114 C 385.885 -1.3606 1.38569 0
M  V30 4115 O 385.16 -1.87321 0.523542 0
M  V30 4116 C 385.443 -0.180916 3.59645 0
M  V30 4117 C 385.296 1.16825 4.34364 0
M  V30 4118 C 386.615 -0.918558 4.30407 0
M  V30 4119 H 383.734 -0.0112473 0.736914 0
M  V30 4120 H 386.376 0.659956 1.7817 0
M  V30 4121 H 384.526 -0.772826 3.80736 0
M  V30 4122 H 386.198 1.79952 4.24753 0
M  V30 4123 H 384.441 1.75594 3.96673 0
M  V30 4124 H 385.112 1.01939 5.42506 0
M  V30 4125 H 387.588 -0.41649 4.1401 0
M  V30 4126 H 386.464 -0.989505 5.39907 0
M  V30 4127 H 386.725 -1.96373 3.96093 0
M  V30 4128 N 385.784 -1.5574 0.241426 0
M  V30 4129 C 386.747 -2.19877 -0.647063 0
M  V30 4130 C 387.747 -1.16642 -1.10686 0
M  V30 4131 O 388.937 -1.41757 -1.01245 0
M  V30 4132 C 386.069 -2.83797 -1.88871 0
M  V30 4133 H 387.262 -2.99772 -0.087574 0
M  V30 4134 H 384.815 -1.56298 -0.00813574 0
M  V30 4135 H 385.55 -2.07824 -2.48957 0
M  V30 4136 H 385.335 -3.59414 -1.56728 0
M  V30 4137 H 386.825 -3.32898 -2.52129 0
M  V30 4138 N 387.262 0.0317525 -1.57568 0
M  V30 4139 C 388.673 0.578692 -1.77505 0
M  V30 4140 C 389.024 1.75749 -0.872164 0
M  V30 4141 O 388.149 2.16298 -0.0663106 0
M  V30 4142 C 388.744 1.05658 -3.21904 0
M  V30 4143 C 387.303 1.54906 -3.43047 0
M  V30 4144 C 386.45 0.485939 -2.73009 0
M  V30 4145 H 389.401 -0.194475 -1.57504 0
M  V30 4146 H 389.422 1.92404 -3.28269 0
M  V30 4147 H 388.934 0.198422 -3.87592 0
M  V30 4148 H 387.035 2.42915 -2.82529 0
M  V30 4149 H 387.148 1.59841 -4.5165 0
M  V30 4150 H 385.512 0.940354 -2.36705 0
M  V30 4151 H 386.295 -0.362709 -3.41379 0
M  V30 4152 N 388.74 1.54641 0.303973 0
M  V30 4153 C 389.986 1.74038 1.04109 0
M  V30 4154 C 390.319 0.523051 1.87024 0
M  V30 4155 O 389.594 -0.479874 1.88487 0
M  V30 4156 C 389.877 3.02761 1.94955 0
M  V30 4157 C 389.73 4.34787 1.1524 0
M  V30 4158 C 391.049 3.27336 2.94175 0
M  V30 4159 H 388.168 0.63323 0.377079 0
M  V30 4160 H 390.81 1.87354 0.316001 0
M  V30 4161 H 388.96 2.9154 2.56782 0
M  V30 4162 H 390.632 4.57922 0.557236 0
M  V30 4163 H 388.875 4.31407 0.455053 0
M  V30 4164 H 389.546 5.21116 1.8205 0
M  V30 4165 H 392.022 3.38148 2.42477 0
M  V30 4166 H 390.898 4.18726 3.54908 0
M  V30 4167 H 391.159 2.45491 3.67677 0
M  V30 4168 N 390.218 -0.567019 1.47046 0
M  V30 4169 C 391.148 -1.68482 1.61667 0
M  V30 4170 C 392.129 -1.6358 0.466418 0
M  V30 4171 O 393.314 -1.81354 0.694574 0
M  V30 4172 C 390.444 -3.07124 1.62148 0
M  V30 4173 C 389.398 -3.26867 2.76301 0
M  V30 4174 C 388.724 -4.66196 2.61849 0
M  V30 4175 C 390.024 -3.13186 4.17986 0
M  V30 4176 H 391.718 -1.56502 2.5524 0
M  V30 4177 H 389.264 -0.751486 1.22836 0
M  V30 4178 H 391.217 -3.8516 1.70968 0
M  V30 4179 H 389.941 -3.2004 0.651287 0
M  V30 4180 H 388.6 -2.51237 2.66975 0
M  V30 4181 H 388.248 -4.75898 1.62879 0
M  V30 4182 H 387.948 -4.80356 3.38425 0
M  V30 4183 H 389.472 -5.46379 2.72584 0
M  V30 4184 H 390.886 -3.81049 4.2834 0
M  V30 4185 H 389.283 -3.3886 4.95272 0
M  V30 4186 H 390.353 -2.10057 4.3704 0
M  V30 4187 N 391.696 -1.35014 -0.812953 0
M  V30 4188 C 392.945 -1.27269 -1.56479 0
M  V30 4189 C 393.258 0.152771 -1.95002 0
M  V30 4190 O 394.464 0.352451 -2.69203 0
M  V30 4191 C 392.92 -2.23159 -2.82362 0
M  V30 4192 C 392.528 -3.71016 -2.511 0
M  V30 4193 C 394.272 -2.24342 -3.60376 0
M  V30 4194 C 392.179 -4.58746 -3.73237 0
M  V30 4195 H 391.109 -0.472829 -0.587324 0
M  V30 4196 H 393.76 -1.6024 -0.894171 0
M  V30 4197 H 392.142 -1.83151 -3.51101 0
M  V30 4198 H 393.316 -4.1962 -1.90409 0
M  V30 4199 H 391.631 -3.72378 -1.86343 0
M  V30 4200 H 394.228 -2.87107 -4.51081 0
M  V30 4201 H 394.571 -1.24542 -3.97234 0
M  V30 4202 H 395.104 -2.62846 -2.98591 0
M  V30 4203 H 391.843 -5.59521 -3.41492 0
M  V30 4204 H 391.363 -4.14871 -4.33176 0
M  V30 4205 H 393.042 -4.73852 -4.40537 0
M  V30 4206 N 393.175 1.03435 -1.18907 0
M  V30 4207 C 394.591 1.28973 -0.940111 0
M  V30 4208 C 394.791 1.97676 0.390691 0
M  V30 4209 O 393.847 2.26127 1.12352 0
M  V30 4210 C 395.16 2.14221 -2.11021 0
M  V30 4211 C 396.708 2.27547 -2.14922 0
M  V30 4212 C 397.183 3.16164 -3.31367 0
M  V30 4213 N 398.674 3.23752 -3.31269 0
M  V30 4214 C 399.409 3.92495 -4.18014 0
M  V30 4215 N 398.905 4.63515 -5.14904 0
M  V30 4216 N 400.698 3.88838 -4.05908 0
M  V30 4217 H 392.849 0.57252 -2.04538 0
M  V30 4218 H 395.112 0.315184 -0.894071 0
M  V30 4219 H 394.818 1.71054 -3.073 0
M  V30 4220 H 394.692 3.14919 -2.0762 0
M  V30 4221 H 397.079 2.69947 -1.19217 0
M  V30 4222 H 397.16 1.26418 -2.22378 0
M  V30 4223 H 396.804 2.74474 -4.27348 0
M  V30 4224 H 396.734 4.17339 -3.21148 0
M  V30 4225 H 399.225 2.73167 -2.61129 0
M  V30 4226 H 399.538 5.13583 -5.77453 0
M  V30 4227 H 397.883 4.62398 -5.18857 0
M  V30 4228 H 401.074 3.32491 -3.29495 0
M  V30 4229 H 401.247 4.4214 -4.73726 0
M  V30 4230 N 394.653 0.992116 1.22453 0
M  V30 4231 C 395.563 0.55065 2.28046 0
M  V30 4232 C 396.579 -0.400189 1.69335 0
M  V30 4233 O 397.755 -0.267215 1.99619 0
M  V30 4234 C 394.82 -0.128496 3.46462 0
M  V30 4235 C 393.881 0.865208 4.20491 0
M  V30 4236 C 393.114 0.218377 5.33253 0
M  V30 4237 O 393.337 -0.987894 5.6178 0
M  V30 4238 O 392.271 0.922845 5.94783 0
M  V30 4239 H 396.097 1.4291 2.67975 0
M  V30 4240 H 393.682 0.760326 1.28606 0
M  V30 4241 H 395.564 -0.508947 4.18315 0
M  V30 4242 H 394.239 -0.981526 3.0846 0
M  V30 4243 H 393.146 1.29658 3.50913 0
M  V30 4244 H 394.479 1.68741 4.62371 0
M  V30 4245 N 396.131 -1.37776 0.765217 0
M  V30 4246 C 397.38 -1.99092 0.323307 0
M  V30 4247 C 397.693 -1.61434 -1.10446 0
M  V30 4248 O 398.899 -2.15805 -1.64743 0
M  V30 4249 C 397.355 -3.56019 0.527098 0
M  V30 4250 C 396.963 -4.0262 1.96471 0
M  V30 4251 C 398.707 -4.2424 0.148483 0
M  V30 4252 C 396.614 -5.52233 2.11644 0
M  V30 4253 H 395.544 -0.744846 0.117137 0
M  V30 4254 H 398.195 -1.57391 0.943417 0
M  V30 4255 H 396.577 -3.95667 -0.162372 0
M  V30 4256 H 397.751 -3.74234 2.68859 0
M  V30 4257 H 396.066 -3.47161 2.29931 0
M  V30 4258 H 398.663 -5.34159 0.240456 0
M  V30 4259 H 399.006 -4.06446 -0.900422 0
M  V30 4260 H 399.539 -3.89872 0.79025 0
M  V30 4261 H 396.278 -5.74945 3.1483 0
M  V30 4262 H 395.798 -5.82324 1.4373 0
M  V30 4263 H 397.477 -6.18106 1.91193 0
M  V30 4264 N 397.609 -0.515225 -1.4894 0
M  V30 4265 C 398.837 0.0206034 -2.0689 0
M  V30 4266 C 399.252 1.29514 -1.37374 0
M  V30 4267 O 398.609 1.76698 -0.456529 0
M  V30 4268 C 398.66 0.26351 -3.60538 0
M  V30 4269 O 398.381 -0.960517 -4.27441 0
M  V30 4270 C 399.882 0.841383 -4.35242 0
M  V30 4271 H 397.102 -0.0268608 -0.670462 0
M  V30 4272 H 399.646 -0.716651 -1.91532 0
M  V30 4273 H 397.801 0.950777 -3.75552 0
M  V30 4274 H 398.215 -0.73212 -5.19365 0
M  V30 4275 H 399.689 0.96085 -5.43573 0
M  V30 4276 H 400.166 1.8427 -3.98674 0
M  V30 4277 H 400.772 0.191143 -4.2487 0
M  V30 4278 N 399.087 1.5561 -0.249682 0
M  V30 4279 C 400.503 1.59254 0.105103 0
M  V30 4280 C 400.703 1.26685 1.56694 0
M  V30 4281 O 399.759 1.0155 2.31179 0
M  V30 4282 C 401.072 2.99687 -0.246592 0
M  V30 4283 C 402.62 3.12416 -0.191118 0
M  V30 4284 C 403.095 4.55074 -0.516885 0
M  V30 4285 N 404.586 4.60835 -0.467489 0
M  V30 4286 C 405.321 5.69201 -0.69268 0
M  V30 4287 N 404.817 6.85817 -0.981146 0
M  V30 4288 N 406.61 5.58635 -0.623198 0
M  V30 4289 H 398.761 1.75049 -1.20298 0
M  V30 4290 H 401.024 0.815003 -0.484225 0
M  V30 4291 H 400.73 3.28267 -1.26228 0
M  V30 4292 H 400.604 3.74798 0.424962 0
M  V30 4293 H 402.991 2.83615 0.815247 0
M  V30 4294 H 403.072 2.39573 -0.896563 0
M  V30 4295 H 402.716 4.84596 -1.52082 0
M  V30 4296 H 402.646 5.26181 0.210068 0
M  V30 4297 H 405.137 3.7705 -0.253373 0
M  V30 4298 H 405.45 7.64341 -1.14032 0
M  V30 4299 H 403.795 6.87494 -1.01865 0
M  V30 4300 H 406.986 4.66406 -0.397863 0
M  V30 4301 H 407.159 6.43017 -0.802093 0
M  V30 4302 N 400.565 -0.0233959 1.57583 0
M  V30 4303 C 401.981 -0.379134 1.55031 0
M  V30 4304 C 402.181 -1.76255 0.976548 0
M  V30 4305 O 401.237 -2.45266 0.600078 0
M  V30 4306 C 402.55 -0.275792 2.99433 0
M  V30 4307 C 404.098 -0.352458 3.11009 0
M  V30 4308 C 404.573 -0.278501 4.57152 0
M  V30 4309 N 406.064 -0.337123 4.61972 0
M  V30 4310 C 406.799 -0.302876 5.726 0
M  V30 4311 N 406.295 -0.220589 6.92449 0
M  V30 4312 N 408.088 -0.353023 5.6099 0
M  V30 4313 H 400.239 0.881869 1.93227 0
M  V30 4314 H 402.502 0.335867 0.886509 0
M  V30 4315 H 402.208 0.675108 3.4516 0
M  V30 4316 H 402.082 -1.06721 3.61788 0
M  V30 4317 H 404.469 -1.29379 2.65226 0
M  V30 4318 H 404.55 0.468409 2.51475 0
M  V30 4319 H 404.194 0.659189 5.03604 0
M  V30 4320 H 404.124 -1.11755 5.14605 0
M  V30 4321 H 406.615 -0.403002 3.75745 0
M  V30 4322 H 406.928 -0.199713 7.72542 0
M  V30 4323 H 405.273 -0.186555 6.9475 0
M  V30 4324 H 408.464 -0.415339 4.66254 0
M  V30 4325 H 408.637 -0.322866 6.47195 0
M  V30 4326 N 402.043 -1.548 -0.295768 0
M  V30 4327 C 403.289 -1.74588 -1.03184 0
M  V30 4328 C 403.622 -0.532962 -1.86744 0
M  V30 4329 O 402.897 0.469872 -1.88739 0
M  V30 4330 C 403.18 -3.03791 -1.93347 0
M  V30 4331 C 403.033 -4.35392 -1.12933 0
M  V30 4332 C 404.352 -3.28892 -2.92435 0
M  V30 4333 H 401.471 -0.635221 -0.373715 0
M  V30 4334 H 404.113 -1.87519 -0.30606 0
M  V30 4335 H 402.263 -2.92898 -2.55232 0
M  V30 4336 H 403.935 -4.58211 -0.532943 0
M  V30 4337 H 402.178 -4.31642 -0.432168 0
M  V30 4338 H 402.849 -5.22074 -1.79284 0
M  V30 4339 H 405.325 -3.39429 -2.4068 0
M  V30 4340 H 404.201 -4.20603 -3.52682 0
M  V30 4341 H 404.462 -2.47437 -3.6637 0
M  V30 4342 N 403.521 0.559213 -1.47345 0
M  V30 4343 C 404.469 1.68747 -1.60085 0
M  V30 4344 C 405.463 1.628 -0.46825 0
M  V30 4345 O 406.669 1.68009 -0.645977 0
M  V30 4346 H 403.044 0.558329 -0.503759 0
M  V30 4347 H 405.015 1.55138 -2.54902 0
M  V30 4348 C 403.764 3.07103 -1.63042 0
M  V30 4349 H 403.087 3.12361 -2.49541 0
M  V30 4350 H 404.527 3.85743 -1.76006 0
M  V30 4351 C 402.986 3.34935 -0.363357 0
M  V30 4352 O 403.516 3.98102 0.536416 0
M  V30 4353 N 401.722 2.89574 -0.244 0
M  V30 4354 H 401.269 2.38348 -0.977133 0
M  V30 4355 H 401.227 3.08566 0.602836 0
M  V30 4356 N 404.999 1.35443 0.805782 0
M  V30 4357 C 405.929 1.31095 1.93226 0
M  V30 4358 C 406.91 0.185244 1.69088 0
M  V30 4359 O 408.095 0.380332 1.90439 0
M  V30 4360 C 405.225 1.08299 3.29983 0
M  V30 4361 C 404.179 2.17519 3.68605 0
M  V30 4362 C 403.505 1.79887 5.03532 0
M  V30 4363 C 404.805 3.5949 3.78898 0
M  V30 4364 H 406.499 2.25352 1.97122 0
M  V30 4365 H 404.045 1.0848 0.946996 0
M  V30 4366 H 405.998 1.03897 4.08391 0
M  V30 4367 H 404.722 0.104885 3.26432 0
M  V30 4368 H 403.381 2.2102 2.92482 0
M  V30 4369 H 403.029 0.80693 4.96485 0
M  V30 4370 H 402.729 2.53001 5.30344 0
M  V30 4371 H 404.253 1.77011 5.84379 0
M  V30 4372 H 405.667 3.58307 4.47536 0
M  V30 4373 H 404.064 4.31371 4.1718 0
M  V30 4374 H 405.134 3.95584 2.80431 0
M  V30 4375 N 406.477 -1.02803 1.19454 0
M  V30 4376 C 407.387 -2.14575 0.948408 0
M  V30 4377 C 408.403 -1.73757 -0.091871 0
M  V30 4378 O 409.579 -2.01185 0.0929654 0
M  V30 4379 C 406.644 -3.43202 0.491265 0
M  V30 4380 C 405.705 -3.98328 1.60103 0
M  V30 4381 C 404.938 -5.20816 1.16561 0
M  V30 4382 O 405.161 -5.70392 0.0295238 0
M  V30 4383 O 404.095 -5.68801 1.96849 0
M  V30 4384 H 407.921 -2.38202 1.88397 0
M  V30 4385 H 405.506 -1.12989 0.977433 0
M  V30 4386 H 407.388 -4.20687 0.245015 0
M  V30 4387 H 406.063 -3.21018 -0.415851 0
M  V30 4388 H 404.97 -3.22174 1.90144 0
M  V30 4389 H 406.303 -4.24879 2.48473 0
M  V30 4390 N 407.956 -0.998596 -1.21925 0
M  V30 4391 C 409.204 -0.676325 -1.90448 0
M  V30 4392 C 409.525 0.794719 -1.78071 0
M  V30 4393 O 408.795 1.5701 -1.17152 0
M  V30 4394 H 407.375 -0.247165 -0.704925 0
M  V30 4395 H 410.037 -1.26633 -1.48156 0
M  V30 4396 H 409.133 -0.943858 -2.97486 0
M  V30 4397 N 409.434 1.37368 -0.772513 0
M  V30 4398 C 410.683 1.98918 -0.333861 0
M  V30 4399 C 410.996 1.62017 1.09589 0
M  V30 4400 O 412.202 2.16676 1.63596 0
M  V30 4401 C 410.658 3.55735 -0.545971 0
M  V30 4402 C 410.266 4.01573 -1.98603 0
M  V30 4403 C 412.01 4.24156 -0.170979 0
M  V30 4404 C 409.917 5.51102 -2.1457 0
M  V30 4405 H 408.847 0.744214 -0.121085 0
M  V30 4406 H 411.498 1.56888 -0.95175 0
M  V30 4407 H 409.88 3.95748 0.141387 0
M  V30 4408 H 411.054 3.72803 -2.7084 0
M  V30 4409 H 409.369 3.45937 -2.31769 0
M  V30 4410 H 411.966 5.34024 -0.26878 0
M  V30 4411 H 412.309 4.06917 0.878855 0
M  V30 4412 H 412.842 3.89447 -0.810914 0
M  V30 4413 H 409.581 5.73268 -3.17875 0
M  V30 4414 H 409.101 5.81554 -1.46817 0
M  V30 4415 H 410.78 6.17083 -1.94468 0
M  V30 4416 N 410.912 0.523116 1.48665 0
M  V30 4417 C 412.159 -0.0134763 2.02496 0
M  V30 4418 C 412.487 -1.3493 1.40086 0
M  V30 4419 O 411.742 -1.88286 0.533567 0
M  V30 4420 C 412.041 -0.191671 3.56886 0
M  V30 4421 C 411.707 1.06893 4.38046 0
M  V30 4422 C 410.369 1.41443 4.59943 0
M  V30 4423 C 412.721 1.90584 4.85106 0
M  V30 4424 C 410.049 2.59594 5.26144 0
M  V30 4425 C 412.401 3.07907 5.52609 0
M  V30 4426 C 411.065 3.42811 5.72745 0
M  V30 4427 H 410.335 -0.00493133 0.740984 0
M  V30 4428 H 412.982 0.687751 1.78724 0
M  V30 4429 H 411.287 -0.97561 3.79459 0
M  V30 4430 H 412.984 -0.621659 3.96152 0
M  V30 4431 H 409.574 0.789848 4.21259 0
M  V30 4432 H 413.758 1.65203 4.67997 0
M  V30 4433 H 409.014 2.86847 5.39934 0
M  V30 4434 H 413.188 3.73066 5.88043 0
M  V30 4435 H 410.815 4.34462 6.23816 0
M  V30 4436 N 412.39 -1.55475 0.257931 0
M  V30 4437 C 413.322 -2.19192 -0.669881 0
M  V30 4438 C 414.335 -1.17148 -1.1305 0
M  V30 4439 O 415.524 -1.43959 -1.05537 0
M  V30 4440 C 412.624 -2.79016 -1.92363 0
M  V30 4441 C 411.797 -4.06586 -1.61265 0
M  V30 4442 C 410.856 -4.50622 -2.7171 0
M  V30 4443 O 409.882 -5.16765 -2.38627 0
M  V30 4444 N 411.084 -4.19325 -4.01431 0
M  V30 4445 H 413.849 -2.99441 -0.124635 0
M  V30 4446 H 411.41 -1.6171 0.0783311 0
M  V30 4447 H 413.402 -3.05427 -2.65511 0
M  V30 4448 H 411.972 -2.0286 -2.37837 0
M  V30 4449 H 411.192 -3.87646 -0.715811 0
M  V30 4450 H 412.48 -4.89737 -1.37967 0
M  V30 4451 H 411.878 -3.66247 -4.31138 0
M  V30 4452 H 410.435 -4.50547 -4.7101 0
M  V30 4453 N 413.868 0.0150385 -1.57593 0
M  V30 4454 C 414.831 0.995996 -2.06428 0
M  V30 4455 C 415.831 1.2818 -0.970903 0
M  V30 4456 O 417.021 1.22949 -1.23406 0
M  V30 4457 C 414.153 2.32506 -2.49307 0
M  V30 4458 H 415.346 0.573873 -2.94358 0
M  V30 4459 H 412.899 0.262186 -1.54085 0
M  V30 4460 H 413.634 2.79438 -1.64575 0
M  V30 4461 H 413.419 2.13087 -3.29145 0
M  V30 4462 H 414.909 3.02906 -2.87468 0
M  V30 4463 N 415.346 1.54954 0.287554 0
M  V30 4464 C 416.592 1.75132 1.02257 0
M  V30 4465 C 416.925 0.542858 1.86458 0
M  V30 4466 O 416.2 -0.459856 1.88986 0
M  V30 4467 C 416.483 3.04812 1.91733 0
M  V30 4468 C 416.336 4.35985 1.10622 0
M  V30 4469 C 417.655 3.30438 2.90687 0
M  V30 4470 H 414.774 0.637194 0.370341 0
M  V30 4471 H 417.416 1.87678 0.296111 0
M  V30 4472 H 415.566 2.94247 2.53675 0
M  V30 4473 H 417.238 4.58487 0.508636 0
M  V30 4474 H 415.481 4.31865 0.409271 0
M  V30 4475 H 416.152 5.23017 1.76513 0
M  V30 4476 H 418.628 3.40701 2.38877 0
M  V30 4477 H 417.504 4.22467 3.50447 0
M  V30 4478 H 417.765 2.49377 3.65053 0
M  V30 4479 N 416.824 -0.551391 1.4764 0
M  V30 4480 C 418.054 -1.33163 1.57959 0
M  V30 4481 C 418.462 -1.87785 0.23094 0
M  V30 4482 O 417.805 -1.65996 -0.786825 0
M  V30 4483 C 417.867 -2.53449 2.54958 0
M  V30 4484 C 417.531 -2.20071 4.00522 0
M  V30 4485 C 418.528 -1.77017 4.88836 0
M  V30 4486 C 416.213 -2.31252 4.45901 0
M  V30 4487 C 418.207 -1.4558 6.20552 0
M  V30 4488 C 415.894 -1.99427 5.77644 0
M  V30 4489 C 416.892 -1.56659 6.64791 0
M  V30 4490 O 416.58 -1.25242 7.94084 0
M  V30 4491 H 416.312 -0.412022 0.535923 0
M  V30 4492 H 418.866 -0.674186 1.9402 0
M  V30 4493 H 417.096 -3.22104 2.13976 0
M  V30 4494 H 418.785 -3.15523 2.55343 0
M  V30 4495 H 419.551 -1.67867 4.55023 0
M  V30 4496 H 415.43 -2.63498 3.78272 0
M  V30 4497 H 418.974 -1.12125 6.8853 0
M  V30 4498 H 414.871 -2.08211 6.10998 0
M  V30 4499 H 415.639 -1.38822 8.06642 0
M  V30 4500 N 418.302 -1.35869 -0.798587 0
M  V30 4501 C 419.53 -1.32722 -1.58722 0
M  V30 4502 C 419.945 0.0935631 -1.88568 0
M  V30 4503 O 419.302 1.04784 -1.49421 0
M  V30 4504 C 419.353 -2.13974 -2.91371 0
M  V30 4505 O 419.074 -3.50514 -2.62815 0
M  V30 4506 C 420.575 -2.18504 -3.85708 0
M  V30 4507 H 417.795 -0.45562 -0.492596 0
M  V30 4508 H 420.339 -1.78837 -0.991843 0
M  V30 4509 H 418.494 -1.71438 -3.47402 0
M  V30 4510 H 418.908 -3.92806 -3.47568 0
M  V30 4511 H 420.382 -2.79732 -4.75872 0
M  V30 4512 H 420.859 -1.18597 -4.22885 0
M  V30 4513 H 421.465 -2.61236 -3.35612 0
M  V30 4514 N 419.78 1.02168 -1.19998 0
M  V30 4515 C 420.743 2.08765 -0.94604 0
M  V30 4516 C 421.743 1.60618 0.0763846 0
M  V30 4517 O 422.933 1.73472 -0.159135 0
M  V30 4518 C 420.065 3.38262 -0.423255 0
M  V30 4519 H 421.258 2.32726 -1.89153 0
M  V30 4520 H 418.811 1.1889 -1.01464 0
M  V30 4521 H 419.546 3.19974 0.527938 0
M  V30 4522 H 419.331 3.74532 -1.16053 0
M  V30 4523 H 420.821 4.16759 -0.264911 0
M  V30 4524 N 421.258 1.00505 1.21394 0
M  V30 4525 C 422.506 0.686415 1.90086 0
M  V30 4526 C 422.827 -0.785264 1.7849 0
M  V30 4527 O 422.097 -1.56387 1.17983 0
M  V30 4528 H 420.677 0.2509 0.703604 0
M  V30 4529 H 423.339 1.27417 1.47482 0
M  V30 4530 H 422.435 0.959621 2.96981 0
M  V30 4531 N 422.737 -1.36956 0.779787 0
M  V30 4532 C 423.983 -1.99787 0.348281 0
M  V30 4533 C 424.316 -1.61756 -1.07465 0
M  V30 4534 O 423.591 -0.867639 -1.74075 0
M  V30 4535 C 423.874 -3.56597 0.50104 0
M  V30 4536 C 423.727 -4.04513 1.96697 0
M  V30 4537 C 425.046 -4.40008 -0.0898097 0
M  V30 4538 H 422.165 -0.725796 0.128022 0
M  V30 4539 H 424.807 -1.62514 0.984331 0
M  V30 4540 H 422.957 -3.88479 -0.0404347 0
M  V30 4541 H 424.629 -3.83161 2.56876 0
M  V30 4542 H 422.872 -3.56408 2.47297 0
M  V30 4543 H 423.543 -5.1352 2.02486 0
M  V30 4544 H 426.019 -4.14431 0.372293 0
M  V30 4545 H 424.895 -5.4888 0.0471605 0
M  V30 4546 H 425.156 -4.26035 -1.18096 0
M  V30 4547 N 424.215 -0.530993 -1.48385 0
M  V30 4548 C 425.461 0.00274135 -2.028 0
M  V30 4549 C 425.794 1.33838 -1.40716 0
M  V30 4550 O 425.069 1.86465 -0.553277 0
M  V30 4551 C 425.352 0.123676 -3.59888 0
M  V30 4552 C 425.205 -1.2372 -4.3245 0
M  V30 4553 C 426.524 0.849967 -4.31814 0
M  V30 4554 H 423.643 -0.000477758 -0.737 0
M  V30 4555 H 426.285 -0.688217 -1.77098 0
M  V30 4556 H 424.435 0.712157 -3.81917 0
M  V30 4557 H 426.107 -1.86687 -4.21836 0
M  V30 4558 H 424.35 -1.81882 -3.93829 0
M  V30 4559 H 425.021 -1.10557 -5.40815 0
M  V30 4560 H 427.497 0.350572 -4.14621 0
M  V30 4561 H 426.373 0.903486 -5.41413 0
M  V30 4562 H 426.634 1.90047 -3.99167 0
M  V30 4563 N 425.693 1.55336 -0.266172 0
M  V30 4564 C 426.623 2.25146 0.618981 0
M  V30 4565 C 427.604 1.23845 1.16604 0
M  V30 4566 O 428.789 1.52544 1.20183 0
M  V30 4567 C 425.919 2.96572 1.80728 0
M  V30 4568 C 424.873 4.04726 1.39215 0
M  V30 4569 C 424.199 4.63678 2.66283 0
M  V30 4570 C 425.499 5.19407 0.548942 0
M  V30 4571 H 427.193 2.99377 0.0368116 0
M  V30 4572 H 424.739 1.43991 0.0162651 0
M  V30 4573 H 426.692 3.44116 2.43232 0
M  V30 4574 H 425.416 2.19861 2.41514 0
M  V30 4575 H 424.075 3.57979 0.790351 0
M  V30 4576 H 423.723 3.83646 3.25308 0
M  V30 4577 H 423.423 5.367 2.39222 0
M  V30 4578 H 424.947 5.13967 3.29651 0
M  V30 4579 H 426.361 5.63059 1.07876 0
M  V30 4580 H 424.758 5.98936 0.373593 0
M  V30 4581 H 425.828 4.8295 -0.434394 0
M  V30 4582 N 427.171 -0.0066808 1.57599 0
M  V30 4583 C 428.582 -0.550379 1.78403 0
M  V30 4584 C 428.933 -1.74339 0.900014 0
M  V30 4585 O 428.058 -2.16166 0.100713 0
M  V30 4586 C 428.653 -1.00523 3.23544 0
M  V30 4587 C 427.212 -1.49428 3.45468 0
M  V30 4588 C 426.359 -0.442444 2.73748 0
M  V30 4589 H 429.31 0.219508 1.57175 0
M  V30 4590 H 429.331 -1.87157 3.31289 0
M  V30 4591 H 428.843 -0.136735 3.87859 0
M  V30 4592 H 426.944 -2.3839 2.86358 0
M  V30 4593 H 427.057 -1.52635 4.54136 0
M  V30 4594 H 425.421 -0.902578 2.38171 0
M  V30 4595 H 426.204 0.416973 3.40758 0
M  V30 4596 N 428.649 -1.55105 -0.279332 0
M  V30 4597 C 429.596 -1.8755 -1.34513 0
M  V30 4598 C 430.566 -0.726384 -1.49375 0
M  V30 4599 O 431.751 -0.977063 -1.63884 0
M  V30 4600 C 428.891 -2.14738 -2.70151 0
M  V30 4601 C 428.004 -3.42285 -2.63562 0
M  V30 4602 C 427.139 -3.59206 -3.91337 0
M  V30 4603 C 426.178 -4.80467 -3.79233 0
M  V30 4604 N 425.315 -4.94079 -4.98829 0
M  V30 4605 H 430.155 -2.78456 -1.06143 0
M  V30 4606 H 427.692 -1.37867 -0.512936 0
M  V30 4607 H 429.65 -2.28501 -3.49061 0
M  V30 4608 H 428.28 -1.27075 -2.96735 0
M  V30 4609 H 427.332 -3.37029 -1.76397 0
M  V30 4610 H 428.644 -4.31328 -2.50515 0
M  V30 4611 H 427.798 -3.72751 -4.78687 0
M  V30 4612 H 426.537 -2.68337 -4.07243 0
M  V30 4613 H 425.542 -4.66932 -2.90266 0
M  V30 4614 H 426.767 -5.72765 -3.64852 0
M  V30 4615 H 424.713 -4.06139 -5.15158 0
M  V30 4616 H 424.63 -5.77156 -4.8829 0
M  V30 4617 H 425.898 -5.12003 -5.8777 0
M  V30 4618 N 430.127 0.543554 -1.4793 0
M  V30 4619 C 431.538 1.12561 -1.48953 0
M  V30 4620 C 431.889 1.94578 -0.251754 0
M  V30 4621 O 431.014 2.0665 0.642255 0
M  V30 4622 C 431.609 2.04801 -2.69892 0
M  V30 4623 C 430.168 2.58251 -2.73831 0
M  V30 4624 C 429.315 1.34918 -2.42265 0
M  V30 4625 H 432.266 0.32947 -1.55242 0
M  V30 4626 H 432.287 2.88886 -2.47639 0
M  V30 4627 H 431.799 1.4508 -3.59963 0
M  V30 4628 H 429.9 3.21732 -1.87934 0
M  V30 4629 H 430.013 2.98312 -3.74895 0
M  V30 4630 H 428.377 1.66046 -1.93134 0
M  V30 4631 H 429.16 0.769693 -3.3456 0
M  V30 4632 N 431.605 1.3629 0.791371 0
M  V30 4633 C 432.854 1.29742 1.54434 0
M  V30 4634 C 433.167 -0.121729 1.95221 0
M  V30 4635 O 434.373 -0.309579 2.69729 0
M  V30 4636 C 432.829 2.27623 2.78776 0
M  V30 4637 C 432.437 3.74963 2.45166 0
M  V30 4638 C 434.181 2.30047 3.56761 0
M  V30 4639 C 432.088 4.64626 3.65891 0
M  V30 4640 H 431.018 0.482113 0.579727 0
M  V30 4641 H 433.669 1.61642 0.868565 0
M  V30 4642 H 432.051 1.88714 3.48142 0
M  V30 4643 H 433.225 4.22596 1.83709 0
M  V30 4644 H 431.54 3.75295 1.80396 0
M  V30 4645 H 434.137 2.94247 4.46456 0
M  V30 4646 H 434.48 1.30846 3.95203 0
M  V30 4647 H 435.013 2.67563 2.94372 0
M  V30 4648 H 431.752 5.64883 3.32547 0
M  V30 4649 H 431.272 4.2171 4.26521 0
M  V30 4650 H 432.951 4.80801 4.32943 0
M  V30 4651 N 433.083 -1.0153 1.20538 0
M  V30 4652 C 434.046 -2.0826 0.957098 0
M  V30 4653 C 435.046 -1.60657 -0.0678655 0
M  V30 4654 O 436.236 -1.73385 0.168332 0
M  V30 4655 C 433.368 -3.38033 0.441188 0
M  V30 4656 H 434.561 -2.31719 1.90384 0
M  V30 4657 H 432.114 -1.1835 1.02093 0
M  V30 4658 H 432.849 -3.20249 -0.510961 0
M  V30 4659 H 432.634 -3.73911 1.18038 0
M  V30 4660 H 434.124 -4.16613 0.287009 0
M  V30 4661 N 434.561 -1.01147 -1.20859 0
M  V30 4662 C 435.789 -0.716911 -1.94082 0
M  V30 4663 C 436.204 0.721568 -1.74467 0
M  V30 4664 O 435.561 1.48889 -1.05539 0
M  V30 4665 C 435.612 -1.03662 -3.46318 0
M  V30 4666 O 435.333 -2.4186 -3.65288 0
M  V30 4667 C 436.834 -0.762386 -4.36695 0
M  V30 4668 H 434.054 -0.26367 -0.617024 0
M  V30 4669 H 436.598 -1.35127 -1.53496 0
M  V30 4670 H 434.753 -0.447757 -3.84804 0
M  V30 4671 H 435.167 -2.53224 -4.59323 0
M  V30 4672 H 436.641 -1.03621 -5.42187 0
M  V30 4673 H 437.118 0.303514 -4.3815 0
M  V30 4674 H 437.724 -1.33316 -4.03865 0
M  V30 4675 N 436.039 1.36541 -0.78704 0
M  V30 4676 C 437.279 2.01138 -0.363714 0
M  V30 4677 C 437.643 1.61114 1.04433 0
M  V30 4678 O 438.844 2.18285 1.56861 0
M  V30 4679 C 437.115 3.53603 -0.519582 0
M  V30 4680 S 438.674 4.38415 -0.183782 0
M  V30 4681 H 435.492 0.697263 -0.13909 0
M  V30 4682 H 438.094 1.66475 -1.02501 0
M  V30 4683 H 436.798 3.8022 -1.5447 0
M  V30 4684 H 436.329 3.93084 0.15773 0
M  V30 4685 H 438.344 4.85698 1.01547 0
M  V30 4686 N 437.518 0.538854 1.48102 0
M  V30 4687 C 438.934 0.19732 1.58376 0
M  V30 4688 C 439.134 -1.29971 1.5398 0
M  V30 4689 O 438.19 -2.07861 1.43352 0
M  V30 4690 C 439.503 0.807716 2.89649 0
M  V30 4691 C 441.051 0.77726 3.03196 0
M  V30 4692 C 441.526 1.36639 4.37143 0
M  V30 4693 N 443.017 1.32875 4.43732 0
M  V30 4694 C 443.752 1.7544 5.45901 0
M  V30 4695 N 443.248 2.25776 6.54979 0
M  V30 4696 N 445.041 1.66623 5.36836 0
M  V30 4697 H 437.192 1.5117 1.49202 0
M  V30 4698 H 439.455 0.629327 0.708979 0
M  V30 4699 H 439.161 1.85909 2.98548 0
M  V30 4700 H 439.035 0.289975 3.76084 0
M  V30 4701 H 441.422 -0.265374 2.93904 0
M  V30 4702 H 441.503 1.33256 2.18349 0
M  V30 4703 H 441.147 2.408 4.47189 0
M  V30 4704 H 441.077 0.786689 5.20691 0
M  V30 4705 H 443.568 0.96037 3.65493 0
M  V30 4706 H 443.881 2.56226 7.29087 0
M  V30 4707 H 442.226 2.29775 6.55918 0
M  V30 4708 H 445.417 1.27089 4.50517 0
M  V30 4709 H 445.59 2.00115 6.16326 0
M  V30 4710 N 438.996 -1.55193 0.274407 0
M  V30 4711 C 440.226 -2.03692 -0.345442 0
M  V30 4712 C 440.634 -1.15224 -1.50067 0
M  V30 4713 O 439.977 -0.164749 -1.8296 0
M  V30 4714 C 440.039 -3.48325 -0.88939 0
M  V30 4715 C 439.703 -4.56794 0.137115 0
M  V30 4716 C 440.7 -5.11028 0.956378 0
M  V30 4717 C 438.385 -5.01568 0.27115 0
M  V30 4718 C 440.379 -6.08552 1.89587 0
M  V30 4719 C 438.066 -5.98918 1.21412 0
M  V30 4720 C 439.064 -6.52291 2.02498 0
M  V30 4721 O 438.752 -7.47738 2.952 0
M  V30 4722 H 438.484 -0.670893 -0.0829332 0
M  V30 4723 H 441.038 -2.01387 0.404056 0
M  V30 4724 H 439.268 -3.47867 -1.68895 0
M  V30 4725 H 440.957 -3.80167 -1.42225 0
M  V30 4726 H 441.723 -4.7725 0.863559 0
M  V30 4727 H 437.602 -4.5967 -0.349987 0
M  V30 4728 H 441.146 -6.50137 2.52918 0
M  V30 4729 H 437.043 -6.32114 1.30776 0
M  V30 4730 H 437.811 -7.65451 2.89874 0
M  V30 4731 N 440.474 -0.00167713 -1.576 0
M  V30 4732 C 441.72 0.67819 -1.91761 0
M  V30 4733 C 442.075 1.71288 -0.876256 0
M  V30 4734 O 441.368 1.91276 0.111333 0
M  V30 4735 C 441.562 1.36189 -3.30435 0
M  V30 4736 C 441.391 0.394938 -4.47962 0
M  V30 4737 C 440.161 0.00472875 -5.053 0
M  V30 4738 C 442.359 -0.339521 -5.13178 0
M  V30 4739 N 440.341 -0.960257 -6.06343 0
M  V30 4740 C 441.712 -1.15914 -6.09068 0
M  V30 4741 C 443.767 -0.403177 -4.96265 0
M  V30 4742 C 442.47 -2.03661 -6.89866 0
M  V30 4743 C 444.496 -1.26788 -5.77649 0
M  V30 4744 C 443.858 -2.07535 -6.73134 0
M  V30 4745 H 439.957 0.221317 -0.750028 0
M  V30 4746 H 442.541 -0.0624182 -1.946 0
M  V30 4747 H 440.712 2.07278 -3.28467 0
M  V30 4748 H 442.444 1.99658 -3.52021 0
M  V30 4749 H 439.199 0.373452 -4.72125 0
M  V30 4750 H 439.623 -1.43817 -6.61548 0
M  V30 4751 H 444.265 0.206818 -4.22294 0
M  V30 4752 H 441.983 -2.65727 -7.63161 0
M  V30 4753 H 445.569 -1.32107 -5.66603 0
M  V30 4754 H 444.449 -2.73363 -7.35012 0
M  V30 4755 N 441.952 1.55251 0.271103 0
M  V30 4756 C 442.902 1.84649 1.33749 0
M  V30 4757 C 443.886 0.705529 1.44607 0
M  V30 4758 O 445.078 0.966916 1.48256 0
M  V30 4759 C 442.207 2.12354 2.69742 0
M  V30 4760 C 441.293 3.32714 2.62988 0
M  V30 4761 N 441.684 4.52575 2.25853 0
M  V30 4762 C 439.982 3.35341 2.94045 0
M  V30 4763 C 440.683 5.34669 2.29136 0
M  V30 4764 N 439.659 4.73123 2.67685 0
M  V30 4765 H 443.461 2.74865 1.0405 0
M  V30 4766 H 440.975 1.55152 0.479738 0
M  V30 4767 H 442.972 2.31572 3.4667 0
M  V30 4768 H 441.632 1.23422 3.00328 0
M  V30 4769 H 442.643 4.78639 1.978 0
M  V30 4770 H 439.32 2.56608 3.2933 0
M  V30 4771 H 440.71 6.40509 2.02971 0
M  V30 4772 N 443.43 -0.535701 1.48216 0
M  V30 4773 C 444.846 -0.863701 1.3421 0
M  V30 4774 C 445.046 -1.98458 0.34879 0
M  V30 4775 O 444.102 -2.51432 -0.23204 0
M  V30 4776 C 445.415 -1.23662 2.74095 0
M  V30 4777 C 446.963 -1.34683 2.82541 0
M  V30 4778 C 447.438 -1.75322 4.23115 0
M  V30 4779 N 448.929 -1.82434 4.2576 0
M  V30 4780 C 449.664 -2.15252 5.31464 0
M  V30 4781 N 449.16 -2.46533 6.47452 0
M  V30 4782 N 450.953 -2.16209 5.18855 0
M  V30 4783 H 443.104 0.203965 2.11418 0
M  V30 4784 H 445.367 0.0286033 0.947568 0
M  V30 4785 H 445.073 -0.486674 3.48316 0
M  V30 4786 H 444.947 -2.18805 3.07253 0
M  V30 4787 H 447.334 -2.08756 2.08579 0
M  V30 4788 H 447.415 -0.376756 2.5301 0
M  V30 4789 H 447.059 -1.01812 4.97591 0
M  V30 4790 H 446.989 -2.7337 4.50085 0
M  V30 4791 H 449.48 -1.6056 3.42095 0
M  V30 4792 H 449.793 -2.70662 7.23852 0
M  V30 4793 H 448.138 -2.44065 6.50736 0
M  V30 4794 H 451.329 -1.91224 4.2726 0
M  V30 4795 H 451.502 -2.41453 6.01335 0
M  V30 4796 N 444.908 -1.36708 -0.784132 0
M  V30 4797 C 446.133 -1.34565 -1.5782 0
M  V30 4798 C 446.558 0.0695257 -1.87971 0
M  V30 4799 O 445.916 1.04302 -1.48293 0
M  V30 4800 C 445.964 -2.17952 -2.87279 0
M  V30 4801 O 445.068 -1.57563 -3.81114 0
M  V30 4802 H 444.409 -0.460337 -0.478524 0
M  V30 4803 H 446.939 -1.80064 -0.971495 0
M  V30 4804 H 446.949 -2.30721 -3.365 0
M  V30 4805 H 445.624 -3.20823 -2.64661 0
M  V30 4806 H 444.201 -1.53764 -3.39722 0
M  V30 4807 N 446.386 1.0089 -1.21074 0
M  V30 4808 C 447.316 2.1145 -0.990523 0
M  V30 4809 C 448.297 1.69897 0.0831699 0
M  V30 4810 O 449.482 1.94052 -0.0758853 0
M  V30 4811 C 446.612 3.42914 -0.550177 0
M  V30 4812 C 445.566 3.98244 -1.56799 0
M  V30 4813 C 444.892 5.25568 -0.984013 0
M  V30 4814 C 446.192 4.30752 -2.95381 0
M  V30 4815 H 447.886 2.3013 -1.91521 0
M  V30 4816 H 445.432 1.10592 -0.92225 0
M  V30 4817 H 447.385 4.19653 -0.383305 0
M  V30 4818 H 446.109 3.24014 0.41015 0
M  V30 4819 H 444.768 3.23621 -1.72236 0
M  V30 4820 H 444.416 5.02998 -0.0155216 0
M  V30 4821 H 444.116 5.63551 -1.66384 0
M  V30 4822 H 445.64 6.04955 -0.828378 0
M  V30 4823 H 447.054 4.98349 -2.8341 0
M  V30 4824 H 445.451 4.79869 -3.60341 0
M  V30 4825 H 446.521 3.39192 -3.46521 0
M  V30 4826 N 447.864 1.01787 1.20321 0
M  V30 4827 C 448.812 0.58254 2.25187 0
M  V30 4828 C 449.806 -0.379359 1.65098 0
M  V30 4829 O 451.012 -0.249142 1.78267 0
M  V30 4830 H 447.387 0.170078 0.732514 0
M  V30 4831 H 449.358 1.47788 2.59232 0
M  V30 4832 C 448.107 -0.0620885 3.47645 0
M  V30 4833 H 447.43 0.669069 3.94162 0
M  V30 4834 H 448.87 -0.329784 4.22716 0
M  V30 4835 C 447.329 -1.3053 3.10586 0
M  V30 4836 O 447.859 -2.39848 3.22236 0
M  V30 4837 N 446.065 -1.18988 2.65123 0
M  V30 4838 H 445.612 -0.300341 2.55843 0
M  V30 4839 H 445.57 -2.02267 2.40698 0
M  V30 4840 N 449.342 -1.36122 0.79427 0
M  V30 4841 C 450.753 -1.81646 0.431446 0
M  V30 4842 C 451.104 -1.66043 -1.04518 0
M  V30 4843 O 450.229 -1.1841 -1.8113 0
M  V30 4844 C 450.824 -3.29785 0.776341 0
M  V30 4845 C 449.383 -3.73501 0.466282 0
M  V30 4846 C 448.53 -2.58313 1.00844 0
M  V30 4847 H 451.481 -1.24274 0.986995 0
M  V30 4848 H 451.502 -3.80437 0.0692413 0
M  V30 4849 H 451.014 -3.4111 1.8511 0
M  V30 4850 H 449.115 -3.67733 -0.600245 0
M  V30 4851 H 449.228 -4.68754 0.990288 0
M  V30 4852 H 447.592 -2.5102 0.431406 0
M  V30 4853 H 448.375 -2.72421 2.08906 0
M  V30 4854 N 450.82 -0.546701 -1.47814 0
M  V30 4855 C 452.236 -0.205717 -1.58269 0
M  V30 4856 C 452.436 1.29153 -1.54667 0
M  V30 4857 O 451.492 2.07098 -1.44453 0
M  V30 4858 C 452.805 -0.823065 -2.89216 0
M  V30 4859 C 454.353 -0.793328 -3.02779 0
M  V30 4860 C 454.828 -1.38955 -4.36412 0
M  V30 4861 N 456.319 -1.35227 -4.43021 0
M  V30 4862 C 457.054 -1.78333 -5.44963 0
M  V30 4863 N 456.55 -2.29246 -6.53772 0
M  V30 4864 N 458.343 -1.69467 -5.35945 0
M  V30 4865 H 450.494 -1.5196 -1.48398 0
M  V30 4866 H 452.757 -0.633078 -0.705632 0
M  V30 4867 H 452.463 -1.8749 -2.97558 0
M  V30 4868 H 452.337 -0.309915 -3.75925 0
M  V30 4869 H 454.724 0.249784 -2.94041 0
M  V30 4870 H 454.805 -1.34412 -2.17639 0
M  V30 4871 H 454.449 -2.43168 -4.45906 0
M  V30 4872 H 454.379 -0.814291 -5.20266 0
M  V30 4873 H 456.87 -0.979739 -3.64979 0
M  V30 4874 H 457.183 -2.60089 -7.27718 0
M  V30 4875 H 455.528 -2.3325 -6.5469 0
M  V30 4876 H 458.719 -1.29477 -4.49837 0
M  V30 4877 H 458.892 -2.03381 -6.15256 0
M  V30 4878 N 452.299 1.55045 -0.282633 0
M  V30 4879 C 453.246 2.22822 0.601566 0
M  V30 4880 C 454.216 1.20431 1.14392 0
M  V30 4881 O 455.401 1.48996 1.19184 0
M  V30 4882 C 452.541 2.95873 1.77632 0
M  V30 4883 C 451.654 4.12999 1.26711 0
M  V30 4884 C 450.789 4.73676 2.40426 0
M  V30 4885 C 449.828 5.82981 1.86545 0
M  V30 4886 N 448.965 6.3769 2.93762 0
M  V30 4887 H 453.805 2.97995 0.0169528 0
M  V30 4888 H 451.342 1.471 -0.00339964 0
M  V30 4889 H 453.3 3.36447 2.46697 0
M  V30 4890 H 451.93 2.2311 2.33285 0
M  V30 4891 H 450.982 3.77494 0.469314 0
M  V30 4892 H 452.294 4.91803 0.832518 0
M  V30 4893 H 451.448 5.17008 3.17471 0
M  V30 4894 H 450.187 3.94164 2.87203 0
M  V30 4895 H 449.192 5.39092 1.07983 0
M  V30 4896 H 450.417 6.64366 1.40694 0
M  V30 4897 H 448.363 5.61069 3.39908 0
M  V30 4898 H 448.28 7.11788 2.54744 0
M  V30 4899 H 449.548 6.8568 3.7076 0
M  V30 4900 N 453.777 0.010035 1.57597 0
M  V30 4901 C 454.707 -0.976857 2.12084 0
M  V30 4902 C 455.688 -1.35191 1.03235 0
M  V30 4903 O 456.873 -1.43389 1.3097 0
M  V30 4904 C 454.003 -2.26548 2.63236 0
M  V30 4905 C 452.957 -2.03175 3.76701 0
M  V30 4906 C 452.283 -3.38138 4.14206 0
M  V30 4907 C 453.583 -1.38625 5.03568 0
M  V30 4908 H 455.277 -0.523145 2.94794 0
M  V30 4909 H 452.823 -0.250195 1.4181 0
M  V30 4910 H 454.776 -2.95952 2.99984 0
M  V30 4911 H 453.5 -2.74051 1.77661 0
M  V30 4912 H 452.159 -1.36195 3.40362 0
M  V30 4913 H 451.807 -3.83363 3.25641 0
M  V30 4914 H 451.507 -3.23312 4.90656 0
M  V30 4915 H 453.031 -4.08841 4.53521 0
M  V30 4916 H 454.445 -1.98 5.38023 0
M  V30 4917 H 452.842 -1.34256 5.84889 0
M  V30 4918 H 453.912 -0.356722 4.83586 0
M  V30 4919 N 455.255 -1.55392 -0.262866 0
M  V30 4920 C 456.501 -1.76737 -0.99458 0
M  V30 4921 C 456.834 -0.572453 -1.85571 0
M  V30 4922 O 456.109 0.429732 -1.89693 0
M  V30 4923 C 456.392 -3.07824 -1.8686 0
M  V30 4924 C 456.245 -4.3769 -1.03672 0
M  V30 4925 C 457.564 -3.35021 -2.85393 0
M  V30 4926 H 454.683 -0.643005 -0.360157 0
M  V30 4927 H 457.325 -1.88126 -0.266216 0
M  V30 4928 H 455.475 -2.98245 -2.48962 0
M  V30 4929 H 457.147 -4.59238 -0.43563 0
M  V30 4930 H 455.39 -4.32461 -0.340513 0
M  V30 4931 H 456.061 -5.25759 -1.6817 0
M  V30 4932 H 458.537 -3.44458 -2.33426 0
M  V30 4933 H 457.413 -4.27989 -3.43681 0
M  V30 4934 H 457.674 -2.55153 -3.61039 0
M  V30 4935 N 456.733 0.527833 -1.48498 0
M  V30 4936 C 457.643 1.65907 -1.65867 0
M  V30 4937 C 458.659 1.6537 -0.541192 0
M  V30 4938 O 459.835 1.84282 -0.812534 0
M  V30 4939 C 456.9 3.02364 -1.69637 0
M  V30 4940 C 455.961 3.1374 -2.93028 0
M  V30 4941 C 455.194 4.43688 -2.96609 0
M  V30 4942 O 455.417 5.30913 -2.08538 0
M  V30 4943 O 454.351 4.59475 -3.88802 0
M  V30 4944 H 458.177 1.5419 -2.61647 0
M  V30 4945 H 455.762 0.701163 -1.31924 0
M  V30 4946 H 457.644 3.83515 -1.74625 0
M  V30 4947 H 456.319 3.14401 -0.770312 0
M  V30 4948 H 455.226 2.31877 -2.93571 0
M  V30 4949 H 456.559 3.06621 -3.85026 0
M  V30 4950 N 458.211 1.37122 0.776871 0
M  V30 4951 C 459.457 1.32243 1.53752 0
M  V30 4952 C 459.79 -0.0944745 1.9397 0
M  V30 4953 O 459.065 -1.05068 1.6368 0
M  V30 4954 C 459.348 2.25681 2.80607 0
M  V30 4955 C 459.201 3.76127 2.46676 0
M  V30 4956 C 460.52 2.17657 3.82509 0
M  V30 4957 H 457.639 0.481704 0.557791 0
M  V30 4958 H 460.281 1.6778 0.891612 0
M  V30 4959 H 458.431 1.95505 3.35723 0
M  V30 4960 H 460.103 4.16877 1.97513 0
M  V30 4961 H 458.346 3.94946 1.79443 0
M  V30 4962 H 459.017 4.36933 3.37333 0
M  V30 4963 H 461.493 2.44245 3.36873 0
M  V30 4964 H 460.369 2.85185 4.69 0
M  V30 4965 H 460.63 1.16785 4.26396 0
M  V30 4966 N 459.689 -1.00246 1.21608 0
M  V30 4967 C 460.636 -2.09073 0.977613 0
M  V30 4968 C 461.606 -1.65815 -0.097297 0
M  V30 4969 O 462.791 -1.90734 0.0503445 0
M  V30 4970 C 459.931 -3.40671 0.551133 0
M  V30 4971 C 459.044 -3.97326 1.69576 0
M  V30 4972 C 458.179 -5.17043 1.2182 0
M  V30 4973 C 457.218 -5.65813 2.335 0
M  V30 4974 N 456.355 -6.76778 1.86859 0
M  V30 4975 H 461.195 -2.28806 1.90924 0
M  V30 4976 H 458.732 -1.12186 0.951452 0
M  V30 4977 H 460.69 -4.16225 0.285097 0
M  V30 4978 H 459.32 -3.20967 -0.343489 0
M  V30 4979 H 458.372 -3.18734 2.07637 0
M  V30 4980 H 459.684 -4.29511 2.53617 0
M  V30 4981 H 458.838 -5.99852 0.908975 0
M  V30 4982 H 457.577 -4.86458 0.347869 0
M  V30 4983 H 456.582 -4.81599 2.65222 0
M  V30 4984 H 457.807 -5.98427 3.21033 0
M  V30 4985 H 455.753 -6.47994 1.02174 0
M  V30 4986 H 455.67 -7.08231 2.64471 0
M  V30 4987 H 456.938 -7.63116 1.58978 0
M  V30 4988 N 461.167 -1.02423 -1.1978 0
M  V30 4989 C 462.414 -0.717988 -1.89344 0
M  V30 4990 C 462.742 0.753036 -1.79331 0
M  V30 4991 O 461.997 1.56355 -1.17692 0
M  V30 4992 C 462.296 -1.1088 -3.39765 0
M  V30 4993 C 461.962 -2.57731 -3.6998 0
M  V30 4994 C 460.624 -2.97854 -3.77937 0
M  V30 4995 C 462.976 -3.52763 -3.83677 0
M  V30 4996 C 460.304 -4.31931 -3.97054 0
M  V30 4997 C 462.656 -4.86538 -4.04306 0
M  V30 4998 C 461.32 -5.26356 -4.10494 0
M  V30 4999 H 460.59 -0.26273 -0.692859 0
M  V30 5000 H 463.237 -1.28623 -1.41875 0
M  V30 5001 H 461.542 -0.459094 -3.89101 0
M  V30 5002 H 463.239 -0.849432 -3.919 0
M  V30 5003 H 459.829 -2.25646 -3.64393 0
M  V30 5004 H 464.013 -3.2292 -3.76877 0
M  V30 5005 H 459.269 -4.62324 -4.00083 0
M  V30 5006 H 463.443 -5.60093 -4.13846 0
M  V30 5007 H 461.07 -6.3026 -4.2506 0
M  V30 5008 N 462.645 1.35699 -0.801477 0
M  V30 5009 C 463.87 2.03687 -0.390678 0
M  V30 5010 C 464.295 1.60015 0.988778 0
M  V30 5011 O 463.653 0.774357 1.63931 0
M  V30 5012 C 463.701 3.57439 -0.476404 0
M  V30 5013 O 462.805 4.09208 0.512106 0
M  V30 5014 H 462.146 0.64344 -0.163956 0
M  V30 5015 H 464.676 1.73403 -1.08594 0
M  V30 5016 H 464.686 4.06544 -0.344357 0
M  V30 5017 H 463.361 3.88576 -1.48262 0
M  V30 5018 H 461.938 3.7134 0.340721 0
M  V30 5019 N 464.123 0.554532 1.47522 0
M  V30 5020 C 465.073 -0.215008 2.26984 0
M  V30 5021 C 466.057 -0.88774 1.34194 0
M  V30 5022 O 467.249 -0.786489 1.58567 0
M  V30 5023 C 464.378 -1.24604 3.19889 0
M  V30 5024 C 463.464 -0.576857 4.20159 0
M  V30 5025 N 463.855 0.351541 5.04577 0
M  V30 5026 C 462.153 -0.831104 4.38188 0
M  V30 5027 C 462.854 0.739995 5.76974 0
M  V30 5028 N 461.83 0.0954407 5.43516 0
M  V30 5029 H 465.632 0.498843 2.89636 0
M  V30 5030 H 463.146 0.374279 1.58028 0
M  V30 5031 H 465.143 -1.81128 3.75498 0
M  V30 5032 H 463.803 -1.96101 2.58794 0
M  V30 5033 H 464.814 0.725556 5.12792 0
M  V30 5034 H 461.491 -1.53479 3.88266 0
M  V30 5035 H 462.881 1.50271 6.5488 0
M  V30 5036 N 465.601 -1.54893 0.290851 0
M  V30 5037 C 466.531 -2.26103 -0.583084 0
M  V30 5038 C 467.512 -1.25684 -1.14619 0
M  V30 5039 O 468.697 -1.54436 -1.17741 0
M  V30 5040 C 465.827 -2.99409 -1.75987 0
M  V30 5041 C 464.781 -4.0689 -1.32758 0
M  V30 5042 C 464.107 -4.67856 -2.58872 0
M  V30 5043 C 465.407 -5.20215 -0.46624 0
M  V30 5044 H 467.101 -2.99398 0.0108214 0
M  V30 5045 H 464.647 -1.43998 0.00664468 0
M  V30 5046 H 466.6 -3.47943 -2.37727 0
M  V30 5047 H 465.324 -2.23675 -2.37985 0
M  V30 5048 H 463.983 -3.59191 -0.733299 0
M  V30 5049 H 463.631 -3.88772 -3.19163 0
M  V30 5050 H 463.331 -5.40438 -2.30653 0
M  V30 5051 H 464.855 -5.19147 -3.21433 0
M  V30 5052 H 466.269 -5.64704 -0.989047 0
M  V30 5053 H 464.666 -5.99455 -0.27826 0
M  V30 5054 H 465.736 -4.82198 0.511173 0
M  V30 5055 N 467.08 -0.0183926 -1.57589 0
M  V30 5056 C 468.305 0.676634 -1.96052 0
M  V30 5057 C 468.73 1.6548 -0.894307 0
M  V30 5058 O 468.088 1.80712 0.145849 0
M  V30 5059 C 468.136 1.36872 -3.33614 0
M  V30 5060 O 467.24 2.48372 -3.29219 0
M  V30 5061 H 466.581 0.1786 -0.63953 0
M  V30 5062 H 469.111 -0.077056 -2.04455 0
M  V30 5063 H 469.121 1.72797 -3.69601 0
M  V30 5064 H 467.796 0.651636 -4.10763 0
M  V30 5065 H 466.373 2.14639 -3.04934 0
M  V30 5066 N 468.558 1.5553 0.254621 0
M  V30 5067 C 469.974 1.4778 0.602753 0
M  V30 5068 C 470.174 0.707047 1.88688 0
M  V30 5069 O 469.23 0.233288 2.5142 0
M  V30 5070 C 470.543 2.92133 0.712648 0
M  V30 5071 C 472.091 3.02458 0.805488 0
M  V30 5072 C 472.566 4.48102 0.947009 0
M  V30 5073 N 474.057 4.52008 1.01207 0
M  V30 5074 C 474.792 5.61939 1.1407 0
M  V30 5075 N 474.288 6.81697 1.23536 0
M  V30 5076 N 476.081 5.49719 1.17325 0
M  V30 5077 H 468.232 2.04085 -0.588463 0
M  V30 5078 H 470.495 0.926229 -0.202001 0
M  V30 5079 H 470.201 3.51332 -0.160766 0
M  V30 5080 H 470.075 3.42187 1.58707 0
M  V30 5081 H 472.462 2.43344 1.66936 0
M  V30 5082 H 472.543 2.55627 -0.0939266 0
M  V30 5083 H 472.187 5.07824 0.087725 0
M  V30 5084 H 472.117 4.92607 1.86135 0
M  V30 5085 H 474.608 3.65749 0.950577 0
M  V30 5086 H 474.921 7.61228 1.33236 0
M  V30 5087 H 473.266 6.84473 1.20508 0
M  V30 5088 H 476.457 4.55095 1.09573 0
M  V30 5089 H 476.63 6.35432 1.27005 0
M  V30 5090 N 470.036 -0.519951 1.48776 0
M  V30 5091 C 470.984 -1.64443 1.64503 0
M  V30 5092 C 471.978 -1.61501 0.511248 0
M  V30 5093 O 473.184 -1.66238 0.690294 0
M  V30 5094 H 469.559 -0.544776 0.518385 0
M  V30 5095 H 471.53 -1.48325 2.58925 0
M  V30 5096 C 470.279 -3.02673 1.71127 0
M  V30 5097 H 469.602 -3.05635 2.57735 0
M  V30 5098 H 471.042 -3.80941 1.86172 0
M  V30 5099 C 469.501 -3.33854 0.452032 0
M  V30 5100 O 470.031 -3.99385 -0.430678 0
M  V30 5101 N 468.237 -2.88825 0.32069 0
M  V30 5102 H 467.784 -2.35674 1.03998 0
M  V30 5103 H 467.742 -3.10056 -0.520814 0
M  V30 5104 N 471.514 -1.37532 -0.769588 0
M  V30 5105 C 472.447 -1.27839 -1.8903 0
M  V30 5106 C 473.425 -0.158504 -1.61826 0
M  V30 5107 O 474.609 -0.333086 -1.85534 0
M  V30 5108 C 471.736 -0.977072 -3.24301 0
M  V30 5109 C 470.782 -2.11414 -3.70414 0
M  V30 5110 S 471.615 -3.73409 -3.83831 0
M  V30 5111 C 472.771 -3.45432 -5.21946 0
M  V30 5112 H 473.004 -2.22694 -1.96963 0
M  V30 5113 H 470.537 -1.2318 -0.930914 0
M  V30 5114 H 472.495 -0.810049 -4.02428 0
M  V30 5115 H 471.156 -0.0459701 -3.14066 0
M  V30 5116 H 470.349 -1.85837 -4.68488 0
M  V30 5117 H 469.951 -2.24141 -2.99394 0
M  V30 5118 H 472.243 -3.00554 -6.07185 0
M  V30 5119 H 473.186 -4.42841 -5.52537 0
M  V30 5120 H 473.594 -2.80311 -4.89986 0
M  V30 5121 N 472.992 0.995999 -1.22138 0
M  V30 5122 C 474.22 1.77066 -1.07029 0
M  V30 5123 C 474.635 1.8495 0.379357 0
M  V30 5124 O 473.992 1.3174 1.26297 0
M  V30 5125 C 474.043 3.20533 -1.67155 0
M  V30 5126 O 473.764 3.13082 -3.06449 0
M  V30 5127 C 475.265 4.14461 -1.5728 0
M  V30 5128 H 472.485 0.556179 -0.375374 0
M  V30 5129 H 475.029 1.25238 -1.61666 0
M  V30 5130 H 473.184 3.6944 -1.16589 0
M  V30 5131 H 473.598 4.03283 -3.35355 0
M  V30 5132 H 475.072 5.1289 -2.04078 0
M  V30 5133 H 475.549 4.36005 -0.528795 0
M  V30 5134 H 476.155 3.71449 -2.07136 0
M  V30 5135 N 474.47 1.03057 1.19235 0
M  V30 5136 C 475.4 0.633497 2.24742 0
M  V30 5137 C 476.381 -0.358335 1.66283 0
M  V30 5138 O 477.566 -0.240676 1.92703 0
M  V30 5139 C 474.696 -0.0147648 3.47297 0
M  V30 5140 C 473.65 0.899527 4.18441 0
M  V30 5141 C 472.976 0.116281 5.34574 0
M  V30 5142 C 474.276 2.21404 4.73051 0
M  V30 5143 H 475.97 1.5155 2.58211 0
M  V30 5144 H 473.516 0.73014 1.24117 0
M  V30 5145 H 475.469 -0.304202 4.20301 0
M  V30 5146 H 474.193 -0.931577 3.13032 0
M  V30 5147 H 472.852 1.17319 3.47321 0
M  V30 5148 H 472.5 -0.802619 4.96555 0
M  V30 5149 H 472.2 0.725293 5.83107 0
M  V30 5150 H 473.724 -0.166376 6.10373 0
M  V30 5151 H 475.138 1.98601 5.37802 0
M  V30 5152 H 473.535 2.77512 5.32078 0
M  V30 5153 H 474.605 2.86752 3.91026 0
M  V30 5154 N 475.948 -1.35272 0.808662 0
M  V30 5155 C 476.88 -2.28507 0.178149 0
M  V30 5156 C 477.893 -1.50377 -0.623754 0
M  V30 5157 O 479.082 -1.72583 -0.455774 0
M  V30 5158 C 476.182 -3.30038 -0.769959 0
M  V30 5159 C 475.355 -4.37398 -0.0139749 0
M  V30 5160 C 474.414 -5.18775 -0.880875 0
M  V30 5161 O 473.44 -5.68236 -0.331059 0
M  V30 5162 N 474.642 -5.37087 -2.20267 0
M  V30 5163 H 477.407 -2.83255 0.979106 0
M  V30 5164 H 474.968 -1.47643 0.664308 0
M  V30 5165 H 476.96 -3.81371 -1.35418 0
M  V30 5166 H 475.53 -2.75789 -1.47171 0
M  V30 5167 H 474.75 -3.86971 0.751468 0
M  V30 5168 H 476.038 -5.06268 0.506965 0
M  V30 5169 H 475.436 -4.9855 -2.67328 0
M  V30 5170 H 473.993 -5.91593 -2.73608 0
M  V30 5171 N 477.426 -0.562348 -1.47226 0
M  V30 5172 C 478.842 -0.222492 -1.58042 0
M  V30 5173 C 479.042 1.27505 -1.56028 0
M  V30 5174 O 478.098 2.05555 -1.46641 0
M  V30 5175 C 479.411 -0.853694 -2.88327 0
M  V30 5176 C 480.959 -0.825397 -3.01921 0
M  V30 5177 C 481.434 -1.43576 -4.34914 0
M  V30 5178 N 482.925 -1.39918 -4.41562 0
M  V30 5179 C 483.66 -1.84103 -5.43041 0
M  V30 5180 N 483.156 -2.36167 -6.51304 0
M  V30 5181 N 484.949 -1.75142 -5.34118 0
M  V30 5182 H 477.1 -1.53525 -1.46778 0
M  V30 5183 H 479.363 -0.640527 -0.698877 0
M  V30 5184 H 479.069 -1.90635 -2.95552 0
M  V30 5185 H 478.943 -0.34977 -3.75575 0
M  V30 5186 H 481.33 0.218583 -2.94289 0
M  V30 5187 H 481.411 -1.36713 -2.16202 0
M  V30 5188 H 481.055 -2.47884 -4.43301 0
M  V30 5189 H 480.985 -0.869427 -5.19373 0
M  V30 5190 H 483.476 -1.0184 -3.63919 0
M  V30 5191 H 483.789 -2.67793 -7.24919 0
M  V30 5192 H 482.134 -2.40181 -6.52179 0
M  V30 5193 H 485.325 -1.34241 -4.48439 0
M  V30 5194 H 485.498 -2.09895 -6.13065 0
M  V30 5195 N 478.904 1.54736 -0.299062 0
M  V30 5196 C 480.132 2.04512 0.313447 0
M  V30 5197 C 480.547 1.17643 1.47667 0
M  V30 5198 O 479.904 0.20164 1.81383 0
M  V30 5199 C 479.955 3.53171 0.771542 0
M  V30 5200 O 479.676 4.36736 -0.345379 0
M  V30 5201 C 481.177 4.18936 1.4494 0
M  V30 5202 H 478.397 0.667507 0.0683784 0
M  V30 5203 H 480.941 1.99752 -0.438129 0
M  V30 5204 H 479.096 3.58298 1.47314 0
M  V30 5205 H 479.51 5.24499 0.0109219 0
M  V30 5206 H 480.984 5.24482 1.72111 0
M  V30 5207 H 481.461 3.68554 2.38883 0
M  V30 5208 H 482.067 4.17879 0.791028 0
M  V30 5209 N 480.382 0.0267497 1.57577 0
M  V30 5210 C 481.315 -0.99059 2.05579 0
M  V30 5211 C 482.293 -1.31884 0.951065 0
M  V30 5212 O 483.477 -1.43592 1.22121 0
M  V30 5213 C 480.604 -2.31125 2.47586 0
M  V30 5214 C 479.65 -2.13777 3.69055 0
M  V30 5215 S 480.483 -1.4388 5.15809 0
M  V30 5216 C 481.639 -2.77321 5.6111 0
M  V30 5217 H 481.872 -0.581976 2.91548 0
M  V30 5218 H 479.405 -0.184876 1.53289 0
M  V30 5219 H 481.363 -3.07049 2.72454 0
M  V30 5220 H 480.024 -2.6912 1.61967 0
M  V30 5221 H 479.217 -3.11405 3.96287 0
M  V30 5222 H 478.819 -1.45996 3.44327 0
M  V30 5223 H 481.111 -3.73565 5.65204 0
M  V30 5224 H 482.054 -2.54756 6.60685 0
M  V30 5225 H 482.462 -2.82459 4.88751 0
M  V30 5226 N 481.861 -1.55662 -0.24637 0
M  V30 5227 C 482.808 -1.90361 -1.30504 0
M  V30 5228 C 483.778 -0.757905 -1.47801 0
M  V30 5229 O 484.963 -1.01161 -1.61775 0
M  V30 5230 C 482.103 -2.2042 -2.65535 0
M  V30 5231 C 481.216 -3.47799 -2.56242 0
M  V30 5232 C 480.351 -3.67426 -3.8363 0
M  V30 5233 C 479.39 -4.88403 -3.68956 0
M  V30 5234 N 478.527 -5.04548 -4.88237 0
M  V30 5235 H 483.367 -2.80645 -1.00213 0
M  V30 5236 H 480.904 -1.38924 -0.483577 0
M  V30 5237 H 482.862 -2.35853 -3.44135 0
M  V30 5238 H 481.492 -1.3334 -2.93973 0
M  V30 5239 H 480.544 -3.40694 -1.69208 0
M  V30 5240 H 481.856 -4.36544 -2.4131 0
M  V30 5241 H 481.01 -3.82821 -4.70673 0
M  V30 5242 H 479.749 -2.76914 -4.01459 0
M  V30 5243 H 478.754 -4.72984 -2.80296 0
M  V30 5244 H 479.979 -5.80375 -3.52621 0
M  V30 5245 H 477.925 -4.16974 -5.06427 0
M  V30 5246 H 477.842 -5.87384 -4.75937 0
M  V30 5247 H 479.11 -5.24355 -5.76777 0
M  V30 5248 N 483.339 0.512053 -1.4905 0
M  V30 5249 C 484.269 1.62365 -1.67809 0
M  V30 5250 C 485.25 1.61737 -0.526809 0
M  V30 5251 O 486.435 1.78651 -0.761404 0
M  V30 5252 C 483.565 3.00895 -1.73435 0
M  V30 5253 C 482.519 3.16387 -2.88242 0
M  V30 5254 C 481.845 4.56157 -2.78971 0
M  V30 5255 C 483.145 2.97457 -4.29321 0
M  V30 5256 H 484.839 1.46921 -2.60873 0
M  V30 5257 H 482.385 0.705379 -1.2554 0
M  V30 5258 H 484.338 3.78549 -1.85145 0
M  V30 5259 H 483.062 3.17403 -0.769619 0
M  V30 5260 H 481.721 2.41155 -2.76116 0
M  V30 5261 H 481.369 4.69525 -1.8043 0
M  V30 5262 H 481.069 4.67465 -3.5602 0
M  V30 5263 H 482.593 5.35886 -2.92675 0
M  V30 5264 H 484.007 3.64888 -4.42187 0
M  V30 5265 H 482.404 3.20245 -5.07507 0
M  V30 5266 H 483.474 1.93692 -4.44535 0
M  V30 5267 N 484.817 1.37938 0.762283 0
M  V30 5268 C 486.047 1.36685 1.54922 0
M  V30 5269 C 486.455 -0.0474099 1.89141 0
M  V30 5270 O 485.798 -1.02213 1.52638 0
M  V30 5271 C 485.86 2.14963 2.88152 0
M  V30 5272 C 485.524 3.6385 2.76518 0
M  V30 5273 C 486.521 4.57531 2.46904 0
M  V30 5274 C 484.206 4.07095 2.94243 0
M  V30 5275 C 486.2 5.92436 2.35156 0
M  V30 5276 C 483.887 5.42083 2.82116 0
M  V30 5277 C 484.885 6.34567 2.52614 0
M  V30 5278 O 484.573 7.67073 2.40529 0
M  V30 5279 H 484.305 0.469586 0.486276 0
M  V30 5280 H 486.859 1.82012 0.951876 0
M  V30 5281 H 485.089 1.6434 3.50042 0
M  V30 5282 H 486.778 2.06224 3.49609 0
M  V30 5283 H 487.544 4.25428 2.32886 0
M  V30 5284 H 483.423 3.35462 3.16206 0
M  V30 5285 H 486.967 6.64591 2.12049 0
M  V30 5286 H 482.864 5.73785 2.95704 0
M  V30 5287 H 483.632 7.77499 2.55807 0
M  V30 5288 N 486.295 -0.989507 1.22664 0
M  V30 5289 C 487.711 -1.25395 0.987331 0
M  V30 5290 C 487.911 -1.9899 -0.317056 0
M  V30 5291 O 486.967 -2.30141 -1.03882 0
M  V30 5292 C 488.28 -2.06242 2.18826 0
M  V30 5293 C 489.828 -2.19413 2.23219 0
M  V30 5294 C 490.303 -3.03648 3.42873 0
M  V30 5295 N 491.794 -3.11234 3.43056 0
M  V30 5296 C 492.529 -3.7671 4.32293 0
M  V30 5297 N 492.025 -4.44085 5.31752 0
M  V30 5298 N 493.818 -3.73505 4.2006 0
M  V30 5299 H 485.969 -0.496212 2.06522 0
M  V30 5300 H 488.232 -0.281784 0.905153 0
M  V30 5301 H 487.938 -1.59531 3.13437 0
M  V30 5302 H 487.812 -3.06996 2.19165 0
M  V30 5303 H 490.199 -2.65336 1.29154 0
M  V30 5304 H 490.28 -1.18078 2.26917 0
M  V30 5305 H 489.924 -2.58424 4.37241 0
M  V30 5306 H 489.854 -4.05132 3.36416 0
M  V30 5307 H 492.345 -2.63287 2.71088 0
M  V30 5308 H 492.658 -4.91797 5.96117 0
M  V30 5309 H 491.003 -4.42822 5.35662 0
M  V30 5310 H 494.194 -3.20033 3.41609 0
M  V30 5311 H 494.367 -4.24253 4.8981 0
M  V30 5312 N 487.773 -1.03688 -1.18687 0
M  V30 5313 C 488.703 -0.645407 -2.24403 0
M  V30 5314 C 489.684 0.349511 -1.66471 0
M  V30 5315 O 490.869 0.230453 -1.92828 0
M  V30 5316 C 487.999 -0.00365337 -3.473 0
M  V30 5317 C 486.953 -0.921705 -4.17958 0
M  V30 5318 C 486.279 -0.144629 -5.34504 0
M  V30 5319 C 487.579 -2.23909 -4.71871 0
M  V30 5320 H 489.273 -1.52917 -2.57404 0
M  V30 5321 H 486.819 -0.736711 -1.23728 0
M  V30 5322 H 488.772 0.281908 -4.20456 0
M  V30 5323 H 487.496 0.914963 -3.13522 0
M  V30 5324 H 486.155 -1.19159 -3.46694 0
M  V30 5325 H 485.803 0.776274 -4.96974 0
M  V30 5326 H 485.503 -0.756206 -5.82714 0
M  V30 5327 H 487.027 0.134004 -6.10453 0
M  V30 5328 H 488.441 -2.0145 -5.36741 0
M  V30 5329 H 486.838 -2.8033 -5.30599 0
M  V30 5330 H 487.908 -2.88822 -3.895 0
M  V30 5331 N 489.251 1.34841 -0.815825 0
M  V30 5332 C 490.662 1.80937 -0.46029 0
M  V30 5333 C 491.013 1.67685 1.01863 0
M  V30 5334 O 490.138 1.21277 1.79223 0
M  V30 5335 C 490.733 3.28509 -0.828708 0
M  V30 5336 C 489.292 3.72712 -0.525644 0
M  V30 5337 C 488.439 2.56676 -1.04941 0
M  V30 5338 H 491.39 1.22688 -1.00664 0
M  V30 5339 H 491.411 3.80279 -0.129757 0
M  V30 5340 H 490.923 3.38122 -1.90513 0
M  V30 5341 H 489.024 3.68642 0.541666 0
M  V30 5342 H 489.137 4.67119 -1.06474 0
M  V30 5343 H 487.501 2.50302 -0.471286 0
M  V30 5344 H 488.284 2.69063 -2.13214 0
M  V30 5345 N 490.729 0.570148 1.46925 0
M  V30 5346 C 492.006 -0.0153259 1.95594 0
M  V30 5347 C 492.386 -1.47232 1.51281 0
M  V30 5348 O 491.734 -2.15574 0.757624 0
M  V30 5349 C 491.944 0.143624 3.48704 0
M  V30 5350 C 493.292 0.00494484 4.246 0
M  V30 5351 O 494.316 0.0718214 3.56128 0
M  V30 5352 O 493.175 -0.141175 5.46318 0
M  V30 5353 H 490.269 -0.0568819 0.825041 0
M  V30 5354 H 492.815 0.637583 1.57267 0
M  V30 5355 H 491.587 1.15699 3.73804 0
M  V30 5356 H 491.21 -0.5463 3.93829 0
M  V30 5357 N 492.207 -1.54576 0.307264 0
M  V30 5358 C 493.453 -2.0056 -0.300612 0
M  V30 5359 C 493.786 -1.1953 -1.53057 0
M  V30 5360 O 493.061 -0.27337 -1.92569 0
M  V30 5361 C 493.344 -3.54167 -0.650987 0
M  V30 5362 C 493.197 -4.45933 0.588539 0
M  V30 5363 C 494.516 -4.14645 -1.47506 0
M  V30 5364 H 491.635 -0.729075 -0.107788 0
M  V30 5365 H 494.277 -1.85286 0.420606 0
M  V30 5366 H 492.427 -3.67313 -1.26544 0
M  V30 5367 H 494.099 -4.44683 1.22697 0
M  V30 5368 H 492.342 -4.16274 1.22058 0
M  V30 5369 H 493.013 -5.51189 0.299153 0
M  V30 5370 H 495.489 -4.04973 -0.955821 0
M  V30 5371 H 494.365 -5.22269 -1.68899 0
M  V30 5372 H 494.626 -3.66921 -2.4662 0
M  V30 5373 N 493.685 -0.035106 -1.57561 0
M  V30 5374 C 494.913 0.652258 -1.9635 0
M  V30 5375 C 495.328 1.65317 -0.911897 0
M  V30 5376 O 494.685 1.82194 0.105657 0
M  V30 5377 C 494.736 1.35337 -3.35211 0
M  V30 5378 O 494.457 0.392548 -4.36338 0
M  V30 5379 C 495.958 2.13199 -3.88666 0
M  V30 5380 H 493.178 0.179444 -0.646561 0
M  V30 5381 H 495.722 -0.0966459 -2.04271 0
M  V30 5382 H 493.877 2.05362 -3.28489 0
M  V30 5383 H 494.291 0.891097 -5.16875 0
M  V30 5384 H 495.765 2.577 -4.88154 0
M  V30 5385 H 496.242 2.97353 -3.23231 0
M  V30 5386 H 496.848 1.48118 -3.98674 0
M  V30 5387 N 495.163 1.55791 0.238111 0
M  V30 5388 C 496.11 1.9105 1.29493 0
M  V30 5389 C 497.08 0.765733 1.47397 0
M  V30 5390 O 498.265 1.02017 1.61236 0
M  V30 5391 C 495.405 2.21826 2.64362 0
M  V30 5392 C 494.518 3.49153 2.54394 0
M  V30 5393 C 493.653 3.69455 3.81676 0
M  V30 5394 C 492.692 4.90353 3.66361 0
M  V30 5395 N 491.829 5.07131 4.85554 0
M  V30 5396 H 496.669 2.81172 0.987233 0
M  V30 5397 H 494.206 1.39179 0.476203 0
M  V30 5398 H 496.164 2.37675 3.4288 0
M  V30 5399 H 494.794 1.34897 2.93262 0
M  V30 5400 H 493.846 3.41587 1.67399 0
M  V30 5401 H 495.158 4.37818 2.38991 0
M  V30 5402 H 494.312 3.85311 4.68636 0
M  V30 5403 H 493.051 2.7904 3.99985 0
M  V30 5404 H 492.056 4.74464 2.77784 0
M  V30 5405 H 493.281 5.82237 3.49538 0
M  V30 5406 H 491.227 4.19654 5.04209 0
M  V30 5407 H 491.144 5.89899 4.72816 0
M  V30 5408 H 492.412 5.27407 5.73988 0
M  V30 5409 N 496.642 -0.504142 1.49319 0
M  V30 5410 C 497.87 -1.28256 1.62351 0
M  V30 5411 C 498.285 -1.86502 0.293682 0
M  V30 5412 O 497.642 -1.67678 -0.720449 0
M  V30 5413 C 497.693 -2.41507 2.68992 0
M  V30 5414 O 497.414 -1.85656 3.96817 0
M  V30 5415 C 498.915 -3.32929 2.927 0
M  V30 5416 H 496.135 -0.389115 0.546654 0
M  V30 5417 H 498.679 -0.605531 1.95329 0
M  V30 5418 H 496.834 -3.05046 2.38801 0
M  V30 5419 H 497.248 -2.59981 4.55533 0
M  V30 5420 H 498.722 -4.0868 3.71058 0
M  V30 5421 H 499.199 -3.89733 2.02496 0
M  V30 5422 H 499.805 -2.75158 3.24296 0
M  V30 5423 N 498.12 -1.38341 -0.754957 0
M  V30 5424 C 499.345 -1.37882 -1.5493 0
M  V30 5425 C 499.77 0.0296385 -1.88077 0
M  V30 5426 O 499.128 1.01133 -1.50472 0
M  V30 5427 C 499.176 -2.23996 -2.82592 0
M  V30 5428 O 498.28 -1.65612 -3.77686 0
M  V30 5429 H 497.621 -0.470384 -0.468652 0
M  V30 5430 H 500.151 -1.82084 -0.933082 0
M  V30 5431 H 500.161 -2.37806 -3.3153 0
M  V30 5432 H 498.836 -3.26365 -2.57796 0
M  V30 5433 H 497.413 -1.60936 -3.36384 0
M  V30 5434 N 499.598 0.982988 -1.23187 0
M  V30 5435 C 500.846 1.72052 -1.06031 0
M  V30 5436 C 501.167 1.90769 0.404019 0
M  V30 5437 O 500.437 1.47446 1.28982 0
M  V30 5438 H 499.017 0.637499 -0.389363 0
M  V30 5439 H 501.679 1.18338 -1.54862 0
M  V30 5440 H 500.775 2.7111 -1.54615 0
M  V30 5441 N 501.076 1.04316 1.18135 0
M  V30 5442 C 502.006 0.657299 2.24058 0
M  V30 5443 C 502.987 -0.340678 1.66654 0
M  V30 5444 O 504.172 -0.220223 1.92947 0
M  V30 5445 C 501.302 0.0220715 3.47293 0
M  V30 5446 C 500.256 0.943857 4.17463 0
M  V30 5447 C 499.582 0.172973 5.3442 0
M  V30 5448 C 500.882 2.26409 4.70677 0
M  V30 5449 H 502.576 1.5428 2.56589 0
M  V30 5450 H 500.122 0.743263 1.23335 0
M  V30 5451 H 502.075 -0.259607 4.206 0
M  V30 5452 H 500.799 -0.898323 3.14003 0
M  V30 5453 H 499.458 1.20996 3.46057 0
M  V30 5454 H 499.106 -0.749907 4.97379 0
M  V30 5455 H 498.806 0.787098 5.82304 0
M  V30 5456 H 500.33 -0.101628 6.10515 0
M  V30 5457 H 501.744 2.04294 5.35665 0
M  V30 5458 H 500.141 2.8314 5.29105 0
M  V30 5459 H 501.211 2.90883 3.87962 0
M  V30 5460 N 502.554 -1.34406 0.822964 0
M  V30 5461 C 503.97 -1.51275 0.508727 0
M  V30 5462 C 504.17 -1.76776 -0.967083 0
M  V30 5463 O 503.226 -1.81871 -1.75155 0
M  V30 5464 C 504.539 -2.67765 1.36829 0
M  V30 5465 C 506.087 -2.81647 1.36542 0
M  V30 5466 C 506.562 -4.01181 2.20947 0
M  V30 5467 N 508.053 -4.08388 2.18571 0
M  V30 5468 C 508.788 -5.00036 2.80627 0
M  V30 5469 N 508.284 -5.96906 3.51674 0
M  V30 5470 N 510.077 -4.92908 2.70181 0
M  V30 5471 H 502.228 -1.16113 1.77852 0
M  V30 5472 H 504.491 -0.56947 0.757897 0
M  V30 5473 H 504.197 -2.55551 2.41633 0
M  V30 5474 H 504.071 -3.62779 1.03303 0
M  V30 5475 H 506.458 -2.93303 0.325163 0
M  V30 5476 H 506.539 -1.87443 1.74066 0
M  V30 5477 H 506.183 -3.90286 3.25022 0
M  V30 5478 H 506.113 -4.94599 1.80774 0
M  V30 5479 H 508.604 -3.39051 1.66891 0
M  V30 5480 H 508.917 -6.63468 3.96271 0
M  V30 5481 H 507.262 -5.9703 3.5578 0
M  V30 5482 H 510.453 -4.1619 2.14251 0
M  V30 5483 H 510.626 -5.64137 3.18831 0
M  V30 5484 N 504.032 -0.577932 -1.46621 0
M  V30 5485 C 505.443 -0.150071 -1.86096 0
M  V30 5486 C 505.794 1.28563 -1.48209 0
M  V30 5487 O 504.919 1.97036 -0.894754 0
M  V30 5488 C 505.514 -0.265576 -3.37758 0
M  V30 5489 C 504.073 0.10738 -3.76247 0
M  V30 5490 C 503.22 -0.603711 -2.70649 0
M  V30 5491 H 506.171 -0.786438 -1.37844 0
M  V30 5492 H 506.192 0.510352 -3.77062 0
M  V30 5493 H 505.704 -1.3106 -3.65301 0
M  V30 5494 H 503.805 1.15272 -3.54321 0
M  V30 5495 H 503.918 -0.26561 -4.78363 0
M  V30 5496 H 502.282 -0.0444884 -2.54661 0
M  V30 5497 H 503.065 -1.65029 -3.01032 0
M  V30 5498 N 505.51 1.54411 -0.315457 0
M  V30 5499 C 506.443 2.20265 0.596522 0
M  V30 5500 C 507.421 1.17693 1.12192 0
M  V30 5501 O 508.605 1.46397 1.18744 0
M  V30 5502 C 505.732 2.85794 1.81767 0
M  V30 5503 C 504.778 4.02017 1.42424 0
M  V30 5504 S 505.611 5.33452 0.467836 0
M  V30 5505 C 506.767 6.02471 1.69645 0
M  V30 5506 H 507 2.97277 0.0370896 0
M  V30 5507 H 504.533 1.54079 -0.0995562 0
M  V30 5508 H 506.491 3.24172 2.51839 0
M  V30 5509 H 505.152 2.08601 2.34828 0
M  V30 5510 H 504.345 4.46701 2.33396 0
M  V30 5511 H 503.947 3.65271 0.803311 0
M  V30 5512 H 506.239 6.24157 2.63504 0
M  V30 5513 H 507.182 6.96215 1.29192 0
M  V30 5514 H 507.59 5.32284 1.87974 0
M  V30 5515 N 506.988 0.0434614 1.5754 0
M  V30 5516 C 507.898 -0.94893 2.14552 0
M  V30 5517 C 508.914 -1.34707 1.10136 0
M  V30 5518 O 510.09 -1.42557 1.42266 0
M  V30 5519 C 507.155 -2.208 2.67298 0
M  V30 5520 C 506.216 -1.86893 3.86484 0
M  V30 5521 C 505.449 -3.06797 4.36705 0
M  V30 5522 O 505.672 -4.19921 3.86034 0
M  V30 5523 O 504.606 -2.8826 5.28384 0
M  V30 5524 H 508.432 -0.494099 2.99654 0
M  V30 5525 H 506.017 -0.177989 1.48336 0
M  V30 5526 H 507.899 -2.94686 3.01228 0
M  V30 5527 H 506.574 -2.65436 1.85272 0
M  V30 5528 H 505.481 -1.10347 3.57455 0
M  V30 5529 H 506.814 -1.47062 4.69716 0
M  V30 5530 N 508.466 -1.55915 -0.229846 0
M  V30 5531 C 509.877 -1.68809 -0.797531 0
M  V30 5532 C 510.228 -0.643995 -1.8533 0
M  V30 5533 O 509.353 0.206492 -2.15413 0
M  V30 5534 C 509.948 -3.06043 -1.45338 0
M  V30 5535 C 508.507 -3.20819 -1.96856 0
M  V30 5536 C 507.654 -2.6472 -0.825736 0
M  V30 5537 H 510.605 -1.58699 -0.00533733 0
M  V30 5538 H 510.626 -3.01438 -2.32196 0
M  V30 5539 H 510.138 -3.82012 -0.684743 0
M  V30 5540 H 508.239 -2.49704 -2.76548 0
M  V30 5541 H 508.352 -4.27937 -2.15423 0
M  V30 5542 H 506.716 -2.22985 -1.23084 0
M  V30 5543 H 507.499 -3.43229 -0.0699019 0
M  V30 5544 N 509.944 0.496216 -1.49584 0
M  V30 5545 C 510.891 1.59722 -1.66606 0
M  V30 5546 C 511.861 1.58158 -0.507477 0
M  V30 5547 O 513.046 1.76072 -0.735076 0
M  V30 5548 C 510.186 2.97844 -1.74308 0
M  V30 5549 C 509.299 3.09388 -3.01502 0
M  V30 5550 C 508.434 4.38271 -3.00153 0
M  V30 5551 C 507.473 4.43466 -4.21906 0
M  V30 5552 N 506.61 5.63784 -4.1844 0
M  V30 5553 H 511.45 1.44515 -2.60613 0
M  V30 5554 H 508.987 0.703048 -1.29212 0
M  V30 5555 H 510.945 3.77907 -1.76754 0
M  V30 5556 H 509.575 3.11743 -0.837619 0
M  V30 5557 H 508.627 2.22357 -3.08645 0
M  V30 5558 H 509.939 3.09085 -3.91494 0
M  V30 5559 H 509.093 5.2666 -3.01188 0
M  V30 5560 H 507.832 4.41146 -2.07947 0
M  V30 5561 H 506.837 3.53478 -4.21109 0
M  V30 5562 H 508.062 4.42303 -5.1531 0
M  V30 5563 H 506.008 5.67491 -3.29074 0
M  V30 5564 H 505.925 5.65118 -5.02173 0
M  V30 5565 H 507.193 6.54367 -4.23585 0
M  V30 5566 N 511.423 1.38739 0.74761 0
M  V30 5567 C 512.7 1.25791 1.49786 0
M  V30 5568 C 513.08 -0.138075 2.10648 0
M  V30 5569 O 512.428 -1.14815 1.9756 0
M  V30 5570 C 512.638 2.37265 2.55942 0
M  V30 5571 C 513.986 2.75978 3.22679 0
M  V30 5572 O 515.01 2.36621 2.6625 0
M  V30 5573 O 513.869 3.43867 4.24756 0
M  V30 5574 H 510.963 0.492251 0.664543 0
M  V30 5575 H 513.509 1.50582 0.782511 0
M  V30 5576 H 512.281 3.30644 2.0926 0
M  V30 5577 H 511.904 2.14071 3.35051 0
M  V30 5578 N 512.901 -0.976442 1.23707 0
M  V30 5579 C 514.15 -1.71254 1.06559 0
M  V30 5580 C 514.463 -1.91528 -0.397024 0
M  V30 5581 O 515.669 -2.62625 -0.688518 0
M  V30 5582 C 514.125 -3.08207 1.8584 0
M  V30 5583 C 513.733 -2.95806 3.36456 0
M  V30 5584 C 515.477 -3.85749 1.77194 0
M  V30 5585 C 513.384 -4.28015 4.08114 0
M  V30 5586 H 512.314 -0.642171 0.395136 0
M  V30 5587 H 514.965 -1.08877 1.4771 0
M  V30 5588 H 513.347 -3.71363 1.37498 0
M  V30 5589 H 514.521 -2.41716 3.92314 0
M  V30 5590 H 512.836 -2.31736 3.45959 0
M  V30 5591 H 515.433 -4.83633 2.28041 0
M  V30 5592 H 515.776 -4.09752 0.735477 0
M  V30 5593 H 516.309 -3.29303 2.23169 0
M  V30 5594 H 513.048 -4.09208 5.12083 0
M  V30 5595 H 512.568 -4.81955 3.57043 0
M  V30 5596 H 514.247 -4.96681 4.14629 0
M  V30 5597 N 514.379 -1.04941 -1.1758 0
M  V30 5598 C 515.326 -0.648155 -2.21512 0
M  V30 5599 C 516.296 0.348431 -1.62404 0
M  V30 5600 O 517.481 0.240419 -1.89279 0
M  V30 5601 C 514.621 -0.0264291 -3.4509 0
M  V30 5602 C 513.734 -1.07154 -4.185 0
M  V30 5603 C 512.869 -0.417403 -5.29558 0
M  V30 5604 C 511.908 -1.447 -5.94751 0
M  V30 5605 N 511.045 -0.817203 -6.97328 0
M  V30 5606 H 515.885 -1.53891 -2.55189 0
M  V30 5607 H 513.422 -0.769699 -1.25356 0
M  V30 5608 H 515.38 0.351456 -4.15717 0
M  V30 5609 H 514.01 0.827802 -3.12005 0
M  V30 5610 H 513.062 -1.56728 -3.46613 0
M  V30 5611 H 514.374 -1.8532 -4.63096 0
M  V30 5612 H 513.528 0.0142061 -6.06698 0
M  V30 5613 H 512.267 0.396265 -4.86087 0
M  V30 5614 H 511.272 -1.88865 -5.16343 0
M  V30 5615 H 512.497 -2.26252 -6.40302 0
M  V30 5616 H 510.443 -0.0239995 -6.55996 0
M  V30 5617 H 510.36 -1.53644 -7.40223 0
M  V30 5618 H 511.628 -0.410283 -7.7842 0
M  V30 5619 N 515.857 1.33968 -0.830081 0
M  V30 5620 C 517.082 2.02813 -0.433796 0
M  V30 5621 C 517.507 1.62076 0.954614 0
M  V30 5622 O 516.865 0.808955 1.62252 0
M  V30 5623 C 516.913 3.56348 -0.552115 0
M  V30 5624 O 516.017 4.10202 0.425191 0
M  V30 5625 H 515.358 0.639817 -0.177567 0
M  V30 5626 H 517.888 1.7106 -1.12248 0
M  V30 5627 H 517.898 4.05722 -0.430513 0
M  V30 5628 H 516.573 3.85344 -1.56471 0
M  V30 5629 H 515.15 3.71979 0.261878 0
M  V30 5630 N 517.335 0.585699 1.46312 0
M  V30 5631 C 518.581 0.0725284 2.0267 0
M  V30 5632 C 518.914 -1.28523 1.45586 0
M  V30 5633 O 518.189 -1.84283 0.622101 0
M  V30 5634 C 518.472 0.0099788 3.60099 0
M  V30 5635 C 518.325 1.39685 4.27561 0
M  V30 5636 C 519.644 -0.689117 4.34671 0
M  V30 5637 H 516.763 0.0278307 0.736474 0
M  V30 5638 H 519.405 0.753472 1.74421 0
M  V30 5639 H 517.555 -0.56992 3.84297 0
M  V30 5640 H 519.227 2.02215 4.14617 0
M  V30 5641 H 517.47 1.96374 3.86807 0
M  V30 5642 H 518.141 1.30553 5.36339 0
M  V30 5643 H 520.617 -0.196446 4.15636 0
M  V30 5644 H 519.493 -0.701921 5.44393 0
M  V30 5645 H 519.754 -1.75101 4.05946 0
M  V30 5646 N 518.813 -1.54241 0.323641 0
M  V30 5647 C 520.229 -1.59574 -0.0290018 0
M  V30 5648 C 520.429 -1.34017 -1.50472 0
M  V30 5649 O 519.485 -1.12464 -2.26071 0
M  V30 5650 C 520.798 -2.98169 0.389295 0
M  V30 5651 C 522.346 -3.11148 0.339958 0
M  V30 5652 C 522.821 -4.5209 0.733418 0
M  V30 5653 N 524.312 -4.5808 0.686827 0
M  V30 5654 C 525.047 -5.65248 0.963464 0
M  V30 5655 N 524.543 -6.80355 1.30724 0
M  V30 5656 N 526.336 -5.55025 0.88902 0
M  V30 5657 H 518.487 -1.6911 1.28512 0
M  V30 5658 H 520.75 -0.790972 0.522558 0
M  V30 5659 H 520.456 -3.21871 1.41746 0
M  V30 5660 H 520.33 -3.76399 -0.245657 0
M  V30 5661 H 522.717 -2.87182 -0.679002 0
M  V30 5662 H 522.798 -2.35023 1.00985 0
M  V30 5663 H 522.442 -4.76788 1.75029 0
M  V30 5664 H 522.372 -5.26584 0.0412189 0
M  V30 5665 H 524.863 -3.75411 0.43298 0
M  V30 5666 H 525.176 -7.58029 1.5037 0
M  V30 5667 H 523.521 -6.81851 1.3455 0
M  V30 5668 H 526.712 -4.63977 0.619939 0
M  V30 5669 H 526.885 -6.38458 1.10797 0
M  V30 5670 N 520.291 -0.0518155 -1.57515 0
M  V30 5671 C 521.201 0.937539 -2.15052 0
M  V30 5672 C 522.217 1.34121 -1.10849 0
M  V30 5673 O 523.393 1.418 -1.4302 0
M  V30 5674 C 520.458 2.19379 -2.68466 0
M  V30 5675 C 519.519 1.84841 -3.87469 0
M  V30 5676 C 518.752 3.04477 -4.38326 0
M  V30 5677 O 518.975 4.17868 -3.88256 0
M  V30 5678 O 517.909 2.85453 -5.29906 0
M  V30 5679 H 521.735 0.478201 -2.99912 0
M  V30 5680 H 519.32 0.17012 -1.48428 0
M  V30 5681 H 521.202 2.93084 -3.02787 0
M  V30 5682 H 519.877 2.64449 -1.86677 0
M  V30 5683 H 518.784 1.08449 -3.58036 0
M  V30 5684 H 520.117 1.44569 -4.7049 0
M  V30 5685 N 521.769 1.56035 0.221574 0
M  V30 5686 C 522.699 1.95434 1.2778 0
M  V30 5687 C 523.68 0.822564 1.48889 0
M  V30 5688 O 524.865 1.08486 1.61072 0
M  V30 5689 C 521.995 2.27102 2.62759 0
M  V30 5690 C 520.949 3.4277 2.56306 0
M  V30 5691 C 520.275 3.60043 3.95314 0
M  V30 5692 C 521.575 4.77742 2.11093 0
M  V30 5693 H 523.269 2.83912 0.950504 0
M  V30 5694 H 520.815 1.36596 0.455791 0
M  V30 5695 H 522.768 2.53256 3.36807 0
M  V30 5696 H 521.492 1.35478 2.97176 0
M  V30 5697 H 520.151 3.16664 1.84715 0
M  V30 5698 H 519.799 2.65794 4.27039 0
M  V30 5699 H 519.499 4.37841 3.91879 0
M  V30 5700 H 521.023 3.88545 4.71025 0
M  V30 5701 H 522.437 5.03102 2.74885 0
M  V30 5702 H 520.834 5.58823 2.18716 0
M  V30 5703 H 521.904 4.731 1.06321 0
M  V30 5704 N 523.247 -0.488276 1.49845 0
M  V30 5705 C 524.496 -1.23826 1.59217 0
M  V30 5706 C 524.809 -1.93439 0.289966 0
M  V30 5707 O 526.015 -2.70229 0.262382 0
M  V30 5708 C 524.471 -2.24902 2.80976 0
M  V30 5709 C 524.079 -1.6117 4.18005 0
M  V30 5710 C 525.823 -3.00648 2.99685 0
M  V30 5711 C 523.73 -2.60431 5.3097 0
M  V30 5712 H 522.66 -0.465858 0.592868 0
M  V30 5713 H 525.311 -0.510645 1.76252 0
M  V30 5714 H 523.693 -3.0088 2.57463 0
M  V30 5715 H 524.867 -0.910968 4.51706 0
M  V30 5716 H 523.182 -0.97767 4.0476 0
M  V30 5717 H 525.779 -3.74903 3.81251 0
M  V30 5718 H 526.122 -3.5902 2.10738 0
M  V30 5719 H 526.655 -2.31784 3.23297 0
M  V30 5720 H 523.394 -2.06823 6.22017 0
M  V30 5721 H 522.914 -3.28707 5.01709 0
M  V30 5722 H 524.593 -3.22606 5.60834 0
M  V30 5723 N 524.725 -1.39134 -0.740242 0
M  V30 5724 C 525.673 -1.3757 -1.87556 0
M  V30 5725 C 526.667 -0.259593 -1.67399 0
M  V30 5726 O 527.873 -0.429349 -1.74804 0
M  V30 5727 H 524.248 -0.42947 -0.6173 0
M  V30 5728 H 526.219 -2.33345 -1.85991 0
M  V30 5729 C 524.968 -1.23087 -3.25184 0
M  V30 5730 H 524.291 -2.08237 -3.41288 0
M  V30 5731 H 525.731 -1.26049 -4.0483 0
M  V30 5732 C 524.19 0.0611471 -3.36845 0
M  V30 5733 O 524.72 1.03328 -3.88183 0
M  V30 5734 N 522.926 0.122454 -2.90342 0
M  V30 5735 H 522.473 -0.669329 -2.48752 0
M  V30 5736 H 522.431 0.986463 -2.98523 0
M  V30 5737 N 526.204 0.969867 -1.24223 0
M  V30 5738 C 527.432 1.74756 -1.10761 0
M  V30 5739 C 527.847 1.85713 0.340041 0
M  V30 5740 O 527.204 1.34389 1.23474 0
M  V30 5741 C 527.255 3.16915 -1.73917 0
M  V30 5742 O 526.976 3.06511 -3.13021 0
M  V30 5743 C 528.477 4.11032 -1.66036 0
M  V30 5744 H 525.697 0.548092 -0.387087 0
M  V30 5745 H 528.241 1.2178 -1.64286 0
M  V30 5746 H 526.396 3.66884 -1.244 0
M  V30 5747 H 526.81 3.96079 -3.43834 0
M  V30 5748 H 528.284 5.08446 -2.14911 0
M  V30 5749 H 528.761 4.34785 -0.621159 0
M  V30 5750 H 529.367 3.66972 -2.14969 0
M  V30 5751 N 527.682 1.05563 1.17022 0
M  V30 5752 C 528.912 0.787307 1.91011 0
M  V30 5753 C 529.32 -0.661256 1.77268 0
M  V30 5754 O 528.663 -1.46379 1.10991 0
M  V30 5755 C 528.725 1.09313 3.42478 0
M  V30 5756 C 528.389 2.53863 3.80004 0
M  V30 5757 C 529.386 3.52081 3.82538 0
M  V30 5758 C 527.071 2.88969 4.10855 0
M  V30 5759 C 529.065 4.83449 4.15399 0
M  V30 5760 C 526.752 4.2054 4.43384 0
M  V30 5761 C 527.75 5.17589 4.45635 0
M  V30 5762 O 527.438 6.46799 4.77395 0
M  V30 5763 H 527.17 0.285463 0.61277 0
M  V30 5764 H 529.724 1.41051 1.49311 0
M  V30 5765 H 527.954 0.412833 3.8449 0
M  V30 5766 H 529.643 0.810224 3.97731 0
M  V30 5767 H 530.409 3.26299 3.58823 0
M  V30 5768 H 526.288 2.1409 4.08272 0
M  V30 5769 H 529.832 5.59194 4.1707 0
M  V30 5770 H 525.729 4.46083 4.66563 0
M  V30 5771 H 526.497 6.51677 4.95237 0
M  V30 5772 N 529.16 -1.33526 0.837174 0
M  V30 5773 C 530.09 -2.31764 0.284206 0
M  V30 5774 C 531.071 -1.58896 -0.607142 0
M  V30 5775 O 532.256 -1.86798 -0.531047 0
M  V30 5776 C 529.386 -3.43029 -0.542962 0
M  V30 5777 C 528.34 -4.27255 0.252451 0
M  V30 5778 C 527.666 -5.3012 -0.69836 0
M  V30 5779 C 528.966 -5.01229 1.46858 0
M  V30 5780 H 530.66 -2.78262 1.10502 0
M  V30 5781 H 528.206 -1.3378 0.532812 0
M  V30 5782 H 530.159 -4.1078 -0.940096 0
M  V30 5783 H 528.883 -2.95216 -1.39697 0
M  V30 5784 H 527.542 -3.61127 0.631124 0
M  V30 5785 H 527.19 -4.78564 -1.54872 0
M  V30 5786 H 526.89 -5.87353 -0.170274 0
M  V30 5787 H 528.414 -6.00737 -1.09305 0
M  V30 5788 H 529.828 -5.61756 1.14469 0
M  V30 5789 H 528.225 -5.68104 1.93333 0
M  V30 5790 H 529.295 -4.301 2.23924 0
M  V30 5791 N 530.638 -0.59345 -1.46 0
M  V30 5792 C 531.585 0.133618 -2.30413 0
M  V30 5793 C 532.555 0.873736 -1.41262 0
M  V30 5794 O 533.74 0.862279 -1.70204 0
M  V30 5795 C 530.88 1.13434 -3.25924 0
M  V30 5796 C 529.993 0.39656 -4.30176 0
M  V30 5797 C 529.128 1.38575 -5.12806 0
M  V30 5798 C 528.167 0.634984 -6.08797 0
M  V30 5799 N 527.304 1.57276 -6.84258 0
M  V30 5800 H 532.144 -0.592252 -2.92055 0
M  V30 5801 H 529.681 -0.303874 -1.43927 0
M  V30 5802 H 531.639 1.72752 -3.79753 0
M  V30 5803 H 530.269 1.82779 -2.66067 0
M  V30 5804 H 529.321 -0.311861 -3.79119 0
M  V30 5805 H 530.633 -0.189869 -4.98438 0
M  V30 5806 H 529.787 2.05141 -5.70966 0
M  V30 5807 H 528.526 2.00611 -4.44529 0
M  V30 5808 H 527.531 -0.0443925 -5.49782 0
M  V30 5809 H 528.756 0.0198678 -6.79097 0
M  V30 5810 H 526.702 2.18103 -6.18682 0
M  V30 5811 H 526.619 1.03941 -7.48821 0
M  V30 5812 H 527.887 2.22844 -7.46968 0
M  V30 5813 N 532.116 1.54067 -0.331816 0
M  V30 5814 C 533.048 2.22139 0.564538 0
M  V30 5815 C 534.061 1.22408 1.07332 0
M  V30 5816 O 535.25 1.4883 0.985481 0
M  V30 5817 C 532.35 2.87876 1.78831 0
M  V30 5818 C 531.523 4.13817 1.41682 0
M  V30 5819 C 530.582 4.63072 2.49901 0
M  V30 5820 O 529.608 5.27562 2.13699 0
M  V30 5821 N 530.81 4.38001 3.80967 0
M  V30 5822 H 533.575 2.99694 -0.0183736 0
M  V30 5823 H 531.136 1.61153 -0.155396 0
M  V30 5824 H 533.128 3.17747 2.50637 0
M  V30 5825 H 531.698 2.13977 2.27887 0
M  V30 5826 H 530.918 3.9062 0.530044 0
M  V30 5827 H 532.206 4.95762 1.14443 0
M  V30 5828 H 531.604 3.864 4.13173 0
M  V30 5829 H 530.161 4.72507 4.48977 0
M  V30 5830 N 533.594 0.0601682 1.57485 0
M  V30 5831 C 534.841 -0.611594 1.93043 0
M  V30 5832 C 535.169 -1.70317 0.939274 0
M  V30 5833 O 534.424 -1.95644 -0.046996 0
M  V30 5834 C 534.723 -1.23831 3.35262 0
M  V30 5835 C 534.389 -0.274037 4.50066 0
M  V30 5836 C 533.051 -0.00872394 4.81199 0
M  V30 5837 C 535.403 0.386308 5.19766 0
M  V30 5838 C 532.731 0.924218 5.79375 0
M  V30 5839 C 535.083 1.3075 6.1894 0
M  V30 5840 C 533.747 1.58139 6.48497 0
M  V30 5841 H 533.017 -0.223798 0.706396 0
M  V30 5842 H 535.664 0.128566 1.91068 0
M  V30 5843 H 533.969 -2.05394 3.33647 0
M  V30 5844 H 535.666 -1.76517 3.60059 0
M  V30 5845 H 532.256 -0.491008 4.25778 0
M  V30 5846 H 536.44 0.194436 4.95919 0
M  V30 5847 H 531.696 1.1438 6.00606 0
M  V30 5848 H 535.87 1.82519 6.72056 0
M  V30 5849 H 533.497 2.30593 7.24383 0
M  V30 5850 N 535.072 -1.5615 -0.213296 0
M  V30 5851 C 536.022 -1.89485 -1.26804 0
M  V30 5852 C 537.006 -0.758713 -1.41889 0
M  V30 5853 O 538.198 -1.02127 -1.44565 0
M  V30 5854 C 535.327 -2.22219 -2.61675 0
M  V30 5855 C 534.413 -3.42245 -2.50458 0
M  V30 5856 N 534.804 -4.60645 -2.089 0
M  V30 5857 C 533.102 -3.46023 -2.81397 0
M  V30 5858 C 533.803 -5.42805 -2.09135 0
M  V30 5859 N 532.779 -4.82732 -2.49941 0
M  V30 5860 H 536.581 -2.78537 -0.937771 0
M  V30 5861 H 534.095 -1.56826 -0.421824 0
M  V30 5862 H 536.092 -2.44278 -3.37837 0
M  V30 5863 H 534.752 -1.34484 -2.95541 0
M  V30 5864 H 535.763 -4.85651 -1.79899 0
M  V30 5865 H 532.44 -2.68654 -3.1958 0
M  V30 5866 H 533.83 -6.47601 -1.79059 0
M  V30 5867 N 536.55 0.480323 -1.50102 0
M  V30 5868 C 537.48 1.58769 -1.71215 0
M  V30 5869 C 538.461 1.60583 -0.560997 0
M  V30 5870 O 539.646 1.76996 -0.799127 0
M  V30 5871 C 536.776 2.97148 -1.79778 0
M  V30 5872 C 535.73 3.10201 -2.94888 0
M  V30 5873 C 535.056 4.50137 -2.88584 0
M  V30 5874 C 536.356 2.88283 -4.35534 0
M  V30 5875 H 538.05 1.41354 -2.6393 0
M  V30 5876 H 535.596 0.678591 -1.27008 0
M  V30 5877 H 537.549 3.74536 -1.93133 0
M  V30 5878 H 536.273 3.15699 -0.836772 0
M  V30 5879 H 534.932 2.35244 -2.81169 0
M  V30 5880 H 534.58 4.65593 -1.90349 0
M  V30 5881 H 534.28 4.59808 -3.65856 0
M  V30 5882 H 535.804 5.29558 -3.03976 0
M  V30 5883 H 537.218 3.55427 -4.49827 0
M  V30 5884 H 535.615 3.09408 -5.14186 0
M  V30 5885 H 536.685 1.84219 -4.48544 0
M  V30 5886 N 538.028 1.39524 0.732853 0
M  V30 5887 C 538.991 1.38189 1.82857 0
M  V30 5888 C 539.991 0.278624 1.58368 0
M  V30 5889 O 541.181 0.536639 1.65728 0
M  V30 5890 C 538.313 1.15661 3.2068 0
M  V30 5891 H 539.506 2.35692 1.85444 0
M  V30 5892 H 537.059 1.2512 0.936728 0
M  V30 5893 H 537.794 0.188482 3.23752 0
M  V30 5894 H 537.579 1.95559 3.39852 0
M  V30 5895 H 539.069 1.17472 4.00737 0
M  V30 5896 N 539.506 -0.963266 1.24736 0
M  V30 5897 C 540.917 -1.52145 1.08207 0
M  V30 5898 C 541.268 -1.93142 -0.345061 0
M  V30 5899 O 540.393 -1.77769 -1.23399 0
M  V30 5900 C 540.988 -2.76486 1.95808 0
M  V30 5901 C 539.547 -3.28646 1.8349 0
M  V30 5902 C 538.694 -2.01529 1.90476 0
M  V30 5903 H 541.645 -0.781083 1.38148 0
M  V30 5904 H 541.666 -3.49986 1.49297 0
M  V30 5905 H 541.178 -2.46617 2.99669 0
M  V30 5906 H 539.279 -3.63357 0.824787 0
M  V30 5907 H 539.392 -3.97246 2.67829 0
M  V30 5908 H 537.756 -2.16442 1.34258 0
M  V30 5909 H 538.539 -1.7402 2.95926 0
M  V30 5910 N 540.985 -1.06182 -1.16461 0
M  V30 5911 C 542.231 -0.779015 -1.87241 0
M  V30 5912 C 542.564 0.692715 -1.81425 0
M  V30 5913 O 541.839 1.5074 -1.22913 0
M  V30 5914 C 542.122 -1.2728 -3.36856 0
M  V30 5915 C 541.975 -2.80821 -3.51368 0
M  V30 5916 C 543.294 -0.879799 -4.31216 0
M  V30 5917 H 540.413 -0.284464 -0.679889 0
M  V30 5918 H 543.055 -1.31755 -1.36896 0
M  V30 5919 H 541.205 -0.814673 -3.79862 0
M  V30 5920 H 542.877 -3.34833 -3.17308 0
M  V30 5921 H 541.12 -3.19606 -2.93316 0
M  V30 5922 H 541.791 -3.10435 -4.56436 0
M  V30 5923 H 544.267 -1.27436 -3.96105 0
M  V30 5924 H 543.143 -1.25278 -5.34412 0
M  V30 5925 H 543.404 0.215372 -4.41575 0
M  V30 5926 N 542.463 1.3308 -0.844243 0
M  V30 5927 C 543.396 2.27075 -0.226279 0
M  V30 5928 C 544.374 1.49911 0.629716 0
M  V30 5929 O 545.558 1.79068 0.588803 0
M  V30 5930 C 542.685 3.31767 0.681782 0
M  V30 5931 C 541.731 4.26384 -0.0994565 0
M  V30 5932 S 542.564 5.15186 -1.46094 0
M  V30 5933 C 543.72 6.23405 -0.558319 0
M  V30 5934 H 543.953 2.79141 -1.02312 0
M  V30 5935 H 541.486 1.40452 -0.641292 0
M  V30 5936 H 543.444 3.92566 1.20008 0
M  V30 5937 H 542.105 2.78507 1.45234 0
M  V30 5938 H 541.298 5.00514 0.591733 0
M  V30 5939 H 540.9 3.69949 -0.548991 0
M  V30 5940 H 543.192 6.77069 0.241672 0
M  V30 5941 H 544.135 6.96619 -1.26995 0
M  V30 5942 H 544.543 5.64333 -0.13728 0
M  V30 5943 N 543.941 0.601185 1.45683 0
M  V30 5944 C 545.218 0.0261659 1.95582 0
M  V30 5945 C 545.598 -1.4399 1.5437 0
M  V30 5946 O 544.946 -2.13919 0.80318 0
M  V30 5947 C 545.156 0.217557 3.48321 0
M  V30 5948 C 546.504 0.0950076 4.24494 0
M  V30 5949 O 547.528 0.147345 3.55895 0
M  V30 5950 O 546.387 -0.025261 5.46494 0
M  V30 5951 H 543.481 -0.0393688 0.826062 0
M  V30 5952 H 546.027 0.670798 1.55879 0
M  V30 5953 H 544.799 1.23601 3.71266 0
M  V30 5954 H 544.422 -0.46264 3.94899 0
M  V30 5955 N 545.419 -1.53889 0.339982 0
M  V30 5956 C 546.329 -2.28604 -0.526988 0
M  V30 5957 C 547.345 -1.33578 -1.11503 0
M  V30 5958 O 548.521 -1.66612 -1.13148 0
M  V30 5959 C 545.586 -3.04164 -1.66389 0
M  V30 5960 C 544.647 -4.14809 -1.10599 0
M  V30 5961 C 543.88 -4.86756 -2.18871 0
M  V30 5962 O 544.103 -4.58343 -3.39526 0
M  V30 5963 O 543.037 -5.73289 -1.83366 0
M  V30 5964 H 546.863 -3.03594 0.0802707 0
M  V30 5965 H 544.448 -1.4903 0.105141 0
M  V30 5966 H 546.33 -3.51427 -2.32544 0
M  V30 5967 H 545.005 -2.32035 -2.25703 0
M  V30 5968 H 543.912 -3.71857 -0.409067 0
M  V30 5969 H 545.245 -4.89029 -0.557771 0
M  V30 5970 N 546.897 -0.0685191 -1.57451 0
M  V30 5971 C 547.807 0.914677 -2.16034 0
M  V30 5972 C 548.823 1.32938 -1.12265 0
M  V30 5973 O 549.999 1.40275 -1.44516 0
M  V30 5974 C 547.064 2.16519 -2.70777 0
M  V30 5975 C 546.125 1.80721 -3.89408 0
M  V30 5976 C 545.358 2.9981 -4.41531 0
M  V30 5977 O 545.581 4.13727 -3.92666 0
M  V30 5978 O 544.515 2.79817 -5.32903 0
M  V30 5979 H 548.341 0.446364 -3.00402 0
M  V30 5980 H 545.926 0.154367 -1.486 0
M  V30 5981 H 547.808 2.89856 -3.05878 0
M  V30 5982 H 546.483 2.62454 -1.89471 0
M  V30 5983 H 545.39 1.04646 -3.59166 0
M  V30 5984 H 546.723 1.39571 -4.71997 0
M  V30 5985 N 548.375 1.56261 0.205012 0
M  V30 5986 C 549.285 1.96944 1.27476 0
M  V30 5987 C 550.301 0.875636 1.50362 0
M  V30 5988 O 551.477 1.18058 1.6317 0
M  V30 5989 C 548.542 2.29219 2.60115 0
M  V30 5990 C 547.603 3.52255 2.45387 0
M  V30 5991 C 546.836 3.8298 3.71701 0
M  V30 5992 O 547.059 3.15138 4.75441 0
M  V30 5993 O 545.993 4.76435 3.67823 0
M  V30 5994 H 549.819 2.88144 0.959527 0
M  V30 5995 H 547.404 1.43686 0.409217 0
M  V30 5996 H 549.286 2.51098 3.3842 0
M  V30 5997 H 547.961 1.4119 2.91285 0
M  V30 5998 H 546.868 3.35635 1.65227 0
M  V30 5999 H 548.201 4.40719 2.19152 0
M  V30 6000 N 549.853 -0.472356 1.50355 0
M  V30 6001 C 551.099 -1.22634 1.6152 0
M  V30 6002 C 551.432 -1.91645 0.313995 0
M  V30 6003 O 550.707 -1.82059 -0.684446 0
M  V30 6004 C 550.99 -2.27099 2.7946 0
M  V30 6005 C 550.843 -1.62402 4.19459 0
M  V30 6006 C 552.162 -3.28421 2.92964 0
M  V30 6007 H 549.281 -0.444494 0.587873 0
M  V30 6008 H 551.923 -0.520321 1.82737 0
M  V30 6009 H 550.073 -2.87314 2.61501 0
M  V30 6010 H 551.745 -1.05793 4.49005 0
M  V30 6011 H 549.988 -0.927184 4.23776 0
M  V30 6012 H 550.659 -2.38309 4.97909 0
M  V30 6013 H 553.135 -2.78227 3.09401 0
M  V30 6014 H 552.011 -3.98845 3.77113 0
M  V30 6015 H 552.272 -3.92467 2.03525 0
M  V30 6016 N 551.331 -1.39911 -0.725443 0
M  V30 6017 C 552.294 -1.39156 -1.82121 0
M  V30 6018 C 553.294 -0.287018 -1.58218 0
M  V30 6019 O 554.484 -0.545421 -1.65441 0
M  V30 6020 C 551.616 -1.1736 -3.20062 0
M  V30 6021 H 552.809 -2.36672 -1.84191 0
M  V30 6022 H 550.362 -1.25615 -0.930079 0
M  V30 6023 H 551.097 -0.205648 -3.23647 0
M  V30 6024 H 550.882 -1.97358 -3.3881 0
M  V30 6025 H 552.372 -1.19596 -4.00108 0
M  V30 6026 N 552.809 0.956637 -1.25245 0
M  V30 6027 C 553.759 2.03841 -1.02141 0
M  V30 6028 C 554.743 1.60848 0.0410058 0
M  V30 6029 O 555.935 1.76142 -0.174084 0
M  V30 6030 C 553.064 3.37282 -0.639963 0
M  V30 6031 C 552.15 3.86805 -1.73903 0
M  V30 6032 N 552.541 4.09143 -2.97381 0
M  V30 6033 C 550.839 4.15574 -1.61909 0
M  V30 6034 C 551.54 4.49923 -3.68707 0
M  V30 6035 N 550.516 4.55737 -2.96318 0
M  V30 6036 H 554.318 2.19102 -1.95886 0
M  V30 6037 H 551.832 1.1413 -1.15534 0
M  V30 6038 H 553.829 4.14403 -0.455643 0
M  V30 6039 H 552.489 3.23401 0.29018 0
M  V30 6040 H 553.5 3.96275 -3.33447 0
M  V30 6041 H 550.177 4.10566 -0.757764 0
M  V30 6042 H 551.567 4.75526 -4.74684 0
M  V30 6043 N 554.287 1.06798 1.15896 0
M  V30 6044 C 555.533 0.798757 1.8706 0
M  V30 6045 C 555.888 -0.667739 1.80441 0
M  V30 6046 O 555.181 -1.48334 1.21274 0
M  V30 6047 C 555.375 1.23414 3.35416 0
M  V30 6048 C 555.204 2.74142 3.56478 0
M  V30 6049 C 553.974 3.41675 3.72272 0
M  V30 6050 C 556.172 3.72348 3.5477 0
M  V30 6051 N 554.154 4.81101 3.81333 0
M  V30 6052 C 555.525 4.97585 3.69877 0
M  V30 6053 C 557.58 3.65585 3.38011 0
M  V30 6054 C 556.283 6.16866 3.69959 0
M  V30 6055 C 558.309 4.84323 3.39389 0
M  V30 6056 C 557.671 6.08391 3.5502 0
M  V30 6057 H 553.77 0.344761 0.7019 0
M  V30 6058 H 556.354 1.36314 1.3902 0
M  V30 6059 H 554.525 0.697522 3.82085 0
M  V30 6060 H 556.257 0.91304 3.94266 0
M  V30 6061 H 553.012 2.92078 3.7281 0
M  V30 6062 H 553.436 5.53647 3.8962 0
M  V30 6063 H 558.078 2.70615 3.2485 0
M  V30 6064 H 555.796 7.12164 3.819 0
M  V30 6065 H 559.382 4.80762 3.27658 0
M  V30 6066 H 558.262 6.98731 3.56012 0
M  V30 6067 N 555.766 -1.3263 0.851289 0
M  V30 6068 C 557.013 -1.97368 0.453023 0
M  V30 6069 C 557.341 -1.67384 -0.990596 0
M  V30 6070 O 556.596 -0.952665 -1.70947 0
M  V30 6071 C 556.895 -3.51713 0.635015 0
M  V30 6072 C 556.561 -4.01676 2.04859 0
M  V30 6073 C 555.223 -4.15031 2.43522 0
M  V30 6074 C 557.575 -4.28206 2.97135 0
M  V30 6075 C 554.903 -4.52257 3.73739 0
M  V30 6076 C 557.255 -4.66889 4.26846 0
M  V30 6077 C 555.919 -4.7845 4.65448 0
M  V30 6078 H 555.189 -0.722219 0.165773 0
M  V30 6079 H 557.836 -1.58092 1.0807 0
M  V30 6080 H 556.141 -3.91726 -0.0759081 0
M  V30 6081 H 557.838 -3.99823 0.306964 0
M  V30 6082 H 554.428 -3.91764 1.73836 0
M  V30 6083 H 558.612 -4.174 2.68498 0
M  V30 6084 H 553.868 -4.59402 4.03435 0
M  V30 6085 H 558.042 -4.86372 4.98413 0
M  V30 6086 H 555.669 -5.07052 5.66395 0
M  V30 6087 N 557.244 -0.608902 -1.45362 0
M  V30 6088 C 558.174 0.0964526 -2.33301 0
M  V30 6089 C 559.155 0.857444 -1.46908 0
M  V30 6090 O 560.34 0.827735 -1.75676 0
M  V30 6091 C 557.47 1.09354 -3.29635 0
M  V30 6092 C 556.424 0.445676 -4.25673 0
M  V30 6093 C 555.75 1.5511 -5.11708 0
M  V30 6094 C 557.05 -0.633972 -5.18438 0
M  V30 6095 H 558.744 -0.637829 -2.92527 0
M  V30 6096 H 556.29 -0.308178 -1.40664 0
M  V30 6097 H 558.243 1.59556 -3.90025 0
M  V30 6098 H 556.967 1.85843 -2.6857 0
M  V30 6099 H 555.626 -0.0354897 -3.66583 0
M  V30 6100 H 555.274 2.30631 -4.4701 0
M  V30 6101 H 554.974 1.12311 -5.76767 0
M  V30 6102 H 556.498 2.05537 -5.74967 0
M  V30 6103 H 557.912 -0.215974 -5.72893 0
M  V30 6104 H 556.309 -0.983789 -5.91981 0
M  V30 6105 H 557.379 -1.51005 -4.60788 0
M  V30 6106 N 558.722 1.53707 -0.348139 0
M  V30 6107 C 560.133 1.86213 0.134797 0
M  V30 6108 C 560.484 1.26925 1.49614 0
M  V30 6109 O 559.609 0.584573 2.08355 0
M  V30 6110 C 560.204 3.37866 0.251371 0
M  V30 6111 C 558.763 3.70233 0.678543 0
M  V30 6112 C 557.91 2.76683 -0.184925 0
M  V30 6113 H 560.861 1.48204 -0.567571 0
M  V30 6114 H 560.882 3.64908 1.07806 0
M  V30 6115 H 560.394 3.80988 -0.739581 0
M  V30 6116 H 558.495 3.32659 1.67835 0
M  V30 6117 H 558.608 4.76836 0.465251 0
M  V30 6118 H 556.972 2.52374 0.343465 0
M  V30 6119 H 557.755 3.22635 -1.1731 0
M  V30 6120 N 560.2 0.0768682 1.57412 0
M  V30 6121 C 561.616 -0.279772 1.57129 0
M  V30 6122 C 561.816 -1.69688 1.08666 0
M  V30 6123 O 560.872 -2.40953 0.754843 0
M  V30 6124 C 562.185 -0.0848055 3.0058 0
M  V30 6125 C 563.733 -0.153954 3.12621 0
M  V30 6126 C 564.208 0.0127946 4.57998 0
M  V30 6127 N 565.699 -0.0426435 4.6318 0
M  V30 6128 C 566.434 0.0618892 5.73367 0
M  V30 6129 N 565.93 0.220229 6.9245 0
M  V30 6130 N 567.723 0.00446072 5.621 0
M  V30 6131 H 559.874 1.00297 1.87228 0
M  V30 6132 H 562.137 0.391565 0.863354 0
M  V30 6133 H 561.843 0.89325 3.40168 0
M  V30 6134 H 561.717 -0.834961 3.67843 0
M  V30 6135 H 564.104 -1.1225 2.72917 0
M  V30 6136 H 564.185 0.627389 2.47987 0
M  V30 6137 H 563.829 0.978128 4.98392 0
M  V30 6138 H 563.759 -0.788016 5.20671 0
M  V30 6139 H 566.25 -0.163226 3.77547 0
M  V30 6140 H 566.563 0.291999 7.72248 0
M  V30 6141 H 564.908 0.255658 6.9453 0
M  V30 6142 H 568.099 -0.117979 4.67951 0
M  V30 6143 H 568.272 0.0893796 6.47938 0
M  V30 6144 N 561.678 -1.56367 -0.196722 0
M  V30 6145 C 562.588 -1.97617 -1.2643 0
M  V30 6146 C 563.604 -0.883598 -1.49895 0
M  V30 6147 O 564.78 -1.18921 -1.62541 0
M  V30 6148 C 561.845 -2.30595 -2.58895 0
M  V30 6149 C 560.906 -3.53551 -2.43516 0
M  V30 6150 C 560.139 -3.84946 -3.69665 0
M  V30 6151 O 560.362 -3.17655 -4.73763 0
M  V30 6152 O 559.296 -4.78379 -3.65291 0
M  V30 6153 H 563.122 -2.88648 -0.944233 0
M  V30 6154 H 560.707 -1.43901 -0.401592 0
M  V30 6155 H 562.589 -2.52889 -3.37083 0
M  V30 6156 H 561.264 -1.42732 -2.90533 0
M  V30 6157 H 560.171 -3.36507 -1.63445 0
M  V30 6158 H 561.504 -4.41875 -2.16812 0
M  V30 6159 N 563.156 0.464375 -1.50603 0
M  V30 6160 C 564.106 1.55929 -1.66343 0
M  V30 6161 C 565.09 1.52338 -0.517887 0
M  V30 6162 O 566.282 1.59248 -0.772601 0
M  V30 6163 C 563.411 2.94327 -1.7671 0
M  V30 6164 C 562.497 3.02777 -2.96962 0
M  V30 6165 N 562.888 2.81026 -4.20545 0
M  V30 6166 C 561.186 3.33919 -2.95659 0
M  V30 6167 C 561.887 2.94618 -5.01573 0
M  V30 6168 N 560.863 3.25112 -4.35664 0
M  V30 6169 H 564.665 1.37822 -2.59581 0
M  V30 6170 H 562.179 0.671227 -1.47879 0
M  V30 6171 H 564.176 3.73063 -1.86091 0
M  V30 6172 H 562.836 3.13476 -0.846353 0
M  V30 6173 H 563.847 2.56477 -4.49933 0
M  V30 6174 H 560.524 3.59013 -2.13111 0
M  V30 6175 H 561.914 2.81984 -6.09865 0
M  V30 6176 N 564.634 1.40294 0.718013 0
M  V30 6177 C 565.883 1.37746 1.4734 0
M  V30 6178 C 566.196 -0.0180754 1.95592 0
M  V30 6179 O 567.402 -0.166166 2.70991 0
M  V30 6180 C 565.858 2.4208 2.66318 0
M  V30 6181 C 565.466 3.87432 2.24945 0
M  V30 6182 C 567.21 2.48635 3.44065 0
M  V30 6183 C 565.117 4.83368 3.40748 0
M  V30 6184 H 564.047 0.512165 0.553356 0
M  V30 6185 H 566.698 1.66019 0.781661 0
M  V30 6186 H 565.08 2.06903 3.3765 0
M  V30 6187 H 566.254 4.3174 1.6105 0
M  V30 6188 H 564.569 3.8433 1.60249 0
M  V30 6189 H 567.166 3.17499 4.30231 0
M  V30 6190 H 567.509 1.51611 3.87711 0
M  V30 6191 H 568.042 2.82791 2.79775 0
M  V30 6192 H 564.781 5.81716 3.02136 0
M  V30 6193 H 564.301 4.43726 4.03568 0
M  V30 6194 H 565.98 5.03074 4.06848 0
M  V30 6195 N 566.112 -0.949982 1.2575 0
M  V30 6196 C 567.361 -1.68956 1.10168 0
M  V30 6197 C 567.674 -1.92327 -0.356309 0
M  V30 6198 O 568.88 -2.64026 -0.632657 0
M  V30 6199 C 567.336 -3.04196 1.92336 0
M  V30 6200 C 566.944 -2.88603 3.42655 0
M  V30 6201 C 568.688 -3.81904 1.85336 0
M  V30 6202 C 566.595 -4.19262 4.17101 0
M  V30 6203 H 565.525 -0.633645 0.408668 0
M  V30 6204 H 568.176 -1.05719 1.49986 0
M  V30 6205 H 566.558 -3.68363 1.45344 0
M  V30 6206 H 567.732 -2.3334 3.97353 0
M  V30 6207 H 566.047 -2.24345 3.50796 0
M  V30 6208 H 568.644 -4.78688 2.38248 0
M  V30 6209 H 568.987 -4.08099 0.822226 0
M  V30 6210 H 569.52 -3.24495 2.30104 0
M  V30 6211 H 566.259 -3.98254 5.20648 0
M  V30 6212 H 565.779 -4.74273 3.67186 0
M  V30 6213 H 567.458 -4.87775 4.25071 0
M  V30 6214 N 567.59 -1.07411 -1.15328 0
M  V30 6215 C 568.867 -0.710732 -1.82231 0
M  V30 6216 C 569.247 0.806732 -1.95077 0
M  V30 6217 O 568.595 1.72139 -1.50268 0
M  V30 6218 C 568.805 -1.42586 -3.18544 0
M  V30 6219 C 570.153 -1.57836 -3.94174 0
M  V30 6220 O 571.177 -1.38669 -3.281 0
M  V30 6221 O 570.036 -1.8938 -5.12638 0
M  V30 6222 H 567.13 -0.25297 -0.78736 0
M  V30 6223 H 569.676 -1.17508 -1.22434 0
M  V30 6224 H 568.448 -2.46008 -3.04296 0
M  V30 6225 H 568.071 -0.952332 -3.86026 0
M  V30 6226 N 569.068 1.32177 -0.85831 0
M  V30 6227 C 570.296 2.01313 -0.477582 0
M  V30 6228 C 570.711 1.6449 0.926736 0
M  V30 6229 O 570.068 0.868096 1.60531 0
M  V30 6230 C 570.119 3.56293 -0.611337 0
M  V30 6231 O 569.84 3.91794 -1.96034 0
M  V30 6232 C 571.341 4.42702 -0.230093 0
M  V30 6233 H 568.561 0.644323 -0.187322 0
M  V30 6234 H 571.105 1.68674 -1.15626 0
M  V30 6235 H 569.26 3.87395 0.0196494 0
M  V30 6236 H 569.674 4.86513 -1.95973 0
M  V30 6237 H 571.148 5.50727 -0.374674 0
M  V30 6238 H 571.625 4.3129 0.829779 0
M  V30 6239 H 572.231 4.16997 -0.836302 0
M  V30 6240 N 570.547 0.616602 1.45037 0
M  V30 6241 C 571.794 0.115331 2.02171 0
M  V30 6242 C 572.122 -1.25748 1.48383 0
M  V30 6243 O 571.377 -1.84511 0.652229 0
M  V30 6244 C 571.676 0.0356829 3.57382 0
M  V30 6245 C 571.342 1.34535 4.30362 0
M  V30 6246 C 570.004 1.70408 4.50016 0
M  V30 6247 C 572.356 2.21049 4.72003 0
M  V30 6248 C 569.684 2.92529 5.0857 0
M  V30 6249 C 572.036 3.42427 5.31908 0
M  V30 6250 C 570.7 3.78541 5.49784 0
M  V30 6251 H 569.97 0.0422024 0.739797 0
M  V30 6252 H 572.617 0.80002 1.73988 0
M  V30 6253 H 570.922 -0.732314 3.84895 0
M  V30 6254 H 572.619 -0.368463 3.99304 0
M  V30 6255 H 569.209 1.05615 4.15383 0
M  V30 6256 H 573.393 1.94632 4.56544 0
M  V30 6257 H 568.649 3.20605 5.20598 0
M  V30 6258 H 572.823 4.09709 5.63127 0
M  V30 6259 H 570.45 4.73255 5.94923 0
M  V30 6260 N 572.025 -1.5352 0.356285 0
M  V30 6261 C 573.271 -2.01414 -0.236653 0
M  V30 6262 C 573.604 -1.24339 -1.49176 0
M  V30 6263 O 572.879 -0.334496 -1.91602 0
M  V30 6264 C 573.162 -3.56059 -0.537982 0
M  V30 6265 C 573.015 -4.43835 0.730112 0
M  V30 6266 C 574.334 -4.19127 -1.34239 0
M  V30 6267 H 571.453 -0.732135 -0.0845386 0
M  V30 6268 H 574.095 -1.83854 0.479341 0
M  V30 6269 H 572.245 -3.71153 -1.14795 0
M  V30 6270 H 573.917 -4.40555 1.36782 0
M  V30 6271 H 572.16 -4.1218 1.3524 0
M  V30 6272 H 572.831 -5.49958 0.474358 0
M  V30 6273 H 575.307 -4.07809 -0.826498 0
M  V30 6274 H 574.183 -5.27378 -1.52198 0
M  V30 6275 H 574.444 -3.74581 -2.34822 0
M  V30 6276 N 573.503 -0.0852151 -1.57369 0
M  V30 6277 C 574.749 0.581666 -1.94279 0
M  V30 6278 C 575.082 1.68444 -0.966446 0
M  V30 6279 O 574.357 1.945 0.00215277 0
M  V30 6280 C 574.64 1.14609 -3.41375 0
M  V30 6281 C 574.493 0.0490414 -4.49773 0
M  V30 6282 C 575.812 2.04751 -3.8957 0
M  V30 6283 H 572.931 0.209972 -0.706456 0
M  V30 6284 H 575.573 -0.153915 -1.89376 0
M  V30 6285 H 573.723 1.77297 -3.45685 0
M  V30 6286 H 575.395 -0.584721 -4.57579 0
M  V30 6287 H 573.638 -0.618638 -4.29366 0
M  V30 6288 H 574.309 0.484601 -5.49869 0
M  V30 6289 H 576.785 1.51981 -3.87351 0
M  V30 6290 H 575.661 2.41173 -4.93079 0
M  V30 6291 H 575.922 2.96107 -3.28288 0
M  V30 6292 N 574.981 1.5647 0.188427 0
M  V30 6293 C 575.891 1.98285 1.2538 0
M  V30 6294 C 576.907 0.891535 1.49424 0
M  V30 6295 O 578.083 1.19782 1.61908 0
M  V30 6296 C 575.148 2.31965 2.57669 0
M  V30 6297 C 574.209 3.54838 2.41638 0
M  V30 6298 C 573.442 3.86901 3.67618 0
M  V30 6299 O 573.665 3.20163 4.72072 0
M  V30 6300 O 572.599 4.80309 3.62749 0
M  V30 6301 H 576.425 2.89145 0.928912 0
M  V30 6302 H 574.01 1.44112 0.393955 0
M  V30 6303 H 575.892 2.54673 3.35737 0
M  V30 6304 H 574.567 1.44271 2.89771 0
M  V30 6305 H 573.474 3.37369 1.61658 0
M  V30 6306 H 574.807 4.43019 2.14465 0
M  V30 6307 N 576.459 -0.456382 1.50847 0
M  V30 6308 C 577.684 -1.2349 1.66628 0
M  V30 6309 C 578.109 -1.84715 0.355254 0
M  V30 6310 O 577.467 -1.67961 -0.682559 0
M  V30 6311 C 577.515 -2.30865 2.77009 0
M  V30 6312 O 576.619 -3.35882 2.39285 0
M  V30 6313 H 575.96 -0.36266 0.556214 0
M  V30 6314 H 578.49 -0.541374 1.97308 0
M  V30 6315 H 578.5 -2.75949 3.00526 0
M  V30 6316 H 577.175 -1.85677 3.72152 0
M  V30 6317 H 575.752 -2.96406 2.26269 0
M  V30 6318 N 577.937 -1.40673 -0.710563 0
M  V30 6319 C 579.348 -1.34975 -1.28991 0
M  V30 6320 C 579.699 -0.0256272 -1.96183 0
M  V30 6321 O 578.824 0.876339 -1.97862 0
M  V30 6322 C 579.419 -2.44467 -2.34567 0
M  V30 6323 C 577.978 -2.42213 -2.88114 0
M  V30 6324 C 577.125 -2.25085 -1.61963 0
M  V30 6325 H 580.076 -1.50406 -0.506343 0
M  V30 6326 H 580.097 -2.12663 -3.15523 0
M  V30 6327 H 579.609 -3.40825 -1.85634 0
M  V30 6328 H 577.71 -1.49568 -3.41263 0
M  V30 6329 H 577.823 -3.37983 -3.39565 0
M  V30 6330 H 576.187 -1.72691 -1.87216 0
M  V30 6331 H 576.97 -3.23449 -1.15047 0
M  V30 6332 N 579.415 0.9433 -1.26252 0
M  V30 6333 C 580.363 2.06302 -1.07434 0
M  V30 6334 C 581.357 1.694 -0.00189471 0
M  V30 6335 O 582.563 1.79302 -0.158408 0
M  V30 6336 H 578.938 0.675453 -0.330556 0
M  V30 6337 H 580.909 2.19326 -2.02333 0
M  V30 6338 C 579.658 3.40125 -0.721817 0
M  V30 6339 H 578.981 3.68996 -1.5389 0
M  V30 6340 H 580.421 4.19295 -0.629922 0
M  V30 6341 C 578.88 3.31993 0.572902 0
M  V30 6342 O 579.41 3.67945 1.61182 0
M  V30 6343 N 577.616 2.85099 0.562748 0
M  V30 6344 H 577.163 2.5604 -0.283092 0
M  V30 6345 H 577.121 2.80041 1.42915 0
M  V30 6346 N 580.893 1.08022 1.14757 0
M  V30 6347 C 582.141 0.805913 1.85336 0
M  V30 6348 C 582.462 -0.670162 1.83122 0
M  V30 6349 O 581.732 -1.48567 1.2769 0
M  V30 6350 H 580.312 0.295138 0.686223 0
M  V30 6351 H 582.974 1.36538 1.3908 0
M  V30 6352 H 582.07 1.14655 2.90277 0
M  V30 6353 N 582.371 -1.3172 0.865308 0
M  V30 6354 C 583.318 -2.2863 0.315736 0
M  V30 6355 C 584.288 -1.55524 -0.583213 0
M  V30 6356 O 585.473 -1.83694 -0.51585 0
M  V30 6357 C 582.613 -3.41735 -0.480773 0
M  V30 6358 C 581.726 -4.297 0.445167 0
M  V30 6359 C 580.861 -5.29944 -0.365012 0
M  V30 6360 C 579.9 -6.09554 0.557651 0
M  V30 6361 N 579.037 -7.01768 -0.215994 0
M  V30 6362 H 583.877 -2.75026 1.14736 0
M  V30 6363 H 581.414 -1.35302 0.577209 0
M  V30 6364 H 583.372 -4.06045 -0.958306 0
M  V30 6365 H 582.002 -2.96461 -1.27714 0
M  V30 6366 H 581.054 -3.65875 1.04113 0
M  V30 6367 H 582.366 -4.85295 1.15284 0
M  V30 6368 H 581.52 -5.99908 -0.905255 0
M  V30 6369 H 580.259 -4.74994 -1.106 0
M  V30 6370 H 579.264 -5.38485 1.10969 0
M  V30 6371 H 580.489 -6.66591 1.29742 0
M  V30 6372 H 578.435 -6.49232 -0.939878 0
M  V30 6373 H 578.352 -7.54762 0.432431 0
M  V30 6374 H 579.62 -7.76002 -0.737618 0
M  V30 6375 N 583.85 -0.624285 -1.44708 0
M  V30 6376 C 584.779 0.0717025 -2.3339 0
M  V30 6377 C 585.76 0.841814 -1.47809 0
M  V30 6378 O 586.946 0.809056 -1.76544 0
M  V30 6379 C 584.076 1.05852 -3.30776 0
M  V30 6380 C 583.029 0.400503 -4.26122 0
M  V30 6381 C 582.356 1.49674 -5.13324 0
M  V30 6382 C 583.656 -0.688924 -5.17737 0
M  V30 6383 H 585.35 -0.668819 -2.91834 0
M  V30 6384 H 582.896 -0.32308 -1.40329 0
M  V30 6385 H 584.849 1.5541 -3.91696 0
M  V30 6386 H 583.572 1.82984 -2.70526 0
M  V30 6387 H 582.231 -0.0743687 -3.66525 0
M  V30 6388 H 581.88 2.25877 -4.49431 0
M  V30 6389 H 581.58 1.06188 -5.77926 0
M  V30 6390 H 583.104 1.99427 -5.77115 0
M  V30 6391 H 584.518 -0.276724 -5.72632 0
M  V30 6392 H 582.915 -1.04652 -5.90904 0
M  V30 6393 H 583.985 -1.55884 -4.5916 0
M  V30 6394 N 585.328 1.53329 -0.364422 0
M  V30 6395 C 586.556 2.05657 0.226424 0
M  V30 6396 C 586.971 1.23801 1.42544 0
M  V30 6397 O 586.328 0.27839 1.80364 0
M  V30 6398 C 586.379 3.56125 0.621056 0
M  V30 6399 O 586.1 4.34879 -0.530304 0
M  V30 6400 C 587.601 4.24706 1.27041 0
M  V30 6401 H 584.821 0.669806 0.0400056 0
M  V30 6402 H 587.365 1.97714 -0.522456 0
M  V30 6403 H 585.52 3.64223 1.31985 0
M  V30 6404 H 585.934 5.24073 -0.211546 0
M  V30 6405 H 587.408 5.3131 1.49711 0
M  V30 6406 H 587.885 3.78354 2.23036 0
M  V30 6407 H 588.491 4.20858 0.613079 0
M  V30 6408 N 586.806 0.0935595 1.57322 0
M  V30 6409 C 588.083 -0.612692 1.85756 0
M  V30 6410 C 588.463 -1.86439 0.99013 0
M  V30 6411 O 587.811 -2.28416 0.0621362 0
M  V30 6412 C 588.021 -0.929547 3.36393 0
M  V30 6413 C 589.369 -1.29366 4.04413 0
M  V30 6414 O 590.393 -1.02061 3.41265 0
M  V30 6415 O 589.252 -1.80498 5.15832 0
M  V30 6416 H 586.346 -0.306444 0.768128 0
M  V30 6417 H 588.892 0.126141 1.69231 0
M  V30 6418 H 587.664 -0.0414766 3.91278 0
M  V30 6419 H 587.287 -1.72441 3.5826 0
M  V30 6420 N 588.284 -1.56567 -0.180126 0
M  V30 6421 C 589.531 -1.81492 -0.898167 0
M  V30 6422 C 589.859 -0.669225 -1.82624 0
M  V30 6423 O 589.114 0.344096 -1.92651 0
M  V30 6424 C 589.413 -3.1252 -1.73395 0
M  V30 6425 C 589.079 -4.40658 -0.955567 0
M  V30 6426 C 587.741 -4.75465 -0.740707 0
M  V30 6427 C 590.093 -5.19593 -0.408948 0
M  V30 6428 C 587.421 -5.86691 0.0320128 0
M  V30 6429 C 589.773 -6.31627 0.350638 0
M  V30 6430 C 588.437 -6.65007 0.576378 0
M  V30 6431 H 587.707 -0.664125 -0.328662 0
M  V30 6432 H 590.354 -1.908 -0.163616 0
M  V30 6433 H 588.659 -2.98515 -2.53763 0
M  V30 6434 H 590.356 -3.29013 -2.29241 0
M  V30 6435 H 586.946 -4.13352 -1.13306 0
M  V30 6436 H 591.13 -4.93104 -0.562307 0
M  V30 6437 H 586.386 -6.11016 0.216735 0
M  V30 6438 H 590.56 -6.92001 0.781497 0
M  V30 6439 H 588.187 -7.51033 1.17703 0
M  V30 6440 N 589.762 0.448376 -1.51087 0
M  V30 6441 C 590.692 1.55102 -1.74544 0
M  V30 6442 C 591.673 1.59357 -0.594932 0
M  V30 6443 O 592.858 1.75261 -0.836491 0
M  V30 6444 C 589.988 2.93268 -1.86041 0
M  V30 6445 C 588.942 3.03877 -3.01402 0
M  V30 6446 C 588.268 4.43914 -2.98068 0
M  V30 6447 C 589.568 2.7898 -4.41551 0
M  V30 6448 H 591.262 1.35724 -2.66869 0
M  V30 6449 H 588.808 0.651498 -1.28419 0
M  V30 6450 H 590.761 3.70356 -2.01034 0
M  V30 6451 H 589.485 3.13853 -0.903548 0
M  V30 6452 H 588.144 2.29227 -2.86096 0
M  V30 6453 H 587.792 4.6145 -2.00182 0
M  V30 6454 H 587.492 4.51944 -3.75527 0
M  V30 6455 H 589.016 5.22991 -3.1514 0
M  V30 6456 H 590.43 3.45805 -4.57265 0
M  V30 6457 H 588.827 2.98431 -5.20633 0
M  V30 6458 H 589.897 1.74663 -4.5235 0
M  V30 6459 N 591.24 1.41047 0.703093 0
M  V30 6460 C 592.465 1.43537 1.49706 0
M  V30 6461 C 592.89 0.0401853 1.88057 0
M  V30 6462 O 592.248 -0.954785 1.54122 0
M  V30 6463 C 592.296 2.3433 2.74084 0
M  V30 6464 O 591.4 1.79515 3.71279 0
M  V30 6465 H 590.741 0.487454 0.450871 0
M  V30 6466 H 593.271 1.85422 0.86486 0
M  V30 6467 H 593.281 2.49947 3.22476 0
M  V30 6468 H 591.956 3.35708 2.45506 0
M  V30 6469 H 590.533 1.7331 3.30179 0
M  V30 6470 N 592.718 -0.936591 1.26751 0
M  V30 6471 C 593.965 -1.68331 1.12566 0
M  V30 6472 C 594.293 -1.91677 -0.330168 0
M  V30 6473 O 593.548 -1.49859 -1.2586 0
M  V30 6474 C 593.847 -3.06099 1.84494 0
M  V30 6475 C 593.513 -3.02493 3.34378 0
M  V30 6476 C 592.175 -3.01217 3.75262 0
M  V30 6477 C 594.527 -2.94453 4.30055 0
M  V30 6478 C 591.855 -2.89672 5.10203 0
M  V30 6479 C 594.207 -2.84449 5.65041 0
M  V30 6480 C 592.871 -2.81518 6.0523 0
M  V30 6481 H 592.141 -0.615965 0.411907 0
M  V30 6482 H 594.788 -1.09292 1.5725 0
M  V30 6483 H 593.093 -3.6879 1.32292 0
M  V30 6484 H 594.79 -3.62733 1.70955 0
M  V30 6485 H 591.38 -3.04269 3.01858 0
M  V30 6486 H 595.564 -2.94544 3.99447 0
M  V30 6487 H 590.82 -2.85783 5.40498 0
M  V30 6488 H 594.994 -2.77192 6.38856 0
M  V30 6489 H 592.621 -2.72329 7.09747 0
M  V30 6490 N 594.196 -1.08629 -1.14182 0
M  V30 6491 C 595.426 -0.837673 -1.88856 0
M  V30 6492 C 595.834 0.614024 -1.78959 0
M  V30 6493 O 595.177 1.43384 -1.14833 0
M  V30 6494 C 595.239 -1.18355 -3.39459 0
M  V30 6495 C 594.903 -2.63848 -3.73139 0
M  V30 6496 C 595.9 -3.62099 -3.73069 0
M  V30 6497 C 593.585 -2.99761 -4.03049 0
M  V30 6498 C 595.579 -4.94292 -4.02435 0
M  V30 6499 C 593.266 -4.32147 -4.32078 0
M  V30 6500 C 594.264 -5.29223 -4.31755 0
M  V30 6501 O 593.952 -6.59229 -4.60079 0
M  V30 6502 H 593.684 -0.301609 -0.604986 0
M  V30 6503 H 596.238 -1.44961 -1.45518 0
M  V30 6504 H 594.468 -0.514628 -3.8326 0
M  V30 6505 H 596.157 -0.915391 -3.95443 0
M  V30 6506 H 596.923 -3.35698 -3.50046 0
M  V30 6507 H 592.802 -2.2484 -4.02453 0
M  V30 6508 H 596.346 -5.70055 -4.02098 0
M  V30 6509 H 592.243 -4.58296 -4.54571 0
M  V30 6510 H 593.011 -6.64578 -4.77785 0
M  V30 6511 N 595.674 1.31259 -0.872281 0
M  V30 6512 C 596.902 2.00795 -0.498907 0
M  V30 6513 C 597.317 1.65464 0.909238 0
M  V30 6514 O 596.674 0.885073 1.59602 0
M  V30 6515 C 596.725 3.55625 -0.649092 0
M  V30 6516 O 596.446 3.89692 -2.00179 0
M  V30 6517 C 597.947 4.42434 -0.277034 0
M  V30 6518 H 595.167 0.642299 -0.194145 0
M  V30 6519 H 597.711 1.67438 -1.17408 0
M  V30 6520 H 595.866 3.87394 -0.0214402 0
M  V30 6521 H 596.28 4.84407 -2.01122 0
M  V30 6522 H 597.754 5.50299 -0.433064 0
M  V30 6523 H 598.231 4.32146 0.783989 0
M  V30 6524 H 598.837 4.16086 -0.880483 0
M  V30 6525 N 597.152 0.631951 1.44375 0
M  V30 6526 C 598.082 -0.0593243 2.33425 0
M  V30 6527 C 599.063 -0.833964 1.48253 0
M  V30 6528 O 600.248 -0.799682 1.76971 0
M  V30 6529 C 597.378 -1.04096 3.31333 0
M  V30 6530 C 596.332 -0.377899 4.26328 0
M  V30 6531 C 595.658 -1.4695 5.14111 0
M  V30 6532 C 596.958 0.716371 5.17364 0
M  V30 6533 H 598.652 0.684287 2.91475 0
M  V30 6534 H 596.198 0.330518 1.40156 0
M  V30 6535 H 598.151 -1.53331 3.92514 0
M  V30 6536 H 596.875 -1.81547 2.71493 0
M  V30 6537 H 595.534 0.0938054 3.6648 0
M  V30 6538 H 595.182 -2.2349 4.50623 0
M  V30 6539 H 594.882 -1.03121 5.78481 0
M  V30 6540 H 596.406 -1.96363 5.78164 0
M  V30 6541 H 597.82 0.307089 5.72477 0
M  V30 6542 H 596.217 1.07784 5.90341 0
M  V30 6543 H 597.287 1.58316 4.58327 0
M  V30 6544 N 598.631 -1.53133 0.372548 0
M  V30 6545 C 600.042 -1.86404 -0.105155 0
M  V30 6546 C 600.393 -1.29289 -1.47576 0
M  V30 6547 O 599.518 -0.617646 -2.07398 0
M  V30 6548 C 600.113 -3.38223 -0.197588 0
M  V30 6549 C 598.672 -3.71266 -0.619556 0
M  V30 6550 C 597.819 -2.76353 0.228919 0
M  V30 6551 H 600.77 -1.47282 0.591077 0
M  V30 6552 H 600.791 -3.66577 -1.01987 0
M  V30 6553 H 600.303 -3.79763 0.800099 0
M  V30 6554 H 598.404 -3.35287 -1.62522 0
M  V30 6555 H 598.517 -4.77515 -0.389332 0
M  V30 6556 H 596.881 -2.52888 -0.303271 0
M  V30 6557 H 597.664 -3.20728 1.22428 0
M  V30 6558 N 600.109 -0.101901 -1.5727 0
M  V30 6559 C 601.334 0.571759 -1.99363 0
M  V30 6560 C 601.759 1.60507 -0.980768 0
M  V30 6561 O 601.117 1.81231 0.0498517 0
M  V30 6562 C 601.165 1.18996 -3.404 0
M  V30 6563 O 600.269 2.30572 -3.41922 0
M  V30 6564 H 599.61 0.144449 -0.648098 0
M  V30 6565 H 602.14 -0.185325 -2.03759 0
M  V30 6566 H 602.15 1.52962 -3.78241 0
M  V30 6567 H 600.825 0.432984 -4.1364 0
M  V30 6568 H 599.402 1.98173 -3.15883 0
M  V30 6569 N 601.587 1.56661 0.17182 0
M  V30 6570 C 602.815 1.861 0.904115 0
M  V30 6571 C 603.23 0.687227 1.75848 0
M  V30 6572 O 602.587 -0.343671 1.79235 0
M  V30 6573 C 602.638 3.14568 1.78127 0
M  V30 6574 O 602.359 4.27422 0.961366 0
M  V30 6575 C 603.86 3.5735 2.62327 0
M  V30 6576 H 601.08 0.617445 0.262684 0
M  V30 6577 H 603.624 2.03775 0.172068 0
M  V30 6578 H 601.779 2.98721 2.46666 0
M  V30 6579 H 602.193 5.00725 1.56123 0
M  V30 6580 H 603.667 4.50144 3.1949 0
M  V30 6581 H 604.144 2.81445 3.37173 0
M  V30 6582 H 604.75 3.75807 1.99121 0
M  V30 6583 N 603.065 -0.440357 1.51323 0
M  V30 6584 C 604.311 -1.19181 1.64085 0
M  V30 6585 C 604.644 -1.90936 0.354575 0
M  V30 6586 O 603.919 -1.8347 -0.645675 0
M  V30 6587 C 604.202 -2.2112 2.84215 0
M  V30 6588 C 604.055 -1.53468 4.22809 0
M  V30 6589 C 605.374 -3.22133 2.99864 0
M  V30 6590 H 602.493 -0.431924 0.597169 0
M  V30 6591 H 605.135 -0.481443 1.83799 0
M  V30 6592 H 603.285 -2.81703 2.67537 0
M  V30 6593 H 604.957 -0.962455 4.51148 0
M  V30 6594 H 603.2 -0.837086 4.25647 0
M  V30 6595 H 603.871 -2.27694 5.02852 0
M  V30 6596 H 606.347 -2.71601 3.15233 0
M  V30 6597 H 605.223 -3.90756 3.85488 0
M  V30 6598 H 605.484 -3.88061 2.11804 0
M  V30 6599 N 604.543 -1.41418 -0.695603 0
M  V30 6600 C 605.476 -1.3768 -1.81988 0
M  V30 6601 C 606.454 -0.244061 -1.60758 0
M  V30 6602 O 607.638 -0.430965 -1.83507 0
M  V30 6603 C 604.765 -1.1476 -3.18666 0
M  V30 6604 C 603.811 -2.30752 -3.58686 0
M  V30 6605 S 604.644 -3.9323 -3.63498 0
M  V30 6606 C 605.8 -3.72613 -5.02902 0
M  V30 6607 H 606.033 -2.32822 -1.84882 0
M  V30 6608 H 603.566 -1.27942 -0.86431 0
M  V30 6609 H 605.524 -1.02223 -3.97569 0
M  V30 6610 H 604.185 -0.212385 -3.13381 0
M  V30 6611 H 603.378 -2.10409 -4.57978 0
M  V30 6612 H 602.98 -2.39696 -2.87092 0
M  V30 6613 H 605.272 -3.32317 -5.904 0
M  V30 6614 H 606.215 -4.71507 -5.28286 0
M  V30 6615 H 606.623 -3.0589 -4.74438 0
M  V30 6616 N 606.021 0.929856 -1.27246 0
M  V30 6617 C 606.971 2.01629 -1.06442 0
M  V30 6618 C 607.955 1.60899 0.00687842 0
M  V30 6619 O 609.147 1.75733 -0.211407 0
M  V30 6620 C 606.276 3.35849 -0.711361 0
M  V30 6621 C 605.362 3.8303 -1.82069 0
M  V30 6622 N 605.753 4.02743 -3.05993 0
M  V30 6623 C 604.051 4.12046 -1.70687 0
M  V30 6624 C 604.752 4.42001 -3.78167 0
M  V30 6625 N 603.728 4.4935 -3.05918 0
M  V30 6626 H 607.53 2.14898 -2.00489 0
M  V30 6627 H 605.044 1.11654 -1.17929 0
M  V30 6628 H 607.041 4.13343 -0.543442 0
M  V30 6629 H 605.701 3.23944 0.221517 0
M  V30 6630 H 606.712 3.89112 -3.41778 0
M  V30 6631 H 603.389 4.08866 -0.844681 0
M  V30 6632 H 604.779 4.6535 -4.84664 0
M  V30 6633 N 607.499 1.09233 1.13605 0
M  V30 6634 C 608.449 0.6994 2.17008 0
M  V30 6635 C 609.433 -0.285238 1.58352 0
M  V30 6636 O 610.625 -0.09592 1.7674 0
M  V30 6637 C 607.754 0.11938 3.43092 0
M  V30 6638 C 606.84 1.13031 4.0876 0
M  V30 6639 N 607.231 2.31673 4.49623 0
M  V30 6640 C 605.529 0.967999 4.35369 0
M  V30 6641 C 606.23 2.95964 5.00779 0
M  V30 6642 N 605.206 2.23534 4.95513 0
M  V30 6643 H 609.008 1.60272 2.46354 0
M  V30 6644 H 606.522 0.968257 1.30378 0
M  V30 6645 H 608.519 -0.180122 4.16511 0
M  V30 6646 H 607.179 -0.778816 3.15221 0
M  V30 6647 H 608.19 2.69277 4.42391 0
M  V30 6648 H 604.867 0.124319 4.17315 0
M  V30 6649 H 606.257 3.96813 5.42208 0
M  V30 6650 N 608.977 -1.30795 0.87923 0
M  V30 6651 C 610.388 -1.78535 0.546093 0
M  V30 6652 C 610.739 -1.72354 -0.937467 0
M  V30 6653 O 609.864 -1.2969 -1.73233 0
M  V30 6654 C 610.459 -3.24181 0.9845 0
M  V30 6655 C 609.018 -3.69779 0.702871 0
M  V30 6656 C 608.165 -2.51377 1.17068 0
M  V30 6657 H 611.116 -1.17746 1.06403 0
M  V30 6658 H 611.137 -3.79227 0.311045 0
M  V30 6659 H 610.649 -3.28647 2.06429 0
M  V30 6660 H 608.75 -3.70806 -0.365166 0
M  V30 6661 H 608.863 -4.61507 1.28639 0
M  V30 6662 H 607.227 -2.47768 0.590172 0
M  V30 6663 H 608.01 -2.58584 2.25808 0
M  V30 6664 N 610.455 -0.639598 -1.44038 0
M  V30 6665 C 611.418 0.0506628 -2.29144 0
M  V30 6666 C 612.418 0.764001 -1.41491 0
M  V30 6667 O 613.608 0.607309 -1.63271 0
M  V30 6668 C 610.74 1.0824 -3.2326 0
M  V30 6669 H 611.933 -0.697987 -2.91664 0
M  V30 6670 H 609.486 -0.400146 -1.51091 0
M  V30 6671 H 610.221 1.86075 -2.65606 0
M  V30 6672 H 610.006 0.574725 -3.87865 0
M  V30 6673 H 611.496 1.56487 -3.87171 0
M  V30 6674 N 611.933 1.52934 -0.380664 0
M  V30 6675 C 612.883 2.22989 0.475399 0
M  V30 6676 C 613.867 1.23058 1.03661 0
M  V30 6677 O 615.059 1.48436 0.964146 0
M  V30 6678 C 612.188 3.0338 1.60671 0
M  V30 6679 C 611.274 4.107 1.05766 0
M  V30 6680 N 611.665 5.05264 0.232837 0
M  V30 6681 C 609.963 4.25676 1.33101 0
M  V30 6682 C 610.664 5.81658 -0.0695134 0
M  V30 6683 N 609.64 5.40989 0.532144 0
M  V30 6684 H 613.442 2.93456 -0.161418 0
M  V30 6685 H 610.956 1.61291 -0.189495 0
M  V30 6686 H 612.953 3.52098 2.23232 0
M  V30 6687 H 611.613 2.34446 2.24644 0
M  V30 6688 H 612.624 5.17739 -0.129204 0
M  V30 6689 H 609.301 3.6797 1.97241 0
M  V30 6690 H 610.691 6.67843 -0.737269 0
M  V30 6691 N 613.412 0.11024 1.57214 0
M  V30 6692 C 614.359 -0.843195 2.14846 0
M  V30 6693 C 615.329 -1.26954 1.07107 0
M  V30 6694 O 616.514 -1.34861 1.34971 0
M  V30 6695 C 613.654 -2.09123 2.74521 0
M  V30 6696 C 612.767 -1.71404 3.96541 0
M  V30 6697 C 611.902 -2.91107 4.44331 0
M  V30 6698 C 610.941 -2.49586 5.58903 0
M  V30 6699 N 610.078 -3.62175 6.01477 0
M  V30 6700 H 614.918 -0.344886 2.95998 0
M  V30 6701 H 612.455 -0.15855 1.46243 0
M  V30 6702 H 614.413 -2.82234 3.07246 0
M  V30 6703 H 613.043 -2.56427 1.96074 0
M  V30 6704 H 612.095 -0.88201 3.70033 0
M  V30 6705 H 613.407 -1.36884 4.7965 0
M  V30 6706 H 612.561 -3.72454 4.78919 0
M  V30 6707 H 611.3 -3.28848 3.60153 0
M  V30 6708 H 610.305 -1.6667 5.23929 0
M  V30 6709 H 611.53 -2.12973 6.4484 0
M  V30 6710 H 609.476 -3.99605 5.20242 0
M  V30 6711 H 609.393 -3.3155 6.79419 0
M  V30 6712 H 610.661 -4.43987 6.407 0
M  V30 6713 N 614.89 -1.56749 -0.16351 0
M  V30 6714 C 616.115 -1.86938 -0.898264 0
M  V30 6715 C 616.54 -0.697456 -1.74692 0
M  V30 6716 O 615.898 0.353327 -1.77824 0
M  V30 6717 C 615.946 -3.15599 -1.74441 0
M  V30 6718 O 615.05 -2.98371 -2.8469 0
M  V30 6719 H 614.391 -0.614659 -0.251178 0
M  V30 6720 H 616.921 -2.03979 -0.159298 0
M  V30 6721 H 616.931 -3.47202 -2.14277 0
M  V30 6722 H 615.606 -4.00505 -1.1211 0
M  V30 6723 H 614.183 -2.7814 -2.4838 0
M  V30 6724 N 616.368 0.432326 -1.51554 0
M  V30 6725 C 617.298 1.53242 -1.76179 0
M  V30 6726 C 618.279 1.58717 -0.611801 0
M  V30 6727 O 619.464 1.74364 -0.855033 0
M  V30 6728 C 616.594 2.91278 -1.89141 0
M  V30 6729 C 615.548 3.00663 -3.04608 0
M  V30 6730 C 614.874 4.40728 -3.02759 0
M  V30 6731 C 616.174 2.74281 -4.44485 0
M  V30 6732 H 617.868 1.32886 -2.68294 0
M  V30 6733 H 615.414 0.637841 -1.29103 0
M  V30 6734 H 617.367 3.68203 -2.04951 0
M  V30 6735 H 616.091 3.12877 -0.936785 0
M  V30 6736 H 614.75 2.26179 -2.88511 0
M  V30 6737 H 614.398 4.59301 -2.05065 0
M  V30 6738 H 614.098 4.47936 -3.80299 0
M  V30 6739 H 615.622 5.19619 -3.20669 0
M  V30 6740 H 617.036 3.40936 -4.60907 0
M  V30 6741 H 615.433 2.92893 -5.23769 0
M  V30 6742 H 616.503 1.69856 -4.54177 0
M  V30 6743 N 617.846 1.41785 0.688094 0
M  V30 6744 C 618.793 1.44221 1.80191 0
M  V30 6745 C 619.763 0.295688 1.63447 0
M  V30 6746 O 620.948 0.49783 1.84191 0
M  V30 6747 C 618.088 1.33743 3.1813 0
M  V30 6748 C 617.201 2.58325 3.46254 0
M  V30 6749 C 616.336 2.40086 4.73848 0
M  V30 6750 C 615.375 3.60107 4.94964 0
M  V30 6751 N 614.512 3.40892 6.13789 0
M  V30 6752 H 619.352 2.39411 1.77444 0
M  V30 6753 H 616.889 1.18876 0.866423 0
M  V30 6754 H 618.847 1.25669 3.97823 0
M  V30 6755 H 617.477 0.42157 3.20035 0
M  V30 6756 H 616.529 2.7682 2.60912 0
M  V30 6757 H 617.841 3.4758 3.57756 0
M  V30 6758 H 616.995 2.29522 5.61609 0
M  V30 6759 H 615.734 1.483 4.64606 0
M  V30 6760 H 614.739 3.71118 4.05649 0
M  V30 6761 H 615.964 4.52857 5.06061 0
M  V30 6762 H 613.91 2.51812 6.05745 0
M  V30 6763 H 613.827 4.23727 6.26092 0
M  V30 6764 H 615.095 3.34114 7.04264 0
M  V30 6765 N 619.324 -0.923095 1.27737 0
M  V30 6766 C 620.287 -2.00587 1.10894 0
M  V30 6767 C 621.287 -1.60718 0.0514927 0
M  V30 6768 O 622.477 -1.71658 0.296481 0
M  V30 6769 C 619.609 -3.33829 0.690717 0
M  V30 6770 H 620.802 -2.16959 2.07048 0
M  V30 6771 H 618.355 -1.10451 1.1059 0
M  V30 6772 H 619.09 -3.23157 -0.272 0
M  V30 6773 H 618.875 -3.64125 1.45448 0
M  V30 6774 H 620.365 -4.13336 0.595252 0
M  V30 6775 N 620.802 -1.09834 -1.13024 0
M  V30 6776 C 621.765 -0.745058 -2.16752 0
M  V30 6777 C 622.765 0.227435 -1.59183 0
M  V30 6778 O 623.955 0.0050786 -1.74199 0
M  V30 6779 C 621.087 -0.102543 -3.40746 0
M  V30 6780 H 622.28 -1.66375 -2.49518 0
M  V30 6781 H 619.833 -0.898061 -1.27924 0
M  V30 6782 H 620.568 0.827177 -3.13573 0
M  V30 6783 H 620.353 -0.80235 -3.83803 0
M  V30 6784 H 621.843 0.129082 -4.174 0
M  V30 6785 N 622.28 1.30327 -0.886154 0
M  V30 6786 C 623.51 1.99964 -0.519421 0
M  V30 6787 C 623.918 1.66593 0.89686 0
M  V30 6788 O 623.261 0.899886 1.60149 0
M  V30 6789 C 623.323 3.54187 -0.615795 0
M  V30 6790 C 622.987 4.11078 -1.9966 0
M  V30 6791 C 623.984 4.26985 -2.96614 0
M  V30 6792 C 621.669 4.46429 -2.30231 0
M  V30 6793 C 623.663 4.77456 -4.22273 0
M  V30 6794 C 621.35 4.966 -3.56135 0
M  V30 6795 C 622.348 5.12066 -4.5197 0
M  V30 6796 O 622.036 5.61154 -5.7564 0
M  V30 6797 H 621.768 0.645979 -0.199217 0
M  V30 6798 H 624.322 1.67154 -1.19368 0
M  V30 6799 H 622.552 3.86528 0.115448 0
M  V30 6800 H 624.241 4.05065 -0.26017 0
M  V30 6801 H 625.007 3.99975 -2.74308 0
M  V30 6802 H 620.886 4.33658 -1.56404 0
M  V30 6803 H 624.43 4.89444 -4.97082 0
M  V30 6804 H 620.327 5.23045 -3.78277 0
M  V30 6805 H 621.095 5.79494 -5.78039 0
M  V30 6806 N 623.758 0.647228 1.43697 0
M  V30 6807 C 624.983 0.164083 2.0675 0
M  V30 6808 C 625.408 -1.15892 1.48158 0
M  V30 6809 O 624.766 -1.71459 0.589194 0
M  V30 6810 C 624.814 0.0800368 3.60511 0
M  V30 6811 O 623.918 -0.959453 4.01084 0
M  V30 6812 H 623.259 0.0921288 0.657578 0
M  V30 6813 H 625.789 0.88846 1.84303 0
M  V30 6814 H 625.799 -0.105263 4.07864 0
M  V30 6815 H 624.474 1.04586 4.02535 0
M  V30 6816 H 623.051 -0.747425 3.65333 0
M  V30 6817 N 625.236 -1.5273 0.388769 0
M  V30 6818 C 626.483 -2.01573 -0.19359 0
M  V30 6819 C 626.811 -1.27525 -1.46859 0
M  V30 6820 O 626.066 -0.363926 -1.92286 0
M  V30 6821 C 626.365 -3.53765 -0.508445 0
M  V30 6822 C 626.031 -4.4582 0.674947 0
M  V30 6823 C 624.693 -4.70703 0.999596 0
M  V30 6824 C 627.045 -5.00138 1.46666 0
M  V30 6825 C 624.373 -5.47155 2.11751 0
M  V30 6826 C 626.725 -5.77812 2.57518 0
M  V30 6827 C 625.389 -6.00975 2.90492 0
M  V30 6828 H 624.659 -0.737606 -0.0708397 0
M  V30 6829 H 627.306 -1.84134 0.526006 0
M  V30 6830 H 625.611 -3.69274 -1.30936 0
M  V30 6831 H 627.308 -3.8905 -0.971664 0
M  V30 6832 H 623.898 -4.26616 0.411906 0
M  V30 6833 H 628.082 -4.8084 1.22909 0
M  V30 6834 H 623.338 -5.63314 2.3767 0
M  V30 6835 H 627.512 -6.18904 3.19267 0
M  V30 6836 H 625.139 -6.59998 3.77236 0
M  V30 6837 N 626.714 -0.118576 -1.57153 0
M  V30 6838 C 627.944 0.546466 -1.99242 0
M  V30 6839 C 628.352 1.60791 -0.997148 0
M  V30 6840 O 627.695 1.83691 0.0181745 0
M  V30 6841 C 627.757 1.23167 -3.37743 0
M  V30 6842 C 627.421 0.318226 -4.55891 0
M  V30 6843 C 628.418 -0.442988 -5.18009 0
M  V30 6844 C 626.103 0.229421 -5.01776 0
M  V30 6845 C 628.097 -1.28074 -6.244 0
M  V30 6846 C 625.784 -0.611966 -6.08028 0
M  V30 6847 C 626.782 -1.36568 -6.69207 0
M  V30 6848 O 626.47 -2.1931 -7.73407 0
M  V30 6849 H 626.202 0.149297 -0.659307 0
M  V30 6850 H 628.756 -0.201603 -2.04408 0
M  V30 6851 H 626.986 2.0268 -3.29329 0
M  V30 6852 H 628.675 1.79358 -3.64123 0
M  V30 6853 H 629.441 -0.38425 -4.83475 0
M  V30 6854 H 625.32 0.805771 -4.53903 0
M  V30 6855 H 628.864 -1.86952 -6.72082 0
M  V30 6856 H 624.761 -0.6721 -6.41991 0
M  V30 6857 H 625.529 -2.12247 -7.90502 0
M  V30 6858 N 628.193 1.56834 0.155195 0
M  V30 6859 C 629.141 1.98584 1.21107 0
M  V30 6860 C 630.135 0.876987 1.44932 0
M  V30 6861 O 631.341 1.06215 1.45322 0
M  V30 6862 H 627.716 0.632039 0.407469 0
M  V30 6863 H 629.687 2.86561 0.832195 0
M  V30 6864 C 628.436 2.37555 2.53895 0
M  V30 6865 H 627.759 3.22428 2.3639 0
M  V30 6866 H 629.199 2.70598 3.26424 0
M  V30 6867 C 627.658 1.22507 3.13837 0
M  V30 6868 O 628.188 0.521388 3.98302 0
M  V30 6869 N 626.394 0.991444 2.73164 0
M  V30 6870 H 625.941 1.56544 2.04577 0
M  V30 6871 H 625.899 0.223546 3.13604 0
M  V30 6872 N 629.671 -0.424282 1.51781 0
M  V30 6873 C 630.92 -1.16961 1.64326 0
M  V30 6874 C 631.233 -1.92035 0.371749 0
M  V30 6875 O 632.439 -2.68873 0.37676 0
M  V30 6876 C 630.895 -2.12782 2.90262 0
M  V30 6877 C 630.503 -1.43295 4.24465 0
M  V30 6878 C 632.247 -2.87667 3.12166 0
M  V30 6879 C 630.154 -2.37676 5.41538 0
M  V30 6880 H 629.084 -0.440293 0.612093 0
M  V30 6881 H 631.735 -0.435431 1.78259 0
M  V30 6882 H 630.117 -2.8969 2.69992 0
M  V30 6883 H 631.291 -0.718564 4.55163 0
M  V30 6884 H 629.606 -0.805118 4.08542 0
M  V30 6885 H 632.203 -3.58395 3.96808 0
M  V30 6886 H 632.546 -3.49758 2.25776 0
M  V30 6887 H 633.079 -2.17863 3.32837 0
M  V30 6888 H 629.818 -1.80255 6.30229 0
M  V30 6889 H 629.338 -3.07132 5.15199 0
M  V30 6890 H 631.017 -2.98529 5.74012 0
M  V30 6891 N 631.149 -1.42148 -0.680565 0
M  V30 6892 C 632.099 -1.41634 -1.78672 0
M  V30 6893 C 633.083 -0.288494 -1.58293 0
M  V30 6894 O 634.275 -0.530295 -1.68869 0
M  V30 6895 C 631.404 -1.31558 -3.17092 0
M  V30 6896 C 630.49 -2.49265 -3.43115 0
M  V30 6897 N 630.881 -3.74702 -3.39753 0
M  V30 6898 C 629.179 -2.43401 -3.73727 0
M  V30 6899 C 629.88 -4.52854 -3.651 0
M  V30 6900 N 628.856 -3.83181 -3.85582 0
M  V30 6901 H 632.658 -2.3652 -1.74458 0
M  V30 6902 H 630.172 -1.36415 -0.881171 0
M  V30 6903 H 632.169 -1.29272 -3.96351 0
M  V30 6904 H 630.829 -0.376696 -3.22508 0
M  V30 6905 H 631.84 -4.07378 -3.19787 0
M  V30 6906 H 628.517 -1.58062 -3.86423 0
M  V30 6907 H 629.907 -5.61827 -3.6851 0
M  V30 6908 N 632.627 0.916307 -1.28225 0
M  V30 6909 C 633.855 1.69901 -1.18073 0
M  V30 6910 C 634.27 1.86988 0.260968 0
M  V30 6911 O 633.627 1.39505 1.17663 0
M  V30 6912 C 633.678 3.09254 -1.87201 0
M  V30 6913 O 633.399 2.92959 -3.2574 0
M  V30 6914 C 634.9 4.0362 -1.83319 0
M  V30 6915 H 632.12 0.531181 -0.409985 0
M  V30 6916 H 634.664 1.14703 -1.69303 0
M  V30 6917 H 632.819 3.61277 -1.39848 0
M  V30 6918 H 633.233 3.81139 -3.60324 0
M  V30 6919 H 634.707 4.98873 -2.36282 0
M  V30 6920 H 635.184 4.3176 -0.805007 0
M  V30 6921 H 635.79 3.57524 -2.3034 0
M  V30 6922 N 634.105 1.10431 1.1244 0
M  V30 6923 C 635.015 0.765502 2.21759 0
M  V30 6924 C 636.031 -0.236966 1.72379 0
M  V30 6925 O 637.207 -0.0757329 2.01258 0
M  V30 6926 C 634.272 0.202316 3.46109 0
M  V30 6927 C 633.333 1.26205 4.1033 0
M  V30 6928 C 632.566 0.725648 5.28744 0
M  V30 6929 O 632.789 -0.447942 5.68638 0
M  V30 6930 O 631.723 1.48555 5.83279 0
M  V30 6931 H 635.549 1.67801 2.53133 0
M  V30 6932 H 633.134 0.879443 1.20773 0
M  V30 6933 H 635.016 -0.107918 4.21262 0
M  V30 6934 H 633.691 -0.683052 3.16411 0
M  V30 6935 H 632.598 1.62514 3.36957 0
M  V30 6936 H 633.931 2.12044 4.44183 0
M  V30 6937 N 635.583 -1.29855 0.893053 0
M  V30 6938 C 636.811 -1.99976 0.530788 0
M  V30 6939 C 637.226 -1.66889 -0.882799 0
M  V30 6940 O 636.583 -0.910352 -1.58173 0
M  V30 6941 C 636.634 -3.54547 0.705587 0
M  V30 6942 O 636.355 -3.86458 2.06353 0
M  V30 6943 C 637.856 -4.41937 0.347387 0
M  V30 6944 H 635.076 -0.639129 0.204339 0
M  V30 6945 H 637.62 -1.65549 1.20057 0
M  V30 6946 H 635.775 -3.87311 0.0830685 0
M  V30 6947 H 636.189 -4.81146 2.08803 0
M  V30 6948 H 637.663 -5.4954 0.520557 0
M  V30 6949 H 638.14 -4.33339 -0.715139 0
M  V30 6950 H 638.746 -4.14633 0.946567 0
M  V30 6951 N 637.061 -0.65484 -1.43351 0
M  V30 6952 C 638.472 -0.248506 -1.85039 0
M  V30 6953 C 638.823 1.20526 -1.54816 0
M  V30 6954 O 637.948 1.92016 -0.99794 0
M  V30 6955 C 638.543 -0.444241 -3.35875 0
M  V30 6956 C 637.102 -0.0922108 -3.76287 0
M  V30 6957 C 636.249 -0.746327 -2.67068 0
M  V30 6958 H 639.2 -0.8584 -1.33481 0
M  V30 6959 H 639.221 0.309762 -3.79237 0
M  V30 6960 H 638.733 -1.50239 -3.5784 0
M  V30 6961 H 636.834 0.96328 -3.59933 0
M  V30 6962 H 636.947 -0.518807 -4.76283 0
M  V30 6963 H 635.311 -0.179416 -2.54067 0
M  V30 6964 H 636.094 -1.80754 -2.91861 0
M  V30 6965 N 638.539 1.52521 -0.396863 0
M  V30 6966 C 639.469 2.29582 0.425941 0
M  V30 6967 C 640.45 1.33281 1.05689 0
M  V30 6968 O 641.635 1.62181 1.06823 0
M  V30 6969 C 638.765 3.10821 1.54943 0
M  V30 6970 C 637.719 4.15069 1.04413 0
M  V30 6971 C 637.045 4.84578 2.26028 0
M  V30 6972 C 638.345 5.22191 0.106767 0
M  V30 6973 H 640.039 2.98612 -0.217045 0
M  V30 6974 H 637.585 1.43611 -0.105826 0
M  V30 6975 H 639.538 3.63492 2.13193 0
M  V30 6976 H 638.262 2.39538 2.22011 0
M  V30 6977 H 636.921 3.63389 0.484118 0
M  V30 6978 H 636.569 4.09835 2.91623 0
M  V30 6979 H 636.269 5.55043 1.92876 0
M  V30 6980 H 637.793 5.40056 2.84906 0
M  V30 6981 H 639.207 5.70176 0.597685 0
M  V30 6982 H 637.604 5.99947 -0.135352 0
M  V30 6983 H 638.674 4.77531 -0.842134 0
M  V30 6984 N 640.017 0.126909 1.57088 0
M  V30 6985 C 640.947 -0.816847 2.18746 0
M  V30 6986 C 641.928 -1.27161 1.12979 0
M  V30 6987 O 643.113 -1.33279 1.41246 0
M  V30 6988 C 640.243 -2.06398 2.79315 0
M  V30 6989 C 639.197 -1.74673 3.90735 0
M  V30 6990 C 638.523 -3.06482 4.38147 0
M  V30 6991 C 639.823 -1.0089 5.12463 0
M  V30 6992 H 641.517 -0.303032 2.97863 0
M  V30 6993 H 639.063 -0.144314 1.43275 0
M  V30 6994 H 641.016 -2.72885 3.2111 0
M  V30 6995 H 639.74 -2.60118 1.975 0
M  V30 6996 H 638.399 -1.10572 3.49527 0
M  V30 6997 H 638.047 -3.58152 3.5318 0
M  V30 6998 H 637.747 -2.86025 5.13287 0
M  V30 6999 H 639.271 -3.74073 4.82599 0
M  V30 7000 H 640.685 -1.57546 5.51228 0
M  V30 7001 H 639.082 -0.905006 5.93237 0
M  V30 7002 H 640.152 0.00297335 4.849 0
M  V30 7003 N 641.495 -1.56914 -0.146875 0
M  V30 7004 C 642.772 -1.74273 -0.888165 0
M  V30 7005 C 643.152 -0.69496 -1.99333 0
M  V30 7006 O 642.5 0.286093 -2.26702 0
M  V30 7007 C 642.71 -3.18336 -1.43051 0
M  V30 7008 C 644.058 -3.80024 -1.89387 0
M  V30 7009 O 645.082 -3.21765 -1.52792 0
M  V30 7010 O 643.941 -4.82367 -2.56874 0
M  V30 7011 H 641.035 -0.712565 -0.419738 0
M  V30 7012 H 643.581 -1.6918 -0.132791 0
M  V30 7013 H 642.353 -3.86092 -0.636274 0
M  V30 7014 H 641.976 -3.27854 -2.24938 0
M  V30 7015 N 642.974 0.416227 -1.52004 0
M  V30 7016 C 643.904 1.51365 -1.77795 0
M  V30 7017 C 644.885 1.58059 -0.628601 0
M  V30 7018 O 646.07 1.73447 -0.873478 0
M  V30 7019 C 643.2 2.89256 -1.92219 0
M  V30 7020 C 642.154 2.97415 -3.0778 0
M  V30 7021 C 641.48 4.37492 -3.07417 0
M  V30 7022 C 642.78 2.69551 -4.47369 0
M  V30 7023 H 644.474 1.30033 -2.69688 0
M  V30 7024 H 642.02 0.624112 -1.29772 0
M  V30 7025 H 643.973 3.66008 -2.08845 0
M  V30 7026 H 642.697 3.11866 -0.969917 0
M  V30 7027 H 641.356 2.23107 -2.90893 0
M  V30 7028 H 641.004 4.571 -2.09925 0
M  V30 7029 H 640.704 4.43877 -3.85029 0
M  V30 7030 H 642.228 5.16188 -3.26162 0
M  V30 7031 H 643.642 3.36028 -4.64497 0
M  V30 7032 H 642.039 2.87321 -5.26846 0
M  V30 7033 H 643.109 1.65029 -4.55953 0
M  V30 7034 N 644.452 1.42507 0.673017 0
M  V30 7035 C 645.385 1.40557 1.79774 0
M  V30 7036 C 646.363 0.269606 1.60349 0
M  V30 7037 O 647.547 0.460105 1.82798 0
M  V30 7038 C 644.674 1.19815 3.168 0
M  V30 7039 C 643.72 2.36429 3.5497 0
M  V30 7040 S 644.553 3.98963 3.57196 0
M  V30 7041 C 645.709 3.80567 4.9691 0
M  V30 7042 H 645.942 2.35734 1.81154 0
M  V30 7043 H 643.475 1.293 0.843846 0
M  V30 7044 H 645.433 1.08535 3.95892 0
M  V30 7045 H 644.094 0.262215 3.13004 0
M  V30 7046 H 643.287 2.17669 4.54573 0
M  V30 7047 H 642.889 2.44233 2.83242 0
M  V30 7048 H 645.181 3.41668 5.85038 0
M  V30 7049 H 646.124 4.79852 5.20718 0
M  V30 7050 H 646.532 3.13399 4.69512 0
M  V30 7051 N 645.93 -0.909495 1.28709 0
M  V30 7052 C 647.155 -1.69801 1.1909 0
M  V30 7053 C 647.58 -1.86479 -0.246388 0
M  V30 7054 O 646.938 -1.37802 -1.17815 0
M  V30 7055 C 646.986 -3.06543 1.89904 0
M  V30 7056 O 646.09 -3.94268 1.2094 0
M  V30 7057 H 645.431 -0.519783 0.413185 0
M  V30 7058 H 647.961 -1.13689 1.70106 0
M  V30 7059 H 647.971 -3.56748 1.97977 0
M  V30 7060 H 646.646 -2.93722 2.94449 0
M  V30 7061 H 645.223 -3.52702 1.2106 0
M  V30 7062 N 647.408 -1.11026 -1.11852 0
M  V30 7063 C 648.685 -0.768347 -1.79877 0
M  V30 7064 C 649.065 0.744261 -1.97545 0
M  V30 7065 O 648.413 1.67271 -1.55669 0
M  V30 7066 C 648.623 -1.52648 -3.13846 0
M  V30 7067 C 649.971 -1.70297 -3.88953 0
M  V30 7068 O 650.995 -1.49037 -3.23522 0
M  V30 7069 O 649.854 -2.05593 -5.06353 0
M  V30 7070 H 646.948 -0.277891 -0.778913 0
M  V30 7071 H 649.494 -1.21343 -1.18633 0
M  V30 7072 H 648.266 -2.55564 -2.96315 0
M  V30 7073 H 647.889 -1.07466 -3.82801 0
M  V30 7074 N 648.886 1.2938 -0.899927 0
M  V30 7075 C 649.849 2.25983 -0.382677 0
M  V30 7076 C 650.849 1.53366 0.483259 0
M  V30 7077 O 652.039 1.71798 0.28828 0
M  V30 7078 C 649.171 3.37878 0.452915 0
M  V30 7079 H 650.364 2.73252 -1.23586 0
M  V30 7080 H 647.917 1.40825 -0.678088 0
M  V30 7081 H 648.652 2.95949 1.32608 0
M  V30 7082 H 648.437 3.91742 -0.167562 0
M  V30 7083 H 649.927 4.09746 0.806107 0
M  V30 7084 N 650.364 0.662433 1.43002 0
M  V30 7085 C 651.294 -0.00979809 2.33498 0
M  V30 7086 C 652.275 -0.802329 1.49989 0
M  V30 7087 O 653.46 -0.761964 1.78627 0
M  V30 7088 C 650.59 -0.970446 3.33466 0
M  V30 7089 C 649.544 -0.287383 4.27034 0
M  V30 7090 C 648.87 -1.36012 5.17112 0
M  V30 7091 C 650.17 0.82595 5.15728 0
M  V30 7092 H 651.864 0.745959 2.89958 0
M  V30 7093 H 649.41 0.360172 1.39423 0
M  V30 7094 H 651.363 -1.44971 3.95679 0
M  V30 7095 H 650.087 -1.75748 2.75282 0
M  V30 7096 H 648.746 0.17152 3.66199 0
M  V30 7097 H 648.394 -2.13882 4.55262 0
M  V30 7098 H 648.094 -0.908276 5.80538 0
M  V30 7099 H 649.618 -1.84056 5.82199 0
M  V30 7100 H 651.032 0.42845 5.71697 0
M  V30 7101 H 649.429 1.20282 5.87922 0
M  V30 7102 H 650.499 1.68003 4.54866 0
M  V30 7103 N 651.842 -1.52309 0.404946 0
M  V30 7104 C 653.091 -2.00952 -0.173529 0
M  V30 7105 C 653.404 -1.29512 -1.46581 0
M  V30 7106 O 654.61 -1.6895 -2.12528 0
M  V30 7107 C 653.066 -3.58097 -0.359801 0
M  V30 7108 C 652.674 -4.38449 0.920138 0
M  V30 7109 C 654.418 -4.14984 -0.893794 0
M  V30 7110 C 652.325 -5.87227 0.701285 0
M  V30 7111 H 651.255 -0.750871 -0.0686244 0
M  V30 7112 H 653.906 -1.75687 0.529749 0
M  V30 7113 H 652.288 -3.79675 -1.12531 0
M  V30 7114 H 653.462 -4.28633 1.69147 0
M  V30 7115 H 651.777 -3.92859 1.38024 0
M  V30 7116 H 654.374 -5.23813 -1.0735 0
M  V30 7117 H 654.717 -3.72072 -1.8673 0
M  V30 7118 H 655.25 -3.97358 -0.187453 0
M  V30 7119 H 651.989 -6.34491 1.64624 0
M  V30 7120 H 651.509 -5.99792 -0.0308288 0
M  V30 7121 H 653.188 -6.46096 0.341846 0
M  V30 7122 N 653.32 -0.135238 -1.57019 0
M  V30 7123 C 654.25 0.805235 -2.19176 0
M  V30 7124 C 655.231 1.2656 -1.13651 0
M  V30 7125 O 656.416 1.32528 -1.4195 0
M  V30 7126 C 653.546 2.04914 -2.80406 0
M  V30 7127 C 652.5 1.72598 -3.91655 0
M  V30 7128 C 651.826 3.04154 -4.39766 0
M  V30 7129 C 653.126 0.981709 -5.12991 0
M  V30 7130 H 654.82 0.287232 -2.98019 0
M  V30 7131 H 652.366 0.136714 -1.4335 0
M  V30 7132 H 654.319 2.71178 -3.22553 0
M  V30 7133 H 653.043 2.59067 -1.98877 0
M  V30 7134 H 651.702 1.08717 -3.50109 0
M  V30 7135 H 651.35 3.56274 -3.55075 0
M  V30 7136 H 651.05 2.83299 -5.14796 0
M  V30 7137 H 652.574 3.71509 -4.84576 0
M  V30 7138 H 653.988 1.5462 -5.52056 0
M  V30 7139 H 652.385 0.873533 -5.93708 0
M  V30 7140 H 653.455 -0.0286887 -4.84892 0
M  V30 7141 N 654.798 1.5699 0.138552 0
M  V30 7142 C 655.761 1.97984 1.15478 0
M  V30 7143 C 656.761 0.867416 1.35398 0
M  V30 7144 O 657.951 1.13387 1.32246 0
M  V30 7145 C 655.083 2.3031 2.51337 0
M  V30 7146 H 656.276 2.88953 0.802896 0
M  V30 7147 H 653.829 1.51555 0.382189 0
M  V30 7148 H 654.564 1.42159 2.91481 0
M  V30 7149 H 654.349 3.11425 2.38237 0
M  V30 7150 H 655.839 2.62834 3.24512 0
M  V30 7151 N 656.276 -0.40816 1.52223 0
M  V30 7152 C 657.223 -1.49737 1.75635 0
M  V30 7153 C 658.193 -1.5493 0.598824 0
M  V30 7154 O 659.378 -1.71487 0.83648 0
M  V30 7155 C 656.518 -2.87174 1.91376 0
M  V30 7156 C 655.631 -2.91283 3.19027 0
M  V30 7157 C 654.766 -4.20026 3.25195 0
M  V30 7158 C 653.805 -4.18113 4.47044 0
M  V30 7159 N 652.942 -5.38429 4.50598 0
M  V30 7160 H 657.782 -1.29075 2.68596 0
M  V30 7161 H 655.319 -0.626518 1.33091 0
M  V30 7162 H 657.277 -3.66959 1.98486 0
M  V30 7163 H 655.907 -3.06329 1.01795 0
M  V30 7164 H 654.959 -2.03984 3.21084 0
M  V30 7165 H 656.271 -2.85734 4.08849 0
M  V30 7166 H 655.425 -5.08204 3.31382 0
M  V30 7167 H 654.164 -4.28271 2.33313 0
M  V30 7168 H 653.169 -3.28325 4.41002 0
M  V30 7169 H 654.394 -4.11507 5.40221 0
M  V30 7170 H 652.34 -5.4734 3.616 0
M  V30 7171 H 652.257 -5.34879 5.34266 0
M  V30 7172 H 653.525 -6.28557 4.61016 0
M  V30 7173 N 657.755 -1.42862 -0.66545 0
M  V30 7174 C 658.98 -1.47456 -1.45848 0
M  V30 7175 C 659.405 -0.0900312 -1.87884 0
M  V30 7176 O 658.763 0.913587 -1.56599 0
M  V30 7177 C 658.811 -2.41514 -2.67774 0
M  V30 7178 O 657.915 -1.89296 -3.66389 0
M  V30 7179 H 657.256 -0.499236 -0.437789 0
M  V30 7180 H 659.786 -1.8765 -0.815394 0
M  V30 7181 H 659.796 -2.58409 -3.15735 0
M  V30 7182 H 658.471 -3.42099 -2.36519 0
M  V30 7183 H 657.048 -1.82003 -3.25468 0
M  V30 7184 N 659.233 0.902656 -1.29189 0
M  V30 7185 C 660.18 2.00643 -1.14066 0
M  V30 7186 C 661.15 1.66064 -0.0347756 0
M  V30 7187 O 662.335 1.8973 -0.201752 0
M  V30 7188 C 659.475 3.35214 -0.820104 0
M  V30 7189 C 658.588 3.82594 -2.00614 0
M  V30 7190 C 657.723 5.05727 -1.62522 0
M  V30 7191 C 656.762 5.45469 -2.77724 0
M  V30 7192 N 655.899 6.59789 -2.40048 0
M  V30 7193 H 660.739 2.1291 -2.08502 0
M  V30 7194 H 658.276 1.04271 -1.03759 0
M  V30 7195 H 660.234 4.12643 -0.614949 0
M  V30 7196 H 658.864 3.22682 0.0873452 0
M  V30 7197 H 657.916 3.01226 -2.32308 0
M  V30 7198 H 659.228 4.07999 -2.86946 0
M  V30 7199 H 658.382 5.90732 -1.38277 0
M  V30 7200 H 657.121 4.82155 -0.733333 0
M  V30 7201 H 656.126 4.59 -3.02653 0
M  V30 7202 H 657.351 5.71024 -3.67572 0
M  V30 7203 H 655.297 6.37826 -1.53343 0
M  V30 7204 H 655.214 6.84975 -3.19914 0
M  V30 7205 H 656.482 7.4807 -2.19116 0
M  V30 7206 N 660.711 1.11618 1.11262 0
M  V30 7207 C 661.959 0.864469 1.82678 0
M  V30 7208 C 662.28 -0.611564 1.85162 0
M  V30 7209 O 661.55 -1.44429 1.32352 0
M  V30 7210 H 660.13 0.316821 0.676486 0
M  V30 7211 H 662.792 1.40894 1.34666 0
M  V30 7212 H 661.888 1.23832 2.86482 0
M  V30 7213 N 662.189 -1.289 0.906776 0
M  V30 7214 C 663.436 -1.95269 0.536326 0
M  V30 7215 C 663.764 -1.71435 -0.918711 0
M  V30 7216 O 663.019 -1.02431 -1.66752 0
M  V30 7217 C 663.318 -3.48704 0.783617 0
M  V30 7218 C 662.984 -3.92626 2.21711 0
M  V30 7219 C 661.646 -4.04329 2.60906 0
M  V30 7220 C 663.998 -4.15218 3.15029 0
M  V30 7221 C 661.326 -4.35998 3.92584 0
M  V30 7222 C 663.678 -4.48365 4.46264 0
M  V30 7223 C 662.342 -4.58278 4.85322 0
M  V30 7224 H 661.612 -0.714538 0.196256 0
M  V30 7225 H 664.259 -1.53366 1.14678 0
M  V30 7226 H 662.564 -3.91696 0.0903048 0
M  V30 7227 H 664.261 -3.98162 0.476267 0
M  V30 7228 H 660.851 -3.84038 1.90296 0
M  V30 7229 H 665.035 -4.05636 2.8596 0
M  V30 7230 H 660.291 -4.41878 4.22557 0
M  V30 7231 H 664.465 -4.64795 5.18593 0
M  V30 7232 H 662.092 -4.82573 5.87391 0
M  V30 7233 N 663.667 -0.670007 -1.42649 0
M  V30 7234 C 664.944 -0.119451 -1.95235 0
M  V30 7235 C 665.324 1.36461 -1.61064 0
M  V30 7236 O 664.672 2.09843 -0.904329 0
M  V30 7237 C 664.882 -0.383498 -3.46887 0
M  V30 7238 C 666.23 -0.297431 -4.23557 0
M  V30 7239 O 667.254 -0.31698 -3.54787 0
M  V30 7240 O 666.113 -0.235507 -5.45992 0
M  V30 7241 H 663.207 -8.85474e-05 -0.827 0
M  V30 7242 H 665.753 -0.744406 -1.52501 0
M  V30 7243 H 664.525 -1.41174 -3.64946 0
M  V30 7244 H 664.148 0.273702 -3.96657 0
M  V30 7245 N 665.145 1.52092 -0.413018 0
M  V30 7246 C 666.391 2.02154 0.161737 0
M  V30 7247 C 666.724 1.29789 1.44459 0
M  V30 7248 O 665.999 0.405378 1.90229 0
M  V30 7249 C 666.282 3.5781 0.405463 0
M  V30 7250 C 666.135 4.40819 -0.894335 0
M  V30 7251 C 667.454 4.23821 1.18591 0
M  V30 7252 H 664.573 0.734769 0.0573077 0
M  V30 7253 H 667.215 1.81948 -0.547247 0
M  V30 7254 H 665.365 3.75158 1.0094 0
M  V30 7255 H 667.037 4.35175 -1.53039 0
M  V30 7256 H 665.28 4.06877 -1.50444 0
M  V30 7257 H 665.951 5.47819 -0.678144 0
M  V30 7258 H 668.427 4.10596 0.674573 0
M  V30 7259 H 667.303 5.32663 1.3252 0
M  V30 7260 H 667.564 3.83038 2.20758 0
M  V30 7261 N 666.623 0.143563 1.56945 0
M  V30 7262 C 667.87 -0.508407 1.96014 0
M  V30 7263 C 668.198 -1.65099 1.02824 0
M  V30 7264 O 667.453 -1.95618 0.0567764 0
M  V30 7265 C 667.752 -1.05885 3.41355 0
M  V30 7266 C 667.418 -0.0350809 4.50886 0
M  V30 7267 C 666.08 0.246362 4.80569 0
M  V30 7268 C 668.432 0.661282 5.16988 0
M  V30 7269 C 665.76 1.23003 5.73661 0
M  V30 7270 C 668.112 1.63375 6.11139 0
M  V30 7271 C 666.776 1.92292 6.39203 0
M  V30 7272 H 666.046 -0.186039 0.717266 0
M  V30 7273 H 668.693 0.229667 1.90118 0
M  V30 7274 H 666.998 -1.87419 3.44066 0
M  V30 7275 H 668.695 -1.57183 3.6891 0
M  V30 7276 H 665.285 -0.264622 4.27782 0
M  V30 7277 H 669.469 0.457038 4.94191 0
M  V30 7278 H 664.725 1.46056 5.93698 0
M  V30 7279 H 668.899 2.17887 6.61436 0
M  V30 7280 H 666.526 2.68666 7.11142 0
M  V30 7281 N 668.101 -1.57061 -0.130224 0
M  V30 7282 C 669.049 -2.00486 -1.17933 0
M  V30 7283 C 670.043 -0.899933 -1.43519 0
M  V30 7284 O 671.249 -1.08514 -1.43613 0
M  V30 7285 H 667.624 -0.638441 -0.397363 0
M  V30 7286 H 669.595 -2.87848 -0.786501 0
M  V30 7287 C 668.344 -2.41565 -2.50084 0
M  V30 7288 H 667.667 -3.26148 -2.31231 0
M  V30 7289 H 669.107 -2.75757 -3.22078 0
M  V30 7290 C 667.566 -1.27485 -3.11848 0
M  V30 7291 O 668.096 -0.584688 -3.97422 0
M  V30 7292 N 666.302 -1.03478 -2.71552 0
M  V30 7293 H 665.849 -1.59779 -2.02061 0
M  V30 7294 H 665.807 -0.27341 -3.13209 0
M  V30 7295 N 669.579 0.400081 -1.52437 0
M  V30 7296 C 670.542 1.4707 -1.75793 0
M  V30 7297 C 671.542 1.48036 -0.627856 0
M  V30 7298 O 672.732 1.49401 -0.895817 0
M  V30 7299 C 669.864 2.86427 -1.84858 0
M  V30 7300 H 671.057 1.27649 -2.71377 0
M  V30 7301 H 668.61 0.631141 -1.42991 0
M  V30 7302 H 669.345 3.11207 -0.912194 0
M  V30 7303 H 669.13 2.87128 -2.6702 0
M  V30 7304 H 670.62 3.64023 -2.04638 0
M  V30 7305 N 671.057 1.43213 0.657864 0
M  V30 7306 C 671.987 1.50815 1.78262 0
M  V30 7307 C 672.968 0.363211 1.66177 0
M  V30 7308 O 674.153 0.579806 1.85343 0
M  V30 7309 C 671.283 1.42625 3.16663 0
M  V30 7310 C 670.237 2.5532 3.43505 0
M  V30 7311 C 669.563 2.32184 4.81658 0
M  V30 7312 C 670.863 3.97583 3.38711 0
M  V30 7313 H 672.557 2.44954 1.72157 0
M  V30 7314 H 670.103 1.17896 0.82683 0
M  V30 7315 H 672.056 1.46548 3.95097 0
M  V30 7316 H 670.78 0.449877 3.23487 0
M  V30 7317 H 669.439 2.50742 2.6744 0
M  V30 7318 H 669.087 1.32801 4.85153 0
M  V30 7319 H 668.787 3.07724 5.00579 0
M  V30 7320 H 670.311 2.37883 5.62356 0
M  V30 7321 H 671.725 4.03673 4.07089 0
M  V30 7322 H 670.122 4.73112 3.69168 0
M  V30 7323 H 671.192 4.23049 2.36976 0
M  V30 7324 N 672.536 -0.895792 1.29666 0
M  V30 7325 C 673.813 -1.62723 1.08538 0
M  V30 7326 C 674.193 -2.07848 -0.369119 0
M  V30 7327 O 673.541 -1.8372 -1.35864 0
M  V30 7328 C 673.751 -2.80505 2.07648 0
M  V30 7329 C 675.099 -3.51098 2.3878 0
M  V30 7330 O 676.123 -2.90679 2.05874 0
M  V30 7331 O 674.982 -4.60028 2.9502 0
M  V30 7332 H 672.076 -0.714692 0.416106 0
M  V30 7333 H 674.622 -0.943517 1.41053 0
M  V30 7334 H 673.394 -2.44386 3.05599 0
M  V30 7335 H 673.017 -3.5658 1.75887 0
M  V30 7336 N 674.014 -1.12206 -1.10668 0
M  V30 7337 C 674.944 -0.810086 -2.18997 0
M  V30 7338 C 675.925 0.225065 -1.68604 0
M  V30 7339 O 677.11 0.086783 -1.94006 0
M  V30 7340 C 674.24 -0.261262 -3.46316 0
M  V30 7341 C 673.194 -1.2292 -4.09969 0
M  V30 7342 C 672.52 -0.540713 -5.31959 0
M  V30 7343 C 673.82 -2.58295 -4.53962 0
M  V30 7344 H 675.514 -1.7159 -2.45352 0
M  V30 7345 H 673.06 -0.82646 -1.17922 0
M  V30 7346 H 675.013 -0.0307522 -4.21389 0
M  V30 7347 H 673.737 0.679879 -3.19445 0
M  V30 7348 H 672.396 -1.44548 -3.369 0
M  V30 7349 H 672.044 0.405492 -5.01363 0
M  V30 7350 H 671.744 -1.18637 -5.75499 0
M  V30 7351 H 673.268 -0.319184 -6.09765 0
M  V30 7352 H 674.682 -2.40709 -5.20319 0
M  V30 7353 H 673.079 -3.18916 -5.08343 0
M  V30 7354 H 674.149 -3.16918 -3.67002 0
M  V30 7355 N 675.492 1.28418 -0.913599 0
M  V30 7356 C 676.425 2.25557 -0.346328 0
M  V30 7357 C 677.403 1.53038 0.549366 0
M  V30 7358 O 678.587 1.81937 0.493055 0
M  V30 7359 C 675.714 3.34915 0.504961 0
M  V30 7360 C 674.76 4.25257 -0.325334 0
M  V30 7361 S 675.593 5.06718 -1.73198 0
M  V30 7362 C 676.749 6.19569 -0.887988 0
M  V30 7363 H 676.982 2.73325 -1.16965 0
M  V30 7364 H 674.515 1.36855 -0.714841 0
M  V30 7365 H 676.473 3.98376 0.990301 0
M  V30 7366 H 675.134 2.85814 1.30267 0
M  V30 7367 H 674.327 5.02947 0.325589 0
M  V30 7368 H 673.929 3.66519 -0.744321 0
M  V30 7369 H 676.221 6.77398 -0.117568 0
M  V30 7370 H 677.164 6.88908 -1.63742 0
M  V30 7371 H 677.572 5.62812 -0.436228 0
M  V30 7372 N 676.97 0.677563 1.42291 0
M  V30 7373 C 677.88 0.000962654 2.346 0
M  V30 7374 C 678.896 -0.785833 1.55244 0
M  V30 7375 O 680.072 -0.727523 1.87801 0
M  V30 7376 C 677.137 -0.936746 3.33805 0
M  V30 7377 C 676.198 -0.144173 4.29058 0
M  V30 7378 C 675.431 -1.03722 5.23524 0
M  V30 7379 O 675.654 -2.27675 5.22992 0
M  V30 7380 O 674.588 -0.496542 5.99848 0
M  V30 7381 H 678.414 0.761397 2.94001 0
M  V30 7382 H 675.999 0.43781 1.42841 0
M  V30 7383 H 677.881 -1.47497 3.94744 0
M  V30 7384 H 676.556 -1.67698 2.76874 0
M  V30 7385 H 675.463 0.438224 3.71524 0
M  V30 7386 H 676.796 0.55701 4.89038 0
M  V30 7387 N 678.448 -1.51871 0.421078 0
M  V30 7388 C 679.396 -2.28903 -0.413066 0
M  V30 7389 C 680.39 -1.3408 -1.03532 0
M  V30 7390 O 681.596 -1.5149 -0.972146 0
M  V30 7391 H 677.971 -0.736478 -0.152003 0
M  V30 7392 H 679.942 -2.97285 0.257695 0
M  V30 7393 C 678.691 -3.13156 -1.51091 0
M  V30 7394 H 678.014 -3.85997 -1.04145 0
M  V30 7395 H 679.454 -3.7014 -2.06814 0
M  V30 7396 C 677.913 -2.27482 -2.48503 0
M  V30 7397 O 678.443 -1.92325 -3.52667 0
M  V30 7398 N 676.649 -1.91019 -2.18998 0
M  V30 7399 H 676.196 -2.19808 -1.34322 0
M  V30 7400 H 676.154 -1.3399 -2.84419 0
M  V30 7401 N 679.926 -0.151884 -1.56866 0
M  V30 7402 C 680.873 0.785936 -2.17006 0
M  V30 7403 C 681.843 1.2407 -1.10435 0
M  V30 7404 O 683.028 1.31235 -1.38499 0
M  V30 7405 C 680.168 2.01771 -2.79969 0
M  V30 7406 C 679.281 1.6083 -4.00946 0
M  V30 7407 C 678.416 2.79224 -4.51893 0
M  V30 7408 C 677.455 2.3468 -5.65324 0
M  V30 7409 N 676.592 3.461 -6.10867 0
M  V30 7410 H 681.432 0.266286 -2.96808 0
M  V30 7411 H 678.969 0.11972 -1.46612 0
M  V30 7412 H 680.927 2.73989 -3.14621 0
M  V30 7413 H 679.557 2.51139 -2.02803 0
M  V30 7414 H 678.609 0.783592 -3.72242 0
M  V30 7415 H 679.921 1.24119 -4.83111 0
M  V30 7416 H 679.075 3.59625 -4.88625 0
M  V30 7417 H 677.814 3.19183 -3.68746 0
M  V30 7418 H 676.819 1.52721 -5.28163 0
M  V30 7419 H 678.044 1.95801 -6.5026 0
M  V30 7420 H 675.99 3.85671 -5.30654 0
M  V30 7421 H 675.907 3.1342 -6.87971 0
M  V30 7422 H 677.175 4.26844 -6.52246 0
M  V30 7423 N 681.404 1.57128 0.121893 0
M  V30 7424 C 682.632 1.88883 0.844451 0
M  V30 7425 C 683.047 0.742824 1.73573 0
M  V30 7426 O 682.404 -0.286475 1.80238 0
M  V30 7427 C 682.455 3.20076 1.68029 0
M  V30 7428 O 682.176 4.30264 0.824898 0
M  V30 7429 C 683.677 3.65515 2.50826 0
M  V30 7430 H 680.897 0.62549 0.242907 0
M  V30 7431 H 683.441 2.04219 0.107151 0
M  V30 7432 H 681.596 3.06418 2.37038 0
M  V30 7433 H 682.01 5.05439 1.40113 0
M  V30 7434 H 683.484 4.60081 3.05008 0
M  V30 7435 H 683.961 2.92029 3.28048 0
M  V30 7436 H 684.567 3.81952 1.87064 0
M  V30 7437 N 682.882 -0.391992 1.52647 0
M  V30 7438 C 684.129 -1.13732 1.67545 0
M  V30 7439 C 684.457 -1.90045 0.413881 0
M  V30 7440 O 683.712 -1.86157 -0.603646 0
M  V30 7441 C 684.011 -2.14401 2.85949 0
M  V30 7442 C 683.677 -1.54767 4.23507 0
M  V30 7443 C 682.339 -1.38229 4.60919 0
M  V30 7444 C 684.691 -1.11382 5.0916 0
M  V30 7445 C 682.019 -0.7685 5.81645 0
M  V30 7446 C 684.371 -0.514143 6.30507 0
M  V30 7447 C 683.035 -0.33604 6.66654 0
M  V30 7448 H 682.305 -0.416174 0.613091 0
M  V30 7449 H 684.952 -0.422327 1.86785 0
M  V30 7450 H 683.257 -2.92108 2.61114 0
M  V30 7451 H 684.954 -2.71974 2.94671 0
M  V30 7452 H 681.544 -1.68626 3.94035 0
M  V30 7453 H 685.728 -1.22962 4.80826 0
M  V30 7454 H 680.984 -0.618681 6.08262 0
M  V30 7455 H 685.158 -0.169657 6.96193 0
M  V30 7456 H 682.785 0.14166 7.60068 0
M  V30 7457 N 684.36 -1.4356 -0.65026 0
M  V30 7458 C 685.29 -1.51758 -1.77459 0
M  V30 7459 C 686.271 -0.372019 -1.65982 0
M  V30 7460 O 687.456 -0.589627 -1.85033 0
M  V30 7461 C 684.586 -1.44302 -3.15902 0
M  V30 7462 C 683.54 -2.57138 -3.42146 0
M  V30 7463 C 682.866 -2.34735 -4.8042 0
M  V30 7464 C 684.166 -3.99373 -3.36598 0
M  V30 7465 H 685.86 -2.45863 -1.70855 0
M  V30 7466 H 683.406 -1.18333 -0.820566 0
M  V30 7467 H 685.359 -1.48641 -3.94314 0
M  V30 7468 H 684.083 -0.467026 -3.23244 0
M  V30 7469 H 682.742 -2.52157 -2.66106 0
M  V30 7470 H 682.39 -1.35372 -4.84441 0
M  V30 7471 H 682.09 -3.10375 -4.9894 0
M  V30 7472 H 683.614 -2.40862 -5.61086 0
M  V30 7473 H 685.028 -4.05826 -4.04942 0
M  V30 7474 H 683.425 -4.75063 -3.66654 0
M  V30 7475 H 684.495 -4.243 -2.34729 0
M  V30 7476 N 685.838 0.888903 -1.30139 0
M  V30 7477 C 686.748 2.02705 -1.18101 0
M  V30 7478 C 687.764 1.73702 -0.101809 0
M  V30 7479 O 688.94 1.98906 -0.315984 0
M  V30 7480 C 686.005 3.35616 -0.869651 0
M  V30 7481 C 685.066 3.78067 -2.03381 0
M  V30 7482 C 684.299 5.04635 -1.73721 0
M  V30 7483 O 684.522 5.66531 -0.663267 0
M  V30 7484 O 683.456 5.43399 -2.58845 0
M  V30 7485 H 687.282 2.15788 -2.13704 0
M  V30 7486 H 684.867 1.01426 -1.09695 0
M  V30 7487 H 686.749 4.15358 -0.711043 0
M  V30 7488 H 685.424 3.23651 0.0565002 0
M  V30 7489 H 684.331 2.99046 -2.24772 0
M  V30 7490 H 685.664 3.94631 -2.94155 0
M  V30 7491 N 687.317 1.12792 1.10072 0
M  V30 7492 C 688.264 0.79921 2.16521 0
M  V30 7493 C 689.234 -0.235726 1.64419 0
M  V30 7494 O 690.419 -0.109457 1.90486 0
M  V30 7495 C 687.559 0.264091 3.44088 0
M  V30 7496 C 686.672 1.35729 4.10124 0
M  V30 7497 C 685.807 0.781212 5.25424 0
M  V30 7498 C 684.846 1.85327 5.8337 0
M  V30 7499 N 683.983 1.29564 6.90042 0
M  V30 7500 H 688.823 1.71105 2.43981 0
M  V30 7501 H 686.36 0.854225 1.19756 0
M  V30 7502 H 688.318 -0.0642423 4.17151 0
M  V30 7503 H 686.948 -0.610901 3.16967 0
M  V30 7504 H 686 1.80234 3.34993 0
M  V30 7505 H 687.312 2.16782 4.4923 0
M  V30 7506 H 686.466 0.403769 6.05355 0
M  V30 7507 H 685.205 -0.0604686 4.87663 0
M  V30 7508 H 684.21 2.23986 5.02106 0
M  V30 7509 H 685.435 2.69824 6.23195 0
M  V30 7510 H 683.381 0.475844 6.54272 0
M  V30 7511 H 683.298 2.04271 7.2788 0
M  V30 7512 H 684.566 0.945545 7.73744 0
M  V30 7513 N 688.795 -1.27931 0.920396 0
M  V30 7514 C 689.725 -2.29487 0.431024 0
M  V30 7515 C 690.706 -1.62435 -0.504861 0
M  V30 7516 O 691.891 -1.89797 -0.411176 0
M  V30 7517 C 689.021 -3.45788 -0.323709 0
M  V30 7518 C 687.975 -4.24784 0.523658 0
M  V30 7519 C 687.301 -5.33488 -0.359809 0
M  V30 7520 C 688.601 -4.90874 1.78437 0
M  V30 7521 H 690.295 -2.70671 1.27975 0
M  V30 7522 H 687.841 -1.30121 0.616813 0
M  V30 7523 H 689.794 -4.15927 -0.676952 0
M  V30 7524 H 688.518 -3.03502 -1.2064 0
M  V30 7525 H 687.177 -3.56382 0.85951 0
M  V30 7526 H 686.825 -4.87445 -1.24124 0
M  V30 7527 H 686.525 -5.87247 0.203605 0
M  V30 7528 H 688.049 -6.06472 -0.708787 0
M  V30 7529 H 689.463 -5.53339 1.49963 0
M  V30 7530 H 687.86 -5.54659 2.29071 0
M  V30 7531 H 688.93 -4.14988 2.50824 0
M  V30 7532 N 690.273 -0.685099 -1.4193 0
M  V30 7533 C 691.22 -0.0131869 -2.30796 0
M  V30 7534 C 692.19 0.782129 -1.46533 0
M  V30 7535 O 693.375 0.75229 -1.75343 0
M  V30 7536 C 690.515 0.924768 -3.32479 0
M  V30 7537 C 689.628 0.122181 -4.31827 0
M  V30 7538 C 688.763 1.05682 -5.20581 0
M  V30 7539 C 687.802 0.246526 -6.11603 0
M  V30 7540 N 686.939 1.13442 -6.92875 0
M  V30 7541 H 691.779 -0.776789 -2.87698 0
M  V30 7542 H 689.316 -0.394791 -1.41703 0
M  V30 7543 H 691.274 1.48251 -3.89971 0
M  V30 7544 H 689.904 1.65488 -2.77152 0
M  V30 7545 H 688.956 -0.552335 -3.76369 0
M  V30 7546 H 690.268 -0.506473 -4.96222 0
M  V30 7547 H 689.422 1.68415 -5.82856 0
M  V30 7548 H 688.161 1.71935 -4.56388 0
M  V30 7549 H 687.166 -0.393944 -5.48387 0
M  V30 7550 H 688.391 -0.412053 -6.77849 0
M  V30 7551 H 686.337 1.78316 -6.313 0
M  V30 7552 H 686.254 0.561089 -7.53915 0
M  V30 7553 H 687.522 1.74889 -7.59628 0
M  V30 7554 N 691.751 1.51645 -0.429126 0
M  V30 7555 C 692.998 2.02015 0.140079 0
M  V30 7556 C 693.326 1.31374 1.43427 0
M  V30 7557 O 692.581 0.414779 1.91254 0
M  V30 7558 C 692.88 3.54989 0.414472 0
M  V30 7559 C 692.546 4.43874 -0.792911 0
M  V30 7560 C 691.208 4.67887 -1.12404 0
M  V30 7561 C 693.56 4.96074 -1.59875 0
M  V30 7562 C 690.888 5.41348 -2.26184 0
M  V30 7563 C 693.24 5.70782 -2.72747 0
M  V30 7564 C 691.904 5.93062 -3.06324 0
M  V30 7565 H 691.174 0.739225 0.0512585 0
M  V30 7566 H 693.821 1.82675 -0.574641 0
M  V30 7567 H 692.126 3.72615 1.21099 0
M  V30 7568 H 693.823 3.91489 0.868173 0
M  V30 7569 H 690.413 4.25374 -0.524871 0
M  V30 7570 H 694.597 4.77412 -1.35614 0
M  V30 7571 H 689.853 5.56815 -2.52522 0
M  V30 7572 H 694.027 6.10221 -3.35564 0
M  V30 7573 H 691.654 6.49764 -3.94602 0
M  V30 7574 N 693.229 0.160201 1.56784 0
M  V30 7575 C 694.477 -0.486625 1.96154 0
M  V30 7576 C 694.798 -1.64525 1.04673 0
M  V30 7577 O 694.068 -1.95586 0.110864 0
M  V30 7578 H 692.648 -0.182764 0.724297 0
M  V30 7579 H 695.31 0.238787 1.93432 0
M  V30 7580 H 694.406 -0.854025 3.00188 0
M  V30 7581 N 694.707 -1.5719 -0.113559 0
M  V30 7582 C 695.956 -1.84325 -0.818984 0
M  V30 7583 C 696.269 -0.746685 -1.80787 0
M  V30 7584 O 697.475 -0.904596 -2.55987 0
M  V30 7585 C 695.931 -3.26818 -1.50724 0
M  V30 7586 C 695.539 -4.44498 -0.559065 0
M  V30 7587 C 697.283 -3.63196 -2.19748 0
M  V30 7588 C 695.19 -5.7802 -1.25086 0
M  V30 7589 H 694.12 -0.687507 -0.309596 0
M  V30 7590 H 696.771 -1.8336 -0.0717621 0
M  V30 7591 H 695.153 -3.22269 -2.30128 0
M  V30 7592 H 696.327 -4.60356 0.202146 0
M  V30 7593 H 694.642 -4.16393 0.024495 0
M  V30 7594 H 697.239 -4.60226 -2.72206 0
M  V30 7595 H 697.582 -2.90899 -2.97798 0
M  V30 7596 H 698.115 -3.69553 -1.47226 0
M  V30 7597 H 694.854 -6.53501 -0.511539 0
M  V30 7598 H 694.374 -5.66038 -1.98395 0
M  V30 7599 H 696.053 -6.2196 -1.78253 0
M  V30 7600 N 696.185 0.383891 -1.52853 0
M  V30 7601 C 697.433 1.12619 -1.67814 0
M  V30 7602 C 697.754 1.90354 -0.423141 0
M  V30 7603 O 697.024 1.87649 0.562554 0
M  V30 7604 H 695.604 0.418738 -0.618601 0
M  V30 7605 H 698.266 0.43495 -1.89985 0
M  V30 7606 H 697.362 1.82624 -2.5309 0
M  V30 7607 N 697.663 1.43903 0.642637 0
M  V30 7608 C 698.94 1.36556 1.40043 0
M  V30 7609 C 699.32 0.0185588 2.11092 0
M  V30 7610 O 698.668 -0.998438 2.05532 0
M  V30 7611 C 698.878 2.55596 2.37638 0
M  V30 7612 C 700.226 2.99153 3.01318 0
M  V30 7613 O 701.25 2.55719 2.47965 0
M  V30 7614 O 700.109 3.74427 3.98078 0
M  V30 7615 H 697.203 0.540189 0.626198 0
M  V30 7616 H 699.749 1.55971 0.668657 0
M  V30 7617 H 698.521 3.45256 1.84158 0
M  V30 7618 H 698.144 2.38334 3.18249 0
M  V30 7619 N 699.141 -0.881989 1.30609 0
M  V30 7620 C 700.389 -1.63082 1.19368 0
M  V30 7621 C 700.71 -1.93376 -0.251147 0
M  V30 7622 O 699.98 -1.5723 -1.16857 0
M  V30 7623 H 698.56 -0.604542 0.438791 0
M  V30 7624 H 701.222 -1.05658 1.63776 0
M  V30 7625 H 700.318 -2.57966 1.7567 0
M  V30 7626 N 700.619 -1.13374 -1.09472 0
M  V30 7627 C 701.567 -0.806105 -2.18185 0
M  V30 7628 C 702.561 0.21136 -1.68076 0
M  V30 7629 O 703.767 0.0685558 -1.79869 0
M  V30 7630 H 700.142 -0.242901 -0.71169 0
M  V30 7631 H 702.113 -1.73115 -2.43051 0
M  V30 7632 C 700.862 -0.287928 -3.46506 0
M  V30 7633 H 700.185 -1.06217 -3.85432 0
M  V30 7634 H 701.625 -0.0971054 -4.23889 0
M  V30 7635 C 700.084 0.986256 -3.22141 0
M  V30 7636 O 700.614 2.06217 -3.44728 0
M  V30 7637 N 698.82 0.917153 -2.75747 0
M  V30 7638 H 698.367 0.0414609 -2.57567 0
M  V30 7639 H 698.325 1.77029 -2.59823 0
M  V30 7640 N 702.098 1.27442 -0.927168 0
M  V30 7641 C 703.028 2.29256 -0.443188 0
M  V30 7642 C 704.009 1.62701 0.49624 0
M  V30 7643 O 705.194 1.90013 0.401105 0
M  V30 7644 C 702.324 3.45955 0.305366 0
M  V30 7645 C 701.278 4.24501 -0.546178 0
M  V30 7646 C 700.604 5.33671 0.331512 0
M  V30 7647 C 701.904 4.89921 -1.81037 0
M  V30 7648 H 703.598 2.69988 -1.29409 0
M  V30 7649 H 701.144 1.29792 -0.623705 0
M  V30 7650 H 703.097 4.1628 0.654885 0
M  V30 7651 H 701.821 3.04138 1.19029 0
M  V30 7652 H 700.48 3.55921 -0.878398 0
M  V30 7653 H 700.128 4.88096 1.21537 0
M  V30 7654 H 699.828 5.87131 -0.234746 0
M  V30 7655 H 701.352 6.0684 0.676614 0
M  V30 7656 H 702.766 5.52536 -1.52895 0
M  V30 7657 H 701.163 5.53436 -2.32009 0
M  V30 7658 H 702.233 4.13652 -2.53021 0
M  V30 7659 N 703.576 0.692616 1.41565 0
M  V30 7660 C 704.508 -0.0137132 2.29196 0
M  V30 7661 C 705.521 -0.747417 1.44629 0
M  V30 7662 O 706.71 -0.598611 1.68163 0
M  V30 7663 C 703.81 -1.04347 3.22436 0
M  V30 7664 C 702.983 -0.379985 4.35746 0
M  V30 7665 C 702.042 -1.31195 5.09583 0
M  V30 7666 O 701.068 -0.805455 5.63472 0
M  V30 7667 N 702.27 -2.64443 5.16769 0
M  V30 7668 H 705.035 0.738614 2.90456 0
M  V30 7669 H 702.596 0.538415 1.52685 0
M  V30 7670 H 704.588 -1.6686 3.687 0
M  V30 7671 H 703.158 -1.69736 2.62504 0
M  V30 7672 H 702.378 0.424975 3.91903 0
M  V30 7673 H 703.666 0.0814904 5.08735 0
M  V30 7674 H 703.064 -3.08114 4.74428 0
M  V30 7675 H 701.621 -3.22159 5.66619 0
M  V30 7676 N 705.054 -1.51416 0.437162 0
M  V30 7677 C 706.284 -2.06204 -0.127859 0
M  V30 7678 C 706.692 -1.30463 -1.37026 0
M  V30 7679 O 706.035 -0.357516 -1.80187 0
M  V30 7680 C 706.097 -3.55783 -0.515632 0
M  V30 7681 C 705.761 -4.52776 0.619937 0
M  V30 7682 C 706.758 -4.98031 1.49201 0
M  V30 7683 C 704.443 -4.95878 0.800618 0
M  V30 7684 C 706.437 -5.85061 2.52947 0
M  V30 7685 C 704.124 -5.82699 1.84135 0
M  V30 7686 C 705.122 -6.27188 2.70416 0
M  V30 7687 O 704.81 -7.12284 3.72702 0
M  V30 7688 H 704.542 -0.675903 -0.011442 0
M  V30 7689 H 707.096 -1.95977 0.614986 0
M  V30 7690 H 705.326 -3.63793 -1.31118 0
M  V30 7691 H 707.015 -3.93087 -1.01179 0
M  V30 7692 H 707.781 -4.65426 1.36395 0
M  V30 7693 H 703.66 -4.60792 0.138617 0
M  V30 7694 H 707.204 -6.19708 3.20325 0
M  V30 7695 H 703.101 -6.14717 1.9696 0
M  V30 7696 H 703.869 -7.30462 3.69281 0
M  V30 7697 N 706.532 -0.168513 -1.56696 0
M  V30 7698 C 707.762 0.482802 -2.0088 0
M  V30 7699 C 708.17 1.57537 -1.0478 0
M  V30 7700 O 707.513 1.83656 -0.0402746 0
M  V30 7701 C 707.575 1.1236 -3.4149 0
M  V30 7702 C 707.239 0.173027 -4.56672 0
M  V30 7703 C 708.236 -0.607565 -5.16338 0
M  V30 7704 C 705.921 0.0696691 -5.02252 0
M  V30 7705 C 707.915 -1.47874 -6.2001 0
M  V30 7706 C 705.602 -0.805096 -6.05773 0
M  V30 7707 C 706.6 -1.57789 -6.64524 0
M  V30 7708 O 706.288 -2.43804 -7.66038 0
M  V30 7709 H 706.02 0.128246 -0.663723 0
M  V30 7710 H 708.574 -0.266532 -2.03663 0
M  V30 7711 H 706.804 1.921 -3.35611 0
M  V30 7712 H 708.493 1.67683 -3.69645 0
M  V30 7713 H 709.259 -0.53787 -4.82008 0
M  V30 7714 H 705.138 0.660957 -4.56237 0
M  V30 7715 H 708.682 -2.0824 -6.65794 0
M  V30 7716 H 704.579 -0.876005 -6.39528 0
M  V30 7717 H 705.347 -2.37289 -7.83349 0
M  V30 7718 N 708.01 1.57248 0.105221 0
M  V30 7719 C 708.94 2.04374 1.12931 0
M  V30 7720 C 709.921 0.93074 1.42377 0
M  V30 7721 O 711.106 1.20136 1.52581 0
M  V30 7722 C 708.236 2.45967 2.45189 0
M  V30 7723 C 707.19 3.60838 2.30174 0
M  V30 7724 C 706.516 3.88374 3.67518 0
M  V30 7725 C 707.816 4.92084 1.75073 0
M  V30 7726 H 709.51 2.9018 0.737287 0
M  V30 7727 H 707.056 1.39601 0.353211 0
M  V30 7728 H 709.009 2.77542 3.17094 0
M  V30 7729 H 707.733 1.57148 2.86308 0
M  V30 7730 H 706.392 3.29493 1.60716 0
M  V30 7731 H 706.04 2.96739 4.06147 0
M  V30 7732 H 705.74 4.65703 3.58321 0
M  V30 7733 H 707.264 4.22415 4.40906 0
M  V30 7734 H 708.678 5.22106 2.36809 0
M  V30 7735 H 707.075 5.73507 1.76662 0
M  V30 7736 H 708.145 4.79684 0.709347 0
M  V30 7737 N 709.488 -0.375779 1.53054 0
M  V30 7738 C 710.718 -1.1387 1.72386 0
M  V30 7739 C 711.126 -1.8382 0.447966 0
M  V30 7740 O 710.469 -1.74027 -0.588244 0
M  V30 7741 C 710.531 -2.22047 2.82728 0
M  V30 7742 C 710.195 -1.71951 4.23417 0
M  V30 7743 C 711.192 -1.18909 5.06119 0
M  V30 7744 C 708.877 -1.77773 4.69789 0
M  V30 7745 C 710.871 -0.723529 6.3328 0
M  V30 7746 C 708.558 -1.30829 5.96931 0
M  V30 7747 C 709.556 -0.782077 6.78508 0
M  V30 7748 O 709.244 -0.319529 8.03265 0
M  V30 7749 H 708.976 -0.346835 0.580242 0
M  V30 7750 H 711.53 -0.443748 2.00549 0
M  V30 7751 H 709.76 -2.95006 2.50017 0
M  V30 7752 H 711.449 -2.83654 2.90336 0
M  V30 7753 H 712.215 -1.13758 4.7147 0
M  V30 7754 H 708.094 -2.17673 4.06373 0
M  V30 7755 H 711.638 -0.312126 6.96901 0
M  V30 7756 H 707.535 -1.3567 6.31081 0
M  V30 7757 H 708.303 -0.439796 8.17318 0
M  V30 7758 N 710.966 -1.44241 -0.634997 0
M  V30 7759 C 711.914 -1.51103 -1.76835 0
M  V30 7760 C 712.908 -0.383051 -1.65012 0
M  V30 7761 O 714.114 -0.557832 -1.71138 0
M  V30 7762 H 710.489 -0.474076 -0.583743 0
M  V30 7763 H 712.46 -2.46499 -1.68169 0
M  V30 7764 C 711.209 -1.4687 -3.15158 0
M  V30 7765 H 710.532 -2.32979 -3.24901 0
M  V30 7766 H 711.972 -1.55731 -3.94365 0
M  V30 7767 C 710.431 -0.188884 -3.3637 0
M  V30 7768 O 710.961 0.742487 -3.94778 0
M  V30 7769 N 709.167 -0.0932516 -2.9045 0
M  V30 7770 H 708.714 -0.852004 -2.43102 0
M  V30 7771 H 708.672 0.762308 -3.05018 0
M  V30 7772 N 712.444 0.87505 -1.31075 0
M  V30 7773 C 713.69 1.63006 -1.21657 0
M  V30 7774 C 714.045 1.91088 0.224306 0
M  V30 7775 O 713.338 1.52779 1.15625 0
M  V30 7776 C 713.532 2.96948 -1.98888 0
M  V30 7777 C 713.361 2.81944 -3.50339 0
M  V30 7778 C 712.131 2.814 -4.19693 0
M  V30 7779 C 714.329 2.57171 -4.45385 0
M  V30 7780 N 712.311 2.57392 -5.57335 0
M  V30 7781 C 713.682 2.42379 -5.7066 0
M  V30 7782 C 715.737 2.42474 -4.34868 0
M  V30 7783 C 714.44 2.14385 -6.86609 0
M  V30 7784 C 716.466 2.15868 -5.50595 0
M  V30 7785 C 715.828 2.0186 -6.74857 0
M  V30 7786 H 711.927 0.601043 -0.500271 0
M  V30 7787 H 714.511 1.03033 -1.65204 0
M  V30 7788 H 712.682 3.54936 -1.57718 0
M  V30 7789 H 714.414 3.61702 -1.81531 0
M  V30 7790 H 711.169 2.93596 -3.71616 0
M  V30 7791 H 711.593 2.48373 -6.29794 0
M  V30 7792 H 716.235 2.52035 -3.39468 0
M  V30 7793 H 713.953 2.03562 -7.82041 0
M  V30 7794 H 717.539 2.05304 -5.44372 0
M  V30 7795 H 716.419 1.81562 -7.62892 0
M  V30 7796 N 713.922 1.13953 1.08869 0
M  V30 7797 C 715.338 0.878924 1.33218 0
M  V30 7798 C 715.538 -0.482478 1.95638 0
M  V30 7799 O 714.594 -1.22778 2.2064 0
M  V30 7800 C 715.907 2.00798 2.23832 0
M  V30 7801 C 717.455 2.04073 2.37325 0
M  V30 7802 C 717.93 3.16258 3.31278 0
M  V30 7803 N 719.421 3.15805 3.38853 0
M  V30 7804 C 720.156 3.99249 4.11567 0
M  V30 7805 N 719.652 4.92721 4.87029 0
M  V30 7806 N 721.445 3.87327 4.0735 0
M  V30 7807 H 713.596 2.01645 0.66731 0
M  V30 7808 H 715.859 0.878395 0.356547 0
M  V30 7809 H 715.565 2.98986 1.85203 0
M  V30 7810 H 715.439 1.92704 3.24261 0
M  V30 7811 H 717.826 1.06495 2.75214 0
M  V30 7812 H 717.907 2.16239 1.36654 0
M  V30 7813 H 717.551 4.14079 2.9411 0
M  V30 7814 H 717.481 3.0133 4.31866 0
M  V30 7815 H 719.972 2.48102 2.8505 0
M  V30 7816 H 720.285 5.52867 5.39961 0
M  V30 7817 H 718.63 4.96723 4.86098 0
M  V30 7818 H 721.821 3.13627 3.475 0
M  V30 7819 H 721.994 4.52585 4.63757 0
M  V30 7820 N 715.4 -1.26948 0.933913 0
M  V30 7821 C 716.64 -1.9585 0.585003 0
M  V30 7822 C 717.004 -1.71722 -0.858802 0
M  V30 7823 O 718.205 -2.34366 -1.31629 0
M  V30 7824 C 716.476 -3.45638 0.909352 0
M  V30 7825 S 718.035 -4.33656 0.669892 0
M  V30 7826 H 714.853 -0.677485 0.215721 0
M  V30 7827 H 717.455 -1.54051 1.20368 0
M  V30 7828 H 716.159 -3.60697 1.9577 0
M  V30 7829 H 715.69 -3.92401 0.280115 0
M  V30 7830 H 717.705 -4.93975 -0.469378 0
M  V30 7831 N 716.879 -0.700114 -1.41195 0
M  V30 7832 C 718.29 -0.307249 -1.84154 0
M  V30 7833 C 718.641 1.15539 -1.58572 0
M  V30 7834 O 717.766 1.88744 -1.05852 0
M  V30 7835 C 718.361 -0.550872 -3.34292 0
M  V30 7836 C 716.92 -0.211877 -3.75803 0
M  V30 7837 C 716.067 -0.830915 -2.64558 0
M  V30 7838 H 719.018 -0.900431 -1.30683 0
M  V30 7839 H 719.039 0.188954 -3.80031 0
M  V30 7840 H 718.551 -1.61548 -3.5288 0
M  V30 7841 H 716.652 0.848283 -3.62815 0
M  V30 7842 H 716.765 -0.67007 -4.74391 0
M  V30 7843 H 715.129 -0.260155 -2.53368 0
M  V30 7844 H 715.912 -1.89948 -2.85963 0
M  V30 7845 N 718.357 1.51182 -0.445186 0
M  V30 7846 C 719.605 2.01753 0.11841 0
M  V30 7847 C 719.926 1.33087 1.42523 0
M  V30 7848 O 719.196 0.467891 1.9023 0
M  V30 7849 H 717.776 0.745536 0.0467492 0
M  V30 7850 H 720.438 1.85765 -0.589688 0
M  V30 7851 H 719.534 3.10762 0.288665 0
M  V30 7852 N 719.835 0.176821 1.56605 0
M  V30 7853 C 721.063 -0.472828 2.01425 0
M  V30 7854 C 721.478 -1.56436 1.05703 0
M  V30 7855 O 720.835 -1.82405 0.058808 0
M  V30 7856 C 720.886 -1.04607 3.46034 0
M  V30 7857 O 720.607 0.00189608 4.381 0
M  V30 7858 C 722.108 -1.7734 4.06282 0
M  V30 7859 H 719.328 -0.120503 0.660091 0
M  V30 7860 H 721.872 0.280166 2.02572 0
M  V30 7861 H 720.027 -1.74953 3.45645 0
M  V30 7862 H 720.441 -0.422118 5.22799 0
M  V30 7863 H 721.915 -2.12703 5.09374 0
M  V30 7864 H 722.392 -2.67043 3.4869 0
M  V30 7865 H 722.998 -1.11623 4.10391 0
M  V30 7866 N 721.313 -1.57302 -0.09688 0
M  V30 7867 C 722.59 -1.7701 -0.832272 0
M  V30 7868 C 722.97 -0.758025 -1.97021 0
M  V30 7869 O 722.318 0.213824 -2.27497 0
M  V30 7870 C 722.528 -3.22725 -1.32851 0
M  V30 7871 C 723.876 -3.85856 -1.772 0
M  V30 7872 O 724.9 -3.26464 -1.42478 0
M  V30 7873 O 723.759 -4.90295 -2.41398 0
M  V30 7874 H 720.853 -0.725558 -0.396856 0
M  V30 7875 H 723.399 -1.69516 -0.0789005 0
M  V30 7876 H 722.171 -3.87921 -0.51312 0
M  V30 7877 H 721.794 -3.34845 -2.14394 0
M  V30 7878 N 722.791 0.367657 -1.53252 0
M  V30 7879 C 724.016 1.13566 -1.73544 0
M  V30 7880 C 724.441 1.82329 -0.462344 0
M  V30 7881 O 723.799 1.71655 0.583472 0
M  V30 7882 C 723.847 2.14322 -2.89997 0
M  V30 7883 O 722.951 3.21359 -2.58461 0
M  V30 7884 H 722.292 0.329614 -0.576412 0
M  V30 7885 H 724.822 0.425417 -2.00128 0
M  V30 7886 H 724.832 2.57958 -3.16104 0
M  V30 7887 H 723.507 1.63664 -3.82344 0
M  V30 7888 H 722.084 2.8271 -2.43165 0
M  V30 7889 N 724.269 1.44576 0.627338 0
M  V30 7890 C 725.179 1.54232 1.76776 0
M  V30 7891 C 726.195 0.427782 1.6866 0
M  V30 7892 O 727.371 0.685671 1.89369 0
M  V30 7893 C 724.436 1.48738 3.13174 0
M  V30 7894 C 723.497 2.71074 3.32893 0
M  V30 7895 C 722.73 2.65832 4.62784 0
M  V30 7896 O 722.953 1.72048 5.43834 0
M  V30 7897 O 721.887 3.56742 4.84787 0
M  V30 7898 H 725.713 2.50586 1.71582 0
M  V30 7899 H 723.298 1.26865 0.789028 0
M  V30 7900 H 725.18 1.48211 3.94476 0
M  V30 7901 H 723.855 0.555292 3.18902 0
M  V30 7902 H 722.762 2.77168 2.51254 0
M  V30 7903 H 724.095 3.63342 3.32029 0
M  V30 7904 N 725.747 -0.868086 1.31537 0
M  V30 7905 C 726.694 -1.97548 1.19346 0
M  V30 7906 C 727.664 -1.65913 0.0787922 0
M  V30 7907 O 728.849 -1.89129 0.251985 0
M  V30 7908 C 725.989 -3.32922 0.908692 0
M  V30 7909 C 725.102 -3.77141 2.10687 0
M  V30 7910 C 724.237 -5.01241 1.75873 0
M  V30 7911 C 723.276 -5.37914 2.92088 0
M  V30 7912 N 722.413 -6.53192 2.57457 0
M  V30 7913 H 727.253 -2.07307 2.14074 0
M  V30 7914 H 724.79 -1.01483 1.06487 0
M  V30 7915 H 726.748 -4.10867 0.724138 0
M  V30 7916 H 725.378 -3.228 -0.0017611 0
M  V30 7917 H 724.43 -2.94961 2.40213 0
M  V30 7918 H 725.742 -4.00248 2.97663 0
M  V30 7919 H 724.896 -5.86858 1.53891 0
M  V30 7920 H 723.635 -4.80041 0.86091 0
M  V30 7921 H 722.64 -4.50814 3.14717 0
M  V30 7922 H 723.865 -5.61077 3.82582 0
M  V30 7923 H 721.811 -6.33536 1.702 0
M  V30 7924 H 721.728 -6.76252 3.37963 0
M  V30 7925 H 722.996 -7.41997 2.38873 0
M  V30 7926 N 727.225 -1.14528 -1.08264 0
M  V30 7927 C 728.471 -0.91576 -1.80947 0
M  V30 7928 C 728.804 0.55623 -1.86064 0
M  V30 7929 O 728.079 1.41207 -1.33756 0
M  V30 7930 C 728.362 -1.51917 -3.26486 0
M  V30 7931 C 728.215 -3.06111 -3.2957 0
M  V30 7932 C 729.534 -1.19724 -4.23502 0
M  V30 7933 H 726.653 -0.334113 -0.656915 0
M  V30 7934 H 729.295 -1.41547 -1.26746 0
M  V30 7935 H 727.445 -1.0942 -3.72773 0
M  V30 7936 H 729.117 -3.57448 -2.91597 0
M  V30 7937 H 727.36 -3.40483 -2.688 0
M  V30 7938 H 728.031 -3.43438 -4.32151 0
M  V30 7939 H 730.507 -1.56467 -3.85561 0
M  V30 7940 H 729.383 -1.64575 -5.23647 0
M  V30 7941 H 729.644 -0.112771 -4.41956 0
M  V30 7942 N 728.703 1.26451 -0.940633 0
M  V30 7943 C 729.951 1.93395 -0.586748 0
M  V30 7944 C 730.272 1.7417 0.876921 0
M  V30 7945 O 729.542 1.097 1.62304 0
M  V30 7946 H 728.122 0.715687 -0.214012 0
M  V30 7947 H 730.784 1.53902 -1.19584 0
M  V30 7948 H 729.88 3.01565 -0.804059 0
M  V30 7949 N 730.181 0.707592 1.40822 0
M  V30 7950 C 731.111 0.0644925 2.33411 0
M  V30 7951 C 732.092 -0.754205 1.52466 0
M  V30 7952 O 733.277 -0.704749 1.80961 0
M  V30 7953 C 730.407 -0.863865 3.36385 0
M  V30 7954 C 729.361 -0.15138 4.27732 0
M  V30 7955 C 728.687 -1.19491 5.21177 0
M  V30 7956 C 729.987 0.989607 5.12839 0
M  V30 7957 H 731.681 0.837829 2.87438 0
M  V30 7958 H 729.227 0.404346 1.38207 0
M  V30 7959 H 731.18 -1.32309 4.0009 0
M  V30 7960 H 729.904 -1.66901 2.80734 0
M  V30 7961 H 728.563 0.287937 3.65467 0
M  V30 7962 H 728.211 -1.9929 4.61836 0
M  V30 7963 H 727.911 -0.723123 5.83134 0
M  V30 7964 H 729.435 -1.6544 5.8776 0
M  V30 7965 H 730.849 0.610114 5.70044 0
M  V30 7966 H 729.246 1.38926 5.83798 0
M  V30 7967 H 730.316 1.82389 4.49291 0
M  V30 7968 N 731.66 -1.50943 0.453197 0
M  V30 7969 C 732.906 -2.02512 -0.108082 0
M  V30 7970 C 733.239 -1.33574 -1.40967 0
M  V30 7971 O 732.514 -0.455671 -1.89087 0
M  V30 7972 C 732.797 -3.58759 -0.310453 0
M  V30 7973 C 732.65 -4.38293 1.0109 0
M  V30 7974 C 733.969 -4.26816 -1.07313 0
M  V30 7975 H 731.088 -0.73603 -0.0378064 0
M  V30 7976 H 733.73 -1.80433 0.595295 0
M  V30 7977 H 731.88 -3.77702 -0.909582 0
M  V30 7978 H 733.552 -4.30964 1.64523 0
M  V30 7979 H 731.795 -4.02745 1.61179 0
M  V30 7980 H 732.466 -5.45828 0.82315 0
M  V30 7981 H 734.942 -4.1224 -0.565473 0
M  V30 7982 H 733.818 -5.35989 -1.1835 0
M  V30 7983 H 734.079 -3.88757 -2.10525 0
M  V30 7984 N 733.138 -0.185124 -1.56509 0
M  V30 7985 C 734.068 0.735098 -2.21627 0
M  V30 7986 C 735.049 1.2288 -1.1762 0
M  V30 7987 O 736.234 1.27945 -1.46095 0
M  V30 7988 C 733.364 1.95889 -2.86783 0
M  V30 7989 C 732.318 1.6005 -3.96948 0
M  V30 7990 C 731.644 2.90009 -4.4922 0
M  V30 7991 C 732.944 0.818008 -5.15855 0
M  V30 7992 H 734.638 0.192274 -2.98782 0
M  V30 7993 H 732.184 0.0910393 -1.43712 0
M  V30 7994 H 734.137 2.60779 -3.31017 0
M  V30 7995 H 732.861 2.52608 -2.07018 0
M  V30 7996 H 731.52 0.975237 -3.5339 0
M  V30 7997 H 731.168 3.44797 -3.6623 0
M  V30 7998 H 730.868 2.66778 -5.23549 0
M  V30 7999 H 732.392 3.55904 -4.9615 0
M  V30 8000 H 733.806 1.36979 -5.56695 0
M  V30 8001 H 732.203 0.684207 -5.96187 0
M  V30 8002 H 733.273 -0.182939 -4.84555 0
M  V30 8003 N 734.616 1.57351 0.0885366 0
M  V30 8004 C 735.548 1.99221 1.13329 0
M  V30 8005 C 736.561 0.895705 1.35945 0
M  V30 8006 O 737.75 1.17376 1.34481 0
M  V30 8007 C 734.85 2.3016 2.48756 0
M  V30 8008 C 734.023 3.61444 2.46327 0
M  V30 8009 C 733.082 3.80244 3.63732 0
M  V30 8010 O 732.108 4.52024 3.45924 0
M  V30 8011 N 733.31 3.2132 4.8346 0
M  V30 8012 H 736.075 2.89456 0.776862 0
M  V30 8013 H 733.636 1.59505 0.277428 0
M  V30 8014 H 735.628 2.39925 3.25911 0
M  V30 8015 H 734.198 1.459 2.76464 0
M  V30 8016 H 733.418 3.62588 1.54673 0
M  V30 8017 H 734.706 4.47678 2.41789 0
M  V30 8018 H 734.104 2.63028 5.00832 0
M  V30 8019 H 732.661 3.3656 5.58185 0
M  V30 8020 O 736.133 -0.232414 1.59819 0
M  V30 8021 H 736.824 -0.874496 1.72836 0
M  V30 END ATOM
M  V30 BEGIN BOND
M  V30 END BOND
M  V30 END CTAB
M  END
$$$$
