drugbank_target|P19080 Chorismate mutase AroH (DB02153; DB08427; DB08648)
 OpenBabel12092119553D

  0  0  0     0  0            999 V3000
M  V30 BEGIN CTAB
M  V30 COUNTS 2065 2078 0 0 0
M  V30 BEGIN ATOM
M  V30 1 H -0.908 1.98254 -0.117106 0
M  V30 2 N 0 1.576 0 0
M  V30 3 C 0.933 2.03868 1.02534 0
M  V30 4 C 1.911 0.928543 1.3348 0
M  V30 5 O 3.095 1.19667 1.45644 0
M  V30 6 C 0.222 2.43627 2.35294 0
M  V30 7 C -0.732 3.65373 2.2001 0
M  V30 8 S 0.101 5.13292 1.52614 0
M  V30 9 C 1.257 5.56322 2.86805 0
M  V30 10 H 1.49 2.90518 0.631377 0
M  V30 11 H -0.977 1.52953 0.210867 0
M  V30 12 H 0.981 2.67203 3.11629 0
M  V30 13 H -0.358 1.57376 2.7183 0
M  V30 14 H -1.165 3.90944 3.18086 0
M  V30 15 H -1.563 3.418 1.51819 0
M  V30 16 H 0.729 5.58782 3.83104 0
M  V30 17 H 1.672 6.56266 2.65933 0
M  V30 18 H 2.08 4.83886 2.90714 0
M  V30 19 N 1.4781 -0.272755 1.55222 0
M  V30 20 C 2.4111 -1.3627 1.83046 0
M  V30 21 C 3.3891 -1.47536 0.683521 0
M  V30 22 O 4.5731 -1.64157 0.926545 0
M  V30 23 C 1.7001 -2.73908 1.99229 0
M  V30 24 C 0.7461 -2.79925 3.21783 0
M  V30 25 S 1.5791 -2.39146 4.79134 0
M  V30 26 C 2.7351 -3.78758 4.9829 0
M  V30 27 H 2.9681 -1.12464 2.75207 0
M  V30 28 H 0.5011 -0.472398 1.46996 0
M  V30 29 H 2.4591 -3.53171 2.09238 0
M  V30 30 H 1.1201 -2.94965 1.07956 0
M  V30 31 H 0.3131 -3.80946 3.29994 0
M  V30 32 H -0.0849 -2.08683 3.10367 0
M  V30 33 H 2.2071 -4.7403 4.84047 0
M  V30 34 H 3.1501 -3.75499 6.00338 0
M  V30 35 H 3.5581 -3.70072 4.26271 0
M  V30 36 N 2.9562 -1.48159 -0.537278 0
M  V30 37 C 4.2052 -1.5506 -1.28993 0
M  V30 38 C 4.5182 -0.226211 -1.94288 0
M  V30 39 O 5.7242 -0.173395 -2.70946 0
M  V30 40 C 4.1802 -2.73429 -2.34018 0
M  V30 41 C 3.7882 -4.1248 -1.74825 0
M  V30 42 C 5.5322 -2.89638 -3.10339 0
M  V30 43 C 3.4392 -5.22121 -2.77747 0
M  V30 44 H 2.3692 -0.577231 -0.485098 0
M  V30 45 H 5.0202 -1.74478 -0.568317 0
M  V30 46 H 3.4022 -2.47431 -3.09182 0
M  V30 47 H 4.5762 -4.48466 -1.05899 0
M  V30 48 H 2.8912 -4.01327 -1.11022 0
M  V30 49 H 5.4882 -3.68718 -3.87235 0
M  V30 50 H 5.8312 -1.9882 -3.65754 0
M  V30 51 H 6.3642 -3.15502 -2.42288 0
M  V30 52 H 3.1032 -6.1488 -2.27161 0
M  V30 53 H 2.6232 -4.90631 -3.45024 0
M  V30 54 H 4.3022 -5.49924 -3.4087 0
M  V30 55 N 4.4343 0.785586 -1.36625 0
M  V30 56 C 5.8503 1.08419 -1.17122 0
M  V30 57 C 6.0503 2.015 0.00208491 0
M  V30 58 O 5.1063 2.43551 0.666278 0
M  V30 59 C 6.4193 1.69498 -2.48377 0
M  V30 60 C 7.9673 1.81821 -2.54775 0
M  V30 61 C 8.4423 2.46315 -3.86126 0
M  V30 62 N 9.9333 2.53779 -3.87492 0
M  V30 63 C 10.6683 3.045 -4.85868 0
M  V30 64 N 10.1643 3.55499 -5.94637 0
M  V30 65 N 11.9573 3.03247 -4.73284 0
M  V30 66 H 4.1083 0.167264 -2.1174 0
M  V30 67 H 6.3713 0.13682 -0.938075 0
M  V30 68 H 6.0773 1.08571 -3.34522 0
M  V30 69 H 5.9513 2.6896 -2.64462 0
M  V30 70 H 8.3383 2.41884 -1.69045 0
M  V30 71 H 8.4193 0.811532 -2.42586 0
M  V30 72 H 8.0633 1.86895 -4.72263 0
M  V30 73 H 7.9933 3.47561 -3.95612 0
M  V30 74 H 10.4843 2.17672 -3.08913 0
M  V30 75 H 10.7973 3.92562 -6.65669 0
M  V30 76 H 9.1423 3.5364 -5.98301 0
M  V30 77 H 12.3333 2.62696 -3.87438 0
M  V30 78 H 12.5063 3.42467 -5.50109 0
M  V30 79 N 5.9124 1.20967 1.01018 0
M  V30 80 C 7.1604 1.02172 1.74371 0
M  V30 81 C 7.4814 -0.446414 1.89821 0
M  V30 82 O 6.7514 -1.32234 1.44537 0
M  V30 83 H 5.3314 0.375066 0.646014 0
M  V30 84 H 7.9934 1.52187 1.21758 0
M  V30 85 H 7.0894 1.48538 2.74487 0
M  V30 86 N 7.3905 -1.2043 1.01659 0
M  V30 87 C 8.6395 -1.89118 0.701237 0
M  V30 88 C 8.9525 -1.79705 -0.772358 0
M  V30 89 O 10.1585 -2.43528 -1.20026 0
M  V30 90 C 8.6145 -3.39168 1.20388 0
M  V30 91 C 8.2225 -3.57166 2.70438 0
M  V30 92 C 9.9665 -4.1341 0.963953 0
M  V30 93 C 7.8735 -5.01042 3.14183 0
M  V30 94 H 6.8035 -0.708267 0.2586 0
M  V30 95 H 9.4545 -1.36239 1.22927 0
M  V30 96 H 7.8365 -3.91369 0.603824 0
M  V30 97 H 9.0105 -3.15351 3.35992 0
M  V30 98 H 7.3255 -2.96294 2.92572 0
M  V30 99 H 9.9225 -5.19491 1.26621 0
M  V30 100 H 10.2655 -4.16181 -0.099578 0
M  V30 101 H 10.7985 -3.67309 1.52738 0
M  V30 102 H 7.5375 -5.03426 4.19812 0
M  V30 103 H 7.0575 -5.43668 2.53348 0
M  V30 104 H 8.7365 -5.69623 3.0682 0
M  V30 105 N 8.8686 -0.792821 -1.36206 0
M  V30 106 C 10.2846 -0.474903 -1.52371 0
M  V30 107 C 10.4846 1.00622 -1.74578 0
M  V30 108 O 9.5406 1.79162 -1.77924 0
M  V30 109 C 10.8536 -1.3083 -2.70747 0
M  V30 110 C 12.4016 -1.30234 -2.84619 0
M  V30 111 C 12.8766 -2.11956 -4.06004 0
M  V30 112 N 14.3676 -2.09419 -4.13156 0
M  V30 113 C 15.1026 -2.69419 -5.06163 0
M  V30 114 N 14.5986 -3.3829 -6.04592 0
M  V30 115 N 16.3916 -2.59134 -4.98804 0
M  V30 116 H 8.5426 -1.75222 -1.20046 0
M  V30 117 H 10.8056 -0.745024 -0.586211 0
M  V30 118 H 10.5116 -2.35881 -2.6087 0
M  V30 119 H 10.3856 -0.95196 -3.6499 0
M  V30 120 H 12.7726 -0.259748 -2.93955 0
M  V30 121 H 12.8536 -1.69847 -1.91274 0
M  V30 122 H 12.4976 -3.16248 -3.97429 0
M  V30 123 H 12.4276 -1.69711 -4.98503 0
M  V30 124 H 14.9186 -1.59297 -3.42685 0
M  V30 125 H 15.2316 -3.81394 -6.7213 0
M  V30 126 H 13.5766 -3.42393 -6.04807 0
M  V30 127 H 16.7676 -2.04927 -4.20859 0
M  V30 128 H 16.9406 -3.06185 -5.711 0
M  V30 129 N 10.3467 1.47872 -0.545128 0
M  V30 130 C 11.5947 2.02093 -0.016553 0
M  V30 131 C 11.9157 1.42305 1.3332 0
M  V30 132 O 11.1857 0.593853 1.86682 0
M  V30 133 H 9.7657 0.746993 -0.00313038 0
M  V30 134 H 12.4277 1.81414 -0.712397 0
M  V30 135 H 11.5237 3.11996 0.0805422 0
M  V30 136 N 11.8248 0.280983 1.55075 0
M  V30 137 C 12.7878 -0.590896 2.21452 0
M  V30 138 C 13.7878 -1.07682 1.19421 0
M  V30 139 O 14.9778 -0.97605 1.44288 0
M  V30 140 C 12.1098 -1.81587 2.88511 0
M  V30 141 H 13.3028 -0.0112554 2.99898 0
M  V30 142 H 10.8558 0.0316438 1.56268 0
M  V30 143 H 11.5908 -2.43587 2.14093 0
M  V30 144 H 11.3758 -1.4753 3.63287 0
M  V30 145 H 12.8658 -2.43575 3.39206 0
M  V30 146 N 13.3029 -1.57598 0.00835791 0
M  V30 147 C 14.5309 -1.95214 -0.68549 0
M  V30 148 C 14.9459 -0.883706 -1.66841 0
M  V30 149 O 14.3029 0.136565 -1.81988 0
M  V30 150 C 14.3539 -3.32865 -1.41007 0
M  V30 151 O 14.0749 -4.35609 -0.466552 0
M  V30 152 C 15.5759 -3.84991 -2.19765 0
M  V30 153 H 12.7959 -0.643422 -0.190392 0
M  V30 154 H 15.3399 -2.04406 0.0619607 0
M  V30 155 H 13.4949 -3.24956 -2.10908 0
M  V30 156 H 13.9089 -5.15288 -0.978699 0
M  V30 157 H 15.3829 -4.8371 -2.65948 0
M  V30 158 H 15.8599 -3.18137 -3.02796 0
M  V30 159 H 16.4659 -3.96103 -1.54864 0
M  V30 160 N 14.781 0.264519 -1.55364 0
M  V30 161 C 16.009 1.013 -1.80405 0
M  V30 162 C 16.424 1.79618 -0.581622 0
M  V30 163 O 15.781 1.76879 0.449468 0
M  V30 164 C 15.832 1.96487 -3.03439 0
M  V30 165 O 15.553 1.21341 -4.20961 0
M  V30 166 C 17.054 2.83079 -3.41147 0
M  V30 167 H 14.274 0.298875 -0.600762 0
M  V30 168 H 16.818 0.292736 -2.02394 0
M  V30 169 H 14.973 2.63965 -2.83551 0
M  V30 170 H 15.387 1.85573 -4.90574 0
M  V30 171 H 16.861 3.4565 -4.30384 0
M  V30 172 H 17.338 3.53286 -2.60932 0
M  V30 173 H 17.944 2.2108 -3.63323 0
M  V30 174 N 16.2591 1.48442 0.529413 0
M  V30 175 C 17.5051 1.5672 1.28711 0
M  V30 176 C 17.8381 0.2406 1.92704 0
M  V30 177 O 17.1131 -0.753454 1.79313 0
M  V30 178 C 17.3961 2.70587 2.37603 0
M  V30 179 C 17.2491 4.12953 1.78297 0
M  V30 180 C 18.5681 2.80212 3.39366 0
M  V30 181 H 15.6871 0.570474 0.466613 0
M  V30 182 H 18.3291 1.80617 0.589706 0
M  V30 183 H 16.4791 2.50342 2.97088 0
M  V30 184 H 18.1511 4.44639 1.22858 0
M  V30 185 H 16.3941 4.19927 1.0883 0
M  V30 186 H 17.0651 4.88448 2.57144 0
M  V30 187 H 19.5411 2.98553 2.89836 0
M  V30 188 H 18.4171 3.61611 4.12951 0
M  V30 189 H 18.6781 1.88393 3.99951 0
M  V30 190 N 17.7372 -0.778329 1.37039 0
M  V30 191 C 18.6472 -1.92253 1.34446 0
M  V30 192 C 19.6632 -1.72267 0.244991 0
M  V30 193 O 20.8392 -1.95615 0.479258 0
M  V30 194 C 17.9042 -3.27282 1.144 0
M  V30 195 C 16.9652 -3.59969 2.33925 0
M  V30 196 C 16.1982 -4.88555 2.14825 0
M  V30 197 O 16.4212 -5.59113 1.12912 0
M  V30 198 O 15.3552 -5.20153 3.02861 0
M  V30 199 H 19.1812 -1.97392 2.30803 0
M  V30 200 H 16.7662 -0.920154 1.17701 0
M  V30 201 H 18.6482 -4.08062 1.05182 0
M  V30 202 H 17.3232 -3.23011 0.211124 0
M  V30 203 H 16.2302 -2.7945 2.48714 0
M  V30 204 H 17.5632 -3.68976 3.25757 0
M  V30 205 N 19.2153 -1.21501 -1.00376 0
M  V30 206 C 20.6313 -0.972629 -1.26539 0
M  V30 207 C 20.8313 0.340257 -1.98606 0
M  V30 208 O 19.8873 1.06561 -2.28913 0
M  V30 209 C 21.2003 -2.16404 -2.08781 0
M  V30 210 C 22.7483 -2.20643 -2.22004 0
M  V30 211 C 23.2233 -3.39306 -3.07629 0
M  V30 212 N 24.7143 -3.39401 -3.15217 0
M  V30 213 C 25.4493 -4.27867 -3.81729 0
M  V30 214 N 24.9453 -5.26533 -4.5026 0
M  V30 215 N 26.7383 -4.15672 -3.78382 0
M  V30 216 H 18.8893 -2.05929 -0.520281 0
M  V30 217 H 21.1523 -0.901803 -0.292328 0
M  V30 218 H 20.8583 -3.11554 -1.63178 0
M  V30 219 H 20.7323 -2.15567 -3.09533 0
M  V30 220 H 23.1193 -1.26048 -2.66825 0
M  V30 221 H 23.2003 -2.25523 -1.20718 0
M  V30 222 H 22.8443 -4.34195 -2.63509 0
M  V30 223 H 22.7743 -3.31665 -4.09031 0
M  V30 224 H 25.2653 -2.67997 -2.66432 0
M  V30 225 H 25.5783 -5.90337 -4.98721 0
M  V30 226 H 23.9233 -5.30457 -4.49044 0
M  V30 227 H 27.1143 -3.3785 -3.23998 0
M  V30 228 H 27.2873 -4.84825 -4.2994 0
M  V30 229 N 20.6934 1.19889 -1.02296 0
M  V30 230 C 21.9704 1.85148 -0.630832 0
M  V30 231 C 22.3504 1.91385 0.890782 0
M  V30 232 O 21.6984 1.42642 1.78509 0
M  V30 233 C 21.9084 3.24442 -1.28602 0
M  V30 234 C 23.2564 4.00663 -1.4055 0
M  V30 235 O 24.2804 3.33818 -1.24273 0
M  V30 236 O 23.1394 5.20387 -1.66913 0
M  V30 237 H 20.2334 0.797613 -0.218499 0
M  V30 238 H 22.7794 1.27427 -1.12074 0
M  V30 239 H 21.5514 3.14704 -2.32545 0
M  V30 240 H 21.1744 3.89802 -0.7836 0
M  V30 241 N 22.1715 0.800033 1.35784 0
M  V30 242 C 23.3995 0.389606 2.03199 0
M  V30 243 C 23.8145 -0.997375 1.60306 0
M  V30 244 O 23.1715 -1.64154 0.797481 0
M  V30 245 C 23.2225 0.455855 3.58614 0
M  V30 246 O 22.9435 1.78815 3.99946 0
M  V30 247 C 24.4445 0.0374032 4.43284 0
M  V30 248 H 21.6645 0.159132 0.651857 0
M  V30 249 H 24.2085 1.08183 1.73541 0
M  V30 250 H 22.3635 -0.188057 3.86943 0
M  V30 251 H 22.7775 1.74636 4.94573 0
M  V30 252 H 24.2515 0.134882 5.51835 0
M  V30 253 H 24.7285 -1.01651 4.27275 0
M  V30 254 H 25.3345 0.654215 4.20238 0
M  V30 255 N 23.6496 -1.47581 0.552962 0
M  V30 256 C 24.5596 -2.33743 -0.200353 0
M  V30 257 C 25.5756 -1.47928 -0.916151 0
M  V30 258 O 26.7516 -1.80865 -0.885993 0
M  V30 259 C 23.8166 -3.24536 -1.21973 0
M  V30 260 C 22.8776 -4.26238 -0.511819 0
M  V30 261 C 22.1106 -5.12693 -1.48263 0
M  V30 262 O 22.3336 -5.01525 -2.71714 0
M  V30 263 O 21.2676 -5.93375 -1.00945 0
M  V30 264 H 25.0936 -2.9945 0.506304 0
M  V30 265 H 22.6786 -1.46071 0.313622 0
M  V30 266 H 24.5606 -3.80631 -1.80827 0
M  V30 267 H 23.2356 -2.61462 -1.90839 0
M  V30 268 H 22.1426 -3.73914 0.117799 0
M  V30 269 H 23.4756 -4.92014 0.135308 0
M  V30 270 N 25.1277 -0.289203 -1.54924 0
M  V30 271 C 26.0377 0.601863 -2.26748 0
M  V30 272 C 27.0537 1.15834 -1.2984 0
M  V30 273 O 28.2297 1.18564 -1.62802 0
M  V30 274 C 25.2947 1.76299 -2.98529 0
M  V30 275 C 24.3557 1.24178 -4.10948 0
M  V30 276 C 23.5887 2.34757 -4.79296 0
M  V30 277 O 23.8117 3.54411 -4.46933 0
M  V30 278 O 22.7457 2.02115 -5.66951 0
M  V30 279 H 26.5717 0.0195879 -3.03694 0
M  V30 280 H 24.1567 -0.0560868 -1.49295 0
M  V30 281 H 26.0387 2.43973 -3.43592 0
M  V30 282 H 24.7137 2.33209 -2.24488 0
M  V30 283 H 23.6207 0.531104 -3.70311 0
M  V30 284 H 24.9537 0.718252 -4.86931 0
M  V30 285 N 26.6058 1.57591 -0.0167156 0
M  V30 286 C 27.5158 2.1291 0.98521 0
M  V30 287 C 28.5318 1.07834 1.36557 0
M  V30 288 O 29.7078 1.39826 1.44951 0
M  V30 289 C 26.7728 2.63512 2.25305 0
M  V30 290 C 25.8338 3.83256 1.93426 0
M  V30 291 C 25.0668 4.31435 3.14165 0
M  V30 292 O 25.2898 3.78851 4.26413 0
M  V30 293 O 24.2238 5.23416 2.97186 0
M  V30 294 H 28.0498 2.98772 0.544888 0
M  V30 295 H 25.6348 1.48012 0.203141 0
M  V30 296 H 27.5168 2.96183 2.99756 0
M  V30 297 H 26.1918 1.8074 2.68542 0
M  V30 298 H 25.0988 3.55531 1.16398 0
M  V30 299 H 26.4318 4.67153 1.55013 0
M  V30 300 N 28.0839 -0.256276 1.55502 0
M  V30 301 C 29.3329 -0.983486 1.76098 0
M  V30 302 C 29.6459 -1.86837 0.578896 0
M  V30 303 O 30.8519 -2.63163 0.667648 0
M  V30 304 C 29.3079 -1.79868 3.1173 0
M  V30 305 C 28.9159 -0.961648 4.37557 0
M  V30 306 C 30.6599 -2.51919 3.41668 0
M  V30 307 C 28.5669 -1.77219 5.64223 0
M  V30 308 H 27.4969 -0.370936 0.656447 0
M  V30 309 H 30.1479 -0.238492 1.81944 0
M  V30 310 H 28.5299 -2.58527 2.99966 0
M  V30 311 H 29.7039 -0.218048 4.60284 0
M  V30 312 H 28.0189 -0.354913 4.14885 0
M  V30 313 H 30.6159 -3.12998 4.33516 0
M  V30 314 H 30.9589 -3.23059 2.62562 0
M  V30 315 H 31.4919 -1.80278 3.54605 0
M  V30 316 H 28.2309 -1.10471 6.46124 0
M  V30 317 H 27.7509 -2.49132 5.45613 0
M  V30 318 H 29.4299 -2.34169 6.03137 0
M  V30 319 N 29.562 -1.4872 -0.521534 0
M  V30 320 C 30.492 -1.66771 -1.63431 0
M  V30 321 C 31.473 -0.516499 -1.62069 0
M  V30 322 O 32.658 -0.750013 -1.79132 0
M  V30 323 C 29.788 -1.71515 -3.01993 0
M  V30 324 C 28.742 -2.86222 -3.18216 0
M  V30 325 C 28.068 -2.76061 -4.57924 0
M  V30 326 C 29.368 -4.27419 -3.00184 0
M  V30 327 H 31.062 -2.59932 -1.48579 0
M  V30 328 H 28.608 -1.25089 -0.713358 0
M  V30 329 H 30.561 -1.82731 -3.7972 0
M  V30 330 H 29.285 -0.749393 -3.17886 0
M  V30 331 H 27.944 -2.74575 -2.42908 0
M  V30 332 H 27.592 -1.77437 -4.70665 0
M  V30 333 H 27.292 -3.53037 -4.69722 0
M  V30 334 H 28.816 -2.89256 -5.37739 0
M  V30 335 H 30.23 -4.39855 -3.67697 0
M  V30 336 H 28.627 -5.05458 -3.2347 0
M  V30 337 H 29.697 -4.43293 -1.96518 0
M  V30 338 N 31.0401 0.771051 -1.3745 0
M  V30 339 C 31.9721 1.89352 -1.29146 0
M  V30 340 C 32.9851 1.61477 -0.207124 0
M  V30 341 O 34.1741 1.72382 -0.463324 0
M  V30 342 C 31.2741 3.24596 -0.974195 0
M  V30 343 C 30.4471 3.80111 -2.16413 0
M  V30 344 C 29.5061 4.93832 -1.81703 0
M  V30 345 O 28.5321 5.09382 -2.54006 0
M  V30 346 N 29.7341 5.75483 -0.761573 0
M  V30 347 H 32.4991 1.96991 -2.25864 0
M  V30 348 H 30.0601 0.950191 -1.31084 0
M  V30 349 H 32.0521 3.98193 -0.722828 0
M  V30 350 H 30.6221 3.12454 -0.0955527 0
M  V30 351 H 29.8421 2.98284 -2.57721 0
M  V30 352 H 31.1301 4.13932 -2.95867 0
M  V30 353 H 30.5281 5.65469 -0.161609 0
M  V30 354 H 29.0851 6.49302 -0.570064 0
M  V30 355 N 32.5182 1.22032 0.997298 0
M  V30 356 C 33.4652 0.986467 2.08656 0
M  V30 357 C 34.4352 -0.0902671 1.65855 0
M  V30 358 O 35.6202 0.0584294 1.90711 0
M  V30 359 C 32.7602 0.565569 3.40434 0
M  V30 360 C 31.8732 1.71259 3.96604 0
M  V30 361 C 31.0082 1.24011 5.16522 0
M  V30 362 C 30.0472 2.35896 5.64818 0
M  V30 363 N 29.1842 1.89726 6.7598 0
M  V30 364 H 34.0242 1.91892 2.27994 0
M  V30 365 H 31.5612 0.956199 1.11782 0
M  V30 366 H 33.5192 0.302738 4.161 0
M  V30 367 H 32.1492 -0.329879 3.2111 0
M  V30 368 H 31.2012 2.08986 3.17851 0
M  V30 369 H 32.5132 2.55436 4.28432 0
M  V30 370 H 31.6672 0.934395 5.99461 0
M  V30 371 H 30.4062 0.368487 4.86306 0
M  V30 372 H 29.4112 2.67261 4.8047 0
M  V30 373 H 30.6362 3.23567 5.97061 0
M  V30 374 H 28.5822 1.0492 6.47555 0
M  V30 375 H 28.4992 2.67471 7.07103 0
M  V30 376 H 29.7672 1.62211 7.62435 0
M  V30 377 N 33.9963 -1.19345 1.0293 0
M  V30 378 C 35.2243 -1.92997 0.745644 0
M  V30 379 C 35.6393 -1.75519 -0.695589 0
M  V30 380 O 34.9963 -1.07737 -1.47306 0
M  V30 381 C 35.0473 -3.44741 1.08792 0
M  V30 382 O 34.7683 -3.61658 2.47256 0
M  V30 383 C 36.2693 -4.35515 0.827129 0
M  V30 384 H 33.4893 -0.613042 0.272801 0
M  V30 385 H 36.0333 -1.51473 1.3739 0
M  V30 386 H 34.1883 -3.84097 0.504832 0
M  V30 387 H 34.6023 -4.55514 2.60015 0
M  V30 388 H 36.0763 -5.40589 1.11658 0
M  V30 389 H 36.5533 -4.38552 -0.238436 0
M  V30 390 H 37.1593 -4.01841 1.39297 0
M  V30 391 N 35.4744 -0.807222 -1.35358 0
M  V30 392 C 36.4214 -0.216037 -2.29787 0
M  V30 393 C 37.3914 0.650278 -1.52842 0
M  V30 394 O 38.5764 0.595227 -1.81278 0
M  V30 395 C 35.7164 0.628893 -3.39321 0
M  V30 396 C 34.8294 -0.257927 -4.31229 0
M  V30 397 C 33.9644 0.595069 -5.27856 0
M  V30 398 C 33.0034 -0.292111 -6.11403 0
M  V30 399 N 32.1404 0.520895 -7.00165 0
M  V30 400 H 36.9804 -1.02671 -2.79755 0
M  V30 401 H 34.5174 -0.517839 -1.37684 0
M  V30 402 H 36.4754 1.13393 -4.01494 0
M  V30 403 H 35.1054 1.40482 -2.90628 0
M  V30 404 H 34.1574 -0.881076 -3.70056 0
M  V30 405 H 35.4694 -0.940759 -4.89848 0
M  V30 406 H 34.6234 1.16522 -5.95405 0
M  V30 407 H 33.3624 1.31146 -4.69736 0
M  V30 408 H 32.3674 -0.874525 -5.428 0
M  V30 409 H 33.5924 -1.00638 -6.71602 0
M  V30 410 H 31.5384 1.22125 -6.44532 0
M  V30 411 H 31.4554 -0.103877 -7.55929 0
M  V30 412 H 32.7234 1.0743 -7.72062 0
M  V30 413 N 36.9525 1.47285 -0.560781 0
M  V30 414 C 37.8845 2.28118 0.222438 0
M  V30 415 C 38.8975 1.37219 0.876056 0
M  V30 416 O 40.0865 1.62011 0.749307 0
M  V30 417 C 37.1865 3.1159 1.33285 0
M  V30 418 C 36.3595 4.30473 0.77534 0
M  V30 419 C 35.4185 4.95513 1.77069 0
M  V30 420 O 34.4445 5.53792 1.31539 0
M  V30 421 N 35.6465 4.90531 3.10418 0
M  V30 422 H 38.4115 2.95976 -0.470958 0
M  V30 423 H 35.9725 1.56955 -0.39709 0
M  V30 424 H 37.9645 3.51967 1.99752 0
M  V30 425 H 36.5345 2.45951 1.92943 0
M  V30 426 H 35.7545 3.94144 -0.0662113 0
M  V30 427 H 37.0425 5.07362 0.382272 0
M  V30 428 H 36.4405 4.44389 3.5005 0
M  V30 429 H 34.9975 5.34917 3.72434 0
M  V30 430 N 38.4306 0.297415 1.54768 0
M  V30 431 C 39.3606 -0.573494 2.26348 0
M  V30 432 C 40.3416 -1.14085 1.26169 0
M  V30 433 O 41.5266 -1.17086 1.54934 0
M  V30 434 C 38.6566 -1.74716 3.00153 0
M  V30 435 C 37.6106 -1.31032 4.07449 0
M  V30 436 C 36.9366 -2.56887 4.68949 0
M  V30 437 C 38.2366 -0.444183 5.20408 0
M  V30 438 H 39.9306 0.0235131 2.99391 0
M  V30 439 H 37.4766 0.0127488 1.43994 0
M  V30 440 H 39.4296 -2.3625 3.48947 0
M  V30 441 H 38.1536 -2.37035 2.24682 0
M  V30 442 H 36.8126 -0.718066 3.59499 0
M  V30 443 H 36.4606 -3.17512 3.90122 0
M  V30 444 H 36.1606 -2.2836 5.41411 0
M  V30 445 H 37.6846 -3.19229 5.20505 0
M  V30 446 H 39.0986 -0.9651 5.65118 0
M  V30 447 H 37.4956 -0.252846 5.99567 0
M  V30 448 H 38.5656 0.531609 4.81977 0
M  V30 449 N 39.9087 -1.5758 0.0250728 0
M  V30 450 C 40.8387 -2.13007 -0.956575 0
M  V30 451 C 41.8197 -1.0452 -1.342 0
M  V30 452 O 43.0047 -1.32332 -1.42133 0
M  V30 453 C 40.1347 -2.65386 -2.24026 0
M  V30 454 C 39.0887 -3.78623 -1.99571 0
M  V30 455 C 38.4147 -4.17414 -3.3417 0
M  V30 456 C 39.7147 -5.04867 -1.33814 0
M  V30 457 H 41.4087 -2.9528 -0.494991 0
M  V30 458 H 38.9547 -1.42042 -0.236651 0
M  V30 459 H 40.9077 -3.02794 -2.93076 0
M  V30 460 H 39.6317 -1.80268 -2.72343 0
M  V30 461 H 38.2907 -3.41646 -1.32941 0
M  V30 462 H 37.9387 -3.29284 -3.80238 0
M  V30 463 H 37.6387 -4.93719 -3.18615 0
M  V30 464 H 39.1627 -4.57402 -4.04495 0
M  V30 465 H 40.5767 -5.39888 -1.92857 0
M  V30 466 H 38.9737 -5.86144 -1.28669 0
M  V30 467 H 40.0437 -4.83904 -0.310561 0
M  V30 468 N 41.3868 0.248026 -1.55636 0
M  V30 469 C 42.2968 1.32859 -1.93354 0
M  V30 470 C 43.3128 1.52719 -0.833838 0
M  V30 471 O 44.4888 1.66363 -1.13513 0
M  V30 472 C 41.5538 2.66337 -2.21958 0
M  V30 473 C 40.6148 2.55008 -3.45354 0
M  V30 474 C 39.8478 3.82121 -3.72584 0
M  V30 475 O 40.0708 4.83951 -3.01907 0
M  V30 476 O 39.0048 3.80822 -4.6611 0
M  V30 477 H 42.8308 1.03862 -2.85388 0
M  V30 478 H 40.4158 0.448686 -1.42503 0
M  V30 479 H 42.2978 3.45216 -2.4167 0
M  V30 480 H 40.9728 2.95068 -1.33103 0
M  V30 481 H 39.8798 1.7442 -3.30951 0
M  V30 482 H 41.2128 2.31222 -4.34508 0
M  V30 483 N 42.8649 1.48995 0.513639 0
M  V30 484 C 43.8119 1.6473 1.61656 0
M  V30 485 C 44.7819 0.488984 1.58739 0
M  V30 486 O 45.9669 0.714478 1.76918 0
M  V30 487 C 43.1069 1.7082 2.99858 0
M  V30 488 C 42.2199 2.9787 3.12885 0
M  V30 489 C 41.3549 2.95017 4.41744 0
M  V30 490 C 40.3939 4.16702 4.48359 0
M  V30 491 N 39.5309 4.11832 5.68629 0
M  V30 492 H 44.3709 2.58909 1.47547 0
M  V30 493 H 41.9079 1.28382 0.71808 0
M  V30 494 H 43.8659 1.72331 3.79944 0
M  V30 495 H 42.4959 0.801181 3.12699 0
M  V30 496 H 41.5479 3.06029 2.25944 0
M  V30 497 H 42.8599 3.8786 3.13633 0
M  V30 498 H 42.0139 2.95021 5.30139 0
M  V30 499 H 40.7529 2.02784 4.43542 0
M  V30 500 H 39.7579 4.16955 3.58369 0
M  V30 501 H 40.9829 5.10113 4.48287 0
M  V30 502 H 38.9289 3.22428 5.71293 0
M  V30 503 H 38.8459 4.95543 5.7094 0
M  V30 504 H 40.1139 4.1592 6.59266 0
M  V30 505 N 44.343 -0.763751 1.37857 0
M  V30 506 C 45.592 -1.51789 1.32827 0
M  V30 507 C 45.905 -1.95426 -0.0823719 0
M  V30 508 O 47.111 -2.70298 -0.255172 0
M  V30 509 C 45.567 -2.74133 2.33193 0
M  V30 510 C 45.175 -2.37562 3.79827 0
M  V30 511 C 46.919 -3.52054 2.37188 0
M  V30 512 C 44.826 -3.56456 4.71904 0
M  V30 513 H 43.756 -0.569896 0.493695 0
M  V30 514 H 46.407 -0.835822 1.63359 0
M  V30 515 H 44.789 -3.4427 1.9569 0
M  V30 516 H 45.963 -1.75157 4.26212 0
M  V30 517 H 44.278 -1.72798 3.78853 0
M  V30 518 H 46.875 -4.40437 3.03182 0
M  V30 519 H 47.218 -3.92486 1.38782 0
M  V30 520 H 47.751 -2.88921 2.7344 0
M  V30 521 H 44.49 -3.21099 5.71468 0
M  V30 522 H 44.01 -4.17938 4.30218 0
M  V30 523 H 45.689 -4.23168 4.89426 0
M  V30 524 N 45.8211 -1.22559 -0.990812 0
M  V30 525 C 47.0701 -1.04553 -1.72486 0
M  V30 526 C 47.3831 0.419349 -1.91052 0
M  V30 527 O 48.5891 0.719121 -2.61803 0
M  V30 528 C 47.0451 -1.82231 -3.10355 0
M  V30 529 C 46.6531 -3.32981 -2.99713 0
M  V30 530 C 48.3971 -1.7268 -3.87791 0
M  V30 531 C 46.3041 -4.03091 -4.32748 0
M  V30 532 H 45.2341 -0.387614 -0.646739 0
M  V30 533 H 47.8851 -1.46429 -1.10593 0
M  V30 534 H 46.2671 -1.33155 -3.72942 0
M  V30 535 H 47.4411 -3.89466 -2.46278 0
M  V30 536 H 45.7561 -3.43231 -2.35758 0
M  V30 537 H 48.3531 -2.22381 -4.86262 0
M  V30 538 H 48.6961 -0.687607 -4.10582 0
M  V30 539 H 49.2291 -2.1931 -3.31885 0
M  V30 540 H 45.9681 -5.07273 -4.15156 0
M  V30 541 H 45.4881 -3.51394 -4.86089 0
M  V30 542 H 47.1671 -4.08804 -5.01486 0
M  V30 543 N 47.2992 1.18797 -1.03562 0
M  V30 544 C 48.2092 2.25913 -0.632505 0
M  V30 545 C 49.2252 1.70668 0.338882 0
M  V30 546 O 50.4012 2.00453 0.195076 0
M  V30 547 C 47.4662 3.467 0.00350942 0
M  V30 548 C 46.5272 4.17098 -1.01624 0
M  V30 549 C 45.7602 5.32119 -0.410478 0
M  V30 550 O 45.9832 5.64976 0.784725 0
M  V30 551 O 44.9172 5.9107 -1.13667 0
M  V30 552 H 48.7432 2.62648 -1.52478 0
M  V30 553 H 46.3282 1.25781 -0.806195 0
M  V30 554 H 48.2102 4.19878 0.35781 0
M  V30 555 H 46.8852 3.11798 0.869686 0
M  V30 556 H 45.7922 3.4601 -1.42224 0
M  V30 557 H 47.1252 4.55987 -1.85301 0
M  V30 558 N 48.7773 0.814389 1.34928 0
M  V30 559 C 49.6873 0.231978 2.3345 0
M  V30 560 C 50.7033 -0.629139 1.62228 0
M  V30 561 O 51.8793 -0.539052 1.94052 0
M  V30 562 C 48.9443 -0.603482 3.41407 0
M  V30 563 C 48.0053 0.279037 4.28392 0
M  V30 564 C 47.2383 -0.516643 5.31193 0
M  V30 565 O 47.4613 -1.75068 5.4287 0
M  V30 566 O 46.3953 0.0965652 6.01823 0
M  V30 567 H 50.2213 1.04721 2.85074 0
M  V30 568 H 47.8063 0.576343 1.37836 0
M  V30 569 H 49.6883 -1.07908 4.0735 0
M  V30 570 H 48.3633 -1.39618 2.92042 0
M  V30 571 H 47.2703 0.801948 3.65403 0
M  V30 572 H 48.6033 1.03588 4.81176 0
M  V30 573 N 50.2554 -1.46986 0.568584 0
M  V30 574 C 51.2034 -2.31858 -0.185649 0
M  V30 575 C 52.1974 -1.43624 -0.898249 0
M  V30 576 O 53.4034 -1.60327 -0.818242 0
M  V30 577 H 49.7784 -0.747866 -0.0787399 0
M  V30 578 H 51.7494 -2.93303 0.549191 0
M  V30 579 C 50.4984 -3.26513 -1.19519 0
M  V30 580 H 49.8214 -3.94377 -0.656285 0
M  V30 581 H 51.2614 -3.88707 -1.6936 0
M  V30 582 C 49.7204 -2.50847 -2.24894 0
M  V30 583 O 50.2504 -2.26119 -3.32014 0
M  V30 584 N 48.4564 -2.11656 -1.99124 0
M  V30 585 H 48.0034 -2.31966 -1.12024 0
M  V30 586 H 47.9614 -1.61347 -2.69842 0
M  V30 587 N 51.7335 -0.305618 -1.54608 0
M  V30 588 C 52.6835 0.583595 -2.20405 0
M  V30 589 C 53.6675 1.09539 -1.17856 0
M  V30 590 O 54.8595 1.0354 -1.43557 0
M  V30 591 C 51.9885 1.75277 -2.95183 0
M  V30 592 C 51.0745 1.25672 -4.05052 0
M  V30 593 N 51.4655 0.478998 -5.03527 0
M  V30 594 C 49.7635 1.53704 -4.18678 0
M  V30 595 C 50.4645 0.214269 -5.81305 0
M  V30 596 N 49.4405 0.795374 -5.3775 0
M  V30 597 H 53.2425 -0.0180946 -2.93894 0
M  V30 598 H 50.7565 -0.110601 -1.62023 0
M  V30 599 H 52.7535 2.4014 -3.40791 0
M  V30 600 H 51.4135 2.35812 -2.23211 0
M  V30 601 H 52.4245 0.123473 -5.17753 0
M  V30 602 H 49.1015 2.14954 -3.57912 0
M  V30 603 H 50.4915 -0.410656 -6.70644 0
M  V30 604 N 53.2116 1.57565 -0.0334293 0
M  V30 605 C 54.4396 1.9628 0.654347 0
M  V30 606 C 54.8546 0.910138 1.65414 0
M  V30 607 O 54.2116 -0.107595 1.82183 0
M  V30 608 C 54.2626 3.35067 1.35693 0
M  V30 609 O 53.9836 4.36296 0.397191 0
M  V30 610 C 55.4846 3.88439 2.13613 0
M  V30 611 H 52.7046 0.646369 0.180132 0
M  V30 612 H 55.2486 2.04282 -0.0944721 0
M  V30 613 H 53.4036 3.2827 2.05712 0
M  V30 614 H 53.8176 5.1678 0.896597 0
M  V30 615 H 55.2916 4.8788 2.58219 0
M  V30 616 H 55.7686 3.22914 2.97696 0
M  V30 617 H 56.3746 3.98516 1.48543 0
M  V30 618 N 54.6897 -0.239769 1.55765 0
M  V30 619 C 55.6367 -1.29696 1.90913 0
M  V30 620 C 56.6067 -1.47478 0.764164 0
M  V30 621 O 57.7917 -1.61345 1.01845 0
M  V30 622 C 54.9317 -2.64598 2.21544 0
M  V30 623 C 54.0447 -2.54765 3.48882 0
M  V30 624 C 53.1797 -3.82069 3.69049 0
M  V30 625 C 52.2187 -3.66883 4.89963 0
M  V30 626 N 51.3557 -4.86094 5.06614 0
M  V30 627 H 56.1957 -0.990224 2.81067 0
M  V30 628 H 53.7327 -0.477684 1.39128 0
M  V30 629 H 55.6907 -3.43132 2.3731 0
M  V30 630 H 54.3207 -2.93405 1.34585 0
M  V30 631 H 53.3727 -1.67763 3.41409 0
M  V30 632 H 54.6847 -2.39457 4.37563 0
M  V30 633 H 53.8387 -4.69046 3.84812 0
M  V30 634 H 52.5777 -4.00282 2.78614 0
M  V30 635 H 51.5827 -2.78289 4.74168 0
M  V30 636 H 52.8077 -3.50157 5.81865 0
M  V30 637 H 50.7537 -5.04655 4.19117 0
M  V30 638 H 50.6707 -4.73443 5.89396 0
M  V30 639 H 51.9387 -5.74549 5.26795 0
M  V30 640 N 56.1678 -1.49265 -0.50573 0
M  V30 641 C 57.5788 -1.51769 -1.08734 0
M  V30 642 C 57.9298 -0.301192 -1.93874 0
M  V30 643 O 57.0548 0.589456 -2.08217 0
M  V30 644 C 57.6498 -2.75017 -1.97867 0
M  V30 645 C 56.2088 -2.80314 -2.51199 0
M  V30 646 C 55.3558 -2.4562 -1.28709 0
M  V30 647 H 58.3068 -1.56031 -0.289855 0
M  V30 648 H 58.3278 -2.5491 -2.82491 0
M  V30 649 H 57.8398 -3.63539 -1.35873 0
M  V30 650 H 55.9408 -1.96061 -3.16845 0
M  V30 651 H 56.0538 -3.82366 -2.88675 0
M  V30 652 H 54.4178 -1.97297 -1.61078 0
M  V30 653 H 55.2008 -3.36411 -0.6843 0
M  V30 654 N 57.6459 0.756429 -1.3826 0
M  V30 655 C 58.5559 1.9009 -1.37488 0
M  V30 656 C 59.5719 1.71855 -0.272366 0
M  V30 657 O 60.7479 1.94827 -0.510318 0
M  V30 658 C 57.8129 3.25421 -1.19592 0
M  V30 659 C 56.8739 3.56202 -2.39622 0
M  V30 660 C 56.1069 4.85075 -2.2257 0
M  V30 661 O 56.3299 5.57246 -1.21793 0
M  V30 662 O 55.2639 5.15269 -3.11098 0
M  V30 663 H 59.0899 1.93695 -2.33914 0
M  V30 664 H 56.6749 0.901313 -1.1915 0
M  V30 665 H 58.5569 4.06337 -1.11661 0
M  V30 666 H 57.2319 3.22634 -0.262486 0
M  V30 667 H 56.1389 2.75458 -2.53128 0
M  V30 668 H 57.4719 3.63747 -3.31586 0
M  V30 669 N 59.124 1.23083 0.984299 0
M  V30 670 C 60.401 0.9689 1.69917 0
M  V30 671 C 60.781 -0.513604 2.04757 0
M  V30 672 O 60.129 -1.48383 1.73767 0
M  V30 673 C 60.339 1.87518 2.94343 0
M  V30 674 C 61.687 2.13636 3.6694 0
M  V30 675 O 62.711 1.85036 3.04368 0
M  V30 676 O 61.57 2.62119 4.79537 0
M  V30 677 H 58.664 0.365095 0.742048 0
M  V30 678 H 61.21 1.34107 1.03987 0
M  V30 679 H 59.982 2.87756 2.65164 0
M  V30 680 H 59.605 1.50514 3.6801 0
M  V30 681 N 60.6021 -1.18246 1.0419 0
M  V30 682 C 61.8481 -1.88536 0.747122 0
M  V30 683 C 62.1811 -1.80223 -0.723409 0
M  V30 684 O 61.4561 -1.20337 -1.52804 0
M  V30 685 C 61.7391 -3.38968 1.21544 0
M  V30 686 C 61.5921 -3.56084 2.74816 0
M  V30 687 C 62.9111 -4.32648 0.806482 0
M  V30 688 H 60.0301 -0.684619 0.272883 0
M  V30 689 H 62.6721 -1.39113 1.29413 0
M  V30 690 H 60.8221 -3.8119 0.750081 0
M  V30 691 H 62.4941 -3.22946 3.29399 0
M  V30 692 H 60.7371 -2.98699 3.14582 0
M  V30 693 H 61.4081 -4.61639 3.02644 0
M  V30 694 H 63.8841 -3.98211 1.20695 0
M  V30 695 H 62.7601 -5.36462 1.1619 0
M  V30 696 H 63.0211 -4.41146 -0.29029 0
M  V30 697 N 62.0802 -0.821533 -1.34494 0
M  V30 698 C 63.3262 -0.409552 -1.98622 0
M  V30 699 C 63.6592 1.0244 -1.64984 0
M  V30 700 O 62.9342 1.71325 -0.920758 0
M  V30 701 C 63.2172 -0.610458 -3.54888 0
M  V30 702 C 63.0702 -2.09043 -3.98273 0
M  V30 703 C 64.3892 -0.0455379 -4.40076 0
M  V30 704 H 61.5082 -0.15028 -0.721516 0
M  V30 705 H 64.1502 -1.03384 -1.59411 0
M  V30 706 H 62.3002 -0.079044 -3.8842 0
M  V30 707 H 63.9722 -2.68537 -3.75081 0
M  V30 708 H 62.2152 -2.58139 -3.48635 0
M  V30 709 H 62.8862 -2.18182 -5.07051 0
M  V30 710 H 65.3622 -0.499557 -4.1309 0
M  V30 711 H 64.2382 -0.215922 -5.48475 0
M  V30 712 H 64.4992 1.04939 -4.29465 0
M  V30 713 N 63.5583 1.46682 -0.576371 0
M  V30 714 C 64.4903 2.28341 0.198231 0
M  V30 715 C 65.5033 1.38141 0.861453 0
M  V30 716 O 66.6923 1.62797 0.732082 0
M  V30 717 C 63.7923 3.12986 1.29972 0
M  V30 718 C 62.9653 4.31271 0.729639 0
M  V30 719 C 62.0243 4.97363 1.71803 0
M  V30 720 O 61.0503 5.55156 1.25658 0
M  V30 721 N 62.2523 4.93796 3.05198 0
M  V30 722 H 65.0173 2.9546 -0.502324 0
M  V30 723 H 62.5783 1.56525 -0.413715 0
M  V30 724 H 64.5703 3.54066 1.96008 0
M  V30 725 H 63.1403 2.47984 1.90323 0
M  V30 726 H 62.3603 3.94052 -0.108012 0
M  V30 727 H 63.6483 5.07739 0.328438 0
M  V30 728 H 63.0463 4.48077 3.45317 0
M  V30 729 H 61.6033 5.38837 3.6674 0
M  V30 730 N 65.0364 0.313813 1.54444 0
M  V30 731 C 65.9694 -0.598866 2.20202 0
M  V30 732 C 66.9474 -1.12318 1.17573 0
M  V30 733 O 68.1314 -1.18899 1.46271 0
M  V30 734 C 65.2584 -1.82071 2.85601 0
M  V30 735 C 64.3044 -1.42851 4.01865 0
M  V30 736 S 65.1374 -0.473512 5.33402 0
M  V30 737 C 66.2934 -1.70286 6.0229 0
M  V30 738 H 66.5264 -0.0402532 2.97273 0
M  V30 739 H 64.0594 0.0979165 1.54089 0
M  V30 740 H 66.0174 -2.52184 3.23904 0
M  V30 741 H 64.6784 -2.3505 2.08351 0
M  V30 742 H 63.8714 -2.33871 4.46453 0
M  V30 743 H 63.4734 -0.807198 3.65185 0
M  V30 744 H 65.7654 -2.64168 6.23876 0
M  V30 745 H 66.7084 -1.29932 6.96077 0
M  V30 746 H 67.1164 -1.88541 5.32083 0
M  V30 747 N 66.5145 -1.57545 0.0417849 0
M  V30 748 C 67.4445 -2.14009 -0.933929 0
M  V30 749 C 68.4255 -1.05938 -1.33083 0
M  V30 750 O 69.6105 -1.33833 -1.40721 0
M  V30 751 C 66.7405 -2.67747 -2.21199 0
M  V30 752 C 65.6945 -3.80718 -1.95544 0
M  V30 753 C 65.0205 -4.20935 -3.29724 0
M  V30 754 C 66.3205 -5.06258 -1.28452 0
M  V30 755 H 68.0145 -2.95788 -0.463645 0
M  V30 756 H 65.5605 -1.42285 -0.221573 0
M  V30 757 H 67.5135 -3.05886 -2.89848 0
M  V30 758 H 66.2375 -1.83147 -2.70416 0
M  V30 759 H 64.8965 -3.43037 -1.2931 0
M  V30 760 H 64.5445 -3.33298 -3.76724 0
M  V30 761 H 64.2445 -4.9707 -3.13361 0
M  V30 762 H 65.7685 -4.61666 -3.9962 0
M  V30 763 H 67.1825 -5.41903 -1.8712 0
M  V30 764 H 65.5795 -5.87475 -1.22445 0
M  V30 765 H 66.6495 -4.84207 -0.259219 0
M  V30 766 N 67.9926 0.231505 -1.5589 0
M  V30 767 C 68.9226 1.29022 -1.94617 0
M  V30 768 C 69.9036 1.4941 -0.813067 0
M  V30 769 O 71.0886 1.6176 -1.07459 0
M  V30 770 C 68.2186 2.64199 -2.25424 0
M  V30 771 C 67.1726 2.58484 -3.41131 0
M  V30 772 C 66.4986 3.97599 -3.57518 0
M  V30 773 C 67.7986 2.1413 -4.76388 0
M  V30 774 H 69.4926 0.968563 -2.83301 0
M  V30 775 H 67.0386 0.464479 -1.36303 0
M  V30 776 H 68.9916 3.38413 -2.51107 0
M  V30 777 H 67.7156 2.98032 -1.33583 0
M  V30 778 H 66.3746 1.86727 -3.15481 0
M  V30 779 H 66.0226 4.28723 -2.6307 0
M  V30 780 H 65.7226 3.94659 -4.35337 0
M  V30 781 H 67.2466 4.7349 -3.85538 0
M  V30 782 H 68.6606 2.78083 -5.01341 0
M  V30 783 H 67.0576 2.2227 -5.57419 0
M  V30 784 H 68.1276 1.09331 -4.72414 0
M  V30 785 N 69.4707 1.49531 0.497807 0
M  V30 786 C 70.6957 1.63159 1.28039 0
M  V30 787 C 71.1207 0.30418 1.85624 0
M  V30 788 O 70.4787 -0.728618 1.66015 0
M  V30 789 C 70.5267 2.70537 2.38416 0
M  V30 790 O 69.6307 2.29931 3.42353 0
M  V30 791 H 68.9717 0.546001 0.377861 0
M  V30 792 H 71.5017 1.9574 0.59558 0
M  V30 793 H 71.5117 2.92802 2.84132 0
M  V30 794 H 70.1867 3.6689 1.95869 0
M  V30 795 H 68.7637 2.18009 3.02533 0
M  V30 796 N 70.9488 -0.749086 1.3866 0
M  V30 797 C 71.9118 -1.84457 1.36045 0
M  V30 798 C 72.9118 -1.58682 0.260122 0
M  V30 799 O 74.1018 -1.66343 0.517261 0
M  V30 800 C 71.2338 -3.22008 1.11911 0
M  V30 801 H 72.4268 -1.88182 2.33512 0
M  V30 802 H 69.9798 -0.951266 1.24019 0
M  V30 803 H 70.7148 -3.2395 0.150686 0
M  V30 804 H 70.4998 -3.42111 1.91579 0
M  V30 805 H 71.9898 -4.0208 1.12788 0
M  V30 806 N 72.4269 -1.23603 -0.977757 0
M  V30 807 C 73.6549 -1.09646 -1.75458 0
M  V30 808 C 74.0699 0.351859 -1.85492 0
M  V30 809 O 73.4269 1.24327 -1.336 0
M  V30 810 C 73.4779 -1.71895 -3.18016 0
M  V30 811 O 73.1989 -3.11063 -3.08498 0
M  V30 812 C 74.6999 -1.63415 -4.12081 0
M  V30 813 H 71.9199 -0.38359 -0.550545 0
M  V30 814 H 74.4639 -1.63507 -1.22824 0
M  V30 815 H 72.6189 -1.22061 -3.67668 0
M  V30 816 H 73.0329 -3.41305 -3.9826 0
M  V30 817 H 74.5069 -2.11669 -5.09804 0
M  V30 818 H 74.9839 -0.593462 -4.35172 0
M  V30 819 H 75.5899 -2.12628 -3.68334 0
M  V30 820 N 73.905 1.17692 -1.04816 0
M  V30 821 C 75.316 1.69501 -0.782698 0
M  V30 822 C 75.667 1.83456 0.695577 0
M  V30 823 O 74.792 1.51942 1.54086 0
M  V30 824 C 75.387 3.07874 -1.41419 0
M  V30 825 C 73.946 3.56864 -1.19686 0
M  V30 826 C 73.093 2.3322 -1.50012 0
M  V30 827 H 76.044 1.02262 -1.2136 0
M  V30 828 H 76.065 3.71528 -0.821428 0
M  V30 829 H 75.577 2.97685 -2.49009 0
M  V30 830 H 73.678 3.72337 -0.140043 0
M  V30 831 H 73.791 4.39851 -1.89916 0
M  V30 832 H 72.155 2.37501 -0.920071 0
M  V30 833 H 72.938 2.25644 -2.58727 0
M  V30 834 N 75.3831 0.828654 1.34056 0
M  V30 835 C 76.6601 0.341809 1.9259 0
M  V30 836 C 77.0401 -1.17158 1.75605 0
M  V30 837 O 76.3881 -1.98132 1.13824 0
M  V30 838 C 76.5981 0.777453 3.4023 0
M  V30 839 C 77.9461 0.779579 4.17382 0
M  V30 840 O 78.9701 0.7204 3.48839 0
M  V30 841 O 77.8291 0.857996 5.39723 0
M  V30 842 H 74.9231 0.0946085 0.821571 0
M  V30 843 H 77.4691 0.913827 1.42994 0
M  V30 844 H 76.2411 1.8196 3.46419 0
M  V30 845 H 75.8641 0.181444 3.97186 0
M  V30 846 N 76.8612 -1.46375 0.584142 0
M  V30 847 C 77.7912 -2.33103 -0.136037 0
M  V30 848 C 78.7722 -1.45431 -0.882255 0
M  V30 849 O 79.9572 -1.74246 -0.857434 0
M  V30 850 C 77.0872 -3.27731 -1.14933 0
M  V30 851 C 76.0412 -4.24855 -0.517862 0
M  V30 852 C 75.3672 -5.09001 -1.63773 0
M  V30 853 C 76.6672 -5.19439 0.545886 0
M  V30 854 H 78.3612 -2.93568 0.588086 0
M  V30 855 H 75.9072 -1.41166 0.284259 0
M  V30 856 H 77.8602 -3.87261 -1.66153 0
M  V30 857 H 76.5842 -2.65377 -1.90375 0
M  V30 858 H 75.2432 -3.6659 -0.0267361 0
M  V30 859 H 74.8912 -4.43031 -2.38185 0
M  V30 860 H 74.5912 -5.74777 -1.22085 0
M  V30 861 H 76.1152 -5.71396 -2.15266 0
M  V30 862 H 77.5292 -5.73177 0.118704 0
M  V30 863 H 75.9262 -5.93566 0.88317 0
M  V30 864 H 76.9962 -4.63285 1.43162 0
M  V30 865 N 78.3393 -0.321999 -1.54275 0
M  V30 866 C 79.2893 0.560185 -2.21011 0
M  V30 867 C 80.2733 1.08283 -1.19011 0
M  V30 868 O 81.4653 1.02011 -1.44647 0
M  V30 869 C 78.5943 1.72137 -2.97025 0
M  V30 870 C 77.6803 1.21369 -4.06363 0
M  V30 871 N 78.0713 0.425566 -5.04007 0
M  V30 872 C 76.3693 1.49255 -4.20284 0
M  V30 873 C 77.0703 0.152601 -5.815 0
M  V30 874 N 76.0463 0.738294 -5.38563 0
M  V30 875 H 79.8483 -0.049265 -2.93859 0
M  V30 876 H 77.3623 -0.127779 -1.61897 0
M  V30 877 H 79.3593 2.36512 -3.43319 0
M  V30 878 H 78.0193 2.33431 -2.25699 0
M  V30 879 H 79.0303 0.068551 -5.17855 0
M  V30 880 H 75.7073 2.11145 -3.60172 0
M  V30 881 H 77.0973 -0.481764 -6.70171 0
M  V30 882 N 79.8174 1.5752 -0.0501392 0
M  V30 883 C 80.7804 2.1037 0.909786 0
M  V30 884 C 81.7804 1.02308 1.24056 0
M  V30 885 O 82.9704 1.28385 1.17741 0
M  V30 886 C 80.1024 2.58708 2.21998 0
M  V30 887 H 81.2954 2.96479 0.451665 0
M  V30 888 H 78.8484 1.55038 0.198248 0
M  V30 889 H 79.5834 1.75989 2.72394 0
M  V30 890 H 79.3684 3.37675 1.99295 0
M  V30 891 H 80.8584 2.99747 2.9076 0
M  V30 892 N 81.2955 -0.223234 1.56011 0
M  V30 893 C 82.5415 -0.949279 1.79211 0
M  V30 894 C 82.8745 -1.84054 0.619494 0
M  V30 895 O 82.1495 -1.90726 -0.381317 0
M  V30 896 C 82.4325 -1.78965 3.12479 0
M  V30 897 C 82.2855 -0.924997 4.40186 0
M  V30 898 C 83.6045 -2.76774 3.42175 0
M  V30 899 H 80.7235 -0.343676 0.651963 0
M  V30 900 H 83.3655 -0.218253 1.88742 0
M  V30 901 H 81.5155 -2.41291 3.04485 0
M  V30 902 H 83.1875 -0.318615 4.60198 0
M  V30 903 H 81.4305 -0.230344 4.33188 0
M  V30 904 H 82.1015 -1.54735 5.29869 0
M  V30 905 H 84.5775 -2.24584 3.50287 0
M  V30 906 H 83.4535 -3.32678 4.36597 0
M  V30 907 H 83.7145 -3.54429 2.64258 0
M  V30 908 N 82.7736 -1.49793 -0.48987 0
M  V30 909 C 84.0206 -1.59841 -1.24327 0
M  V30 910 C 84.3486 -0.290135 -1.92324 0
M  V30 911 O 83.6036 0.722749 -1.81865 0
M  V30 912 C 83.9026 -2.71488 -2.32441 0
M  V30 913 C 83.5686 -4.12614 -1.81826 0
M  V30 914 C 82.2306 -4.51017 -1.67742 0
M  V30 915 C 84.5826 -5.00892 -1.4407 0
M  V30 916 C 81.9106 -5.75459 -1.14297 0
M  V30 917 C 84.2626 -6.25863 -0.920742 0
M  V30 918 C 82.9266 -6.63086 -0.766383 0
M  V30 919 H 82.1966 -0.584899 -0.454944 0
M  V30 920 H 84.8436 -1.83663 -0.542215 0
M  V30 921 H 83.1486 -2.4168 -3.0838 0
M  V30 922 H 84.8456 -2.76469 -2.90458 0
M  V30 923 H 81.4356 -3.82307 -1.93751 0
M  V30 924 H 85.6196 -4.7187 -1.53794 0
M  V30 925 H 80.8756 -6.02989 -1.01068 0
M  V30 926 H 85.0496 -6.9364 -0.619448 0
M  V30 927 H 82.6766 -7.59393 -0.350083 0
M  V30 928 N 84.2517 0.741722 -1.39055 0
M  V30 929 C 85.6627 1.31966 -1.32068 0
M  V30 930 C 86.0137 1.96192 0.0180797 0
M  V30 931 O 85.1387 1.95861 0.920196 0
M  V30 932 C 85.7337 2.39954 -2.39181 0
M  V30 933 C 84.2927 2.93438 -2.35735 0
M  V30 934 C 83.4397 1.66936 -2.21422 0
M  V30 935 H 86.3907 0.539721 -1.4924 0
M  V30 936 H 86.4117 3.20182 -2.05581 0
M  V30 937 H 85.9237 1.9318 -3.36605 0
M  V30 938 H 84.0247 3.4451 -1.41929 0
M  V30 939 H 84.1377 3.4701 -3.30335 0
M  V30 940 H 82.5017 1.91016 -1.68478 0
M  V30 941 H 83.2847 1.22224 -3.20806 0
M  V30 942 N 85.7298 1.2412 0.971189 0
M  V30 943 C 86.6928 1.03156 2.04674 0
M  V30 944 C 87.6928 -0.00990322 1.60797 0
M  V30 945 O 88.8828 0.230729 1.72665 0
M  V30 946 C 86.0148 0.562765 3.36223 0
M  V30 947 H 87.2078 1.98614 2.24705 0
M  V30 948 H 84.7608 1.06293 1.14593 0
M  V30 949 H 85.4958 -0.395176 3.21883 0
M  V30 950 H 85.2808 1.31441 3.69413 0
M  V30 951 H 86.7708 0.437015 4.15307 0
M  V30 952 N 87.2079 -1.17134 1.05439 0
M  V30 953 C 88.1549 -2.21235 0.657539 0
M  V30 954 C 89.1249 -1.62551 -0.341543 0
M  V30 955 O 90.3099 -1.89379 -0.232393 0
M  V30 956 C 87.4499 -3.45076 0.0410575 0
M  V30 957 C 86.5629 -4.18042 1.08927 0
M  V30 958 C 85.6979 -5.29376 0.439848 0
M  V30 959 C 84.7369 -5.94132 1.4722 0
M  V30 960 N 83.8739 -6.96975 0.846756 0
M  V30 961 H 88.7139 -2.54534 1.54972 0
M  V30 962 H 86.2509 -1.25028 0.775006 0
M  V30 963 H 88.2089 -4.15862 -0.33383 0
M  V30 964 H 86.8389 -3.12353 -0.814568 0
M  V30 965 H 85.8909 -3.45945 1.58196 0
M  V30 966 H 87.2029 -4.62306 1.87282 0
M  V30 967 H 86.3569 -6.06699 0.0115125 0
M  V30 968 H 85.0959 -4.86251 -0.375656 0
M  V30 969 H 84.1009 -5.15538 1.91052 0
M  V30 970 H 85.3259 -6.39337 2.28965 0
M  V30 971 H 83.2719 -6.5598 0.0518075 0
M  V30 972 H 83.1889 -7.39565 1.5678 0
M  V30 973 H 84.4569 -7.78239 0.443277 0
M  V30 974 N 88.686 -0.835752 -1.33615 0
M  V30 975 C 89.649 -0.272 -2.2758 0
M  V30 976 C 90.649 0.557487 -1.50827 0
M  V30 977 O 91.839 0.37173 -1.70188 0
M  V30 978 C 88.971 0.617173 -3.35267 0
M  V30 979 H 90.164 -1.10111 -2.78954 0
M  V30 980 H 87.717 -0.608594 -1.43965 0
M  V30 981 H 88.452 1.46884 -2.89129 0
M  V30 982 H 88.237 0.0237066 -3.92093 0
M  V30 983 H 89.727 1.005 -4.05326 0
M  V30 984 N 90.1641 1.46063 -0.591896 0
M  V30 985 C 91.4101 2.02638 -0.0811191 0
M  V30 986 C 91.7431 1.4613 1.27905 0
M  V30 987 O 91.0181 0.629908 1.84017 0
M  V30 988 C 91.3011 3.60091 -0.0252436 0
M  V30 989 C 91.1541 4.26965 -1.41496 0
M  V30 990 C 92.4731 4.3496 0.670685 0
M  V30 991 H 89.5921 0.73635 -0.0309524 0
M  V30 992 H 92.2341 1.741 -0.760859 0
M  V30 993 H 90.3841 3.84535 0.553624 0
M  V30 994 H 92.0561 4.13756 -2.0397 0
M  V30 995 H 90.2991 3.85971 -1.98011 0
M  V30 996 H 90.9701 5.35781 -1.32825 0
M  V30 997 H 93.4461 4.15716 0.178825 0
M  V30 998 H 92.3221 5.44686 0.678837 0
M  V30 999 H 92.5831 4.06685 1.73379 0
M  V30 1000 N 91.6422 0.330177 1.54103 0
M  V30 1001 C 93.0582 -0.0222371 1.59585 0
M  V30 1002 C 93.2582 -1.49902 1.34654 0
M  V30 1003 O 92.3142 -2.25592 1.13421 0
M  V30 1004 C 93.6272 0.401932 2.98002 0
M  V30 1005 C 95.1752 0.353145 3.11001 0
M  V30 1006 C 95.6502 0.752576 4.51775 0
M  V30 1007 N 97.1412 0.706239 4.57784 0
M  V30 1008 C 97.8762 0.987417 5.64834 0
M  V30 1009 N 97.3722 1.33607 6.79795 0
M  V30 1010 N 99.1652 0.91254 5.54643 0
M  V30 1011 H 91.3162 1.29228 1.68564 0
M  V30 1012 H 93.5792 0.525906 0.78875 0
M  V30 1013 H 93.2852 1.4311 3.21267 0
M  V30 1014 H 93.1592 -0.229699 3.765 0
M  V30 1015 H 95.5462 -0.666822 2.87467 0
M  V30 1016 H 95.6272 1.0198 2.34593 0
M  V30 1017 H 95.2712 1.77049 4.76042 0
M  V30 1018 H 95.2012 0.0635409 5.26562 0
M  V30 1019 H 97.6922 0.44889 3.75224 0
M  V30 1020 H 98.0052 1.53582 7.57385 0
M  V30 1021 H 96.3502 1.37439 6.81275 0
M  V30 1022 H 99.5412 0.639601 4.6371 0
M  V30 1023 H 99.7142 1.13503 6.37982 0
M  V30 1024 N 93.1203 -1.57491 0.0584922 0
M  V30 1025 C 94.0303 -2.15448 -0.928414 0
M  V30 1026 C 95.0463 -1.11416 -1.3365 0
M  V30 1027 O 96.2223 -1.4362 -1.41193 0
M  V30 1028 C 93.2873 -2.69393 -2.18239 0
M  V30 1029 C 92.3483 -3.88249 -1.83196 0
M  V30 1030 C 91.5813 -4.39613 -3.02616 0
M  V30 1031 O 91.8043 -3.90023 -4.16219 0
M  V30 1032 O 90.7383 -5.31111 -2.83204 0
M  V30 1033 H 94.5643 -3.00112 -0.465483 0
M  V30 1034 H 92.1493 -1.48499 -0.163826 0
M  V30 1035 H 94.0313 -3.04026 -2.91798 0
M  V30 1036 H 92.7063 -1.87796 -2.63656 0
M  V30 1037 H 91.6133 -3.58492 -1.06931 0
M  V30 1038 H 92.9463 -4.71098 -1.42573 0
M  V30 1039 N 94.5984 0.214957 -1.56127 0
M  V30 1040 C 95.5284 1.2695 -1.95974 0
M  V30 1041 C 96.5094 1.48539 -0.828868 0
M  V30 1042 O 97.6944 1.60611 -1.09168 0
M  V30 1043 C 94.8244 2.61794 -2.28214 0
M  V30 1044 C 93.7784 2.54851 -3.43853 0
M  V30 1045 C 93.1044 3.93785 -3.61715 0
M  V30 1046 C 94.4044 2.09065 -4.78632 0
M  V30 1047 H 96.0984 0.93846 -2.84312 0
M  V30 1048 H 93.6444 0.449996 -1.36788 0
M  V30 1049 H 95.5974 3.35731 -2.54682 0
M  V30 1050 H 94.3214 2.96599 -1.36736 0
M  V30 1051 H 92.9804 1.8337 -3.17444 0
M  V30 1052 H 92.6284 4.25908 -2.67602 0
M  V30 1053 H 92.3284 3.90019 -4.39498 0
M  V30 1054 H 93.8524 4.69374 -3.90539 0
M  V30 1055 H 95.2664 2.7275 -5.04262 0
M  V30 1056 H 93.6634 2.16346 -5.59745 0
M  V30 1057 H 94.7334 1.04315 -4.73547 0
M  V30 1058 N 96.0765 1.50051 0.48192 0
M  V30 1059 C 97.3015 1.64508 1.26301 0
M  V30 1060 C 97.7265 0.323851 1.85291 0
M  V30 1061 O 97.0845 -0.710969 1.66778 0
M  V30 1062 C 97.1325 2.7305 2.35533 0
M  V30 1063 O 96.2365 2.3355 3.39895 0
M  V30 1064 H 95.5775 0.549978 0.372048 0
M  V30 1065 H 98.1075 1.9636 0.574786 0
M  V30 1066 H 98.1175 2.95799 2.8101 0
M  V30 1067 H 96.7925 3.68946 1.91967 0
M  V30 1068 H 95.3695 2.21205 3.00204 0
M  V30 1069 N 97.5546 -0.734337 1.39446 0
M  V30 1070 C 98.8026 -1.49096 1.36436 0
M  V30 1071 C 99.1236 -1.94961 -0.0388255 0
M  V30 1072 O 98.3936 -1.69033 -0.990191 0
M  V30 1073 H 96.9736 -0.5531 0.502085 0
M  V30 1074 H 99.6356 -0.871725 1.74319 0
M  V30 1075 H 98.7316 -2.37276 2.02747 0
M  V30 1076 N 99.0327 -1.24633 -0.964593 0
M  V30 1077 C 100.279 -1.09957 -1.71117 0
M  V30 1078 C 100.634 0.357422 -1.89051 0
M  V30 1079 O 99.9267 1.26029 -1.44317 0
M  V30 1080 C 100.121 -1.7763 -3.10133 0
M  V30 1081 C 99.9497 -3.29759 -3.05759 0
M  V30 1082 C 98.7197 -3.98981 -3.10068 0
M  V30 1083 C 100.918 -4.26305 -2.87695 0
M  V30 1084 N 98.8997 -5.37966 -2.95747 0
M  V30 1085 C 100.271 -5.52308 -2.81702 0
M  V30 1086 C 102.326 -4.16842 -2.72299 0
M  V30 1087 C 101.029 -6.69931 -2.61887 0
M  V30 1088 C 103.055 -5.34147 -2.53853 0
M  V30 1089 C 102.417 -6.59084 -2.48572 0
M  V30 1090 H 98.5157 -0.457003 -0.634564 0
M  V30 1091 H 101.1 -1.57592 -1.14337 0
M  V30 1092 H 99.2707 -1.32504 -3.65099 0
M  V30 1093 H 101.003 -1.55786 -3.73514 0
M  V30 1094 H 97.7577 -3.50169 -3.18871 0
M  V30 1095 H 98.1817 -6.10877 -2.91818 0
M  V30 1096 H 102.824 -3.21007 -2.75163 0
M  V30 1097 H 100.542 -7.65886 -2.57767 0
M  V30 1098 H 104.128 -5.28678 -2.4288 0
M  V30 1099 H 103.008 -7.48324 -2.34481 0
M  V30 1100 N 100.511 1.16574 -1.06058 0
M  V30 1101 C 101.443 2.2045 -0.627239 0
M  V30 1102 C 102.456 1.59752 0.313534 0
M  V30 1103 O 103.645 1.78192 0.104896 0
M  V30 1104 C 100.745 3.3875 0.100974 0
M  V30 1105 C 99.9178 4.29008 -0.852687 0
M  V30 1106 C 98.9768 5.25944 -0.164152 0
M  V30 1107 O 98.0028 5.63535 -0.801047 0
M  V30 1108 N 99.2048 5.70075 1.09518 0
M  V30 1109 H 101.97 2.58249 -1.52077 0
M  V30 1110 H 99.5308 1.3156 -0.943594 0
M  V30 1111 H 101.523 4.00638 0.57194 0
M  V30 1112 H 100.093 2.99476 0.89628 0
M  V30 1113 H 99.3128 3.64419 -1.50308 0
M  V30 1114 H 100.601 4.86195 -1.49972 0
M  V30 1115 H 99.9988 5.41624 1.6328 0
M  V30 1116 H 98.5558 6.34067 1.51006 0
M  V30 1117 N 101.989 0.842826 1.3317 0
M  V30 1118 C 103.219 0.453397 2.01564 0
M  V30 1119 C 103.627 -0.951147 1.63554 0
M  V30 1120 O 102.97 -1.63021 0.846746 0
M  V30 1121 C 103.032 0.499013 3.5602 0
M  V30 1122 C 102.696 1.86037 4.1742 0
M  V30 1123 C 103.693 2.82416 4.36506 0
M  V30 1124 C 101.378 2.15428 4.53757 0
M  V30 1125 C 103.372 4.06346 4.91082 0
M  V30 1126 C 101.059 3.39615 5.0804 0
M  V30 1127 C 102.057 4.3489 5.26649 0
M  V30 1128 O 101.745 5.5688 5.79776 0
M  V30 1129 H 101.477 0.177871 0.652179 0
M  V30 1130 H 104.031 1.13808 1.70988 0
M  V30 1131 H 102.261 -0.242467 3.85939 0
M  V30 1132 H 103.95 0.126852 4.05702 0
M  V30 1133 H 104.716 2.6101 4.08777 0
M  V30 1134 H 100.595 1.42061 4.38565 0
M  V30 1135 H 104.139 4.80722 5.05522 0
M  V30 1136 H 100.036 3.60876 5.352 0
M  V30 1137 H 100.804 5.58674 5.98185 0
M  V30 1138 N 103.467 -1.45747 0.599634 0
M  V30 1139 C 104.713 -2.02592 0.0918643 0
M  V30 1140 C 105.046 -1.46806 -1.27128 0
M  V30 1141 O 104.321 -0.639658 -1.83681 0
M  V30 1142 C 104.604 -3.60073 0.0443398 0
M  V30 1143 C 104.457 -4.26208 1.43759 0
M  V30 1144 C 105.776 -4.35309 -0.647608 0
M  V30 1145 H 102.895 -0.736175 0.034857 0
M  V30 1146 H 105.537 -1.73694 0.770081 0
M  V30 1147 H 103.687 -3.84823 -0.533224 0
M  V30 1148 H 105.359 -4.12668 2.06162 0
M  V30 1149 H 103.602 -3.84916 2.00056 0
M  V30 1150 H 104.273 -5.35069 1.35665 0
M  V30 1151 H 106.749 -4.15805 -0.156776 0
M  V30 1152 H 105.625 -5.45038 -0.649942 0
M  V30 1153 H 105.886 -4.07598 -1.71219 0
M  V30 1154 N 104.945 -0.338344 -1.53925 0
M  V30 1155 C 106.356 0.146651 -1.86123 0
M  V30 1156 C 106.707 1.5042 -1.2597 0
M  V30 1157 O 105.832 2.08723 -0.571294 0
M  V30 1158 C 106.427 0.272879 -3.37699 0
M  V30 1159 C 104.986 0.702103 -3.69794 0
M  V30 1160 C 104.133 -0.167304 -2.76795 0
M  V30 1161 H 107.084 -0.558123 -1.48562 0
M  V30 1162 H 107.105 1.10128 -3.64214 0
M  V30 1163 H 106.617 -0.715307 -3.81451 0
M  V30 1164 H 104.718 1.6995 -3.31584 0
M  V30 1165 H 104.831 0.495604 -4.7653 0
M  V30 1166 H 103.195 0.359527 -2.5215 0
M  V30 1167 H 103.978 -1.15253 -3.23375 0
M  V30 1168 N 106.423 1.57458 -0.0668435 0
M  V30 1169 C 107.669 1.93587 0.6043 0
M  V30 1170 C 108.002 0.946722 1.69561 0
M  V30 1171 O 107.277 -0.0248516 1.94484 0
M  V30 1172 C 107.56 3.40014 1.18585 0
M  V30 1173 C 107.413 4.49685 0.101529 0
M  V30 1174 C 108.732 3.87154 2.09284 0
M  V30 1175 H 105.851 0.703958 0.218202 0
M  V30 1176 H 108.493 1.89542 -0.131804 0
M  V30 1177 H 106.643 3.43592 1.81319 0
M  V30 1178 H 108.315 4.5823 -0.531279 0
M  V30 1179 H 106.558 4.30059 -0.568487 0
M  V30 1180 H 107.229 5.49266 0.54874 0
M  V30 1181 H 109.705 3.85551 1.56491 0
M  V30 1182 H 108.581 4.90231 2.46911 0
M  V30 1183 H 108.842 3.2481 2.99918 0
M  V30 1184 N 107.901 -0.206675 1.56239 0
M  V30 1185 C 109.129 -0.945345 1.8404 0
M  V30 1186 C 109.544 -1.77336 0.647885 0
M  V30 1187 O 108.901 -1.78425 -0.383511 0
M  V30 1188 C 108.952 -1.8509 3.10522 0
M  V30 1189 O 108.673 -1.05634 4.25174 0
M  V30 1190 C 110.174 -2.70222 3.51418 0
M  V30 1191 H 107.394 -0.276372 0.61144 0
M  V30 1192 H 109.938 -0.217417 2.03341 0
M  V30 1193 H 108.093 -2.53259 2.93153 0
M  V30 1194 H 108.507 -1.67238 4.97124 0
M  V30 1195 H 109.981 -3.29438 4.42916 0
M  V30 1196 H 110.458 -3.43358 2.73864 0
M  V30 1197 H 111.064 -2.07443 3.71278 0
M  V30 1198 N 109.379 -1.50304 -0.473955 0
M  V30 1199 C 110.619 -1.62786 -1.23612 0
M  V30 1200 C 110.983 -0.319786 -1.89318 0
M  V30 1201 O 112.184 -0.320012 -2.66888 0
M  V30 1202 C 110.455 -2.77351 -2.25414 0
M  V30 1203 S 112.014 -3.09948 -3.10608 0
M  V30 1204 H 108.832 -0.573895 -0.419721 0
M  V30 1205 H 111.434 -1.88076 -0.533623 0
M  V30 1206 H 110.138 -3.70879 -1.75719 0
M  V30 1207 H 109.669 -2.54137 -3.00296 0
M  V30 1208 H 111.684 -2.53553 -4.26527 0
M  V30 1209 N 110.857 0.726932 -1.39834 0
M  V30 1210 C 111.79 1.8501 -1.33592 0
M  V30 1211 C 112.768 1.61262 -0.208191 0
M  V30 1212 O 113.952 1.84422 -0.389981 0
M  V30 1213 C 111.079 3.21143 -1.07633 0
M  V30 1214 C 110.125 3.63737 -2.22705 0
M  V30 1215 S 110.958 3.72167 -3.85035 0
M  V30 1216 C 112.114 5.11077 -3.61318 0
M  V30 1217 H 112.347 1.90022 -2.28646 0
M  V30 1218 H 109.88 0.892595 -1.25985 0
M  V30 1219 H 111.838 3.99747 -0.933415 0
M  V30 1220 H 110.499 3.13776 -0.142526 0
M  V30 1221 H 109.692 4.62551 -2.00155 0
M  V30 1222 H 109.294 2.9236 -2.33242 0
M  V30 1223 H 111.586 5.97656 -3.19083 0
M  V30 1224 H 112.529 5.38658 -4.59623 0
M  V30 1225 H 112.937 4.81135 -2.95245 0
M  V30 1226 N 112.336 1.25143 0.95797 0
M  V30 1227 C 113.268 1.01023 2.05735 0
M  V30 1228 C 114.281 -0.0236902 1.62783 0
M  V30 1229 O 115.47 0.21448 1.77207 0
M  V30 1230 C 112.57 0.504595 3.35122 0
M  V30 1231 C 111.743 1.6039 4.06932 0
M  V30 1232 C 110.802 1.09922 5.14591 0
M  V30 1233 O 109.828 1.79293 5.40225 0
M  V30 1234 N 111.03 -0.0612545 5.80468 0
M  V30 1235 H 113.795 1.95683 2.26998 0
M  V30 1236 H 111.356 1.16303 1.12629 0
M  V30 1237 H 113.348 0.151516 4.04416 0
M  V30 1238 H 111.918 -0.347989 3.10657 0
M  V30 1239 H 111.138 2.12872 3.31782 0
M  V30 1240 H 112.426 2.34252 4.51667 0
M  V30 1241 H 111.824 -0.640985 5.62057 0
M  V30 1242 H 110.381 -0.355395 6.5083 0
M  V30 1243 N 113.814 -1.1601 1.06675 0
M  V30 1244 C 114.724 -2.24156 0.692179 0
M  V30 1245 C 115.74 -1.71507 -0.293513 0
M  V30 1246 O 116.916 -2.009 -0.141861 0
M  V30 1247 C 113.981 -3.46587 0.0884131 0
M  V30 1248 C 113.042 -4.14257 1.12646 0
M  V30 1249 C 112.275 -5.30844 0.551416 0
M  V30 1250 O 112.498 -5.66858 -0.634656 0
M  V30 1251 O 111.432 -5.87848 1.29298 0
M  V30 1252 H 115.258 -2.58513 1.59388 0
M  V30 1253 H 112.843 -1.23599 0.83926 0
M  V30 1254 H 114.725 -4.20679 -0.246361 0
M  V30 1255 H 113.4 -3.13994 -0.786712 0
M  V30 1256 H 112.307 -3.42118 1.51348 0
M  V30 1257 H 113.64 -4.50914 1.97325 0
M  V30 1258 N 115.292 -0.849877 -1.32721 0
M  V30 1259 C 116.225 -0.235903 -2.26977 0
M  V30 1260 C 117.203 0.623355 -1.50177 0
M  V30 1261 O 118.387 0.581207 -1.79316 0
M  V30 1262 C 115.514 0.667712 -3.32053 0
M  V30 1263 C 114.56 -0.11753 -4.26338 0
M  V30 1264 S 115.393 -1.48277 -5.14562 0
M  V30 1265 C 116.549 -0.584741 -6.23163 0
M  V30 1266 H 116.782 -1.03495 -2.78704 0
M  V30 1267 H 114.315 -0.64724 -1.40179 0
M  V30 1268 H 116.273 1.18343 -3.93072 0
M  V30 1269 H 114.934 1.44052 -2.7912 0
M  V30 1270 H 114.127 0.57051 -5.00761 0
M  V30 1271 H 113.729 -0.564668 -3.69713 0
M  V30 1272 H 116.021 0.212968 -6.77165 0
M  V30 1273 H 116.964 -1.29947 -6.96074 0
M  V30 1274 H 117.372 -0.161202 -5.6427 0
M  V30 1275 N 116.77 1.45427 -0.607355 0
M  V30 1276 C 118.047 1.9557 -0.0344566 0
M  V30 1277 C 118.427 1.54979 1.43334 0
M  V30 1278 O 117.775 0.812241 2.13576 0
M  V30 1279 C 117.985 3.48226 -0.232321 0
M  V30 1280 C 119.333 4.2445 -0.113001 0
M  V30 1281 O 120.357 3.55829 -0.162431 0
M  V30 1282 O 119.216 5.465 0.00209442 0
M  V30 1283 H 116.31 0.826222 0.0358667 0
M  V30 1284 H 118.856 1.55594 -0.6774 0
M  V30 1285 H 117.628 3.70739 -1.25174 0
M  V30 1286 H 117.251 3.95092 0.445896 0
M  V30 1287 N 118.248 0.346503 1.53744 0
M  V30 1288 C 119.494 -0.249473 2.0126 0
M  V30 1289 C 119.827 -1.49965 1.23386 0
M  V30 1290 O 119.102 -1.91811 0.32229 0
M  V30 1291 C 119.385 -0.560643 3.55709 0
M  V30 1292 C 119.238 0.701836 4.44291 0
M  V30 1293 C 120.557 -1.36905 4.18264 0
M  V30 1294 H 117.676 -0.0891987 0.731582 0
M  V30 1295 H 120.318 0.467624 1.84156 0
M  V30 1296 H 118.468 -1.17156 3.70414 0
M  V30 1297 H 120.14 1.33974 4.41417 0
M  V30 1298 H 118.383 1.32612 4.13033 0
M  V30 1299 H 119.054 0.43933 5.50249 0
M  V30 1300 H 121.53 -0.852448 4.07275 0
M  V30 1301 H 120.406 -1.55553 5.26398 0
M  V30 1302 H 120.667 -2.37203 3.73078 0
M  V30 1303 N 119.726 -1.57421 0.075193 0
M  V30 1304 C 120.954 -1.97946 -0.602076 0
M  V30 1305 C 121.369 -0.953674 -1.62943 0
M  V30 1306 O 120.726 0.0592551 -1.82404 0
M  V30 1307 C 120.777 -3.38546 -1.26762 0
M  V30 1308 O 120.498 -4.37195 -0.281376 0
M  V30 1309 C 121.999 -3.93966 -2.03239 0
M  V30 1310 H 119.219 -0.650918 -0.162931 0
M  V30 1311 H 121.763 -2.03959 0.148601 0
M  V30 1312 H 119.918 -3.33609 -1.96936 0
M  V30 1313 H 120.332 -5.18975 -0.759267 0
M  V30 1314 H 121.806 -4.94555 -2.45193 0
M  V30 1315 H 122.283 -3.30693 -2.8903 0
M  V30 1316 H 122.889 -4.02315 -1.37924 0
M  V30 1317 N 121.204 0.198386 -1.56346 0
M  V30 1318 C 122.452 0.91747 -1.80075 0
M  V30 1319 C 122.773 1.83929 -0.647692 0
M  V30 1320 O 122.043 1.93029 0.334166 0
M  V30 1321 H 120.623 0.341774 -0.664228 0
M  V30 1322 H 123.285 0.204684 -1.93822 0
M  V30 1323 H 122.381 1.51055 -2.7311 0
M  V30 1324 N 122.682 1.50554 0.465978 0
M  V30 1325 C 123.93 1.61479 1.21528 0
M  V30 1326 C 124.251 0.319596 1.92363 0
M  V30 1327 O 123.521 -0.663194 1.84333 0
M  V30 1328 H 122.101 0.595055 0.451573 0
M  V30 1329 H 124.763 1.87355 0.53704 0
M  V30 1330 H 123.859 2.42846 1.96042 0
M  V30 1331 N 124.16 -0.719506 1.40217 0
M  V30 1332 C 125.09 -1.8465 1.42922 0
M  V30 1333 C 126.071 -1.67599 0.29062 0
M  V30 1334 O 127.256 -1.87688 0.498677 0
M  V30 1335 C 124.386 -3.22565 1.28722 0
M  V30 1336 C 123.34 -3.54281 2.40144 0
M  V30 1337 C 122.666 -4.91298 2.11023 0
M  V30 1338 C 123.966 -3.55676 3.82481 0
M  V30 1339 H 125.66 -1.82644 2.37237 0
M  V30 1340 H 123.206 -0.877305 1.1419 0
M  V30 1341 H 125.159 -4.01095 1.29232 0
M  V30 1342 H 123.883 -3.25137 0.308811 0
M  V30 1343 H 122.542 -2.78088 2.38877 0
M  V30 1344 H 122.19 -4.90468 1.11582 0
M  V30 1345 H 121.89 -5.13485 2.8567 0
M  V30 1346 H 123.414 -5.72166 2.13209 0
M  V30 1347 H 124.828 -4.24254 3.85592 0
M  V30 1348 H 123.225 -3.89388 4.56614 0
M  V30 1349 H 124.295 -2.55144 4.12346 0
M  V30 1350 N 125.638 -1.25649 -0.95132 0
M  V30 1351 C 126.585 -1.06323 -2.04851 0
M  V30 1352 C 127.555 0.0286491 -1.66075 0
M  V30 1353 O 128.74 -0.12917 -1.90362 0
M  V30 1354 C 125.88 -0.691529 -3.381 0
M  V30 1355 C 124.993 -1.85861 -3.89974 0
M  V30 1356 C 124.128 -1.43096 -5.11563 0
M  V30 1357 C 123.167 -2.56696 -5.55674 0
M  V30 1358 N 122.304 -2.14684 -6.68472 0
M  V30 1359 H 127.144 -2.00222 -2.20715 0
M  V30 1360 H 124.681 -0.997027 -1.08156 0
M  V30 1361 H 126.639 -0.456963 -4.1469 0
M  V30 1362 H 125.269 0.210474 -3.22113 0
M  V30 1363 H 124.321 -2.20639 -3.09875 0
M  V30 1364 H 125.633 -2.71161 -4.18657 0
M  V30 1365 H 124.787 -1.15624 -5.9558 0
M  V30 1366 H 123.526 -0.548722 -4.84603 0
M  V30 1367 H 122.531 -2.84909 -4.7022 0
M  V30 1368 H 123.756 -3.45503 -5.8464 0
M  V30 1369 H 121.702 -1.28881 -6.43215 0
M  V30 1370 H 121.619 -2.9353 -6.96689 0
M  V30 1371 H 122.887 -1.90397 -7.5589 0
M  V30 1372 N 127.117 1.15442 -1.07289 0
M  V30 1373 C 128.064 2.20161 -0.692653 0
M  V30 1374 C 129.034 1.63073 0.31564 0
M  V30 1375 O 130.219 1.89725 0.202235 0
M  V30 1376 C 127.359 3.44967 -0.0959509 0
M  V30 1377 C 126.472 4.16256 -1.15564 0
M  V30 1378 C 125.607 5.28609 -0.524011 0
M  V30 1379 C 124.646 5.91715 -1.56653 0
M  V30 1380 N 123.783 6.9554 -0.957531 0
M  V30 1381 H 128.623 2.52037 -1.59002 0
M  V30 1382 H 126.16 1.2378 -0.794798 0
M  V30 1383 H 128.118 4.16341 0.267628 0
M  V30 1384 H 126.748 3.1361 0.764772 0
M  V30 1385 H 125.8 3.43385 -1.6368 0
M  V30 1386 H 127.112 4.59268 -1.94613 0
M  V30 1387 H 126.266 6.06604 -0.108032 0
M  V30 1388 H 125.005 4.86787 0.29825 0
M  V30 1389 H 124.01 5.12433 -1.9923 0
M  V30 1390 H 125.235 6.35614 -2.39107 0
M  V30 1391 H 123.181 6.55814 -0.156162 0
M  V30 1392 H 123.098 7.36977 -1.68526 0
M  V30 1393 H 124.366 7.77435 -0.567032 0
M  V30 1394 N 128.595 0.856903 1.32268 0
M  V30 1395 C 129.835 0.467705 1.98977 0
M  V30 1396 C 130.199 -0.959231 1.66321 0
M  V30 1397 O 131.4 -1.4531 2.26138 0
M  V30 1398 C 129.671 0.70256 3.50427 0
M  V30 1399 S 131.23 0.411269 4.36868 0
M  V30 1400 H 128.048 0.175121 0.689096 0
M  V30 1401 H 130.65 1.1101 1.60925 0
M  V30 1402 H 129.354 1.74012 3.71683 0
M  V30 1403 H 128.885 0.0466707 3.93372 0
M  V30 1404 H 130.9 -0.761799 4.90317 0
M  V30 1405 N 130.073 -1.45103 0.615059 0
M  V30 1406 C 131.322 -2.01396 0.110718 0
M  V30 1407 C 131.635 -1.48834 -1.26916 0
M  V30 1408 O 132.841 -1.97152 -1.86664 0
M  V30 1409 C 131.297 -3.59599 0.14723 0
M  V30 1410 C 130.905 -4.21158 1.52743 0
M  V30 1411 C 132.649 -4.23428 -0.30148 0
M  V30 1412 C 130.556 -5.71535 1.51992 0
M  V30 1413 H 129.486 -0.753061 0.0376241 0
M  V30 1414 H 132.137 -1.66494 0.77149 0
M  V30 1415 H 130.519 -3.91724 -0.580339 0
M  V30 1416 H 131.693 -4.00594 2.2773 0
M  V30 1417 H 130.008 -3.69552 1.91886 0
M  V30 1418 H 132.605 -5.33703 -0.326392 0
M  V30 1419 H 132.948 -3.94629 -1.32565 0
M  V30 1420 H 133.481 -3.96047 0.373065 0
M  V30 1421 H 130.22 -6.05044 2.52193 0
M  V30 1422 H 129.74 -5.94268 0.81274 0
M  V30 1423 H 131.419 -6.34873 1.24681 0
M  V30 1424 N 131.551 -0.354651 -1.53558 0
M  V30 1425 C 132.967 -0.00315426 -1.596 0
M  V30 1426 C 133.167 1.47741 -1.37021 0
M  V30 1427 O 132.223 2.23759 -1.16996 0
M  V30 1428 C 133.536 -0.44929 -2.97325 0
M  V30 1429 C 135.084 -0.402578 -3.104 0
M  V30 1430 C 135.559 -0.824355 -4.5052 0
M  V30 1431 N 137.05 -0.778979 -4.56603 0
M  V30 1432 C 137.785 -1.07715 -5.63192 0
M  V30 1433 N 137.281 -1.44405 -6.77583 0
M  V30 1434 N 139.074 -1.00066 -5.53121 0
M  V30 1435 H 131.225 -1.31893 -1.66487 0
M  V30 1436 H 133.488 -0.538388 -0.780284 0
M  V30 1437 H 133.194 -1.48202 -3.1895 0
M  V30 1438 H 133.068 0.169772 -3.76818 0
M  V30 1439 H 135.455 0.621004 -2.88492 0
M  V30 1440 H 135.536 -1.05699 -2.32941 0
M  V30 1441 H 135.18 -1.846 -4.73165 0
M  V30 1442 H 135.11 -0.147304 -5.26394 0
M  V30 1443 H 137.601 -0.508528 -3.74463 0
M  V30 1444 H 137.914 -1.65612 -7.54846 0
M  V30 1445 H 136.259 -1.4826 -6.79002 0
M  V30 1446 H 139.45 -0.713293 -4.62633 0
M  V30 1447 H 139.623 -1.23638 -6.36096 0
M  V30 1448 N 133.029 1.57378 -0.0835403 0
M  V30 1449 C 134.275 1.94217 0.583733 0
M  V30 1450 C 134.608 0.964653 1.68547 0
M  V30 1451 O 133.883 -0.00422258 1.945 0
M  V30 1452 C 134.166 3.41253 1.14972 0
M  V30 1453 C 134.019 4.49768 0.0538277 0
M  V30 1454 C 135.338 3.89352 2.05166 0
M  V30 1455 H 132.457 0.706233 0.210724 0
M  V30 1456 H 135.099 1.89392 -0.1519 0
M  V30 1457 H 133.249 3.45496 1.77665 0
M  V30 1458 H 134.921 4.57641 -0.579851 0
M  V30 1459 H 133.164 4.29432 -0.614068 0
M  V30 1460 H 133.835 5.49817 0.490452 0
M  V30 1461 H 136.311 3.87189 1.52393 0
M  V30 1462 H 135.187 4.92822 2.41698 0
M  V30 1463 H 135.448 3.27973 2.96456 0
M  V30 1464 N 134.507 -0.190092 1.56449 0
M  V30 1465 C 135.44 -1.26375 1.90012 0
M  V30 1466 C 136.418 -1.43705 0.760765 0
M  V30 1467 O 137.602 -1.59014 1.01226 0
M  V30 1468 C 134.729 -2.62962 2.13468 0
M  V30 1469 C 133.775 -2.62474 3.36169 0
M  V30 1470 S 134.608 -2.13412 4.91137 0
M  V30 1471 C 135.764 -3.51812 5.17667 0
M  V30 1472 H 135.997 -0.977181 2.80782 0
M  V30 1473 H 133.53 -0.393814 1.49293 0
M  V30 1474 H 135.488 -3.41583 2.27664 0
M  V30 1475 H 134.149 -2.88828 1.23439 0
M  V30 1476 H 133.342 -3.62918 3.49723 0
M  V30 1477 H 132.944 -1.91937 3.20992 0
M  V30 1478 H 135.236 -4.47706 5.08494 0
M  V30 1479 H 136.179 -3.43148 6.19399 0
M  V30 1480 H 136.587 -3.46956 4.45288 0
M  V30 1481 N 135.985 -1.50799 -0.457987 0
M  V30 1482 C 136.918 -1.65273 -1.57353 0
M  V30 1483 C 137.896 -0.500578 -1.54703 0
M  V30 1484 O 139.08 -0.721781 -1.74134 0
M  V30 1485 C 136.207 -1.64737 -2.95938 0
M  V30 1486 C 135.253 -2.8567 -3.16693 0
M  V30 1487 S 136.086 -4.46791 -2.95191 0
M  V30 1488 C 137.242 -4.48968 -4.36095 0
M  V30 1489 H 137.475 -2.59633 -1.44838 0
M  V30 1490 H 135.008 -1.40225 -0.64625 0
M  V30 1491 H 136.966 -1.65112 -3.7583 0
M  V30 1492 H 135.627 -0.715899 -3.05833 0
M  V30 1493 H 134.82 -2.81637 -4.17967 0
M  V30 1494 H 134.422 -2.8293 -2.44594 0
M  V30 1495 H 136.714 -4.23337 -5.28954 0
M  V30 1496 H 137.657 -5.50664 -4.45168 0
M  V30 1497 H 138.065 -3.78522 -4.18786 0
M  V30 1498 N 137.463 0.71206 -1.40597 0
M  V30 1499 C 138.691 1.50111 -1.42388 0
M  V30 1500 C 139.106 1.88784 -0.0245395 0
M  V30 1501 O 138.463 1.55681 0.952351 0
M  V30 1502 C 138.514 2.7742 -2.31776 0
M  V30 1503 O 138.235 2.40382 -3.66262 0
M  V30 1504 C 139.736 3.7129 -2.42196 0
M  V30 1505 H 136.956 0.46314 -0.485533 0
M  V30 1506 H 139.5 0.878068 -1.8469 0
M  V30 1507 H 137.655 3.36001 -1.92827 0
M  V30 1508 H 138.069 3.22324 -4.13772 0
M  V30 1509 H 139.543 4.57448 -3.08943 0
M  V30 1510 H 140.02 4.14641 -1.44809 0
M  V30 1511 H 140.626 3.18619 -2.81712 0
M  V30 1512 N 138.941 1.26152 0.944643 0
M  V30 1513 C 140.187 1.11657 1.69294 0
M  V30 1514 C 140.52 -0.339926 1.91202 0
M  V30 1515 O 139.795 -1.24994 1.49019 0
M  V30 1516 C 140.078 1.88236 3.06984 0
M  V30 1517 C 139.931 3.41772 2.92424 0
M  V30 1518 C 141.25 1.67343 4.07043 0
M  V30 1519 H 138.369 0.407004 0.614424 0
M  V30 1520 H 141.011 1.55106 1.09737 0
M  V30 1521 H 139.161 1.51308 3.57824 0
M  V30 1522 H 140.833 3.88433 2.48832 0
M  V30 1523 H 139.076 3.68974 2.28124 0
M  V30 1524 H 139.747 3.90579 3.90067 0
M  V30 1525 H 142.223 1.99509 3.65151 0
M  V30 1526 H 141.099 2.23346 5.01406 0
M  V30 1527 H 141.36 0.617158 4.37771 0
M  V30 1528 N 140.419 -1.14872 1.07899 0
M  V30 1529 C 141.351 -2.19425 0.662231 0
M  V30 1530 C 142.364 -1.60231 -0.288079 0
M  V30 1531 O 143.553 -1.78336 -0.076534 0
M  V30 1532 C 140.653 -3.38867 -0.0470695 0
M  V30 1533 C 139.826 -4.27597 0.920831 0
M  V30 1534 C 138.885 -5.25616 0.247805 0
M  V30 1535 O 137.911 -5.62189 0.890599 0
M  V30 1536 N 139.113 -5.71746 -1.00435 0
M  V30 1537 H 141.878 -2.55797 1.56166 0
M  V30 1538 H 139.439 -1.30042 0.964404 0
M  V30 1539 H 141.431 -4.01497 -0.50813 0
M  V30 1540 H 140.001 -3.00864 -0.848523 0
M  V30 1541 H 139.221 -3.61982 1.56087 0
M  V30 1542 H 140.509 -4.83748 1.57688 0
M  V30 1543 H 139.907 -5.44153 -1.54642 0
M  V30 1544 H 138.464 -6.36389 -1.40899 0
M  V30 1545 N 141.898 -0.863906 -1.31812 0
M  V30 1546 C 143.126 -0.486111 -2.01108 0
M  V30 1547 C 143.541 0.919755 -1.64882 0
M  V30 1548 O 142.898 1.60162 -0.874893 0
M  V30 1549 C 142.949 -0.626435 -3.56031 0
M  V30 1550 O 142.67 -1.97693 -3.90959 0
M  V30 1551 C 144.171 -0.248857 -4.42601 0
M  V30 1552 H 141.391 -0.190052 -0.643523 0
M  V30 1553 H 143.935 -1.1634 -1.68182 0
M  V30 1554 H 142.09 0.00322717 -3.874 0
M  V30 1555 H 142.504 -1.98034 -4.85678 0
M  V30 1556 H 143.978 -0.398016 -5.50563 0
M  V30 1557 H 144.455 0.811489 -4.31638 0
M  V30 1558 H 145.061 -0.853971 -4.16638 0
M  V30 1559 N 143.376 1.44774 -0.622745 0
M  V30 1560 C 144.653 1.95522 -0.0551974 0
M  V30 1561 C 145.033 1.5649 1.41683 0
M  V30 1562 O 144.381 0.834848 2.12703 0
M  V30 1563 C 144.591 3.4796 -0.269242 0
M  V30 1564 C 145.939 4.24306 -0.158014 0
M  V30 1565 O 146.963 3.55637 -0.200162 0
M  V30 1566 O 145.822 5.46471 -0.0558693 0
M  V30 1567 H 142.916 0.826556 0.0271015 0
M  V30 1568 H 145.462 1.54866 -0.693864 0
M  V30 1569 H 144.234 3.6939 -1.29099 0
M  V30 1570 H 143.857 3.95543 0.403966 0
M  V30 1571 N 144.854 0.36279 1.53368 0
M  V30 1572 C 146.1 -0.228113 2.01513 0
M  V30 1573 C 146.433 -1.48648 1.2497 0
M  V30 1574 O 145.708 -1.91459 0.342616 0
M  V30 1575 C 145.991 -0.522884 3.56284 0
M  V30 1576 C 145.844 0.74892 4.43521 0
M  V30 1577 C 147.163 -1.32461 4.19693 0
M  V30 1578 H 144.282 -0.0814343 0.732487 0
M  V30 1579 H 146.924 0.48713 1.83649 0
M  V30 1580 H 145.074 -1.1322 3.71636 0
M  V30 1581 H 146.746 1.38648 4.39971 0
M  V30 1582 H 144.989 1.36986 4.11603 0
M  V30 1583 H 145.66 0.497667 5.49752 0
M  V30 1584 H 148.136 -0.809203 4.08156 0
M  V30 1585 H 147.012 -1.49961 5.28018 0
M  V30 1586 H 147.273 -2.33232 3.75573 0
M  V30 1587 N 146.332 -1.57332 0.0918853 0
M  V30 1588 C 147.743 -1.81496 -0.437739 0
M  V30 1589 C 148.094 -1.00727 -1.6837 0
M  V30 1590 O 147.219 -0.235694 -2.15113 0
M  V30 1591 C 147.814 -3.29197 -0.800939 0
M  V30 1592 C 146.373 -3.54136 -1.27532 0
M  V30 1593 C 145.52 -2.75979 -0.270392 0
M  V30 1594 H 148.471 -1.55494 0.317366 0
M  V30 1595 H 148.492 -3.42344 -1.66074 0
M  V30 1596 H 148.004 -3.87955 0.106078 0
M  V30 1597 H 146.105 -3.00705 -2.20016 0
M  V30 1598 H 146.218 -4.62792 -1.23938 0
M  V30 1599 H 144.582 -2.43349 -0.751872 0
M  V30 1600 H 145.365 -3.37484 0.629248 0
M  V30 1601 N 147.81 0.181792 -1.56548 0
M  V30 1602 C 148.742 1.24956 -1.92142 0
M  V30 1603 C 149.755 1.41022 -0.813422 0
M  V30 1604 O 150.944 1.41212 -1.09186 0
M  V30 1605 C 148.044 2.61981 -2.14987 0
M  V30 1606 C 147.217 2.6735 -3.46183 0
M  V30 1607 C 146.276 3.85664 -3.5798 0
M  V30 1608 O 145.302 3.72148 -4.30691 0
M  V30 1609 N 146.504 5.01683 -2.92053 0
M  V30 1610 H 149.269 0.947329 -2.84334 0
M  V30 1611 H 146.83 0.371629 -1.57577 0
M  V30 1612 H 148.822 3.3958 -2.20154 0
M  V30 1613 H 147.392 2.84637 -1.2923 0
M  V30 1614 H 146.612 1.75925 -3.52766 0
M  V30 1615 H 147.9 2.67939 -4.32534 0
M  V30 1616 H 147.298 5.15564 -2.32832 0
M  V30 1617 H 145.855 5.77181 -3.0283 0
M  V30 1618 N 149.288 1.51039 0.449983 0
M  V30 1619 C 150.565 1.53612 1.21089 0
M  V30 1620 C 150.945 0.292997 2.09057 0
M  V30 1621 O 150.293 -0.72259 2.16774 0
M  V30 1622 C 150.503 2.84337 2.0237 0
M  V30 1623 C 151.851 3.35807 2.59843 0
M  V30 1624 O 152.875 2.85802 2.12593 0
M  V30 1625 O 151.734 4.23029 3.45989 0
M  V30 1626 H 148.828 0.617057 0.550608 0
M  V30 1627 H 151.374 1.63344 0.460082 0
M  V30 1628 H 150.146 3.66278 1.37681 0
M  V30 1629 H 149.769 2.77708 2.84542 0
M  V30 1630 N 150.766 -0.704594 1.40972 0
M  V30 1631 C 151.698 -1.82974 1.38033 0
M  V30 1632 C 152.711 -1.60305 0.283931 0
M  V30 1633 O 153.9 -1.69975 0.545042 0
M  V30 1634 C 151 -3.19578 1.12795 0
M  V30 1635 C 150.173 -3.69352 2.34302 0
M  V30 1636 C 149.232 -4.84601 2.05058 0
M  V30 1637 O 148.258 -4.96682 2.7802 0
M  V30 1638 N 149.46 -5.71194 1.03528 0
M  V30 1639 H 152.225 -1.85991 2.35005 0
M  V30 1640 H 149.786 -0.886567 1.35468 0
M  V30 1641 H 151.778 -3.9429 0.911987 0
M  V30 1642 H 150.348 -3.11642 0.24452 0
M  V30 1643 H 149.568 -2.85649 2.71659 0
M  V30 1644 H 150.856 -3.99345 3.1528 0
M  V30 1645 H 150.254 -5.64054 0.431217 0
M  V30 1646 H 148.811 -6.45843 0.879205 0
M  V30 1647 N 152.244 -1.26651 -0.937939 0
M  V30 1648 C 153.493 -1.11775 -1.67897 0
M  V30 1649 C 153.806 0.33794 -1.92659 0
M  V30 1650 O 155.012 0.607434 -2.64618 0
M  V30 1651 C 153.468 -1.9523 -3.02346 0
M  V30 1652 C 153.076 -3.45393 -2.8532 0
M  V30 1653 C 154.82 -1.88972 -3.80118 0
M  V30 1654 C 152.727 -4.21083 -4.15263 0
M  V30 1655 H 151.657 -0.414696 -0.629717 0
M  V30 1656 H 154.308 -1.50988 -1.04283 0
M  V30 1657 H 152.69 -1.48853 -3.66959 0
M  V30 1658 H 153.864 -3.99561 -2.29537 0
M  V30 1659 H 152.179 -3.52921 -2.20988 0
M  V30 1660 H 154.776 -2.42805 -4.76392 0
M  V30 1661 H 155.119 -0.86113 -4.07296 0
M  V30 1662 H 155.652 -2.33189 -3.22285 0
M  V30 1663 H 152.391 -5.24425 -3.93267 0
M  V30 1664 H 151.911 -3.71695 -4.70747 0
M  V30 1665 H 153.59 -4.29706 -4.83696 0
M  V30 1666 N 153.722 1.14298 -1.08507 0
M  V30 1667 C 155.138 1.37347 -0.812901 0
M  V30 1668 C 155.338 1.93052 0.577325 0
M  V30 1669 O 154.394 2.14389 1.33393 0
M  V30 1670 C 155.707 2.33359 -1.89642 0
M  V30 1671 C 157.255 2.46996 -1.92255 0
M  V30 1672 C 157.73 3.46309 -2.99724 0
M  V30 1673 N 159.221 3.53853 -2.98902 0
M  V30 1674 C 159.956 4.3055 -3.787 0
M  V30 1675 N 159.452 5.10482 -4.6838 0
M  V30 1676 N 161.245 4.25757 -3.66998 0
M  V30 1677 H 153.396 0.764867 -1.9815 0
M  V30 1678 H 155.659 0.398966 -0.859959 0
M  V30 1679 H 155.365 1.99565 -2.89597 0
M  V30 1680 H 155.239 3.33274 -1.76659 0
M  V30 1681 H 157.626 2.80081 -0.929445 0
M  V30 1682 H 157.707 1.47039 -2.09316 0
M  V30 1683 H 157.351 3.13957 -3.99241 0
M  V30 1684 H 157.281 4.46049 -2.79907 0
M  V30 1685 H 159.772 2.96812 -2.33904 0
M  V30 1686 H 160.085 5.66284 -5.25873 0
M  V30 1687 H 158.43 5.09747 -4.72422 0
M  V30 1688 H 161.621 3.62383 -2.96304 0
M  V30 1689 H 161.794 4.85279 -4.29427 0
M  V30 1690 N 155.201 0.870884 1.31352 0
M  V30 1691 C 156.151 0.298889 2.26032 0
M  V30 1692 C 157.135 -0.564595 1.50669 0
M  V30 1693 O 158.327 -0.411323 1.72154 0
M  V30 1694 C 155.456 -0.497842 3.39671 0
M  V30 1695 C 154.542 0.378937 4.22404 0
M  V30 1696 N 154.933 1.47284 4.83881 0
M  V30 1697 C 153.231 0.171535 4.4567 0
M  V30 1698 C 153.932 2.01359 5.45738 0
M  V30 1699 N 152.908 1.31047 5.27568 0
M  V30 1700 H 156.71 1.13494 2.71102 0
M  V30 1701 H 154.224 0.718745 1.45629 0
M  V30 1702 H 156.221 -0.924155 4.06528 0
M  V30 1703 H 154.881 -1.33149 2.96144 0
M  V30 1704 H 155.892 1.85575 4.8351 0
M  V30 1705 H 152.569 -0.626091 4.12779 0
M  V30 1706 H 153.959 2.93143 6.0458 0
M  V30 1707 N 156.679 -1.44442 0.630414 0
M  V30 1708 C 157.925 -2.02351 0.134816 0
M  V30 1709 C 158.258 -1.4947 -1.23986 0
M  V30 1710 O 157.533 -0.678475 -1.82283 0
M  V30 1711 C 157.816 -3.59898 0.120707 0
M  V30 1712 C 157.669 -4.23063 1.52767 0
M  V30 1713 C 158.988 -4.36585 -0.555127 0
M  V30 1714 H 156.107 -0.73527 0.0504646 0
M  V30 1715 H 158.749 -1.72022 0.806751 0
M  V30 1716 H 156.899 -3.85868 -0.451477 0
M  V30 1717 H 158.571 -4.08202 2.14869 0
M  V30 1718 H 156.814 -3.80586 2.08175 0
M  V30 1719 H 157.485 -5.32071 1.46984 0
M  V30 1720 H 159.961 -4.16044 -0.0685429 0
M  V30 1721 H 158.837 -5.46294 -0.534185 0
M  V30 1722 H 159.098 -4.11138 -1.62535 0
M  V30 1723 N 158.157 -0.370918 -1.53173 0
M  V30 1724 C 159.387 0.217389 -2.05453 0
M  V30 1725 C 159.795 1.42568 -1.24382 0
M  V30 1726 O 159.138 1.81571 -0.278839 0
M  V30 1727 C 159.2 0.669827 -3.53205 0
M  V30 1728 C 158.864 -0.4225 -4.55043 0
M  V30 1729 C 159.861 -1.27407 -5.04047 0
M  V30 1730 C 157.546 -0.58427 -4.9889 0
M  V30 1731 C 159.54 -2.27271 -5.95505 0
M  V30 1732 C 157.227 -1.58627 -5.90153 0
M  V30 1733 C 158.225 -2.42892 -6.38351 0
M  V30 1734 O 157.913 -3.41382 -7.27814 0
M  V30 1735 H 157.645 0.0408171 -0.674767 0
M  V30 1736 H 160.199 -0.5292 -1.98466 0
M  V30 1737 H 158.429 1.4681 -3.57748 0
M  V30 1738 H 160.118 1.18173 -3.88317 0
M  V30 1739 H 160.884 -1.16031 -4.70916 0
M  V30 1740 H 156.763 0.061851 -4.60959 0
M  V30 1741 H 160.307 -2.93079 -6.33049 0
M  V30 1742 H 156.204 -1.70048 -6.22699 0
M  V30 1743 H 156.972 -3.37173 -7.45826 0
M  V30 1744 N 159.635 1.57281 -0.100228 0
M  V30 1745 C 160.565 2.17328 0.853857 0
M  V30 1746 C 161.546 1.10804 1.2906 0
M  V30 1747 O 162.731 1.38963 1.35657 0
M  V30 1748 C 159.861 2.75772 2.11109 0
M  V30 1749 C 158.815 3.87713 1.81279 0
M  V30 1750 C 158.141 4.32882 3.13874 0
M  V30 1751 C 159.441 5.10677 1.09574 0
M  V30 1752 H 161.135 2.97305 0.353545 0
M  V30 1753 H 158.681 1.43009 0.168612 0
M  V30 1754 H 160.634 3.16433 2.78296 0
M  V30 1755 H 159.358 1.93057 2.63432 0
M  V30 1756 H 158.017 3.476 1.16489 0
M  V30 1757 H 157.665 3.47051 3.64095 0
M  V30 1758 H 157.365 5.08358 2.94696 0
M  V30 1759 H 158.889 4.7618 3.82211 0
M  V30 1760 H 160.303 5.48474 1.66879 0
M  V30 1761 H 158.7 5.91615 1.00557 0
M  V30 1762 H 159.77 4.84835 0.0793299 0
M  V30 1763 N 161.113 -0.173488 1.56642 0
M  V30 1764 C 162.023 -1.23482 1.99473 0
M  V30 1765 C 163.039 -1.48567 0.905752 0
M  V30 1766 O 164.215 -1.60758 1.21321 0
M  V30 1767 C 161.28 -2.55444 2.34413 0
M  V30 1768 C 160.341 -2.38241 3.57127 0
M  V30 1769 C 159.574 -3.63909 3.90392 0
M  V30 1770 O 159.797 -4.68996 3.24653 0
M  V30 1771 O 158.731 -3.58149 4.83749 0
M  V30 1772 H 162.557 -0.901279 2.90018 0
M  V30 1773 H 160.142 -0.380185 1.44482 0
M  V30 1774 H 162.024 -3.33292 2.57865 0
M  V30 1775 H 160.699 -2.88382 1.4703 0
M  V30 1776 H 159.606 -1.58431 3.38896 0
M  V30 1777 H 160.939 -2.10228 4.45045 0
M  V30 1778 N 162.591 -1.51276 -0.441967 0
M  V30 1779 C 163.538 -1.72256 -1.53612 0
M  V30 1780 C 164.508 -0.564164 -1.56225 0
M  V30 1781 O 165.693 -0.798074 -1.73307 0
M  V30 1782 C 162.833 -1.84932 -2.91366 0
M  V30 1783 C 161.946 -3.12459 -2.98317 0
M  V30 1784 C 161.081 -3.15758 -4.27166 0
M  V30 1785 C 160.12 -4.37619 -4.27967 0
M  V30 1786 N 159.257 -4.38493 -5.48333 0
M  V30 1787 H 164.097 -2.65654 -1.35026 0
M  V30 1788 H 161.634 -1.31662 -0.656009 0
M  V30 1789 H 163.592 -1.90263 -3.7129 0
M  V30 1790 H 162.222 -0.949461 -3.08521 0
M  V30 1791 H 161.274 -3.1646 -2.11086 0
M  V30 1792 H 162.586 -4.02382 -2.94771 0
M  V30 1793 H 161.74 -3.19979 -5.15459 0
M  V30 1794 H 160.479 -2.23715 -4.33362 0
M  V30 1795 H 159.484 -4.33579 -3.38067 0
M  V30 1796 H 160.709 -5.30921 -4.23438 0
M  V30 1797 H 158.655 -3.49318 -5.55259 0
M  V30 1798 H 158.572 -5.22219 -5.46647 0
M  V30 1799 H 159.84 -4.469 -6.38671 0
M  V30 1800 N 164.069 0.697108 -1.41344 0
M  V30 1801 C 165.315 1.4593 -1.40827 0
M  V30 1802 C 165.648 1.94193 -0.0167098 0
M  V30 1803 O 164.923 1.69425 0.955263 0
M  V30 1804 C 165.206 2.67229 -2.41373 0
M  V30 1805 C 165.059 2.24741 -3.8963 0
M  V30 1806 C 166.378 3.69423 -2.39196 0
M  V30 1807 H 163.497 0.529303 -0.512842 0
M  V30 1808 H 166.139 0.794112 -1.72609 0
M  V30 1809 H 164.289 3.23982 -2.14401 0
M  V30 1810 H 165.961 1.73327 -4.27499 0
M  V30 1811 H 164.204 1.56542 -4.0457 0
M  V30 1812 H 164.875 3.1177 -4.55525 0
M  V30 1813 H 167.351 3.2234 -2.63128 0
M  V30 1814 H 166.227 4.51907 -3.11563 0
M  V30 1815 H 166.488 4.19012 -1.41001 0
M  V30 1816 N 165.547 1.27147 0.931209 0
M  V30 1817 C 166.793 1.13446 1.68101 0
M  V30 1818 C 167.126 -0.319628 1.91552 0
M  V30 1819 O 166.401 -1.23407 1.50336 0
M  V30 1820 C 166.684 1.91482 3.0497 0
M  V30 1821 C 166.537 3.44855 2.88782 0
M  V30 1822 C 167.856 1.71651 4.05246 0
M  V30 1823 H 164.975 0.413498 0.610072 0
M  V30 1824 H 167.617 1.56261 1.08086 0
M  V30 1825 H 165.767 1.55095 3.56199 0
M  V30 1826 H 167.439 3.9105 2.44698 0
M  V30 1827 H 165.682 3.71373 2.24198 0
M  V30 1828 H 166.353 3.94694 3.85902 0
M  V30 1829 H 168.829 2.0337 3.63015 0
M  V30 1830 H 167.705 2.28651 4.99009 0
M  V30 1831 H 167.966 0.663555 4.37092 0
M  V30 1832 N 167.025 -1.13721 1.09112 0
M  V30 1833 C 168.271 -1.85198 0.826414 0
M  V30 1834 C 168.604 -1.83129 -0.646319 0
M  V30 1835 O 167.879 -1.2671 -1.47563 0
M  V30 1836 C 168.162 -3.33507 1.35812 0
M  V30 1837 C 168.015 -3.44108 2.89672 0
M  V30 1838 C 169.334 -4.28838 0.989256 0
M  V30 1839 H 166.453 -0.67243 0.301675 0
M  V30 1840 H 169.095 -1.33499 1.35197 0
M  V30 1841 H 167.245 -3.77666 0.911082 0
M  V30 1842 H 168.917 -3.08684 3.428 0
M  V30 1843 H 167.16 -2.85087 3.26967 0
M  V30 1844 H 167.831 -4.48388 3.21951 0
M  V30 1845 H 170.307 -3.92734 1.37475 0
M  V30 1846 H 169.183 -5.31051 1.38838 0
M  V30 1847 H 169.444 -4.4198 -0.102924 0
M  V30 1848 N 168.503 -0.877838 -1.30888 0
M  V30 1849 C 169.433 -0.35534 -2.3078 0
M  V30 1850 C 170.414 0.557994 -1.60687 0
M  V30 1851 O 171.599 0.473355 -1.88343 0
M  V30 1852 C 168.729 0.437221 -3.44537 0
M  V30 1853 C 167.683 -0.383715 -4.26276 0
M  V30 1854 C 167.009 0.535014 -5.32017 0
M  V30 1855 C 168.309 -1.62201 -4.96476 0
M  V30 1856 H 170.003 -1.19007 -2.74732 0
M  V30 1857 H 167.549 -0.573698 -1.32078 0
M  V30 1858 H 169.502 0.813334 -4.13477 0
M  V30 1859 H 168.226 1.30553 -2.99372 0
M  V30 1860 H 166.885 -0.741874 -3.59015 0
M  V30 1861 H 166.533 1.40083 -4.831 0
M  V30 1862 H 166.233 -0.0104211 -5.87599 0
M  V30 1863 H 167.757 0.907799 -6.03814 0
M  V30 1864 H 169.171 -1.31689 -5.5797 0
M  V30 1865 H 167.568 -2.10711 -5.61891 0
M  V30 1866 H 168.638 -2.37044 -4.23011 0
M  V30 1867 N 169.982 1.44106 -0.638065 0
M  V30 1868 C 171.398 1.56672 -0.304286 0
M  V30 1869 C 171.598 1.6244 1.19228 0
M  V30 1870 O 170.654 1.57121 1.9766 0
M  V30 1871 C 171.967 2.83503 -1.00231 0
M  V30 1872 C 173.515 2.97226 -0.981116 0
M  V30 1873 C 173.99 4.26868 -1.65974 0
M  V30 1874 N 175.481 4.33698 -1.62666 0
M  V30 1875 C 176.216 5.32745 -2.12063 0
M  V30 1876 N 175.712 6.38157 -2.6968 0
M  V30 1877 N 177.505 5.24299 -2.02651 0
M  V30 1878 H 169.656 1.38605 -1.60942 0
M  V30 1879 H 171.919 0.664661 -0.675965 0
M  V30 1880 H 171.625 2.85251 -2.0573 0
M  V30 1881 H 171.499 3.73251 -0.54439 0
M  V30 1882 H 173.886 2.95027 0.0654188 0
M  V30 1883 H 173.967 2.08808 -1.47759 0
M  V30 1884 H 173.611 4.29826 -2.70576 0
M  V30 1885 H 173.541 5.14156 -1.13804 0
M  V30 1886 H 176.032 3.58138 -1.20606 0
M  V30 1887 H 176.345 7.10029 -3.05087 0
M  V30 1888 H 174.69 6.38823 -2.73734 0
M  V30 1889 H 177.881 4.4086 -1.57353 0
M  V30 1890 H 178.054 6.01334 -2.41457 0
M  V30 1891 N 171.46 0.379036 1.52974 0
M  V30 1892 C 172.871 -0.0972525 1.86447 0
M  V30 1893 C 173.222 -1.47027 1.29914 0
M  V30 1894 O 172.347 -2.07135 0.626433 0
M  V30 1895 C 172.942 -0.183248 3.38304 0
M  V30 1896 C 171.501 -0.603812 3.71525 0
M  V30 1897 C 170.648 0.240632 2.76254 0
M  V30 1898 H 173.599 0.597316 1.4703 0
M  V30 1899 H 173.62 -1.00432 3.67006 0
M  V30 1900 H 173.132 0.816191 3.79421 0
M  V30 1901 H 171.233 -1.61099 3.35973 0
M  V30 1902 H 171.346 -0.369086 4.77676 0
M  V30 1903 H 169.71 -0.292548 2.53014 0
M  V30 1904 H 170.493 1.23786 3.20206 0
M  V30 1905 N 172.938 -1.57226 0.108567 0
M  V30 1906 C 174.215 -1.86333 -0.594939 0
M  V30 1907 C 174.595 -1.00788 -1.85486 0
M  V30 1908 O 173.943 -0.0839293 -2.28346 0
M  V30 1909 C 174.153 -3.37265 -0.897405 0
M  V30 1910 C 175.501 -4.05629 -1.25501 0
M  V30 1911 O 176.525 -3.42224 -0.987998 0
M  V30 1912 O 175.384 -5.17531 -1.75567 0
M  V30 1913 H 172.478 -0.771018 -0.2991 0
M  V30 1914 H 175.024 -1.69102 0.142283 0
M  V30 1915 H 173.796 -3.913 -0.00413806 0
M  V30 1916 H 173.419 -3.59889 -1.69014 0
M  V30 1917 N 174.416 0.165178 -1.56732 0
M  V30 1918 C 175.346 1.20651 -1.99914 0
M  V30 1919 C 176.327 1.45827 -0.875705 0
M  V30 1920 O 177.512 1.57057 -1.14223 0
M  V30 1921 C 174.642 2.54401 -2.36427 0
M  V30 1922 C 173.596 2.43782 -3.51787 0
M  V30 1923 C 172.922 3.82078 -3.7406 0
M  V30 1924 C 174.222 1.93732 -4.85041 0
M  V30 1925 H 175.916 0.847534 -2.87154 0
M  V30 1926 H 173.462 0.40625 -1.38151 0
M  V30 1927 H 175.415 3.27458 -2.65234 0
M  V30 1928 H 174.139 2.92098 -1.46103 0
M  V30 1929 H 172.798 1.73178 -3.23117 0
M  V30 1930 H 172.446 4.17179 -2.81017 0
M  V30 1931 H 172.146 3.7584 -4.51684 0
M  V30 1932 H 173.67 4.56712 -4.05274 0
M  V30 1933 H 175.084 2.56569 -5.12684 0
M  V30 1934 H 173.481 1.98428 -5.66345 0
M  V30 1935 H 174.551 0.891962 -4.76626 0
M  V30 1936 N 175.894 1.51508 0.433938 0
M  V30 1937 C 177.119 1.68443 1.21003 0
M  V30 1938 C 177.544 0.382636 1.84167 0
M  V30 1939 O 176.902 -0.65755 1.68956 0
M  V30 1940 C 176.95 2.80405 2.26727 0
M  V30 1941 O 176.054 2.44245 3.32292 0
M  V30 1942 H 175.395 0.561536 0.354363 0
M  V30 1943 H 177.925 1.9809 0.512024 0
M  V30 1944 H 177.935 3.0459 2.71457 0
M  V30 1945 H 176.61 3.74867 1.80132 0
M  V30 1946 H 175.187 2.30644 2.93015 0
M  V30 1947 N 177.372 -0.689602 1.41712 0
M  V30 1948 C 178.302 -1.81577 1.46806 0
M  V30 1949 C 179.283 -1.66945 0.326105 0
M  V30 1950 O 180.468 -1.86588 0.538377 0
M  V30 1951 C 177.598 -3.19762 1.35535 0
M  V30 1952 C 176.552 -3.49107 2.47605 0
M  V30 1953 C 175.878 -4.86711 2.21397 0
M  V30 1954 C 177.178 -3.47483 3.89939 0
M  V30 1955 H 178.872 -1.7757 2.41058 0
M  V30 1956 H 176.418 -0.852887 1.16025 0
M  V30 1957 H 178.371 -3.98263 1.3771 0
M  V30 1958 H 177.095 -3.24409 0.377708 0
M  V30 1959 H 175.754 -2.72959 2.44722 0
M  V30 1960 H 175.402 -4.8799 1.21961 0
M  V30 1961 H 175.102 -5.0731 2.96497 0
M  V30 1962 H 176.626 -5.67515 2.25297 0
M  V30 1963 H 178.04 -4.1598 3.94505 0
M  V30 1964 H 176.437 -3.79615 4.64771 0
M  V30 1965 H 177.507 -2.46341 4.17665 0
M  V30 1966 N 178.85 -1.27639 -0.924453 0
M  V30 1967 C 180.078 -1.16989 -1.70649 0
M  V30 1968 C 180.493 0.272869 -1.86818 0
M  V30 1969 O 179.85 1.18549 -1.38753 0
M  V30 1970 C 179.901 -1.85229 -3.10439 0
M  V30 1971 O 179.622 -3.23868 -2.95028 0
M  V30 1972 C 181.123 -1.80746 -4.04779 0
M  V30 1973 H 178.343 -0.406595 -0.53378 0
M  V30 1974 H 180.887 -1.68569 -1.15778 0
M  V30 1975 H 179.042 -1.37545 -3.6216 0
M  V30 1976 H 179.456 -3.57889 -3.83426 0
M  V30 1977 H 180.93 -2.33101 -5.00368 0
M  V30 1978 H 181.407 -0.777499 -4.32263 0
M  V30 1979 H 182.013 -2.28059 -3.58984 0
M  V30 1980 N 180.328 1.1314 -1.09713 0
M  V30 1981 C 181.275 2.18642 -0.739196 0
M  V30 1982 C 182.245 1.63706 0.280978 0
M  V30 1983 O 183.43 1.90111 0.161946 0
M  V30 1984 C 180.57 3.44685 -0.169102 0
M  V30 1985 C 179.683 4.13711 -1.24367 0
M  V30 1986 C 178.818 5.27379 -0.636019 0
M  V30 1987 C 177.857 5.88259 -1.69169 0
M  V30 1988 N 176.994 6.93352 -1.10485 0
M  V30 1989 H 181.834 2.48607 -1.64312 0
M  V30 1990 H 179.371 1.22066 -0.820875 0
M  V30 1991 H 181.329 4.16815 0.179256 0
M  V30 1992 H 179.959 3.15161 0.698079 0
M  V30 1993 H 179.011 3.39835 -1.70927 0
M  V30 1994 H 180.323 4.55037 -2.04311 0
M  V30 1995 H 179.477 6.06238 -0.236677 0
M  V30 1996 H 178.216 4.8731 0.194928 0
M  V30 1997 H 177.221 5.08092 -2.10055 0
M  V30 1998 H 178.446 6.30399 -2.52536 0
M  V30 1999 H 176.392 6.55335 -0.295234 0
M  V30 2000 H 176.309 7.33236 -1.84121 0
M  V30 2001 H 177.577 7.76057 -0.73181 0
M  V30 2002 N 181.806 0.884767 1.30421 0
M  V30 2003 C 182.754 0.340869 2.30089 0
M  V30 2004 C 183.748 -0.55201 1.60154 0
M  V30 2005 O 184.954 -0.436467 1.74628 0
M  V30 2006 H 181.329 0.0915739 0.746404 0
M  V30 2007 H 183.3 1.19513 2.73421 0
M  V30 2008 C 182.049 -0.429779 3.45034 0
M  V30 2009 H 181.372 0.248024 3.9903 0
M  V30 2010 H 182.812 -0.775445 4.16849 0
M  V30 2011 C 181.271 -1.62677 2.95022 0
M  V30 2012 O 181.801 -2.72614 2.95033 0
M  V30 2013 N 180.007 -1.46387 2.51036 0
M  V30 2014 H 179.554 -0.569506 2.51226 0
M  V30 2015 H 179.512 -2.26612 2.17932 0
M  V30 2016 N 183.284 -1.43765 0.645699 0
M  V30 2017 C 184.512 -2.06253 0.163556 0
M  V30 2018 C 184.927 -1.48352 -1.16778 0
M  V30 2019 O 184.284 -0.611932 -1.71935 0
M  V30 2020 C 184.335 -3.61453 0.0583186 0
M  V30 2021 O 184.056 -4.172 1.33702 0
M  V30 2022 C 185.557 -4.41002 -0.450795 0
M  V30 2023 H 182.777 -0.665413 0.0864077 0
M  V30 2024 H 185.321 -1.84396 0.884222 0
M  V30 2025 H 183.476 -3.82522 -0.612865 0
M  V30 2026 H 183.89 -5.10791 1.19131 0
M  V30 2027 H 185.364 -5.49966 -0.473403 0
M  V30 2028 H 185.841 -4.13488 -1.48068 0
M  V30 2029 H 186.447 -4.24886 0.187637 0
M  V30 2030 N 184.763 -0.387143 -1.52771 0
M  V30 2031 C 185.673 0.456442 -2.30117 0
M  V30 2032 C 186.689 1.07342 -1.36944 0
M  V30 2033 O 187.865 1.07971 -1.70013 0
M  V30 2034 C 184.93 1.56957 -3.09136 0
M  V30 2035 C 183.991 0.977916 -4.18014 0
M  V30 2036 C 183.224 2.038 -4.93256 0
M  V30 2037 O 183.447 3.25271 -4.68567 0
M  V30 2038 O 182.381 1.6565 -5.78657 0
M  V30 2039 H 186.207 -0.17359 -3.03203 0
M  V30 2040 H 183.792 -0.150919 -1.48636 0
M  V30 2041 H 185.674 2.21628 -3.58412 0
M  V30 2042 H 184.349 2.18461 -2.38865 0
M  V30 2043 H 183.256 0.294525 -3.72939 0
M  V30 2044 H 184.589 0.407128 -4.90513 0
M  V30 2045 N 186.241 1.57166 -0.116904 0
M  V30 2046 C 187.171 2.18222 0.830759 0
M  V30 2047 C 188.152 1.12167 1.27877 0
M  V30 2048 O 189.337 1.40394 1.34176 0
M  V30 2049 C 186.467 2.77996 2.08172 0
M  V30 2050 C 185.421 3.89614 1.77157 0
M  V30 2051 C 184.747 4.36187 3.09265 0
M  V30 2052 C 186.047 5.1181 1.04151 0
M  V30 2053 H 187.741 2.97664 0.321992 0
M  V30 2054 H 185.287 1.4318 0.153434 0
M  V30 2055 H 187.24 3.19366 2.74924 0
M  V30 2056 H 185.964 1.9584 2.6137 0
M  V30 2057 H 184.623 3.48816 1.12796 0
M  V30 2058 H 184.271 3.50893 3.60393 0
M  V30 2059 H 183.971 5.11455 2.89288 0
M  V30 2060 H 185.495 4.80207 3.77139 0
M  V30 2061 H 186.909 5.50214 1.61052 0
M  V30 2062 H 185.306 5.92648 0.942762 0
M  V30 2063 H 186.376 4.84892 0.0279022 0
M  V30 2064 O 187.758 -0.0225413 1.61484 0
M  V30 2065 H 188.449 -0.642234 1.82743 0
M  V30 END ATOM
M  V30 BEGIN BOND
M  V30 END BOND
M  V30 END CTAB
M  END
$$$$
