drugbank_target|Q01668 Voltage-dependent L-type calcium channel subunit alpha-1D (DB00270; DB00393; DB00401; DB00568; DB00622; DB00898; DB01023; DB01054; DB01115; DB01388; DB04855; DB04920; DB06712; DB09229; DB09237)
 OpenBabel12092120103D

  0  0  0     0  0            999 V3000
M  V30 BEGIN CTAB
M  V30 COUNTS 34349 34754 0 0 0
M  V30 BEGIN ATOM
M  V30 1 H -0.908 1.98254 -0.117106 0
M  V30 2 N 0 1.576 0 0
M  V30 3 C 0.933 2.03868 1.02534 0
M  V30 4 C 1.911 0.928543 1.3348 0
M  V30 5 O 3.095 1.19667 1.45644 0
M  V30 6 C 0.222 2.43627 2.35294 0
M  V30 7 C -0.732 3.65373 2.2001 0
M  V30 8 S 0.101 5.13292 1.52614 0
M  V30 9 C 1.257 5.56322 2.86805 0
M  V30 10 H 1.49 2.90518 0.631377 0
M  V30 11 H -0.977 1.52953 0.210867 0
M  V30 12 H 0.981 2.67203 3.11629 0
M  V30 13 H -0.358 1.57376 2.7183 0
M  V30 14 H -1.165 3.90944 3.18086 0
M  V30 15 H -1.563 3.418 1.51819 0
M  V30 16 H 0.729 5.58782 3.83104 0
M  V30 17 H 1.672 6.56266 2.65933 0
M  V30 18 H 2.08 4.83886 2.90714 0
M  V30 19 N 1.4781 -0.272755 1.55222 0
M  V30 20 C 2.4111 -1.3627 1.83046 0
M  V30 21 C 3.3891 -1.47536 0.683521 0
M  V30 22 O 4.5731 -1.64157 0.926545 0
M  V30 23 C 1.7001 -2.73908 1.99229 0
M  V30 24 C 0.7461 -2.79925 3.21783 0
M  V30 25 S 1.5791 -2.39146 4.79134 0
M  V30 26 C 2.7351 -3.78758 4.9829 0
M  V30 27 H 2.9681 -1.12464 2.75207 0
M  V30 28 H 0.5011 -0.472398 1.46996 0
M  V30 29 H 2.4591 -3.53171 2.09238 0
M  V30 30 H 1.1201 -2.94965 1.07956 0
M  V30 31 H 0.3131 -3.80946 3.29994 0
M  V30 32 H -0.0849 -2.08683 3.10367 0
M  V30 33 H 2.2071 -4.7403 4.84047 0
M  V30 34 H 3.1501 -3.75499 6.00338 0
M  V30 35 H 3.5581 -3.70072 4.26271 0
M  V30 36 N 2.9562 -1.48159 -0.537278 0
M  V30 37 C 3.8892 -1.567 -1.65893 0
M  V30 38 C 4.8672 -0.41787 -1.57139 0
M  V30 39 O 6.0512 -0.628461 -1.77715 0
M  V30 40 C 3.1782 -1.48818 -3.04255 0
M  V30 41 C 2.2242 -2.68482 -3.31391 0
M  V30 42 S 3.0572 -4.30516 -3.1846 0
M  V30 43 C 4.2132 -4.2522 -4.59281 0
M  V30 44 H 4.4462 -2.5159 -1.58397 0
M  V30 45 H 1.9792 -1.36602 -0.719672 0
M  V30 46 H 3.9372 -1.44958 -3.84054 0
M  V30 47 H 2.5982 -0.552777 -3.09198 0
M  V30 48 H 1.7912 -2.59085 -4.32309 0
M  V30 49 H 1.3932 -2.69567 -2.59248 0
M  V30 50 H 3.6852 -3.94703 -5.5065 0
M  V30 51 H 4.6282 -5.26292 -4.73732 0
M  V30 52 H 5.0362 -3.55791 -4.38261 0
M  V30 53 N 4.4343 0.785586 -1.36625 0
M  V30 54 C 5.3673 1.90509 -1.25625 0
M  V30 55 C 6.3453 1.62 -0.139607 0
M  V30 56 O 7.5293 1.8591 -0.31141 0
M  V30 57 C 4.6563 3.25419 -0.939158 0
M  V30 58 C 3.7023 3.72856 -2.07077 0
M  V30 59 S 4.5353 3.88162 -3.68904 0
M  V30 60 C 5.6913 5.25942 -3.39317 0
M  V30 61 H 5.9243 1.99549 -2.20381 0
M  V30 62 H 3.4573 0.945226 -1.22085 0
M  V30 63 H 5.4153 4.03346 -0.763029 0
M  V30 64 H 4.0763 3.14099 -0.00931402 0
M  V30 65 H 3.2693 4.70624 -1.80357 0
M  V30 66 H 2.8713 3.01989 -2.20632 0
M  V30 67 H 5.1633 6.10651 -2.93447 0
M  V30 68 H 6.1063 5.57668 -4.36363 0
M  V30 69 H 6.5143 4.93224 -2.74573 0
M  V30 70 N 5.9124 1.20967 1.01018 0
M  V30 71 C 6.8454 0.907578 2.09376 0
M  V30 72 C 7.8234 -0.142868 1.61971 0
M  V30 73 O 9.0074 -0.0150391 1.88494 0
M  V30 74 C 6.1344 0.361791 3.36762 0
M  V30 75 C 5.1804 1.39423 4.03068 0
M  V30 76 S 6.0134 2.96159 4.4615 0
M  V30 77 C 7.1694 2.43173 5.7673 0
M  V30 78 H 7.4024 1.82519 2.34678 0
M  V30 79 H 4.9354 1.03884 1.14225 0
M  V30 80 H 6.8934 0.0534523 4.10465 0
M  V30 81 H 5.5544 -0.53443 3.0952 0
M  V30 82 H 4.7474 0.961853 4.94737 0
M  V30 83 H 4.3494 1.65038 3.35617 0
M  V30 84 H 6.6414 1.83335 6.52223 0
M  V30 85 H 7.5844 3.33264 6.24773 0
M  V30 86 H 7.9924 1.85069 5.33301 0
M  V30 87 N 7.3905 -1.2043 1.01659 0
M  V30 88 C 8.3235 -2.21924 0.531521 0
M  V30 89 C 9.3015 -1.57054 -0.421032 0
M  V30 90 O 10.4855 -1.85389 -0.341035 0
M  V30 91 C 7.6125 -3.37942 -0.226496 0
M  V30 92 C 6.6585 -4.21115 0.67561 0
M  V30 93 S 7.4915 -4.90674 2.14475 0
M  V30 94 C 8.6475 -6.10113 1.3969 0
M  V30 95 H 8.8805 -2.62725 1.3915 0
M  V30 96 H 6.4135 -1.30481 0.825479 0
M  V30 97 H 8.3715 -4.05196 -0.657738 0
M  V30 98 H 7.0325 -2.956 -1.06205 0
M  V30 99 H 6.2255 -5.03918 0.091108 0
M  V30 100 H 5.8275 -3.59115 1.04463 0
M  V30 101 H 8.1195 -6.7411 0.676897 0
M  V30 102 H 9.0625 -6.73022 2.20107 0
M  V30 103 H 9.4705 -5.57283 0.899786 0
M  V30 104 N 8.8686 -0.792821 -1.36206 0
M  V30 105 C 9.8016 -0.139422 -2.27774 0
M  V30 106 C 10.7796 0.68649 -1.47398 0
M  V30 107 O 11.9636 0.656738 -1.7669 0
M  V30 108 C 9.0906 0.807947 -3.28922 0
M  V30 109 C 8.1366 0.0633999 -4.26453 0
M  V30 110 S 8.9696 -1.26319 -5.20388 0
M  V30 111 C 10.1256 -0.31991 -6.25082 0
M  V30 112 H 10.3586 -0.915809 -2.82843 0
M  V30 113 H 7.8916 -0.587203 -1.42798 0
M  V30 114 H 9.8496 1.34908 -3.87699 0
M  V30 115 H 8.5106 1.55761 -2.72759 0
M  V30 116 H 7.7036 0.782386 -4.9789 0
M  V30 117 H 7.3056 -0.407352 -3.71775 0
M  V30 118 H 9.5976 0.499985 -6.75653 0
M  V30 119 H 10.5406 -1.00307 -7.00959 0
M  V30 120 H 10.9486 0.0782694 -5.64446 0
M  V30 121 N 10.3467 1.47872 -0.545128 0
M  V30 122 C 11.2937 2.29849 0.2093 0
M  V30 123 C 12.2637 1.38313 0.919707 0
M  V30 124 O 13.4487 1.67277 0.917772 0
M  V30 125 C 10.5887 3.22019 1.24088 0
M  V30 126 C 9.7017 4.2864 0.537778 0
M  V30 127 C 8.8367 5.07973 1.5536 0
M  V30 128 C 7.8757 6.06381 0.8348 0
M  V30 129 N 7.0127 6.78717 1.79688 0
M  V30 130 H 11.8527 2.93845 -0.49591 0
M  V30 131 H 9.3897 1.44848 -0.256389 0
M  V30 132 H 11.3477 3.73868 1.85144 0
M  V30 133 H 9.9777 2.59914 1.91428 0
M  V30 134 H 9.0297 3.7994 -0.187046 0
M  V30 135 H 10.3417 4.98793 -0.0258907 0
M  V30 136 H 9.4957 5.63912 2.23803 0
M  V30 137 H 8.2347 4.37693 2.15118 0
M  V30 138 H 7.2397 5.49631 0.136388 0
M  V30 139 H 8.4647 6.78665 0.24313 0
M  V30 140 H 6.4107 6.11177 2.38326 0
M  V30 141 H 6.3277 7.44998 1.28505 0
M  V30 142 H 7.5957 7.39237 2.47282 0
M  V30 143 N 11.8248 0.280983 1.55075 0
M  V30 144 C 12.7718 -0.603937 2.22758 0
M  V30 145 C 13.7418 -1.1452 1.20309 0
M  V30 146 O 14.9268 -1.19343 1.48869 0
M  V30 147 C 12.0668 -1.77947 2.95684 0
M  V30 148 C 11.1798 -1.2715 4.12864 0
M  V30 149 C 10.3148 -2.4093 4.7342 0
M  V30 150 C 9.3538 -1.87165 5.82783 0
M  V30 151 N 8.4908 -2.94441 6.37377 0
M  V30 152 H 13.3308 -0.020124 2.97993 0
M  V30 153 H 10.8678 0.00183425 1.471 0
M  V30 154 H 12.8258 -2.47055 3.36184 0
M  V30 155 H 11.4558 -2.33522 2.22861 0
M  V30 156 H 10.5078 -0.473331 3.77444 0
M  V30 157 H 11.8198 -0.837751 4.91715 0
M  V30 158 H 10.9738 -3.18021 5.1667 0
M  V30 159 H 9.7128 -2.87623 3.93859 0
M  V30 160 H 8.7178 -1.08556 5.38976 0
M  V30 161 H 9.9428 -1.41401 6.64216 0
M  V30 162 H 7.8888 -3.40505 5.60707 0
M  V30 163 H 7.8058 -2.55501 7.11516 0
M  V30 164 H 9.0738 -3.71489 6.85285 0
M  V30 165 N 13.3029 -1.57598 0.00835791 0
M  V30 166 C 14.2359 -2.04409 -1.01451 0
M  V30 167 C 15.2139 -0.935609 -1.32985 0
M  V30 168 O 16.3979 -1.20437 -1.45007 0
M  V30 169 C 13.5249 -2.44872 -2.33999 0
M  V30 170 C 12.5709 -3.66535 -2.18069 0
M  V30 171 S 13.4039 -5.14095 -1.4989 0
M  V30 172 C 14.5599 -5.57835 -2.8385 0
M  V30 173 H 14.7929 -2.90849 -0.615961 0
M  V30 174 H 12.3259 -1.53063 -0.202752 0
M  V30 175 H 14.2839 -2.68852 -3.10208 0
M  V30 176 H 12.9449 -1.58815 -2.70992 0
M  V30 177 H 12.1379 -3.92626 -3.16008 0
M  V30 178 H 11.7399 -3.426 -1.50004 0
M  V30 179 H 14.0319 -5.60806 -3.80136 0
M  V30 180 H 14.9749 -6.57667 -2.62449 0
M  V30 181 H 15.3829 -4.85421 -2.88144 0
M  V30 182 N 14.781 0.264519 -1.55364 0
M  V30 183 C 15.713 1.34965 -1.85248 0
M  V30 184 C 16.726 1.45136 -0.737525 0
M  V30 185 O 17.915 1.46801 -1.01547 0
M  V30 186 C 15.015 2.73008 -2.00797 0
M  V30 187 C 14.188 2.85324 -3.31525 0
M  V30 188 C 13.247 4.04097 -3.37034 0
M  V30 189 O 12.273 3.94455 -4.10358 0
M  V30 190 N 13.475 5.16458 -2.65049 0
M  V30 191 H 16.24 1.09672 -2.78913 0
M  V30 192 H 13.801 0.454635 -1.55386 0
M  V30 193 H 15.793 3.50772 -2.01844 0
M  V30 194 H 14.363 2.91087 -1.1396 0
M  V30 195 H 13.583 1.94377 -3.42945 0
M  V30 196 H 14.871 2.9049 -4.17724 0
M  V30 197 H 14.269 5.27181 -2.05175 0
M  V30 198 H 12.826 5.92422 -2.71809 0
M  V30 199 N 16.2591 1.48442 0.529413 0
M  V30 200 C 17.2091 1.59407 1.63014 0
M  V30 201 C 18.1931 0.451166 1.54445 0
M  V30 202 O 19.3851 0.702635 1.62456 0
M  V30 203 C 16.5141 1.63746 3.01732 0
M  V30 204 C 15.6001 2.83518 3.15402 0
M  V30 205 N 15.9911 4.07929 2.99045 0
M  V30 206 C 14.2891 2.80862 3.46457 0
M  V30 207 C 14.9901 4.8829 3.16146 0
M  V30 208 N 13.9661 4.21117 3.43746 0
M  V30 209 H 17.7681 2.53343 1.48978 0
M  V30 210 H 15.2821 1.44821 0.734885 0
M  V30 211 H 17.2791 1.69695 3.80801 0
M  V30 212 H 15.9391 0.709264 3.16859 0
M  V30 213 H 16.9501 4.38357 2.75796 0
M  V30 214 H 13.6271 1.97301 3.67938 0
M  V30 215 H 15.0171 5.97028 3.08232 0
M  V30 216 N 17.7372 -0.778329 1.37039 0
M  V30 217 C 18.6692 -1.90034 1.2814 0
M  V30 218 C 19.6822 -1.61585 0.198558 0
M  V30 219 O 20.8712 -1.72625 0.454175 0
M  V30 220 C 17.9712 -3.25108 0.956968 0
M  V30 221 C 17.1442 -3.81253 2.14394 0
M  V30 222 C 16.2032 -4.94789 1.79082 0
M  V30 223 O 15.2292 -5.10721 2.51301 0
M  V30 224 N 16.4312 -5.75878 0.731043 0
M  V30 225 H 19.1962 -1.98186 2.24816 0
M  V30 226 H 16.7572 -0.957129 1.30578 0
M  V30 227 H 18.7492 -3.9857 0.701701 0
M  V30 228 H 17.3192 -3.125 0.0789812 0
M  V30 229 H 16.5392 -2.99647 2.56135 0
M  V30 230 H 17.8272 -4.15495 2.93668 0
M  V30 231 H 17.2252 -5.65547 0.131618 0
M  V30 232 H 15.7822 -6.49596 0.535622 0
M  V30 233 N 19.2153 -1.21501 -1.00376 0
M  V30 234 C 20.6313 -0.972629 -1.26539 0
M  V30 235 C 20.8313 0.340257 -1.98606 0
M  V30 236 O 19.8873 1.06561 -2.28913 0
M  V30 237 C 21.2003 -2.16404 -2.08781 0
M  V30 238 C 22.7483 -2.20643 -2.22004 0
M  V30 239 C 23.2233 -3.39306 -3.07629 0
M  V30 240 N 24.7143 -3.39401 -3.15217 0
M  V30 241 C 25.4493 -4.27867 -3.81729 0
M  V30 242 N 24.9453 -5.26533 -4.5026 0
M  V30 243 N 26.7383 -4.15672 -3.78382 0
M  V30 244 H 18.8893 -2.05929 -0.520281 0
M  V30 245 H 21.1523 -0.901803 -0.292328 0
M  V30 246 H 20.8583 -3.11554 -1.63178 0
M  V30 247 H 20.7323 -2.15567 -3.09533 0
M  V30 248 H 23.1193 -1.26048 -2.66825 0
M  V30 249 H 23.2003 -2.25523 -1.20718 0
M  V30 250 H 22.8443 -4.34195 -2.63509 0
M  V30 251 H 22.7743 -3.31665 -4.09031 0
M  V30 252 H 25.2653 -2.67997 -2.66432 0
M  V30 253 H 25.5783 -5.90337 -4.98721 0
M  V30 254 H 23.9233 -5.30457 -4.49044 0
M  V30 255 H 27.1143 -3.3785 -3.23998 0
M  V30 256 H 27.2873 -4.84825 -4.2994 0
M  V30 257 N 20.6934 1.19889 -1.02296 0
M  V30 258 C 21.6254 2.22334 -0.556787 0
M  V30 259 C 22.6384 1.58674 0.364199 0
M  V30 260 O 23.8274 1.77768 0.161533 0
M  V30 261 C 20.9274 3.38257 0.208694 0
M  V30 262 C 20.1004 4.31504 -0.71577 0
M  V30 263 C 19.1594 5.262 0.00325597 0
M  V30 264 O 18.1854 5.65798 -0.621357 0
M  V30 265 N 19.3874 5.66303 1.27599 0
M  V30 266 H 22.1524 2.62957 -1.43784 0
M  V30 267 H 19.7134 1.34495 -0.901261 0
M  V30 268 H 21.7054 3.98616 0.699111 0
M  V30 269 H 20.2754 2.96472 0.991102 0
M  V30 270 H 19.4954 3.69016 -1.38638 0
M  V30 271 H 20.7834 4.9072 -1.34428 0
M  V30 272 H 20.1814 5.36155 1.80429 0
M  V30 273 H 18.7384 6.28942 1.71102 0
M  V30 274 N 22.1715 0.800033 1.35784 0
M  V30 275 C 23.1035 0.163596 2.28615 0
M  V30 276 C 24.1165 -0.633317 1.49976 0
M  V30 277 O 25.3055 -0.466754 1.72289 0
M  V30 278 C 22.4055 -0.790958 3.29541 0
M  V30 279 C 21.5785 -0.0418255 4.3738 0
M  V30 280 C 20.6375 -0.91389 5.18203 0
M  V30 281 O 19.6635 -0.367234 5.68014 0
M  V30 282 N 20.8655 -2.23682 5.35674 0
M  V30 283 H 23.6305 0.96105 2.83873 0
M  V30 284 H 21.1915 0.654894 1.48063 0
M  V30 285 H 23.1835 -1.37844 3.80501 0
M  V30 286 H 21.7535 -1.48925 2.74846 0
M  V30 287 H 20.9735 0.726813 3.87442 0
M  V30 288 H 22.2615 0.474719 5.06581 0
M  V30 289 H 21.6595 -2.70497 4.96838 0
M  V30 290 H 20.2165 -2.77369 5.89839 0
M  V30 291 N 23.6496 -1.47581 0.552962 0
M  V30 292 C 24.5816 -2.27997 -0.234533 0
M  V30 293 C 25.5946 -1.36753 -0.883321 0
M  V30 294 O 26.7836 -1.61612 -0.757889 0
M  V30 295 C 23.8836 -3.10879 -1.34935 0
M  V30 296 C 23.0566 -4.30056 -0.798158 0
M  V30 297 C 22.1156 -4.94567 -1.79694 0
M  V30 298 O 21.1416 -5.53087 -1.34474 0
M  V30 299 N 22.3436 -4.88878 -3.13015 0
M  V30 300 H 25.1086 -2.96222 0.455255 0
M  V30 301 H 22.6696 -1.57163 0.388761 0
M  V30 302 H 24.6616 -3.50903 -2.01616 0
M  V30 303 H 23.2316 -2.44924 -1.94244 0
M  V30 304 H 22.4516 -3.94174 0.0453079 0
M  V30 305 H 23.7396 -5.07152 -0.409173 0
M  V30 306 H 23.1376 -4.42526 -3.52402 0
M  V30 307 H 21.6946 -5.32934 -3.75266 0
M  V30 308 N 25.1277 -0.289203 -1.54924 0
M  V30 309 C 26.0907 0.579144 -2.21762 0
M  V30 310 C 27.0907 1.07047 -1.1999 0
M  V30 311 O 28.2807 0.968384 -1.44803 0
M  V30 312 C 25.4127 1.80055 -2.8947 0
M  V30 313 H 26.6057 -0.00464908 -2.999 0
M  V30 314 H 24.1587 -0.0399306 -1.56249 0
M  V30 315 H 24.8937 2.42449 -2.15381 0
M  V30 316 H 24.6787 1.45602 -3.64064 0
M  V30 317 H 26.1687 2.41773 -3.40493 0
M  V30 318 N 26.6058 1.57591 -0.0167156 0
M  V30 319 C 27.8828 1.82547 0.702564 0
M  V30 320 C 28.2628 0.898018 1.91047 0
M  V30 321 O 27.6108 -0.0493456 2.28447 0
M  V30 322 C 27.8208 3.31459 1.09251 0
M  V30 323 C 29.1688 3.97622 1.48937 0
M  V30 324 O 30.1928 3.35881 1.18584 0
M  V30 325 O 29.0518 5.06415 2.05442 0
M  V30 326 H 26.1458 0.752268 0.343544 0
M  V30 327 H 28.6918 1.69644 -0.0434495 0
M  V30 328 H 27.4638 3.9061 0.23227 0
M  V30 329 H 27.0868 3.49422 1.89709 0
M  V30 330 N 28.0839 -0.256276 1.55502 0
M  V30 331 C 29.0339 -1.31981 1.85916 0
M  V30 332 C 30.0179 -1.43927 0.719296 0
M  V30 333 O 31.2099 -1.47326 0.981019 0
M  V30 334 C 28.3389 -2.67703 2.14918 0
M  V30 335 C 27.4249 -2.59801 3.35208 0
M  V30 336 N 27.8159 -2.21524 4.54709 0
M  V30 337 C 26.1139 -2.90832 3.38131 0
M  V30 338 C 26.8149 -2.24024 5.36832 0
M  V30 339 N 25.7909 -2.63158 4.75656 0
M  V30 340 H 29.5929 -1.01423 2.75845 0
M  V30 341 H 27.1069 -0.464911 1.55603 0
M  V30 342 H 29.1039 -3.44445 2.34869 0
M  V30 343 H 27.7639 -2.99137 1.26282 0
M  V30 344 H 28.7749 -1.93223 4.80505 0
M  V30 345 H 25.4519 -3.26867 2.59739 0
M  V30 346 H 26.8419 -1.9685 6.42417 0
M  V30 347 N 29.562 -1.4872 -0.521534 0
M  V30 348 C 30.525 -1.63379 -1.60748 0
M  V30 349 C 31.525 -0.50661 -1.52611 0
M  V30 350 O 32.715 -0.772601 -1.5613 0
M  V30 351 C 29.847 -1.61192 -3.00383 0
M  V30 352 H 31.04 -2.60217 -1.49087 0
M  V30 353 H 28.593 -1.37444 -0.744235 0
M  V30 354 H 29.328 -0.65863 -3.17541 0
M  V30 355 H 29.113 -2.43032 -3.07698 0
M  V30 356 H 30.603 -1.7466 -3.7932 0
M  V30 357 N 31.0401 0.771051 -1.3745 0
M  V30 358 C 31.9881 1.90574 -1.33358 0
M  V30 359 C 32.9821 1.67936 -0.22224 0
M  V30 360 O 34.1881 1.75717 -0.390304 0
M  V30 361 H 30.5631 0.626714 -0.415612 0
M  V30 362 H 32.5341 1.91142 -2.29144 0
M  V30 363 C 31.2831 3.27845 -1.15813 0
M  V30 364 H 30.6061 3.45842 -2.00583 0
M  V30 365 H 32.0461 4.07538 -1.17 0
M  V30 366 C 30.5051 3.36625 0.136165 0
M  V30 367 O 31.0351 3.85785 1.11949 0
M  V30 368 N 29.2411 2.89997 0.187099 0
M  V30 369 H 28.7881 2.50182 -0.613753 0
M  V30 370 H 28.7461 2.96252 1.05272 0
M  V30 371 N 32.5182 1.22032 0.997298 0
M  V30 372 C 33.4282 1.00271 2.12092 0
M  V30 373 C 34.4442 -0.047621 1.73935 0
M  V30 374 O 35.6202 0.144136 2.00884 0
M  V30 375 C 32.6852 0.578449 3.4184 0
M  V30 376 C 31.7462 1.70189 3.94125 0
M  V30 377 C 30.9792 1.29778 5.17681 0
M  V30 378 O 31.2022 0.174676 5.70132 0
M  V30 379 O 30.1362 2.11261 5.63607 0
M  V30 380 H 33.9622 1.94398 2.3333 0
M  V30 381 H 31.5472 1.00587 1.10465 0
M  V30 382 H 33.4292 0.351998 4.19927 0
M  V30 383 H 32.1042 -0.334019 3.21972 0
M  V30 384 H 31.0112 1.98282 3.1723 0
M  V30 385 H 32.3442 2.59206 4.18417 0
M  V30 386 N 33.9963 -1.19345 1.0293 0
M  V30 387 C 34.9593 -2.20793 0.615069 0
M  V30 388 C 35.9593 -1.57553 -0.321533 0
M  V30 389 O 37.1493 -1.73862 -0.108483 0
M  V30 390 C 34.2813 -3.40754 -0.0999222 0
M  V30 391 H 35.4743 -2.58955 1.51269 0
M  V30 392 H 33.0273 -1.3303 0.820534 0
M  V30 393 H 33.7623 -3.0811 -1.01187 0
M  V30 394 H 33.5473 -3.87889 0.57309 0
M  V30 395 H 35.0373 -4.15898 -0.376645 0
M  V30 396 N 35.4744 -0.807222 -1.35358 0
M  V30 397 C 36.4224 -0.20614 -2.31685 0
M  V30 398 C 37.4164 0.644445 -1.56663 0
M  V30 399 O 38.6224 0.537538 -1.71786 0
M  V30 400 H 34.9974 -0.0479006 -0.750473 0
M  V30 401 H 36.9684 -1.03369 -2.79924 0
M  V30 402 C 35.7174 0.630212 -3.41941 0
M  V30 403 H 35.0404 -0.0149558 -3.99797 0
M  V30 404 H 36.4804 1.01716 -4.11619 0
M  V30 405 C 34.9394 1.79601 -2.85035 0
M  V30 406 O 35.4694 2.89351 -2.78637 0
M  V30 407 N 33.6754 1.60774 -2.42074 0
M  V30 408 H 33.2224 0.715009 -2.47478 0
M  V30 409 H 33.1804 2.38933 -2.04349 0
M  V30 410 N 36.9525 1.47285 -0.560781 0
M  V30 411 C 38.1825 2.06555 -0.0429638 0
M  V30 412 C 38.5905 1.41339 1.25777 0
M  V30 413 O 37.9335 0.505182 1.76617 0
M  V30 414 C 37.9955 3.58827 0.219887 0
M  V30 415 C 37.6595 4.46105 -0.991944 0
M  V30 416 C 38.6565 4.84 -1.89843 0
M  V30 417 C 36.3415 4.87567 -1.20762 0
M  V30 418 C 38.3355 5.6216 -3.00425 0
M  V30 419 C 36.0225 5.65491 -2.31653 0
M  V30 420 C 37.0205 6.02699 -3.21315 0
M  V30 421 O 36.7085 6.79052 -4.30283 0
M  V30 422 H 36.4405 0.674537 -0.0444468 0
M  V30 423 H 38.9945 1.90225 -0.774818 0
M  V30 424 H 37.2245 3.73383 1.00609 0
M  V30 425 H 38.9135 4.00103 0.683522 0
M  V30 426 H 39.6795 4.52564 -1.74387 0
M  V30 427 H 35.5585 4.5807 -0.518893 0
M  V30 428 H 39.1025 5.9112 -3.70436 0
M  V30 429 H 34.9995 5.9634 -2.47081 0
M  V30 430 H 35.7675 6.9745 -4.28376 0
M  V30 431 N 38.4306 0.297415 1.54768 0
M  V30 432 C 39.3936 -0.567375 2.22066 0
M  V30 433 C 40.3936 -1.06409 1.20556 0
M  V30 434 O 41.5836 -0.960691 1.45315 0
M  V30 435 C 38.7156 -1.78517 2.90421 0
M  V30 436 H 39.9086 0.0205534 2.99893 0
M  V30 437 H 37.4616 0.0482163 1.56226 0
M  V30 438 H 38.1966 -2.41303 2.16664 0
M  V30 439 H 37.9816 -1.43669 3.64831 0
M  V30 440 H 39.4716 -2.39964 3.41771 0
M  V30 441 N 39.9087 -1.5758 0.0250728 0
M  V30 442 C 41.3247 -1.56124 -0.331282 0
M  V30 443 C 41.5247 -1.03029 -1.73169 0
M  V30 444 O 40.5807 -0.675215 -2.43305 0
M  V30 445 C 41.8937 -3.00139 -0.183584 0
M  V30 446 C 43.4417 -3.11946 -0.256654 0
M  V30 447 C 43.9167 -4.57793 -0.137792 0
M  V30 448 N 45.4077 -4.6279 -0.194904 0
M  V30 449 C 46.1427 -5.7326 -0.126655 0
M  V30 450 N 45.6387 -6.928 -0.00755288 0
M  V30 451 N 47.4317 -5.61811 -0.180348 0
M  V30 452 H 39.5827 -1.90424 0.94087 0
M  V30 453 H 41.8457 -0.875761 0.362968 0
M  V30 454 H 41.5517 -3.4292 0.780927 0
M  V30 455 H 41.4257 -3.64899 -0.955448 0
M  V30 456 H 43.8127 -2.69079 -1.21162 0
M  V30 457 H 43.8937 -2.49915 0.545517 0
M  V30 458 H 43.5377 -5.01339 0.813739 0
M  V30 459 H 43.4677 -5.17798 -0.958775 0
M  V30 460 H 45.9587 -3.76807 -0.287267 0
M  V30 461 H 46.2717 -7.72791 0.0379428 0
M  V30 462 H 44.6167 -6.94995 0.0271731 0
M  V30 463 H 47.8077 -4.6731 -0.271767 0
M  V30 464 H 47.9807 -6.47882 -0.123697 0
M  V30 465 N 41.3868 0.248026 -1.55636 0
M  V30 466 C 42.6348 0.974295 -1.77065 0
M  V30 467 C 42.9558 1.85897 -0.588849 0
M  V30 468 O 42.2258 1.91868 0.395407 0
M  V30 469 H 40.8058 0.362733 -0.653019 0
M  V30 470 H 43.4678 0.266244 -1.93073 0
M  V30 471 H 42.5638 1.59667 -2.68166 0
M  V30 472 N 42.8649 1.48995 0.513639 0
M  V30 473 C 44.0929 1.61531 1.29288 0
M  V30 474 C 44.5079 0.281801 1.86685 0
M  V30 475 O 43.8649 -0.731111 1.67215 0
M  V30 476 C 43.9159 2.67449 2.43215 0
M  V30 477 O 43.6369 3.95626 1.88179 0
M  V30 478 C 45.1379 2.90575 3.34785 0
M  V30 479 H 42.3579 0.544165 0.392588 0
M  V30 480 H 44.9019 1.9494 0.617956 0
M  V30 481 H 43.0569 2.36853 3.0656 0
M  V30 482 H 43.4709 4.53868 2.62876 0
M  V30 483 H 44.9449 3.68449 4.11035 0
M  V30 484 H 45.4219 2.00011 3.91015 0
M  V30 485 H 46.0279 3.22538 2.77218 0
M  V30 486 N 44.343 -0.763751 1.37857 0
M  V30 487 C 45.759 -1.06542 1.18832 0
M  V30 488 C 45.959 -2.01478 0.0299722 0
M  V30 489 O 45.015 -2.4458 -0.627447 0
M  V30 490 C 46.328 -1.65525 2.51042 0
M  V30 491 C 47.876 -1.77745 2.57635 0
M  V30 492 C 48.351 -2.4014 3.89996 0
M  V30 493 N 49.842 -2.47582 3.91481 0
M  V30 494 C 50.577 -2.96732 4.9065 0
M  V30 495 N 50.073 -3.45993 6.00217 0
M  V30 496 N 51.866 -2.95679 4.78048 0
M  V30 497 H 44.017 -0.133556 2.1198 0
M  V30 498 H 46.28 -0.121879 0.940133 0
M  V30 499 H 45.986 -1.03236 3.36207 0
M  V30 500 H 45.86 -2.64719 2.68707 0
M  V30 501 H 48.247 -2.39164 1.72872 0
M  V30 502 H 48.328 -0.772836 2.43846 0
M  V30 503 H 47.972 -1.79358 4.75177 0
M  V30 504 H 47.902 -3.41223 4.01092 0
M  V30 505 H 50.393 -2.1273 3.12337 0
M  V30 506 H 50.706 -3.81922 6.7183 0
M  V30 507 H 49.051 -3.44077 6.03851 0
M  V30 508 H 52.242 -2.56499 3.91568 0
M  V30 509 H 52.415 -3.33672 5.55488 0
M  V30 510 N 45.8211 -1.22559 -0.990812 0
M  V30 511 C 46.7511 -1.0218 -2.09956 0
M  V30 512 C 47.7321 0.0579394 -1.70001 0
M  V30 513 O 48.9171 -0.104684 -1.93918 0
M  V30 514 C 46.0471 -0.601023 -3.4206 0
M  V30 515 C 45.0011 -1.62694 -3.95872 0
M  V30 516 C 44.3271 -1.06193 -5.24049 0
M  V30 517 C 45.6271 -3.01743 -4.2632 0
M  V30 518 H 47.3211 -1.94916 -2.27262 0
M  V30 519 H 44.8671 -0.938566 -1.09211 0
M  V30 520 H 46.8201 -0.445561 -4.19038 0
M  V30 521 H 45.5441 0.362005 -3.24588 0
M  V30 522 H 44.2031 -1.77021 -3.21028 0
M  V30 523 H 43.8511 -0.0901903 -5.02919 0
M  V30 524 H 43.5511 -1.74732 -5.61019 0
M  V30 525 H 45.0751 -0.918092 -6.03658 0
M  V30 526 H 46.4891 -2.90777 -4.94087 0
M  V30 527 H 44.8861 -3.67425 -4.74467 0
M  V30 528 H 45.9561 -3.51518 -3.34011 0
M  V30 529 N 47.2992 1.18797 -1.03562 0
M  V30 530 C 48.7102 1.70322 -0.764676 0
M  V30 531 C 49.0612 1.82708 0.714996 0
M  V30 532 O 48.1862 1.50299 1.55689 0
M  V30 533 C 48.7812 3.09356 -1.38145 0
M  V30 534 C 47.3402 3.58114 -1.15895 0
M  V30 535 C 46.4872 2.34798 -1.4753 0
M  V30 536 H 49.4382 1.03543 -1.20268 0
M  V30 537 H 49.4592 3.72378 -0.781977 0
M  V30 538 H 48.9712 3.00309 -2.45837 0
M  V30 539 H 47.0722 3.72464 -0.100544 0
M  V30 540 H 47.1852 4.4184 -1.8524 0
M  V30 541 H 45.5492 2.38464 -0.894829 0
M  V30 542 H 46.3322 2.28375 -2.56319 0
M  V30 543 N 48.7773 0.814389 1.34928 0
M  V30 544 C 49.7073 0.244827 2.32213 0
M  V30 545 C 50.6883 -0.634024 1.57842 0
M  V30 546 O 51.8733 -0.562676 1.8587 0
M  V30 547 C 49.0033 -0.601106 3.42058 0
M  V30 548 C 47.9573 0.179896 4.27622 0
M  V30 549 C 47.2833 -0.788237 5.28858 0
M  V30 550 C 48.5833 1.38329 5.03649 0
M  V30 551 H 50.2773 1.05763 2.80097 0
M  V30 552 H 47.8233 0.510029 1.34665 0
M  V30 553 H 49.7763 -1.00968 4.09125 0
M  V30 554 H 48.5003 -1.44688 2.92802 0
M  V30 555 H 47.1593 0.569739 3.62146 0
M  V30 556 H 46.8073 -1.62973 4.75866 0
M  V30 557 H 46.5073 -0.269942 5.8698 0
M  V30 558 H 48.0313 -1.19485 5.98795 0
M  V30 559 H 49.4453 1.04918 5.63618 0
M  V30 560 H 47.8423 1.83662 5.71304 0
M  V30 561 H 48.9123 2.16592 4.33839 0
M  V30 562 N 50.2554 -1.46986 0.568584 0
M  V30 563 C 51.4804 -2.07335 0.0520528 0
M  V30 564 C 51.9054 -1.41675 -1.23733 0
M  V30 565 O 51.2634 -0.495623 -1.74394 0
M  V30 566 C 51.3114 -3.60417 -0.11501 0
M  V30 567 O 50.4154 -3.95309 -1.17492 0
M  V30 568 H 49.7564 -0.661597 0.0564385 0
M  V30 569 H 52.2864 -1.88837 0.787507 0
M  V30 570 H 52.2964 -4.06698 -0.325644 0
M  V30 571 H 50.9714 -4.07601 0.826675 0
M  V30 572 H 49.5484 -3.60757 -0.943869 0
M  V30 573 N 51.7335 -0.305618 -1.54608 0
M  V30 574 C 52.9815 0.301701 -1.99835 0
M  V30 575 C 53.3025 1.54054 -1.19551 0
M  V30 576 O 52.5725 1.93702 -0.292658 0
M  V30 577 H 51.1525 0.114468 -0.738178 0
M  V30 578 H 53.8145 -0.418016 -1.90364 0
M  V30 579 H 52.9105 0.570548 -3.06841 0
M  V30 580 N 53.2116 1.57565 -0.0334293 0
M  V30 581 C 54.1216 2.13943 0.962572 0
M  V30 582 C 55.1376 1.09276 1.35406 0
M  V30 583 O 56.3136 1.41355 1.4346 0
M  V30 584 C 53.3786 2.65887 2.22497 0
M  V30 585 C 52.4396 3.85286 1.8935 0
M  V30 586 C 51.6726 4.34743 3.09571 0
M  V30 587 O 51.8956 3.83352 4.22371 0
M  V30 588 O 50.8296 5.26538 2.91618 0
M  V30 589 H 54.6556 2.99333 0.513169 0
M  V30 590 H 52.2406 1.4822 0.18743 0
M  V30 591 H 54.1226 2.99346 2.96598 0
M  V30 592 H 52.7976 1.83578 2.6661 0
M  V30 593 H 51.7046 3.56746 1.1262 0
M  V30 594 H 53.0376 4.68771 1.5005 0
M  V30 595 N 54.6897 -0.239769 1.55765 0
M  V30 596 C 55.9377 -0.964892 1.77579 0
M  V30 597 C 56.2587 -1.85582 0.598699 0
M  V30 598 O 55.5287 -1.92075 -0.385226 0
M  V30 599 H 54.1087 -0.359265 0.654933 0
M  V30 600 H 56.7707 -0.256001 1.93211 0
M  V30 601 H 55.8667 -1.58243 2.69009 0
M  V30 602 N 56.1678 -1.49265 -0.50573 0
M  V30 603 C 57.5788 -1.51769 -1.08734 0
M  V30 604 C 57.9298 -0.301192 -1.93874 0
M  V30 605 O 57.0548 0.589456 -2.08217 0
M  V30 606 C 57.6498 -2.75017 -1.97867 0
M  V30 607 C 56.2088 -2.80314 -2.51199 0
M  V30 608 C 55.3558 -2.4562 -1.28709 0
M  V30 609 H 58.3068 -1.56031 -0.289855 0
M  V30 610 H 58.3278 -2.5491 -2.82491 0
M  V30 611 H 57.8398 -3.63539 -1.35873 0
M  V30 612 H 55.9408 -1.96061 -3.16845 0
M  V30 613 H 56.0538 -3.82366 -2.88675 0
M  V30 614 H 54.4178 -1.97297 -1.61078 0
M  V30 615 H 55.2008 -3.36411 -0.6843 0
M  V30 616 N 57.6459 0.756429 -1.3826 0
M  V30 617 C 58.8739 1.54565 -1.3754 0
M  V30 618 C 59.2889 1.88767 0.0355331 0
M  V30 619 O 58.6459 1.52572 1.0014 0
M  V30 620 C 58.6969 2.84654 -2.22833 0
M  V30 621 O 58.4179 2.51912 -3.5843 0
M  V30 622 C 59.9189 3.78807 -2.30261 0
M  V30 623 H 57.1389 0.478353 -0.470553 0
M  V30 624 H 59.6829 0.936381 -1.81803 0
M  V30 625 H 57.8379 3.41965 -1.8204 0
M  V30 626 H 58.2519 3.35325 -4.03308 0
M  V30 627 H 59.7259 4.67045 -2.94233 0
M  V30 628 H 60.2029 4.19038 -1.31545 0
M  V30 629 H 60.8089 3.2742 -2.71433 0
M  V30 630 N 59.124 1.23083 0.984299 0
M  V30 631 C 60.349 1.088 1.76571 0
M  V30 632 C 60.774 -0.356657 1.84688 0
M  V30 633 O 60.132 -1.25788 1.30565 0
M  V30 634 C 60.18 1.71371 3.17277 0
M  V30 635 O 59.284 0.973213 4.00752 0
M  V30 636 H 58.625 0.381599 0.543395 0
M  V30 637 H 61.155 1.63057 1.23587 0
M  V30 638 H 61.165 1.76449 3.67872 0
M  V30 639 H 59.84 2.76493 3.10684 0
M  V30 640 H 58.417 0.999078 3.59267 0
M  V30 641 N 60.6021 -1.18246 1.0419 0
M  V30 642 C 61.5341 -2.2142 0.592088 0
M  V30 643 C 62.5471 -1.59233 -0.338909 0
M  V30 644 O 63.7361 -1.78002 -0.133231 0
M  V30 645 C 60.8361 -3.38546 -0.154854 0
M  V30 646 C 60.0091 -4.3031 0.784328 0
M  V30 647 C 59.0681 -5.26138 0.0804583 0
M  V30 648 O 58.0941 -5.64738 0.711292 0
M  V30 649 N 59.2961 -5.68261 -1.18574 0
M  V30 650 H 62.0611 -2.60636 1.47949 0
M  V30 651 H 59.6221 -1.33044 0.922544 0
M  V30 652 H 61.6141 -3.99678 -0.635606 0
M  V30 653 H 60.1841 -2.98012 -0.943811 0
M  V30 654 H 59.4041 -3.66764 1.44491 0
M  V30 655 H 60.6921 -4.8852 1.42218 0
M  V30 656 H 60.0901 -5.38957 -1.71876 0
M  V30 657 H 58.6471 -6.31584 -1.61074 0
M  V30 658 N 62.0802 -0.821533 -1.34494 0
M  V30 659 C 63.4912 -0.467956 -1.8074 0
M  V30 660 C 63.8422 1.01151 -1.68116 0
M  V30 661 O 62.9672 1.78707 -1.22036 0
M  V30 662 C 63.5622 -0.842627 -3.28154 0
M  V30 663 C 62.1212 -0.541439 -3.72485 0
M  V30 664 C 61.2682 -1.06028 -2.56229 0
M  V30 665 H 64.2192 -1.01183 -1.22261 0
M  V30 666 H 64.2402 -0.145876 -3.8022 0
M  V30 667 H 63.7522 -1.91945 -3.37311 0
M  V30 668 H 61.8532 0.526034 -3.68868 0
M  V30 669 H 61.9662 -1.08453 -4.66663 0
M  V30 670 H 60.3302 -0.481892 -2.501 0
M  V30 671 H 61.1132 -2.14352 -2.68157 0
M  V30 672 N 63.5583 1.46682 -0.576371 0
M  V30 673 C 64.5063 2.31953 0.17335 0
M  V30 674 C 65.5003 1.44098 0.89062 0
M  V30 675 O 66.7063 1.60759 0.809728 0
M  V30 676 H 63.0813 0.748273 0.0747727 0
M  V30 677 H 65.0523 2.93007 -0.564738 0
M  V30 678 C 63.8013 3.27142 1.17786 0
M  V30 679 H 63.1243 3.94719 0.635361 0
M  V30 680 H 64.5643 3.896 1.67296 0
M  V30 681 C 63.0233 2.52036 2.23561 0
M  V30 682 O 63.5533 2.27877 3.3081 0
M  V30 683 N 61.7593 2.12709 1.97998 0
M  V30 684 H 61.3063 2.32557 1.10792 0
M  V30 685 H 61.2643 1.62776 2.68982 0
M  V30 686 N 65.0364 0.313813 1.54444 0
M  V30 687 C 66.2614 -0.296681 2.05267 0
M  V30 688 C 66.6864 -1.45757 1.18897 0
M  V30 689 O 66.0444 -1.80239 0.195886 0
M  V30 690 C 66.0924 -0.71831 3.53373 0
M  V30 691 O 65.1964 -1.82175 3.69981 0
M  V30 692 H 64.5374 -0.0554061 0.661684 0
M  V30 693 H 67.0674 0.459387 1.99376 0
M  V30 694 H 67.0774 -1.00364 3.95463 0
M  V30 695 H 65.7524 0.130821 4.15694 0
M  V30 696 H 64.3294 -1.53598 3.39797 0
M  V30 697 N 66.5145 -1.57545 0.0417849 0
M  V30 698 C 67.7395 -1.97035 -0.647455 0
M  V30 699 C 68.1645 -0.918775 -1.64135 0
M  V30 700 O 67.5225 0.119006 -1.80909 0
M  V30 701 C 67.5705 -3.35609 -1.31905 0
M  V30 702 O 66.6745 -3.3287 -2.43457 0
M  V30 703 H 66.0155 -0.64211 -0.169086 0
M  V30 704 H 68.5455 -2.04318 0.107399 0
M  V30 705 H 68.5555 -3.72126 -1.67291 0
M  V30 706 H 67.2305 -4.11685 -0.590586 0
M  V30 707 H 65.8075 -3.08087 -2.10088 0
M  V30 708 N 67.9926 0.231505 -1.5589 0
M  V30 709 C 68.9396 1.28682 -1.91598 0
M  V30 710 C 69.9096 1.47071 -0.771974 0
M  V30 711 O 71.0946 1.60802 -1.027 0
M  V30 712 C 68.2346 2.6342 -2.22944 0
M  V30 713 C 67.3476 2.52912 -3.50228 0
M  V30 714 C 66.4826 3.80106 -3.7107 0
M  V30 715 C 65.5216 3.64279 -4.91902 0
M  V30 716 N 64.6586 4.834 -5.09184 0
M  V30 717 H 69.4986 0.975305 -2.81588 0
M  V30 718 H 67.0356 0.470299 -1.39379 0
M  V30 719 H 68.9936 3.41869 -2.39126 0
M  V30 720 H 67.6236 2.92687 -1.36139 0
M  V30 721 H 66.6756 1.6595 -3.42294 0
M  V30 722 H 67.9876 2.37133 -4.38827 0
M  V30 723 H 67.1416 4.66999 -3.87295 0
M  V30 724 H 65.8806 3.98799 -2.80733 0
M  V30 725 H 64.8856 2.7577 -4.75637 0
M  V30 726 H 66.1106 3.47067 -5.83714 0
M  V30 727 H 64.0566 5.02425 -4.21788 0
M  V30 728 H 63.9736 4.70311 -5.91898 0
M  V30 729 H 65.2416 5.71747 -5.29835 0
M  V30 730 N 69.4707 1.49531 0.497807 0
M  V30 731 C 70.4027 1.62559 1.61578 0
M  V30 732 C 71.4157 0.508134 1.54667 0
M  V30 733 O 72.6047 0.780309 1.60541 0
M  V30 734 C 69.7047 1.56925 3.00379 0
M  V30 735 C 68.8777 2.84257 3.3244 0
M  V30 736 C 67.9367 2.71632 4.50669 0
M  V30 737 O 66.9627 3.4557 4.52294 0
M  V30 738 N 68.1647 1.83391 5.5077 0
M  V30 739 H 70.9297 2.58981 1.50828 0
M  V30 740 H 68.4907 1.4666 0.685743 0
M  V30 741 H 70.4827 1.46129 3.77397 0
M  V30 742 H 69.0527 0.683483 3.05037 0
M  V30 743 H 68.2727 3.09381 2.44289 0
M  V30 744 H 69.5607 3.68666 3.5066 0
M  V30 745 H 68.9587 1.22583 5.52259 0
M  V30 746 H 67.5157 1.78515 6.26878 0
M  V30 747 N 70.9488 -0.749086 1.3866 0
M  V30 748 C 72.1768 -1.53834 1.38358 0
M  V30 749 C 72.5918 -1.88783 -0.0255219 0
M  V30 750 O 71.9488 -1.53101 -0.993292 0
M  V30 751 C 71.9998 -2.83468 2.2434 0
M  V30 752 O 71.7208 -2.50008 3.5976 0
M  V30 753 C 73.2218 -3.7758 2.32267 0
M  V30 754 H 70.4418 -0.47585 0.473083 0
M  V30 755 H 72.9858 -0.926726 1.82297 0
M  V30 756 H 71.1408 -3.40995 1.83851 0
M  V30 757 H 71.5548 -3.33182 4.05081 0
M  V30 758 H 73.0288 -4.65478 2.96706 0
M  V30 759 H 73.5058 -4.18334 1.33765 0
M  V30 760 H 74.1118 -3.25976 2.73166 0
M  V30 761 N 72.4269 -1.23603 -0.977757 0
M  V30 762 C 73.6729 -1.07129 -1.72195 0
M  V30 763 C 74.0059 0.390501 -1.90233 0
M  V30 764 O 73.2809 1.28902 -1.45653 0
M  V30 765 C 73.5639 -1.80031 -3.11867 0
M  V30 766 C 73.4169 -3.33899 -3.01383 0
M  V30 767 C 74.7359 -1.56492 -4.11337 0
M  V30 768 H 71.8549 -0.390571 -0.624999 0
M  V30 769 H 74.4969 -1.52142 -1.13811 0
M  V30 770 H 72.6469 -1.41768 -3.6171 0
M  V30 771 H 74.3189 -3.81699 -2.59043 0
M  V30 772 H 72.5619 -3.62796 -2.37827 0
M  V30 773 H 73.2329 -3.801 -4.00285 0
M  V30 774 H 75.7089 -1.89757 -3.70313 0
M  V30 775 H 74.5849 -2.09973 -5.07151 0
M  V30 776 H 74.8459 -0.500874 -4.39254 0
M  V30 777 N 73.905 1.17692 -1.04816 0
M  V30 778 C 74.835 2.23777 -0.666791 0
M  V30 779 C 75.816 1.66796 0.33361 0
M  V30 780 O 77.001 1.93039 0.212042 0
M  V30 781 C 74.131 3.47281 -0.0367933 0
M  V30 782 C 73.085 4.17059 -0.961546 0
M  V30 783 C 72.411 5.34342 -0.195626 0
M  V30 784 C 73.711 4.69713 -2.28402 0
M  V30 785 H 75.405 2.55933 -1.55367 0
M  V30 786 H 72.951 1.23019 -0.748484 0
M  V30 787 H 74.904 4.20706 0.241775 0
M  V30 788 H 73.628 3.14381 0.885004 0
M  V30 789 H 72.287 3.45541 -1.22462 0
M  V30 790 H 71.935 4.97692 0.728816 0
M  V30 791 H 71.635 5.81966 -0.811775 0
M  V30 792 H 73.159 6.10553 0.0757473 0
M  V30 793 H 74.573 5.34794 -2.06563 0
M  V30 794 H 72.97 5.279 -2.8538 0
M  V30 795 H 74.04 3.86726 -2.92525 0
M  V30 796 N 75.3831 0.828654 1.34056 0
M  V30 797 C 76.6081 0.431637 2.02859 0
M  V30 798 C 77.0331 -0.956339 1.61975 0
M  V30 799 O 76.3911 -1.62338 0.807228 0
M  V30 800 C 76.4391 0.548323 3.56407 0
M  V30 801 O 75.5431 -0.429556 4.10157 0
M  V30 802 H 74.8841 0.176886 0.640006 0
M  V30 803 H 77.4141 1.12066 1.71179 0
M  V30 804 H 77.4241 0.426196 4.05768 0
M  V30 805 H 76.0991 1.5606 3.8551 0
M  V30 806 H 74.6761 -0.265836 3.71951 0
M  V30 807 N 76.8612 -1.46375 0.584142 0
M  V30 808 C 78.1072 -2.03248 0.0787103 0
M  V30 809 C 78.4622 -1.44737 -1.26763 0
M  V30 810 O 77.7552 -0.603625 -1.81843 0
M  V30 811 C 77.9492 -3.57373 -0.0439342 0
M  V30 812 C 77.7782 -4.30831 1.28897 0
M  V30 813 C 76.5482 -4.69683 1.8635 0
M  V30 814 C 78.7462 -4.64278 2.21248 0
M  V30 815 N 76.7282 -5.27898 3.13365 0
M  V30 816 C 78.0992 -5.23078 3.32851 0
M  V30 817 C 80.1542 -4.46209 2.20911 0
M  V30 818 C 78.8572 -5.65715 4.44251 0
M  V30 819 C 80.8832 -4.89864 3.31341 0
M  V30 820 C 80.2452 -5.48736 4.41665 0
M  V30 821 H 76.3442 -0.778714 0.0716144 0
M  V30 822 H 78.9282 -1.78509 0.777355 0
M  V30 823 H 77.0992 -3.81823 -0.711749 0
M  V30 824 H 78.8312 -4.00892 -0.553881 0
M  V30 825 H 75.5862 -4.52488 1.39826 0
M  V30 826 H 76.0102 -5.61525 3.78178 0
M  V30 827 H 80.6522 -4.00027 1.36888 0
M  V30 828 H 78.3702 -6.10875 5.29015 0
M  V30 829 H 81.9562 -4.77634 3.322 0
M  V30 830 H 80.8362 -5.81898 5.25704 0
M  V30 831 N 78.3393 -0.321999 -1.54275 0
M  V30 832 C 79.2713 0.578671 -2.21775 0
M  V30 833 C 80.2843 1.08109 -1.21722 0
M  V30 834 O 81.4733 0.994938 -1.482 0
M  V30 835 C 78.5733 1.80661 -2.86731 0
M  V30 836 C 77.7463 1.44314 -4.12907 0
M  V30 837 C 76.8053 2.52845 -4.61472 0
M  V30 838 O 75.8313 2.17054 -5.2619 0
M  V30 839 N 77.0333 3.83748 -4.35566 0
M  V30 840 H 79.7983 0.000709447 -2.997 0
M  V30 841 H 77.3593 -0.145132 -1.61248 0
M  V30 842 H 79.3513 2.52655 -3.16145 0
M  V30 843 H 77.9213 2.29245 -2.12521 0
M  V30 844 H 77.1413 0.554906 -3.90275 0
M  V30 845 H 78.4293 1.17598 -4.95023 0
M  V30 846 H 77.8273 4.15625 -3.83761 0
M  V30 847 H 76.3843 4.51977 -4.69638 0
M  V30 848 N 79.8174 1.5752 -0.0501392 0
M  V30 849 C 80.7804 2.1037 0.909786 0
M  V30 850 C 81.7804 1.02308 1.24056 0
M  V30 851 O 82.9704 1.28385 1.17741 0
M  V30 852 C 80.1024 2.58708 2.21998 0
M  V30 853 H 81.2954 2.96479 0.451665 0
M  V30 854 H 78.8484 1.55038 0.198248 0
M  V30 855 H 79.5834 1.75989 2.72394 0
M  V30 856 H 79.3684 3.37675 1.99295 0
M  V30 857 H 80.8584 2.99747 2.9076 0
M  V30 858 N 81.2955 -0.223234 1.56011 0
M  V30 859 C 82.2585 -1.26014 1.9145 0
M  V30 860 C 83.2585 -1.3989 0.792937 0
M  V30 861 O 84.4485 -1.38184 1.0607 0
M  V30 862 C 81.5805 -2.63422 2.16383 0
M  V30 863 H 82.7735 -0.95796 2.84189 0
M  V30 864 H 80.3265 -0.463576 1.49267 0
M  V30 865 H 81.0615 -2.98741 1.2619 0
M  V30 866 H 80.8465 -2.54728 2.98088 0
M  V30 867 H 82.3365 -3.38249 2.44903 0
M  V30 868 N 82.7736 -1.49793 -0.48987 0
M  V30 869 C 84.0226 -1.59085 -1.23995 0
M  V30 870 C 84.3356 -0.287907 -1.9347 0
M  V30 871 O 85.5416 -0.259506 -2.70257 0
M  V30 872 C 83.9976 -2.80736 -2.252 0
M  V30 873 C 83.6056 -4.17833 -1.61614 0
M  V30 874 C 85.3496 -2.99364 -3.00967 0
M  V30 875 C 83.2566 -5.30693 -2.60996 0
M  V30 876 H 82.1866 -0.592372 -0.466488 0
M  V30 877 H 84.8376 -1.76197 -0.51252 0
M  V30 878 H 83.2196 -2.57142 -3.01154 0
M  V30 879 H 84.3936 -4.51608 -0.915774 0
M  V30 880 H 82.7086 -4.04656 -0.981977 0
M  V30 881 H 85.3056 -3.80851 -3.75308 0
M  V30 882 H 85.6486 -2.10356 -3.59244 0
M  V30 883 H 86.1816 -3.2305 -2.32128 0
M  V30 884 H 82.9206 -6.21796 -2.07485 0
M  V30 885 H 82.4406 -5.01359 -3.2924 0
M  V30 886 H 84.1196 -5.6049 -3.23202 0
M  V30 887 N 84.2517 0.741722 -1.39055 0
M  V30 888 C 85.5287 1.49252 -1.26425 0
M  V30 889 C 85.9087 2.10705 0.129144 0
M  V30 890 O 85.2567 1.98045 1.13976 0
M  V30 891 C 85.4667 2.54934 -2.38347 0
M  V30 892 C 86.8147 3.21506 -2.77343 0
M  V30 893 O 87.8387 2.65245 -2.37747 0
M  V30 894 O 86.6977 4.23294 -3.45665 0
M  V30 895 H 83.7917 0.662451 -0.495064 0
M  V30 896 H 86.3377 0.776121 -1.50912 0
M  V30 897 H 85.1097 2.07857 -3.31529 0
M  V30 898 H 84.7327 3.34141 -2.15489 0
M  V30 899 N 85.7298 1.2412 0.971189 0
M  V30 900 C 86.6928 1.03156 2.04674 0
M  V30 901 C 87.6928 -0.00990322 1.60797 0
M  V30 902 O 88.8828 0.230729 1.72665 0
M  V30 903 C 86.0148 0.562765 3.36223 0
M  V30 904 H 87.2078 1.98614 2.24705 0
M  V30 905 H 84.7608 1.06293 1.14593 0
M  V30 906 H 85.4958 -0.395176 3.21883 0
M  V30 907 H 85.2808 1.31441 3.69413 0
M  V30 908 H 86.7708 0.437015 4.15307 0
M  V30 909 N 87.2079 -1.17134 1.05439 0
M  V30 910 C 88.1709 -2.19439 0.661764 0
M  V30 911 C 89.1709 -1.58199 -0.288042 0
M  V30 912 O 90.3609 -1.74053 -0.0715803 0
M  V30 913 C 87.4929 -3.40889 -0.0276209 0
M  V30 914 H 88.6859 -2.55688 1.56728 0
M  V30 915 H 86.2389 -1.31259 0.848567 0
M  V30 916 H 86.9739 -3.10187 -0.94629 0
M  V30 917 H 86.7589 -3.86586 0.655238 0
M  V30 918 H 88.2489 -4.16603 -0.288342 0
M  V30 919 N 88.686 -0.835752 -1.33615 0
M  V30 920 C 90.102 -0.523139 -1.50783 0
M  V30 921 C 90.302 0.950171 -1.77691 0
M  V30 922 O 89.358 1.73411 -1.83534 0
M  V30 923 C 90.671 -1.39378 -2.66448 0
M  V30 924 C 92.219 -1.39223 -2.80332 0
M  V30 925 C 92.694 -2.24765 -3.99055 0
M  V30 926 N 94.185 -2.22458 -4.06284 0
M  V30 927 C 94.92 -2.85386 -4.97336 0
M  V30 928 N 94.416 -3.57354 -5.93523 0
M  V30 929 N 96.209 -2.74872 -4.90308 0
M  V30 930 H 88.36 -1.78952 -1.14411 0
M  V30 931 H 90.623 -0.763297 -0.562212 0
M  V30 932 H 90.329 -2.44061 -2.53234 0
M  V30 933 H 90.203 -1.0676 -3.61776 0
M  V30 934 H 92.59 -0.353136 -2.92979 0
M  V30 935 H 92.671 -1.75846 -1.85773 0
M  V30 936 H 92.315 -3.28732 -3.87167 0
M  V30 937 H 92.245 -1.85485 -4.92852 0
M  V30 938 H 94.736 -1.70119 -3.37443 0
M  V30 939 H 95.049 -4.02584 -6.59656 0
M  V30 940 H 93.394 -3.61461 -5.93608 0
M  V30 941 H 96.585 -2.18213 -4.14126 0
M  V30 942 H 96.758 -3.24199 -5.61069 0
M  V30 943 N 90.1641 1.46063 -0.591896 0
M  V30 944 C 91.0961 2.28539 0.174001 0
M  V30 945 C 92.1091 1.39047 0.846753 0
M  V30 946 O 93.2981 1.63564 0.714774 0
M  V30 947 C 90.3981 3.14347 1.26645 0
M  V30 948 C 89.5711 4.32021 0.683856 0
M  V30 949 C 88.6301 4.99157 1.66518 0
M  V30 950 O 87.6561 5.56458 1.19763 0
M  V30 951 N 88.8581 4.97005 2.99943 0
M  V30 952 H 91.6231 2.94911 -0.533633 0
M  V30 953 H 89.1841 1.56077 -0.430294 0
M  V30 954 H 91.1761 3.56125 1.92242 0
M  V30 955 H 89.7461 2.49988 1.87682 0
M  V30 956 H 88.9661 3.93915 -0.1498 0
M  V30 957 H 90.2541 5.08059 0.274567 0
M  V30 958 H 89.6521 4.51714 3.40545 0
M  V30 959 H 88.2091 5.42696 3.61004 0
M  V30 960 N 91.6422 0.330177 1.54103 0
M  V30 961 C 92.6052 -0.520144 2.2322 0
M  V30 962 C 93.6052 -1.03828 1.22786 0
M  V30 963 O 94.7952 -0.929652 1.4732 0
M  V30 964 C 91.9272 -1.72317 2.94142 0
M  V30 965 H 93.1202 0.0841605 2.99782 0
M  V30 966 H 90.6732 0.0813433 1.56088 0
M  V30 967 H 91.4082 -2.36653 2.21734 0
M  V30 968 H 91.1932 -1.35898 3.67796 0
M  V30 969 H 92.6832 -2.3266 3.46784 0
M  V30 970 N 93.1203 -1.57491 0.0584922 0
M  V30 971 C 94.0673 -2.11958 -0.913376 0
M  V30 972 C 95.0373 -1.02875 -1.30407 0
M  V30 973 O 96.2223 -1.30464 -1.39226 0
M  V30 974 C 93.3623 -2.67497 -2.18035 0
M  V30 975 C 92.4753 -3.90691 -1.84349 0
M  V30 976 C 91.6103 -4.3452 -3.05559 0
M  V30 977 C 90.6493 -5.50395 -2.67827 0
M  V30 978 N 89.7863 -5.89244 -3.81754 0
M  V30 979 H 94.6263 -2.94704 -0.442017 0
M  V30 980 H 92.1633 -1.45643 -0.206545 0
M  V30 981 H 94.1213 -2.978 -2.92183 0
M  V30 982 H 92.7513 -1.87537 -2.62735 0
M  V30 983 H 91.8033 -3.66934 -1.00319 0
M  V30 984 H 93.1153 -4.7489 -1.5258 0
M  V30 985 H 92.2693 -4.66414 -3.87998 0
M  V30 986 H 91.0083 -3.49147 -3.40511 0
M  V30 987 H 90.0133 -5.18165 -1.83806 0
M  V30 988 H 91.2383 -6.3749 -2.34059 0
M  V30 989 H 89.1843 -5.06823 -4.16493 0
M  V30 990 H 89.1013 -6.68151 -3.53708 0
M  V30 991 H 90.3693 -6.25756 -4.64811 0
M  V30 992 N 94.5984 0.214957 -1.56127 0
M  V30 993 C 95.5614 1.24997 -1.92116 0
M  V30 994 C 96.5614 1.39467 -0.800344 0
M  V30 995 O 97.7514 1.37619 -1.06802 0
M  V30 996 C 94.8834 2.62271 -2.17777 0
M  V30 997 H 96.0764 0.942875 -2.84693 0
M  V30 998 H 93.6294 0.455654 -1.49511 0
M  V30 999 H 94.3644 2.98068 -1.27773 0
M  V30 1000 H 94.1494 2.53143 -2.99434 0
M  V30 1001 H 95.6394 3.36946 -2.46693 0
M  V30 1002 N 96.0765 1.50051 0.48192 0
M  V30 1003 C 97.0395 1.67584 1.5636 0
M  V30 1004 C 98.0395 0.546894 1.51214 0
M  V30 1005 O 99.2295 0.813725 1.54026 0
M  V30 1006 C 96.3615 1.691 2.96003 0
M  V30 1007 H 97.5545 2.64078 1.42136 0
M  V30 1008 H 95.1075 1.39369 0.707533 0
M  V30 1009 H 95.8425 0.742589 3.15684 0
M  V30 1010 H 95.6275 2.51105 3.01146 0
M  V30 1011 H 97.1175 1.84656 3.74556 0
M  V30 1012 N 97.5546 -0.734337 1.39446 0
M  V30 1013 C 98.4866 -1.85861 1.34121 0
M  V30 1014 C 99.4996 -1.60871 0.249864 0
M  V30 1015 O 100.689 -1.71093 0.508865 0
M  V30 1016 C 97.7886 -3.21899 1.05991 0
M  V30 1017 C 96.9616 -3.74239 2.26415 0
M  V30 1018 C 96.0206 -4.88841 1.94733 0
M  V30 1019 O 95.0466 -5.02468 2.67422 0
M  V30 1020 N 96.2486 -5.73261 0.913884 0
M  V30 1021 H 99.0136 -1.90934 2.31007 0
M  V30 1022 H 96.5746 -0.915102 1.33557 0
M  V30 1023 H 98.5666 -3.96136 0.828147 0
M  V30 1024 H 97.1366 -3.12091 0.178361 0
M  V30 1025 H 96.3566 -2.91347 2.65539 0
M  V30 1026 H 97.6446 -4.05942 3.06738 0
M  V30 1027 H 97.0426 -5.64842 0.311476 0
M  V30 1028 H 95.5996 -6.47563 0.742015 0
M  V30 1029 N 99.0327 -1.24633 -0.964593 0
M  V30 1030 C 100.261 -1.11501 -1.74285 0
M  V30 1031 C 100.676 0.332165 -1.85855 0
M  V30 1032 O 100.033 1.22903 -1.34911 0
M  V30 1033 C 100.084 -1.75258 -3.16175 0
M  V30 1034 O 99.8047 -3.14318 -3.05182 0
M  V30 1035 C 101.306 -1.67776 -4.10324 0
M  V30 1036 H 98.5257 -0.389407 -0.546446 0
M  V30 1037 H 101.07 -1.64801 -1.21083 0
M  V30 1038 H 99.2247 -1.25954 -3.66353 0
M  V30 1039 H 99.6387 -3.4551 -3.94618 0
M  V30 1040 H 101.113 -2.17064 -5.0753 0
M  V30 1041 H 101.59 -0.639584 -4.34518 0
M  V30 1042 H 102.196 -2.16522 -3.66058 0
M  V30 1043 N 100.511 1.16574 -1.06058 0
M  V30 1044 C 101.444 2.19798 -0.61352 0
M  V30 1045 C 102.422 1.58509 0.362453 0
M  V30 1046 O 103.606 1.86527 0.271994 0
M  V30 1047 C 100.733 3.3855 0.100915 0
M  V30 1048 C 99.7788 4.18317 -0.831438 0
M  V30 1049 S 100.612 4.82375 -2.32539 0
M  V30 1050 C 101.768 6.04508 -1.62238 0
M  V30 1051 H 102.001 2.5738 -1.48805 0
M  V30 1052 H 99.5338 1.27327 -0.873338 0
M  V30 1053 H 101.492 4.07358 0.506898 0
M  V30 1054 H 100.153 2.99338 0.951604 0
M  V30 1055 H 99.3458 5.03232 -0.278071 0
M  V30 1056 H 98.9478 3.5499 -1.17719 0
M  V30 1057 H 101.24 6.71133 -0.926622 0
M  V30 1058 H 102.183 6.64389 -2.44934 0
M  V30 1059 H 102.591 5.53559 -1.106 0
M  V30 1060 N 101.989 0.842826 1.3317 0
M  V30 1061 C 103.214 0.453129 2.02389 0
M  V30 1062 C 103.639 -0.939105 1.6298 0
M  V30 1063 O 102.997 -1.61472 0.8244 0
M  V30 1064 C 103.045 0.586094 3.55805 0
M  V30 1065 O 102.149 -0.386029 4.10589 0
M  V30 1066 H 101.49 0.183664 0.638094 0
M  V30 1067 H 104.02 1.13875 1.69981 0
M  V30 1068 H 104.03 0.469209 4.05293 0
M  V30 1069 H 102.705 1.6014 3.83833 0
M  V30 1070 H 101.282 -0.226371 3.72212 0
M  V30 1071 N 103.467 -1.45747 0.599634 0
M  V30 1072 C 104.695 -2.06668 0.0978551 0
M  V30 1073 C 105.11 -1.44562 -1.21439 0
M  V30 1074 O 104.467 -0.556923 -1.73795 0
M  V30 1075 C 104.518 -3.61456 -0.0567044 0
M  V30 1076 O 104.239 -4.21242 1.20361 0
M  V30 1077 C 105.74 -4.39345 -0.590869 0
M  V30 1078 H 102.96 -0.667825 0.0651943 0
M  V30 1079 H 105.504 -1.87115 0.82511 0
M  V30 1080 H 103.659 -3.80378 -0.734251 0
M  V30 1081 H 104.073 -5.14323 1.02821 0
M  V30 1082 H 105.547 -5.48182 -0.648131 0
M  V30 1083 H 106.024 -4.08568 -1.61147 0
M  V30 1084 H 106.63 -4.25268 0.0523679 0
M  V30 1085 N 104.945 -0.338344 -1.53925 0
M  V30 1086 C 106.17 0.263987 -2.05713 0
M  V30 1087 C 106.595 1.43847 -1.21201 0
M  V30 1088 O 105.953 1.79904 -0.224535 0
M  V30 1089 C 106.001 0.662 -3.54471 0
M  V30 1090 O 105.105 1.76265 -3.72833 0
M  V30 1091 H 104.446 0.0448722 -0.662482 0
M  V30 1092 H 106.976 -0.491048 -1.9862 0
M  V30 1093 H 106.986 0.940594 -3.9701 0
M  V30 1094 H 105.661 -0.196937 -4.15433 0
M  V30 1095 H 104.238 1.48173 -3.42198 0
M  V30 1096 N 106.423 1.57458 -0.0668435 0
M  V30 1097 C 107.386 2.11323 0.887422 0
M  V30 1098 C 108.386 1.03618 1.22964 0
M  V30 1099 O 109.576 1.29626 1.16373 0
M  V30 1100 C 106.708 2.61048 2.19242 0
M  V30 1101 H 107.901 2.96942 0.420194 0
M  V30 1102 H 105.454 1.55239 0.181793 0
M  V30 1103 H 106.189 1.78868 2.70512 0
M  V30 1104 H 105.974 3.39769 1.95702 0
M  V30 1105 H 107.464 3.02814 2.87565 0
M  V30 1106 N 107.901 -0.206675 1.56239 0
M  V30 1107 C 109.312 -0.772383 1.69974 0
M  V30 1108 C 109.663 -1.84353 0.671436 0
M  V30 1109 O 108.788 -2.15695 -0.174491 0
M  V30 1110 C 109.383 -1.40779 3.08167 0
M  V30 1111 C 107.942 -1.92072 3.23706 0
M  V30 1112 C 107.089 -0.786347 2.65917 0
M  V30 1113 H 110.04 0.0182223 1.5869 0
M  V30 1114 H 110.061 -2.27696 3.04852 0
M  V30 1115 H 109.573 -0.627958 3.82986 0
M  V30 1116 H 107.674 -2.7281 2.53782 0
M  V30 1117 H 107.787 -2.09046 4.31087 0
M  V30 1118 H 106.151 -1.1976 2.24788 0
M  V30 1119 H 106.934 -0.0189416 3.43295 0
M  V30 1120 N 109.379 -1.50304 -0.473955 0
M  V30 1121 C 110.79 -1.54042 -1.0549 0
M  V30 1122 C 111.141 -0.342248 -1.93192 0
M  V30 1123 O 110.266 0.545157 -2.09421 0
M  V30 1124 C 110.861 -2.79152 -1.91989 0
M  V30 1125 C 109.42 -2.8558 -2.45196 0
M  V30 1126 C 108.567 -2.48295 -1.2347 0
M  V30 1127 H 111.518 -1.5661 -0.256693 0
M  V30 1128 H 111.539 -2.60845 -2.7702 0
M  V30 1129 H 111.051 -3.66339 -1.28131 0
M  V30 1130 H 109.152 -2.02738 -3.12615 0
M  V30 1131 H 109.265 -3.88403 -2.80499 0
M  V30 1132 H 107.629 -2.00669 -1.56856 0
M  V30 1133 H 108.412 -3.37787 -0.612789 0
M  V30 1134 N 110.857 0.726932 -1.39834 0
M  V30 1135 C 112.268 1.30558 -1.3346 0
M  V30 1136 C 112.619 1.962 -0.00273003 0
M  V30 1137 O 111.744 1.96826 0.899371 0
M  V30 1138 C 112.339 2.37404 -2.41713 0
M  V30 1139 C 110.898 2.90921 -2.38835 0
M  V30 1140 C 110.045 1.64578 -2.2318 0
M  V30 1141 H 112.996 0.523862 -1.49804 0
M  V30 1142 H 113.017 3.17984 -2.08966 0
M  V30 1143 H 112.529 1.89599 -3.38635 0
M  V30 1144 H 110.63 3.42985 -1.45575 0
M  V30 1145 H 110.743 3.43487 -3.33997 0
M  V30 1146 H 109.107 1.89219 -1.70494 0
M  V30 1147 H 109.89 1.18814 -3.22084 0
M  V30 1148 N 112.336 1.25143 0.95797 0
M  V30 1149 C 113.582 1.09855 1.70469 0
M  V30 1150 C 113.915 -0.360187 1.90831 0
M  V30 1151 O 113.19 -1.26568 1.47685 0
M  V30 1152 C 113.473 1.8497 3.08963 0
M  V30 1153 C 113.326 3.38652 2.96032 0
M  V30 1154 C 114.645 1.63016 4.08795 0
M  V30 1155 H 111.764 0.400465 0.618706 0
M  V30 1156 H 114.406 1.53933 1.11376 0
M  V30 1157 H 112.556 1.47505 3.59409 0
M  V30 1158 H 114.228 3.85772 2.52938 0
M  V30 1159 H 112.471 3.66534 2.32025 0
M  V30 1160 H 113.142 3.8642 3.94187 0
M  V30 1161 H 115.618 1.95625 3.67247 0
M  V30 1162 H 114.494 2.18015 5.03747 0
M  V30 1163 H 114.755 0.570692 4.38401 0
M  V30 1164 N 113.814 -1.1601 1.06675 0
M  V30 1165 C 115.062 -1.86264 0.784229 0
M  V30 1166 C 115.383 -1.82328 -0.691488 0
M  V30 1167 O 114.653 -1.25947 -1.50047 0
M  V30 1168 H 113.233 -0.689621 0.28711 0
M  V30 1169 H 115.895 -1.40664 1.34906 0
M  V30 1170 H 114.991 -2.91595 1.11259 0
M  V30 1171 N 115.292 -0.849877 -1.32721 0
M  V30 1172 C 116.517 -0.463856 -2.02146 0
M  V30 1173 C 116.942 0.930449 -1.63476 0
M  V30 1174 O 116.3 1.61033 -0.832952 0
M  V30 1175 C 116.348 -0.604955 -3.55489 0
M  V30 1176 O 115.452 0.36425 -4.10788 0
M  V30 1177 H 114.793 -0.187046 -0.637111 0
M  V30 1178 H 117.323 -1.14775 -1.69375 0
M  V30 1179 H 117.333 -0.490696 -4.05038 0
M  V30 1180 H 116.008 -1.62174 -3.82978 0
M  V30 1181 H 114.585 0.206628 -3.72327 0
M  V30 1182 N 116.77 1.45427 -0.607355 0
M  V30 1183 C 117.7 2.3329 0.0989352 0
M  V30 1184 C 118.681 1.46816 0.859007 0
M  V30 1185 O 119.866 1.75588 0.829604 0
M  V30 1186 C 116.996 3.29518 1.09705 0
M  V30 1187 C 115.95 4.25626 0.450206 0
M  V30 1188 C 115.276 5.11542 1.55655 0
M  V30 1189 C 116.576 5.18505 -0.628455 0
M  V30 1190 H 118.27 2.92595 -0.634716 0
M  V30 1191 H 115.816 1.40696 -0.306681 0
M  V30 1192 H 117.769 3.89855 1.59971 0
M  V30 1193 H 116.493 2.68372 1.86129 0
M  V30 1194 H 115.152 3.66586 -0.0315886 0
M  V30 1195 H 114.8 4.46765 2.31107 0
M  V30 1196 H 114.5 5.76647 1.12925 0
M  V30 1197 H 116.024 5.74748 2.06148 0
M  V30 1198 H 117.438 5.72916 -0.209877 0
M  V30 1199 H 115.835 5.92085 -0.977489 0
M  V30 1200 H 116.905 4.60948 -1.50514 0
M  V30 1201 N 118.248 0.346503 1.53744 0
M  V30 1202 C 119.473 -0.253074 2.0585 0
M  V30 1203 C 119.898 -1.43202 1.21962 0
M  V30 1204 O 119.256 -1.79783 0.234073 0
M  V30 1205 C 119.304 -0.643193 3.54817 0
M  V30 1206 O 118.408 -1.74286 3.73762 0
M  V30 1207 H 117.749 -0.0413583 0.662711 0
M  V30 1208 H 120.279 0.501574 1.98357 0
M  V30 1209 H 120.289 -0.919526 3.97503 0
M  V30 1210 H 118.964 0.218966 4.15323 0
M  V30 1211 H 117.541 -1.46356 3.42979 0
M  V30 1212 N 119.726 -1.57421 0.075193 0
M  V30 1213 C 120.658 -2.09904 -0.920483 0
M  V30 1214 C 121.671 -1.03191 -1.25918 0
M  V30 1215 O 122.86 -1.30695 -1.21577 0
M  V30 1216 C 119.96 -2.54726 -2.23534 0
M  V30 1217 C 119.133 -3.8505 -2.07498 0
M  V30 1218 C 118.192 -4.15929 -3.22319 0
M  V30 1219 O 117.218 -4.85474 -2.9716 0
M  V30 1220 N 118.42 -3.69745 -4.47514 0
M  V30 1221 H 121.185 -2.95954 -0.472359 0
M  V30 1222 H 118.746 -1.61523 -0.110444 0
M  V30 1223 H 120.738 -2.72443 -2.9926 0
M  V30 1224 H 119.308 -1.73795 -2.59835 0
M  V30 1225 H 118.528 -3.76679 -1.16219 0
M  V30 1226 H 119.816 -4.70348 -1.94038 0
M  V30 1227 H 119.214 -3.13569 -4.7084 0
M  V30 1228 H 117.771 -3.92655 -5.20255 0
M  V30 1229 N 121.204 0.198386 -1.56346 0
M  V30 1230 C 122.62 0.549085 -1.49857 0
M  V30 1231 C 122.82 1.86016 -0.774611 0
M  V30 1232 O 121.876 2.50416 -0.323776 0
M  V30 1233 C 123.189 0.606868 -2.94512 0
M  V30 1234 C 124.737 0.695925 -3.05165 0
M  V30 1235 C 125.212 0.784848 -4.51225 0
M  V30 1236 N 126.703 0.848463 -4.55363 0
M  V30 1237 C 127.438 0.937378 -5.65686 0
M  V30 1238 N 126.934 0.9888 -6.85707 0
M  V30 1239 N 128.727 0.974312 -5.53592 0
M  V30 1240 H 120.878 -0.661655 -2.01831 0
M  V30 1241 H 123.141 -0.235261 -0.918344 0
M  V30 1242 H 122.847 -0.28732 -3.50524 0
M  V30 1243 H 122.721 1.46268 -3.47686 0
M  V30 1244 H 125.108 1.58055 -2.49204 0
M  V30 1245 H 125.189 -0.186022 -2.55123 0
M  V30 1246 H 124.833 -0.0954072 -5.0781 0
M  V30 1247 H 124.763 1.68255 -4.98997 0
M  V30 1248 H 127.254 0.818103 -3.68938 0
M  V30 1249 H 127.567 1.05707 -7.65536 0
M  V30 1250 H 125.912 0.957534 -6.88372 0
M  V30 1251 H 129.103 0.930954 -4.58749 0
M  V30 1252 H 129.276 1.04015 -6.39597 0
M  V30 1253 N 122.682 1.50554 0.465978 0
M  V30 1254 C 123.629 1.6979 1.56333 0
M  V30 1255 C 124.599 0.539239 1.57103 0
M  V30 1256 O 125.784 0.770401 1.74555 0
M  V30 1257 C 122.924 1.80273 2.94271 0
M  V30 1258 C 122.037 3.07674 3.0325 0
M  V30 1259 C 121.172 3.08922 4.32135 0
M  V30 1260 C 120.211 4.30755 4.34875 0
M  V30 1261 N 119.348 4.29714 5.55239 0
M  V30 1262 H 124.188 2.63472 1.39235 0
M  V30 1263 H 121.725 1.30602 0.676873 0
M  V30 1264 H 123.683 1.84332 3.74269 0
M  V30 1265 H 122.313 0.900258 3.09992 0
M  V30 1266 H 121.365 3.13062 2.16094 0
M  V30 1267 H 122.677 3.97642 3.01135 0
M  V30 1268 H 121.831 3.11738 5.20485 0
M  V30 1269 H 120.57 2.16792 4.36866 0
M  V30 1270 H 119.575 4.28146 3.44922 0
M  V30 1271 H 120.8 5.24117 4.31831 0
M  V30 1272 H 118.746 3.4044 5.60746 0
M  V30 1273 H 118.663 5.13456 5.54886 0
M  V30 1274 H 119.931 4.36683 6.457 0
M  V30 1275 N 124.16 -0.719506 1.40217 0
M  V30 1276 C 125.576 -1.02707 1.22161 0
M  V30 1277 C 125.776 -2.0128 0.0940557 0
M  V30 1278 O 124.832 -2.46452 -0.549318 0
M  V30 1279 C 126.145 -1.57454 2.56181 0
M  V30 1280 C 127.693 -1.69458 2.63159 0
M  V30 1281 C 128.168 -2.27611 3.97438 0
M  V30 1282 N 129.659 -2.35002 3.99159 0
M  V30 1283 C 130.394 -2.80972 4.99842 0
M  V30 1284 N 129.89 -3.26723 6.10921 0
M  V30 1285 N 131.683 -2.80321 4.87213 0
M  V30 1286 H 123.834 -0.0660492 2.12297 0
M  V30 1287 H 126.097 -0.0919077 0.943534 0
M  V30 1288 H 125.803 -0.924873 3.39321 0
M  V30 1289 H 125.677 -2.56036 2.76993 0
M  V30 1290 H 128.064 -2.33543 1.80393 0
M  V30 1291 H 128.145 -0.694867 2.46181 0
M  V30 1292 H 127.789 -1.6415 4.80643 0
M  V30 1293 H 127.719 -3.2829 4.11744 0
M  V30 1294 H 130.21 -2.02685 3.18947 0
M  V30 1295 H 130.523 -3.60355 6.8364 0
M  V30 1296 H 128.868 -3.24692 6.14492 0
M  V30 1297 H 132.059 -2.43912 3.9953 0
M  V30 1298 H 132.232 -3.15831 5.65822 0
M  V30 1299 N 125.638 -1.25649 -0.95132 0
M  V30 1300 C 126.57 -1.02112 -2.05197 0
M  V30 1301 C 127.583 0.0150571 -1.62793 0
M  V30 1302 O 128.772 -0.223874 -1.77091 0
M  V30 1303 C 125.872 -0.522361 -3.3485 0
M  V30 1304 C 125.045 -1.62546 -4.06076 0
M  V30 1305 C 124.104 -1.12649 -5.14001 0
M  V30 1306 O 123.13 -1.82156 -5.39266 0
M  V30 1307 N 124.332 0.03047 -5.80492 0
M  V30 1308 H 127.097 -1.96885 -2.25957 0
M  V30 1309 H 124.658 -1.16899 -1.1201 0
M  V30 1310 H 126.65 -0.172961 -4.0433 0
M  V30 1311 H 125.22 0.33151 -3.10837 0
M  V30 1312 H 124.44 -2.14628 -3.30649 0
M  V30 1313 H 125.728 -2.36644 -4.50419 0
M  V30 1314 H 125.126 0.611169 -5.62389 0
M  V30 1315 H 123.683 0.320875 -6.5101 0
M  V30 1316 N 127.117 1.15442 -1.07289 0
M  V30 1317 C 128.049 2.19773 -0.650585 0
M  V30 1318 C 129.062 1.60076 0.296572 0
M  V30 1319 O 130.251 1.78293 0.0859905 0
M  V30 1320 C 127.351 3.38838 0.0650398 0
M  V30 1321 C 126.524 4.2808 -0.898141 0
M  V30 1322 C 125.583 5.2574 -0.219926 0
M  V30 1323 O 124.609 5.62654 -0.860773 0
M  V30 1324 N 125.811 5.71205 1.03466 0
M  V30 1325 H 128.576 2.56622 -1.54808 0
M  V30 1326 H 126.137 1.30551 -0.957494 0
M  V30 1327 H 128.129 4.01222 0.529415 0
M  V30 1328 H 126.699 3.00409 0.864466 0
M  V30 1329 H 125.919 3.62804 -1.54165 0
M  V30 1330 H 127.207 4.84577 -1.5512 0
M  V30 1331 H 126.605 5.43325 1.57526 0
M  V30 1332 H 125.162 6.35633 1.44272 0
M  V30 1333 N 128.595 0.856903 1.32268 0
M  V30 1334 C 129.825 0.47475 2.01071 0
M  V30 1335 C 130.233 -0.933746 1.64553 0
M  V30 1336 O 129.576 -1.62114 0.863989 0
M  V30 1337 C 129.638 0.536746 3.55471 0
M  V30 1338 C 129.302 1.90453 4.15423 0
M  V30 1339 C 130.299 2.87029 4.33486 0
M  V30 1340 C 127.984 2.20229 4.51447 0
M  V30 1341 C 129.978 4.11532 4.86744 0
M  V30 1342 C 127.665 3.44984 5.0441 0
M  V30 1343 C 128.663 4.40452 5.22007 0
M  V30 1344 O 128.351 5.62998 5.73837 0
M  V30 1345 H 128.083 0.184778 0.650256 0
M  V30 1346 H 130.637 1.15615 1.69771 0
M  V30 1347 H 128.867 -0.20152 3.86175 0
M  V30 1348 H 130.556 0.169875 4.05544 0
M  V30 1349 H 131.322 2.6533 4.05986 0
M  V30 1350 H 127.201 1.46705 4.37034 0
M  V30 1351 H 130.745 4.86056 5.00395 0
M  V30 1352 H 126.642 3.66532 5.31342 0
M  V30 1353 H 127.41 5.64987 5.92226 0
M  V30 1354 N 130.073 -1.45103 0.615059 0
M  V30 1355 C 131.036 -2.29025 -0.0895485 0
M  V30 1356 C 132.036 -1.40174 -0.787906 0
M  V30 1357 O 133.226 -1.62217 -0.634933 0
M  V30 1358 C 130.358 -3.21376 -1.13711 0
M  V30 1359 H 131.551 -2.92807 0.648382 0
M  V30 1360 H 129.104 -1.51749 0.374444 0
M  V30 1361 H 129.839 -2.6241 -1.90556 0
M  V30 1362 H 129.624 -3.86834 -0.640475 0
M  V30 1363 H 131.114 -3.84459 -1.63036 0
M  V30 1364 N 131.551 -0.354651 -1.53558 0
M  V30 1365 C 132.498 0.496968 -2.25386 0
M  V30 1366 C 133.468 1.0865 -1.25636 0
M  V30 1367 O 134.653 1.12104 -1.54394 0
M  V30 1368 C 131.793 1.63637 -3.03837 0
M  V30 1369 C 130.906 1.07307 -4.18461 0
M  V30 1370 C 130.041 2.18068 -4.84376 0
M  V30 1371 C 129.08 1.59147 -5.91049 0
M  V30 1372 N 128.217 2.63695 -6.50699 0
M  V30 1373 H 133.057 -0.122075 -2.9775 0
M  V30 1374 H 130.594 -0.0720154 -1.46924 0
M  V30 1375 H 132.552 2.30734 -3.47589 0
M  V30 1376 H 131.182 2.22623 -2.33749 0
M  V30 1377 H 130.234 0.292708 -3.79272 0
M  V30 1378 H 131.546 0.602193 -4.95152 0
M  V30 1379 H 130.7 2.93007 -5.31255 0
M  V30 1380 H 129.439 2.68504 -4.07133 0
M  V30 1381 H 128.444 0.827175 -5.43542 0
M  V30 1382 H 129.669 1.09549 -6.70206 0
M  V30 1383 H 127.615 3.13365 -5.76315 0
M  V30 1384 H 127.532 2.21263 -7.22896 0
M  V30 1385 H 128.8 3.3837 -7.02229 0
M  V30 1386 N 133.029 1.57378 -0.0835403 0
M  V30 1387 C 134.254 1.98682 0.594987 0
M  V30 1388 C 134.679 0.961969 1.61641 0
M  V30 1389 O 134.037 -0.0709989 1.81161 0
M  V30 1390 C 134.085 3.38988 1.2296 0
M  V30 1391 O 133.189 3.39208 2.34546 0
M  V30 1392 H 132.53 0.646368 0.152002 0
M  V30 1393 H 135.06 2.03961 -0.161533 0
M  V30 1394 H 135.07 3.76431 1.57366 0
M  V30 1395 H 133.745 4.13107 0.481228 0
M  V30 1396 H 132.322 3.13548 2.01846 0
M  V30 1397 N 134.507 -0.190092 1.56449 0
M  V30 1398 C 135.454 -1.23557 1.94942 0
M  V30 1399 C 136.424 -1.44972 0.810696 0
M  V30 1400 O 137.609 -1.58023 1.06927 0
M  V30 1401 C 134.749 -2.57416 2.2985 0
M  V30 1402 C 133.862 -2.43537 3.5681 0
M  V30 1403 C 132.997 -3.70134 3.81017 0
M  V30 1404 C 132.036 -3.51109 5.01387 0
M  V30 1405 N 131.173 -4.6973 5.21822 0
M  V30 1406 H 136.013 -0.900304 2.84075 0
M  V30 1407 H 133.55 -0.43318 1.40577 0
M  V30 1408 H 135.508 -3.35409 2.48106 0
M  V30 1409 H 134.138 -2.88975 1.43852 0
M  V30 1410 H 133.19 -1.56816 3.46573 0
M  V30 1411 H 134.502 -2.25415 4.4496 0
M  V30 1412 H 133.656 -4.56566 3.9954 0
M  V30 1413 H 132.395 -3.91215 2.91207 0
M  V30 1414 H 131.4 -2.63063 4.82782 0
M  V30 1415 H 132.625 -3.31468 5.9271 0
M  V30 1416 H 130.571 -4.91065 4.34961 0
M  V30 1417 H 130.488 -4.54452 6.0416 0
M  V30 1418 H 131.756 -5.57499 5.44808 0
M  V30 1419 N 135.985 -1.50799 -0.457987 0
M  V30 1420 C 136.932 -1.70617 -1.5543 0
M  V30 1421 C 137.902 -0.547562 -1.56815 0
M  V30 1422 O 139.087 -0.779647 -1.74144 0
M  V30 1423 C 136.227 -1.81831 -2.93311 0
M  V30 1424 C 135.34 -3.09278 -3.01615 0
M  V30 1425 C 134.475 -3.11209 -4.30491 0
M  V30 1426 C 133.514 -4.33055 -4.32585 0
M  V30 1427 N 132.651 -4.32652 -5.52952 0
M  V30 1428 H 137.491 -2.64207 -1.37836 0
M  V30 1429 H 135.028 -1.30959 -0.669937 0
M  V30 1430 H 136.986 -1.86314 -3.73287 0
M  V30 1431 H 135.616 -0.916685 -3.0951 0
M  V30 1432 H 134.668 -3.14203 -2.1443 0
M  V30 1433 H 135.98 -3.99233 -2.99022 0
M  V30 1434 H 135.134 -3.14494 -5.18824 0
M  V30 1435 H 133.873 -2.19106 -4.35711 0
M  V30 1436 H 132.878 -4.29969 -3.42647 0
M  V30 1437 H 134.103 -5.264 -4.29046 0
M  V30 1438 H 132.049 -3.43409 -5.58933 0
M  V30 1439 H 131.966 -5.16392 -5.52155 0
M  V30 1440 H 133.234 -4.40101 -6.43375 0
M  V30 1441 N 137.463 0.71206 -1.40597 0
M  V30 1442 C 138.395 1.83704 -1.37061 0
M  V30 1443 C 139.408 1.60453 -0.275426 0
M  V30 1444 O 140.597 1.70262 -0.53602 0
M  V30 1445 C 137.697 3.20172 -1.11099 0
M  V30 1446 C 136.87 3.7059 -2.3234 0
M  V30 1447 C 135.929 4.85681 -2.02485 0
M  V30 1448 O 134.955 4.9815 -2.75382 0
M  V30 1449 N 136.157 5.71735 -1.00497 0
M  V30 1450 H 138.922 1.87235 -2.34016 0
M  V30 1451 H 136.483 0.893739 -1.34996 0
M  V30 1452 H 138.475 3.94768 -0.891064 0
M  V30 1453 H 137.045 3.11767 -0.227989 0
M  V30 1454 H 136.265 2.87085 -2.7014 0
M  V30 1455 H 137.553 4.01011 -3.13157 0
M  V30 1456 H 136.951 5.64275 -0.401298 0
M  V30 1457 H 135.508 6.463 -0.844942 0
M  V30 1458 N 138.941 1.26152 0.944643 0
M  V30 1459 C 140.189 1.11271 1.6871 0
M  V30 1460 C 140.51 -0.345166 1.91921 0
M  V30 1461 O 139.78 -1.24387 1.51343 0
M  V30 1462 H 138.36 0.408783 0.625224 0
M  V30 1463 H 141.022 1.58427 1.1352 0
M  V30 1464 H 140.118 1.62879 2.66227 0
M  V30 1465 N 140.419 -1.14872 1.07899 0
M  V30 1466 C 141.367 -2.21857 0.698727 0
M  V30 1467 C 142.361 -1.66845 -0.293086 0
M  V30 1468 O 143.567 -1.79321 -0.156204 0
M  V30 1469 H 139.942 -0.722691 0.207899 0
M  V30 1470 H 141.913 -2.51205 1.61054 0
M  V30 1471 C 140.662 -3.47498 0.11858 0
M  V30 1472 H 139.985 -3.90154 0.872914 0
M  V30 1473 H 141.425 -4.23858 -0.109759 0
M  V30 1474 C 139.884 -3.16947 -1.1422 0
M  V30 1475 O 140.414 -3.3426 -2.22785 0
M  V30 1476 N 138.62 -2.70946 -1.05055 0
M  V30 1477 H 138.167 -2.57058 -0.167038 0
M  V30 1478 H 138.125 -2.50879 -1.89491 0
M  V30 1479 N 141.898 -0.863906 -1.31812 0
M  V30 1480 C 143.123 -0.48527 -2.01643 0
M  V30 1481 C 143.548 0.913058 -1.64453 0
M  V30 1482 O 142.906 1.6014 -0.849985 0
M  V30 1483 C 142.954 -0.642625 -3.54828 0
M  V30 1484 O 142.058 0.320659 -4.11151 0
M  V30 1485 H 141.399 -0.193793 -0.635091 0
M  V30 1486 H 143.929 -1.16565 -1.68148 0
M  V30 1487 H 143.939 -0.533628 -4.04495 0
M  V30 1488 H 142.614 -1.66227 -3.81237 0
M  V30 1489 H 141.191 0.167126 -3.72525 0
M  V30 1490 N 143.376 1.44774 -0.622745 0
M  V30 1491 C 144.601 2.06999 -0.128968 0
M  V30 1492 C 145.026 1.4617 1.1839 0
M  V30 1493 O 144.384 0.560007 1.72434 0
M  V30 1494 C 144.432 3.60595 -0.0188351 0
M  V30 1495 O 143.536 3.99398 1.02739 0
M  V30 1496 H 142.877 0.659047 -0.0809544 0
M  V30 1497 H 145.407 1.85784 -0.85705 0
M  V30 1498 H 145.417 4.07627 0.174476 0
M  V30 1499 H 144.092 4.04252 -0.977384 0
M  V30 1500 H 142.669 3.64011 0.809326 0
M  V30 1501 N 144.854 0.36279 1.53368 0
M  V30 1502 C 145.802 -0.500155 2.27159 0
M  V30 1503 C 146.796 -1.08575 1.3003 0
M  V30 1504 O 148.002 -1.02927 1.47668 0
M  V30 1505 H 144.377 -0.180009 0.730138 0
M  V30 1506 H 146.348 0.14401 2.98052 0
M  V30 1507 C 145.097 -1.62937 3.07159 0
M  V30 1508 H 144.42 -1.18806 3.8174 0
M  V30 1509 H 145.86 -2.20795 3.61975 0
M  V30 1510 C 144.319 -2.57007 2.17829 0
M  V30 1511 O 144.849 -3.59752 1.78721 0
M  V30 1512 N 143.055 -2.26131 1.82518 0
M  V30 1513 H 142.602 -1.42616 2.14519 0
M  V30 1514 H 142.56 -2.89327 1.23034 0
M  V30 1515 N 146.332 -1.57332 0.0918853 0
M  V30 1516 C 147.557 -1.98995 -0.584442 0
M  V30 1517 C 147.982 -0.970528 -1.61128 0
M  V30 1518 O 147.34 0.0613904 -1.81196 0
M  V30 1519 C 147.388 -3.39636 -1.21161 0
M  V30 1520 O 146.492 -3.40447 -2.32744 0
M  V30 1521 H 145.833 -0.647165 -0.148572 0
M  V30 1522 H 148.363 -2.03873 0.172347 0
M  V30 1523 H 148.373 -3.7726 -1.55367 0
M  V30 1524 H 147.048 -4.13356 -0.459313 0
M  V30 1525 H 145.625 -3.14614 -2.0018 0
M  V30 1526 N 147.81 0.181792 -1.56548 0
M  V30 1527 C 149.226 0.53316 -1.50431 0
M  V30 1528 C 149.426 1.85184 -0.794297 0
M  V30 1529 O 148.482 2.50058 -0.350318 0
M  V30 1530 C 149.795 0.575597 -2.9514 0
M  V30 1531 C 151.343 0.663519 -3.05886 0
M  V30 1532 C 151.818 0.736946 -4.52032 0
M  V30 1533 N 153.309 0.800118 -4.56237 0
M  V30 1534 C 154.044 0.877327 -5.66649 0
M  V30 1535 N 153.54 0.916016 -6.86718 0
M  V30 1536 N 155.333 0.915542 -5.54594 0
M  V30 1537 H 147.484 -0.683025 -2.01118 0
M  V30 1538 H 149.747 -0.244988 -0.915797 0
M  V30 1539 H 149.453 -0.324482 -3.502 0
M  V30 1540 H 149.327 1.42572 -3.49218 0
M  V30 1541 H 151.714 1.55403 -2.50867 0
M  V30 1542 H 151.795 -0.21307 -2.54911 0
M  V30 1543 H 151.439 -0.149262 -5.07681 0
M  V30 1544 H 151.369 1.62953 -5.00753 0
M  V30 1545 H 153.86 0.778926 -3.69785 0
M  V30 1546 H 154.173 0.975813 -7.66614 0
M  V30 1547 H 152.518 0.884469 -6.89349 0
M  V30 1548 H 155.709 0.882245 -4.59711 0
M  V30 1549 H 155.882 0.972253 -6.40665 0
M  V30 1550 N 149.288 1.51039 0.449983 0
M  V30 1551 C 150.699 1.557 1.03026 0
M  V30 1552 C 151.05 0.372939 1.92623 0
M  V30 1553 O 150.175 -0.511771 2.10261 0
M  V30 1554 C 150.77 2.82171 1.87523 0
M  V30 1555 C 149.329 2.89444 2.40622 0
M  V30 1556 C 148.476 2.50228 1.19504 0
M  V30 1557 H 151.427 1.56999 0.231745 0
M  V30 1558 H 151.448 2.65219 2.72835 0
M  V30 1559 H 150.96 3.68331 1.22286 0
M  V30 1560 H 149.061 2.07685 3.0935 0
M  V30 1561 H 149.174 3.92816 2.74285 0
M  V30 1562 H 147.538 2.03139 1.53644 0
M  V30 1563 H 148.321 3.38719 0.558972 0
M  V30 1564 N 150.766 -0.704594 1.40972 0
M  V30 1565 C 151.729 -1.80035 1.41845 0
M  V30 1566 C 152.729 -1.57774 0.310474 0
M  V30 1567 O 153.919 -1.64613 0.56992 0
M  V30 1568 C 151.051 -3.18284 1.22098 0
M  V30 1569 H 152.244 -1.80658 2.3938 0
M  V30 1570 H 149.797 -0.911329 1.26982 0
M  V30 1571 H 150.532 -3.23306 0.253672 0
M  V30 1572 H 150.317 -3.35843 2.02366 0
M  V30 1573 H 151.807 -3.98289 1.25522 0
M  V30 1574 N 152.244 -1.26651 -0.937939 0
M  V30 1575 C 153.66 -1.03834 -1.21205 0
M  V30 1576 C 153.86 0.234502 -2.00131 0
M  V30 1577 O 152.916 0.942767 -2.3424 0
M  V30 1578 C 154.229 -2.27167 -1.97017 0
M  V30 1579 C 155.777 -2.32101 -2.09996 0
M  V30 1580 C 156.252 -3.55136 -2.8921 0
M  V30 1581 N 157.743 -3.55632 -2.96783 0
M  V30 1582 C 158.478 -4.475 -3.58512 0
M  V30 1583 N 157.974 -5.4966 -4.21717 0
M  V30 1584 N 159.767 -4.35145 -3.55816 0
M  V30 1585 H 151.918 -2.08398 -0.410391 0
M  V30 1586 H 154.181 -0.916031 -0.244114 0
M  V30 1587 H 153.887 -3.19765 -1.46434 0
M  V30 1588 H 153.761 -2.31672 -2.97671 0
M  V30 1589 H 156.148 -1.40015 -2.59769 0
M  V30 1590 H 156.229 -2.31605 -1.08594 0
M  V30 1591 H 155.873 -4.47553 -2.40123 0
M  V30 1592 H 155.803 -3.5288 -3.90875 0
M  V30 1593 H 158.294 -2.81743 -2.51852 0
M  V30 1594 H 158.607 -6.15943 -4.66727 0
M  V30 1595 H 156.952 -5.53514 -4.20294 0
M  V30 1596 H 160.143 -3.5455 -3.05634 0
M  V30 1597 H 160.316 -5.06934 -4.03636 0
M  V30 1598 N 153.722 1.14298 -1.08507 0
M  V30 1599 C 154.685 2.17607 -0.719711 0
M  V30 1600 C 155.685 1.58907 0.245997 0
M  V30 1601 O 156.875 1.74181 0.0254081 0
M  V30 1602 C 154.007 3.40842 -0.0627695 0
M  V30 1603 H 155.2 2.51443 -1.63452 0
M  V30 1604 H 152.753 1.28963 -0.88307 0
M  V30 1605 H 153.488 3.12587 0.863716 0
M  V30 1606 H 153.273 3.84713 -0.757504 0
M  V30 1607 H 154.763 4.17221 0.177786 0
M  V30 1608 N 155.201 0.870884 1.31352 0
M  V30 1609 C 156.131 0.343096 2.30966 0
M  V30 1610 C 157.112 -0.566507 1.60389 0
M  V30 1611 O 158.297 -0.483336 1.88089 0
M  V30 1612 C 155.427 -0.455487 3.443 0
M  V30 1613 C 154.381 0.361103 4.26474 0
M  V30 1614 C 153.707 -0.563221 5.31725 0
M  V30 1615 C 155.007 1.59566 4.97329 0
M  V30 1616 H 156.701 1.17548 2.75359 0
M  V30 1617 H 154.247 0.566686 1.32381 0
M  V30 1618 H 156.2 -0.83525 4.13039 0
M  V30 1619 H 154.924 -1.32139 2.98675 0
M  V30 1620 H 153.583 0.722825 3.59403 0
M  V30 1621 H 153.231 -1.42643 4.82351 0
M  V30 1622 H 152.931 -0.0207409 5.87596 0
M  V30 1623 H 154.455 -0.939808 6.03324 0
M  V30 1624 H 155.869 1.28728 5.58661 0
M  V30 1625 H 154.266 2.07728 5.63 0
M  V30 1626 H 155.336 2.34798 4.24262 0
M  V30 1627 N 156.679 -1.44442 0.630414 0
M  V30 1628 C 157.926 -2.02052 0.134617 0
M  V30 1629 C 158.254 -1.49576 -1.24327 0
M  V30 1630 O 157.509 -0.669806 -1.83881 0
M  V30 1631 C 157.808 -3.57332 0.0697835 0
M  V30 1632 C 157.474 -4.29058 1.38635 0
M  V30 1633 C 156.136 -4.4837 1.74694 0
M  V30 1634 C 158.488 -4.69872 2.25543 0
M  V30 1635 C 155.816 -5.05756 2.97369 0
M  V30 1636 C 158.168 -5.28616 3.47487 0
M  V30 1637 C 156.832 -5.46147 3.8377 0
M  V30 1638 H 156.102 -0.739361 0.0492598 0
M  V30 1639 H 158.749 -1.73217 0.816586 0
M  V30 1640 H 157.054 -3.85577 -0.695553 0
M  V30 1641 H 158.751 -3.99637 -0.330344 0
M  V30 1642 H 155.341 -4.14357 1.09574 0
M  V30 1643 H 159.525 -4.54666 1.98979 0
M  V30 1644 H 154.781 -5.17515 3.25558 0
M  V30 1645 H 158.955 -5.59192 4.15063 0
M  V30 1646 H 156.582 -5.9038 4.7891 0
M  V30 1647 N 158.157 -0.370918 -1.53173 0
M  V30 1648 C 159.397 0.217106 -2.03244 0
M  V30 1649 C 159.761 1.45558 -1.25207 0
M  V30 1650 O 160.962 2.11957 -1.65311 0
M  V30 1651 C 159.233 0.496664 -3.53932 0
M  V30 1652 S 160.792 1.0576 -4.25864 0
M  V30 1653 H 157.61 0.0627827 -0.708223 0
M  V30 1654 H 160.212 -0.515019 -1.88594 0
M  V30 1655 H 158.916 -0.412096 -4.08326 0
M  V30 1656 H 158.447 1.25772 -3.72753 0
M  V30 1657 H 160.462 2.34145 -4.37482 0
M  V30 1658 N 159.635 1.57281 -0.100228 0
M  V30 1659 C 160.565 2.17328 0.853857 0
M  V30 1660 C 161.546 1.10804 1.2906 0
M  V30 1661 O 162.731 1.38963 1.35657 0
M  V30 1662 C 159.861 2.75772 2.11109 0
M  V30 1663 C 158.815 3.87713 1.81279 0
M  V30 1664 C 158.141 4.32882 3.13874 0
M  V30 1665 C 159.441 5.10677 1.09574 0
M  V30 1666 H 161.135 2.97305 0.353545 0
M  V30 1667 H 158.681 1.43009 0.168612 0
M  V30 1668 H 160.634 3.16433 2.78296 0
M  V30 1669 H 159.358 1.93057 2.63432 0
M  V30 1670 H 158.017 3.476 1.16489 0
M  V30 1671 H 157.665 3.47051 3.64095 0
M  V30 1672 H 157.365 5.08358 2.94696 0
M  V30 1673 H 158.889 4.7618 3.82211 0
M  V30 1674 H 160.303 5.48474 1.66879 0
M  V30 1675 H 158.7 5.91615 1.00557 0
M  V30 1676 H 159.77 4.84835 0.0793299 0
M  V30 1677 N 161.113 -0.173488 1.56642 0
M  V30 1678 C 162.338 -0.910149 1.86363 0
M  V30 1679 C 162.763 -1.75132 0.686318 0
M  V30 1680 O 162.121 -1.77595 -0.364643 0
M  V30 1681 C 162.169 -1.76447 3.14482 0
M  V30 1682 O 161.273 -2.86584 2.96553 0
M  V30 1683 H 160.614 -0.255086 0.613047 0
M  V30 1684 H 163.144 -0.172283 2.03873 0
M  V30 1685 H 163.154 -2.16483 3.45831 0
M  V30 1686 H 161.829 -1.14658 3.99783 0
M  V30 1687 H 160.406 -2.50146 2.76553 0
M  V30 1688 N 162.591 -1.51276 -0.441967 0
M  V30 1689 C 163.521 -1.752 -1.54361 0
M  V30 1690 C 164.502 -0.601682 -1.59103 0
M  V30 1691 O 165.687 -0.843913 -1.74905 0
M  V30 1692 C 162.817 -1.87282 -2.92477 0
M  V30 1693 C 161.771 -3.02687 -3.02596 0
M  V30 1694 C 161.097 -2.99947 -4.42647 0
M  V30 1695 C 162.397 -4.4273 -2.77106 0
M  V30 1696 H 164.091 -2.67442 -1.34592 0
M  V30 1697 H 161.637 -1.28694 -0.646048 0
M  V30 1698 H 163.59 -2.02602 -3.695 0
M  V30 1699 H 162.314 -0.916844 -3.13467 0
M  V30 1700 H 160.973 -2.87065 -2.28012 0
M  V30 1701 H 160.621 -2.02136 -4.60597 0
M  V30 1702 H 160.321 -3.77439 -4.50348 0
M  V30 1703 H 161.845 -3.17354 -5.2165 0
M  V30 1704 H 163.259 -4.58727 -3.43864 0
M  V30 1705 H 161.656 -5.21893 -2.96222 0
M  V30 1706 H 162.726 -4.53087 -1.72744 0
M  V30 1707 N 164.069 0.697108 -1.41344 0
M  V30 1708 C 165.017 1.83237 -1.43272 0
M  V30 1709 C 166.011 1.66522 -0.310947 0
M  V30 1710 O 167.217 1.73402 -0.482899 0
M  V30 1711 H 163.592 0.603802 -0.448249 0
M  V30 1712 H 165.563 1.78727 -2.38954 0
M  V30 1713 C 164.312 3.21245 -1.33029 0
M  V30 1714 H 163.635 3.34723 -2.18633 0
M  V30 1715 H 165.075 4.00763 -1.38439 0
M  V30 1716 C 163.534 3.36873 -0.0424635 0
M  V30 1717 O 164.064 3.91177 0.913421 0
M  V30 1718 N 162.27 2.90581 0.0331145 0
M  V30 1719 H 161.817 2.46577 -0.745506 0
M  V30 1720 H 161.775 3.01416 0.894199 0
M  V30 1721 N 165.547 1.27147 0.931209 0
M  V30 1722 C 166.495 1.09398 2.05268 0
M  V30 1723 C 167.489 0.0180591 1.6939 0
M  V30 1724 O 168.695 0.17551 1.79142 0
M  V30 1725 H 165.07 0.336986 0.672268 0
M  V30 1726 H 167.041 2.04416 2.17386 0
M  V30 1727 C 165.79 0.75424 3.39421 0
M  V30 1728 H 165.113 1.57404 3.67511 0
M  V30 1729 H 166.553 0.669903 4.18674 0
M  V30 1730 C 165.012 -0.541197 3.32525 0
M  V30 1731 O 165.542 -1.57664 3.69466 0
M  V30 1732 N 163.748 -0.535517 2.85623 0
M  V30 1733 H 163.295 0.307511 2.55758 0
M  V30 1734 H 163.253 -1.40236 2.81392 0
M  V30 1735 N 167.025 -1.13721 1.09112 0
M  V30 1736 C 168.436 -1.6648 0.845068 0
M  V30 1737 C 168.787 -1.85911 -0.62701 0
M  V30 1738 O 167.912 -1.57556 -1.48341 0
M  V30 1739 C 168.507 -3.02413 1.52748 0
M  V30 1740 C 167.066 -3.52176 1.32849 0
M  V30 1741 C 166.213 -2.27492 1.58564 0
M  V30 1742 H 169.164 -0.976872 1.25072 0
M  V30 1743 H 169.185 -3.68223 0.958752 0
M  V30 1744 H 168.697 -2.88238 2.59885 0
M  V30 1745 H 166.798 -3.7156 0.278137 0
M  V30 1746 H 166.911 -4.32499 2.0611 0
M  V30 1747 H 165.275 -2.33923 1.00758 0
M  V30 1748 H 166.058 -2.15886 2.66924 0
M  V30 1749 N 168.503 -0.877838 -1.30888 0
M  V30 1750 C 169.752 -0.488793 -1.95688 0
M  V30 1751 C 170.065 0.965485 -1.70111 0
M  V30 1752 O 171.271 1.46104 -2.28836 0
M  V30 1753 C 169.727 -0.823201 -3.50359 0
M  V30 1754 C 169.335 -2.29477 -3.84765 0
M  V30 1755 C 171.079 -0.503009 -4.21509 0
M  V30 1756 C 168.986 -2.57118 -5.32583 0
M  V30 1757 H 167.916 -0.179062 -0.732429 0
M  V30 1758 H 170.567 -1.07183 -1.48943 0
M  V30 1759 H 168.949 -0.169331 -3.95638 0
M  V30 1760 H 170.123 -2.99236 -3.5042 0
M  V30 1761 H 168.438 -2.58178 -3.267 0
M  V30 1762 H 171.035 -0.68665 -5.30273 0
M  V30 1763 H 171.378 0.557109 -4.12555 0
M  V30 1764 H 171.911 -1.11376 -3.8189 0
M  V30 1765 H 168.65 -3.61843 -5.4658 0
M  V30 1766 H 168.17 -1.91961 -5.68253 0
M  V30 1767 H 169.849 -2.42251 -5.99936 0
M  V30 1768 N 169.982 1.44106 -0.638065 0
M  V30 1769 C 171.398 1.56672 -0.304286 0
M  V30 1770 C 171.598 1.6244 1.19228 0
M  V30 1771 O 170.654 1.57121 1.9766 0
M  V30 1772 C 171.967 2.83503 -1.00231 0
M  V30 1773 C 173.515 2.97226 -0.981116 0
M  V30 1774 C 173.99 4.26868 -1.65974 0
M  V30 1775 N 175.481 4.33698 -1.62666 0
M  V30 1776 C 176.216 5.32745 -2.12063 0
M  V30 1777 N 175.712 6.38157 -2.6968 0
M  V30 1778 N 177.505 5.24299 -2.02651 0
M  V30 1779 H 169.656 1.38605 -1.60942 0
M  V30 1780 H 171.919 0.664661 -0.675965 0
M  V30 1781 H 171.625 2.85251 -2.0573 0
M  V30 1782 H 171.499 3.73251 -0.54439 0
M  V30 1783 H 173.886 2.95027 0.0654188 0
M  V30 1784 H 173.967 2.08808 -1.47759 0
M  V30 1785 H 173.611 4.29826 -2.70576 0
M  V30 1786 H 173.541 5.14156 -1.13804 0
M  V30 1787 H 176.032 3.58138 -1.20606 0
M  V30 1788 H 176.345 7.10029 -3.05087 0
M  V30 1789 H 174.69 6.38823 -2.73734 0
M  V30 1790 H 177.881 4.4086 -1.57353 0
M  V30 1791 H 178.054 6.01334 -2.41457 0
M  V30 1792 N 171.46 0.379036 1.52974 0
M  V30 1793 C 172.876 0.0285448 1.59574 0
M  V30 1794 C 173.076 -1.45542 1.39355 0
M  V30 1795 O 172.132 -2.2187 1.20541 0
M  V30 1796 C 173.445 0.496535 2.96572 0
M  V30 1797 C 174.993 0.451909 3.0972 0
M  V30 1798 C 175.468 0.895924 4.49152 0
M  V30 1799 N 176.959 0.851522 4.55306 0
M  V30 1800 C 177.694 1.16661 5.61407 0
M  V30 1801 N 177.19 1.55166 6.752 0
M  V30 1802 N 178.983 1.08853 5.51459 0
M  V30 1803 H 171.134 1.34525 1.64367 0
M  V30 1804 H 173.397 0.550733 0.771619 0
M  V30 1805 H 173.103 1.53258 3.16552 0
M  V30 1806 H 172.977 -0.109802 3.7704 0
M  V30 1807 H 175.364 -0.575029 2.89443 0
M  V30 1808 H 175.445 1.09392 2.3123 0
M  V30 1809 H 175.089 1.92104 4.70168 0
M  V30 1810 H 175.019 0.23103 5.26093 0
M  V30 1811 H 177.51 0.568038 3.73606 0
M  V30 1812 H 177.823 1.776 7.52116 0
M  V30 1813 H 176.168 1.59044 6.76557 0
M  V30 1814 H 179.359 0.786803 4.6144 0
M  V30 1815 H 179.532 1.33742 6.34048 0
M  V30 1816 N 172.938 -1.57226 0.108567 0
M  V30 1817 C 173.901 -2.13602 -0.831082 0
M  V30 1818 C 174.901 -1.06841 -1.20173 0
M  V30 1819 O 176.091 -1.32666 -1.12895 0
M  V30 1820 C 173.223 -2.66769 -2.12243 0
M  V30 1821 H 174.416 -2.97951 -0.341317 0
M  V30 1822 H 171.969 -1.55667 -0.14057 0
M  V30 1823 H 172.704 -1.85977 -2.65675 0
M  V30 1824 H 172.489 -3.44839 -1.86625 0
M  V30 1825 H 173.979 -3.10332 -2.79435 0
M  V30 1826 N 174.416 0.165178 -1.56732 0
M  V30 1827 C 175.656 0.887231 -1.8414 0
M  V30 1828 C 176.02 1.79159 -0.690353 0
M  V30 1829 O 177.221 2.55172 -0.845032 0
M  V30 1830 C 175.492 1.65674 -3.16681 0
M  V30 1831 S 177.051 2.42671 -3.6559 0
M  V30 1832 H 173.869 0.297042 -0.645978 0
M  V30 1833 H 176.471 0.148439 -1.94936 0
M  V30 1834 H 175.175 0.983507 -3.98441 0
M  V30 1835 H 174.706 2.43679 -3.08843 0
M  V30 1836 H 176.721 3.67499 -3.33406 0
M  V30 1837 N 175.894 1.51508 0.433938 0
M  V30 1838 C 177.143 1.63578 1.18005 0
M  V30 1839 C 177.456 0.359514 1.92268 0
M  V30 1840 O 178.662 0.359632 2.69108 0
M  V30 1841 C 177.118 2.88901 2.14626 0
M  V30 1842 C 176.726 4.23544 1.45995 0
M  V30 1843 C 178.47 3.10328 2.89649 0
M  V30 1844 C 176.377 5.40014 2.4112 0
M  V30 1845 H 175.307 0.609277 0.444182 0
M  V30 1846 H 177.958 1.77978 0.446773 0
M  V30 1847 H 176.34 2.68142 2.91403 0
M  V30 1848 H 177.514 4.54696 0.747532 0
M  V30 1849 H 175.829 4.08021 0.831115 0
M  V30 1850 H 178.426 3.94518 3.60915 0
M  V30 1851 H 178.769 2.23544 3.51189 0
M  V30 1852 H 179.302 3.31443 2.19978 0
M  V30 1853 H 176.041 6.29068 1.84264 0
M  V30 1854 H 175.561 5.13233 3.10406 0
M  V30 1855 H 177.24 5.72099 3.02177 0
M  V30 1856 N 177.372 -0.689602 1.41712 0
M  V30 1857 C 178.597 -1.48329 1.44959 0
M  V30 1858 C 179.022 -1.8801 0.0581283 0
M  V30 1859 O 178.38 -1.55026 -0.940035 0
M  V30 1860 C 178.428 -2.71835 2.36935 0
M  V30 1861 O 177.532 -3.69549 1.8305 0
M  V30 1862 H 176.873 -0.446199 0.491734 0
M  V30 1863 H 179.403 -0.847127 1.86239 0
M  V30 1864 H 179.413 -3.20076 2.53013 0
M  V30 1865 H 178.088 -2.42291 3.38035 0
M  V30 1866 H 176.665 -3.2851 1.76452 0
M  V30 1867 N 178.85 -1.27639 -0.924453 0
M  V30 1868 C 180.099 -1.13549 -1.66702 0
M  V30 1869 C 180.412 0.317487 -1.93006 0
M  V30 1870 O 181.618 0.579333 -2.65247 0
M  V30 1871 C 180.074 -1.98426 -3.00259 0
M  V30 1872 C 179.682 -3.484 -2.81641 0
M  V30 1873 C 181.426 -1.92993 -3.78092 0
M  V30 1874 C 179.333 -4.25464 -4.10773 0
M  V30 1875 H 178.263 -0.421351 -0.625283 0
M  V30 1876 H 180.914 -1.52085 -1.02676 0
M  V30 1877 H 179.296 -1.52736 -3.6536 0
M  V30 1878 H 180.47 -4.01973 -2.25287 0
M  V30 1879 H 178.785 -3.55245 -2.17232 0
M  V30 1880 H 181.382 -2.47844 -4.7379 0
M  V30 1881 H 181.725 -0.904281 -4.0636 0
M  V30 1882 H 182.258 -2.36595 -3.19793 0
M  V30 1883 H 178.997 -5.28566 -3.87683 0
M  V30 1884 H 178.517 -3.76667 -4.66779 0
M  V30 1885 H 180.196 -4.34812 -4.79111 0
M  V30 1886 N 180.328 1.1314 -1.09713 0
M  V30 1887 C 181.574 1.84757 -0.836224 0
M  V30 1888 C 181.907 1.8347 0.636598 0
M  V30 1889 O 181.182 1.27491 1.46889 0
M  V30 1890 C 181.465 3.32782 -1.37578 0
M  V30 1891 C 181.318 3.42567 -2.91493 0
M  V30 1892 C 182.637 4.28307 -1.01198 0
M  V30 1893 H 179.756 0.67082 -0.305236 0
M  V30 1894 H 182.398 1.3278 -1.35903 0
M  V30 1895 H 180.548 3.77177 -0.931097 0
M  V30 1896 H 182.22 3.06862 -3.44432 0
M  V30 1897 H 180.463 2.83349 -3.28475 0
M  V30 1898 H 181.134 4.46674 -3.24324 0
M  V30 1899 H 183.61 3.91999 -1.39556 0
M  V30 1900 H 182.486 5.30307 -1.41653 0
M  V30 1901 H 182.747 4.42029 0.0794833 0
M  V30 1902 N 181.806 0.884767 1.30421 0
M  V30 1903 C 182.716 0.355398 2.31892 0
M  V30 1904 C 183.732 -0.542261 1.65335 0
M  V30 1905 O 184.908 -0.435432 1.96637 0
M  V30 1906 C 181.973 -0.421661 3.44126 0
M  V30 1907 C 181.034 0.505727 4.26311 0
M  V30 1908 C 180.267 -0.234343 5.33185 0
M  V30 1909 O 180.49 -1.46045 5.51386 0
M  V30 1910 O 179.424 0.415443 6.00465 0
M  V30 1911 H 183.25 1.19685 2.79122 0
M  V30 1912 H 180.835 0.648596 1.34587 0
M  V30 1913 H 182.717 -0.861641 4.12497 0
M  V30 1914 H 181.392 -1.23942 2.99032 0
M  V30 1915 H 180.299 0.994513 3.60639 0
M  V30 1916 H 181.632 1.28948 4.75009 0
M  V30 1917 N 183.284 -1.43765 0.645699 0
M  V30 1918 C 184.53 -2.02731 0.164844 0
M  V30 1919 C 184.885 -1.49983 -1.2051 0
M  V30 1920 O 184.178 -0.680208 -1.79119 0
M  V30 1921 C 184.372 -3.57238 0.107679 0
M  V30 1922 C 184.201 -4.24977 1.47054 0
M  V30 1923 C 182.971 -4.61356 2.06103 0
M  V30 1924 C 185.169 -4.54476 2.40741 0
M  V30 1925 N 183.151 -5.14132 3.35473 0
M  V30 1926 C 184.522 -5.08489 3.54737 0
M  V30 1927 C 186.577 -4.36438 2.39637 0
M  V30 1928 C 185.28 -5.46364 4.67845 0
M  V30 1929 C 187.306 -4.7537 3.5182 0
M  V30 1930 C 186.668 -5.2951 4.64541 0
M  V30 1931 H 182.767 -0.774976 0.104578 0
M  V30 1932 H 185.351 -1.75051 0.852367 0
M  V30 1933 H 183.522 -3.84498 -0.549165 0
M  V30 1934 H 185.254 -4.0288 -0.383351 0
M  V30 1935 H 182.009 -4.46151 1.58892 0
M  V30 1936 H 182.433 -5.4498 4.01654 0
M  V30 1937 H 187.075 -3.93861 1.53731 0
M  V30 1938 H 184.793 -5.87888 5.54448 0
M  V30 1939 H 188.379 -4.63115 3.52159 0
M  V30 1940 H 187.259 -5.59077 5.49911 0
M  V30 1941 N 184.763 -0.387143 -1.52771 0
M  V30 1942 C 185.71 0.449048 -2.26389 0
M  V30 1943 C 186.68 1.05961 -1.27912 0
M  V30 1944 O 187.865 1.08804 -1.56737 0
M  V30 1945 C 185.005 1.57155 -3.0724 0
M  V30 1946 C 184.118 0.984066 -4.20643 0
M  V30 1947 C 183.253 2.07745 -4.88892 0
M  V30 1948 C 182.292 1.46574 -5.94292 0
M  V30 1949 N 181.429 2.49834 -6.56146 0
M  V30 1950 H 186.269 -0.185205 -2.97424 0
M  V30 1951 H 183.806 -0.103164 -1.46738 0
M  V30 1952 H 185.764 2.23309 -3.52405 0
M  V30 1953 H 184.394 2.17615 -2.38419 0
M  V30 1954 H 183.446 0.212193 -3.79808 0
M  V30 1955 H 184.758 0.497029 -4.96318 0
M  V30 1956 H 183.912 2.81673 -5.3735 0
M  V30 1957 H 182.651 2.59807 -4.12737 0
M  V30 1958 H 181.656 0.711696 -5.45174 0
M  V30 1959 H 182.881 0.953088 -6.72379 0
M  V30 1960 H 180.827 3.0107 -5.82832 0
M  V30 1961 H 180.744 2.05879 -7.27427 0
M  V30 1962 H 182.012 3.23399 -7.09249 0
M  V30 1963 N 186.241 1.57166 -0.116904 0
M  V30 1964 C 187.652 1.82169 0.408809 0
M  V30 1965 C 188.003 1.03393 1.66746 0
M  V30 1966 O 187.128 0.269886 2.1471 0
M  V30 1967 C 187.723 3.30429 0.748466 0
M  V30 1968 C 186.282 3.5612 1.21882 0
M  V30 1969 C 185.429 2.76374 0.226452 0
M  V30 1970 H 188.38 1.5497 -0.342063 0
M  V30 1971 H 188.401 3.44943 1.60607 0
M  V30 1972 H 187.913 3.87737 -0.167784 0
M  V30 1973 H 186.014 3.04168 2.15204 0
M  V30 1974 H 186.127 4.64705 1.16559 0
M  V30 1975 H 184.491 2.44515 0.713063 0
M  V30 1976 H 185.274 3.3644 -0.682859 0
M  V30 1977 N 187.719 -0.156864 1.56817 0
M  V30 1978 C 188.966 -0.871125 1.82805 0
M  V30 1979 C 189.294 -1.81611 0.696262 0
M  V30 1980 O 188.549 -1.93141 -0.315459 0
M  V30 1981 C 188.848 -1.68737 3.1506 0
M  V30 1982 C 188.514 -0.890045 4.42028 0
M  V30 1983 C 187.176 -0.670042 4.76512 0
M  V30 1984 C 189.528 -0.331769 5.20143 0
M  V30 1985 C 186.856 0.119104 5.86579 0
M  V30 1986 C 189.208 0.444365 6.31037 0
M  V30 1987 C 187.872 0.675035 6.64078 0
M  V30 1988 H 187.142 -0.318767 0.668931 0
M  V30 1989 H 189.789 -0.135274 1.91022 0
M  V30 1990 H 188.094 -2.49304 3.0225 0
M  V30 1991 H 189.791 -2.24331 3.3238 0
M  V30 1992 H 186.381 -1.07157 4.14988 0
M  V30 1993 H 190.565 -0.489043 4.93885 0
M  V30 1994 H 185.821 0.307417 6.10627 0
M  V30 1995 H 189.995 0.884139 6.90765 0
M  V30 1996 H 187.622 1.28839 7.49203 0
M  V30 1997 N 189.197 -1.51736 -0.425897 0
M  V30 1998 C 190.474 -1.55519 -1.1863 0
M  V30 1999 C 190.854 -0.326219 -2.08564 0
M  V30 2000 O 190.202 0.688012 -2.17896 0
M  V30 2001 C 190.412 -2.87521 -1.9782 0
M  V30 2002 C 191.76 -3.39899 -2.54468 0
M  V30 2003 O 192.784 -2.89148 -2.08019 0
M  V30 2004 O 191.643 -4.2848 -3.39215 0
M  V30 2005 H 188.737 -0.625739 -0.540721 0
M  V30 2006 H 191.283 -1.64055 -0.434038 0
M  V30 2007 H 190.055 -3.68422 -1.31836 0
M  V30 2008 H 189.678 -2.822 -2.80088 0
M  V30 2009 N 190.675 0.682077 -1.42076 0
M  V30 2010 C 191.924 1.43786 -1.41451 0
M  V30 2011 C 192.237 1.95574 -0.0317074 0
M  V30 2012 O 193.443 2.71326 0.0971462 0
M  V30 2013 C 191.899 2.60071 -2.48779 0
M  V30 2014 C 191.507 2.15013 -3.93031 0
M  V30 2015 C 193.251 3.37626 -2.57311 0
M  V30 2016 C 191.158 3.28336 -4.91883 0
M  V30 2017 H 190.088 0.540143 -0.526082 0
M  V30 2018 H 192.739 0.739157 -1.67955 0
M  V30 2019 H 191.121 3.32275 -2.15429 0
M  V30 2020 H 192.295 1.5001 -4.35699 0
M  V30 2021 H 190.61 1.50416 -3.88284 0
M  V30 2022 H 193.207 4.22012 -3.28345 0
M  V30 2023 H 193.55 3.83727 -1.61429 0
M  V30 2024 H 194.083 2.72488 -2.89819 0
M  V30 2025 H 190.822 2.87234 -5.89217 0
M  V30 2026 H 190.342 3.92145 -4.53853 0
M  V30 2027 H 192.021 3.93913 -5.13265 0
M  V30 2028 N 192.153 1.28127 0.917671 0
M  V30 2029 C 193.4 1.15052 1.66641 0
M  V30 2030 C 193.728 -0.301677 1.92146 0
M  V30 2031 O 192.983 -1.23622 1.51711 0
M  V30 2032 C 193.282 1.89018 3.03327 0
M  V30 2033 C 192.948 3.38832 2.97496 0
M  V30 2034 C 191.61 3.79693 2.95613 0
M  V30 2035 C 193.962 4.34378 2.88036 0
M  V30 2036 C 191.29 5.14447 2.82066 0
M  V30 2037 C 193.642 5.69201 2.7603 0
M  V30 2038 C 192.306 6.09343 2.72502 0
M  V30 2039 H 191.576 0.421006 0.609783 0
M  V30 2040 H 194.223 1.58855 1.06945 0
M  V30 2041 H 192.528 1.37752 3.66785 0
M  V30 2042 H 194.225 1.76321 3.60156 0
M  V30 2043 H 190.815 3.06342 2.99754 0
M  V30 2044 H 194.999 4.03775 2.88581 0
M  V30 2045 H 190.255 5.44681 2.77728 0
M  V30 2046 H 194.429 6.42901 2.67678 0
M  V30 2047 H 192.056 7.13712 2.61762 0
M  V30 2048 N 193.631 -1.12557 1.10312 0
M  V30 2049 C 194.88 -1.83395 0.839588 0
M  V30 2050 C 195.193 -1.84939 -0.636929 0
M  V30 2051 O 196.399 -2.51761 -1.01631 0
M  V30 2052 C 194.855 -3.29303 1.45215 0
M  V30 2053 C 194.463 -3.36122 2.96186 0
M  V30 2054 C 196.207 -4.05121 1.26796 0
M  V30 2055 C 194.114 -4.76357 3.50483 0
M  V30 2056 H 193.044 -0.687133 0.310425 0
M  V30 2057 H 195.695 -1.26746 1.32694 0
M  V30 2058 H 194.077 -3.85812 0.892469 0
M  V30 2059 H 195.251 -2.89559 3.58458 0
M  V30 2060 H 193.566 -2.73776 3.13745 0
M  V30 2061 H 196.163 -5.08668 1.64806 0
M  V30 2062 H 196.506 -4.15773 0.209409 0
M  V30 2063 H 197.039 -3.54967 1.79563 0
M  V30 2064 H 193.778 -4.70899 4.55998 0
M  V30 2065 H 193.298 -5.23377 2.92978 0
M  V30 2066 H 194.977 -5.45294 3.48228 0
M  V30 2067 N 195.109 -0.891671 -1.2995 0
M  V30 2068 C 196.039 -0.379797 -2.30391 0
M  V30 2069 C 197.02 0.540919 -1.6127 0
M  V30 2070 O 198.205 0.453352 -1.88834 0
M  V30 2071 C 195.335 0.400654 -3.44981 0
M  V30 2072 C 194.289 -0.428905 -4.25846 0
M  V30 2073 C 193.615 0.478557 -5.32554 0
M  V30 2074 C 194.915 -1.67458 -4.94727 0
M  V30 2075 H 196.609 -1.21914 -2.73454 0
M  V30 2076 H 194.155 -0.587675 -1.31462 0
M  V30 2077 H 196.108 0.769434 -4.14316 0
M  V30 2078 H 194.832 1.27371 -3.0074 0
M  V30 2079 H 193.491 -0.779911 -3.58208 0
M  V30 2080 H 193.139 1.34951 -4.84559 0
M  V30 2081 H 192.839 -0.0727433 -5.87555 0
M  V30 2082 H 194.363 0.843705 -6.04743 0
M  V30 2083 H 195.777 -1.376 -5.56542 0
M  V30 2084 H 194.174 -2.16659 -5.59624 0
M  V30 2085 H 195.244 -2.41518 -4.20473 0
M  V30 2086 N 196.587 1.43421 -0.653314 0
M  V30 2087 C 197.517 2.33487 0.0246656 0
M  V30 2088 C 198.498 1.49475 0.811863 0
M  V30 2089 O 199.683 1.78139 0.773322 0
M  V30 2090 C 196.813 3.32841 0.99166 0
M  V30 2091 C 195.767 4.26842 0.314568 0
M  V30 2092 C 195.093 5.16236 1.39302 0
M  V30 2093 C 196.393 5.16243 -0.793095 0
M  V30 2094 H 198.087 2.90427 -0.727481 0
M  V30 2095 H 195.633 1.39649 -0.351287 0
M  V30 2096 H 197.586 3.94747 1.47487 0
M  V30 2097 H 196.31 2.74158 1.77497 0
M  V30 2098 H 194.969 3.663 -0.148199 0
M  V30 2099 H 194.617 4.53891 2.16776 0
M  V30 2100 H 194.317 5.79948 0.945223 0
M  V30 2101 H 195.841 5.81015 1.87759 0
M  V30 2102 H 197.255 5.71958 -0.392039 0
M  V30 2103 H 195.652 5.88676 -1.16536 0
M  V30 2104 H 196.722 4.55927 -1.65103 0
M  V30 2105 N 198.065 0.39524 1.52563 0
M  V30 2106 C 199.028 -0.425001 2.25225 0
M  V30 2107 C 200.028 -0.985266 1.27079 0
M  V30 2108 O 201.218 -0.866332 1.5113 0
M  V30 2109 C 198.35 -1.59686 3.01186 0
M  V30 2110 H 199.543 0.211233 2.99155 0
M  V30 2111 H 197.096 0.147472 1.55603 0
M  V30 2112 H 197.831 -2.27035 2.31572 0
M  V30 2113 H 197.616 -1.20176 3.73229 0
M  V30 2114 H 199.106 -2.17743 3.5634 0
M  V30 2115 N 199.544 -1.57102 0.125237 0
M  V30 2116 C 200.793 -1.94582 -0.531095 0
M  V30 2117 C 201.106 -1.01126 -1.6743 0
M  V30 2118 O 202.312 -1.28097 -2.39381 0
M  V30 2119 C 200.768 -3.45839 -0.996164 0
M  V30 2120 C 200.376 -4.47842 0.118926 0
M  V30 2121 C 202.12 -3.92227 -1.62352 0
M  V30 2122 C 200.027 -5.90284 -0.363192 0
M  V30 2123 H 198.957 -0.726391 -0.20217 0
M  V30 2124 H 201.608 -1.82339 0.206092 0
M  V30 2125 H 199.99 -3.53338 -1.78796 0
M  V30 2126 H 201.164 -4.52018 0.895358 0
M  V30 2127 H 199.479 -4.11243 0.653324 0
M  V30 2128 H 202.076 -4.96069 -1.99548 0
M  V30 2129 H 202.419 -3.32552 -2.50429 0
M  V30 2130 H 202.952 -3.87554 -0.897019 0
M  V30 2131 H 199.691 -6.53728 0.481679 0
M  V30 2132 H 199.211 -5.89515 -1.10597 0
M  V30 2133 H 200.89 -6.41752 -0.822377 0
M  V30 2134 N 201.022 0.148545 -1.56898 0
M  V30 2135 C 202.269 0.861418 -1.83264 0
M  V30 2136 C 202.597 1.81239 -0.705883 0
M  V30 2137 O 201.852 1.93305 0.305212 0
M  V30 2138 C 202.151 1.67064 -3.1595 0
M  V30 2139 C 201.817 0.866591 -4.42494 0
M  V30 2140 C 200.479 0.644762 -4.76861 0
M  V30 2141 C 202.831 0.30418 -5.20312 0
M  V30 2142 C 200.159 -0.15021 -5.86508 0
M  V30 2143 C 202.511 -0.477824 -6.30793 0
M  V30 2144 C 201.175 -0.710244 -6.63711 0
M  V30 2145 H 200.445 0.315215 -0.670612 0
M  V30 2146 H 203.092 0.125142 -1.91091 0
M  V30 2147 H 201.397 2.47698 -3.03567 0
M  V30 2148 H 203.094 2.22566 -3.33565 0
M  V30 2149 H 199.684 1.04955 -4.15551 0
M  V30 2150 H 203.868 0.462844 -4.94137 0
M  V30 2151 H 199.124 -0.339796 -6.10455 0
M  V30 2152 H 203.298 -0.92076 -6.90286 0
M  V30 2153 H 200.925 -1.3281 -7.48509 0
M  V30 2154 N 202.5 1.5196 0.417844 0
M  V30 2155 C 203.463 1.74065 1.49111 0
M  V30 2156 C 204.463 0.610537 1.48758 0
M  V30 2157 O 205.653 0.87832 1.50437 0
M  V30 2158 C 202.785 1.81502 2.88565 0
M  V30 2159 H 203.978 2.69869 1.30807 0
M  V30 2160 H 201.531 1.42244 0.647785 0
M  V30 2161 H 202.266 0.875813 3.1225 0
M  V30 2162 H 202.051 2.63651 2.90225 0
M  V30 2163 H 203.541 2.00376 3.66387 0
M  V30 2164 N 203.978 -0.674533 1.42435 0
M  V30 2165 C 204.926 -1.80934 1.46169 0
M  V30 2166 C 205.92 -1.66006 0.3374 0
M  V30 2167 O 207.126 -1.72611 0.510425 0
M  V30 2168 H 203.501 -0.596594 0.457798 0
M  V30 2169 H 205.472 -1.74903 2.41767 0
M  V30 2170 C 204.221 -3.19088 1.38123 0
M  V30 2171 H 203.544 -3.31203 2.23931 0
M  V30 2172 H 204.984 -3.9851 1.44797 0
M  V30 2173 C 203.443 -3.36763 0.0960517 0
M  V30 2174 O 203.973 -3.92581 -0.851073 0
M  V30 2175 N 202.179 -2.90597 0.0131186 0
M  V30 2176 H 201.726 -2.45359 0.784639 0
M  V30 2177 H 201.684 -3.028 -0.846133 0
M  V30 2178 N 205.456 -1.28612 -0.910864 0
M  V30 2179 C 206.696 -1.1719 -1.67469 0
M  V30 2180 C 207.06 0.274441 -1.90028 0
M  V30 2181 O 208.261 0.511425 -2.6389 0
M  V30 2182 C 206.532 -1.95137 -2.99427 0
M  V30 2183 S 208.091 -2.00122 -3.90508 0
M  V30 2184 H 204.909 -0.41806 -0.575106 0
M  V30 2185 H 207.511 -1.6275 -1.08317 0
M  V30 2186 H 206.215 -2.99381 -2.80712 0
M  V30 2187 H 205.746 -1.50137 -3.63624 0
M  V30 2188 H 207.761 -1.10981 -4.8363 0
M  V30 2189 N 206.934 1.1197 -1.10907 0
M  V30 2190 C 208.18 1.8386 -0.855773 0
M  V30 2191 C 208.513 1.84134 0.617103 0
M  V30 2192 O 207.788 1.29041 1.45529 0
M  V30 2193 C 208.071 3.31305 -1.411 0
M  V30 2194 C 207.924 3.39456 -2.9511 0
M  V30 2195 C 209.243 4.2721 -1.05736 0
M  V30 2196 H 206.362 0.667545 -0.312334 0
M  V30 2197 H 209.004 1.31331 -1.37303 0
M  V30 2198 H 207.154 3.76169 -0.97105 0
M  V30 2199 H 208.826 3.03191 -3.47668 0
M  V30 2200 H 207.069 2.79849 -3.31462 0
M  V30 2201 H 207.74 4.43209 -3.29044 0
M  V30 2202 H 210.216 3.90497 -1.43706 0
M  V30 2203 H 209.092 5.28775 -1.47269 0
M  V30 2204 H 209.353 4.42088 0.0325958 0
M  V30 2205 N 208.412 0.89855 1.29475 0
M  V30 2206 C 209.375 0.380272 2.26023 0
M  V30 2207 C 210.375 -0.484891 1.53315 0
M  V30 2208 O 211.565 -0.290108 1.71767 0
M  V30 2209 C 208.697 -0.45651 3.3783 0
M  V30 2210 H 209.89 1.23295 2.73383 0
M  V30 2211 H 207.443 0.676589 1.40897 0
M  V30 2212 H 208.178 -1.32922 2.95808 0
M  V30 2213 H 207.963 0.163393 3.91759 0
M  V30 2214 H 209.453 -0.810466 4.0966 0
M  V30 2215 N 209.89 -1.43072 0.660911 0
M  V30 2216 C 210.82 -2.33497 -0.0122829 0
M  V30 2217 C 211.801 -1.49903 -0.803925 0
M  V30 2218 O 212.986 -1.78546 -0.763864 0
M  V30 2219 C 210.116 -3.33363 -0.973994 0
M  V30 2220 C 209.07 -4.27003 -0.291928 0
M  V30 2221 C 208.396 -5.16967 -1.36562 0
M  V30 2222 C 209.696 -5.15816 0.820462 0
M  V30 2223 H 211.39 -2.90038 0.742873 0
M  V30 2224 H 208.936 -1.39461 0.358688 0
M  V30 2225 H 210.889 -3.95524 -1.45392 0
M  V30 2226 H 209.613 -2.75095 -1.7604 0
M  V30 2227 H 208.272 -3.66217 0.167623 0
M  V30 2228 H 207.92 -4.55034 -2.14366 0
M  V30 2229 H 207.62 -5.80441 -0.914454 0
M  V30 2230 H 209.144 -5.82003 -1.84675 0
M  V30 2231 H 210.558 -5.71742 0.422366 0
M  V30 2232 H 208.955 -5.8805 1.19656 0
M  V30 2233 H 210.025 -4.55045 1.67518 0
M  V30 2234 N 211.368 -0.403325 -1.52352 0
M  V30 2235 C 212.331 0.413051 -2.25447 0
M  V30 2236 C 213.331 0.978513 -1.276 0
M  V30 2237 O 214.521 0.858305 -1.51587 0
M  V30 2238 C 211.653 1.58087 -3.02029 0
M  V30 2239 H 212.846 -0.227094 -2.99039 0
M  V30 2240 H 210.399 -0.155722 -1.55522 0
M  V30 2241 H 211.134 2.25804 -2.32772 0
M  V30 2242 H 210.919 1.18195 -3.73861 0
M  V30 2243 H 212.409 2.1585 -3.57489 0
M  V30 2244 N 212.846 1.57033 -0.133567 0
M  V30 2245 C 214.095 1.94861 0.520768 0
M  V30 2246 C 214.408 1.02012 1.66892 0
M  V30 2247 O 215.614 1.29365 2.38699 0
M  V30 2248 C 214.07 3.46362 0.977809 0
M  V30 2249 C 213.678 4.47773 -0.142674 0
M  V30 2250 C 215.422 3.93083 1.60269 0
M  V30 2251 C 213.329 5.90468 0.331883 0
M  V30 2252 H 212.259 0.727453 0.198315 0
M  V30 2253 H 214.91 1.82227 -0.215759 0
M  V30 2254 H 213.292 3.54282 1.7692 0
M  V30 2255 H 214.466 4.51536 -0.919317 0
M  V30 2256 H 212.781 4.10891 -0.675124 0
M  V30 2257 H 215.378 4.97121 1.96914 0
M  V30 2258 H 215.721 3.33876 2.48662 0
M  V30 2259 H 216.254 3.88025 0.876453 0
M  V30 2260 H 212.993 6.53463 -0.516341 0
M  V30 2261 H 212.513 5.90094 1.07469 0
M  V30 2262 H 214.192 6.42179 0.788332 0
M  V30 2263 N 214.325 -0.140222 1.56975 0
M  V30 2264 C 215.555 -0.865181 1.87612 0
M  V30 2265 C 215.963 -1.74942 0.72055 0
M  V30 2266 O 215.306 -1.80917 -0.318561 0
M  V30 2267 C 215.368 -1.76782 3.13031 0
M  V30 2268 C 215.032 -1.06005 4.44536 0
M  V30 2269 C 216.029 -0.410768 5.18275 0
M  V30 2270 C 213.714 -1.04754 4.91255 0
M  V30 2271 C 215.708 0.241572 6.36942 0
M  V30 2272 C 213.395 -0.391394 6.09845 0
M  V30 2273 C 214.393 0.252029 6.82535 0
M  V30 2274 O 214.081 0.897757 7.98871 0
M  V30 2275 H 213.813 -0.255188 0.625983 0
M  V30 2276 H 216.367 -0.135653 2.04952 0
M  V30 2277 H 214.597 -2.53846 2.91718 0
M  V30 2278 H 216.286 -2.36533 3.29859 0
M  V30 2279 H 217.052 -0.412195 4.83245 0
M  V30 2280 H 212.931 -1.53777 4.34596 0
M  V30 2281 H 216.475 0.744375 6.93617 0
M  V30 2282 H 212.372 -0.387656 6.44335 0
M  V30 2283 H 213.14 0.800102 8.1458 0
M  V30 2284 N 215.803 -1.52179 -0.40978 0
M  V30 2285 C 217.052 -1.65434 -1.15388 0
M  V30 2286 C 217.365 -0.390056 -1.91671 0
M  V30 2287 O 218.571 -0.402399 -2.68501 0
M  V30 2288 C 217.027 -2.92279 -2.10003 0
M  V30 2289 C 216.635 -4.25813 -1.39239 0
M  V30 2290 C 218.379 -3.14897 -2.84675 0
M  V30 2291 C 216.286 -5.43782 -2.32498 0
M  V30 2292 H 215.216 -0.616267 -0.434432 0
M  V30 2293 H 217.867 -1.78666 -0.418401 0
M  V30 2294 H 216.249 -2.72744 -2.871 0
M  V30 2295 H 217.423 -4.55828 -0.675099 0
M  V30 2296 H 215.738 -4.09292 -0.766097 0
M  V30 2297 H 218.335 -4.0021 -3.54593 0
M  V30 2298 H 218.678 -2.29103 -3.47588 0
M  V30 2299 H 219.211 -3.34901 -2.14677 0
M  V30 2300 H 215.95 -6.3192 -1.74233 0
M  V30 2301 H 215.47 -5.18106 -3.02201 0
M  V30 2302 H 217.149 -5.76834 -2.93038 0
M  V30 2303 N 217.281 0.66697 -1.42791 0
M  V30 2304 C 218.692 1.2478 -1.38877 0
M  V30 2305 C 219.043 1.96012 -0.0859426 0
M  V30 2306 O 218.168 2.00463 0.815081 0
M  V30 2307 C 218.763 2.26938 -2.51564 0
M  V30 2308 C 217.322 2.80529 -2.50959 0
M  V30 2309 C 216.469 1.54965 -2.29959 0
M  V30 2310 H 219.42 0.459853 -1.51892 0
M  V30 2311 H 219.441 3.08834 -2.22265 0
M  V30 2312 H 218.953 1.75065 -3.46372 0
M  V30 2313 H 217.054 3.36502 -1.59991 0
M  V30 2314 H 217.167 3.29012 -3.48265 0
M  V30 2315 H 215.531 1.81817 -1.78366 0
M  V30 2316 H 216.314 1.05047 -3.26833 0
M  V30 2317 N 218.759 1.29093 0.90403 0
M  V30 2318 C 220.006 1.16813 1.65411 0
M  V30 2319 C 220.334 -0.28128 1.92455 0
M  V30 2320 O 219.589 -1.22006 1.53013 0
M  V30 2321 C 219.888 1.92224 3.01305 0
M  V30 2322 C 219.554 3.41968 2.93885 0
M  V30 2323 C 218.216 3.82807 2.91569 0
M  V30 2324 C 220.568 4.37409 2.83413 0
M  V30 2325 C 217.896 5.1741 2.76594 0
M  V30 2326 C 220.248 5.72097 2.69977 0
M  V30 2327 C 218.912 6.12199 2.66024 0
M  V30 2328 H 218.182 0.42745 0.605283 0
M  V30 2329 H 220.829 1.59981 1.05254 0
M  V30 2330 H 219.134 1.41635 3.65304 0
M  V30 2331 H 220.831 1.80131 3.58265 0
M  V30 2332 H 217.421 3.09504 2.96488 0
M  V30 2333 H 221.605 4.06813 2.84283 0
M  V30 2334 H 216.861 5.47596 2.71935 0
M  V30 2335 H 221.035 6.45704 2.60844 0
M  V30 2336 H 218.662 7.16448 2.54178 0
M  V30 2337 N 220.237 -1.11381 1.11499 0
M  V30 2338 C 221.648 -1.6465 0.880191 0
M  V30 2339 C 221.999 -1.87199 -0.587434 0
M  V30 2340 O 221.124 -1.60667 -1.44966 0
M  V30 2341 C 221.719 -2.99105 1.59128 0
M  V30 2342 C 220.278 -3.49279 1.40289 0
M  V30 2343 C 219.425 -2.24077 1.63354 0
M  V30 2344 H 222.376 -0.950123 1.27116 0
M  V30 2345 H 222.397 -3.66107 1.03664 0
M  V30 2346 H 221.909 -2.82661 2.65941 0
M  V30 2347 H 220.01 -3.70887 0.356888 0
M  V30 2348 H 220.123 -4.2803 2.15238 0
M  V30 2349 H 218.487 -2.31733 1.05698 0
M  V30 2350 H 219.27 -2.10175 2.71443 0
M  V30 2351 N 221.715 -0.905404 -1.28997 0
M  V30 2352 C 222.625 -0.392246 -2.31298 0
M  V30 2353 C 223.641 0.515889 -1.66176 0
M  V30 2354 O 224.817 0.404093 -1.97304 0
M  V30 2355 C 221.882 0.36686 -3.44754 0
M  V30 2356 C 220.943 -0.573485 -4.25452 0
M  V30 2357 C 220.176 0.149488 -5.33491 0
M  V30 2358 O 220.399 1.37255 -5.5364 0
M  V30 2359 O 219.333 -0.510919 -5.99728 0
M  V30 2360 H 223.159 -1.2411 -2.77183 0
M  V30 2361 H 220.744 -0.669926 -1.33538 0
M  V30 2362 H 222.626 0.795907 -4.13816 0
M  V30 2363 H 221.301 1.19169 -3.00966 0
M  V30 2364 H 220.208 -1.05176 -3.59011 0
M  V30 2365 H 221.541 -1.36489 -4.72897 0
M  V30 2366 N 223.193 1.4272 -0.668489 0
M  V30 2367 C 224.47 1.95248 -0.117373 0
M  V30 2368 C 224.85 1.60919 1.36632 0
M  V30 2369 O 224.198 0.902095 2.09939 0
M  V30 2370 C 224.408 3.46927 -0.379806 0
M  V30 2371 C 225.756 4.23588 -0.292923 0
M  V30 2372 O 226.78 3.5482 -0.313204 0
M  V30 2373 O 225.639 5.46017 -0.229697 0
M  V30 2374 H 222.733 0.827 0.00079152 0
M  V30 2375 H 225.279 1.52581 -0.742783 0
M  V30 2376 H 224.051 3.65096 -1.40786 0
M  V30 2377 H 223.674 3.96627 0.277923 0
M  V30 2378 N 224.671 0.411399 1.52136 0
M  V30 2379 C 225.948 -0.222308 1.94333 0
M  V30 2380 C 226.328 -1.6242 1.34844 0
M  V30 2381 O 225.676 -2.22384 0.525145 0
M  V30 2382 C 225.886 -0.226345 3.48265 0
M  V30 2383 C 227.234 -0.444592 4.22266 0
M  V30 2384 O 228.258 -0.305602 3.54887 0
M  V30 2385 O 227.117 -0.718749 5.41753 0
M  V30 2386 H 224.211 -0.143907 0.814383 0
M  V30 2387 H 226.757 0.467506 1.63133 0
M  V30 2388 H 225.529 0.75475 3.83952 0
M  V30 2389 H 225.152 -0.960163 3.85832 0
M  V30 2390 N 226.149 -1.5696 0.141893 0
M  V30 2391 C 227.374 -2.00754 -0.520838 0
M  V30 2392 C 227.799 -1.0213 -1.57959 0
M  V30 2393 O 227.157 0.00371324 -1.813 0
M  V30 2394 C 227.205 -3.43318 -1.10294 0
M  V30 2395 O 226.309 -3.47679 -2.21795 0
M  V30 2396 H 225.65 -0.651564 -0.127908 0
M  V30 2397 H 228.18 -2.03221 0.23712 0
M  V30 2398 H 228.19 -3.82012 -1.43287 0
M  V30 2399 H 226.865 -4.14608 -0.327574 0
M  V30 2400 H 225.442 -3.20824 -1.9007 0
M  V30 2401 N 227.627 0.131896 -1.57047 0
M  V30 2402 C 228.575 1.18146 -2.0036 0
M  V30 2403 C 229.569 1.43614 -0.898406 0
M  V30 2404 O 230.775 1.43729 -1.08361 0
M  V30 2405 H 227.15 0.398042 -0.638018 0
M  V30 2406 H 229.121 0.789564 -2.87765 0
M  V30 2407 C 227.87 2.50341 -2.41298 0
M  V30 2408 H 227.193 2.31578 -3.25902 0
M  V30 2409 H 228.633 3.22371 -2.75414 0
M  V30 2410 C 227.092 3.11984 -1.27153 0
M  V30 2411 O 227.622 3.97484 -0.580459 0
M  V30 2412 N 225.828 2.71662 -1.03189 0
M  V30 2413 H 225.375 2.02231 -1.59564 0
M  V30 2414 H 225.333 3.13238 -0.270077 0
M  V30 2415 N 229.106 1.52395 0.401703 0
M  V30 2416 C 230.331 1.70972 1.17403 0
M  V30 2417 C 230.756 0.421615 1.83314 0
M  V30 2418 O 230.114 -0.621564 1.70312 0
M  V30 2419 C 230.162 2.85151 2.20728 0
M  V30 2420 O 229.266 2.51238 3.27037 0
M  V30 2421 H 228.607 0.568927 0.342372 0
M  V30 2422 H 231.137 1.99131 0.469891 0
M  V30 2423 H 231.147 3.10279 2.64936 0
M  V30 2424 H 229.822 3.78603 1.7214 0
M  V30 2425 H 228.399 2.36808 2.88057 0
M  V30 2426 N 230.584 -0.659388 1.43143 0
M  V30 2427 C 231.812 -1.44723 1.47861 0
M  V30 2428 C 232.227 -1.88563 0.0945886 0
M  V30 2429 O 231.584 -1.59108 -0.893915 0
M  V30 2430 C 231.635 -2.68627 2.41913 0
M  V30 2431 O 231.356 -2.26623 3.74932 0
M  V30 2432 C 232.857 -3.62045 2.55809 0
M  V30 2433 H 230.077 -0.444801 0.502387 0
M  V30 2434 H 232.621 -0.808916 1.87821 0
M  V30 2435 H 230.776 -3.28613 2.05164 0
M  V30 2436 H 231.19 -3.06745 4.2545 0
M  V30 2437 H 232.664 -4.45666 3.25708 0
M  V30 2438 H 233.141 -4.08981 1.60099 0
M  V30 2439 H 233.747 -3.07944 2.93344 0
M  V30 2440 N 232.062 -1.29571 -0.897171 0
M  V30 2441 C 233.01 -1.14802 -2.02295 0
M  V30 2442 C 234.004 -0.0629637 -1.69283 0
M  V30 2443 O 235.21 -0.222945 -1.78614 0
M  V30 2444 H 231.585 -0.354692 -0.663097 0
M  V30 2445 H 233.556 -2.10108 -2.11889 0
M  V30 2446 C 232.305 -0.843966 -3.37302 0
M  V30 2447 H 231.628 -1.67093 -3.63208 0
M  V30 2448 H 233.068 -0.780672 -4.16751 0
M  V30 2449 C 231.527 0.452843 -3.33843 0
M  V30 2450 O 232.057 1.47813 -3.73516 0
M  V30 2451 N 230.263 0.459601 -2.86943 0
M  V30 2452 H 229.81 -0.375213 -2.54853 0
M  V30 2453 H 229.768 1.32726 -2.85011 0
M  V30 2454 N 233.54 1.10788 -1.12088 0
M  V30 2455 C 234.49 2.15158 -0.754401 0
M  V30 2456 C 235.474 1.59026 0.244846 0
M  V30 2457 O 236.666 1.76927 0.0509097 0
M  V30 2458 C 233.795 3.42677 -0.206657 0
M  V30 2459 C 232.881 4.05751 -1.23398 0
M  V30 2460 N 233.272 4.43582 -2.43041 0
M  V30 2461 C 231.57 4.32764 -1.07848 0
M  V30 2462 C 232.271 4.93085 -3.08613 0
M  V30 2463 N 231.247 4.89664 -2.36072 0
M  V30 2464 H 235.049 2.42195 -1.6649 0
M  V30 2465 H 232.563 1.27872 -1.00112 0
M  V30 2466 H 234.56 4.16834 0.0740646 0
M  V30 2467 H 233.22 3.17101 0.698342 0
M  V30 2468 H 234.231 4.35395 -2.80449 0
M  V30 2469 H 230.908 4.16863 -0.230483 0
M  V30 2470 H 232.298 5.31933 -4.10483 0
M  V30 2471 N 235.018 0.912232 1.28515 0
M  V30 2472 C 235.966 0.389597 2.29314 0
M  V30 2473 C 236.96 -0.517915 1.61289 0
M  V30 2474 O 238.166 -0.399328 1.75515 0
M  V30 2475 H 234.541 0.107386 0.744293 0
M  V30 2476 H 236.512 1.25286 2.70825 0
M  V30 2477 C 235.261 -0.356496 3.45868 0
M  V30 2478 H 234.584 0.332608 3.98414 0
M  V30 2479 H 236.024 -0.686851 4.184 0
M  V30 2480 C 234.483 -1.56383 2.98406 0
M  V30 2481 O 235.013 -2.66294 3.00749 0
M  V30 2482 N 233.219 -1.41029 2.54085 0
M  V30 2483 H 232.766 -0.516089 2.52377 0
M  V30 2484 H 232.724 -2.21939 2.22689 0
M  V30 2485 N 236.496 -1.42363 0.676048 0
M  V30 2486 C 237.426 -2.33497 0.0124832 0
M  V30 2487 C 238.407 -1.50748 -0.787981 0
M  V30 2488 O 239.592 -1.79346 -0.744884 0
M  V30 2489 C 236.722 -3.34377 -0.938582 0
M  V30 2490 C 235.676 -4.27289 -0.246622 0
M  V30 2491 C 235.002 -5.18386 -1.31071 0
M  V30 2492 C 236.302 -5.14916 0.875125 0
M  V30 2493 H 237.996 -2.89233 0.773593 0
M  V30 2494 H 235.542 -1.39073 0.37346 0
M  V30 2495 H 237.495 -3.97044 -1.41188 0
M  V30 2496 H 236.219 -2.76947 -1.73113 0
M  V30 2497 H 234.878 -3.66018 0.206456 0
M  V30 2498 H 234.526 -4.57282 -2.09528 0
M  V30 2499 H 234.226 -5.81378 -0.852839 0
M  V30 2500 H 235.75 -5.83929 -1.78492 0
M  V30 2501 H 237.164 -5.71262 0.482983 0
M  V30 2502 H 235.561 -5.86747 1.25887 0
M  V30 2503 H 236.631 -4.53242 1.72335 0
M  V30 2504 N 237.974 -0.419461 -1.51915 0
M  V30 2505 C 238.884 0.407528 -2.31033 0
M  V30 2506 C 239.9 1.04413 -1.3919 0
M  V30 2507 O 241.076 1.0434 -1.72265 0
M  V30 2508 C 238.141 1.50365 -3.12396 0
M  V30 2509 C 237.202 0.889029 -4.19994 0
M  V30 2510 C 236.435 1.93291 -4.97468 0
M  V30 2511 O 236.658 3.15259 -4.75361 0
M  V30 2512 O 235.592 1.53339 -5.8204 0
M  V30 2513 H 239.418 -0.237865 -3.02767 0
M  V30 2514 H 237.003 -0.182413 -1.48282 0
M  V30 2515 H 238.885 2.13975 -3.63032 0
M  V30 2516 H 237.56 2.13345 -2.43445 0
M  V30 2517 H 236.467 0.215353 -3.7348 0
M  V30 2518 H 237.8 0.302991 -4.91267 0
M  V30 2519 N 239.452 1.56882 -0.150215 0
M  V30 2520 C 240.399 2.16922 0.788244 0
M  V30 2521 C 241.369 1.10303 1.24187 0
M  V30 2522 O 242.554 1.38359 1.31383 0
M  V30 2523 C 239.694 2.79754 2.02068 0
M  V30 2524 C 238.807 4.00775 1.61257 0
M  V30 2525 C 237.942 4.51595 2.79705 0
M  V30 2526 C 236.981 5.65074 2.35282 0
M  V30 2527 N 236.118 6.10499 3.4675 0
M  V30 2528 H 240.958 2.96779 0.269444 0
M  V30 2529 H 238.495 1.46599 0.12128 0
M  V30 2530 H 240.453 3.14329 2.74323 0
M  V30 2531 H 239.083 2.02536 2.51354 0
M  V30 2532 H 238.135 3.72158 0.787553 0
M  V30 2533 H 239.447 4.82978 1.24633 0
M  V30 2534 H 238.601 4.88242 3.60145 0
M  V30 2535 H 237.34 3.68406 3.19576 0
M  V30 2536 H 236.345 5.28 1.53283 0
M  V30 2537 H 237.57 6.50052 1.96493 0
M  V30 2538 H 235.516 5.30243 3.86236 0
M  V30 2539 H 235.433 6.87637 3.14152 0
M  V30 2540 H 236.701 6.51791 4.27537 0
M  V30 2541 N 240.93 -0.123565 1.57115 0
M  V30 2542 C 242.176 -0.833386 1.84885 0
M  V30 2543 C 242.509 -1.79742 0.735292 0
M  V30 2544 O 241.784 -1.92764 -0.25925 0
M  V30 2545 C 242.067 -1.5873 3.23228 0
M  V30 2546 C 241.92 -0.643183 4.45178 0
M  V30 2547 C 243.239 -2.54453 3.59085 0
M  V30 2548 H 240.358 -0.301518 0.6725 0
M  V30 2549 H 243 -0.097778 1.89748 0
M  V30 2550 H 241.15 -2.21438 3.19214 0
M  V30 2551 H 242.822 -0.0253015 4.61293 0
M  V30 2552 H 241.065 0.0456139 4.33776 0
M  V30 2553 H 241.736 -1.20724 5.38637 0
M  V30 2554 H 244.212 -2.01853 3.63861 0
M  V30 2555 H 243.088 -3.04238 4.5687 0
M  V30 2556 H 243.349 -3.36906 2.86264 0
M  V30 2557 N 242.408 -1.52605 -0.393616 0
M  V30 2558 C 243.318 -1.79971 -1.50492 0
M  V30 2559 C 244.334 -0.686181 -1.59899 0
M  V30 2560 O 245.51 -0.973274 -1.76322 0
M  V30 2561 C 242.575 -1.95867 -2.86072 0
M  V30 2562 C 241.636 -3.19781 -2.86424 0
M  V30 2563 C 240.869 -3.34909 -4.15538 0
M  V30 2564 O 241.092 -2.54948 -5.10253 0
M  V30 2565 O 240.026 -4.28141 -4.23059 0
M  V30 2566 H 243.852 -2.74328 -1.30299 0
M  V30 2567 H 241.437 -1.3764 -0.581005 0
M  V30 2568 H 243.319 -2.08056 -3.66457 0
M  V30 2569 H 241.994 -1.04699 -3.063 0
M  V30 2570 H 240.901 -3.13038 -2.04837 0
M  V30 2571 H 242.234 -4.1078 -2.71147 0
M  V30 2572 N 243.887 0.651787 -1.4349 0
M  V30 2573 C 245.117 1.43728 -1.48411 0
M  V30 2574 C 245.525 1.8893 -0.10103 0
M  V30 2575 O 244.868 1.60182 0.899307 0
M  V30 2576 C 244.93 2.70411 -2.36893 0
M  V30 2577 C 244.594 2.4714 -3.8441 0
M  V30 2578 C 245.591 2.10271 -4.75481 0
M  V30 2579 C 243.276 2.6142 -4.28912 0
M  V30 2580 C 245.27 1.87982 -6.0905 0
M  V30 2581 C 242.957 2.38746 -5.62533 0
M  V30 2582 C 243.955 2.02083 -6.5242 0
M  V30 2583 O 243.643 1.79647 -7.8357 0
M  V30 2584 H 243.375 0.447962 -0.506267 0
M  V30 2585 H 245.929 0.80624 -1.88915 0
M  V30 2586 H 244.159 3.36079 -1.91278 0
M  V30 2587 H 245.848 3.32364 -2.33 0
M  V30 2588 H 246.614 1.98814 -4.42378 0
M  V30 2589 H 242.493 2.88931 -3.59222 0
M  V30 2590 H 246.037 1.5929 -6.7917 0
M  V30 2591 H 241.934 2.49806 -5.95203 0
M  V30 2592 H 242.702 1.9406 -7.95162 0
M  V30 2593 N 245.365 1.30045 0.890287 0
M  V30 2594 C 246.328 1.15963 1.977 0
M  V30 2595 C 247.328 0.0923777 1.60534 0
M  V30 2596 O 248.518 0.340071 1.70848 0
M  V30 2597 C 245.65 0.775451 3.31963 0
M  V30 2598 H 246.843 2.12502 2.11619 0
M  V30 2599 H 244.396 1.13366 1.07601 0
M  V30 2600 H 245.131 -0.189671 3.23745 0
M  V30 2601 H 244.916 1.54668 3.60306 0
M  V30 2602 H 246.406 0.700251 4.11687 0
M  V30 2603 N 246.843 -1.10192 1.12674 0
M  V30 2604 C 248.09 -1.82205 0.883606 0
M  V30 2605 C 248.418 -1.8532 -0.590492 0
M  V30 2606 O 247.673 -1.31137 -1.45264 0
M  V30 2607 C 247.972 -3.28552 1.4067 0
M  V30 2608 C 247.638 -3.45582 2.89627 0
M  V30 2609 C 246.3 -3.49937 3.30299 0
M  V30 2610 C 248.652 -3.50768 3.85501 0
M  V30 2611 C 245.98 -3.57049 4.65546 0
M  V30 2612 C 248.332 -3.59414 5.20581 0
M  V30 2613 C 246.996 -3.62034 5.60792 0
M  V30 2614 H 246.266 -0.666735 0.323334 0
M  V30 2615 H 248.913 -1.29868 1.40736 0
M  V30 2616 H 247.218 -3.83473 0.80347 0
M  V30 2617 H 248.915 -3.82788 1.19475 0
M  V30 2618 H 245.505 -3.42871 2.57172 0
M  V30 2619 H 249.689 -3.46651 3.55171 0
M  V30 2620 H 244.945 -3.57361 4.96088 0
M  V30 2621 H 249.119 -3.62371 5.94693 0
M  V30 2622 H 246.746 -3.67298 6.6558 0
M  V30 2623 N 248.321 -0.919034 -1.28029 0
M  V30 2624 C 249.251 -0.428581 -2.29533 0
M  V30 2625 C 250.232 0.50659 -1.62381 0
M  V30 2626 O 251.417 0.413195 -1.89753 0
M  V30 2627 C 248.547 0.327388 -3.45753 0
M  V30 2628 C 247.501 -0.519137 -4.2484 0
M  V30 2629 C 246.827 0.365486 -5.33449 0
M  V30 2630 C 248.127 -1.77914 -4.91064 0
M  V30 2631 H 249.821 -1.27687 -2.70807 0
M  V30 2632 H 247.367 -0.615428 -1.30186 0
M  V30 2633 H 249.32 0.681378 -4.15855 0
M  V30 2634 H 248.044 1.20963 -3.03374 0
M  V30 2635 H 246.703 -0.855717 -3.56473 0
M  V30 2636 H 246.351 1.24642 -4.87312 0
M  V30 2637 H 246.051 -0.197356 -5.87268 0
M  V30 2638 H 247.575 0.715241 -6.06396 0
M  V30 2639 H 248.989 -1.49374 -5.53498 0
M  V30 2640 H 247.386 -2.2848 -5.54903 0
M  V30 2641 H 248.456 -2.50382 -4.15255 0
M  V30 2642 N 249.799 1.42003 -0.683588 0
M  V30 2643 C 251.048 2.00638 -0.206681 0
M  V30 2644 C 251.361 1.5472 1.19671 0
M  V30 2645 O 252.567 2.05833 1.77045 0
M  V30 2646 C 251.023 3.58487 -0.318632 0
M  V30 2647 C 250.631 4.1339 -1.72663 0
M  V30 2648 C 252.375 4.24384 0.0991141 0
M  V30 2649 C 250.282 5.63633 -1.79087 0
M  V30 2650 H 249.212 0.750408 -0.0735107 0
M  V30 2651 H 251.863 1.62624 -0.850048 0
M  V30 2652 H 250.245 3.94047 0.392781 0
M  V30 2653 H 251.419 3.89273 -2.46583 0
M  V30 2654 H 249.734 3.59976 -2.09299 0
M  V30 2655 H 252.331 5.34652 0.0713833 0
M  V30 2656 H 252.674 4.00505 1.13586 0
M  V30 2657 H 253.207 3.93816 -0.561599 0
M  V30 2658 H 249.946 5.92323 -2.80774 0
M  V30 2659 H 249.466 5.89714 -1.09535 0
M  V30 2660 H 251.145 6.28201 -1.5483 0
M  V30 2661 N 251.277 0.427512 1.51691 0
M  V30 2662 C 252.526 -0.143679 2.01188 0
M  V30 2663 C 252.839 -1.44642 1.31674 0
M  V30 2664 O 254.045 -2.09997 1.72086 0
M  V30 2665 C 252.501 -0.306602 3.58592 0
M  V30 2666 C 252.109 0.985125 4.37035 0
M  V30 2667 C 253.853 -0.832091 4.16265 0
M  V30 2668 C 251.76 0.788382 5.86122 0
M  V30 2669 H 250.69 -0.0574701 0.751807 0
M  V30 2670 H 253.341 0.555772 1.74881 0
M  V30 2671 H 251.723 -1.06882 3.81303 0
M  V30 2672 H 252.897 1.75492 4.26074 0
M  V30 2673 H 251.212 1.4384 3.90767 0
M  V30 2674 H 253.809 -0.995617 5.25349 0
M  V30 2675 H 254.152 -1.81186 3.74803 0
M  V30 2676 H 254.685 -0.128444 3.97593 0
M  V30 2677 H 251.424 1.74025 6.31978 0
M  V30 2678 H 250.944 0.0582143 5.99772 0
M  V30 2679 H 252.623 0.437722 6.45518 0
M  V30 2680 N 252.755 -1.56801 0.158532 0
M  V30 2681 C 254.002 -1.9649 -0.489679 0
M  V30 2682 C 254.33 -1.04394 -1.6411 0
M  V30 2683 O 253.585 -0.0754401 -1.95555 0
M  V30 2684 C 253.884 -3.4235 -1.02623 0
M  V30 2685 C 253.55 -4.50899 0.00794526 0
M  V30 2686 C 252.212 -4.80312 0.292207 0
M  V30 2687 C 254.564 -5.16333 0.710584 0
M  V30 2688 C 251.892 -5.72461 1.28472 0
M  V30 2689 C 254.244 -6.09553 1.69199 0
M  V30 2690 C 252.908 -6.37339 1.98383 0
M  V30 2691 H 252.178 -0.719009 -0.179186 0
M  V30 2692 H 254.825 -1.8989 0.247798 0
M  V30 2693 H 253.13 -3.45838 -1.84128 0
M  V30 2694 H 254.827 -3.70393 -1.53656 0
M  V30 2695 H 251.417 -4.28015 -0.22379 0
M  V30 2696 H 255.601 -4.93732 0.504174 0
M  V30 2697 H 250.857 -5.92278 1.51714 0
M  V30 2698 H 255.031 -6.59327 2.24189 0
M  V30 2699 H 252.658 -7.08546 2.7544 0
M  V30 2700 N 254.233 0.115231 -1.57178 0
M  V30 2701 C 255.461 0.836437 -1.89239 0
M  V30 2702 C 255.876 1.73256 -0.750175 0
M  V30 2703 O 255.233 1.80357 0.278832 0
M  V30 2704 C 255.284 1.66671 -3.20785 0
M  V30 2705 O 255.005 0.806652 -4.3061 0
M  V30 2706 C 256.506 2.49274 -3.66575 0
M  V30 2707 H 253.726 0.240253 -0.626514 0
M  V30 2708 H 256.27 0.0984932 -2.04263 0
M  V30 2709 H 254.425 2.35737 -3.0742 0
M  V30 2710 H 254.839 1.37969 -5.06028 0
M  V30 2711 H 256.313 3.03055 -4.6137 0
M  V30 2712 H 256.79 3.26807 -2.93417 0
M  V30 2713 H 257.396 1.85443 -3.82741 0
M  V30 2714 N 255.711 1.52812 0.385517 0
M  V30 2715 C 256.957 1.68275 1.13188 0
M  V30 2716 C 257.29 0.423179 1.89533 0
M  V30 2717 O 256.565 -0.579113 1.85679 0
M  V30 2718 C 256.848 2.92001 2.1073 0
M  V30 2719 C 256.701 4.28067 1.38125 0
M  V30 2720 C 258.02 3.11283 3.11113 0
M  V30 2721 H 255.139 0.612352 0.410115 0
M  V30 2722 H 257.781 1.85415 0.414869 0
M  V30 2723 H 255.931 2.77519 2.71874 0
M  V30 2724 H 257.603 4.54324 0.799187 0
M  V30 2725 H 255.846 4.28388 0.683092 0
M  V30 2726 H 256.517 5.10733 2.09417 0
M  V30 2727 H 258.993 3.2482 2.6006 0
M  V30 2728 H 257.869 3.99325 3.76605 0
M  V30 2729 H 258.13 2.25656 3.80173 0
M  V30 2730 N 257.189 -0.644168 1.43834 0
M  V30 2731 C 258.099 -1.78563 1.52159 0
M  V30 2732 C 259.115 -1.69147 0.408069 0
M  V30 2733 O 260.291 -1.90156 0.663524 0
M  V30 2734 C 257.356 -3.14888 1.45073 0
M  V30 2735 C 256.417 -3.36034 2.6717 0
M  V30 2736 C 255.65 -4.65855 2.60413 0
M  V30 2737 O 255.873 -5.45805 1.65689 0
M  V30 2738 O 254.807 -4.88918 3.5106 0
M  V30 2739 H 258.633 -1.74494 2.48567 0
M  V30 2740 H 256.218 -0.80378 1.25935 0
M  V30 2741 H 258.1 -3.96179 1.43597 0
M  V30 2742 H 256.775 -3.19528 0.518037 0
M  V30 2743 H 255.682 -2.54472 2.74217 0
M  V30 2744 H 257.015 -3.36247 3.59442 0
M  V30 2745 N 258.668 -1.30515 -0.883378 0
M  V30 2746 C 259.896 -1.22359 -1.66841 0
M  V30 2747 C 260.311 0.213296 -1.87591 0
M  V30 2748 O 259.668 1.14075 -1.42454 0
M  V30 2749 C 259.719 -1.95011 -3.04389 0
M  V30 2750 O 259.44 -3.3309 -2.84575 0
M  V30 2751 C 260.941 -1.93532 -3.98824 0
M  V30 2752 H 258.161 -0.423371 -0.520575 0
M  V30 2753 H 260.705 -1.72167 -1.10357 0
M  V30 2754 H 258.86 -1.48997 -3.57601 0
M  V30 2755 H 259.274 -3.69907 -3.71846 0
M  V30 2756 H 260.748 -2.48902 -4.92699 0
M  V30 2757 H 261.225 -0.914627 -4.29571 0
M  V30 2758 H 261.831 -2.39364 -3.51547 0
M  V30 2759 N 260.146 1.09593 -1.13257 0
M  V30 2760 C 261.393 1.81734 -0.893257 0
M  V30 2761 C 261.721 1.8563 0.580656 0
M  V30 2762 O 260.976 1.31906 1.44566 0
M  V30 2763 C 261.275 3.27802 -1.42411 0
M  V30 2764 C 260.941 3.44041 -2.91456 0
M  V30 2765 C 259.603 3.48181 -3.3215 0
M  V30 2766 C 261.955 3.48719 -3.87356 0
M  V30 2767 C 259.283 3.54575 -4.67433 0
M  V30 2768 C 261.635 3.56648 -5.2248 0
M  V30 2769 C 260.299 3.59055 -5.62704 0
M  V30 2770 H 259.569 0.665011 -0.326866 0
M  V30 2771 H 262.216 1.2912 -1.41422 0
M  V30 2772 H 260.521 3.83042 -0.823795 0
M  V30 2773 H 262.218 3.82149 -1.21503 0
M  V30 2774 H 258.808 3.41502 -2.58987 0
M  V30 2775 H 262.992 3.44763 -3.57004 0
M  V30 2776 H 258.248 3.54725 -4.97976 0
M  V30 2777 H 262.422 3.59212 -5.96607 0
M  V30 2778 H 260.049 3.63763 -6.67518 0
M  V30 2779 N 261.624 0.925811 1.2754 0
M  V30 2780 C 262.554 0.440748 2.29303 0
M  V30 2781 C 263.535 -0.497971 1.62648 0
M  V30 2782 O 264.72 -0.403126 1.8997 0
M  V30 2783 C 261.85 -0.309048 3.45922 0
M  V30 2784 C 260.804 0.54166 4.24559 0
M  V30 2785 C 260.13 -0.337191 5.33636 0
M  V30 2786 C 261.43 1.80516 4.90114 0
M  V30 2787 H 263.124 1.29121 2.70126 0
M  V30 2788 H 260.67 0.622323 1.29858 0
M  V30 2789 H 262.623 -0.659315 4.1621 0
M  V30 2790 H 261.347 -1.19352 3.04011 0
M  V30 2791 H 260.006 0.874609 3.56014 0
M  V30 2792 H 259.654 -1.22056 4.87966 0
M  V30 2793 H 259.354 0.228497 5.87156 0
M  V30 2794 H 260.878 -0.683072 6.06767 0
M  V30 2795 H 262.292 1.52307 5.52698 0
M  V30 2796 H 260.689 2.3142 5.53683 0
M  V30 2797 H 261.759 2.52581 4.13921 0
M  V30 2798 N 263.102 -1.41638 0.69111 0
M  V30 2799 C 264.049 -2.30789 0.0229705 0
M  V30 2800 C 265.019 -1.46863 -0.775911 0
M  V30 2801 O 266.204 -1.75661 -0.74485 0
M  V30 2802 C 263.344 -3.32868 -0.910666 0
M  V30 2803 C 262.457 -4.31875 -0.103874 0
M  V30 2804 C 261.592 -5.21024 -1.03475 0
M  V30 2805 C 260.631 -6.11702 -0.220598 0
M  V30 2806 N 259.768 -6.93349 -1.10504 0
M  V30 2807 H 264.608 -2.87366 0.788978 0
M  V30 2808 H 262.145 -1.41535 0.400794 0
M  V30 2809 H 264.103 -3.90596 -1.46597 0
M  V30 2810 H 262.733 -2.77851 -1.64312 0
M  V30 2811 H 261.785 -3.76131 0.568285 0
M  V30 2812 H 263.097 -4.96003 0.527504 0
M  V30 2813 H 262.251 -5.83565 -1.65943 0
M  V30 2814 H 260.99 -4.57112 -1.69999 0
M  V30 2815 H 259.995 -5.48215 0.417187 0
M  V30 2816 H 261.22 -6.77668 0.440784 0
M  V30 2817 H 259.166 -6.3205 -1.75638 0
M  V30 2818 H 259.083 -7.54146 -0.529125 0
M  V30 2819 H 260.351 -7.60362 -1.71667 0
M  V30 2820 N 264.58 -0.43555 -1.51462 0
M  V30 2821 C 265.829 0.133007 -2.01261 0
M  V30 2822 C 266.142 1.43942 -1.32439 0
M  V30 2823 O 267.348 2.09081 -1.73198 0
M  V30 2824 C 265.804 0.287581 -3.58749 0
M  V30 2825 C 265.412 -1.00829 -4.36506 0
M  V30 2826 C 267.156 0.810004 -4.167 0
M  V30 2827 C 265.063 -0.819454 -5.85695 0
M  V30 2828 H 263.993 0.0534822 -0.752101 0
M  V30 2829 H 266.644 -0.565038 -1.74584 0
M  V30 2830 H 265.026 1.04859 -3.81865 0
M  V30 2831 H 266.2 -1.77749 -4.25138 0
M  V30 2832 H 264.515 -1.45911 -3.89999 0
M  V30 2833 H 267.112 0.967743 -5.2587 0
M  V30 2834 H 267.455 1.79196 -3.75758 0
M  V30 2835 H 267.988 0.107357 -3.97655 0
M  V30 2836 H 264.727 -1.77374 -6.31046 0
M  V30 2837 H 264.247 -0.0900208 -5.99732 0
M  V30 2838 H 265.926 -0.471949 -6.45276 0
M  V30 2839 N 266.058 1.56714 -0.166846 0
M  V30 2840 C 267.307 1.95922 0.479318 0
M  V30 2841 C 267.62 1.05529 1.6469 0
M  V30 2842 O 268.826 1.34399 2.35901 0
M  V30 2843 C 267.282 3.48359 0.90412 0
M  V30 2844 C 266.89 4.47369 -0.237621 0
M  V30 2845 C 268.634 3.96394 1.51896 0
M  V30 2846 C 266.541 5.91039 0.206561 0
M  V30 2847 H 265.471 0.731495 0.18284 0
M  V30 2848 H 268.122 1.81728 -0.254363 0
M  V30 2849 H 266.504 3.57955 1.69365 0
M  V30 2850 H 267.678 4.49485 -1.01489 0
M  V30 2851 H 265.993 4.09366 -0.762128 0
M  V30 2852 H 268.59 5.01186 1.86325 0
M  V30 2853 H 268.933 3.39075 2.41524 0
M  V30 2854 H 269.466 3.89796 0.79395 0
M  V30 2855 H 266.205 6.52221 -0.654834 0
M  V30 2856 H 265.725 5.9224 0.949282 0
M  V30 2857 H 267.404 6.43707 0.651939 0
M  V30 2858 N 267.536 -0.106894 1.57237 0
M  V30 2859 C 268.499 -1.11466 2.0027 0
M  V30 2860 C 269.499 -1.33623 0.894519 0
M  V30 2861 O 270.689 -1.29935 1.16028 0
M  V30 2862 C 267.821 -2.46646 2.35327 0
M  V30 2863 H 269.014 -0.744516 2.90512 0
M  V30 2864 H 266.567 -0.351576 1.52295 0
M  V30 2865 H 267.302 -2.88558 1.48003 0
M  V30 2866 H 267.087 -2.31915 3.16161 0
M  V30 2867 H 268.577 -3.19151 2.69318 0
M  V30 2868 N 269.014 -1.53014 -0.377408 0
M  V30 2869 C 270.244 -1.72265 -1.14054 0
M  V30 2870 C 270.652 -0.44601 -1.83868 0
M  V30 2871 O 269.995 0.590095 -1.73964 0
M  V30 2872 C 270.057 -2.82492 -2.22348 0
M  V30 2873 C 269.721 -4.23233 -1.72402 0
M  V30 2874 C 270.718 -5.05992 -1.19448 0
M  V30 2875 C 268.403 -4.696 -1.78273 0
M  V30 2876 C 270.397 -6.33203 -0.730268 0
M  V30 2877 C 268.084 -5.96792 -1.31464 0
M  V30 2878 C 269.082 -6.78424 -0.789297 0
M  V30 2879 O 268.77 -8.0323 -0.328077 0
M  V30 2880 H 268.502 -0.579873 -0.347453 0
M  V30 2881 H 271.056 -2.00502 -0.445882 0
M  V30 2882 H 269.286 -2.49702 -2.95272 0
M  V30 2883 H 270.975 -2.90034 -2.83963 0
M  V30 2884 H 271.741 -4.71349 -1.14259 0
M  V30 2885 H 267.62 -4.06142 -2.18106 0
M  V30 2886 H 271.164 -6.96868 -0.319542 0
M  V30 2887 H 267.061 -6.30937 -1.36342 0
M  V30 2888 H 267.829 -8.1727 -0.448493 0
M  V30 2889 N 270.492 0.636531 -1.44174 0
M  V30 2890 C 271.74 1.39343 -1.46383 0
M  V30 2891 C 272.061 1.94766 -0.0955715 0
M  V30 2892 O 271.331 1.75452 0.871395 0
M  V30 2893 H 269.911 0.517199 -0.538994 0
M  V30 2894 H 272.573 0.74957 -1.7991 0
M  V30 2895 H 271.669 2.22746 -2.18611 0
M  V30 2896 N 271.97 1.30982 0.876444 0
M  V30 2897 C 272.9 1.20668 1.99903 0
M  V30 2898 C 273.881 0.095354 1.69833 0
M  V30 2899 O 275.066 0.27885 1.92188 0
M  V30 2900 C 272.196 0.90655 3.3526 0
M  V30 2901 C 271.15 1.97675 3.79617 0
M  V30 2902 C 270.476 1.52943 5.1236 0
M  V30 2903 C 271.776 3.389 3.97422 0
M  V30 2904 H 273.47 2.14586 2.0879 0
M  V30 2905 H 271.016 1.03308 1.00317 0
M  V30 2906 H 272.969 0.821025 4.13324 0
M  V30 2907 H 271.693 -0.0682969 3.26529 0
M  V30 2908 H 270.352 2.05205 3.03787 0
M  V30 2909 H 270 0.54262 5.00065 0
M  V30 2910 H 269.7 2.24532 5.43009 0
M  V30 2911 H 271.224 1.45786 5.92941 0
M  V30 2912 H 272.638 3.34081 4.659 0
M  V30 2913 H 271.035 4.0865 4.3946 0
M  V30 2914 H 272.105 3.80163 3.01006 0
M  V30 2915 N 273.449 -1.08991 1.13837 0
M  V30 2916 C 274.379 -2.17771 0.842507 0
M  V30 2917 C 275.36 -1.6892 -0.20001 0
M  V30 2918 O 276.545 -1.94113 -0.0579731 0
M  V30 2919 C 273.675 -3.4589 0.312644 0
M  V30 2920 C 272.629 -4.08099 1.28992 0
M  V30 2921 C 271.955 -5.31098 0.619623 0
M  V30 2922 C 273.255 -4.50077 2.65005 0
M  V30 2923 H 274.949 -2.42777 1.75213 0
M  V30 2924 H 272.495 -1.16682 0.843875 0
M  V30 2925 H 274.448 -4.21297 0.0933043 0
M  V30 2926 H 273.172 -3.20419 -0.632382 0
M  V30 2927 H 271.831 -3.34717 1.49533 0
M  V30 2928 H 271.479 -5.0191 -0.33102 0
M  V30 2929 H 271.179 -5.73674 1.27167 0
M  V30 2930 H 272.703 -6.09224 0.409669 0
M  V30 2931 H 274.117 -5.16688 2.48407 0
M  V30 2932 H 272.514 -5.03553 3.26427 0
M  V30 2933 H 273.584 -3.62257 3.22332 0
M  V30 2934 N 274.927 -0.932562 -1.27047 0
M  V30 2935 C 275.857 -0.452902 -2.29066 0
M  V30 2936 C 276.838 0.489338 -1.62909 0
M  V30 2937 O 278.023 0.393046 -1.90181 0
M  V30 2938 C 275.153 0.290698 -3.46081 0
M  V30 2939 C 274.107 -0.564168 -4.24265 0
M  V30 2940 C 273.433 0.308886 -5.33807 0
M  V30 2941 C 274.733 -1.83112 -4.89149 0
M  V30 2942 H 276.427 -1.30552 -2.69437 0
M  V30 2943 H 273.973 -0.629201 -1.29526 0
M  V30 2944 H 275.926 0.637233 -4.16554 0
M  V30 2945 H 274.65 1.17738 -3.0464 0
M  V30 2946 H 273.309 -0.893477 -3.55545 0
M  V30 2947 H 272.957 1.19467 -4.88607 0
M  V30 2948 H 272.657 -0.259633 -5.87026 0
M  V30 2949 H 274.181 0.650884 -6.07121 0
M  V30 2950 H 275.595 -1.55236 -5.51883 0
M  V30 2951 H 273.992 -2.34353 -5.52448 0
M  V30 2952 H 275.062 -2.54772 -4.12576 0
M  V30 2953 N 276.405 1.4127 -0.698611 0
M  V30 2954 C 277.355 2.27997 -0.0119836 0
M  V30 2955 C 278.339 1.42363 0.749765 0
M  V30 2956 O 279.531 1.65607 0.624758 0
M  V30 2957 C 276.66 3.30702 0.921458 0
M  V30 2958 C 275.746 4.23814 0.155796 0
M  V30 2959 N 276.137 4.98572 -0.852015 0
M  V30 2960 C 274.435 4.44284 0.390836 0
M  V30 2961 C 275.136 5.66744 -1.3106 0
M  V30 2962 N 274.112 5.39867 -0.635944 0
M  V30 2963 H 277.914 2.83232 -0.784649 0
M  V30 2964 H 275.428 1.53518 -0.529711 0
M  V30 2965 H 277.425 3.91661 1.42854 0
M  V30 2966 H 276.085 2.77028 1.69369 0
M  V30 2967 H 277.096 5.03024 -1.23235 0
M  V30 2968 H 273.773 4.01614 1.14071 0
M  V30 2969 H 275.163 6.36672 -2.14707 0
M  V30 2970 N 277.883 0.443576 1.51229 0
M  V30 2971 C 279.294 -0.0180867 1.86691 0
M  V30 2972 C 279.645 -1.41384 1.36033 0
M  V30 2973 O 278.77 -2.04291 0.713722 0
M  V30 2974 C 279.365 -0.039597 3.38777 0
M  V30 2975 C 277.924 -0.445692 3.73752 0
M  V30 2976 C 277.071 0.357584 2.74985 0
M  V30 2977 H 280.022 0.659138 1.44364 0
M  V30 2978 H 280.043 -0.847761 3.70936 0
M  V30 2979 H 279.555 0.976382 3.75617 0
M  V30 2980 H 277.656 -1.46704 3.42503 0
M  V30 2981 H 277.769 -0.166155 4.78812 0
M  V30 2982 H 276.133 -0.184973 2.54027 0
M  V30 2983 H 276.916 1.37256 3.14668 0
M  V30 2984 N 279.361 -1.56624 0.175154 0
M  V30 2985 C 280.309 -2.19468 -0.770495 0
M  V30 2986 C 281.303 -1.15985 -1.23466 0
M  V30 2987 O 282.509 -1.34176 -1.19987 0
M  V30 2988 H 278.884 -0.703095 -0.266761 0
M  V30 2989 H 280.855 -2.97613 -0.216542 0
M  V30 2990 C 279.604 -2.85264 -1.98796 0
M  V30 2991 H 278.927 -3.64623 -1.63983 0
M  V30 2992 H 280.367 -3.327 -2.62843 0
M  V30 2993 C 278.826 -1.85239 -2.81404 0
M  V30 2994 O 279.356 -1.34024 -3.78682 0
M  V30 2995 N 277.562 -1.53911 -2.46495 0
M  V30 2996 H 277.109 -1.95751 -1.67449 0
M  V30 2997 H 277.067 -0.872382 -3.02054 0
M  V30 2998 N 280.839 0.0985539 -1.57292 0
M  V30 2999 C 281.802 1.10402 -2.00858 0
M  V30 3000 C 282.802 1.33146 -0.901593 0
M  V30 3001 O 283.992 1.29318 -1.16716 0
M  V30 3002 C 281.124 2.45394 -2.36632 0
M  V30 3003 H 282.317 0.729099 -2.90902 0
M  V30 3004 H 279.87 0.343495 -1.52479 0
M  V30 3005 H 280.605 2.87769 -1.49531 0
M  V30 3006 H 280.39 2.30235 -3.17387 0
M  V30 3007 H 281.88 3.17718 -2.71007 0
M  V30 3008 N 282.317 1.53212 0.369288 0
M  V30 3009 C 283.547 1.72868 1.13139 0
M  V30 3010 C 283.955 0.455754 1.83629 0
M  V30 3011 O 283.298 -0.580861 1.74275 0
M  V30 3012 C 283.36 2.83667 2.20847 0
M  V30 3013 C 283.024 4.24142 1.70155 0
M  V30 3014 C 284.021 5.06619 1.16763 0
M  V30 3015 C 281.706 4.70539 1.7578 0
M  V30 3016 C 283.7 6.33581 0.696678 0
M  V30 3017 C 281.387 5.97481 1.28297 0
M  V30 3018 C 282.385 6.78833 0.753307 0
M  V30 3019 O 282.073 8.03393 0.285475 0
M  V30 3020 H 281.805 0.581707 0.344373 0
M  V30 3021 H 284.359 2.00736 0.435243 0
M  V30 3022 H 282.589 2.51265 2.93944 0
M  V30 3023 H 284.278 2.91536 2.82421 0
M  V30 3024 H 285.044 4.71948 1.11758 0
M  V30 3025 H 280.923 4.07293 2.15949 0
M  V30 3026 H 284.467 6.97027 0.282581 0
M  V30 3027 H 280.364 6.31651 1.32994 0
M  V30 3028 H 281.132 8.17497 0.405145 0
M  V30 3029 N 283.795 -0.628877 1.44509 0
M  V30 3030 C 285.041 -1.39045 1.47629 0
M  V30 3031 C 285.374 -1.93892 0.109343 0
M  V30 3032 O 284.649 -1.7379 -0.87334 0
M  V30 3033 C 284.932 -2.55408 2.53848 0
M  V30 3034 C 284.785 -2.05896 3.99909 0
M  V30 3035 C 286.104 -3.5759 2.56549 0
M  V30 3036 H 283.223 -0.504232 0.537512 0
M  V30 3037 H 285.865 -0.710854 1.76201 0
M  V30 3038 H 284.015 -3.13384 2.29615 0
M  V30 3039 H 285.687 -1.52734 4.35282 0
M  V30 3040 H 283.93 -1.37061 4.11578 0
M  V30 3041 H 284.601 -2.89681 4.69882 0
M  V30 3042 H 287.077 -3.09419 2.78207 0
M  V30 3043 H 285.953 -4.36527 3.32769 0
M  V30 3044 H 286.214 -4.11808 1.60832 0
M  V30 3045 N 285.273 -1.31445 -0.869486 0
M  V30 3046 C 286.689 -1.10113 -1.15531 0
M  V30 3047 C 286.889 0.128087 -2.01092 0
M  V30 3048 O 285.945 0.817276 -2.38908 0
M  V30 3049 C 287.258 -2.37291 -1.84698 0
M  V30 3050 C 288.806 -2.42906 -1.97397 0
M  V30 3051 C 289.281 -3.69967 -2.69979 0
M  V30 3052 N 290.772 -3.70864 -2.77514 0
M  V30 3053 C 291.507 -4.65875 -3.34287 0
M  V30 3054 N 291.003 -5.71242 -3.91988 0
M  V30 3055 N 292.796 -4.53394 -3.3225 0
M  V30 3056 H 284.947 -2.1028 -0.299347 0
M  V30 3057 H 287.21 -0.927683 -0.195214 0
M  V30 3058 H 286.916 -3.27078 -1.29278 0
M  V30 3059 H 286.79 -2.47125 -2.84972 0
M  V30 3060 H 289.177 -1.53588 -2.51982 0
M  V30 3061 H 289.258 -2.37036 -0.961643 0
M  V30 3062 H 288.902 -4.59652 -2.16062 0
M  V30 3063 H 288.832 -3.73103 -3.7162 0
M  V30 3064 H 291.323 -2.94697 -2.36563 0
M  V30 3065 H 291.636 -6.39817 -4.33421 0
M  V30 3066 H 289.981 -5.75015 -3.90362 0
M  V30 3067 H 293.172 -3.70252 -2.8641 0
M  V30 3068 H 293.345 -5.27617 -3.76197 0
M  V30 3069 N 286.751 1.08385 -1.14413 0
M  V30 3070 C 287.699 2.17406 -0.826888 0
M  V30 3071 C 288.693 1.6827 0.195312 0
M  V30 3072 O 289.899 1.79927 0.0513892 0
M  V30 3073 H 286.274 0.70934 -0.249681 0
M  V30 3074 H 288.245 2.41388 -1.75426 0
M  V30 3075 C 286.994 3.46215 -0.320979 0
M  V30 3076 H 286.317 3.84401 -1.0989 0
M  V30 3077 H 287.757 4.23777 -0.137549 0
M  V30 3078 C 286.216 3.23067 0.955472 0
M  V30 3079 O 286.746 3.4668 2.02918 0
M  V30 3080 N 284.952 2.7661 0.890798 0
M  V30 3081 H 284.499 2.57594 0.0168815 0
M  V30 3082 H 284.457 2.61501 1.74542 0
M  V30 3083 N 288.23 0.939286 1.26551 0
M  V30 3084 C 289.478 0.58469 1.93457 0
M  V30 3085 C 289.799 -0.878774 1.74076 0
M  V30 3086 O 289.069 -1.62421 1.09528 0
M  V30 3087 H 287.649 0.21325 0.715914 0
M  V30 3088 H 290.311 1.1942 1.54029 0
M  V30 3089 H 289.407 0.800849 3.0165 0
M  V30 3090 N 289.708 -1.40897 0.706093 0
M  V30 3091 C 290.954 -2.01849 0.250681 0
M  V30 3092 C 291.309 -1.5496 -1.14041 0
M  V30 3093 O 290.602 -0.755566 -1.76073 0
M  V30 3094 C 290.796 -3.5646 0.259099 0
M  V30 3095 C 290.625 -4.18357 1.64947 0
M  V30 3096 C 289.395 -4.522 2.25485 0
M  V30 3097 C 291.593 -4.43856 2.598 0
M  V30 3098 N 289.575 -4.9944 3.56977 0
M  V30 3099 C 290.946 -4.92986 3.75985 0
M  V30 3100 C 293.001 -4.25882 2.57933 0
M  V30 3101 C 291.704 -5.2603 4.90597 0
M  V30 3102 C 293.73 -4.6002 3.71665 0
M  V30 3103 C 293.092 -5.09331 4.86581 0
M  V30 3104 H 289.191 -0.769843 0.137353 0
M  V30 3105 H 291.775 -1.71278 0.925845 0
M  V30 3106 H 289.946 -3.86481 -0.385592 0
M  V30 3107 H 291.678 -4.04144 -0.21213 0
M  V30 3108 H 288.433 -4.3901 1.77671 0
M  V30 3109 H 288.857 -5.27454 4.24407 0
M  V30 3110 H 293.499 -3.86986 1.70298 0
M  V30 3111 H 291.217 -5.63843 5.78884 0
M  V30 3112 H 294.803 -4.47762 3.71484 0
M  V30 3113 H 293.683 -5.35251 5.73129 0
M  V30 3114 N 291.186 -0.45159 -1.50991 0
M  V30 3115 C 292.134 0.366864 -2.29689 0
M  V30 3116 C 293.128 1.00809 -1.36139 0
M  V30 3117 O 294.334 0.941427 -1.53418 0
M  V30 3118 H 290.709 0.137133 -0.739391 0
M  V30 3119 H 292.68 -0.317538 -2.96706 0
M  V30 3120 C 291.429 1.44751 -3.16137 0
M  V30 3121 H 290.752 0.963473 -3.88017 0
M  V30 3122 H 292.192 1.99315 -3.74232 0
M  V30 3123 C 290.651 2.43869 -2.32442 0
M  V30 3124 O 291.181 3.4872 -1.99392 0
M  V30 3125 N 289.387 2.15105 -1.95392 0
M  V30 3126 H 288.934 1.29866 -2.22469 0
M  V30 3127 H 288.892 2.81661 -1.39693 0
M  V30 3128 N 292.664 1.56529 -0.183458 0
M  V30 3129 C 293.594 2.21549 0.737456 0
M  V30 3130 C 294.575 1.17489 1.23005 0
M  V30 3131 O 295.76 1.45959 1.281 0
M  V30 3132 C 292.89 2.86575 1.96194 0
M  V30 3133 C 291.844 3.96778 1.60473 0
M  V30 3134 C 291.17 4.48911 2.90487 0
M  V30 3135 C 292.47 5.15767 0.823497 0
M  V30 3136 H 294.164 2.98761 0.195453 0
M  V30 3137 H 291.71 1.43702 0.0925686 0
M  V30 3138 H 293.663 3.30739 2.61131 0
M  V30 3139 H 292.387 2.06749 2.52828 0
M  V30 3140 H 291.046 3.53286 0.978997 0
M  V30 3141 H 290.694 3.65862 3.45186 0
M  V30 3142 H 290.394 5.23265 2.67335 0
M  V30 3143 H 291.918 4.95771 3.56432 0
M  V30 3144 H 293.332 5.56549 1.37571 0
M  V30 3145 H 291.729 5.96114 0.690551 0
M  V30 3146 H 292.799 4.84574 -0.177782 0
M  V30 3147 N 294.142 -0.090211 1.57342 0
M  V30 3148 C 295.072 -1.10976 2.05443 0
M  V30 3149 C 296.053 -1.41482 0.944284 0
M  V30 3150 O 297.238 -1.51428 1.21586 0
M  V30 3151 C 294.368 -2.42831 2.48295 0
M  V30 3152 C 293.322 -2.26721 3.63018 0
M  V30 3153 C 292.648 -3.63796 3.91863 0
M  V30 3154 C 293.948 -1.7037 4.93732 0
M  V30 3155 H 295.642 -0.709564 2.9087 0
M  V30 3156 H 293.188 -0.339874 1.39932 0
M  V30 3157 H 295.141 -3.14431 2.80555 0
M  V30 3158 H 293.865 -2.84795 1.59873 0
M  V30 3159 H 292.524 -1.57565 3.31012 0
M  V30 3160 H 292.172 -4.03297 3.00601 0
M  V30 3161 H 291.872 -3.53861 4.69101 0
M  V30 3162 H 293.396 -4.36855 4.26603 0
M  V30 3163 H 294.81 -2.31816 5.24342 0
M  V30 3164 H 293.207 -1.71181 5.75167 0
M  V30 3165 H 294.277 -0.663542 4.80339 0
M  V30 3166 N 295.62 -1.53406 -0.361157 0
M  V30 3167 C 296.897 -1.60411 -1.11927 0
M  V30 3168 C 297.277 -0.414385 -2.06993 0
M  V30 3169 O 296.625 0.594976 -2.20618 0
M  V30 3170 C 296.835 -2.95652 -1.85448 0
M  V30 3171 C 298.183 -3.50386 -2.39823 0
M  V30 3172 O 299.207 -2.97711 -1.95568 0
M  V30 3173 O 298.066 -4.42482 -3.20737 0
M  V30 3174 H 295.16 -0.64811 -0.513695 0
M  V30 3175 H 297.706 -1.65749 -0.364065 0
M  V30 3176 H 296.478 -3.73682 -1.16091 0
M  V30 3177 H 296.101 -2.93825 -2.67866 0
M  V30 3178 N 297.098 0.621204 -1.44841 0
M  V30 3179 C 298.345 1.38055 -1.48145 0
M  V30 3180 C 298.673 1.94143 -0.117867 0
M  V30 3181 O 297.928 1.74713 0.881694 0
M  V30 3182 C 298.227 2.55675 -2.4973 0
M  V30 3183 C 297.893 2.17817 -3.94799 0
M  V30 3184 C 296.555 2.07205 -4.34303 0
M  V30 3185 C 298.907 1.88065 -4.86087 0
M  V30 3186 C 296.235 1.65045 -5.63007 0
M  V30 3187 C 298.587 1.47394 -6.15189 0
M  V30 3188 C 297.251 1.35331 -6.53637 0
M  V30 3189 H 296.521 0.505181 -0.542101 0
M  V30 3190 H 299.168 0.703477 -1.78111 0
M  V30 3191 H 297.473 3.2866 -2.13284 0
M  V30 3192 H 299.17 3.13904 -2.4953 0
M  V30 3193 H 295.76 2.26998 -3.63552 0
M  V30 3194 H 299.944 1.95168 -4.56315 0
M  V30 3195 H 295.2 1.54317 -5.91605 0
M  V30 3196 H 299.374 1.23415 -6.85377 0
M  V30 3197 H 297.001 1.02435 -7.53267 0
M  V30 3198 N 298.576 1.31904 0.862503 0
M  V30 3199 C 299.822 1.22197 1.61851 0
M  V30 3200 C 300.155 -0.217641 1.92977 0
M  V30 3201 O 299.43 -1.15264 1.56666 0
M  V30 3202 C 299.713 2.07378 2.94391 0
M  V30 3203 C 299.566 3.59678 2.70096 0
M  V30 3204 C 300.885 1.92891 3.95577 0
M  V30 3205 H 298.004 0.445255 0.587296 0
M  V30 3206 H 300.646 1.6177 0.99651 0
M  V30 3207 H 298.796 1.73758 3.47477 0
M  V30 3208 H 300.468 4.03472 2.23625 0
M  V30 3209 H 298.711 3.82735 2.04197 0
M  V30 3210 H 299.382 4.14595 3.64438 0
M  V30 3211 H 301.858 2.22327 3.51724 0
M  V30 3212 H 300.734 2.54781 4.86187 0
M  V30 3213 H 300.995 0.894315 4.3296 0
M  V30 3214 N 300.054 -1.07777 1.14986 0
M  V30 3215 C 301.303 -1.79669 0.916617 0
M  V30 3216 C 301.616 -1.87474 -0.557917 0
M  V30 3217 O 302.822 -2.55845 -0.908617 0
M  V30 3218 C 301.278 -3.22848 1.59051 0
M  V30 3219 C 300.886 -3.23257 3.10176 0
M  V30 3220 C 302.63 -3.99379 1.43864 0
M  V30 3221 C 300.537 -4.61063 3.70372 0
M  V30 3222 H 299.467 -0.673349 0.33929 0
M  V30 3223 H 302.118 -1.21003 1.37951 0
M  V30 3224 H 300.5 -3.8168 1.0553 0
M  V30 3225 H 301.674 -2.74095 3.70417 0
M  V30 3226 H 299.989 -2.60222 3.25074 0
M  V30 3227 H 302.586 -5.0122 1.86232 0
M  V30 3228 H 302.929 -4.14511 0.385564 0
M  V30 3229 H 303.462 -3.47032 1.94457 0
M  V30 3230 H 300.201 -4.51135 4.7556 0
M  V30 3231 H 299.721 -5.1048 3.14913 0
M  V30 3232 H 301.4 -5.30034 3.71043 0
M  V30 3233 N 301.532 -0.945985 -1.26051 0
M  V30 3234 C 302.778 -0.597002 -1.93814 0
M  V30 3235 C 303.111 0.862484 -1.73997 0
M  V30 3236 O 302.386 1.61769 -1.07986 0
M  V30 3237 C 302.669 -0.945937 -3.47454 0
M  V30 3238 C 302.522 -2.46052 -3.76535 0
M  V30 3239 C 303.841 -0.464785 -4.37639 0
M  V30 3240 H 300.96 -0.218366 -0.703907 0
M  V30 3241 H 303.602 -1.18107 -1.48831 0
M  V30 3242 H 301.752 -0.448902 -3.85898 0
M  V30 3243 H 303.424 -3.03065 -3.47778 0
M  V30 3244 H 301.667 -2.90194 -3.22444 0
M  V30 3245 H 302.338 -2.65517 -4.83947 0
M  V30 3246 H 304.814 -0.891016 -4.06448 0
M  V30 3247 H 303.69 -0.737712 -5.4392 0
M  V30 3248 H 303.951 0.635274 -4.37512 0
M  V30 3249 N 303.011 1.40521 -0.713556 0
M  V30 3250 C 304.26 2.00155 -0.249192 0
M  V30 3251 C 304.573 1.57224 1.16362 0
M  V30 3252 O 305.779 2.09542 1.72639 0
M  V30 3253 C 304.235 3.5773 -0.3946 0
M  V30 3254 C 303.843 4.09635 -1.81392 0
M  V30 3255 C 305.587 4.24499 0.00907364 0
M  V30 3256 C 303.494 5.59707 -1.91003 0
M  V30 3257 H 302.424 0.74868 -0.0894114 0
M  V30 3258 H 305.075 1.60784 -0.884352 0
M  V30 3259 H 303.457 3.94792 0.30911 0
M  V30 3260 H 304.631 3.83955 -2.54785 0
M  V30 3261 H 302.946 3.55456 -2.16888 0
M  V30 3262 H 305.543 5.34683 -0.0420404 0
M  V30 3263 H 305.886 4.02824 1.05065 0
M  V30 3264 H 306.419 3.92536 -0.645007 0
M  V30 3265 H 303.158 5.86234 -2.93275 0
M  V30 3266 H 302.678 5.87258 -1.22019 0
M  V30 3267 H 304.357 6.24776 -1.6812 0
M  V30 3268 N 304.489 0.459591 1.5075 0
M  V30 3269 C 305.735 -0.0994966 2.02556 0
M  V30 3270 C 306.068 -1.40399 1.3417 0
M  V30 3271 O 305.343 -1.88892 0.463683 0
M  V30 3272 C 305.626 -0.295242 3.58888 0
M  V30 3273 C 305.479 1.02947 4.37861 0
M  V30 3274 C 306.798 -1.05502 4.27267 0
M  V30 3275 H 303.917 -0.034686 0.736183 0
M  V30 3276 H 306.559 0.602938 1.8018 0
M  V30 3277 H 304.709 -0.893563 3.78084 0
M  V30 3278 H 306.381 1.66348 4.30263 0
M  V30 3279 H 304.624 1.62885 4.02058 0
M  V30 3280 H 305.295 0.846281 5.45474 0
M  V30 3281 H 307.771 -0.547993 4.12476 0
M  V30 3282 H 306.647 -1.16077 5.36486 0
M  V30 3283 H 306.908 -2.08875 3.89645 0
M  V30 3284 N 305.967 -1.56429 0.191757 0
M  V30 3285 C 307.215 -1.97095 -0.447006 0
M  V30 3286 C 307.536 -1.07967 -1.62383 0
M  V30 3287 O 306.806 -0.150248 -1.95323 0
M  V30 3288 H 305.386 -0.727832 -0.168135 0
M  V30 3289 H 308.048 -1.92911 0.27771 0
M  V30 3290 H 307.144 -3.01848 -0.793371 0
M  V30 3291 N 307.445 0.0818655 -1.57387 0
M  V30 3292 C 308.375 1.09885 -2.06028 0
M  V30 3293 C 309.356 1.4098 -0.951774 0
M  V30 3294 O 310.541 1.50781 -1.22387 0
M  V30 3295 C 307.671 2.4151 -2.4958 0
M  V30 3296 C 306.625 2.24792 -3.64215 0
M  V30 3297 C 305.951 3.61712 -3.93787 0
M  V30 3298 C 307.251 1.67749 -4.94629 0
M  V30 3299 H 308.945 0.694128 -2.91243 0
M  V30 3300 H 306.491 0.332448 -1.4011 0
M  V30 3301 H 308.444 3.12939 -2.82219 0
M  V30 3302 H 307.168 2.83943 -1.61381 0
M  V30 3303 H 305.827 1.55807 -3.31843 0
M  V30 3304 H 305.475 4.01697 -3.02735 0
M  V30 3305 H 305.175 3.51368 -4.70971 0
M  V30 3306 H 306.699 4.34587 -4.28913 0
M  V30 3307 H 308.113 2.29032 -5.25564 0
M  V30 3308 H 306.51 1.68128 -5.76067 0
M  V30 3309 H 307.58 0.638059 -4.80684 0
M  V30 3310 N 308.923 1.53595 0.353017 0
M  V30 3311 C 310.17 1.70385 1.09431 0
M  V30 3312 C 310.498 0.462113 1.88931 0
M  V30 3313 O 309.753 -0.556074 1.87633 0
M  V30 3314 C 310.052 2.91313 2.07054 0
M  V30 3315 C 309.718 4.27308 1.43939 0
M  V30 3316 C 308.38 4.64287 1.26454 0
M  V30 3317 C 310.732 5.11829 0.983883 0
M  V30 3318 C 308.06 5.83412 0.620226 0
M  V30 3319 C 310.412 6.31611 0.353516 0
M  V30 3320 C 309.076 6.67293 0.166272 0
M  V30 3321 H 308.346 0.623484 0.400436 0
M  V30 3322 H 310.993 1.87799 0.374655 0
M  V30 3323 H 309.298 2.68463 2.85368 0
M  V30 3324 H 310.995 3.01497 2.64387 0
M  V30 3325 H 307.585 3.98198 1.58543 0
M  V30 3326 H 311.769 4.838 1.10685 0
M  V30 3327 H 307.025 6.09639 0.463681 0
M  V30 3328 H 311.199 6.964 -0.00757555 0
M  V30 3329 H 308.826 7.59461 -0.335047 0
M  V30 3330 N 310.401 -0.613514 1.45168 0
M  V30 3331 C 311.626 -1.40437 1.52618 0
M  V30 3332 C 312.051 -1.87438 0.157707 0
M  V30 3333 O 311.409 -1.59791 -0.856537 0
M  V30 3334 C 311.457 -2.58894 2.51011 0
M  V30 3335 O 310.561 -3.59326 2.02382 0
M  V30 3336 H 309.902 -0.419506 0.514695 0
M  V30 3337 H 312.432 -0.747215 1.90467 0
M  V30 3338 H 312.442 -3.06214 2.69624 0
M  V30 3339 H 311.117 -2.24032 3.50403 0
M  V30 3340 H 309.694 -3.18695 1.93618 0
M  V30 3341 N 311.879 -1.3236 -0.855495 0
M  V30 3342 C 313.125 -1.23054 -1.612 0
M  V30 3343 C 313.458 0.207404 -1.93089 0
M  V30 3344 O 312.733 1.14432 -1.57275 0
M  V30 3345 C 313.016 -2.08937 -2.93287 0
M  V30 3346 C 312.869 -3.61105 -2.68185 0
M  V30 3347 C 314.188 -1.94986 -3.94549 0
M  V30 3348 H 311.307 -0.448364 -0.584926 0
M  V30 3349 H 313.949 -1.62297 -0.987917 0
M  V30 3350 H 312.099 -1.75599 -3.46551 0
M  V30 3351 H 313.771 -4.04652 -2.21483 0
M  V30 3352 H 312.014 -3.83813 -2.02164 0
M  V30 3353 H 312.685 -4.16522 -3.62234 0
M  V30 3354 H 315.161 -2.24189 -3.5054 0
M  V30 3355 H 314.037 -2.57356 -4.84829 0
M  V30 3356 H 314.298 -0.917263 -4.3248 0
M  V30 3357 N 313.357 1.07166 -1.15556 0
M  V30 3358 C 314.606 1.79181 -0.926132 0
M  V30 3359 C 314.919 1.87768 0.547967 0
M  V30 3360 O 316.125 2.56323 0.895036 0
M  V30 3361 C 314.581 3.22 -1.60761 0
M  V30 3362 C 314.189 3.21607 -3.11886 0
M  V30 3363 C 315.933 3.9861 -1.4598 0
M  V30 3364 C 313.84 4.59092 -3.72812 0
M  V30 3365 H 312.77 0.67154 -0.342856 0
M  V30 3366 H 315.421 1.2027 -1.3859 0
M  V30 3367 H 313.803 3.81115 -1.07553 0
M  V30 3368 H 314.977 2.72127 -3.71865 0
M  V30 3369 H 313.292 2.58495 -3.2645 0
M  V30 3370 H 315.889 5.00225 -1.88888 0
M  V30 3371 H 316.232 4.143 -0.407541 0
M  V30 3372 H 316.765 3.45996 -1.96295 0
M  V30 3373 H 313.504 4.48606 -4.77946 0
M  V30 3374 H 313.024 5.08803 -3.17616 0
M  V30 3375 H 314.703 5.28059 -3.73848 0
M  V30 3376 N 314.835 0.952656 1.25548 0
M  V30 3377 C 315.765 0.489287 2.28316 0
M  V30 3378 C 316.746 -0.463359 1.63667 0
M  V30 3379 O 317.931 -0.36274 1.90782 0
M  V30 3380 C 315.061 -0.235603 3.465 0
M  V30 3381 C 314.015 0.631593 4.23314 0
M  V30 3382 C 313.341 -0.223923 5.34231 0
M  V30 3383 C 314.641 1.90871 4.86174 0
M  V30 3384 H 316.335 1.34822 2.67326 0
M  V30 3385 H 313.881 0.649728 1.28509 0
M  V30 3386 H 315.834 -0.570882 4.17515 0
M  V30 3387 H 314.558 -1.12877 3.06474 0
M  V30 3388 H 313.217 0.949929 3.54079 0
M  V30 3389 H 312.865 -1.11678 4.90446 0
M  V30 3390 H 312.565 0.35299 5.86539 0
M  V30 3391 H 314.089 -0.554214 6.0808 0
M  V30 3392 H 315.503 1.63997 5.49343 0
M  V30 3393 H 313.9 2.43112 5.4865 0
M  V30 3394 H 314.97 2.61304 4.08471 0
M  V30 3395 N 316.313 -1.40141 0.720998 0
M  V30 3396 C 317.223 -2.34486 0.0731031 0
M  V30 3397 C 318.239 -1.57587 -0.737723 0
M  V30 3398 O 319.415 -1.89949 -0.669429 0
M  V30 3399 C 316.48 -3.36528 -0.833656 0
M  V30 3400 C 315.541 -4.29298 -0.0121673 0
M  V30 3401 C 314.774 -5.26466 -0.875742 0
M  V30 3402 O 314.997 -5.29745 -2.11485 0
M  V30 3403 O 313.931 -6.01092 -0.31185 0
M  V30 3404 H 317.757 -2.9152 0.851444 0
M  V30 3405 H 315.342 -1.41427 0.481527 0
M  V30 3406 H 317.224 -3.99093 -1.35289 0
M  V30 3407 H 315.899 -2.81899 -1.59105 0
M  V30 3408 H 314.806 -3.70001 0.552262 0
M  V30 3409 H 316.139 -4.87094 0.707129 0
M  V30 3410 N 317.792 -0.46758 -1.50504 0
M  V30 3411 C 318.724 0.364655 -2.26281 0
M  V30 3412 C 319.737 0.960151 -1.31472 0
M  V30 3413 O 320.926 0.849153 -1.57008 0
M  V30 3414 C 318.026 1.52509 -3.02645 0
M  V30 3415 C 317.199 1.04302 -4.24782 0
M  V30 3416 C 316.258 2.07709 -4.8347 0
M  V30 3417 O 315.284 1.65913 -5.44483 0
M  V30 3418 N 316.486 3.40485 -4.70159 0
M  V30 3419 H 319.251 -0.28495 -2.98342 0
M  V30 3420 H 316.812 -0.298163 -1.59131 0
M  V30 3421 H 318.804 2.21371 -3.38787 0
M  V30 3422 H 317.374 2.07945 -2.33404 0
M  V30 3423 H 316.594 0.180393 -3.93787 0
M  V30 3424 H 317.882 0.698798 -5.03978 0
M  V30 3425 H 317.28 3.77155 -4.21629 0
M  V30 3426 H 315.837 4.05156 -5.1058 0
M  V30 3427 N 319.27 1.56325 -0.20005 0
M  V30 3428 C 320.2 2.22318 0.713916 0
M  V30 3429 C 321.181 1.18788 1.21752 0
M  V30 3430 O 322.366 1.47309 1.26545 0
M  V30 3431 C 319.496 2.88639 1.93144 0
M  V30 3432 C 318.45 3.98457 1.56255 0
M  V30 3433 C 317.776 4.51967 2.85709 0
M  V30 3434 C 319.076 5.16612 0.768747 0
M  V30 3435 H 320.77 2.98952 0.163755 0
M  V30 3436 H 318.316 1.43792 0.0773219 0
M  V30 3437 H 320.269 3.33491 2.57608 0
M  V30 3438 H 318.993 2.09419 2.50621 0
M  V30 3439 H 317.652 3.54305 0.941471 0
M  V30 3440 H 317.3 3.69503 3.41287 0
M  V30 3441 H 317 5.26071 2.6177 0
M  V30 3442 H 318.524 4.99523 3.51154 0
M  V30 3443 H 319.938 5.57977 1.3166 0
M  V30 3444 H 318.335 5.96812 0.627286 0
M  V30 3445 H 319.405 4.84358 -0.229168 0
M  V30 3446 N 320.748 -0.0735177 1.57428 0
M  V30 3447 C 321.976 -0.785969 1.9139 0
M  V30 3448 C 322.391 -1.71207 0.795847 0
M  V30 3449 O 321.748 -1.81033 -0.230915 0
M  V30 3450 C 321.799 -1.58107 3.25091 0
M  V30 3451 O 321.52 -0.6922 4.32597 0
M  V30 3452 C 323.021 -2.39467 3.73055 0
M  V30 3453 H 320.241 -0.223558 0.632663 0
M  V30 3454 H 322.785 -0.044302 2.04452 0
M  V30 3455 H 320.94 -2.27503 3.13562 0
M  V30 3456 H 321.354 -1.24504 5.09508 0
M  V30 3457 H 322.828 -2.90716 4.69242 0
M  V30 3458 H 323.305 -3.18913 3.01979 0
M  V30 3459 H 323.911 -1.7523 3.87523 0
M  V30 3460 N 322.226 -1.5378 -0.344866 0
M  V30 3461 C 323.173 -1.81676 -1.42346 0
M  V30 3462 C 324.143 -0.662376 -1.52321 0
M  V30 3463 O 325.328 -0.906675 -1.67881 0
M  V30 3464 C 322.468 -2.03087 -2.79015 0
M  V30 3465 C 321.581 -3.30799 -2.77842 0
M  V30 3466 C 320.716 -3.42285 -4.0622 0
M  V30 3467 C 319.755 -4.6395 -3.9927 0
M  V30 3468 N 318.892 -4.72477 -5.19336 0
M  V30 3469 H 323.732 -2.73703 -1.17858 0
M  V30 3470 H 321.269 -1.35568 -0.570949 0
M  V30 3471 H 323.227 -2.1349 -3.58438 0
M  V30 3472 H 321.857 -1.14375 -3.01858 0
M  V30 3473 H 320.909 -3.29244 -1.90533 0
M  V30 3474 H 322.221 -4.20314 -2.68584 0
M  V30 3475 H 321.375 -3.52113 -4.94066 0
M  V30 3476 H 320.114 -2.50823 -4.18258 0
M  V30 3477 H 319.119 -4.54201 -3.09809 0
M  V30 3478 H 320.344 -5.56775 -3.88817 0
M  V30 3479 H 318.29 -3.83924 -5.3192 0
M  V30 3480 H 318.207 -5.55927 -5.12329 0
M  V30 3481 H 319.475 -4.86613 -6.08957 0
M  V30 3482 N 323.704 0.605807 -1.45491 0
M  V30 3483 C 324.614 1.74466 -1.56839 0
M  V30 3484 C 325.63 1.68006 -0.452772 0
M  V30 3485 O 326.806 1.8833 -0.713708 0
M  V30 3486 C 323.871 3.10931 -1.53371 0
M  V30 3487 C 322.932 3.28832 -2.75986 0
M  V30 3488 C 322.165 4.58787 -2.72673 0
M  V30 3489 O 322.388 5.4122 -1.80102 0
M  V30 3490 O 321.322 4.79438 -3.63899 0
M  V30 3491 H 325.148 1.67843 -2.53106 0
M  V30 3492 H 322.733 0.770108 -1.28022 0
M  V30 3493 H 324.615 3.92233 -1.54051 0
M  V30 3494 H 323.29 3.18042 -0.602572 0
M  V30 3495 H 322.197 2.47112 -2.80867 0
M  V30 3496 H 323.53 3.26599 -3.68231 0
M  V30 3497 N 325.182 1.32811 0.848464 0
M  V30 3498 C 326.41 1.26739 1.63538 0
M  V30 3499 C 326.825 -0.163484 1.88091 0
M  V30 3500 O 326.182 -1.10258 1.45429 0
M  V30 3501 C 326.233 2.03013 2.99112 0
M  V30 3502 O 325.954 3.40518 2.75643 0
M  V30 3503 C 327.455 2.04038 3.93552 0
M  V30 3504 H 324.675 0.437024 0.509167 0
M  V30 3505 H 327.219 1.75033 1.05753 0
M  V30 3506 H 325.374 1.58426 3.53525 0
M  V30 3507 H 325.788 3.79635 3.61908 0
M  V30 3508 H 327.262 2.61877 4.85926 0
M  V30 3509 H 327.739 1.0282 4.26995 0
M  V30 3510 H 328.345 2.486 3.45077 0
M  V30 3511 N 326.66 -1.06551 1.16123 0
M  V30 3512 C 327.57 -2.17484 0.879662 0
M  V30 3513 C 328.586 -1.73377 -0.147104 0
M  V30 3514 O 329.762 -2.01379 0.0289128 0
M  V30 3515 C 326.827 -3.44591 0.381829 0
M  V30 3516 C 325.888 -4.0322 1.4735 0
M  V30 3517 C 325.121 -5.24261 0.999324 0
M  V30 3518 O 325.344 -5.70198 -0.151957 0
M  V30 3519 O 324.278 -5.74775 1.78653 0
M  V30 3520 H 328.104 -2.44075 1.80724 0
M  V30 3521 H 325.689 -1.16042 0.940992 0
M  V30 3522 H 327.571 -4.21254 0.111053 0
M  V30 3523 H 326.246 -3.19532 -0.51777 0
M  V30 3524 H 325.153 -3.2806 1.79798 0
M  V30 3525 H 326.486 -4.32568 2.34831 0
M  V30 3526 N 328.138 -0.959301 -1.25041 0
M  V30 3527 C 329.386 -0.615393 -1.92503 0
M  V30 3528 C 329.707 0.850969 -1.75452 0
M  V30 3529 O 328.977 1.60658 -1.12098 0
M  V30 3530 H 327.557 -0.224613 -0.712431 0
M  V30 3531 H 330.219 -1.21855 -1.5211 0
M  V30 3532 H 329.315 -0.848738 -3.00338 0
M  V30 3533 N 329.616 1.39756 -0.72842 0
M  V30 3534 C 330.864 2.00248 -0.272946 0
M  V30 3535 C 331.185 1.58077 1.14178 0
M  V30 3536 O 330.455 0.826014 1.77634 0
M  V30 3537 H 329.035 0.740554 -0.0979247 0
M  V30 3538 H 331.697 1.70903 -0.936912 0
M  V30 3539 H 330.793 3.10495 -0.316142 0
M  V30 3540 N 331.094 0.475555 1.50254 0
M  V30 3541 C 332.042 -0.330276 2.30243 0
M  V30 3542 C 333.036 -0.986306 1.37726 0
M  V30 3543 O 334.242 -0.9169 1.54897 0
M  V30 3544 H 330.617 -0.125353 0.741479 0
M  V30 3545 H 332.588 0.364702 2.96163 0
M  V30 3546 C 331.337 -1.39704 3.18399 0
M  V30 3547 H 330.66 -0.901621 3.89501 0
M  V30 3548 H 332.1 -1.93336 3.77355 0
M  V30 3549 C 330.559 -2.4014 2.36293 0
M  V30 3550 O 331.089 -3.45504 2.04914 0
M  V30 3551 N 329.295 -2.1197 1.98789 0
M  V30 3552 H 328.842 -1.2631 2.24507 0
M  V30 3553 H 328.8 -2.79403 1.44157 0
M  V30 3554 N 332.573 -1.56217 0.208337 0
M  V30 3555 C 333.523 -2.16324 -0.720281 0
M  V30 3556 C 334.507 -1.10775 -1.16695 0
M  V30 3557 O 335.699 -1.36801 -1.12314 0
M  V30 3558 C 332.828 -2.83644 -1.93393 0
M  V30 3559 C 331.914 -3.96401 -1.50755 0
M  V30 3560 N 332.305 -4.99546 -0.792937 0
M  V30 3561 C 330.603 -4.08246 -1.79585 0
M  V30 3562 C 331.304 -5.78828 -0.577364 0
M  V30 3563 N 330.28 -5.31723 -1.1301 0
M  V30 3564 H 334.082 -2.93432 -0.165725 0
M  V30 3565 H 331.596 -1.62397 0.00906463 0
M  V30 3566 H 333.593 -3.25107 -2.60981 0
M  V30 3567 H 332.253 -2.08027 -2.49308 0
M  V30 3568 H 333.264 -5.15967 -0.447004 0
M  V30 3569 H 329.941 -3.4377 -2.36915 0
M  V30 3570 H 331.331 -6.71899 -0.00952956 0
M  V30 3571 N 334.051 0.0651679 -1.57465 0
M  V30 3572 C 335.276 0.779605 -1.9219 0
M  V30 3573 C 335.701 1.69988 -0.805333 0
M  V30 3574 O 335.059 1.79685 0.241435 0
M  V30 3575 C 335.107 1.54364 -3.2589 0
M  V30 3576 O 334.211 2.65474 -3.1559 0
M  V30 3577 H 333.552 0.212249 -0.629163 0
M  V30 3578 H 336.082 0.0314294 -2.04576 0
M  V30 3579 H 336.092 1.92146 -3.59922 0
M  V30 3580 H 334.767 0.868457 -4.06732 0
M  V30 3581 H 333.344 2.30501 -2.93128 0
M  V30 3582 N 335.529 1.53961 0.336706 0
M  V30 3583 C 336.754 1.75797 1.10046 0
M  V30 3584 C 337.179 0.498985 1.81361 0
M  V30 3585 O 336.537 -0.548769 1.72795 0
M  V30 3586 C 336.585 2.94257 2.08436 0
M  V30 3587 O 335.689 2.64883 3.16087 0
M  V30 3588 H 335.03 0.582936 0.317934 0
M  V30 3589 H 337.56 2.00945 0.38501 0
M  V30 3590 H 337.57 3.21237 2.51537 0
M  V30 3591 H 336.245 3.85564 1.55927 0
M  V30 3592 H 334.822 2.48812 2.77753 0
M  V30 3593 N 337.007 -0.598083 1.45811 0
M  V30 3594 C 338.255 -1.35413 1.50026 0
M  V30 3595 C 338.576 -1.94444 0.147177 0
M  V30 3596 O 337.846 -1.77701 -0.824571 0
M  V30 3597 H 336.426 -0.502727 0.552517 0
M  V30 3598 H 339.088 -0.701606 1.81834 0
M  V30 3599 H 338.184 -2.16871 2.2444 0
M  V30 3600 N 338.485 -1.33259 -0.841409 0
M  V30 3601 C 339.432 -1.23302 -1.95103 0
M  V30 3602 C 340.402 -0.112204 -1.65721 0
M  V30 3603 O 341.587 -0.290038 -1.88583 0
M  V30 3604 C 338.727 -0.975583 -3.31023 0
M  V30 3605 C 337.84 -2.18243 -3.72819 0
M  V30 3606 C 336.975 -1.85936 -4.97595 0
M  V30 3607 C 336.014 -3.02866 -5.3192 0
M  V30 3608 N 335.151 -2.70565 -6.47873 0
M  V30 3609 H 339.991 -2.18207 -2.02952 0
M  V30 3610 H 337.528 -1.0851 -0.993173 0
M  V30 3611 H 339.486 -0.80677 -4.09325 0
M  V30 3612 H 338.116 -0.0632755 -3.22738 0
M  V30 3613 H 337.168 -2.46107 -2.90061 0
M  V30 3614 H 338.48 -3.05666 -3.94169 0
M  V30 3615 H 337.634 -1.65684 -5.83638 0
M  V30 3616 H 336.373 -0.957452 -4.78209 0
M  V30 3617 H 335.378 -3.23736 -4.44382 0
M  V30 3618 H 336.603 -3.93809 -5.53255 0
M  V30 3619 H 334.549 -1.8293 -6.29978 0
M  V30 3620 H 334.466 -3.51519 -6.69306 0
M  V30 3621 H 335.734 -2.53774 -7.37034 0
M  V30 3622 N 339.963 1.05934 -1.16686 0
M  V30 3623 C 341.188 1.83029 -0.975455 0
M  V30 3624 C 341.613 1.82096 0.471452 0
M  V30 3625 O 340.971 1.22443 1.33706 0
M  V30 3626 C 341.019 3.27372 -1.51195 0
M  V30 3627 O 340.123 4.06054 -0.720701 0
M  V30 3628 H 339.464 0.566194 -0.346872 0
M  V30 3629 H 341.994 1.33541 -1.55009 0
M  V30 3630 H 342.004 3.78186 -1.53099 0
M  V30 3631 H 340.679 3.27366 -2.56523 0
M  V30 3632 H 339.256 3.64812 -0.772458 0
M  V30 3633 N 341.441 0.965919 1.2453 0
M  V30 3634 C 342.689 0.625593 1.92174 0
M  V30 3635 C 343.01 -0.841652 1.75901 0
M  V30 3636 O 342.28 -1.60061 1.12948 0
M  V30 3637 H 340.86 0.228388 0.71123 0
M  V30 3638 H 343.522 1.2266 1.51461 0
M  V30 3639 H 342.618 0.864653 2.99884 0
M  V30 3640 N 342.919 -1.39368 0.735821 0
M  V30 3641 C 344.167 -2.00101 0.283562 0
M  V30 3642 C 344.488 -1.5868 -1.13338 0
M  V30 3643 O 343.758 -0.835423 -1.77193 0
M  V30 3644 H 342.338 -0.740024 0.101851 0
M  V30 3645 H 345 -1.70404 0.945962 0
M  V30 3646 H 344.096 -3.10323 0.332604 0
M  V30 3647 N 344.397 -0.483516 -1.5 0
M  V30 3648 C 345.644 0.0671597 -2.02389 0
M  V30 3649 C 345.972 1.38597 -1.36459 0
M  V30 3650 O 345.227 1.89634 -0.483458 0
M  V30 3651 C 345.526 0.286226 -3.56252 0
M  V30 3652 C 345.192 -0.952416 -4.40726 0
M  V30 3653 C 343.854 -1.29199 -4.63531 0
M  V30 3654 C 346.206 -1.77655 -4.89988 0
M  V30 3655 C 343.534 -2.45553 -5.32842 0
M  V30 3656 C 345.886 -2.93147 -5.60578 0
M  V30 3657 C 344.55 -3.27505 -5.81633 0
M  V30 3658 H 343.82 0.0245755 -0.740592 0
M  V30 3659 H 346.467 -0.640124 -1.80485 0
M  V30 3660 H 344.772 1.07587 -3.76739 0
M  V30 3661 H 346.469 0.726473 -3.94365 0
M  V30 3662 H 343.059 -0.677881 -4.23205 0
M  V30 3663 H 347.243 -1.52737 -4.72213 0
M  V30 3664 H 342.499 -2.72431 -5.47349 0
M  V30 3665 H 346.673 -3.57344 -5.97727 0
M  V30 3666 H 344.3 -4.1777 -6.35116 0
M  V30 3667 N 345.875 1.56104 -0.216619 0
M  V30 3668 C 347.152 1.89988 0.465165 0
M  V30 3669 C 347.532 1.13326 1.78102 0
M  V30 3670 O 346.88 0.241033 2.27225 0
M  V30 3671 C 347.09 3.42646 0.662939 0
M  V30 3672 C 348.438 4.13311 0.972602 0
M  V30 3673 O 349.462 3.48217 0.749901 0
M  V30 3674 O 348.321 5.28396 1.39499 0
M  V30 3675 H 345.415 0.78979 0.245276 0
M  V30 3676 H 347.961 1.67721 -0.258436 0
M  V30 3677 H 346.733 3.90399 -0.26543 0
M  V30 3678 H 346.356 3.70677 1.43821 0
M  V30 3679 N 347.353 -0.0568162 1.57498 0
M  V30 3680 C 348.599 -0.75422 1.88253 0
M  V30 3681 C 348.932 -1.76461 0.810865 0
M  V30 3682 O 348.207 -1.93691 -0.177259 0
M  V30 3683 C 348.49 -1.44878 3.2967 0
M  V30 3684 C 348.343 -0.453789 4.47505 0
M  V30 3685 C 349.662 -2.38994 3.69554 0
M  V30 3686 H 346.781 -0.272724 0.684683 0
M  V30 3687 H 349.423 -0.0172113 1.89992 0
M  V30 3688 H 347.573 -2.077 3.28318 0
M  V30 3689 H 349.245 0.170371 4.60985 0
M  V30 3690 H 347.488 0.229552 4.33192 0
M  V30 3691 H 348.159 -0.977699 5.43273 0
M  V30 3692 H 350.635 -1.86239 3.72095 0
M  V30 3693 H 349.511 -2.84587 4.69363 0
M  V30 3694 H 349.772 -3.24461 3.00296 0
M  V30 3695 N 348.832 -1.54138 -0.328536 0
M  V30 3696 C 349.779 -1.83176 -1.40411 0
M  V30 3697 C 350.749 -0.678494 -1.5161 0
M  V30 3698 O 351.934 -0.92443 -1.6691 0
M  V30 3699 C 349.074 -2.06035 -2.76846 0
M  V30 3700 C 348.187 -3.33727 -2.74318 0
M  V30 3701 C 347.322 -3.46574 -4.02567 0
M  V30 3702 C 346.361 -4.68159 -3.94327 0
M  V30 3703 N 345.498 -4.77959 -5.14296 0
M  V30 3704 H 350.338 -2.74938 -1.14948 0
M  V30 3705 H 347.875 -1.36166 -0.556538 0
M  V30 3706 H 349.833 -2.1728 -3.56153 0
M  V30 3707 H 348.463 -1.1757 -3.00628 0
M  V30 3708 H 347.515 -3.31246 -1.8703 0
M  V30 3709 H 348.827 -4.23139 -2.64111 0
M  V30 3710 H 347.981 -3.57333 -4.90304 0
M  V30 3711 H 346.72 -2.55245 -4.15574 0
M  V30 3712 H 345.725 -4.57461 -3.04974 0
M  V30 3713 H 346.95 -5.60868 -3.82889 0
M  V30 3714 H 344.896 -3.89544 -5.27818 0
M  V30 3715 H 344.813 -5.6133 -5.06404 0
M  V30 3716 H 346.081 -4.93044 -6.03761 0
M  V30 3717 N 350.31 0.590341 -1.46126 0
M  V30 3718 C 351.273 1.68194 -1.55703 0
M  V30 3719 C 352.273 1.54808 -0.434868 0
M  V30 3720 O 353.463 1.59564 -0.698928 0
M  V30 3721 C 350.595 3.07575 -1.47005 0
M  V30 3722 H 351.788 1.61064 -2.52979 0
M  V30 3723 H 349.341 0.807541 -1.33823 0
M  V30 3724 H 350.076 3.20268 -0.509785 0
M  V30 3725 H 349.861 3.187 -2.28414 0
M  V30 3726 H 351.351 3.87055 -1.56776 0
M  V30 3727 N 351.788 1.33704 0.83433 0
M  V30 3728 C 352.718 1.26967 1.95963 0
M  V30 3729 C 353.699 0.149337 1.69443 0
M  V30 3730 O 354.884 0.339852 1.91203 0
M  V30 3731 C 352.014 1.01275 3.32206 0
M  V30 3732 C 350.968 2.09652 3.73136 0
M  V30 3733 C 350.294 1.69166 5.07235 0
M  V30 3734 C 351.594 3.51372 3.86439 0
M  V30 3735 H 353.288 2.2112 2.01857 0
M  V30 3736 H 350.834 1.06447 0.969793 0
M  V30 3737 H 352.787 0.952106 4.10503 0
M  V30 3738 H 351.511 0.0356203 3.26581 0
M  V30 3739 H 350.17 2.14766 2.97104 0
M  V30 3740 H 349.818 0.701437 4.98085 0
M  V30 3741 H 349.518 2.41694 5.35591 0
M  V30 3742 H 351.042 1.64576 5.88003 0
M  V30 3743 H 352.456 3.48734 4.55036 0
M  V30 3744 H 350.853 4.22425 4.26236 0
M  V30 3745 H 351.923 3.89546 2.88759 0
M  V30 3746 N 353.266 -1.05314 1.17247 0
M  V30 3747 C 354.682 -1.30452 0.919473 0
M  V30 3748 C 354.882 -1.9703 -0.42209 0
M  V30 3749 O 353.938 -2.24311 -1.15935 0
M  V30 3750 C 355.251 -2.17551 2.07586 0
M  V30 3751 C 356.799 -2.30937 2.11275 0
M  V30 3752 C 357.274 -3.21396 3.26296 0
M  V30 3753 N 358.765 -3.28981 3.26076 0
M  V30 3754 C 359.5 -3.99095 4.11716 0
M  V30 3755 N 358.996 -4.71648 5.07465 0
M  V30 3756 N 360.789 -3.95247 3.9967 0
M  V30 3757 H 352.94 -0.604988 2.03602 0
M  V30 3758 H 355.203 -0.329368 0.888944 0
M  V30 3759 H 354.909 -1.75921 3.0454 0
M  V30 3760 H 354.783 -3.18182 2.02584 0
M  V30 3761 H 357.17 -2.71809 1.14907 0
M  V30 3762 H 357.251 -1.2994 2.20339 0
M  V30 3763 H 356.895 -2.81238 4.22927 0
M  V30 3764 H 356.825 -4.22395 3.14467 0
M  V30 3765 H 359.316 -2.77286 2.5675 0
M  V30 3766 H 359.629 -5.22705 5.6921 0
M  V30 3767 H 357.974 -4.70594 5.11435 0
M  V30 3768 H 361.165 -3.37691 3.24164 0
M  V30 3769 H 361.338 -4.4962 4.66632 0
M  V30 3770 N 354.744 -0.972509 -1.24016 0
M  V30 3771 C 355.707 -0.511403 -2.23422 0
M  V30 3772 C 356.707 0.394679 -1.55881 0
M  V30 3773 O 357.897 0.189469 -1.73167 0
M  V30 3774 C 355.029 0.258769 -3.39916 0
M  V30 3775 H 356.222 -1.39024 -2.6573 0
M  V30 3776 H 353.775 -0.757585 -1.36713 0
M  V30 3777 H 354.51 1.1545 -3.03054 0
M  V30 3778 H 354.295 -0.391522 -3.9014 0
M  V30 3779 H 355.785 0.570244 -4.13688 0
M  V30 3780 N 356.222 1.38976 -0.743202 0
M  V30 3781 C 357.469 2.00343 -0.294752 0
M  V30 3782 C 357.797 1.58983 1.12047 0
M  V30 3783 O 357.052 0.813809 1.77977 0
M  V30 3784 C 357.351 3.55647 -0.353517 0
M  V30 3785 C 357.017 4.16685 -1.72292 0
M  V30 3786 C 355.679 4.3307 -2.09771 0
M  V30 3787 C 358.031 4.50464 -2.62168 0
M  V30 3788 C 355.359 4.80526 -3.36618 0
M  V30 3789 C 357.711 4.99332 -3.88395 0
M  V30 3790 C 356.375 5.13924 -4.25956 0
M  V30 3791 H 355.645 0.733108 -0.107857 0
M  V30 3792 H 358.292 1.6618 -0.951651 0
M  V30 3793 H 356.597 3.89884 0.386954 0
M  V30 3794 H 358.294 4.00998 0.0117269 0
M  V30 3795 H 354.884 4.04339 -1.42155 0
M  V30 3796 H 359.068 4.37416 -2.3448 0
M  V30 3797 H 354.324 4.90008 -3.65653 0
M  V30 3798 H 358.498 5.2444 -4.58187 0
M  V30 3799 H 356.125 5.50457 -5.2431 0
M  V30 3800 N 357.7 0.491464 1.49741 0
M  V30 3801 C 359.116 0.146835 1.58923 0
M  V30 3802 C 359.316 -1.34804 1.49767 0
M  V30 3803 O 358.372 -2.12317 1.36667 0
M  V30 3804 C 359.685 0.715157 2.92072 0
M  V30 3805 C 361.233 0.680407 3.05515 0
M  V30 3806 C 361.708 1.22663 4.41269 0
M  V30 3807 N 363.199 1.18691 4.47735 0
M  V30 3808 C 363.934 1.57984 5.51207 0
M  V30 3809 N 363.43 2.04824 6.6183 0
M  V30 3810 N 365.223 1.49459 5.41866 0
M  V30 3811 H 357.374 1.46347 1.53936 0
M  V30 3812 H 359.637 0.606453 0.728642 0
M  V30 3813 H 359.343 1.76317 3.04311 0
M  V30 3814 H 359.217 0.17018 3.76816 0
M  V30 3815 H 361.604 -0.358743 2.92911 0
M  V30 3816 H 361.685 1.26242 2.22478 0
M  V30 3817 H 361.329 2.26451 4.54623 0
M  V30 3818 H 361.259 0.620637 5.2293 0
M  V30 3819 H 363.75 0.843605 3.68364 0
M  V30 3820 H 364.063 2.32901 7.3687 0
M  V30 3821 H 362.408 2.08791 6.62896 0
M  V30 3822 H 365.599 1.12692 4.54333 0
M  V30 3823 H 365.772 1.80406 6.22381 0
M  V30 3824 N 359.178 -1.55987 0.224894 0
M  V30 3825 C 360.424 -1.98684 -0.406502 0
M  V30 3826 C 360.757 -1.11248 -1.59177 0
M  V30 3827 O 360.032 -0.170909 -1.93748 0
M  V30 3828 C 360.315 -3.50218 -0.837808 0
M  V30 3829 C 360.168 -4.48426 0.351332 0
M  V30 3830 C 361.487 -4.06243 -1.69278 0
M  V30 3831 H 358.606 -0.722337 -0.146283 0
M  V30 3832 H 361.248 -1.87255 0.321799 0
M  V30 3833 H 359.398 -3.60089 -1.45837 0
M  V30 3834 H 361.07 -4.50562 0.989526 0
M  V30 3835 H 359.313 -4.22159 0.998207 0
M  V30 3836 H 359.984 -5.52 0.00655905 0
M  V30 3837 H 362.46 -3.99337 -1.16914 0
M  V30 3838 H 361.336 -5.12581 -1.96346 0
M  V30 3839 H 361.597 -3.53332 -2.65723 0
M  V30 3840 N 360.656 0.0484629 -1.57525 0
M  V30 3841 C 361.586 1.0549 -2.08313 0
M  V30 3842 C 362.567 1.38929 -0.981463 0
M  V30 3843 O 363.752 1.48151 -1.25558 0
M  V30 3844 C 360.882 2.36162 -2.54646 0
M  V30 3845 C 359.836 2.17016 -3.68901 0
M  V30 3846 C 359.162 3.53278 -4.01371 0
M  V30 3847 C 360.462 1.57219 -4.98076 0
M  V30 3848 H 362.156 0.632195 -2.92649 0
M  V30 3849 H 359.702 0.302654 -1.40784 0
M  V30 3850 H 361.655 3.06882 -2.88793 0
M  V30 3851 H 360.379 2.80456 -1.67368 0
M  V30 3852 H 359.038 1.48733 -3.35073 0
M  V30 3853 H 358.686 3.95185 -3.11188 0
M  V30 3854 H 358.386 3.41299 -4.78318 0
M  V30 3855 H 359.91 4.25391 -4.38035 0
M  V30 3856 H 361.324 2.17832 -5.30304 0
M  V30 3857 H 359.721 1.55871 -5.79503 0
M  V30 3858 H 360.791 0.535956 -4.81929 0
M  V30 3859 N 362.134 1.5431 0.320358 0
M  V30 3860 C 363.55 1.45091 0.664889 0
M  V30 3861 C 363.75 0.626382 1.91517 0
M  V30 3862 O 362.806 0.126443 2.52183 0
M  V30 3863 C 364.119 2.88848 0.83591 0
M  V30 3864 C 365.667 2.9877 0.933046 0
M  V30 3865 C 366.142 4.43683 1.13621 0
M  V30 3866 N 367.633 4.47309 1.20287 0
M  V30 3867 C 368.368 5.56595 1.37801 0
M  V30 3868 N 367.864 6.75844 1.52338 0
M  V30 3869 N 369.657 5.44248 1.40535 0
M  V30 3870 H 361.808 2.06398 -0.501374 0
M  V30 3871 H 364.071 0.933963 -0.162534 0
M  V30 3872 H 363.777 3.51698 -0.0116092 0
M  V30 3873 H 363.651 3.35148 1.73078 0
M  V30 3874 H 366.038 2.36045 1.77107 0
M  V30 3875 H 366.119 2.55796 0.0145782 0
M  V30 3876 H 365.763 5.06995 0.303032 0
M  V30 3877 H 365.693 4.84269 2.0686 0
M  V30 3878 H 368.184 3.61388 1.10485 0
M  V30 3879 H 368.497 7.54892 1.65403 0
M  V30 3880 H 366.842 6.78746 1.4943 0
M  V30 3881 H 370.033 4.50038 1.28777 0
M  V30 3882 H 370.206 6.29473 1.53842 0
M  V30 3883 N 363.613 -0.582584 1.46437 0
M  V30 3884 C 365.024 -1.1647 1.45916 0
M  V30 3885 C 365.375 -1.95177 0.200077 0
M  V30 3886 O 364.5 -2.04874 -0.696819 0
M  V30 3887 C 365.095 -2.11885 2.64367 0
M  V30 3888 C 363.654 -2.65421 2.66887 0
M  V30 3889 C 362.801 -1.41294 2.38603 0
M  V30 3890 H 365.752 -0.370514 1.54314 0
M  V30 3891 H 365.773 -2.9535 2.39892 0
M  V30 3892 H 365.285 -1.54573 3.5599 0
M  V30 3893 H 363.386 -3.26602 1.79338 0
M  V30 3894 H 363.499 -3.08147 3.66854 0
M  V30 3895 H 361.863 -1.71109 1.88663 0
M  V30 3896 H 362.646 -0.858125 3.32402 0
M  V30 3897 N 365.091 -1.34144 -0.827227 0
M  V30 3898 C 366.021 -1.28005 -1.95287 0
M  V30 3899 C 367.002 -0.158321 -1.69362 0
M  V30 3900 O 368.187 -0.349987 -1.9102 0
M  V30 3901 C 365.317 -1.03036 -3.31664 0
M  V30 3902 C 364.271 -2.11628 -3.72019 0
M  V30 3903 C 363.597 -1.71854 -5.0633 0
M  V30 3904 C 364.897 -3.53417 -3.8457 0
M  V30 3905 H 366.591 -2.22187 -2.00682 0
M  V30 3906 H 364.137 -1.0696 -0.964135 0
M  V30 3907 H 366.09 -0.973863 -4.09993 0
M  V30 3908 H 364.814 -0.0529391 -3.26557 0
M  V30 3909 H 363.473 -2.16339 -2.95961 0
M  V30 3910 H 363.121 -0.727841 -4.97706 0
M  V30 3911 H 362.821 -2.44531 -5.34302 0
M  V30 3912 H 364.345 -1.67692 -5.87122 0
M  V30 3913 H 365.759 -3.51142 -4.5318 0
M  V30 3914 H 364.156 -4.24679 -4.2399 0
M  V30 3915 H 365.226 -3.91072 -2.86689 0
M  V30 3916 N 366.569 1.04691 -1.17803 0
M  V30 3917 C 367.985 1.29963 -0.926379 0
M  V30 3918 C 368.185 1.97251 0.411635 0
M  V30 3919 O 367.241 2.24922 1.14744 0
M  V30 3920 C 368.554 2.16447 -2.08737 0
M  V30 3921 C 370.102 2.29814 -2.12496 0
M  V30 3922 C 370.577 3.19661 -3.27995 0
M  V30 3923 N 372.068 3.27247 -3.27816 0
M  V30 3924 C 372.803 3.96906 -4.13827 0
M  V30 3925 N 372.299 4.6895 -5.09959 0
M  V30 3926 N 374.092 3.93122 -4.01761 0
M  V30 3927 H 366.243 0.594182 -2.0392 0
M  V30 3928 H 368.506 0.324649 -0.890678 0
M  V30 3929 H 368.212 1.74304 -3.05469 0
M  V30 3930 H 368.086 3.17103 -2.04268 0
M  V30 3931 H 370.473 2.71196 -1.16347 0
M  V30 3932 H 370.554 1.2877 -2.21025 0
M  V30 3933 H 370.198 2.78991 -4.24413 0
M  V30 3934 H 370.128 4.20722 -3.16703 0
M  V30 3935 H 372.619 2.75921 -2.58217 0
M  V30 3936 H 372.932 5.19679 -5.71974 0
M  V30 3937 H 371.277 4.67875 -5.13924 0
M  V30 3938 H 374.468 3.35967 -3.2595 0
M  V30 3939 H 374.641 4.47139 -4.6901 0
M  V30 3940 N 368.047 0.979072 1.23499 0
M  V30 3941 C 368.977 0.537606 2.27227 0
M  V30 3942 C 369.958 -0.428539 1.64613 0
M  V30 3943 O 371.143 -0.322191 1.91509 0
M  V30 3944 C 368.273 -0.162052 3.46922 0
M  V30 3945 C 367.227 0.721242 4.21879 0
M  V30 3946 C 366.553 -0.110555 5.34586 0
M  V30 3947 C 367.853 2.01141 4.82016 0
M  V30 3948 H 369.547 1.40462 2.64406 0
M  V30 3949 H 367.093 0.67684 1.27102 0
M  V30 3950 H 369.046 -0.482192 4.18632 0
M  V30 3951 H 367.77 -1.06351 3.08799 0
M  V30 3952 H 366.429 1.02482 3.51984 0
M  V30 3953 H 366.077 -1.0125 4.92704 0
M  V30 3954 H 365.777 0.477325 5.85658 0
M  V30 3955 H 367.301 -0.425107 6.09118 0
M  V30 3956 H 368.715 1.75612 5.45741 0
M  V30 3957 H 367.112 2.54695 5.43369 0
M  V30 3958 H 368.182 2.69909 4.02836 0
M  V30 3959 N 369.525 -1.3858 0.750561 0
M  V30 3960 C 370.771 -2.00481 0.305825 0
M  V30 3961 C 371.104 -1.5944 -1.10872 0
M  V30 3962 O 370.379 -0.83052 -1.75877 0
M  V30 3963 C 370.662 -3.5758 0.425287 0
M  V30 3964 C 370.515 -4.08594 1.88072 0
M  V30 3965 C 371.834 -4.39719 -0.183122 0
M  V30 3966 H 368.953 -0.728348 0.112598 0
M  V30 3967 H 371.595 -1.64566 0.949638 0
M  V30 3968 H 369.745 -3.88306 -0.122828 0
M  V30 3969 H 371.417 -3.88523 2.48691 0
M  V30 3970 H 369.66 -3.61574 2.39681 0
M  V30 3971 H 370.331 -5.177 1.91548 0
M  V30 3972 H 372.807 -4.15128 0.284303 0
M  V30 3973 H 371.683 -5.48856 -0.0692757 0
M  V30 3974 H 371.944 -4.23434 -1.27106 0
M  V30 3975 N 371.003 -0.499398 -1.49478 0
M  V30 3976 C 372.228 0.044722 -2.07352 0
M  V30 3977 C 372.653 1.30207 -1.35749 0
M  V30 3978 O 372.011 1.76516 -0.413732 0
M  V30 3979 C 372.059 0.283013 -3.59488 0
M  V30 3980 O 371.163 1.35804 -3.89398 0
M  V30 3981 H 370.504 -0.0255147 -0.66351 0
M  V30 3982 H 373.034 -0.698561 -1.92305 0
M  V30 3983 H 373.044 0.515007 -4.04737 0
M  V30 3984 H 371.719 -0.635636 -4.11014 0
M  V30 3985 H 370.296 1.11113 -3.55961 0
M  V30 3986 N 372.481 1.55866 -0.233164 0
M  V30 3987 C 373.729 1.9821 0.394593 0
M  V30 3988 C 374.05 1.12234 1.59463 0
M  V30 3989 O 373.32 0.201981 1.94856 0
M  V30 3990 H 371.9 0.732034 0.148778 0
M  V30 3991 H 374.562 1.92107 -0.32876 0
M  V30 3992 H 373.658 3.03845 0.713063 0
M  V30 3993 N 373.959 -0.0401083 1.57549 0
M  V30 3994 C 375.205 -0.734211 1.89043 0
M  V30 3995 C 375.538 -1.75591 0.829535 0
M  V30 3996 O 374.813 -1.93868 -0.156706 0
M  V30 3997 C 375.096 -1.41374 3.31188 0
M  V30 3998 C 374.949 -0.406299 4.47961 0
M  V30 3999 C 376.268 -2.35061 3.72068 0
M  V30 4000 H 373.387 -0.265447 0.687537 0
M  V30 4001 H 376.029 0.00294087 1.9 0
M  V30 4002 H 374.179 -2.04206 3.30503 0
M  V30 4003 H 375.851 0.219255 4.60779 0
M  V30 4004 H 374.094 0.275485 4.32924 0
M  V30 4005 H 374.765 -0.920022 5.44279 0
M  V30 4006 H 377.241 -1.82282 3.74049 0
M  V30 4007 H 376.117 -2.79593 4.72355 0
M  V30 4008 H 376.378 -3.21258 3.0372 0
M  V30 4009 N 375.437 -1.54477 -0.31217 0
M  V30 4010 C 376.848 -1.64344 -0.885891 0
M  V30 4011 C 377.199 -0.54485 -1.88483 0
M  V30 4012 O 376.324 0.320387 -2.14015 0
M  V30 4013 C 376.919 -2.97908 -1.61357 0
M  V30 4014 C 375.478 -3.09933 -2.13585 0
M  V30 4015 C 374.625 -2.59971 -0.964897 0
M  V30 4016 H 377.576 -1.58448 -0.0894528 0
M  V30 4017 H 377.597 -2.88706 -2.47848 0
M  V30 4018 H 377.109 -3.77845 -0.886277 0
M  V30 4019 H 375.21 -2.34694 -2.89395 0
M  V30 4020 H 375.323 -4.15916 -2.37804 0
M  V30 4021 H 373.687 -2.16147 -1.34731 0
M  V30 4022 H 374.47 -3.42376 -0.251742 0
M  V30 4023 N 376.915 0.57481 -1.46744 0
M  V30 4024 C 378.14 1.36341 -1.56288 0
M  V30 4025 C 378.565 1.86954 -0.207347 0
M  V30 4026 O 377.923 1.62006 0.813871 0
M  V30 4027 C 377.971 2.52147 -2.57787 0
M  V30 4028 O 377.075 3.53834 -2.11838 0
M  V30 4029 H 376.416 0.405713 -0.525636 0
M  V30 4030 H 378.946 0.696453 -1.92382 0
M  V30 4031 H 378.956 2.98958 -2.77648 0
M  V30 4032 H 377.631 2.14663 -3.5622 0
M  V30 4033 H 376.208 3.1345 -2.01999 0
M  V30 4034 N 378.394 1.34581 0.820102 0
M  V30 4035 C 379.324 1.29038 1.94606 0
M  V30 4036 C 380.305 0.1673 1.69275 0
M  V30 4037 O 381.49 0.360112 1.90832 0
M  V30 4038 C 378.62 1.04793 3.31113 0
M  V30 4039 C 377.574 2.13597 3.70891 0
M  V30 4040 C 376.9 1.74537 5.05412 0
M  V30 4041 C 378.2 3.55451 3.8269 0
M  V30 4042 H 379.894 2.23248 1.99501 0
M  V30 4043 H 377.44 1.0747 0.958449 0
M  V30 4044 H 379.393 0.995592 4.0947 0
M  V30 4045 H 378.117 0.0702565 3.26524 0
M  V30 4046 H 376.776 2.17905 2.9481 0
M  V30 4047 H 376.424 0.754226 4.97313 0
M  V30 4048 H 376.124 2.47361 5.32997 0
M  V30 4049 H 377.648 1.70803 5.86224 0
M  V30 4050 H 379.062 3.5354 4.51312 0
M  V30 4051 H 377.459 4.26922 4.21732 0
M  V30 4052 H 378.529 3.92587 2.84611 0
M  V30 4053 N 379.872 -1.04064 1.18357 0
M  V30 4054 C 380.804 -2.12114 0.868358 0
M  V30 4055 C 381.817 -1.62247 -0.134045 0
M  V30 4056 O 383.006 -1.78253 0.0937933 0
M  V30 4057 C 380.106 -3.37773 0.276132 0
M  V30 4058 C 379.279 -4.16874 1.3242 0
M  V30 4059 C 378.338 -5.20861 0.747662 0
M  V30 4060 O 377.364 -5.51141 1.42239 0
M  V30 4061 N 378.566 -5.78715 -0.454823 0
M  V30 4062 H 381.331 -2.39748 1.79836 0
M  V30 4063 H 378.892 -1.20258 1.08396 0
M  V30 4064 H 380.884 -4.04513 -0.123133 0
M  V30 4065 H 379.454 -3.07581 -0.557895 0
M  V30 4066 H 378.674 -3.45456 1.89878 0
M  V30 4067 H 379.962 -4.66516 2.03078 0
M  V30 4068 H 379.36 -5.56415 -1.02073 0
M  V30 4069 H 377.917 -6.46921 -0.79601 0
M  V30 4070 N 381.35 -0.985608 -1.22978 0
M  V30 4071 C 382.596 -0.65836 -1.91816 0
M  V30 4072 C 382.929 0.806692 -1.76653 0
M  V30 4073 O 382.204 1.58252 -1.13078 0
M  V30 4074 C 382.487 -1.056 -3.44268 0
M  V30 4075 C 382.34 -2.57906 -3.68516 0
M  V30 4076 C 383.659 -0.603781 -4.35939 0
M  V30 4077 H 380.778 -0.24065 -0.696604 0
M  V30 4078 H 383.42 -1.22783 -1.44998 0
M  V30 4079 H 381.57 -0.571445 -3.84274 0
M  V30 4080 H 383.242 -3.13976 -3.3796 0
M  V30 4081 H 381.485 -3.00305 -3.13048 0
M  V30 4082 H 382.156 -2.80779 -4.75255 0
M  V30 4083 H 384.632 -1.01987 -4.03408 0
M  V30 4084 H 383.508 -0.910383 -5.41298 0
M  V30 4085 H 383.769 0.495761 -4.39312 0
M  V30 4086 N 382.828 1.3818 -0.7579 0
M  V30 4087 C 384.074 2.00316 -0.316453 0
M  V30 4088 C 384.407 1.60026 1.10025 0
M  V30 4089 O 383.682 0.839835 1.75434 0
M  V30 4090 C 383.965 3.57349 -0.444245 0
M  V30 4091 C 383.818 4.07591 -1.90236 0
M  V30 4092 C 385.137 4.3981 0.1598 0
M  V30 4093 H 382.256 0.727741 -0.116459 0
M  V30 4094 H 384.898 1.6406 -0.958352 0
M  V30 4095 H 383.048 3.88365 0.102233 0
M  V30 4096 H 384.72 3.87199 -2.50748 0
M  V30 4097 H 382.963 3.60297 -2.41595 0
M  V30 4098 H 383.634 5.16677 -1.94291 0
M  V30 4099 H 386.11 4.14971 -0.306314 0
M  V30 4100 H 384.986 5.48885 0.0401675 0
M  V30 4101 H 385.247 4.24102 1.24859 0
M  V30 4102 N 384.306 0.507319 1.49211 0
M  V30 4103 C 385.236 -0.256939 2.32082 0
M  V30 4104 C 386.217 -0.956609 1.40652 0
M  V30 4105 O 387.402 -0.946788 1.69557 0
M  V30 4106 C 384.532 -1.31802 3.21318 0
M  V30 4107 C 383.486 -0.737855 4.21592 0
M  V30 4108 C 382.812 -1.89992 4.99807 0
M  V30 4109 C 384.112 0.275325 5.21574 0
M  V30 4110 H 385.806 0.434798 2.96226 0
M  V30 4111 H 383.352 0.210546 1.42452 0
M  V30 4112 H 385.305 -1.86045 3.78107 0
M  V30 4113 H 384.029 -2.03903 2.5513 0
M  V30 4114 H 382.688 -0.217126 3.65956 0
M  V30 4115 H 382.336 -2.60877 4.30061 0
M  V30 4116 H 382.036 -1.51777 5.6766 0
M  V30 4117 H 383.56 -2.44657 5.59442 0
M  V30 4118 H 384.974 -0.179193 5.7302 0
M  V30 4119 H 383.371 0.573649 5.97352 0
M  V30 4120 H 384.441 1.18903 4.70096 0
M  V30 4121 N 385.784 -1.5574 0.241426 0
M  V30 4122 C 386.732 -2.22538 -0.676718 0
M  V30 4123 C 387.726 -1.21117 -1.18436 0
M  V30 4124 O 388.932 -1.39144 -1.14188 0
M  V30 4125 H 385.307 -0.713776 -0.236701 0
M  V30 4126 H 387.278 -2.98264 -0.0901187 0
M  V30 4127 C 386.027 -2.93439 -1.86518 0
M  V30 4128 H 385.35 -3.7125 -1.4837 0
M  V30 4129 H 386.79 -3.43549 -2.48495 0
M  V30 4130 C 385.249 -1.97008 -2.73294 0
M  V30 4131 O 385.779 -1.49965 -3.72657 0
M  V30 4132 N 383.985 -1.64227 -2.39745 0
M  V30 4133 H 383.532 -2.02677 -1.58996 0
M  V30 4134 H 383.49 -0.999708 -2.98083 0
M  V30 4135 N 387.262 0.0317525 -1.57568 0
M  V30 4136 C 388.487 0.738664 -1.938 0
M  V30 4137 C 388.912 1.68242 -0.841208 0
M  V30 4138 O 388.27 1.80157 0.203267 0
M  V30 4139 C 388.318 1.47417 -3.29091 0
M  V30 4140 O 387.422 2.5872 -3.2115 0
M  V30 4141 H 386.763 0.198856 -0.633524 0
M  V30 4142 H 389.293 -0.0119713 -2.04596 0
M  V30 4143 H 389.303 1.84468 -3.63917 0
M  V30 4144 H 387.978 0.781988 -4.08482 0
M  V30 4145 H 386.555 2.24231 -2.97951 0
M  V30 4146 N 388.74 1.54641 0.303973 0
M  V30 4147 C 389.989 1.7299 1.03717 0
M  V30 4148 C 390.302 0.521168 1.88529 0
M  V30 4149 O 391.508 0.586408 2.65092 0
M  V30 4150 C 389.964 3.06051 1.89369 0
M  V30 4151 C 389.572 4.34393 1.09574 0
M  V30 4152 C 391.316 3.3376 2.62306 0
M  V30 4153 C 389.223 5.58506 1.94486 0
M  V30 4154 H 388.153 0.64473 0.390947 0
M  V30 4155 H 390.804 1.81124 0.294328 0
M  V30 4156 H 389.186 2.91874 2.67629 0
M  V30 4157 H 390.36 4.59396 0.359485 0
M  V30 4158 H 388.675 4.13597 0.482324 0
M  V30 4159 H 391.272 4.23687 3.26181 0
M  V30 4160 H 391.615 2.52503 3.3098 0
M  V30 4161 H 392.148 3.48894 1.91097 0
M  V30 4162 H 388.887 6.42422 1.30287 0
M  V30 4163 H 388.407 5.37694 2.65792 0
M  V30 4164 H 390.086 5.95651 2.52605 0
M  V30 4165 N 390.218 -0.567019 1.47046 0
M  V30 4166 C 391.467 -1.32091 1.5243 0
M  V30 4167 C 391.78 -1.94704 0.187021 0
M  V30 4168 O 392.986 -2.7124 0.118771 0
M  V30 4169 C 391.442 -2.39479 2.68659 0
M  V30 4170 C 391.05 -1.831 4.08874 0
M  V30 4171 C 392.794 -3.16111 2.83327 0
M  V30 4172 C 390.701 -2.8821 5.16419 0
M  V30 4173 H 389.631 -0.496629 0.56734 0
M  V30 4174 H 392.282 -0.603354 1.73297 0
M  V30 4175 H 390.664 -3.14105 2.41152 0
M  V30 4176 H 391.838 -1.14913 4.46242 0
M  V30 4177 H 390.153 -1.19085 3.99008 0
M  V30 4178 H 392.75 -3.94585 3.60842 0
M  V30 4179 H 393.093 -3.69686 1.91411 0
M  V30 4180 H 393.626 -2.48595 3.10556 0
M  V30 4181 H 390.365 -2.39504 6.10179 0
M  V30 4182 H 389.885 -3.54839 4.8358 0
M  V30 4183 H 391.564 -3.51881 5.42945 0
M  V30 4184 N 391.696 -1.35014 -0.812953 0
M  V30 4185 C 392.643 -1.27412 -1.92444 0
M  V30 4186 C 393.613 -0.14733 -1.65445 0
M  V30 4187 O 394.798 -0.329974 -1.87925 0
M  V30 4188 C 391.938 -1.04558 -3.28879 0
M  V30 4189 C 391.051 -2.26101 -3.68106 0
M  V30 4190 C 390.186 -1.96449 -4.9354 0
M  V30 4191 C 389.225 -3.14081 -5.25376 0
M  V30 4192 N 388.362 -2.84246 -6.41988 0
M  V30 4193 H 393.202 -2.22463 -1.98278 0
M  V30 4194 H 390.739 -1.10593 -0.969933 0
M  V30 4195 H 392.697 -0.893413 -4.07522 0
M  V30 4196 H 391.327 -0.131719 -3.22531 0
M  V30 4197 H 390.379 -2.52204 -2.84775 0
M  V30 4198 H 391.691 -3.13959 -3.87597 0
M  V30 4199 H 390.845 -1.78026 -5.79993 0
M  V30 4200 H 389.584 -1.05867 -4.76071 0
M  V30 4201 H 388.589 -3.33089 -4.37415 0
M  V30 4202 H 389.814 -4.05455 -5.44778 0
M  V30 4203 H 387.76 -1.96252 -6.25956 0
M  V30 4204 H 387.677 -3.65637 -6.61699 0
M  V30 4205 H 388.945 -2.6935 -7.31485 0
M  V30 4206 N 393.175 1.03435 -1.18907 0
M  V30 4207 C 394.138 2.09756 -0.923844 0
M  V30 4208 C 395.138 1.60528 0.093416 0
M  V30 4209 O 396.328 1.73631 -0.140727 0
M  V30 4210 C 393.46 3.38692 -0.387354 0
M  V30 4211 H 394.653 2.34719 -1.86674 0
M  V30 4212 H 392.206 1.19959 -1.00197 0
M  V30 4213 H 392.941 3.19396 0.561845 0
M  V30 4214 H 392.726 3.75742 -1.12074 0
M  V30 4215 H 394.216 4.17016 -0.220694 0
M  V30 4216 N 394.653 0.992116 1.22453 0
M  V30 4217 C 395.586 0.486701 2.22949 0
M  V30 4218 C 396.564 -0.45259 1.56174 0
M  V30 4219 O 397.748 -0.378317 1.84665 0
M  V30 4220 C 394.875 -0.294537 3.37417 0
M  V30 4221 C 393.921 0.590628 4.22391 0
M  V30 4222 S 394.754 2.04546 4.94895 0
M  V30 4223 C 395.91 1.27369 6.12803 0
M  V30 4224 H 396.143 1.33828 2.65475 0
M  V30 4225 H 393.676 0.799023 1.32117 0
M  V30 4226 H 395.634 -0.739241 4.03789 0
M  V30 4227 H 394.295 -1.12139 2.934 0
M  V30 4228 H 393.488 -0.0104375 5.03999 0
M  V30 4229 H 393.09 0.972064 3.61147 0
M  V30 4230 H 395.382 0.540943 6.75337 0
M  V30 4231 H 396.325 2.06502 6.7732 0
M  V30 4232 H 396.733 0.787324 5.58983 0
M  V30 4233 N 396.131 -1.37776 0.765217 0
M  V30 4234 C 397.377 -2.00145 0.327072 0
M  V30 4235 C 397.71 -1.60607 -1.09175 0
M  V30 4236 O 396.985 -0.849127 -1.74986 0
M  V30 4237 C 397.268 -3.57109 0.46319 0
M  V30 4238 C 397.121 -4.06576 1.92395 0
M  V30 4239 C 398.44 -4.39888 -0.136473 0
M  V30 4240 H 395.559 -0.727113 0.120316 0
M  V30 4241 H 398.201 -1.63549 0.967039 0
M  V30 4242 H 396.351 -3.88414 -0.0816358 0
M  V30 4243 H 398.023 -3.85864 2.52798 0
M  V30 4244 H 396.266 -3.59011 2.43503 0
M  V30 4245 H 396.937 -5.15639 1.97028 0
M  V30 4246 H 399.413 -4.14803 0.328317 0
M  V30 4247 H 398.289 -5.48899 -0.0110582 0
M  V30 4248 H 398.55 -4.24758 -1.22608 0
M  V30 4249 N 397.609 -0.515225 -1.4894 0
M  V30 4250 C 399.02 -0.0710067 -1.86565 0
M  V30 4251 C 399.371 1.34733 -1.42623 0
M  V30 4252 O 398.496 2.00653 -0.810379 0
M  V30 4253 C 399.091 -0.122083 -3.3858 0
M  V30 4254 C 397.65 0.266863 -3.75453 0
M  V30 4255 C 396.797 -0.488376 -2.72966 0
M  V30 4256 H 399.748 -0.727266 -1.41055 0
M  V30 4257 H 399.769 0.669818 -3.74558 0
M  V30 4258 H 399.281 -1.15448 -3.70531 0
M  V30 4259 H 397.382 1.30196 -3.49113 0
M  V30 4260 H 397.495 -0.0624811 -4.79059 0
M  V30 4261 H 395.859 0.0635622 -2.54621 0
M  V30 4262 H 396.642 -1.52113 -3.07761 0
M  V30 4263 N 399.087 1.5561 -0.249682 0
M  V30 4264 C 400.017 2.24477 0.642826 0
M  V30 4265 C 400.998 1.22601 1.17911 0
M  V30 4266 O 402.183 1.5126 1.21795 0
M  V30 4267 C 399.313 2.94638 1.83863 0
M  V30 4268 C 398.267 4.03227 1.435 0
M  V30 4269 C 397.593 4.60828 2.71186 0
M  V30 4270 C 398.893 5.18796 0.604002 0
M  V30 4271 H 400.587 2.99321 0.0685625 0
M  V30 4272 H 398.133 1.43965 0.0315363 0
M  V30 4273 H 400.086 3.41517 2.46868 0
M  V30 4274 H 398.81 2.17287 2.43832 0
M  V30 4275 H 397.469 3.57121 0.828275 0
M  V30 4276 H 397.117 3.80174 3.29358 0
M  V30 4277 H 396.817 5.34132 2.44901 0
M  V30 4278 H 398.341 5.10442 3.35084 0
M  V30 4279 H 399.755 5.61883 1.13842 0
M  V30 4280 H 398.152 5.98506 0.437097 0
M  V30 4281 H 399.222 4.83384 -0.383147 0
M  V30 4282 N 400.565 -0.0233959 1.57583 0
M  V30 4283 C 401.495 -1.02162 2.09965 0
M  V30 4284 C 402.476 -1.3735 1.00344 0
M  V30 4285 O 403.661 -1.46135 1.27899 0
M  V30 4286 C 400.791 -2.32081 2.58371 0
M  V30 4287 C 399.745 -2.1112 3.72307 0
M  V30 4288 C 399.071 -3.46848 4.06941 0
M  V30 4289 C 400.371 -1.49276 5.00514 0
M  V30 4290 H 402.065 -0.585557 2.93618 0
M  V30 4291 H 399.611 -0.280218 1.41247 0
M  V30 4292 H 401.564 -3.02249 2.93639 0
M  V30 4293 H 400.288 -2.77758 1.71808 0
M  V30 4294 H 398.947 -1.43384 3.37397 0
M  V30 4295 H 398.595 -3.90184 3.17436 0
M  V30 4296 H 398.295 -3.33646 4.83688 0
M  V30 4297 H 399.819 -4.18369 4.44747 0
M  V30 4298 H 401.233 -2.09368 5.33702 0
M  V30 4299 H 399.63 -1.46632 5.8191 0
M  V30 4300 H 400.7 -0.459217 4.82721 0
M  V30 4301 N 402.043 -1.548 -0.295768 0
M  V30 4302 C 402.993 -1.82497 -1.3667 0
M  V30 4303 C 403.977 -0.682434 -1.45711 0
M  V30 4304 O 405.169 -0.943207 -1.49775 0
M  V30 4305 C 402.298 -2.08036 -2.73086 0
M  V30 4306 C 401.384 -3.28488 -2.68247 0
M  V30 4307 N 401.775 -4.48924 -2.33025 0
M  V30 4308 C 400.073 -3.3062 -2.99343 0
M  V30 4309 C 400.774 -5.30956 -2.37613 0
M  V30 4310 N 399.75 -4.68805 -2.75178 0
M  V30 4311 H 403.552 -2.73175 -1.0841 0
M  V30 4312 H 401.066 -1.5437 -0.504361 0
M  V30 4313 H 403.063 -2.26027 -3.5031 0
M  V30 4314 H 401.723 -1.18629 -3.02254 0
M  V30 4315 H 402.734 -4.75432 -2.05389 0
M  V30 4316 H 399.411 -2.51336 -3.33371 0
M  V30 4317 H 400.801 -6.37199 -2.13135 0
M  V30 4318 N 403.521 0.559213 -1.47345 0
M  V30 4319 C 404.77 1.31281 -1.53128 0
M  V30 4320 C 405.083 1.94602 -0.197344 0
M  V30 4321 O 406.289 2.71173 -0.133154 0
M  V30 4322 C 404.745 2.38051 -2.69925 0
M  V30 4323 C 404.353 1.8093 -4.0984 0
M  V30 4324 C 406.097 3.14604 -2.84999 0
M  V30 4325 C 404.004 2.85468 -5.1794 0
M  V30 4326 H 402.934 0.493614 -0.569966 0
M  V30 4327 H 405.585 0.594155 -1.73615 0
M  V30 4328 H 403.967 3.12822 -2.42814 0
M  V30 4329 H 405.141 1.12544 -4.46845 0
M  V30 4330 H 403.456 1.16967 -3.99634 0
M  V30 4331 H 406.053 3.92666 -3.62929 0
M  V30 4332 H 406.396 3.68665 -1.93369 0
M  V30 4333 H 406.929 2.46945 -3.1187 0
M  V30 4334 H 403.668 2.36264 -6.1144 0
M  V30 4335 H 403.188 3.52269 -4.85455 0
M  V30 4336 H 404.867 3.48996 -5.44803 0
M  V30 4337 N 404.999 1.35443 0.805782 0
M  V30 4338 C 405.962 1.28301 1.89925 0
M  V30 4339 C 406.962 0.194285 1.59622 0
M  V30 4340 O 408.152 0.448036 1.6834 0
M  V30 4341 C 405.284 0.984997 3.2636 0
M  V30 4342 H 406.477 2.2553 1.97677 0
M  V30 4343 H 404.03 1.19979 1.00173 0
M  V30 4344 H 404.765 0.016603 3.24296 0
M  V30 4345 H 404.55 1.77269 3.4974 0
M  V30 4346 H 406.04 0.960651 4.064 0
M  V30 4347 N 406.477 -1.02803 1.19454 0
M  V30 4348 C 407.407 -2.12999 0.956758 0
M  V30 4349 C 408.388 -1.69743 -0.110188 0
M  V30 4350 O 409.573 -1.94148 0.0450038 0
M  V30 4351 C 406.703 -3.43746 0.495553 0
M  V30 4352 C 405.657 -4.00688 1.50443 0
M  V30 4353 C 404.983 -5.27067 0.900275 0
M  V30 4354 C 406.283 -4.35397 2.8849 0
M  V30 4355 H 407.977 -2.33148 1.87836 0
M  V30 4356 H 405.523 -1.12045 0.904539 0
M  V30 4357 H 407.476 -4.2021 0.316493 0
M  V30 4358 H 406.2 -3.23321 -0.461646 0
M  V30 4359 H 404.859 -3.2632 1.67065 0
M  V30 4360 H 404.507 -5.02959 -0.064503 0
M  V30 4361 H 404.207 -5.66127 1.57397 0
M  V30 4362 H 405.731 -6.06196 0.73203 0
M  V30 4363 H 407.145 -5.02795 2.75446 0
M  V30 4364 H 405.542 -4.85541 3.52661 0
M  V30 4365 H 406.612 -3.44662 3.41081 0
M  V30 4366 N 407.956 -0.998596 -1.21925 0
M  V30 4367 C 408.886 -0.573688 -2.26343 0
M  V30 4368 C 409.867 0.402296 -1.65274 0
M  V30 4369 O 411.052 0.291683 -1.91997 0
M  V30 4370 C 408.182 0.106839 -3.47136 0
M  V30 4371 C 407.136 -0.788269 -4.20678 0
M  V30 4372 C 406.462 0.0254927 -5.34694 0
M  V30 4373 C 407.762 -2.08784 -4.78755 0
M  V30 4374 H 409.456 -1.44651 -2.62138 0
M  V30 4375 H 407.002 -0.696975 -1.26009 0
M  V30 4376 H 408.955 0.415531 -4.19346 0
M  V30 4377 H 407.679 1.01424 -3.10452 0
M  V30 4378 H 406.338 -1.08069 -3.50309 0
M  V30 4379 H 405.986 0.933989 -4.94253 0
M  V30 4380 H 405.686 -0.570437 -5.84825 0
M  V30 4381 H 407.21 0.328147 -6.09718 0
M  V30 4382 H 408.624 -1.84272 -5.42878 0
M  V30 4383 H 407.021 -2.63307 -5.39249 0
M  V30 4384 H 408.091 -2.76284 -3.98491 0
M  V30 4385 N 409.434 1.37368 -0.772513 0
M  V30 4386 C 410.68 1.99969 -0.337681 0
M  V30 4387 C 411.013 1.61184 1.08321 0
M  V30 4388 O 410.288 0.858395 1.74533 0
M  V30 4389 C 410.571 3.56858 -0.482121 0
M  V30 4390 C 410.424 4.0555 -1.94549 0
M  V30 4391 C 411.743 4.39955 0.113143 0
M  V30 4392 H 408.862 0.726464 -0.124171 0
M  V30 4393 H 411.504 1.63034 -0.975699 0
M  V30 4394 H 409.654 3.88452 0.0610361 0
M  V30 4395 H 411.326 3.84518 -2.54841 0
M  V30 4396 H 409.569 3.57715 -2.45403 0
M  V30 4397 H 410.24 5.14587 -1.9976 0
M  V30 4398 H 412.716 4.14623 -0.35031 0
M  V30 4399 H 411.592 5.48897 -0.0180514 0
M  V30 4400 H 411.853 4.25403 1.20354 0
M  V30 4401 N 410.912 0.523116 1.48665 0
M  V30 4402 C 411.842 -0.23231 2.32342 0
M  V30 4403 C 412.823 -0.941637 1.41659 0
M  V30 4404 O 414.008 -0.928751 1.70552 0
M  V30 4405 C 411.138 -1.28387 3.22698 0
M  V30 4406 C 410.092 -0.693098 4.22351 0
M  V30 4407 C 409.418 -1.8468 5.01794 0
M  V30 4408 C 410.718 0.33063 5.21252 0
M  V30 4409 H 412.412 0.466192 2.95748 0
M  V30 4410 H 409.958 0.225643 1.42221 0
M  V30 4411 H 411.911 -1.82024 3.80059 0
M  V30 4412 H 410.635 -2.01186 2.57278 0
M  V30 4413 H 409.294 -0.178299 3.66166 0
M  V30 4414 H 408.942 -2.56301 4.32804 0
M  V30 4415 H 408.642 -1.45747 5.69238 0
M  V30 4416 H 410.166 -2.38709 5.62006 0
M  V30 4417 H 411.58 -0.118407 5.73178 0
M  V30 4418 H 409.977 0.636974 5.9671 0
M  V30 4419 H 411.047 1.23883 4.68808 0
M  V30 4420 N 412.39 -1.55475 0.257931 0
M  V30 4421 C 413.637 -1.99207 -0.363728 0
M  V30 4422 C 413.965 -1.1462 -1.57139 0
M  V30 4423 O 413.22 -0.199653 -1.94679 0
M  V30 4424 C 413.519 -3.48183 -0.806433 0
M  V30 4425 C 413.185 -4.49936 0.294684 0
M  V30 4426 C 411.847 -4.77481 0.597076 0
M  V30 4427 C 414.199 -5.10769 1.03751 0
M  V30 4428 C 411.527 -5.63132 1.64618 0
M  V30 4429 C 413.879 -5.97558 2.07622 0
M  V30 4430 C 412.543 -6.23432 2.38514 0
M  V30 4431 H 411.813 -0.728949 -0.133097 0
M  V30 4432 H 414.46 -1.8793 0.368059 0
M  V30 4433 H 412.765 -3.56848 -1.61761 0
M  V30 4434 H 414.462 -3.79415 -1.29789 0
M  V30 4435 H 411.052 -4.28572 0.0488649 0
M  V30 4436 H 415.236 -4.89527 0.817149 0
M  V30 4437 H 410.492 -5.8143 1.89074 0
M  V30 4438 H 414.666 -6.43735 2.65666 0
M  V30 4439 H 412.293 -6.89594 3.19943 0
M  V30 4440 N 413.868 0.0150385 -1.57593 0
M  V30 4441 C 415.114 0.704043 -1.90187 0
M  V30 4442 C 415.447 1.74249 -0.857366 0
M  V30 4443 O 414.722 1.94092 0.125843 0
M  V30 4444 C 415.005 1.36087 -3.33395 0
M  V30 4445 C 414.858 0.334981 -4.48551 0
M  V30 4446 C 416.177 2.29112 -3.7576 0
M  V30 4447 H 413.296 0.254475 -0.691673 0
M  V30 4448 H 415.938 -0.0331678 -1.89971 0
M  V30 4449 H 414.088 1.98922 -3.3371 0
M  V30 4450 H 415.76 -0.292534 -4.60372 0
M  V30 4451 H 414.003 -0.344325 -4.32431 0
M  V30 4452 H 414.674 0.833316 -5.45674 0
M  V30 4453 H 417.15 1.76308 -3.76902 0
M  V30 4454 H 416.026 2.72043 -4.76743 0
M  V30 4455 H 416.287 3.16385 -3.08793 0
M  V30 4456 N 415.346 1.54954 0.287554 0
M  V30 4457 C 416.595 1.74081 1.01877 0
M  V30 4458 C 416.908 0.541135 1.87966 0
M  V30 4459 O 418.114 0.614491 2.64455 0
M  V30 4460 C 416.57 3.08042 1.86113 0
M  V30 4461 C 416.178 4.35531 1.04961 0
M  V30 4462 C 417.922 3.36523 2.58752 0
M  V30 4463 C 415.829 5.60538 1.88551 0
M  V30 4464 H 414.759 0.64884 0.384087 0
M  V30 4465 H 417.41 1.81426 0.275101 0
M  V30 4466 H 415.792 2.94696 2.64519 0
M  V30 4467 H 416.966 4.59751 0.31074 0
M  V30 4468 H 415.281 4.14085 0.43843 0
M  V30 4469 H 417.878 4.27122 3.21668 0
M  V30 4470 H 418.221 2.56 3.28283 0
M  V30 4471 H 418.754 3.50901 1.87386 0
M  V30 4472 H 415.493 6.43767 1.23466 0
M  V30 4473 H 415.013 5.40483 2.60074 0
M  V30 4474 H 416.692 5.98297 2.46273 0
M  V30 4475 N 416.824 -0.551391 1.4764 0
M  V30 4476 C 418.073 -1.30467 1.53822 0
M  V30 4477 C 418.386 -1.94495 0.207661 0
M  V30 4478 O 419.592 -2.71099 0.147533 0
M  V30 4479 C 418.048 -2.36616 2.71184 0
M  V30 4480 C 417.656 -1.78754 4.10793 0
M  V30 4481 C 419.4 -3.13088 2.86663 0
M  V30 4482 C 417.307 -2.82717 5.19447 0
M  V30 4483 H 416.237 -0.490584 0.572576 0
M  V30 4484 H 418.888 -0.58494 1.73927 0
M  V30 4485 H 417.27 -3.11529 2.4447 0
M  V30 4486 H 418.444 -1.10173 4.47435 0
M  V30 4487 H 416.759 -1.14846 4.00249 0
M  V30 4488 H 419.356 -3.90736 3.65007 0
M  V30 4489 H 419.699 -3.67635 1.95321 0
M  V30 4490 H 420.232 -2.45288 3.13175 0
M  V30 4491 H 416.971 -2.33018 6.12685 0
M  V30 4492 H 416.491 -3.4969 4.87316 0
M  V30 4493 H 418.17 -3.46102 5.46646 0
M  V30 4494 N 418.302 -1.35869 -0.798587 0
M  V30 4495 C 419.551 -1.28921 -1.5512 0
M  V30 4496 C 419.864 0.13208 -1.95154 0
M  V30 4497 O 421.07 0.323879 -2.69561 0
M  V30 4498 C 419.526 -2.26141 -2.79979 0
M  V30 4499 C 419.134 -3.73658 -2.47151 0
M  V30 4500 C 420.878 -2.28152 -3.57976 0
M  V30 4501 C 418.785 -4.62679 -3.6835 0
M  V30 4502 H 417.715 -0.479031 -0.582276 0
M  V30 4503 H 420.366 -1.61179 -0.877125 0
M  V30 4504 H 418.748 -1.86865 -3.49138 0
M  V30 4505 H 419.922 -4.21616 -1.85947 0
M  V30 4506 H 418.237 -3.74333 -1.82383 0
M  V30 4507 H 420.834 -2.91875 -4.4801 0
M  V30 4508 H 421.177 -1.28748 -3.95891 0
M  V30 4509 H 421.71 -2.65998 -2.95787 0
M  V30 4510 H 418.449 -5.63111 -3.35538 0
M  V30 4511 H 417.969 -4.19442 -4.28752 0
M  V30 4512 H 419.648 -4.78498 -4.35487 0
M  V30 4513 N 419.78 1.02168 -1.19998 0
M  V30 4514 C 421.01 1.79036 -1.031 0
M  V30 4515 C 421.418 1.84409 0.423078 0
M  V30 4516 O 420.761 1.29228 1.30559 0
M  V30 4517 C 420.823 3.25185 -1.53281 0
M  V30 4518 C 420.487 3.43431 -3.01503 0
M  V30 4519 C 421.484 3.33063 -3.99206 0
M  V30 4520 C 419.169 3.69412 -3.40353 0
M  V30 4521 C 421.163 3.48413 -5.33748 0
M  V30 4522 C 418.85 3.84406 -4.75053 0
M  V30 4523 C 419.848 3.7391 -5.71559 0
M  V30 4524 O 419.536 3.88452 -7.03818 0
M  V30 4525 H 419.268 0.570043 -0.363355 0
M  V30 4526 H 421.822 1.29524 -1.59414 0
M  V30 4527 H 420.052 3.75756 -0.913483 0
M  V30 4528 H 421.741 3.83671 -1.32481 0
M  V30 4529 H 422.507 3.12934 -3.70537 0
M  V30 4530 H 418.386 3.76671 -2.65782 0
M  V30 4531 H 421.93 3.40137 -6.09059 0
M  V30 4532 H 417.827 4.04035 -5.03415 0
M  V30 4533 H 418.595 4.055 -7.10993 0
M  V30 4534 N 421.258 1.00505 1.21394 0
M  V30 4535 C 422.221 0.570459 2.21987 0
M  V30 4536 C 423.221 -0.353211 1.56873 0
M  V30 4537 O 424.411 -0.14349 1.73608 0
M  V30 4538 C 421.543 -0.168555 3.40483 0
M  V30 4539 H 422.736 1.46021 2.6195 0
M  V30 4540 H 420.289 0.793565 1.34656 0
M  V30 4541 H 421.024 -1.07374 3.06009 0
M  V30 4542 H 420.809 0.494823 3.88965 0
M  V30 4543 H 422.299 -0.460362 4.15055 0
M  V30 4544 N 422.737 -1.36956 0.779787 0
M  V30 4545 C 423.986 -1.98738 0.344405 0
M  V30 4546 C 424.299 -1.62596 -1.08728 0
M  V30 4547 O 425.505 -2.1754 -1.62445 0
M  V30 4548 C 423.961 -3.5544 0.564829 0
M  V30 4549 C 423.569 -4.00514 2.0073 0
M  V30 4550 C 425.313 -4.24059 0.193471 0
M  V30 4551 C 423.22 -5.49957 2.17489 0
M  V30 4552 H 422.15 -0.743561 0.12503 0
M  V30 4553 H 424.801 -1.56381 0.960057 0
M  V30 4554 H 423.183 -3.95817 -0.120397 0
M  V30 4555 H 424.357 -3.71362 2.72814 0
M  V30 4556 H 422.672 -3.44703 2.336 0
M  V30 4557 H 425.269 -5.33874 0.297097 0
M  V30 4558 H 425.612 -4.07378 -0.857263 0
M  V30 4559 H 426.145 -3.89012 0.831556 0
M  V30 4560 H 422.884 -5.71574 3.2091 0
M  V30 4561 H 422.404 -5.80767 1.49899 0
M  V30 4562 H 424.083 -6.16043 1.97738 0
M  V30 4563 N 424.215 -0.530993 -1.48385 0
M  V30 4564 C 425.464 0.00474348 -2.01699 0
M  V30 4565 C 425.777 1.35227 -1.41325 0
M  V30 4566 O 426.983 1.97643 -1.86144 0
M  V30 4567 C 425.439 0.0588473 -3.59852 0
M  V30 4568 C 425.047 -1.28385 -4.2921 0
M  V30 4569 C 426.791 0.543358 -4.21008 0
M  V30 4570 C 424.698 -1.19028 -5.79298 0
M  V30 4571 H 423.628 0.00554317 -0.75398 0
M  V30 4572 H 426.279 -0.674924 -1.70637 0
M  V30 4573 H 424.661 0.803612 -3.8776 0
M  V30 4574 H 425.835 -2.04426 -4.12973 0
M  V30 4575 H 424.15 -1.70418 -3.7993 0
M  V30 4576 H 426.747 0.631351 -5.3096 0
M  V30 4577 H 427.09 1.54937 -3.86394 0
M  V30 4578 H 427.623 -0.145754 -3.97533 0
M  V30 4579 H 424.362 -2.17147 -6.18488 0
M  V30 4580 H 423.882 -0.471246 -5.97946 0
M  V30 4581 H 425.561 -0.881365 -6.40969 0
M  V30 4582 N 425.693 1.55336 -0.266172 0
M  V30 4583 C 426.941 1.99003 0.35246 0
M  V30 4584 C 427.262 1.15591 1.57047 0
M  V30 4585 O 426.532 0.243268 1.94384 0
M  V30 4586 H 425.112 0.735025 0.133217 0
M  V30 4587 H 427.774 1.91367 -0.369434 0
M  V30 4588 H 426.87 3.05289 0.648453 0
M  V30 4589 N 427.171 -0.0066808 1.57599 0
M  V30 4590 C 428.101 -0.999296 2.11036 0
M  V30 4591 C 429.082 -1.36278 1.01795 0
M  V30 4592 O 430.267 -1.4477 1.29442 0
M  V30 4593 C 427.397 -2.29328 2.60818 0
M  V30 4594 C 426.351 -2.07159 3.74525 0
M  V30 4595 C 425.677 -3.42512 4.10596 0
M  V30 4596 C 426.977 -1.43959 5.02069 0
M  V30 4597 H 428.671 -0.554382 2.94223 0
M  V30 4598 H 426.217 -0.265221 1.41536 0
M  V30 4599 H 428.17 -2.99117 2.96828 0
M  V30 4600 H 426.894 -2.7592 1.74745 0
M  V30 4601 H 425.553 -1.39797 3.38899 0
M  V30 4602 H 425.201 -3.86795 3.21556 0
M  V30 4603 H 424.901 -3.28498 4.87199 0
M  V30 4604 H 426.425 -4.13628 4.4916 0
M  V30 4605 H 427.839 -2.03696 5.35893 0
M  V30 4606 H 426.236 -1.40452 5.83432 0
M  V30 4607 H 427.306 -0.407992 4.83181 0
M  V30 4608 N 428.649 -1.55105 -0.279332 0
M  V30 4609 C 429.559 -1.90638 -1.36727 0
M  V30 4610 C 430.575 -0.802899 -1.54368 0
M  V30 4611 O 431.751 -1.10138 -1.68616 0
M  V30 4612 C 428.816 -2.16547 -2.70755 0
M  V30 4613 C 427.877 -3.40146 -2.61915 0
M  V30 4614 C 427.11 -3.6481 -3.8955 0
M  V30 4615 O 427.333 -2.92095 -4.89935 0
M  V30 4616 O 426.267 -4.58343 -3.90135 0
M  V30 4617 H 430.093 -2.83237 -1.09591 0
M  V30 4618 H 427.678 -1.4157 -0.477306 0
M  V30 4619 H 429.56 -2.34665 -3.50014 0
M  V30 4620 H 428.235 -1.27131 -2.9769 0
M  V30 4621 H 427.142 -3.2737 -1.81052 0
M  V30 4622 H 428.475 -4.29761 -2.3993 0
M  V30 4623 N 430.127 0.543554 -1.4793 0
M  V30 4624 C 431.057 1.65888 -1.64327 0
M  V30 4625 C 432.038 1.62818 -0.492383 0
M  V30 4626 O 433.223 1.80226 -0.723338 0
M  V30 4627 C 430.353 3.04506 -1.67013 0
M  V30 4628 C 429.307 3.2243 -2.81466 0
M  V30 4629 C 428.633 4.61972 -2.69233 0
M  V30 4630 C 429.933 3.06496 -4.22915 0
M  V30 4631 H 431.627 1.52421 -2.57698 0
M  V30 4632 H 429.173 0.731849 -1.24016 0
M  V30 4633 H 431.126 3.82391 -1.77074 0
M  V30 4634 H 429.85 3.18964 -0.70212 0
M  V30 4635 H 428.509 2.46957 -2.70938 0
M  V30 4636 H 428.157 4.73247 -1.7043 0
M  V30 4637 H 427.857 4.74911 -3.46025 0
M  V30 4638 H 429.381 5.41974 -2.81242 0
M  V30 4639 H 430.795 3.74186 -4.34348 0
M  V30 4640 H 429.192 3.30938 -5.006 0
M  V30 4641 H 430.262 2.03077 -4.40327 0
M  V30 4642 N 431.605 1.3629 0.791371 0
M  V30 4643 C 432.852 1.30412 1.54916 0
M  V30 4644 C 433.18 -0.117162 1.94147 0
M  V30 4645 O 432.435 -1.08599 1.62803 0
M  V30 4646 C 432.734 2.17068 2.8393 0
M  V30 4647 C 432.4 3.65645 2.63846 0
M  V30 4648 C 431.062 4.0614 2.58077 0
M  V30 4649 C 433.414 4.59855 2.45322 0
M  V30 4650 C 430.742 5.3899 2.31748 0
M  V30 4651 C 433.094 5.9292 2.2052 0
M  V30 4652 C 431.758 6.32542 2.13183 0
M  V30 4653 H 431.028 0.47721 0.566879 0
M  V30 4654 H 433.675 1.68325 0.913172 0
M  V30 4655 H 431.98 1.72085 3.51986 0
M  V30 4656 H 433.677 2.09846 3.4171 0
M  V30 4657 H 430.267 3.33518 2.69191 0
M  V30 4658 H 434.451 4.29443 2.48782 0
M  V30 4659 H 429.707 5.68672 2.24548 0
M  V30 4660 H 433.881 6.65487 2.05182 0
M  V30 4661 H 431.508 7.35412 1.92544 0
M  V30 4662 N 433.083 -1.0153 1.20538 0
M  V30 4663 C 434.332 -1.74558 1.01057 0
M  V30 4664 C 434.645 -1.90168 -0.457756 0
M  V30 4665 O 435.851 -2.60301 -0.771722 0
M  V30 4666 C 434.307 -3.13963 1.75941 0
M  V30 4667 C 433.915 -3.06361 3.26875 0
M  V30 4668 C 435.659 -3.91191 1.64832 0
M  V30 4669 C 433.566 -4.40782 3.94291 0
M  V30 4670 H 432.496 -0.654417 0.374505 0
M  V30 4671 H 435.147 -1.13521 1.44171 0
M  V30 4672 H 433.529 -3.75549 1.25614 0
M  V30 4673 H 434.703 -2.54074 3.84425 0
M  V30 4674 H 433.018 -2.42625 3.38411 0
M  V30 4675 H 435.615 -4.90644 2.12539 0
M  V30 4676 H 435.958 -4.11884 0.604745 0
M  V30 4677 H 436.491 -3.36236 2.12579 0
M  V30 4678 H 433.23 -4.25292 4.98805 0
M  V30 4679 H 432.75 -4.9307 3.41529 0
M  V30 4680 H 434.429 -5.09621 3.98617 0
M  V30 4681 N 434.561 -1.01147 -1.20859 0
M  V30 4682 C 435.809 -0.696486 -1.89719 0
M  V30 4683 C 436.13 0.775788 -1.78904 0
M  V30 4684 O 435.4 1.55759 -1.18811 0
M  V30 4685 H 433.98 -0.254628 -0.702263 0
M  V30 4686 H 436.642 -1.28197 -1.46804 0
M  V30 4687 H 435.738 -0.975357 -2.96468 0
M  V30 4688 N 436.039 1.36541 -0.78704 0
M  V30 4689 C 436.986 2.30082 -0.181901 0
M  V30 4690 C 437.956 1.5186 0.672896 0
M  V30 4691 O 439.141 1.80374 0.622072 0
M  V30 4692 C 436.281 3.3835 0.679197 0
M  V30 4693 C 435.394 4.31565 -0.193882 0
M  V30 4694 C 434.529 5.26915 0.673364 0
M  V30 4695 C 433.568 6.11769 -0.201315 0
M  V30 4696 N 432.705 6.99315 0.624777 0
M  V30 4697 H 437.545 2.81248 -0.985064 0
M  V30 4698 H 435.082 1.38437 -0.497342 0
M  V30 4699 H 437.04 3.99767 1.19341 0
M  V30 4700 H 435.67 2.8851 1.44781 0
M  V30 4701 H 434.722 3.71323 -0.826044 0
M  V30 4702 H 436.034 4.91191 -0.867937 0
M  V30 4703 H 435.188 5.9361 1.25348 0
M  V30 4704 H 433.927 4.67737 1.38105 0
M  V30 4705 H 432.932 5.44039 -0.793849 0
M  V30 4706 H 434.157 6.73022 -0.906568 0
M  V30 4707 H 432.103 6.42648 1.3168 0
M  V30 4708 H 432.02 7.56 0.00835237 0
M  V30 4709 H 433.288 7.70382 1.18879 0
M  V30 4710 N 437.518 0.538854 1.48102 0
M  V30 4711 C 438.451 -0.266495 2.26639 0
M  V30 4712 C 439.429 -0.93687 1.32897 0
M  V30 4713 O 440.613 -0.959507 1.62252 0
M  V30 4714 C 437.74 -1.37814 3.09394 0
M  V30 4715 C 436.786 -0.818247 4.18577 0
M  V30 4716 S 437.619 0.320848 5.34538 0
M  V30 4717 C 438.775 -0.793059 6.20855 0
M  V30 4718 H 439.008 0.399994 2.94597 0
M  V30 4719 H 436.541 0.324808 1.50945 0
M  V30 4720 H 438.499 -2.01488 3.57649 0
M  V30 4721 H 437.16 -2.01639 2.40833 0
M  V30 4722 H 436.353 -1.65247 4.7614 0
M  V30 4723 H 435.955 -0.258036 3.73109 0
M  V30 4724 H 438.247 -1.68961 6.56093 0
M  V30 4725 H 439.19 -0.255204 7.0764 0
M  V30 4726 H 439.598 -1.07746 5.54122 0
M  V30 4727 N 438.996 -1.55193 0.274407 0
M  V30 4728 C 439.946 -2.19184 -0.627882 0
M  V30 4729 C 440.93 -1.15625 -1.11892 0
M  V30 4730 O 442.122 -1.41441 -1.06411 0
M  V30 4731 C 439.251 -2.91591 -1.81189 0
M  V30 4732 C 438.337 -4.02438 -1.33807 0
M  V30 4733 N 438.728 -5.0246 -0.580349 0
M  V30 4734 C 437.026 -4.15496 -1.62109 0
M  V30 4735 C 437.727 -5.80756 -0.331344 0
M  V30 4736 N 436.703 -5.36038 -0.903556 0
M  V30 4737 H 440.505 -2.93871 -0.0411216 0
M  V30 4738 H 438.019 -1.62213 0.0779348 0
M  V30 4739 H 440.016 -3.35883 -2.46957 0
M  V30 4740 H 438.676 -2.18414 -2.40261 0
M  V30 4741 H 439.687 -5.17399 -0.227762 0
M  V30 4742 H 436.364 -3.53509 -2.22121 0
M  V30 4743 H 437.754 -6.71335 0.275454 0
M  V30 4744 N 440.474 -0.00167713 -1.576 0
M  V30 4745 C 441.421 0.989195 -2.08527 0
M  V30 4746 C 442.391 1.34031 -0.981065 0
M  V30 4747 O 443.576 1.43839 -1.2536 0
M  V30 4748 C 440.716 2.27537 -2.59463 0
M  V30 4749 C 439.829 1.98314 -3.83791 0
M  V30 4750 C 438.964 3.21025 -4.23222 0
M  V30 4751 C 438.003 2.87495 -5.40382 0
M  V30 4752 N 437.14 4.02749 -5.75098 0
M  V30 4753 H 441.98 0.547973 -2.92919 0
M  V30 4754 H 439.517 0.258917 -1.44803 0
M  V30 4755 H 441.475 3.02729 -2.87073 0
M  V30 4756 H 440.105 2.69325 -1.77943 0
M  V30 4757 H 439.157 1.13482 -3.63078 0
M  V30 4758 H 440.469 1.69601 -4.69081 0
M  V30 4759 H 439.623 4.04561 -4.52123 0
M  V30 4760 H 438.362 3.52877 -3.36644 0
M  V30 4761 H 437.367 2.02367 -5.11202 0
M  V30 4762 H 438.592 2.56889 -6.28637 0
M  V30 4763 H 436.538 4.34494 -4.91478 0
M  V30 4764 H 436.455 3.77566 -6.54966 0
M  V30 4765 H 437.723 4.87068 -6.08592 0
M  V30 4766 N 441.952 1.55251 0.271103 0
M  V30 4767 C 443.18 1.79974 1.02064 0
M  V30 4768 C 443.595 0.574003 1.79863 0
M  V30 4769 O 442.952 -0.456962 1.76686 0
M  V30 4770 C 443.003 3.02603 1.97772 0
M  V30 4771 O 442.724 4.20443 1.23124 0
M  V30 4772 C 444.225 3.39944 2.84522 0
M  V30 4773 H 441.445 0.599489 0.301419 0
M  V30 4774 H 443.989 2.02268 0.301313 0
M  V30 4775 H 442.144 2.8243 2.65165 0
M  V30 4776 H 442.558 4.89783 1.87651 0
M  V30 4777 H 444.032 4.28915 3.47471 0
M  V30 4778 H 444.509 2.59432 3.54389 0
M  V30 4779 H 445.115 3.62383 2.22618 0
M  V30 4780 N 443.43 -0.535701 1.48216 0
M  V30 4781 C 444.67 -1.30238 1.57536 0
M  V30 4782 C 445.034 -1.90479 0.241229 0
M  V30 4783 O 446.235 -2.67983 0.20938 0
M  V30 4784 C 444.506 -2.3669 2.67792 0
M  V30 4785 S 446.065 -3.23159 2.9684 0
M  V30 4786 H 442.883 -0.443093 0.556048 0
M  V30 4787 H 445.485 -0.610937 1.85709 0
M  V30 4788 H 444.189 -1.90905 3.63296 0
M  V30 4789 H 443.72 -3.10548 2.41502 0
M  V30 4790 H 445.735 -4.36647 2.35699 0
M  V30 4791 N 444.908 -1.36708 -0.784132 0
M  V30 4792 C 446.155 -1.31231 -1.54222 0
M  V30 4793 C 446.483 0.106864 -1.94206 0
M  V30 4794 O 445.738 1.07734 -1.63376 0
M  V30 4795 C 446.037 -2.18571 -2.82774 0
M  V30 4796 C 445.703 -3.67039 -2.61903 0
M  V30 4797 C 444.365 -4.07503 -2.55919 0
M  V30 4798 C 446.717 -4.61149 -2.4288 0
M  V30 4799 C 444.045 -5.40211 -2.28886 0
M  V30 4800 C 446.397 -5.94081 -2.17373 0
M  V30 4801 C 445.061 -6.33664 -2.09825 0
M  V30 4802 H 444.331 -0.48021 -0.56434 0
M  V30 4803 H 446.978 -1.68807 -0.904233 0
M  V30 4804 H 445.283 -1.73949 -3.51068 0
M  V30 4805 H 446.98 -2.11655 -3.40592 0
M  V30 4806 H 443.57 -3.34941 -2.67418 0
M  V30 4807 H 447.754 -4.30756 -2.46501 0
M  V30 4808 H 443.01 -5.69855 -2.21529 0
M  V30 4809 H 447.184 -6.66566 -2.01649 0
M  V30 4810 H 444.811 -7.36423 -1.88641 0
M  V30 4811 N 446.386 1.0089 -1.21074 0
M  V30 4812 C 447.633 1.74607 -1.0256 0
M  V30 4813 C 447.961 1.89426 0.44136 0
M  V30 4814 O 447.216 1.42266 1.34384 0
M  V30 4815 C 447.515 3.16335 -1.66334 0
M  V30 4816 C 447.181 3.21474 -3.16173 0
M  V30 4817 C 445.843 3.22583 -3.57062 0
M  V30 4818 C 448.195 3.19025 -4.12156 0
M  V30 4819 C 445.523 3.18925 -4.92446 0
M  V30 4820 C 447.875 3.16909 -5.47496 0
M  V30 4821 C 446.539 3.16326 -5.87787 0
M  V30 4822 H 445.809 0.638933 -0.375294 0
M  V30 4823 H 448.456 1.18274 -1.50611 0
M  V30 4824 H 446.761 3.75876 -1.10566 0
M  V30 4825 H 448.458 3.72083 -1.49516 0
M  V30 4826 H 445.048 3.2135 -2.83605 0
M  V30 4827 H 449.232 3.17332 -3.81595 0
M  V30 4828 H 444.488 3.16809 -5.22917 0
M  V30 4829 H 448.662 3.13968 -6.21609 0
M  V30 4830 H 446.289 3.13246 -6.92662 0
M  V30 4831 N 447.864 1.01787 1.20321 0
M  V30 4832 C 448.827 0.593972 2.2137 0
M  V30 4833 C 449.827 -0.336553 1.57239 0
M  V30 4834 O 451.017 -0.125069 1.7375 0
M  V30 4835 C 448.149 -0.132433 3.40643 0
M  V30 4836 H 449.342 1.48791 2.60387 0
M  V30 4837 H 446.895 0.807803 1.33807 0
M  V30 4838 H 447.63 -1.04123 3.0713 0
M  V30 4839 H 447.415 0.53605 3.88418 0
M  V30 4840 H 448.905 -0.416314 4.1552 0
M  V30 4841 N 449.342 -1.36122 0.79427 0
M  V30 4842 C 450.619 -1.93398 0.292685 0
M  V30 4843 C 450.999 -1.72567 -1.21589 0
M  V30 4844 O 450.347 -1.08745 -2.00965 0
M  V30 4845 C 450.557 -3.42099 0.690614 0
M  V30 4846 C 451.905 -4.19231 0.673105 0
M  V30 4847 O 452.929 -3.50559 0.631389 0
M  V30 4848 O 451.788 -5.41732 0.720362 0
M  V30 4849 H 448.882 -0.823712 0.0736693 0
M  V30 4850 H 451.428 -1.45273 0.87714 0
M  V30 4851 H 450.2 -3.50938 1.73085 0
M  V30 4852 H 449.823 -3.97519 0.0803036 0
M  V30 4853 N 450.82 -0.546701 -1.47814 0
M  V30 4854 C 452.045 -0.021268 -2.07389 0
M  V30 4855 C 452.47 1.25822 -1.39822 0
M  V30 4856 O 451.828 1.75111 -0.46968 0
M  V30 4857 C 451.876 0.168502 -3.60206 0
M  V30 4858 O 450.98 1.23347 -3.93522 0
M  V30 4859 H 450.321 -0.0466108 -0.662362 0
M  V30 4860 H 452.851 -0.759387 -1.89985 0
M  V30 4861 H 452.861 0.385982 -4.0617 0
M  V30 4862 H 451.536 -0.766075 -4.08784 0
M  V30 4863 H 450.113 0.997319 -3.59316 0
M  V30 4864 N 452.299 1.55045 -0.282633 0
M  V30 4865 C 453.576 1.9179 0.384166 0
M  V30 4866 C 453.956 1.20778 1.73136 0
M  V30 4867 O 453.304 0.33719 2.25998 0
M  V30 4868 C 453.514 3.45149 0.517014 0
M  V30 4869 C 454.862 4.17064 0.796427 0
M  V30 4870 O 455.886 3.51084 0.601535 0
M  V30 4871 O 454.745 5.33837 1.16962 0
M  V30 4872 H 451.839 0.799483 0.211558 0
M  V30 4873 H 454.385 1.66474 -0.32934 0
M  V30 4874 H 453.157 3.88922 -0.430772 0
M  V30 4875 H 452.78 3.76443 1.2797 0
M  V30 4876 N 453.777 0.010035 1.57597 0
M  V30 4877 C 455.026 -0.671945 1.90178 0
M  V30 4878 C 455.339 -1.74376 0.886131 0
M  V30 4879 O 456.545 -2.48107 1.10252 0
M  V30 4880 C 455.001 -1.24636 3.3763 0
M  V30 4881 C 454.609 -0.208838 4.47513 0
M  V30 4882 C 456.353 -1.90595 3.79307 0
M  V30 4883 C 454.26 -0.793814 5.86048 0
M  V30 4884 H 453.19 -0.25474 0.709665 0
M  V30 4885 H 455.841 0.0722206 1.83358 0
M  V30 4886 H 454.223 -2.04152 3.3932 0
M  V30 4887 H 455.397 0.562463 4.57354 0
M  V30 4888 H 453.712 0.350889 4.14919 0
M  V30 4889 H 456.309 -2.35284 4.80151 0
M  V30 4890 H 456.652 -2.74074 3.13352 0
M  V30 4891 H 457.185 -1.17798 3.79958 0
M  V30 4892 H 453.924 0.00240855 6.555 0
M  V30 4893 H 453.444 -1.53404 5.79851 0
M  V30 4894 H 455.123 -1.2894 6.34022 0
M  V30 4895 N 455.255 -1.55392 -0.262866 0
M  V30 4896 C 456.501 -1.76737 -0.99458 0
M  V30 4897 C 456.834 -0.572453 -1.85571 0
M  V30 4898 O 456.109 0.429732 -1.89693 0
M  V30 4899 C 456.392 -3.07824 -1.8686 0
M  V30 4900 C 456.245 -4.3769 -1.03672 0
M  V30 4901 C 457.564 -3.35021 -2.85393 0
M  V30 4902 H 454.683 -0.643005 -0.360157 0
M  V30 4903 H 457.325 -1.88126 -0.266216 0
M  V30 4904 H 455.475 -2.98245 -2.48962 0
M  V30 4905 H 457.147 -4.59238 -0.43563 0
M  V30 4906 H 455.39 -4.32461 -0.340513 0
M  V30 4907 H 456.061 -5.25759 -1.6817 0
M  V30 4908 H 458.537 -3.44458 -2.33426 0
M  V30 4909 H 457.413 -4.27989 -3.43681 0
M  V30 4910 H 457.674 -2.55153 -3.61039 0
M  V30 4911 N 456.733 0.527833 -1.48498 0
M  V30 4912 C 457.696 1.61439 -1.62696 0
M  V30 4913 C 458.696 1.52824 -0.500136 0
M  V30 4914 O 459.886 1.56456 -0.765976 0
M  V30 4915 C 457.018 3.01063 -1.59918 0
M  V30 4916 H 458.211 1.50189 -2.59583 0
M  V30 4917 H 455.764 0.750055 -1.37127 0
M  V30 4918 H 456.499 3.17818 -0.645163 0
M  V30 4919 H 456.284 3.08725 -2.41726 0
M  V30 4920 H 457.774 3.80057 -1.73051 0
M  V30 4921 N 458.211 1.37122 0.776871 0
M  V30 4922 C 459.121 1.34651 1.9211 0
M  V30 4923 C 460.137 0.246824 1.7224 0
M  V30 4924 O 461.313 0.48134 1.95563 0
M  V30 4925 C 458.378 1.14748 3.2716 0
M  V30 4926 C 457.439 2.34308 3.5972 0
M  V30 4927 C 456.672 2.15345 4.88326 0
M  V30 4928 O 456.895 1.13507 5.58992 0
M  V30 4929 O 455.829 3.03414 5.1983 0
M  V30 4930 H 459.655 2.31013 1.97146 0
M  V30 4931 H 457.24 1.17799 0.918901 0
M  V30 4932 H 459.122 1.05616 4.0795 0
M  V30 4933 H 457.797 0.214562 3.22988 0
M  V30 4934 H 456.704 2.49011 2.79185 0
M  V30 4935 H 458.037 3.26149 3.68629 0
M  V30 4936 N 459.689 -1.00246 1.21608 0
M  V30 4937 C 460.599 -2.12515 0.993709 0
M  V30 4938 C 461.615 -1.73913 -0.0549939 0
M  V30 4939 O 462.791 -2.00943 0.135619 0
M  V30 4940 C 459.856 -3.42083 0.563953 0
M  V30 4941 C 458.917 -3.94843 1.68516 0
M  V30 4942 C 458.15 -5.18226 1.27582 0
M  V30 4943 O 458.373 -5.70201 0.150506 0
M  V30 4944 O 457.307 -5.64497 2.0887 0
M  V30 4945 H 461.133 -2.34152 1.93407 0
M  V30 4946 H 458.718 -1.10891 1.00118 0
M  V30 4947 H 460.6 -4.20073 0.334194 0
M  V30 4948 H 459.275 -3.21828 -0.347665 0
M  V30 4949 H 458.182 -3.18068 1.96935 0
M  V30 4950 H 459.515 -4.19512 2.5743 0
M  V30 4951 N 461.167 -1.02423 -1.1978 0
M  V30 4952 C 462.444 -0.632802 -1.85081 0
M  V30 4953 C 462.824 0.888745 -1.9148 0
M  V30 4954 O 462.172 1.78357 -1.42832 0
M  V30 4955 C 462.382 -1.28947 -3.24305 0
M  V30 4956 C 463.73 -1.40976 -4.00513 0
M  V30 4957 O 464.754 -1.24628 -3.33686 0
M  V30 4958 O 463.613 -1.67467 -5.20209 0
M  V30 4959 H 460.707 -0.219348 -0.79738 0
M  V30 4960 H 463.253 -1.12209 -1.27307 0
M  V30 4961 H 462.025 -2.3288 -3.14456 0
M  V30 4962 H 461.648 -0.787748 -3.89718 0
M  V30 4963 N 462.645 1.35699 -0.801477 0
M  V30 4964 C 464.056 1.81415 -0.441073 0
M  V30 4965 C 464.407 1.66595 1.03636 0
M  V30 4966 O 463.532 1.19369 1.80499 0
M  V30 4967 C 464.127 3.29369 -0.793819 0
M  V30 4968 C 462.686 3.73248 -0.486083 0
M  V30 4969 C 461.833 2.57775 -1.02213 0
M  V30 4970 H 464.784 1.23749 -0.993572 0
M  V30 4971 H 464.805 3.80395 -0.0894158 0
M  V30 4972 H 464.317 3.40123 -1.86917 0
M  V30 4973 H 462.418 3.68046 0.580735 0
M  V30 4974 H 462.531 4.68222 -1.01513 0
M  V30 4975 H 460.895 2.50788 -0.444712 0
M  V30 4976 H 461.678 2.71309 -2.10348 0
M  V30 4977 N 464.123 0.554532 1.47522 0
M  V30 4978 C 465.086 -0.184174 2.28459 0
M  V30 4979 C 466.086 -0.845195 1.36796 0
M  V30 4980 O 467.276 -0.701467 1.59452 0
M  V30 4981 C 464.408 -1.26903 3.16399 0
M  V30 4982 H 465.601 0.526751 2.95238 0
M  V30 4983 H 463.154 0.311375 1.53167 0
M  V30 4984 H 463.889 -2.01244 2.54306 0
M  V30 4985 H 463.674 -0.799883 3.83854 0
M  V30 4986 H 465.164 -1.78794 3.77389 0
M  V30 4987 N 465.601 -1.54893 0.290851 0
M  V30 4988 C 467.012 -1.85584 -0.203816 0
M  V30 4989 C 467.363 -1.21285 -1.54222 0
M  V30 4990 O 466.488 -0.506841 -2.10381 0
M  V30 4991 C 467.083 -3.367 -0.376595 0
M  V30 4992 C 465.642 -3.6746 -0.815485 0
M  V30 4993 C 464.789 -2.77178 0.0821087 0
M  V30 4994 H 467.74 -1.50208 0.512175 0
M  V30 4995 H 467.761 -3.60656 -1.21275 0
M  V30 4996 H 467.273 -3.8347 0.59767 0
M  V30 4997 H 465.374 -3.26201 -1.80066 0
M  V30 4998 H 465.487 -4.7478 -0.641905 0
M  V30 4999 H 463.851 -2.50925 -0.436895 0
M  V30 5000 H 464.634 -3.26767 1.05254 0
M  V30 5001 N 467.08 -0.0183926 -1.57589 0
M  V30 5002 C 468.32 0.666846 -1.93216 0
M  V30 5003 C 468.684 1.69905 -0.894215 0
M  V30 5004 O 469.885 2.436 -1.13633 0
M  V30 5005 C 468.156 1.27684 -3.33814 0
M  V30 5006 S 469.715 1.98464 -3.91353 0
M  V30 5007 H 466.533 0.219826 -0.676164 0
M  V30 5008 H 469.135 -0.0794893 -1.95338 0
M  V30 5009 H 467.839 0.513006 -4.07181 0
M  V30 5010 H 467.37 2.06071 -3.3511 0
M  V30 5011 H 469.385 3.26189 -3.73918 0
M  V30 5012 N 468.558 1.5553 0.254621 0
M  V30 5013 C 469.521 1.88872 1.29846 0
M  V30 5014 C 470.521 0.764591 1.41459 0
M  V30 5015 O 471.711 1.03265 1.40293 0
M  V30 5016 C 468.843 2.11032 2.67728 0
M  V30 5017 H 470.036 2.82201 1.01502 0
M  V30 5018 H 467.589 1.48303 0.493556 0
M  V30 5019 H 468.324 1.20146 3.01223 0
M  V30 5020 H 468.109 2.92895 2.60682 0
M  V30 5021 H 469.599 2.38038 3.43115 0
M  V30 5022 N 470.036 -0.519951 1.48776 0
M  V30 5023 C 471.283 -1.27522 1.57303 0
M  V30 5024 C 471.611 -1.92869 0.251328 0
M  V30 5025 O 470.866 -1.80372 -0.759243 0
M  V30 5026 C 471.165 -2.37864 2.6675 0
M  V30 5027 C 470.831 -1.90103 4.08867 0
M  V30 5028 C 469.493 -1.76795 4.47546 0
M  V30 5029 C 471.845 -1.54133 4.97888 0
M  V30 5030 C 469.173 -1.25868 5.73039 0
M  V30 5031 C 471.525 -1.04665 6.23881 0
M  V30 5032 C 470.189 -0.899823 6.61407 0
M  V30 5033 H 469.459 -0.466636 0.575614 0
M  V30 5034 H 472.106 -0.579109 1.82534 0
M  V30 5035 H 470.411 -3.13186 2.35418 0
M  V30 5036 H 472.108 -2.95969 2.70561 0
M  V30 5037 H 468.698 -2.01414 3.78326 0
M  V30 5038 H 472.882 -1.6327 4.68675 0
M  V30 5039 H 468.138 -1.13196 6.0083 0
M  V30 5040 H 472.312 -0.759074 6.92251 0
M  V30 5041 H 469.939 -0.503011 7.58534 0
M  V30 5042 N 471.514 -1.37532 -0.769588 0
M  V30 5043 C 472.739 -1.36231 -1.56384 0
M  V30 5044 C 473.164 0.0495849 -1.88035 0
M  V30 5045 O 472.522 1.02723 -1.49391 0
M  V30 5046 C 472.57 -2.20986 -2.84952 0
M  V30 5047 O 471.674 -1.61597 -3.79421 0
M  V30 5048 H 471.015 -0.465387 -0.473615 0
M  V30 5049 H 473.545 -1.81085 -0.952342 0
M  V30 5050 H 473.555 -2.34277 -3.34034 0
M  V30 5051 H 472.23 -3.23612 -2.61243 0
M  V30 5052 H 470.807 -1.57359 -3.38072 0
M  V30 5053 N 472.992 0.995999 -1.22138 0
M  V30 5054 C 474.24 1.73167 -1.042 0
M  V30 5055 C 474.561 1.90329 0.42423 0
M  V30 5056 O 473.831 1.4607 1.30539 0
M  V30 5057 H 472.411 0.641593 -0.38258 0
M  V30 5058 H 475.073 1.19974 -1.53598 0
M  V30 5059 H 474.169 2.72734 -1.51731 0
M  V30 5060 N 474.47 1.03057 1.19235 0
M  V30 5061 C 475.418 0.606391 2.24557 0
M  V30 5062 C 476.412 -0.361826 1.65491 0
M  V30 5063 O 477.618 -0.23022 1.78522 0
M  V30 5064 H 473.993 0.177838 0.730669 0
M  V30 5065 H 475.964 1.50529 2.5765 0
M  V30 5066 C 474.713 -0.0252127 3.47691 0
M  V30 5067 H 474.036 0.710838 3.9343 0
M  V30 5068 H 475.476 -0.284931 4.23042 0
M  V30 5069 C 473.935 -1.27229 3.11953 0
M  V30 5070 O 474.465 -2.36416 3.24762 0
M  V30 5071 N 472.671 -1.16169 2.6637 0
M  V30 5072 H 472.218 -0.273189 2.56147 0
M  V30 5073 H 472.176 -1.99703 2.42829 0
M  V30 5074 N 475.948 -1.35272 0.808662 0
M  V30 5075 C 477.196 -1.98316 0.389233 0
M  V30 5076 C 477.517 -1.64465 -1.04767 0
M  V30 5077 O 476.787 -0.928175 -1.72516 0
M  V30 5078 H 475.367 -0.733585 0.140935 0
M  V30 5079 H 478.029 -1.6515 1.03496 0
M  V30 5080 H 477.125 -3.08123 0.496631 0
M  V30 5081 N 477.426 -0.562348 -1.47226 0
M  V30 5082 C 478.842 -0.222492 -1.58042 0
M  V30 5083 C 479.042 1.27505 -1.56028 0
M  V30 5084 O 478.098 2.05555 -1.46641 0
M  V30 5085 C 479.411 -0.853694 -2.88327 0
M  V30 5086 C 480.959 -0.825397 -3.01921 0
M  V30 5087 C 481.434 -1.43576 -4.34914 0
M  V30 5088 N 482.925 -1.39918 -4.41562 0
M  V30 5089 C 483.66 -1.84103 -5.43041 0
M  V30 5090 N 483.156 -2.36167 -6.51304 0
M  V30 5091 N 484.949 -1.75142 -5.34118 0
M  V30 5092 H 477.1 -1.53525 -1.46778 0
M  V30 5093 H 479.363 -0.640527 -0.698877 0
M  V30 5094 H 479.069 -1.90635 -2.95552 0
M  V30 5095 H 478.943 -0.34977 -3.75575 0
M  V30 5096 H 481.33 0.218583 -2.94289 0
M  V30 5097 H 481.411 -1.36713 -2.16202 0
M  V30 5098 H 481.055 -2.47884 -4.43301 0
M  V30 5099 H 480.985 -0.869427 -5.19373 0
M  V30 5100 H 483.476 -1.0184 -3.63919 0
M  V30 5101 H 483.789 -2.67793 -7.24919 0
M  V30 5102 H 482.134 -2.40181 -6.52179 0
M  V30 5103 H 485.325 -1.34241 -4.48439 0
M  V30 5104 H 485.498 -2.09895 -6.13065 0
M  V30 5105 N 478.904 1.54736 -0.299062 0
M  V30 5106 C 479.836 2.20891 0.61153 0
M  V30 5107 C 480.849 1.20104 1.09904 0
M  V30 5108 O 482.038 1.46707 1.01683 0
M  V30 5109 C 479.138 2.84018 1.84897 0
M  V30 5110 C 478.311 4.10719 1.50428 0
M  V30 5111 C 477.37 4.57667 2.59667 0
M  V30 5112 O 476.396 5.2291 2.24842 0
M  V30 5113 N 477.598 4.29821 3.90172 0
M  V30 5114 H 480.363 2.99666 0.0452001 0
M  V30 5115 H 477.924 1.61446 -0.121178 0
M  V30 5116 H 479.916 3.1236 2.5732 0
M  V30 5117 H 478.486 2.09095 2.32375 0
M  V30 5118 H 477.706 3.89408 0.612781 0
M  V30 5119 H 478.994 4.93223 1.24934 0
M  V30 5120 H 478.392 3.77549 4.21276 0
M  V30 5121 H 476.949 4.62877 4.58899 0
M  V30 5122 N 480.382 0.0267497 1.57577 0
M  V30 5123 C 481.622 -0.65659 1.93567 0
M  V30 5124 C 481.986 -1.69429 0.903213 0
M  V30 5125 O 483.187 -2.42994 1.14923 0
M  V30 5126 C 481.458 -1.25912 3.34486 0
M  V30 5127 S 483.017 -1.96386 3.924 0
M  V30 5128 H 479.835 -0.216237 0.67732 0
M  V30 5129 H 482.437 0.0898475 1.95293 0
M  V30 5130 H 481.141 -0.491405 4.07447 0
M  V30 5131 H 480.672 -2.04291 3.36198 0
M  V30 5132 H 482.687 -3.24202 3.75643 0
M  V30 5133 N 481.861 -1.55662 -0.24637 0
M  V30 5134 C 483.089 -1.81575 -0.991876 0
M  V30 5135 C 483.504 -0.602545 -1.78927 0
M  V30 5136 O 482.861 0.428795 -1.77391 0
M  V30 5137 C 482.912 -3.05711 -1.92933 0
M  V30 5138 O 482.633 -4.22348 -1.1642 0
M  V30 5139 C 484.134 -3.44428 -2.79078 0
M  V30 5140 H 481.354 -0.604209 -0.291844 0
M  V30 5141 H 483.898 -2.02722 -0.269095 0
M  V30 5142 H 482.053 -2.86612 -2.60638 0
M  V30 5143 H 482.467 -4.92706 -1.79835 0
M  V30 5144 H 483.941 -4.34388 -3.40603 0
M  V30 5145 H 484.418 -2.65037 -3.50217 0
M  V30 5146 H 485.024 -3.65879 -2.16824 0
M  V30 5147 N 483.339 0.512053 -1.4905 0
M  V30 5148 C 484.302 1.59704 -1.64399 0
M  V30 5149 C 485.302 1.52285 -0.516317 0
M  V30 5150 O 486.492 1.55635 -0.782527 0
M  V30 5151 C 483.624 2.9935 -1.63102 0
M  V30 5152 H 484.817 1.47428 -2.61161 0
M  V30 5153 H 482.37 0.735469 -1.37915 0
M  V30 5154 H 483.105 3.17116 -0.678836 0
M  V30 5155 H 482.89 3.06144 -2.44986 0
M  V30 5156 H 484.38 3.782 -1.77072 0
M  V30 5157 N 484.817 1.37938 0.762283 0
M  V30 5158 C 485.765 1.34569 1.89721 0
M  V30 5159 C 486.759 0.232929 1.67791 0
M  V30 5160 O 487.965 0.401485 1.75465 0
M  V30 5161 H 484.34 0.419594 0.624055 0
M  V30 5162 H 486.311 2.30357 1.8968 0
M  V30 5163 C 485.06 1.17898 3.27101 0
M  V30 5164 H 484.383 2.02781 3.44558 0
M  V30 5165 H 485.823 1.19593 4.06784 0
M  V30 5166 C 484.282 -0.114728 3.36705 0
M  V30 5167 O 484.812 -1.0949 3.8649 0
M  V30 5168 N 483.018 -0.16863 2.9011 0
M  V30 5169 H 482.565 0.62967 2.49786 0
M  V30 5170 H 482.523 -1.03383 2.96916 0
M  V30 5171 N 486.295 -0.989507 1.22664 0
M  V30 5172 C 487.543 -1.72612 1.05117 0
M  V30 5173 C 487.864 -1.90552 -0.414131 0
M  V30 5174 O 487.134 -1.4676 -1.29762 0
M  V30 5175 H 485.714 -0.639555 0.385977 0
M  V30 5176 H 488.376 -1.19158 1.54232 0
M  V30 5177 H 487.472 -2.71926 1.53175 0
M  V30 5178 N 487.773 -1.03688 -1.18687 0
M  V30 5179 C 489.001 -0.757918 -1.92518 0
M  V30 5180 C 489.416 0.684398 -1.75959 0
M  V30 5181 O 488.773 1.46617 -1.08673 0
M  V30 5182 C 488.824 -1.10985 -3.44042 0
M  V30 5183 O 488.545 -2.49554 -3.60076 0
M  V30 5184 C 490.046 -0.854844 -4.3498 0
M  V30 5185 H 487.266 -0.276699 -0.611293 0
M  V30 5186 H 489.81 -1.38352 -1.50595 0
M  V30 5187 H 487.965 -0.529279 -3.83767 0
M  V30 5188 H 488.379 -2.6291 -4.53849 0
M  V30 5189 H 489.853 -1.15098 -5.39867 0
M  V30 5190 H 490.33 0.210507 -4.38695 0
M  V30 5191 H 490.936 -1.41853 -4.00946 0
M  V30 5192 N 489.251 1.34841 -0.815825 0
M  V30 5193 C 490.161 2.33425 -0.234462 0
M  V30 5194 C 491.177 1.62295 0.627413 0
M  V30 5195 O 492.353 1.94109 0.536987 0
M  V30 5196 C 489.418 3.41471 0.599849 0
M  V30 5197 C 488.479 4.28362 -0.283596 0
M  V30 5198 C 487.712 5.31248 0.51099 0
M  V30 5199 O 487.935 5.43056 1.7449 0
M  V30 5200 O 486.869 6.01812 -0.10297 0
M  V30 5201 H 490.695 2.84962 -1.05024 0
M  V30 5202 H 488.28 1.37774 -0.577809 0
M  V30 5203 H 490.162 4.07464 1.07475 0
M  V30 5204 H 488.837 2.9219 1.39308 0
M  V30 5205 H 487.744 3.65318 -0.805836 0
M  V30 5206 H 489.077 4.81066 -1.041 0
M  V30 5207 N 490.729 0.570148 1.46925 0
M  V30 5208 C 491.969 0.0534743 2.0433 0
M  V30 5209 C 492.333 -1.27729 1.4335 0
M  V30 5210 O 493.534 -1.88244 1.91879 0
M  V30 5211 C 491.805 -0.0244296 3.57392 0
M  V30 5212 S 493.364 -0.485351 4.36108 0
M  V30 5213 H 490.182 0.0313908 0.710307 0
M  V30 5214 H 492.784 0.759808 1.80131 0
M  V30 5215 H 491.488 0.948261 3.99295 0
M  V30 5216 H 491.019 -0.753922 3.86108 0
M  V30 5217 H 493.034 -1.74258 4.64595 0
M  V30 5218 N 492.207 -1.54576 0.307264 0
M  V30 5219 C 493.623 -1.59534 -0.0459251 0
M  V30 5220 C 493.823 -1.32414 -1.51884 0
M  V30 5221 O 492.879 -1.1006 -2.27251 0
M  V30 5222 C 494.192 -2.98566 0.357649 0
M  V30 5223 C 495.74 -3.11491 0.306937 0
M  V30 5224 C 496.215 -4.52842 0.685427 0
M  V30 5225 N 497.706 -4.58782 0.638203 0
M  V30 5226 C 498.441 -5.66238 0.903458 0
M  V30 5227 N 497.937 -6.81703 1.23501 0
M  V30 5228 N 499.73 -5.55937 0.830102 0
M  V30 5229 H 491.881 -1.70464 1.26712 0
M  V30 5230 H 494.144 -0.79647 0.514139 0
M  V30 5231 H 493.85 -3.23356 1.38325 0
M  V30 5232 H 493.724 -3.76117 -0.285565 0
M  V30 5233 H 496.111 -2.86446 -0.709424 0
M  V30 5234 H 496.192 -2.36081 0.984861 0
M  V30 5235 H 495.836 -4.78618 1.69963 0
M  V30 5236 H 495.766 -5.26598 -0.0146346 0
M  V30 5237 H 498.257 -3.75849 0.393138 0
M  V30 5238 H 498.57 -7.59582 1.42322 0
M  V30 5239 H 496.915 -6.8324 1.27311 0
M  V30 5240 H 500.106 -4.64608 0.570693 0
M  V30 5241 H 500.279 -6.39597 1.04019 0
M  V30 5242 N 493.685 -0.035106 -1.57561 0
M  V30 5243 C 494.91 0.655802 -1.96759 0
M  V30 5244 C 495.335 1.64523 -0.911809 0
M  V30 5245 O 494.693 1.80857 0.126673 0
M  V30 5246 C 494.741 1.33326 -3.35047 0
M  V30 5247 O 493.845 2.44866 -3.31835 0
M  V30 5248 H 493.186 0.171807 -0.641388 0
M  V30 5249 H 495.716 -0.0987369 -2.04362 0
M  V30 5250 H 495.726 1.68867 -3.71413 0
M  V30 5251 H 494.401 0.608033 -4.11431 0
M  V30 5252 H 492.978 2.11392 -3.07193 0
M  V30 5253 N 495.163 1.55791 0.238111 0
M  V30 5254 C 496.411 1.77681 0.963001 0
M  V30 5255 C 496.732 0.600674 1.85518 0
M  V30 5256 O 496.002 -0.383182 1.92116 0
M  V30 5257 H 494.582 0.655315 0.358568 0
M  V30 5258 H 497.244 1.93239 0.253945 0
M  V30 5259 H 496.34 2.69177 1.57956 0
M  V30 5260 N 496.642 -0.504142 1.49319 0
M  V30 5261 C 497.888 -1.25767 1.59857 0
M  V30 5262 C 498.243 -1.90348 0.280262 0
M  V30 5263 O 497.536 -1.77588 -0.719241 0
M  V30 5264 C 497.73 -2.35021 2.69258 0
M  V30 5265 C 497.559 -1.81154 4.11598 0
M  V30 5266 C 496.329 -1.62596 4.78425 0
M  V30 5267 C 498.527 -1.3252 4.96934 0
M  V30 5268 N 496.509 -1.03625 6.05091 0
M  V30 5269 C 497.88 -0.856633 6.14054 0
M  V30 5270 C 499.935 -1.21063 4.82958 0
M  V30 5271 C 498.638 -0.284841 7.18736 0
M  V30 5272 C 500.664 -0.652815 5.87786 0
M  V30 5273 C 500.026 -0.194461 7.04132 0
M  V30 5274 H 496.125 -0.450293 0.639343 0
M  V30 5275 H 498.709 -0.565344 1.86311 0
M  V30 5276 H 496.88 -3.01719 2.44581 0
M  V30 5277 H 498.612 -3.02061 2.69335 0
M  V30 5278 H 495.367 -1.86873 4.35173 0
M  V30 5279 H 495.791 -0.76076 6.72712 0
M  V30 5280 H 500.433 -1.551 3.93324 0
M  V30 5281 H 498.151 0.0677979 8.08072 0
M  V30 5282 H 501.737 -0.566994 5.79031 0
M  V30 5283 H 500.617 0.230442 7.83861 0
M  V30 5284 N 498.12 -1.38341 -0.754957 0
M  V30 5285 C 499.366 -1.34672 -1.51628 0
M  V30 5286 C 499.699 0.0636036 -1.94096 0
M  V30 5287 O 498.974 1.0245 -1.6533 0
M  V30 5288 C 499.257 -2.30116 -2.76981 0
M  V30 5289 C 499.11 -3.80003 -2.4066 0
M  V30 5290 C 500.429 -2.23715 -3.78998 0
M  V30 5291 H 497.548 -0.490517 -0.550056 0
M  V30 5292 H 500.19 -1.69178 -0.864807 0
M  V30 5293 H 498.34 -2.00821 -3.3257 0
M  V30 5294 H 500.012 -4.19966 -1.90856 0
M  V30 5295 H 498.255 -3.97751 -1.73137 0
M  V30 5296 H 498.926 -4.42244 -3.30339 0
M  V30 5297 H 501.402 -2.49574 -3.32945 0
M  V30 5298 H 500.278 -2.9261 -4.64403 0
M  V30 5299 H 500.539 -1.23554 -4.24484 0
M  V30 5300 N 499.598 0.982988 -1.23187 0
M  V30 5301 C 500.846 1.72052 -1.06031 0
M  V30 5302 C 501.167 1.90769 0.404019 0
M  V30 5303 O 500.437 1.47446 1.28982 0
M  V30 5304 H 499.017 0.637499 -0.389363 0
M  V30 5305 H 501.679 1.18338 -1.54862 0
M  V30 5306 H 500.775 2.7111 -1.54615 0
M  V30 5307 N 501.076 1.04316 1.18135 0
M  V30 5308 C 502.487 0.775505 1.69832 0
M  V30 5309 C 502.838 -0.703348 1.8316 0
M  V30 5310 O 501.963 -1.54729 1.51287 0
M  V30 5311 C 502.558 1.40112 3.0847 0
M  V30 5312 C 501.117 1.18172 3.57368 0
M  V30 5313 C 500.264 1.49022 2.33854 0
M  V30 5314 H 503.215 1.20925 1.02775 0
M  V30 5315 H 503.236 0.805672 3.71873 0
M  V30 5316 H 502.748 2.47744 2.98738 0
M  V30 5317 H 500.849 0.124258 3.72393 0
M  V30 5318 H 500.962 1.8805 4.40652 0
M  V30 5319 H 499.326 0.909995 2.37889 0
M  V30 5320 H 500.109 2.57768 2.26738 0
M  V30 5321 N 502.554 -1.34406 0.822964 0
M  V30 5322 C 503.502 -2.31428 0.233165 0
M  V30 5323 C 504.496 -1.57404 -0.626118 0
M  V30 5324 O 505.702 -1.72402 -0.517453 0
M  V30 5325 H 502.077 -0.749863 0.0566557 0
M  V30 5326 H 504.048 -2.78699 1.06628 0
M  V30 5327 C 502.797 -3.42653 -0.590264 0
M  V30 5328 H 502.12 -3.99753 0.0616129 0
M  V30 5329 H 503.56 -4.12778 -0.969054 0
M  V30 5330 C 502.019 -2.87112 -1.76262 0
M  V30 5331 O 502.549 -2.81995 -2.8608 0
M  V30 5332 N 500.755 -2.43934 -1.57938 0
M  V30 5333 H 500.302 -2.48296 -0.686078 0
M  V30 5334 H 500.26 -2.07123 -2.36532 0
M  V30 5335 N 504.032 -0.577932 -1.46621 0
M  V30 5336 C 505.28 -0.061566 -2.02006 0
M  V30 5337 C 505.601 1.30117 -1.4524 0
M  V30 5338 O 504.871 1.85313 -0.63529 0
M  V30 5339 H 503.451 -0.0197692 -0.746738 0
M  V30 5340 H 506.113 -0.752631 -1.79782 0
M  V30 5341 H 505.209 0.0110238 -3.12098 0
M  V30 5342 N 505.51 1.54411 -0.315457 0
M  V30 5343 C 506.758 2.00023 0.288971 0
M  V30 5344 C 507.079 1.20529 1.5329 0
M  V30 5345 O 506.349 0.304986 1.93511 0
M  V30 5346 H 504.929 0.738891 0.109766 0
M  V30 5347 H 507.591 1.90094 -0.430129 0
M  V30 5348 H 506.687 3.07198 0.550999 0
M  V30 5349 N 506.988 0.0434614 1.5754 0
M  V30 5350 C 508.237 -0.631454 1.91561 0
M  V30 5351 C 508.55 -1.72457 0.92292 0
M  V30 5352 O 509.756 -2.45712 1.15489 0
M  V30 5353 C 508.212 -1.17447 3.40197 0
M  V30 5354 C 507.82 -0.113867 4.47855 0
M  V30 5355 C 509.564 -1.82507 3.83264 0
M  V30 5356 C 507.471 -0.669326 5.876 0
M  V30 5357 H 506.401 -0.239629 0.714908 0
M  V30 5358 H 509.052 0.111097 1.83163 0
M  V30 5359 H 507.434 -1.96909 3.43574 0
M  V30 5360 H 508.608 0.659348 4.56058 0
M  V30 5361 H 506.923 0.438821 4.14081 0
M  V30 5362 H 509.52 -2.25047 4.85034 0
M  V30 5363 H 509.863 -2.67365 3.19095 0
M  V30 5364 H 510.396 -1.09712 3.82372 0
M  V30 5365 H 507.135 0.141449 6.55347 0
M  V30 5366 H 506.655 -1.4107 5.82974 0
M  V30 5367 H 508.334 -1.15463 6.36614 0
M  V30 5368 N 508.466 -1.55915 -0.229846 0
M  V30 5369 C 509.694 -1.82617 -0.972562 0
M  V30 5370 C 510.109 -0.621488 -1.78278 0
M  V30 5371 O 509.466 0.409956 -1.77836 0
M  V30 5372 C 509.517 -3.0774 -1.89679 0
M  V30 5373 O 509.238 -4.23559 -1.11934 0
M  V30 5374 C 510.739 -3.47368 -2.75409 0
M  V30 5375 H 507.959 -0.60727 -0.285419 0
M  V30 5376 H 510.503 -2.02996 -0.247579 0
M  V30 5377 H 508.658 -2.89361 -2.57583 0
M  V30 5378 H 509.072 -4.94586 -1.74599 0
M  V30 5379 H 510.546 -4.37977 -3.35977 0
M  V30 5380 H 511.023 -2.68737 -3.47386 0
M  V30 5381 H 511.629 -3.68158 -2.12931 0
M  V30 5382 N 509.944 0.496216 -1.49584 0
M  V30 5383 C 510.892 1.61805 -1.67098 0
M  V30 5384 C 511.886 1.60667 -0.536877 0
M  V30 5385 O 513.092 1.65118 -0.716654 0
M  V30 5386 H 509.467 0.53646 -0.526986 0
M  V30 5387 H 511.438 1.44187 -2.61252 0
M  V30 5388 C 510.187 2.99912 -1.75921 0
M  V30 5389 H 509.51 3.01496 -2.62565 0
M  V30 5390 H 510.95 3.77931 -1.92209 0
M  V30 5391 C 509.409 3.33092 -0.505088 0
M  V30 5392 O 509.939 4.00019 0.367085 0
M  V30 5393 N 508.145 2.88278 -0.366599 0
M  V30 5394 H 507.692 2.33989 -1.07735 0
M  V30 5395 H 507.65 3.10846 0.47142 0
M  V30 5396 N 511.423 1.38739 0.74761 0
M  V30 5397 C 512.67 1.35274 1.50689 0
M  V30 5398 C 512.998 -0.0553359 1.94421 0
M  V30 5399 O 512.253 -1.03365 1.66175 0
M  V30 5400 C 512.552 2.25992 2.7688 0
M  V30 5401 C 512.218 3.73854 2.5208 0
M  V30 5402 C 510.88 4.14145 2.45025 0
M  V30 5403 C 513.232 4.67427 2.30568 0
M  V30 5404 C 510.56 5.4609 2.14483 0
M  V30 5405 C 512.912 5.99635 2.01545 0
M  V30 5406 C 511.576 6.39004 1.92951 0
M  V30 5407 H 510.846 0.495003 0.55141 0
M  V30 5408 H 513.493 1.71145 0.859158 0
M  V30 5409 H 511.798 1.83196 3.46333 0
M  V30 5410 H 513.495 2.20611 3.34861 0
M  V30 5411 H 510.085 3.41913 2.58444 0
M  V30 5412 H 514.269 4.3714 2.34994 0
M  V30 5413 H 509.525 5.75528 2.06342 0
M  V30 5414 H 513.699 6.71678 1.83906 0
M  V30 5415 H 511.326 7.41165 1.6905 0
M  V30 5416 N 512.901 -0.976442 1.23707 0
M  V30 5417 C 514.178 -1.69296 0.979699 0
M  V30 5418 C 514.558 -2.0508 -0.500555 0
M  V30 5419 O 513.906 -1.74708 -1.47273 0
M  V30 5420 C 514.116 -2.93143 1.89389 0
M  V30 5421 C 515.464 -3.65572 2.15968 0
M  V30 5422 O 516.488 -3.03184 1.86971 0
M  V30 5423 O 515.347 -4.77859 2.65167 0
M  V30 5424 H 512.441 -0.739708 0.369812 0
M  V30 5425 H 514.987 -1.03131 1.34767 0
M  V30 5426 H 513.759 -2.63327 2.89439 0
M  V30 5427 H 513.382 -3.67044 1.52854 0
M  V30 5428 N 514.379 -1.04941 -1.1758 0
M  V30 5429 C 515.327 -0.64204 -2.23563 0
M  V30 5430 C 516.321 0.335453 -1.66045 0
M  V30 5431 O 517.527 0.20179 -1.78865 0
M  V30 5432 H 513.902 -0.18944 -0.727748 0
M  V30 5433 H 515.873 -1.54609 -2.55223 0
M  V30 5434 C 514.622 -0.0301051 -3.47687 0
M  V30 5435 H 513.945 -0.773339 -3.92249 0
M  V30 5436 H 515.385 0.217592 -4.23441 0
M  V30 5437 C 513.844 1.2225 -3.13937 0
M  V30 5438 O 514.374 2.3122 -3.28482 0
M  V30 5439 N 512.58 1.11917 -2.68185 0
M  V30 5440 H 512.127 0.232403 -2.5655 0
M  V30 5441 H 512.085 1.95814 -2.45976 0
M  V30 5442 N 515.857 1.33968 -0.830081 0
M  V30 5443 C 517.104 1.98063 -0.421566 0
M  V30 5444 C 517.432 1.65787 1.0171 0
M  V30 5445 O 516.687 0.925348 1.72441 0
M  V30 5446 C 516.986 3.52679 -0.57898 0
M  V30 5447 C 516.652 4.04884 -1.98443 0
M  V30 5448 C 515.314 4.18852 -2.36888 0
M  V30 5449 C 517.666 4.32879 -2.90285 0
M  V30 5450 C 514.994 4.58145 -3.66497 0
M  V30 5451 C 517.346 4.7362 -4.19364 0
M  V30 5452 C 516.01 4.85794 -4.57778 0
M  V30 5453 H 515.28 0.724765 -0.154262 0
M  V30 5454 H 517.927 1.59792 -1.05541 0
M  V30 5455 H 516.232 3.91556 0.138219 0
M  V30 5456 H 517.929 4.00261 -0.243317 0
M  V30 5457 H 514.519 3.9448 -1.67581 0
M  V30 5458 H 518.703 4.21619 -2.61823 0
M  V30 5459 H 513.959 4.65762 -3.96075 0
M  V30 5460 H 518.133 4.9424 -4.90612 0
M  V30 5461 H 515.76 5.15998 -5.58256 0
M  V30 5462 N 517.335 0.585699 1.46312 0
M  V30 5463 C 518.298 -0.135673 2.28798 0
M  V30 5464 C 519.298 -0.815988 1.38558 0
M  V30 5465 O 520.488 -0.667487 1.60904 0
M  V30 5466 C 517.62 -1.20163 3.1902 0
M  V30 5467 H 518.813 0.589257 2.94054 0
M  V30 5468 H 516.366 0.343794 1.52472 0
M  V30 5469 H 517.101 -1.95804 2.58517 0
M  V30 5470 H 516.886 -0.718282 3.85465 0
M  V30 5471 H 518.376 -1.70749 3.81096 0
M  V30 5472 N 518.813 -1.54241 0.323641 0
M  V30 5473 C 520.06 -2.0057 -0.27891 0
M  V30 5474 C 520.388 -1.21181 -1.52136 0
M  V30 5475 O 519.643 -0.282043 -1.93657 0
M  V30 5476 C 519.942 -3.5129 -0.658031 0
M  V30 5477 C 519.608 -4.48281 0.485252 0
M  V30 5478 C 518.27 -4.74519 0.799055 0
M  V30 5479 C 520.622 -5.05909 1.25322 0
M  V30 5480 C 517.95 -5.55643 1.88354 0
M  V30 5481 C 520.302 -5.88215 2.32779 0
M  V30 5482 C 518.966 -6.12755 2.64741 0
M  V30 5483 H 518.236 -0.733938 -0.10206 0
M  V30 5484 H 520.883 -1.862 0.447435 0
M  V30 5485 H 519.188 -3.63388 -1.4648 0
M  V30 5486 H 520.885 -3.84578 -1.1358 0
M  V30 5487 H 517.475 -4.27979 0.230593 0
M  V30 5488 H 521.659 -4.8562 1.02404 0
M  V30 5489 H 516.915 -5.72888 2.13564 0
M  V30 5490 H 521.089 -6.31888 2.92729 0
M  V30 5491 H 518.716 -6.75404 3.48904 0
M  V30 5492 N 520.291 -0.0518155 -1.57515 0
M  V30 5493 C 521.254 0.907547 -2.10467 0
M  V30 5494 C 522.254 1.23947 -1.02439 0
M  V30 5495 O 523.444 1.17604 -1.2851 0
M  V30 5496 C 520.576 2.21723 -2.58944 0
M  V30 5497 H 521.769 0.44851 -2.96527 0
M  V30 5498 H 519.322 0.196598 -1.55059 0
M  V30 5499 H 520.057 2.72206 -1.76279 0
M  V30 5500 H 519.842 1.98935 -3.37886 0
M  V30 5501 H 521.332 2.90441 -3.00056 0
M  V30 5502 N 521.769 1.56035 0.221574 0
M  V30 5503 C 522.702 1.87427 1.30178 0
M  V30 5504 C 523.68 0.731658 1.45209 0
M  V30 5505 O 524.864 0.980016 1.61022 0
M  V30 5506 C 521.991 2.08127 2.67209 0
M  V30 5507 C 521.037 3.30813 2.69194 0
M  V30 5508 S 521.87 4.86738 2.23263 0
M  V30 5509 C 523.026 5.10474 3.62171 0
M  V30 5510 H 523.259 2.78756 1.03355 0
M  V30 5511 H 520.792 1.48469 0.423813 0
M  V30 5512 H 522.75 2.20736 3.46101 0
M  V30 5513 H 521.411 1.17595 2.91256 0
M  V30 5514 H 520.604 3.42341 3.6989 0
M  V30 5515 H 520.206 3.1706 1.98366 0
M  V30 5516 H 522.498 4.9937 4.5786 0
M  V30 5517 H 523.441 6.12359 3.55558 0
M  V30 5518 H 523.849 4.38208 3.55857 0
M  V30 5519 N 523.247 -0.488276 1.49845 0
M  V30 5520 C 524.177 -1.59675 1.70371 0
M  V30 5521 C 525.158 -1.60878 0.552473 0
M  V30 5522 O 526.343 -1.77417 0.78973 0
M  V30 5523 C 523.473 -2.98098 1.782 0
M  V30 5524 C 522.427 -3.11761 2.93239 0
M  V30 5525 C 521.753 -4.51661 2.86193 0
M  V30 5526 C 523.053 -2.90589 4.33999 0
M  V30 5527 H 524.747 -1.42752 2.63177 0
M  V30 5528 H 522.293 -0.685317 1.26647 0
M  V30 5529 H 524.246 -3.75555 1.91144 0
M  V30 5530 H 522.97 -3.16138 0.820018 0
M  V30 5531 H 521.629 -2.36732 2.79917 0
M  V30 5532 H 521.277 -4.66595 1.87877 0
M  V30 5533 H 520.977 -4.61742 3.63412 0
M  V30 5534 H 522.501 -5.31162 3.01163 0
M  V30 5535 H 523.915 -3.57807 4.47936 0
M  V30 5536 H 522.312 -3.1213 5.12538 0
M  V30 5537 H 523.382 -1.86595 4.4756 0
M  V30 5538 N 524.725 -1.39134 -0.740242 0
M  V30 5539 C 525.953 -1.39334 -1.5295 0
M  V30 5540 C 526.368 0.0135008 -1.88795 0
M  V30 5541 O 525.725 0.983524 -1.5373 0
M  V30 5542 C 525.776 -2.2614 -2.82034 0
M  V30 5543 O 525.497 -3.61345 -2.47712 0
M  V30 5544 C 526.998 -2.34666 -3.76094 0
M  V30 5545 H 524.218 -0.476103 -0.472828 0
M  V30 5546 H 526.762 -1.82883 -0.9151 0
M  V30 5547 H 524.917 -1.86018 -3.39818 0
M  V30 5548 H 525.331 -4.07194 -3.30595 0
M  V30 5549 H 526.805 -2.99663 -4.63579 0
M  V30 5550 H 527.282 -1.36426 -4.17474 0
M  V30 5551 H 527.888 -2.75236 -3.2423 0
M  V30 5552 N 526.204 0.969867 -1.24223 0
M  V30 5553 C 527.45 1.7151 -1.08223 0
M  V30 5554 C 527.783 1.90478 0.37838 0
M  V30 5555 O 527.058 1.4647 1.27971 0
M  V30 5556 C 527.341 3.10714 -1.82013 0
M  V30 5557 C 527.194 2.9925 -3.35811 0
M  V30 5558 C 528.513 4.10332 -1.59108 0
M  V30 5559 H 525.632 0.622499 -0.394543 0
M  V30 5560 H 528.274 1.1284 -1.52863 0
M  V30 5561 H 526.424 3.608 -1.44068 0
M  V30 5562 H 528.096 2.56608 -3.83341 0
M  V30 5563 H 526.339 2.35512 -3.64303 0
M  V30 5564 H 527.01 3.97857 -3.82641 0
M  V30 5565 H 529.486 3.69097 -1.92111 0
M  V30 5566 H 528.362 5.05804 -2.13198 0
M  V30 5567 H 528.623 4.38926 -0.528832 0
M  V30 5568 N 527.682 1.05563 1.17022 0
M  V30 5569 C 528.929 0.767937 1.87374 0
M  V30 5570 C 529.257 -0.705224 1.81265 0
M  V30 5571 O 528.512 -1.5318 1.21796 0
M  V30 5572 C 528.811 1.19849 3.36706 0
M  V30 5573 C 528.477 2.6745 3.63017 0
M  V30 5574 C 527.139 3.0777 3.69907 0
M  V30 5575 C 529.491 3.62811 3.74189 0
M  V30 5576 C 526.819 4.42307 3.85463 0
M  V30 5577 C 529.171 4.97087 3.91264 0
M  V30 5578 C 527.835 5.37055 3.96394 0
M  V30 5579 H 527.105 0.281008 0.68565 0
M  V30 5580 H 529.752 1.32339 1.38415 0
M  V30 5581 H 528.057 0.562096 3.87747 0
M  V30 5582 H 529.754 0.953038 3.8951 0
M  V30 5583 H 526.344 2.35228 3.58282 0
M  V30 5584 H 530.528 3.32798 3.68183 0
M  V30 5585 H 525.784 4.72769 3.87684 0
M  V30 5586 H 529.958 5.70869 3.9885 0
M  V30 5587 H 527.585 6.41308 4.082 0
M  V30 5588 N 529.16 -1.33526 0.837174 0
M  V30 5589 C 530.092 -2.28077 0.226579 0
M  V30 5590 C 531.105 -1.51666 -0.591717 0
M  V30 5591 O 532.294 -1.73511 -0.419064 0
M  V30 5592 C 529.394 -3.31597 -0.69978 0
M  V30 5593 C 528.567 -4.37329 0.0788067 0
M  V30 5594 C 527.626 -5.20526 -0.770637 0
M  V30 5595 O 526.652 -5.68811 -0.210453 0
M  V30 5596 N 527.854 -5.41639 -2.08825 0
M  V30 5597 H 530.619 -2.81115 1.03897 0
M  V30 5598 H 528.18 -1.46201 0.695476 0
M  V30 5599 H 530.172 -3.84158 -1.27298 0
M  V30 5600 H 528.742 -2.78848 -1.41288 0
M  V30 5601 H 527.962 -3.8529 0.833381 0
M  V30 5602 H 529.25 -5.05079 0.614238 0
M  V30 5603 H 528.648 -5.04108 -2.56693 0
M  V30 5604 H 527.205 -5.97263 -2.60998 0
M  V30 5605 N 530.638 -0.59345 -1.46 0
M  V30 5606 C 531.878 -0.0859747 -2.04219 0
M  V30 5607 C 532.242 1.25432 -1.45364 0
M  V30 5608 O 533.443 1.85168 -1.9485 0
M  V30 5609 C 531.714 -0.0324314 -3.57385 0
M  V30 5610 S 533.273 0.415908 -4.36824 0
M  V30 5611 H 530.091 -0.0426872 -0.709717 0
M  V30 5612 H 532.693 -0.788369 -1.78899 0
M  V30 5613 H 531.397 -1.01166 -3.97735 0
M  V30 5614 H 530.928 0.6924 -3.87259 0
M  V30 5615 H 532.943 1.66844 -4.67309 0
M  V30 5616 N 532.116 1.54067 -0.331816 0
M  V30 5617 C 533.365 1.99895 0.269209 0
M  V30 5618 C 533.678 1.22371 1.52593 0
M  V30 5619 O 534.884 1.58618 2.20347 0
M  V30 5620 C 533.34 3.55972 0.530244 0
M  V30 5621 C 532.948 4.4234 -0.709901 0
M  V30 5622 C 534.692 4.10247 1.09077 0
M  V30 5623 C 532.599 5.89905 -0.420312 0
M  V30 5624 H 531.529 0.746741 0.104371 0
M  V30 5625 H 534.18 1.78014 -0.445324 0
M  V30 5626 H 532.562 3.73873 1.30518 0
M  V30 5627 H 533.736 4.36215 -1.48504 0
M  V30 5628 H 532.051 3.98997 -1.19123 0
M  V30 5629 H 534.648 5.18095 1.32219 0
M  V30 5630 H 534.991 3.62739 2.0427 0
M  V30 5631 H 535.524 3.96011 0.376824 0
M  V30 5632 H 532.263 6.41623 -1.34164 0
M  V30 5633 H 531.783 5.98962 0.316962 0
M  V30 5634 H 533.462 6.46991 -0.0331956 0
M  V30 5635 N 533.594 0.0601682 1.57485 0
M  V30 5636 C 534.822 -0.620937 1.97363 0
M  V30 5637 C 535.237 -1.63846 0.938082 0
M  V30 5638 O 534.594 -1.82339 -0.0766578 0
M  V30 5639 C 534.645 -1.29987 3.37321 0
M  V30 5640 O 534.366 -0.323081 4.36907 0
M  V30 5641 C 535.867 -2.06989 3.92008 0
M  V30 5642 H 533.087 -0.169135 0.649334 0
M  V30 5643 H 535.631 0.129132 2.04092 0
M  V30 5644 H 533.786 -2.0011 3.31715 0
M  V30 5645 H 534.2 -0.808754 5.18227 0
M  V30 5646 H 535.674 -2.49901 4.92192 0
M  V30 5647 H 536.151 -2.92173 3.2792 0
M  V30 5648 H 536.757 -1.41757 4.0098 0
M  V30 5649 N 535.072 -1.5615 -0.213296 0
M  V30 5650 C 536.005 -1.88115 -1.29182 0
M  V30 5651 C 536.983 -0.739348 -1.44819 0
M  V30 5652 O 538.167 -0.988541 -1.605 0
M  V30 5653 C 535.294 -2.09541 -2.66102 0
M  V30 5654 C 534.34 -3.32236 -2.67436 0
M  V30 5655 S 535.173 -4.87915 -2.20679 0
M  V30 5656 C 536.329 -5.12387 -3.59458 0
M  V30 5657 H 536.562 -2.793 -1.01876 0
M  V30 5658 H 534.095 -1.48692 -0.415934 0
M  V30 5659 H 536.053 -2.22568 -3.44925 0
M  V30 5660 H 534.714 -1.19138 -2.90628 0
M  V30 5661 H 533.907 -3.44297 -3.6807 0
M  V30 5662 H 533.509 -3.18108 -1.96681 0
M  V30 5663 H 535.801 -5.01791 -4.55205 0
M  V30 5664 H 536.744 -6.14236 -3.52306 0
M  V30 5665 H 537.152 -4.40089 -3.53528 0
M  V30 5666 N 536.55 0.480323 -1.50102 0
M  V30 5667 C 537.46 1.60547 -1.71061 0
M  V30 5668 C 538.476 1.63564 -0.593529 0
M  V30 5669 O 539.652 1.81604 -0.870751 0
M  V30 5670 C 536.717 2.96814 -1.79171 0
M  V30 5671 C 535.778 3.04259 -3.02861 0
M  V30 5672 C 535.011 4.34027 -3.10574 0
M  V30 5673 O 535.234 5.24009 -2.25323 0
M  V30 5674 O 534.168 4.46873 -4.03223 0
M  V30 5675 H 537.994 1.45788 -2.6642 0
M  V30 5676 H 535.579 0.658838 -1.34088 0
M  V30 5677 H 537.461 3.77765 -1.86738 0
M  V30 5678 H 536.136 3.11791 -0.869947 0
M  V30 5679 H 535.043 2.22419 -3.008 0
M  V30 5680 H 536.376 2.94216 -3.94586 0
M  V30 5681 N 538.028 1.39524 0.732853 0
M  V30 5682 C 539.276 1.36594 1.48951 0
M  V30 5683 C 539.597 -0.0367507 1.94965 0
M  V30 5684 O 538.867 -0.988391 1.69138 0
M  V30 5685 H 537.447 0.502673 0.552566 0
M  V30 5686 H 540.109 1.74411 0.869869 0
M  V30 5687 H 539.205 2.03 2.3706 0
M  V30 5688 N 539.506 -0.963266 1.24736 0
M  V30 5689 C 540.752 -1.71 1.10139 0
M  V30 5690 C 541.107 -1.89089 -0.35541 0
M  V30 5691 O 540.4 -1.44451 -1.25875 0
M  V30 5692 C 540.594 -3.09944 1.7796 0
M  V30 5693 C 540.423 -3.05408 3.30085 0
M  V30 5694 C 539.193 -3.09643 3.99311 0
M  V30 5695 C 541.391 -2.87241 4.26611 0
M  V30 5696 N 539.373 -2.95174 5.3828 0
M  V30 5697 C 540.744 -2.81114 5.52607 0
M  V30 5698 C 542.799 -2.71856 4.17132 0
M  V30 5699 C 541.502 -2.61174 6.70209 0
M  V30 5700 C 543.528 -2.53284 5.34417 0
M  V30 5701 C 542.89 -2.4787 6.59348 0
M  V30 5702 H 538.989 -0.634078 0.457678 0
M  V30 5703 H 541.573 -1.14169 1.57713 0
M  V30 5704 H 539.744 -3.64958 1.32893 0
M  V30 5705 H 541.476 -3.73348 1.56183 0
M  V30 5706 H 538.231 -3.18498 3.50508 0
M  V30 5707 H 538.655 -2.91168 6.11188 0
M  V30 5708 H 543.297 -2.74821 3.21299 0
M  V30 5709 H 541.015 -2.56952 7.6616 0
M  V30 5710 H 544.601 -2.42317 5.28936 0
M  V30 5711 H 543.481 -2.33685 7.48573 0
M  V30 5712 N 540.985 -1.06182 -1.16461 0
M  V30 5713 C 542.213 -0.798583 -1.90867 0
M  V30 5714 C 542.628 0.646921 -1.77371 0
M  V30 5715 O 541.985 1.44279 -1.11758 0
M  V30 5716 C 542.036 -1.18258 -3.4161 0
M  V30 5717 O 541.757 -2.57135 -3.54701 0
M  V30 5718 C 543.258 -0.946917 -4.33069 0
M  V30 5719 H 540.478 -0.289603 -0.605286 0
M  V30 5720 H 543.022 -1.41515 -1.47627 0
M  V30 5721 H 541.177 -0.610562 -3.82558 0
M  V30 5722 H 541.591 -2.72477 -4.4817 0
M  V30 5723 H 543.065 -1.26523 -5.37304 0
M  V30 5724 H 543.542 0.117406 -4.39043 0
M  V30 5725 H 544.148 -1.50326 -3.97847 0
M  V30 5726 N 542.463 1.3308 -0.844243 0
M  V30 5727 C 543.74 1.92178 -0.364261 0
M  V30 5728 C 544.12 1.76961 1.15101 0
M  V30 5729 O 543.468 1.16128 1.9679 0
M  V30 5730 C 543.678 3.393 -0.817106 0
M  V30 5731 C 545.026 4.16444 -0.828236 0
M  V30 5732 O 546.05 3.47975 -0.761062 0
M  V30 5733 O 544.909 5.38685 -0.920926 0
M  V30 5734 H 542.003 0.820411 -0.10419 0
M  V30 5735 H 544.549 1.41918 -0.930453 0
M  V30 5736 H 543.321 3.44272 -1.85991 0
M  V30 5737 H 542.944 3.96947 -0.227785 0
M  V30 5738 N 543.941 0.601185 1.45683 0
M  V30 5739 C 545.187 0.0940202 2.02582 0
M  V30 5740 C 545.52 -1.26972 1.46941 0
M  V30 5741 O 544.795 -1.83613 0.641612 0
M  V30 5742 C 545.078 0.0481715 3.60068 0
M  V30 5743 C 544.931 1.44212 4.26055 0
M  V30 5744 C 546.25 -0.642975 4.35378 0
M  V30 5745 H 543.369 0.0356404 0.736138 0
M  V30 5746 H 546.011 0.771929 1.73612 0
M  V30 5747 H 544.161 -0.529128 3.8488 0
M  V30 5748 H 545.833 2.06601 4.12449 0
M  V30 5749 H 544.076 2.00465 3.84703 0
M  V30 5750 H 544.747 1.36234 5.34925 0
M  V30 5751 H 547.223 -0.152351 4.15821 0
M  V30 5752 H 546.099 -0.644141 5.45107 0
M  V30 5753 H 546.36 -1.70785 4.0778 0
M  V30 5754 N 545.419 -1.53889 0.339982 0
M  V30 5755 C 546.349 -2.27843 -0.510856 0
M  V30 5756 C 547.33 -1.29267 -1.10563 0
M  V30 5757 O 548.515 -1.58104 -1.12768 0
M  V30 5758 C 545.645 -3.04857 -1.66372 0
M  V30 5759 C 544.599 -4.10907 -1.19746 0
M  V30 5760 C 543.925 -4.75855 -2.43857 0
M  V30 5761 C 545.225 -5.21435 -0.300501 0
M  V30 5762 H 546.919 -2.99212 0.106067 0
M  V30 5763 H 544.465 -1.43904 0.0524533 0
M  V30 5764 H 546.418 -3.5533 -2.26537 0
M  V30 5765 H 545.142 -2.31133 -2.30749 0
M  V30 5766 H 543.801 -3.61342 -0.618654 0
M  V30 5767 H 543.449 -3.9873 -3.06633 0
M  V30 5768 H 543.149 -5.47502 -2.13343 0
M  V30 5769 H 544.673 -5.2911 -3.04754 0
M  V30 5770 H 546.087 -5.67565 -0.80889 0
M  V30 5771 H 544.484 -6.00036 -0.0874076 0
M  V30 5772 H 545.554 -4.80328 0.664321 0
M  V30 5773 N 546.897 -0.0685191 -1.57451 0
M  V30 5774 C 548.127 0.609577 -1.97402 0
M  V30 5775 C 548.535 1.63882 -0.945489 0
M  V30 5776 O 547.878 1.8354 0.0766052 0
M  V30 5777 C 547.94 1.3385 -3.33653 0
M  V30 5778 C 547.604 0.463103 -4.54648 0
M  V30 5779 C 548.601 -0.277964 -5.19156 0
M  V30 5780 C 546.286 0.388941 -5.00792 0
M  V30 5781 C 548.28 -1.08145 -6.28159 0
M  V30 5782 C 545.967 -0.418217 -6.09667 0
M  V30 5783 C 546.965 -1.15208 -6.73213 0
M  V30 5784 O 546.653 -1.94594 -7.79993 0
M  V30 5785 H 546.385 0.170197 -0.654224 0
M  V30 5786 H 548.939 -0.13647 -2.04946 0
M  V30 5787 H 547.169 2.13055 -3.22714 0
M  V30 5788 H 548.858 1.90851 -3.58233 0
M  V30 5789 H 549.624 -0.230241 -4.84453 0
M  V30 5790 H 545.503 0.949769 -4.5111 0
M  V30 5791 H 549.047 -1.65476 -6.7769 0
M  V30 5792 H 544.944 -0.467515 -6.43805 0
M  V30 5793 H 545.712 -1.8699 -7.96854 0
M  V30 5794 N 548.375 1.56261 0.205012 0
M  V30 5795 C 549.621 1.81211 0.923805 0
M  V30 5796 C 549.976 0.644065 1.813 0
M  V30 5797 O 549.269 -0.361208 1.88164 0
M  V30 5798 C 549.463 3.09722 1.78345 0
M  V30 5799 C 549.292 4.38915 0.978979 0
M  V30 5800 C 548.062 5.00874 0.667332 0
M  V30 5801 C 550.26 5.13199 0.336386 0
M  V30 5802 N 548.242 6.137 -0.156814 0
M  V30 5803 C 549.613 6.19009 -0.350402 0
M  V30 5804 C 551.668 4.97266 0.251101 0
M  V30 5805 C 550.371 7.10616 -1.11434 0
M  V30 5806 C 552.397 5.89288 -0.499413 0
M  V30 5807 C 551.759 6.94536 -1.17468 0
M  V30 5808 H 547.858 0.714528 0.317764 0
M  V30 5809 H 550.442 1.93738 0.193317 0
M  V30 5810 H 548.613 2.98448 2.48563 0
M  V30 5811 H 550.345 3.22798 2.44098 0
M  V30 5812 H 547.1 4.63151 0.989366 0
M  V30 5813 H 547.524 6.74695 -0.558206 0
M  V30 5814 H 552.166 4.15935 0.758823 0
M  V30 5815 H 549.884 7.91417 -1.63353 0
M  V30 5816 H 553.47 5.79034 -0.566627 0
M  V30 5817 H 552.35 7.64513 -1.74613 0
M  V30 5818 N 549.853 -0.472356 1.50355 0
M  V30 5819 C 550.786 -1.58923 1.63764 0
M  V30 5820 C 551.764 -1.55173 0.485793 0
M  V30 5821 O 552.948 -1.74815 0.705132 0
M  V30 5822 C 550.075 -2.97497 1.61905 0
M  V30 5823 C 549.121 -3.19405 2.82635 0
M  V30 5824 S 549.954 -2.99441 4.43954 0
M  V30 5825 C 551.11 -4.40359 4.44786 0
M  V30 5826 H 551.343 -1.47309 2.58239 0
M  V30 5827 H 548.876 -0.659601 1.39602 0
M  V30 5828 H 550.834 -3.77389 1.61518 0
M  V30 5829 H 549.495 -3.06502 0.686683 0
M  V30 5830 H 548.688 -4.20636 2.77636 0
M  V30 5831 H 548.29 -2.47283 2.80583 0
M  V30 5832 H 550.582 -5.32969 4.1827 0
M  V30 5833 H 551.525 -4.50403 5.46391 0
M  V30 5834 H 551.933 -4.22378 3.74509 0
M  V30 5835 N 551.331 -1.39911 -0.725443 0
M  V30 5836 C 552.279 -1.39552 -1.86086 0
M  V30 5837 C 553.273 -0.277334 -1.67114 0
M  V30 5838 O 554.479 -0.447865 -1.74339 0
M  V30 5839 H 550.854 -0.435993 -0.612711 0
M  V30 5840 H 552.825 -2.35305 -1.83505 0
M  V30 5841 C 551.574 -1.26529 -3.2386 0
M  V30 5842 H 550.897 -2.11845 -3.3906 0
M  V30 5843 H 552.337 -1.30336 -4.03471 0
M  V30 5844 C 550.796 0.0254168 -3.3689 0
M  V30 5845 O 551.326 0.992048 -3.89257 0
M  V30 5846 N 549.532 0.0916528 -2.90455 0
M  V30 5847 H 549.079 -0.695675 -2.48028 0
M  V30 5848 H 549.037 0.954745 -2.99553 0
M  V30 5849 N 552.809 0.956637 -1.25245 0
M  V30 5850 C 554.086 1.67716 -1.00651 0
M  V30 5851 C 554.466 2.0585 0.467866 0
M  V30 5852 O 553.814 1.77029 1.44475 0
M  V30 5853 C 554.024 2.90093 -1.94028 0
M  V30 5854 C 555.372 3.6209 -2.21756 0
M  V30 5855 O 556.396 3.00171 -1.9177 0
M  V30 5856 O 555.255 4.7358 -2.72735 0
M  V30 5857 H 552.349 0.733731 -0.381533 0
M  V30 5858 H 554.895 1.00974 -1.3639 0
M  V30 5859 H 553.667 2.58689 -2.93591 0
M  V30 5860 H 553.29 3.64566 -1.58674 0
M  V30 5861 N 554.287 1.06798 1.15896 0
M  V30 5862 C 555.25 0.687328 2.18651 0
M  V30 5863 C 556.25 -0.269559 1.58524 0
M  V30 5864 O 557.44 -0.0512627 1.74125 0
M  V30 5865 C 554.572 0.0121642 3.40898 0
M  V30 5866 H 555.765 1.59701 2.53842 0
M  V30 5867 H 553.318 0.863828 1.3026 0
M  V30 5868 H 554.053 -0.910025 3.1127 0
M  V30 5869 H 553.838 0.700309 3.85795 0
M  V30 5870 H 555.328 -0.239703 4.16911 0
M  V30 5871 N 555.766 -1.3263 0.851289 0
M  V30 5872 C 556.699 -2.26952 0.238318 0
M  V30 5873 C 557.677 -1.50243 -0.621757 0
M  V30 5874 O 558.861 -1.79378 -0.579298 0
M  V30 5875 C 555.988 -3.32124 -0.664178 0
M  V30 5876 C 555.034 -4.26325 0.122067 0
M  V30 5877 S 555.867 -5.14404 1.48824 0
M  V30 5878 C 557.023 -6.231 0.591372 0
M  V30 5879 H 557.256 -2.78594 1.03791 0
M  V30 5880 H 554.789 -1.4011 0.648731 0
M  V30 5881 H 556.747 -3.93197 -1.17924 0
M  V30 5882 H 555.408 -2.79273 -1.43755 0
M  V30 5883 H 554.601 -5.00821 -0.565181 0
M  V30 5884 H 554.203 -3.69652 0.568602 0
M  V30 5885 H 556.495 -6.77187 -0.205762 0
M  V30 5886 H 557.438 -6.95936 1.30687 0
M  V30 5887 H 557.846 -5.64252 0.167206 0
M  V30 5888 N 557.244 -0.608902 -1.45362 0
M  V30 5889 C 558.492 -0.104401 -2.0183 0
M  V30 5890 C 558.813 1.27007 -1.47967 0
M  V30 5891 O 558.083 1.83924 -0.674455 0
M  V30 5892 H 556.663 -0.0356042 -0.746151 0
M  V30 5893 H 559.325 -0.790596 -1.78145 0
M  V30 5894 H 558.421 -0.0551793 -3.12051 0
M  V30 5895 N 558.722 1.53707 -0.348139 0
M  V30 5896 C 559.969 2.00988 0.246966 0
M  V30 5897 C 560.297 1.23586 1.50189 0
M  V30 5898 O 559.552 0.312817 1.93184 0
M  V30 5899 C 559.851 3.52292 0.602061 0
M  V30 5900 C 559.517 4.47453 -0.556509 0
M  V30 5901 C 558.179 4.73188 -0.874446 0
M  V30 5902 C 560.531 5.03851 -1.33354 0
M  V30 5903 C 557.859 5.52577 -1.9717 0
M  V30 5904 C 560.211 5.84437 -2.42108 0
M  V30 5905 C 558.875 6.08465 -2.74456 0
M  V30 5906 H 558.145 0.735469 0.0903712 0
M  V30 5907 H 560.792 1.85464 -0.477001 0
M  V30 5908 H 559.097 3.65672 1.40681 0
M  V30 5909 H 560.794 3.86337 1.07447 0
M  V30 5910 H 557.384 4.27558 -0.298652 0
M  V30 5911 H 561.568 4.8393 -1.10117 0
M  V30 5912 H 556.824 5.69418 -2.22651 0
M  V30 5913 H 560.998 6.27151 -3.02745 0
M  V30 5914 H 558.625 6.69768 -3.59604 0
M  V30 5915 N 560.2 0.0768682 1.57412 0
M  V30 5916 C 561.11 -0.903207 2.16516 0
M  V30 5917 C 562.126 -1.32341 1.12968 0
M  V30 5918 O 563.302 -1.39507 1.45258 0
M  V30 5919 C 560.367 -2.1508 2.71922 0
M  V30 5920 C 559.428 -1.78653 3.90361 0
M  V30 5921 C 558.661 -2.97465 4.43114 0
M  V30 5922 O 558.884 -4.11638 3.94854 0
M  V30 5923 O 557.818 -2.76987 5.3438 0
M  V30 5924 H 561.644 -0.430427 3.00634 0
M  V30 5925 H 559.229 -0.146485 1.4868 0
M  V30 5926 H 561.111 -2.8823 3.07411 0
M  V30 5927 H 559.786 -2.61446 1.9086 0
M  V30 5928 H 558.693 -1.0274 3.59716 0
M  V30 5929 H 560.026 -1.37066 4.7273 0
M  V30 5930 N 561.678 -1.56367 -0.196722 0
M  V30 5931 C 562.608 -1.97442 -1.24655 0
M  V30 5932 C 563.589 -0.846147 -1.47561 0
M  V30 5933 O 564.774 -1.11035 -1.59326 0
M  V30 5934 C 561.904 -2.31253 -2.59112 0
M  V30 5935 C 560.858 -3.46804 -2.50821 0
M  V30 5936 C 560.184 -3.66286 -3.89536 0
M  V30 5937 C 561.484 -4.8104 -2.03465 0
M  V30 5938 H 563.178 -2.85388 -0.905216 0
M  V30 5939 H 560.724 -1.37304 -0.434002 0
M  V30 5940 H 562.677 -2.58583 -3.32736 0
M  V30 5941 H 561.401 -1.40188 -2.94983 0
M  V30 5942 H 560.06 -3.19563 -1.79653 0
M  V30 5943 H 559.708 -2.72555 -4.22756 0
M  V30 5944 H 559.408 -4.4402 -3.84864 0
M  V30 5945 H 560.932 -3.9599 -4.64784 0
M  V30 5946 H 562.346 -5.07411 -2.66846 0
M  V30 5947 H 560.743 -5.62232 -2.09798 0
M  V30 5948 H 561.813 -4.74732 -0.98781 0
M  V30 5949 N 563.156 0.464375 -1.50603 0
M  V30 5950 C 564.567 1.04507 -1.5471 0
M  V30 5951 C 564.918 1.9297 -0.354542 0
M  V30 5952 O 564.043 2.09763 0.531812 0
M  V30 5953 C 564.638 1.90207 -2.80369 0
M  V30 5954 C 563.197 2.43373 -2.87135 0
M  V30 5955 C 562.344 1.21886 -2.49076 0
M  V30 5956 H 565.295 0.246716 -1.56771 0
M  V30 5957 H 565.316 2.75353 -2.62604 0
M  V30 5958 H 564.828 1.25796 -3.67147 0
M  V30 5959 H 562.929 3.11318 -2.04724 0
M  V30 5960 H 563.042 2.7802 -3.90181 0
M  V30 5961 H 561.406 1.55575 -2.01664 0
M  V30 5962 H 562.189 0.591268 -3.3817 0
M  V30 5963 N 564.634 1.40294 0.718013 0
M  V30 5964 C 565.88 1.39648 1.47885 0
M  V30 5965 C 566.235 -0.0023879 1.924 0
M  V30 5966 O 565.528 -0.972304 1.65096 0
M  V30 5967 C 565.722 2.31814 2.72024 0
M  V30 5968 C 565.551 3.80523 2.3965 0
M  V30 5969 C 564.321 4.49351 2.3111 0
M  V30 5970 C 566.519 4.72077 2.04079 0
M  V30 5971 N 564.501 5.83305 1.91385 0
M  V30 5972 C 565.872 5.94809 1.74935 0
M  V30 5973 C 567.927 4.59935 1.90694 0
M  V30 5974 C 566.63 7.06755 1.33753 0
M  V30 5975 C 568.656 5.7182 1.50915 0
M  V30 5976 C 568.018 6.93637 1.22668 0
M  V30 5977 H 564.117 0.566263 0.539324 0
M  V30 5978 H 566.701 1.75986 0.832891 0
M  V30 5979 H 564.872 1.97607 3.34374 0
M  V30 5980 H 566.604 2.22042 3.38348 0
M  V30 5981 H 563.359 4.03002 2.4877 0
M  V30 5982 H 563.783 6.54239 1.74068 0
M  V30 5983 H 568.425 3.66274 2.11194 0
M  V30 5984 H 566.143 8.00302 1.11995 0
M  V30 5985 H 569.729 5.64421 1.4114 0
M  V30 5986 H 568.609 7.78743 0.923502 0
M  V30 5987 N 566.112 -0.949982 1.2575 0
M  V30 5988 C 567.358 -1.69766 1.10938 0
M  V30 5989 C 567.691 -1.91056 -0.348028 0
M  V30 5990 O 566.966 -1.48488 -1.25625 0
M  V30 5991 C 567.249 -3.07779 1.86933 0
M  V30 5992 C 567.102 -2.9387 3.4053 0
M  V30 5993 C 568.421 -4.07749 1.65616 0
M  V30 5994 H 565.54 -0.616144 0.404396 0
M  V30 5995 H 568.182 -1.10394 1.54639 0
M  V30 5996 H 566.332 -3.58462 1.4979 0
M  V30 5997 H 568.004 -2.50476 3.87375 0
M  V30 5998 H 566.247 -2.29686 3.68004 0
M  V30 5999 H 566.918 -3.91719 3.88922 0
M  V30 6000 H 569.394 -3.65994 1.97959 0
M  V30 6001 H 568.27 -5.02348 2.21218 0
M  V30 6002 H 568.531 -4.38029 0.598595 0
M  V30 6003 N 567.59 -1.07411 -1.15328 0
M  V30 6004 C 568.82 -0.817595 -1.89734 0
M  V30 6005 C 569.228 0.63297 -1.78298 0
M  V30 6006 O 568.571 1.44594 -1.13306 0
M  V30 6007 C 568.633 -1.14748 -3.40695 0
M  V30 6008 C 568.297 -2.59876 -3.75917 0
M  V30 6009 C 569.294 -3.58122 -3.76888 0
M  V30 6010 C 566.979 -2.95469 -4.06206 0
M  V30 6011 C 568.973 -4.89996 -4.07655 0
M  V30 6012 C 566.66 -4.2754 -4.36638 0
M  V30 6013 C 567.658 -5.24614 -4.37344 0
M  V30 6014 O 567.346 -6.54312 -4.67045 0
M  V30 6015 H 567.078 -0.295175 -0.608151 0
M  V30 6016 H 569.632 -1.43409 -1.47048 0
M  V30 6017 H 567.862 -0.47395 -3.83785 0
M  V30 6018 H 569.551 -0.873397 -3.96392 0
M  V30 6019 H 570.317 -3.31966 -3.53587 0
M  V30 6020 H 566.196 -2.20558 -4.04815 0
M  V30 6021 H 569.74 -5.65759 -4.08121 0
M  V30 6022 H 565.637 -4.53449 -4.59407 0
M  V30 6023 H 566.405 -6.59473 -4.84807 0
M  V30 6024 N 569.068 1.32177 -0.85831 0
M  V30 6025 C 570.315 1.97125 -0.463484 0
M  V30 6026 C 570.643 1.67907 0.981705 0
M  V30 6027 O 569.898 0.961717 1.70439 0
M  V30 6028 C 570.197 3.51372 -0.653658 0
M  V30 6029 C 569.863 4.00584 -2.06987 0
M  V30 6030 C 568.525 4.13733 -2.4572 0
M  V30 6031 C 570.877 4.26624 -2.99402 0
M  V30 6032 C 568.205 4.50268 -3.76132 0
M  V30 6033 C 570.557 4.64618 -4.29316 0
M  V30 6034 C 569.221 4.75975 -4.67979 0
M  V30 6035 H 568.491 0.72133 -0.169601 0
M  V30 6036 H 571.138 1.57517 -1.08907 0
M  V30 6037 H 569.443 3.91761 0.0551328 0
M  V30 6038 H 571.14 3.99655 -0.328163 0
M  V30 6039 H 567.73 3.90837 -1.75911 0
M  V30 6040 H 571.914 4.1597 -2.70708 0
M  V30 6041 H 567.17 4.57256 -4.05865 0
M  V30 6042 H 571.344 4.83722 -5.00985 0
M  V30 6043 H 568.971 5.04041 -5.69076 0
M  V30 6044 N 570.547 0.616602 1.45037 0
M  V30 6045 C 571.793 0.115501 2.02471 0
M  V30 6046 C 572.126 -1.25406 1.4828 0
M  V30 6047 O 571.401 -1.82922 0.661051 0
M  V30 6048 C 571.684 0.0863588 3.59996 0
M  V30 6049 C 571.537 1.48723 4.24501 0
M  V30 6050 C 572.856 -0.596762 4.36035 0
M  V30 6051 H 569.975 0.0434461 0.735718 0
M  V30 6052 H 572.617 0.7903 1.72784 0
M  V30 6053 H 570.767 -0.488277 3.85419 0
M  V30 6054 H 572.439 2.10964 4.10234 0
M  V30 6055 H 570.682 2.04534 3.82555 0
M  V30 6056 H 571.353 1.419 5.3345 0
M  V30 6057 H 573.829 -0.10824 4.15959 0
M  V30 6058 H 572.705 -0.586289 5.4576 0
M  V30 6059 H 572.966 -1.66451 4.09569 0
M  V30 6060 N 572.025 -1.5352 0.356285 0
M  V30 6061 C 573.25 -2.06007 -0.239961 0
M  V30 6062 C 573.675 -1.22872 -1.42422 0
M  V30 6063 O 573.033 -0.245516 -1.7963 0
M  V30 6064 C 573.081 -3.5522 -0.620587 0
M  V30 6065 O 572.185 -3.74864 -1.71902 0
M  V30 6066 H 571.526 -0.662961 -0.0371377 0
M  V30 6067 H 574.056 -1.98033 0.514194 0
M  V30 6068 H 574.066 -3.98081 -0.894197 0
M  V30 6069 H 572.741 -4.15175 0.245407 0
M  V30 6070 H 571.318 -3.43904 -1.44169 0
M  V30 6071 N 573.503 -0.0852151 -1.57369 0
M  V30 6072 C 574.433 0.874556 -2.16503 0
M  V30 6073 C 575.414 1.30111 -1.09568 0
M  V30 6074 O 576.599 1.36977 -1.37662 0
M  V30 6075 C 573.729 2.13731 -2.73745 0
M  V30 6076 C 572.683 1.84971 -3.85966 0
M  V30 6077 C 572.009 3.17991 -4.29867 0
M  V30 6078 C 573.309 1.14442 -5.09608 0
M  V30 6079 H 575.003 0.381899 -2.96954 0
M  V30 6080 H 572.549 0.18225 -1.42842 0
M  V30 6081 H 574.502 2.81302 -3.13763 0
M  V30 6082 H 573.226 2.65263 -1.90534 0
M  V30 6083 H 571.885 1.19801 -3.46473 0
M  V30 6084 H 571.533 3.6739 -3.4356 0
M  V30 6085 H 571.233 2.99534 -5.05523 0
M  V30 6086 H 572.757 3.86737 -4.72511 0
M  V30 6087 H 574.171 1.72105 -5.46857 0
M  V30 6088 H 572.568 1.06197 -5.90629 0
M  V30 6089 H 573.638 0.12559 -4.84737 0
M  V30 6090 N 574.981 1.5647 0.188427 0
M  V30 6091 C 576.227 1.81281 0.909124 0
M  V30 6092 C 576.56 0.66034 1.82628 0
M  V30 6093 O 575.835 -0.338737 1.91528 0
M  V30 6094 C 576.118 3.16388 1.7196 0
M  V30 6095 C 575.971 4.42137 0.826714 0
M  V30 6096 C 577.29 3.48256 2.69083 0
M  V30 6097 H 574.409 0.659457 0.329068 0
M  V30 6098 H 577.051 1.89182 0.176156 0
M  V30 6099 H 575.201 3.09784 2.34448 0
M  V30 6100 H 576.873 4.60794 0.216025 0
M  V30 6101 H 575.116 4.33594 0.133792 0
M  V30 6102 H 575.787 5.33184 1.42893 0
M  V30 6103 H 578.263 3.55203 2.16726 0
M  V30 6104 H 577.139 4.43899 3.2287 0
M  V30 6105 H 577.4 2.72088 3.48455 0
M  V30 6106 N 576.459 -0.456382 1.50847 0
M  V30 6107 C 577.708 -1.2042 1.61808 0
M  V30 6108 C 578.021 -1.9278 0.330932 0
M  V30 6109 O 579.227 -2.69612 0.319643 0
M  V30 6110 C 577.683 -2.18891 2.85683 0
M  V30 6111 C 577.291 -1.52267 4.2133 0
M  V30 6112 C 579.035 -2.94224 3.05994 0
M  V30 6113 C 576.942 -2.4911 5.36375 0
M  V30 6114 H 575.872 -0.453177 0.602616 0
M  V30 6115 H 578.523 -0.473144 1.77295 0
M  V30 6116 H 576.905 -2.95351 2.63787 0
M  V30 6117 H 578.079 -0.814949 4.53536 0
M  V30 6118 H 576.394 -0.891594 4.06743 0
M  V30 6119 H 578.991 -3.66732 3.89117 0
M  V30 6120 H 579.334 -3.54469 2.18306 0
M  V30 6121 H 579.867 -2.24874 3.28141 0
M  V30 6122 H 576.606 -1.93582 6.26264 0
M  V30 6123 H 576.126 -3.17991 5.08569 0
M  V30 6124 H 577.805 -3.10637 5.67551 0
M  V30 6125 N 577.937 -1.40673 -0.710563 0
M  V30 6126 C 579.184 -1.39222 -1.47049 0
M  V30 6127 C 579.512 0.0037691 -1.945 0
M  V30 6128 O 578.767 0.989224 -1.68857 0
M  V30 6129 C 579.066 -2.33253 -2.70791 0
M  V30 6130 C 578.732 -3.80406 -2.42079 0
M  V30 6131 C 577.394 -4.20496 -2.33959 0
M  V30 6132 C 579.746 -4.73375 -2.18094 0
M  V30 6133 C 577.074 -5.51584 -1.99929 0
M  V30 6134 C 579.426 -6.04768 -1.85576 0
M  V30 6135 C 578.09 -6.43895 -1.75941 0
M  V30 6136 H 577.36 -0.509449 -0.538092 0
M  V30 6137 H 580.007 -1.73363 -0.81348 0
M  V30 6138 H 578.312 -1.92314 -3.41354 0
M  V30 6139 H 580.009 -2.29412 -3.28894 0
M  V30 6140 H 576.599 -3.48645 -2.49288 0
M  V30 6141 H 580.783 -4.43217 -2.23321 0
M  V30 6142 H 576.039 -5.80797 -1.91011 0
M  V30 6143 H 580.213 -6.76318 -1.66033 0
M  V30 6144 H 577.84 -7.45387 -1.4934 0
M  V30 6145 N 579.415 0.9433 -1.26252 0
M  V30 6146 C 580.663 1.68592 -1.11451 0
M  V30 6147 C 580.984 1.91957 0.343123 0
M  V30 6148 O 580.254 1.51475 1.24226 0
M  V30 6149 H 578.834 0.624789 -0.409448 0
M  V30 6150 H 581.496 1.13351 -1.58548 0
M  V30 6151 H 580.592 2.66054 -1.63162 0
M  V30 6152 N 580.893 1.08022 1.14757 0
M  V30 6153 C 582.118 0.82895 1.90114 0
M  V30 6154 C 582.543 -0.612772 1.77839 0
M  V30 6155 O 581.901 -1.42895 1.11583 0
M  V30 6156 C 581.949 1.25062 3.38219 0
M  V30 6157 O 581.053 0.400119 4.10454 0
M  V30 6158 H 580.394 0.301412 0.591648 0
M  V30 6159 H 582.924 1.44062 1.45284 0
M  V30 6160 H 582.934 1.22977 3.89025 0
M  V30 6161 H 581.609 2.30067 3.46471 0
M  V30 6162 H 580.186 0.484052 3.69745 0
M  V30 6163 N 582.371 -1.3172 0.865308 0
M  V30 6164 C 583.618 -1.96876 0.473931 0
M  V30 6165 C 583.946 -1.68425 -0.972786 0
M  V30 6166 O 583.201 -0.970742 -1.69927 0
M  V30 6167 C 583.5 -3.5102 0.672283 0
M  V30 6168 C 583.166 -3.9948 2.09108 0
M  V30 6169 C 581.828 -4.12425 2.4791 0
M  V30 6170 C 584.18 -4.2503 3.0166 0
M  V30 6171 C 581.508 -4.48267 3.78515 0
M  V30 6172 C 583.86 -4.62335 4.31774 0
M  V30 6173 C 582.524 -4.73486 4.70497 0
M  V30 6174 H 581.794 -0.72042 0.173424 0
M  V30 6175 H 584.441 -1.56937 1.0974 0
M  V30 6176 H 582.746 -3.91785 -0.034356 0
M  V30 6177 H 584.443 -3.99475 0.349353 0
M  V30 6178 H 581.033 -3.89898 1.77981 0
M  V30 6179 H 585.217 -4.14529 2.7291 0
M  V30 6180 H 580.473 -4.55097 4.08285 0
M  V30 6181 H 584.647 -4.81058 5.03543 0
M  V30 6182 H 582.274 -5.01016 5.71741 0
M  V30 6183 N 583.85 -0.624285 -1.44708 0
M  V30 6184 C 585.096 -0.126051 -2.02107 0
M  V30 6185 C 585.425 1.2496 -1.49048 0
M  V30 6186 O 584.68 1.84163 -0.662005 0
M  V30 6187 C 584.979 -0.0546353 -3.57358 0
M  V30 6188 C 584.644 -1.36815 -4.29642 0
M  V30 6189 C 583.307 -1.72792 -4.49106 0
M  V30 6190 C 585.659 -2.23549 -4.70824 0
M  V30 6191 C 582.986 -2.95222 -5.07012 0
M  V30 6192 C 585.339 -3.45243 -5.30085 0
M  V30 6193 C 584.003 -3.81452 -5.47769 0
M  V30 6194 H 583.273 -0.0461252 -0.739563 0
M  V30 6195 H 585.92 -0.809236 -1.73562 0
M  V30 6196 H 584.225 0.711891 -3.85278 0
M  V30 6197 H 585.922 0.347282 -3.99493 0
M  V30 6198 H 582.512 -1.07817 -4.14817 0
M  V30 6199 H 586.696 -1.9705 -4.55505 0
M  V30 6200 H 581.952 -3.23361 -5.18891 0
M  V30 6201 H 586.125 -4.12689 -5.60946 0
M  V30 6202 H 583.753 -4.76403 -5.92405 0
M  V30 6203 N 585.328 1.53329 -0.364422 0
M  V30 6204 C 586.574 2.01537 0.225969 0
M  V30 6205 C 586.907 1.25128 1.48515 0
M  V30 6206 O 586.182 0.344653 1.91422 0
M  V30 6207 C 586.465 3.56339 0.519092 0
M  V30 6208 C 586.318 4.43441 -0.753639 0
M  V30 6209 C 587.637 4.19833 1.32015 0
M  V30 6210 H 584.756 0.732573 0.0806548 0
M  V30 6211 H 587.398 1.83597 -0.489084 0
M  V30 6212 H 585.548 3.71756 1.12825 0
M  V30 6213 H 587.22 4.39823 -1.39116 0
M  V30 6214 H 585.463 4.11457 -1.37424 0
M  V30 6215 H 586.134 5.49699 -0.503517 0
M  V30 6216 H 588.61 4.08242 0.804859 0
M  V30 6217 H 587.486 5.28177 1.49399 0
M  V30 6218 H 587.747 3.75821 2.32832 0
M  V30 6219 N 586.806 0.0935595 1.57322 0
M  V30 6220 C 587.736 -0.863062 2.16964 0
M  V30 6221 C 588.717 -1.29528 1.10256 0
M  V30 6222 O 589.902 -1.36245 1.38387 0
M  V30 6223 C 587.032 -2.12276 2.74875 0
M  V30 6224 C 585.986 -1.82921 3.86942 0
M  V30 6225 C 585.312 -3.15707 4.31548 0
M  V30 6226 C 586.612 -1.11737 5.10208 0
M  V30 6227 H 588.306 -0.366145 2.97153 0
M  V30 6228 H 585.852 -0.174673 1.42937 0
M  V30 6229 H 587.805 -2.79634 3.1525 0
M  V30 6230 H 586.529 -2.64248 1.91938 0
M  V30 6231 H 585.188 -1.17961 3.47103 0
M  V30 6232 H 584.836 -3.65563 3.45504 0
M  V30 6233 H 584.536 -2.96849 5.07104 0
M  V30 6234 H 586.06 -3.84226 4.74555 0
M  V30 6235 H 587.474 -1.69203 5.47762 0
M  V30 6236 H 585.871 -1.03064 5.91183 0
M  V30 6237 H 586.941 -0.0998818 4.84797 0
M  V30 6238 N 588.284 -1.56567 -0.180126 0
M  V30 6239 C 589.232 -1.96632 -1.24251 0
M  V30 6240 C 590.226 -0.853818 -1.46309 0
M  V30 6241 O 591.432 -1.0389 -1.46993 0
M  V30 6242 H 587.807 -0.625476 -0.417473 0
M  V30 6243 H 589.778 -2.85201 -0.877679 0
M  V30 6244 C 588.527 -2.33486 -2.57642 0
M  V30 6245 H 587.85 -3.18626 -2.4149 0
M  V30 6246 H 589.29 -2.65371 -3.30688 0
M  V30 6247 C 587.749 -1.17499 -3.15746 0
M  V30 6248 O 588.279 -0.457956 -3.99081 0
M  V30 6249 N 586.485 -0.94786 -2.74707 0
M  V30 6250 H 586.032 -1.53269 -2.07042 0
M  V30 6251 H 585.99 -0.173626 -3.1392 0
M  V30 6252 N 589.762 0.448376 -1.51087 0
M  V30 6253 C 590.692 1.55102 -1.74544 0
M  V30 6254 C 591.673 1.59357 -0.594932 0
M  V30 6255 O 592.858 1.75261 -0.836491 0
M  V30 6256 C 589.988 2.93268 -1.86041 0
M  V30 6257 C 588.942 3.03877 -3.01402 0
M  V30 6258 C 588.268 4.43914 -2.98068 0
M  V30 6259 C 589.568 2.7898 -4.41551 0
M  V30 6260 H 591.262 1.35724 -2.66869 0
M  V30 6261 H 588.808 0.651498 -1.28419 0
M  V30 6262 H 590.761 3.70356 -2.01034 0
M  V30 6263 H 589.485 3.13853 -0.903548 0
M  V30 6264 H 588.144 2.29227 -2.86096 0
M  V30 6265 H 587.792 4.6145 -2.00182 0
M  V30 6266 H 587.492 4.51944 -3.75527 0
M  V30 6267 H 589.016 5.22991 -3.1514 0
M  V30 6268 H 590.43 3.45805 -4.57265 0
M  V30 6269 H 588.827 2.98431 -5.20633 0
M  V30 6270 H 589.897 1.74663 -4.5235 0
M  V30 6271 N 591.24 1.41047 0.703093 0
M  V30 6272 C 592.486 1.40207 1.46526 0
M  V30 6273 C 592.819 0.00847763 1.94198 0
M  V30 6274 O 592.094 -0.962437 1.69019 0
M  V30 6275 C 592.377 2.40238 2.6825 0
M  V30 6276 C 592.23 3.88674 2.26391 0
M  V30 6277 C 593.549 2.37627 3.70434 0
M  V30 6278 H 590.668 0.510594 0.531472 0
M  V30 6279 H 593.31 1.72271 0.801422 0
M  V30 6280 H 591.46 2.13026 3.24888 0
M  V30 6281 H 593.132 4.2676 1.75138 0
M  V30 6282 H 591.375 4.03903 1.58255 0
M  V30 6283 H 592.046 4.542 3.13698 0
M  V30 6284 H 594.522 2.61759 3.23452 0
M  V30 6285 H 593.398 3.09645 4.53223 0
M  V30 6286 H 593.659 1.39223 4.19606 0
M  V30 6287 N 592.718 -0.936591 1.26751 0
M  V30 6288 C 593.648 -2.05315 1.11212 0
M  V30 6289 C 594.629 -1.70092 0.0160262 0
M  V30 6290 O 595.814 -1.93279 0.188894 0
M  V30 6291 C 592.944 -3.39123 0.749171 0
M  V30 6292 C 591.898 -3.88425 1.79751 0
M  V30 6293 C 591.224 -5.18936 1.28876 0
M  V30 6294 C 592.524 -4.12798 3.19992 0
M  V30 6295 H 594.218 -2.18573 2.04613 0
M  V30 6296 H 591.764 -1.05027 0.985159 0
M  V30 6297 H 593.717 -4.16704 0.627323 0
M  V30 6298 H 592.441 -3.25855 -0.220543 0
M  V30 6299 H 591.1 -3.13028 1.90811 0
M  V30 6300 H 590.748 -5.02051 0.308757 0
M  V30 6301 H 590.448 -5.52892 1.98958 0
M  V30 6302 H 591.972 -5.99096 1.17967 0
M  V30 6303 H 593.386 -4.80977 3.11983 0
M  V30 6304 H 591.783 -4.58044 3.87705 0
M  V30 6305 H 592.853 -3.18412 3.65707 0
M  V30 6306 N 594.196 -1.08629 -1.14182 0
M  V30 6307 C 595.444 -0.815731 -1.84906 0
M  V30 6308 C 595.765 0.660441 -1.83475 0
M  V30 6309 O 595.035 1.47888 -1.28476 0
M  V30 6310 H 593.615 -0.298773 -0.684648 0
M  V30 6311 H 596.277 -1.37274 -1.38354 0
M  V30 6312 H 595.373 -1.16193 -2.89665 0
M  V30 6313 N 595.674 1.31259 -0.872281 0
M  V30 6314 C 596.92 1.96913 -0.485083 0
M  V30 6315 C 597.253 1.68774 0.960667 0
M  V30 6316 O 596.528 0.985495 1.67685 0
M  V30 6317 C 596.811 3.52299 -0.745502 0
M  V30 6318 C 596.664 3.90002 -2.24095 0
M  V30 6319 C 597.983 4.39582 -0.213516 0
M  V30 6320 H 595.102 0.715252 -0.177716 0
M  V30 6321 H 597.744 1.55347 -1.09395 0
M  V30 6322 H 595.894 3.87835 -0.227276 0
M  V30 6323 H 597.566 3.64555 -2.82661 0
M  V30 6324 H 595.809 3.38526 -2.71261 0
M  V30 6325 H 596.48 4.98352 -2.37381 0
M  V30 6326 H 598.956 4.10882 -0.656902 0
M  V30 6327 H 597.832 5.47251 -0.42516 0
M  V30 6328 H 598.093 4.33158 0.884666 0
M  V30 6329 N 597.152 0.631951 1.44375 0
M  V30 6330 C 598.082 -0.0593243 2.33425 0
M  V30 6331 C 599.063 -0.833964 1.48253 0
M  V30 6332 O 600.248 -0.799682 1.76971 0
M  V30 6333 C 597.378 -1.04096 3.31333 0
M  V30 6334 C 596.332 -0.377899 4.26328 0
M  V30 6335 C 595.658 -1.4695 5.14111 0
M  V30 6336 C 596.958 0.716371 5.17364 0
M  V30 6337 H 598.652 0.684287 2.91475 0
M  V30 6338 H 596.198 0.330518 1.40156 0
M  V30 6339 H 598.151 -1.53331 3.92514 0
M  V30 6340 H 596.875 -1.81547 2.71493 0
M  V30 6341 H 595.534 0.0938054 3.6648 0
M  V30 6342 H 595.182 -2.2349 4.50623 0
M  V30 6343 H 594.882 -1.03121 5.78481 0
M  V30 6344 H 596.406 -1.96363 5.78164 0
M  V30 6345 H 597.82 0.307089 5.72477 0
M  V30 6346 H 596.217 1.07784 5.90341 0
M  V30 6347 H 597.287 1.58316 4.58327 0
M  V30 6348 N 598.631 -1.53133 0.372548 0
M  V30 6349 C 599.856 -2.0625 -0.218098 0
M  V30 6350 C 600.281 -1.24375 -1.41111 0
M  V30 6351 O 599.639 -0.264554 -1.79359 0
M  V30 6352 C 599.687 -3.55858 -0.582876 0
M  V30 6353 O 598.791 -3.76667 -1.67917 0
M  V30 6354 H 598.132 -0.663317 -0.030104 0
M  V30 6355 H 600.662 -1.97477 0.535169 0
M  V30 6356 H 600.672 -3.99007 -0.851925 0
M  V30 6357 H 599.347 -4.14892 0.289428 0
M  V30 6358 H 597.924 -3.45413 -1.40513 0
M  V30 6359 N 600.109 -0.101901 -1.5727 0
M  V30 6360 C 601.357 0.559091 -1.94213 0
M  V30 6361 C 601.678 1.68297 -0.984948 0
M  V30 6362 O 600.948 1.95863 -0.0381975 0
M  V30 6363 H 599.528 0.20952 -0.717015 0
M  V30 6364 H 602.19 -0.166831 -1.94185 0
M  V30 6365 H 601.286 0.96485 -2.96811 0
M  V30 6366 N 601.587 1.56661 0.17182 0
M  V30 6367 C 602.497 1.99604 1.2327 0
M  V30 6368 C 603.513 0.907333 1.4847 0
M  V30 6369 O 604.689 1.21492 1.60629 0
M  V30 6370 C 601.754 2.34685 2.55194 0
M  V30 6371 C 600.815 3.57381 2.3786 0
M  V30 6372 C 600.048 3.90779 3.63494 0
M  V30 6373 O 600.271 3.25152 4.6865 0
M  V30 6374 O 599.205 4.84129 3.57634 0
M  V30 6375 H 603.031 2.90114 0.898192 0
M  V30 6376 H 600.616 1.44522 0.378647 0
M  V30 6377 H 602.498 2.5822 3.33017 0
M  V30 6378 H 601.173 1.47336 2.88225 0
M  V30 6379 H 600.08 3.39064 1.5807 0
M  V30 6380 H 601.413 4.45268 2.09754 0
M  V30 6381 N 603.065 -0.440357 1.51323 0
M  V30 6382 C 604.312 -1.19004 1.63842 0
M  V30 6383 C 604.64 -1.91266 0.35321 0
M  V30 6384 O 603.895 -1.84143 -0.662565 0
M  V30 6385 C 604.194 -2.2339 2.78984 0
M  V30 6386 C 603.86 -1.68162 4.18369 0
M  V30 6387 C 602.522 -1.52823 4.56288 0
M  V30 6388 C 604.874 -1.27524 5.05358 0
M  V30 6389 C 602.202 -0.953157 5.78906 0
M  V30 6390 C 604.554 -0.714474 6.28552 0
M  V30 6391 C 603.218 -0.547961 6.65247 0
M  V30 6392 H 602.488 -0.435468 0.59954 0
M  V30 6393 H 605.135 -0.481538 1.85347 0
M  V30 6394 H 603.44 -3.00267 2.51688 0
M  V30 6395 H 605.137 -2.81211 2.85869 0
M  V30 6396 H 601.727 -1.81077 3.8847 0
M  V30 6397 H 605.911 -1.38197 4.76671 0
M  V30 6398 H 601.167 -0.811882 6.05986 0
M  V30 6399 H 605.341 -0.391059 6.95301 0
M  V30 6400 H 602.968 -0.100222 7.60134 0
M  V30 6401 N 604.543 -1.41418 -0.695603 0
M  V30 6402 C 605.768 -1.44329 -1.48942 0
M  V30 6403 C 606.193 -0.0501579 -1.88033 0
M  V30 6404 O 605.551 0.946598 -1.54626 0
M  V30 6405 C 605.599 -2.3578 -2.72837 0
M  V30 6406 O 604.703 -1.81482 -3.70322 0
M  V30 6407 H 604.044 -0.489838 -0.44828 0
M  V30 6408 H 606.574 -1.85878 -0.855014 0
M  V30 6409 H 606.584 -2.51654 -3.21145 0
M  V30 6410 H 605.259 -3.37005 -2.43722 0
M  V30 6411 H 603.836 -1.75058 -3.29255 0
M  V30 6412 N 606.021 0.929856 -1.27246 0
M  V30 6413 C 606.968 2.03017 -1.09785 0
M  V30 6414 C 607.938 1.661 0.000456744 0
M  V30 6415 O 609.123 1.90116 -0.161462 0
M  V30 6416 C 606.263 3.36878 -0.748816 0
M  V30 6417 C 605.376 3.86763 -1.92453 0
M  V30 6418 C 604.511 5.09061 -1.51758 0
M  V30 6419 C 603.55 5.51237 -2.66091 0
M  V30 6420 N 602.687 6.64732 -2.25999 0
M  V30 6421 H 607.527 2.17285 -2.03939 0
M  V30 6422 H 605.064 1.06448 -1.01524 0
M  V30 6423 H 607.022 4.13855 -0.527283 0
M  V30 6424 H 605.652 3.22424 0.155771 0
M  V30 6425 H 604.704 3.06086 -2.25867 0
M  V30 6426 H 606.016 4.13994 -2.78227 0
M  V30 6427 H 605.17 5.93532 -1.25716 0
M  V30 6428 H 603.909 4.83602 -0.630896 0
M  V30 6429 H 602.914 4.65316 -2.92849 0
M  V30 6430 H 604.139 5.78692 -3.55377 0
M  V30 6431 H 602.085 6.40935 -1.3978 0
M  V30 6432 H 602.002 6.91607 -3.05313 0
M  V30 6433 H 603.27 7.52549 -2.03199 0
M  V30 6434 N 607.499 1.09233 1.13605 0
M  V30 6435 C 608.409 0.741939 2.22559 0
M  V30 6436 C 609.425 -0.255236 1.72118 0
M  V30 6437 O 610.601 -0.0970747 2.01166 0
M  V30 6438 C 607.666 0.165595 3.46304 0
M  V30 6439 C 606.727 1.21846 4.11645 0
M  V30 6440 C 605.96 0.669526 5.29484 0
M  V30 6441 O 606.183 -0.508228 5.68131 0
M  V30 6442 O 605.117 1.42361 5.84822 0
M  V30 6443 H 608.943 1.65107 2.54899 0
M  V30 6444 H 606.528 0.866584 1.21699 0
M  V30 6445 H 608.41 -0.152592 4.21124 0
M  V30 6446 H 607.085 -0.716573 3.15669 0
M  V30 6447 H 605.992 1.58931 3.38662 0
M  V30 6448 H 607.325 2.07321 4.46407 0
M  V30 6449 N 608.977 -1.30795 0.87923 0
M  V30 6450 C 610.393 -1.48981 0.57243 0
M  V30 6451 C 610.593 -1.80719 -0.891236 0
M  V30 6452 O 609.649 -1.89136 -1.67283 0
M  V30 6453 C 610.962 -2.61721 1.48063 0
M  V30 6454 C 612.51 -2.75603 1.48365 0
M  V30 6455 C 612.985 -3.91449 2.37763 0
M  V30 6456 N 614.476 -3.98751 2.35695 0
M  V30 6457 C 615.211 -4.87684 3.01583 0
M  V30 6458 N 614.707 -5.81454 3.76674 0
M  V30 6459 N 616.5 -4.81005 2.90844 0
M  V30 6460 H 608.651 -1.08465 1.82617 0
M  V30 6461 H 610.914 -0.536813 0.781368 0
M  V30 6462 H 610.62 -2.45073 2.52254 0
M  V30 6463 H 610.494 -3.58071 1.18596 0
M  V30 6464 H 612.881 -2.9166 0.44927 0
M  V30 6465 H 612.962 -1.79891 1.81859 0
M  V30 6466 H 612.606 -3.76149 3.41283 0
M  V30 6467 H 612.536 -4.86487 2.01589 0
M  V30 6468 H 615.027 -3.31668 1.81121 0
M  V30 6469 H 615.34 -6.46063 4.24054 0
M  V30 6470 H 613.685 -5.81403 3.80782 0
M  V30 6471 H 616.876 -4.06728 2.31711 0
M  V30 6472 H 617.049 -5.50107 3.42471 0
M  V30 6473 N 610.455 -0.639598 -1.44038 0
M  V30 6474 C 611.365 0.0612377 -2.3452 0
M  V30 6475 C 612.381 0.826717 -1.53106 0
M  V30 6476 O 613.557 0.777059 -1.85806 0
M  V30 6477 C 610.622 1.02492 -3.31204 0
M  V30 6478 C 609.683 0.25788 -4.28525 0
M  V30 6479 C 608.916 1.17566 -5.2059 0
M  V30 6480 O 609.139 2.41461 -5.16771 0
M  V30 6481 O 608.073 0.655407 -5.98321 0
M  V30 6482 H 611.899 -0.68318 -2.95916 0
M  V30 6483 H 609.484 -0.399784 -1.43952 0
M  V30 6484 H 611.366 1.57911 -3.90694 0
M  V30 6485 H 610.041 1.7498 -2.7233 0
M  V30 6486 H 608.948 -0.339566 -3.72556 0
M  V30 6487 H 610.281 -0.427154 -4.90343 0
M  V30 6488 N 611.933 1.52934 -0.380664 0
M  V30 6489 C 612.88 2.26197 0.458641 0
M  V30 6490 C 613.85 1.27462 1.06502 0
M  V30 6491 O 615.035 1.56274 1.09467 0
M  V30 6492 C 612.175 3.06571 1.58456 0
M  V30 6493 C 611.288 4.20222 1.00189 0
M  V30 6494 C 610.423 4.88007 2.09815 0
M  V30 6495 C 609.462 5.93665 1.49092 0
M  V30 6496 N 608.599 6.55081 2.52613 0
M  V30 6497 H 613.439 2.975 -0.172595 0
M  V30 6498 H 610.976 1.4678 -0.0969426 0
M  V30 6499 H 612.934 3.51455 2.24801 0
M  V30 6500 H 611.564 2.37494 2.18624 0
M  V30 6501 H 610.616 3.79714 0.228292 0
M  V30 6502 H 611.928 4.96102 0.518064 0
M  V30 6503 H 611.082 5.36151 2.83948 0
M  V30 6504 H 609.821 4.11632 2.61555 0
M  V30 6505 H 608.826 5.44868 0.7348 0
M  V30 6506 H 610.051 6.71969 0.981582 0
M  V30 6507 H 607.997 5.8155 3.03538 0
M  V30 6508 H 607.914 7.26548 2.08961 0
M  V30 6509 H 609.182 7.07871 3.26402 0
M  V30 6510 N 613.412 0.11024 1.57214 0
M  V30 6511 C 614.375 -0.828808 2.1369 0
M  V30 6512 C 615.375 -1.20059 1.06969 0
M  V30 6513 O 616.565 -1.12754 1.32786 0
M  V30 6514 C 613.697 -2.11959 2.66994 0
M  V30 6515 H 614.89 -0.338146 2.97988 0
M  V30 6516 H 612.443 -0.138913 1.55681 0
M  V30 6517 H 613.178 -2.65476 1.8626 0
M  V30 6518 H 612.963 -1.86258 3.45037 0
M  V30 6519 H 614.453 -2.79105 3.10629 0
M  V30 6520 N 614.89 -1.56749 -0.16351 0
M  V30 6521 C 615.837 -1.97011 -1.2023 0
M  V30 6522 C 616.807 -0.835186 -1.43575 0
M  V30 6523 O 617.992 -1.09594 -1.56185 0
M  V30 6524 C 615.132 -2.34186 -2.53478 0
M  V30 6525 C 614.245 -3.60893 -2.37446 0
M  V30 6526 C 613.38 -3.87245 -3.63614 0
M  V30 6527 C 612.419 -5.07274 -3.42548 0
M  V30 6528 N 611.556 -5.29719 -4.60806 0
M  V30 6529 H 616.396 -2.85562 -0.851958 0
M  V30 6530 H 613.933 -1.41292 -0.409257 0
M  V30 6531 H 615.891 -2.53764 -3.31149 0
M  V30 6532 H 614.521 -1.48736 -2.86492 0
M  V30 6533 H 613.573 -3.49185 -1.50911 0
M  V30 6534 H 614.885 -4.48722 -2.1783 0
M  V30 6535 H 614.039 -4.07232 -4.49719 0
M  V30 6536 H 612.778 -2.97806 -3.86216 0
M  V30 6537 H 611.783 -4.87177 -2.5483 0
M  V30 6538 H 613.008 -5.98251 -3.2136 0
M  V30 6539 H 610.954 -4.43233 -4.83612 0
M  V30 6540 H 610.871 -6.11786 -4.44132 0
M  V30 6541 H 612.139 -5.54192 -5.48171 0
M  V30 6542 N 616.368 0.432326 -1.51554 0
M  V30 6543 C 617.331 1.50765 -1.72634 0
M  V30 6544 C 618.331 1.49334 -0.596314 0
M  V30 6545 O 619.521 1.51268 -0.863925 0
M  V30 6546 C 616.653 2.90284 -1.7874 0
M  V30 6547 H 617.846 1.33377 -2.68609 0
M  V30 6548 H 615.399 0.661329 -1.4162 0
M  V30 6549 H 616.134 3.13071 -0.845977 0
M  V30 6550 H 615.919 2.92727 -2.6087 0
M  V30 6551 H 617.409 3.68282 -1.96871 0
M  V30 6552 N 617.846 1.41785 0.688094 0
M  V30 6553 C 619.262 1.24419 0.999608 0
M  V30 6554 C 619.462 0.138868 2.01021 0
M  V30 6555 O 618.518 -0.494283 2.47615 0
M  V30 6556 C 619.831 2.59625 1.51709 0
M  V30 6557 C 621.379 2.66869 1.63554 0
M  V30 6558 C 621.854 4.0241 2.18702 0
M  V30 6559 N 623.345 4.04295 2.26053 0
M  V30 6560 C 624.08 5.05977 2.69768 0
M  V30 6561 N 623.576 6.18047 3.13033 0
M  V30 6562 N 625.369 4.93336 2.69398 0
M  V30 6563 H 617.52 2.12392 0.0187427 0
M  V30 6564 H 619.783 0.945347 0.0708673 0
M  V30 6565 H 619.489 3.41297 0.849059 0
M  V30 6566 H 619.363 2.82628 2.49803 0
M  V30 6567 H 621.75 1.8555 2.29467 0
M  V30 6568 H 621.831 2.47668 0.639857 0
M  V30 6569 H 621.475 4.8418 1.53402 0
M  V30 6570 H 621.405 4.18955 3.19037 0
M  V30 6571 H 623.896 3.23383 1.9553 0
M  V30 6572 H 624.209 6.91498 3.45038 0
M  V30 6573 H 622.554 6.21572 3.10923 0
M  V30 6574 H 625.745 4.04865 2.34952 0
M  V30 6575 H 625.918 5.72717 3.03148 0
M  V30 6576 N 619.324 -0.923095 1.27737 0
M  V30 6577 C 620.572 -1.66797 1.14119 0
M  V30 6578 C 620.893 -1.92479 -0.312541 0
M  V30 6579 O 620.163 -1.53432 -1.218 0
M  V30 6580 H 618.743 -0.618196 0.419336 0
M  V30 6581 H 621.405 -1.10815 1.60331 0
M  V30 6582 H 620.501 -2.63424 1.67374 0
M  V30 6583 N 620.802 -1.09834 -1.13024 0
M  V30 6584 C 622.079 -0.749225 -1.80682 0
M  V30 6585 C 622.459 0.765171 -1.96744 0
M  V30 6586 O 621.807 1.68912 -1.53886 0
M  V30 6587 C 622.017 -1.49311 -3.15448 0
M  V30 6588 C 623.365 -1.66162 -3.90737 0
M  V30 6589 O 624.389 -1.45597 -3.25085 0
M  V30 6590 O 623.248 -2.00211 -5.08505 0
M  V30 6591 H 620.342 -0.269614 -0.781817 0
M  V30 6592 H 622.888 -1.20078 -1.19914 0
M  V30 6593 H 621.66 -2.52407 -2.99009 0
M  V30 6594 H 621.283 -1.034 -3.8392 0
M  V30 6595 N 622.28 1.30327 -0.886154 0
M  V30 6596 C 623.527 1.96097 -0.505192 0
M  V30 6597 C 623.855 1.69952 0.945868 0
M  V30 6598 O 623.11 0.997653 1.68361 0
M  V30 6599 C 623.409 3.49906 -0.728042 0
M  V30 6600 C 623.075 3.96103 -2.15437 0
M  V30 6601 C 621.737 4.08428 -2.5444 0
M  V30 6602 C 624.089 4.20177 -3.08384 0
M  V30 6603 C 621.417 4.42189 -3.85598 0
M  V30 6604 C 623.769 4.55407 -4.39075 0
M  V30 6605 C 622.433 4.65941 -4.7797 0
M  V30 6606 H 621.703 0.71757 -0.184863 0
M  V30 6607 H 624.35 1.55171 -1.12223 0
M  V30 6608 H 622.655 3.9179 -0.027978 0
M  V30 6609 H 624.352 3.98869 -0.412862 0
M  V30 6610 H 620.942 3.87017 -1.84162 0
M  V30 6611 H 625.126 4.10134 -2.7947 0
M  V30 6612 H 620.382 4.48544 -4.15473 0
M  V30 6613 H 624.556 4.72986 -5.11133 0
M  V30 6614 H 622.183 4.91856 -5.79639 0
M  V30 6615 N 623.758 0.647228 1.43697 0
M  V30 6616 C 624.69 -0.0866232 2.29036 0
M  V30 6617 C 625.703 -0.793051 1.42178 0
M  V30 6618 O 626.892 -0.651807 1.66174 0
M  V30 6619 C 623.992 -1.14552 3.18953 0
M  V30 6620 C 623.165 -0.518422 4.34317 0
M  V30 6621 C 622.224 -1.4734 5.05151 0
M  V30 6622 O 621.25 -0.984312 5.60625 0
M  V30 6623 N 622.452 -2.8075 5.08094 0
M  V30 6624 H 625.217 0.645834 2.92659 0
M  V30 6625 H 622.778 0.489567 1.54321 0
M  V30 6626 H 624.77 -1.78505 3.63205 0
M  V30 6627 H 623.34 -1.78001 2.56971 0
M  V30 6628 H 622.56 0.300079 3.93056 0
M  V30 6629 H 623.848 -0.080401 5.08736 0
M  V30 6630 H 623.246 -3.23052 4.64386 0
M  V30 6631 H 621.803 -3.40022 5.56083 0
M  V30 6632 N 625.236 -1.5273 0.388769 0
M  V30 6633 C 626.183 -2.26437 -0.446639 0
M  V30 6634 C 627.153 -1.28025 -1.05824 0
M  V30 6635 O 628.338 -1.56852 -1.08637 0
M  V30 6636 C 625.478 -3.07407 -1.56828 0
M  V30 6637 C 624.591 -4.20747 -0.979589 0
M  V30 6638 C 623.726 -4.89113 -2.07224 0
M  V30 6639 C 622.765 -5.94447 -1.45942 0
M  V30 6640 N 621.902 -6.56411 -2.49135 0
M  V30 6641 H 626.742 -2.97404 0.18837 0
M  V30 6642 H 624.279 -1.46727 0.104725 0
M  V30 6643 H 626.237 -3.52642 -2.22934 0
M  V30 6644 H 624.867 -2.3865 -2.17361 0
M  V30 6645 H 623.919 -3.7983 -0.208151 0
M  V30 6646 H 625.231 -4.9637 -0.491747 0
M  V30 6647 H 624.385 -5.3765 -2.81101 0
M  V30 6648 H 623.124 -4.13013 -2.59368 0
M  V30 6649 H 622.129 -5.4525 -0.705894 0
M  V30 6650 H 623.354 -6.7248 -0.945932 0
M  V30 6651 H 621.3 -5.83152 -3.00449 0
M  V30 6652 H 621.217 -7.27645 -2.05105 0
M  V30 6653 H 622.485 -7.09592 -3.22644 0
M  V30 6654 N 626.714 -0.118576 -1.57153 0
M  V30 6655 C 627.644 0.828436 -2.1831 0
M  V30 6656 C 628.625 1.27758 -1.12303 0
M  V30 6657 O 629.81 1.34026 -1.40537 0
M  V30 6658 C 626.94 2.07876 -2.78217 0
M  V30 6659 C 625.894 1.76742 -3.89803 0
M  V30 6660 C 625.22 3.08801 -4.36516 0
M  V30 6661 C 626.52 1.03606 -5.11921 0
M  V30 6662 H 628.214 0.318824 -2.97698 0
M  V30 6663 H 625.76 0.151911 -1.43196 0
M  V30 6664 H 627.713 2.74584 -3.19659 0
M  V30 6665 H 626.437 2.61161 -1.96118 0
M  V30 6666 H 625.096 1.12424 -3.48936 0
M  V30 6667 H 624.744 3.6002 -3.51276 0
M  V30 6668 H 624.444 2.88743 -5.11763 0
M  V30 6669 H 625.968 3.76627 -4.80608 0
M  V30 6670 H 627.382 1.60467 -5.50385 0
M  V30 6671 H 625.779 0.936454 -5.92748 0
M  V30 6672 H 626.849 0.0227421 -4.84895 0
M  V30 6673 N 628.193 1.56834 0.155195 0
M  V30 6674 C 629.609 1.51315 0.50755 0
M  V30 6675 C 629.809 0.825614 1.83809 0
M  V30 6676 O 628.865 0.39271 2.49427 0
M  V30 6677 C 630.178 2.96074 0.52542 0
M  V30 6678 C 631.726 3.06968 0.611505 0
M  V30 6679 C 632.201 4.53218 0.660115 0
M  V30 6680 N 633.692 4.5753 0.722564 0
M  V30 6681 C 634.427 5.68056 0.781023 0
M  V30 6682 N 633.923 6.88173 0.799327 0
M  V30 6683 N 635.716 5.56068 0.821278 0
M  V30 6684 H 627.867 1.9993 -0.717063 0
M  V30 6685 H 630.13 0.911507 -0.260496 0
M  V30 6686 H 629.836 3.49599 -0.383875 0
M  V30 6687 H 629.71 3.51587 1.36624 0
M  V30 6688 H 632.097 2.53468 1.51122 0
M  V30 6689 H 632.178 2.54513 -0.256306 0
M  V30 6690 H 631.822 5.07354 -0.23541 0
M  V30 6691 H 631.752 5.03447 1.5443 0
M  V30 6692 H 634.243 3.71054 0.716049 0
M  V30 6693 H 634.556 7.6816 0.845553 0
M  V30 6694 H 632.901 6.90751 0.767337 0
M  V30 6695 H 636.092 4.61142 0.804091 0
M  V30 6696 H 636.265 6.42223 0.863372 0
M  V30 6697 N 629.671 -0.424282 1.51781 0
M  V30 6698 C 630.581 -1.54087 1.76902 0
M  V30 6699 C 631.597 -1.61249 0.653826 0
M  V30 6700 O 632.773 -1.78247 0.937552 0
M  V30 6701 C 629.838 -2.8996 1.90063 0
M  V30 6702 C 628.899 -2.92809 3.13945 0
M  V30 6703 C 628.132 -4.22201 3.26469 0
M  V30 6704 O 628.355 -5.15286 2.44616 0
M  V30 6705 O 627.289 -4.31599 4.1953 0
M  V30 6706 H 631.115 -1.358 2.71647 0
M  V30 6707 H 628.7 -0.608618 1.36441 0
M  V30 6708 H 630.582 -3.70575 2.0063 0
M  V30 6709 H 629.257 -3.08347 0.985067 0
M  V30 6710 H 628.164 -2.11102 3.08847 0
M  V30 6711 H 629.497 -2.79369 4.05233 0
M  V30 6712 N 631.149 -1.42148 -0.680565 0
M  V30 6713 C 632.096 -1.45175 -1.79424 0
M  V30 6714 C 633.066 -0.304352 -1.63288 0
M  V30 6715 O 634.251 -0.507591 -1.83924 0
M  V30 6716 C 631.391 -1.35429 -3.17416 0
M  V30 6717 C 630.504 -2.60158 -3.4488 0
M  V30 6718 C 629.639 -2.42596 -4.72568 0
M  V30 6719 C 628.678 -3.62727 -4.93047 0
M  V30 6720 N 627.815 -3.44143 -6.11973 0
M  V30 6721 H 632.655 -2.40349 -1.76172 0
M  V30 6722 H 630.192 -1.19334 -0.860107 0
M  V30 6723 H 632.15 -1.27777 -3.97151 0
M  V30 6724 H 630.78 -0.438536 -3.19807 0
M  V30 6725 H 629.832 -2.78199 -2.5944 0
M  V30 6726 H 631.144 -3.49473 -3.55908 0
M  V30 6727 H 630.298 -2.32497 -5.60384 0
M  V30 6728 H 629.037 -1.50761 -4.63813 0
M  V30 6729 H 628.042 -3.73264 -4.03676 0
M  V30 6730 H 629.267 -4.55534 -5.03652 0
M  V30 6731 H 627.213 -2.5502 -6.04401 0
M  V30 6732 H 627.13 -4.27041 -6.23836 0
M  V30 6733 H 628.398 -3.37845 -7.02482 0
M  V30 6734 N 632.627 0.916307 -1.28225 0
M  V30 6735 C 633.559 2.02303 -1.07732 0
M  V30 6736 C 634.572 1.62773 -0.0298421 0
M  V30 6737 O 635.761 1.76406 -0.272626 0
M  V30 6738 C 632.861 3.33282 -0.614504 0
M  V30 6739 C 632.034 4.01439 -1.73682 0
M  V30 6740 C 631.093 5.10698 -1.26781 0
M  V30 6741 O 630.119 5.34038 -1.96958 0
M  V30 6742 N 631.321 5.80355 -0.129624 0
M  V30 6743 H 634.086 2.20442 -2.03041 0
M  V30 6744 H 631.647 1.08744 -1.19943 0
M  V30 6745 H 633.639 4.03699 -0.284397 0
M  V30 6746 H 632.209 3.11633 0.245664 0
M  V30 6747 H 631.429 3.24604 -2.23665 0
M  V30 6748 H 632.717 4.43721 -2.48976 0
M  V30 6749 H 632.115 5.6386 0.455847 0
M  V30 6750 H 630.672 6.51647 0.141224 0
M  V30 6751 N 634.105 1.10431 1.1244 0
M  V30 6752 C 635.037 0.710945 2.17895 0
M  V30 6753 C 636.05 -0.252315 1.60833 0
M  V30 6754 O 637.239 -0.03679 1.78462 0
M  V30 6755 C 634.339 0.0284262 3.38888 0
M  V30 6756 C 633.512 1.01585 4.2544 0
M  V30 6757 C 632.571 0.364826 5.24934 0
M  V30 6758 O 631.597 1.01561 5.60066 0
M  V30 6759 N 632.799 -0.87674 5.73841 0
M  V30 6760 H 635.564 1.61826 2.52255 0
M  V30 6761 H 633.125 0.993132 1.27861 0
M  V30 6762 H 635.117 -0.418568 4.0253 0
M  V30 6763 H 633.687 -0.781294 3.02679 0
M  V30 6764 H 632.907 1.64111 3.58415 0
M  V30 6765 H 634.195 1.68425 4.80115 0
M  V30 6766 H 633.593 -1.42483 5.47462 0
M  V30 6767 H 632.15 -1.26688 6.39369 0
M  V30 6768 N 635.583 -1.29855 0.893053 0
M  V30 6769 C 636.513 -2.3035 0.382249 0
M  V30 6770 C 637.494 -1.61328 -0.539203 0
M  V30 6771 O 638.679 -1.88882 -0.451342 0
M  V30 6772 C 635.809 -3.45024 -0.396983 0
M  V30 6773 C 634.763 -4.258 0.433437 0
M  V30 6774 C 634.089 -5.32605 -0.472889 0
M  V30 6775 C 635.389 -4.94549 1.67984 0
M  V30 6776 H 637.083 -2.73325 1.22205 0
M  V30 6777 H 634.629 -1.314 0.589073 0
M  V30 6778 H 636.582 -4.14398 -0.765024 0
M  V30 6779 H 635.306 -3.00875 -1.2705 0
M  V30 6780 H 633.965 -3.58125 0.783723 0
M  V30 6781 H 633.613 -4.84702 -1.34435 0
M  V30 6782 H 633.313 -5.87547 0.0789958 0
M  V30 6783 H 634.837 -6.04832 -0.837269 0
M  V30 6784 H 636.251 -5.56395 1.38192 0
M  V30 6785 H 634.648 -5.59393 2.17254 0
M  V30 6786 H 635.718 -4.20215 2.41965 0
M  V30 6787 N 637.061 -0.65484 -1.43351 0
M  V30 6788 C 637.971 0.0363603 -2.34572 0
M  V30 6789 C 638.987 0.810432 -1.53974 0
M  V30 6790 O 640.163 0.757308 -1.86619 0
M  V30 6791 C 637.228 0.989733 -3.32273 0
M  V30 6792 C 636.289 0.212414 -4.28774 0
M  V30 6793 C 635.522 1.12038 -5.21808 0
M  V30 6794 O 635.745 2.35967 -5.19303 0
M  V30 6795 O 634.679 0.59191 -5.98982 0
M  V30 6796 H 638.505 -0.714527 -2.95175 0
M  V30 6797 H 636.09 -0.415029 -1.4352 0
M  V30 6798 H 637.972 1.53759 -3.92347 0
M  V30 6799 H 636.647 1.72082 -2.74171 0
M  V30 6800 H 635.554 -0.379062 -3.72175 0
M  V30 6801 H 636.887 -0.479138 -4.89862 0
M  V30 6802 N 638.539 1.52521 -0.396863 0
M  V30 6803 C 639.449 2.30403 0.44178 0
M  V30 6804 C 640.465 1.37625 1.06468 0
M  V30 6805 O 641.641 1.70697 1.06886 0
M  V30 6806 C 638.706 3.1013 1.54986 0
M  V30 6807 C 637.767 4.18628 0.951279 0
M  V30 6808 C 637 4.94543 2.00655 0
M  V30 6809 O 637.223 4.70629 3.22281 0
M  V30 6810 O 636.157 5.797 1.61962 0
M  V30 6811 H 639.983 3.03087 -0.192892 0
M  V30 6812 H 637.568 1.48537 -0.16038 0
M  V30 6813 H 639.45 3.59816 2.19341 0
M  V30 6814 H 638.125 2.40251 2.16935 0
M  V30 6815 H 637.032 3.73119 0.270773 0
M  V30 6816 H 638.365 4.90763 0.375887 0
M  V30 6817 N 640.017 0.126909 1.57088 0
M  V30 6818 C 641.294 -0.573152 1.87014 0
M  V30 6819 C 641.674 -1.84297 1.02945 0
M  V30 6820 O 641.022 -2.28232 0.110573 0
M  V30 6821 C 641.232 -0.857984 3.38289 0
M  V30 6822 C 642.58 -1.20759 4.07066 0
M  V30 6823 O 643.604 -0.947992 3.43353 0
M  V30 6824 O 642.463 -1.69516 5.19545 0
M  V30 6825 H 639.557 -0.290082 0.774456 0
M  V30 6826 H 642.103 0.162008 1.68925 0
M  V30 6827 H 640.875 0.0415286 3.91278 0
M  V30 6828 H 640.498 -1.64803 3.61837 0
M  V30 6829 N 641.495 -1.56914 -0.146875 0
M  V30 6830 C 642.425 -2.01308 -1.1831 0
M  V30 6831 C 643.406 -0.892664 -1.44795 0
M  V30 6832 O 644.591 -1.16048 -1.55713 0
M  V30 6833 C 641.721 -2.3938 -2.51624 0
M  V30 6834 C 640.675 -3.54608 -2.3966 0
M  V30 6835 C 640.001 -3.78493 -3.77686 0
M  V30 6836 C 641.301 -4.87269 -1.88058 0
M  V30 6837 H 642.995 -2.88123 -0.813964 0
M  V30 6838 H 640.541 -1.38615 -0.3901 0
M  V30 6839 H 642.494 -2.69037 -3.24341 0
M  V30 6840 H 641.218 -1.49502 -2.90373 0
M  V30 6841 H 639.877 -3.25116 -1.69396 0
M  V30 6842 H 639.525 -2.85866 -4.13871 0
M  V30 6843 H 639.225 -4.56039 -3.70543 0
M  V30 6844 H 640.749 -4.10576 -4.51951 0
M  V30 6845 H 642.163 -5.15644 -2.50568 0
M  V30 6846 H 640.56 -5.68622 -1.91805 0
M  V30 6847 H 641.63 -4.77634 -0.836277 0
M  V30 6848 N 642.974 0.416227 -1.52004 0
M  V30 6849 C 643.921 1.50666 -1.74838 0
M  V30 6850 C 644.891 1.55245 -0.590599 0
M  V30 6851 O 646.076 1.71928 -0.827374 0
M  V30 6852 C 643.216 2.88185 -1.89851 0
M  V30 6853 C 642.329 2.92971 -3.17478 0
M  V30 6854 C 641.464 4.21745 -3.22962 0
M  V30 6855 C 640.503 4.20478 -4.4482 0
M  V30 6856 N 639.64 5.40811 -4.47736 0
M  V30 6857 H 644.48 1.30498 -2.67907 0
M  V30 6858 H 642.017 0.633568 -1.32757 0
M  V30 6859 H 643.975 3.68007 -1.96537 0
M  V30 6860 H 642.605 3.06865 -1.00169 0
M  V30 6861 H 641.657 2.05684 -3.19997 0
M  V30 6862 H 642.969 2.87899 -4.07328 0
M  V30 6863 H 642.123 5.09954 -3.28682 0
M  V30 6864 H 640.862 4.29503 -2.31038 0
M  V30 6865 H 639.867 3.30659 -4.39254 0
M  V30 6866 H 641.092 4.14366 -5.38031 0
M  V30 6867 H 639.038 5.4925 -3.58692 0
M  V30 6868 H 638.955 5.37705 -5.31422 0
M  V30 6869 H 640.223 6.30993 -4.57676 0
M  V30 6870 N 644.452 1.42507 0.673017 0
M  V30 6871 C 645.7 1.42789 1.43023 0
M  V30 6872 C 646.021 0.0459738 1.94946 0
M  V30 6873 O 645.291 -0.915765 1.73178 0
M  V30 6874 H 643.871 0.525657 0.530748 0
M  V30 6875 H 646.533 1.77944 0.795113 0
M  V30 6876 H 645.629 2.12872 2.28237 0
M  V30 6877 N 645.93 -0.909495 1.28709 0
M  V30 6878 C 647.16 -1.69027 1.188 0
M  V30 6879 C 647.568 -1.87469 -0.255329 0
M  V30 6880 O 646.911 -1.40458 -1.18394 0
M  V30 6881 C 646.973 -3.10064 1.81936 0
M  V30 6882 C 646.637 -3.14891 3.31199 0
M  V30 6883 C 647.634 -2.95768 4.27571 0
M  V30 6884 C 645.319 -3.37269 3.7223 0
M  V30 6885 C 647.313 -2.98942 5.6295 0
M  V30 6886 C 645 -3.40074 5.07733 0
M  V30 6887 C 645.998 -3.20932 6.02903 0
M  V30 6888 O 645.686 -3.23507 7.35934 0
M  V30 6889 H 645.418 -0.535014 0.413203 0
M  V30 6890 H 647.972 -1.14645 1.70428 0
M  V30 6891 H 646.202 -3.66005 1.24808 0
M  V30 6892 H 647.891 -3.70185 1.66486 0
M  V30 6893 H 648.657 -2.78302 3.97206 0
M  V30 6894 H 644.536 -3.51212 2.98615 0
M  V30 6895 H 648.08 -2.83919 6.37209 0
M  V30 6896 H 643.977 -3.5707 5.37747 0
M  V30 6897 H 644.745 -3.3984 7.44615 0
M  V30 6898 N 647.408 -1.11026 -1.11852 0
M  V30 6899 C 648.338 -0.786812 -2.19844 0
M  V30 6900 C 649.319 0.242935 -1.68356 0
M  V30 6901 O 650.504 0.107355 -1.93903 0
M  V30 6902 C 647.634 -0.224516 -3.46574 0
M  V30 6903 C 646.588 -1.18564 -4.1125 0
M  V30 6904 C 645.914 -0.484261 -5.32503 0
M  V30 6905 C 647.214 -2.53465 -4.56676 0
M  V30 6906 H 648.908 -1.68978 -2.47158 0
M  V30 6907 H 646.454 -0.813906 -1.18792 0
M  V30 6908 H 648.407 0.0139435 -4.21398 0
M  V30 6909 H 647.131 0.713722 -3.18706 0
M  V30 6910 H 645.79 -1.40966 -3.38414 0
M  V30 6911 H 645.438 0.458646 -5.00905 0
M  V30 6912 H 645.138 -1.12526 -5.76725 0
M  V30 6913 H 646.662 -0.254492 -6.10069 0
M  V30 6914 H 648.076 -2.35177 -5.22843 0
M  V30 6915 H 646.473 -3.13507 -5.11697 0
M  V30 6916 H 647.543 -3.13008 -3.70343 0
M  V30 6917 N 648.886 1.2938 -0.899927 0
M  V30 6918 C 650.163 1.9046 -0.445443 0
M  V30 6919 C 650.543 1.81683 1.07492 0
M  V30 6920 O 649.891 1.24371 1.91688 0
M  V30 6921 C 650.101 3.35529 -0.960279 0
M  V30 6922 C 651.449 4.12556 -1.00412 0
M  V30 6923 O 652.473 3.44434 -0.907965 0
M  V30 6924 O 651.332 5.34294 -1.14857 0
M  V30 6925 H 648.426 0.815253 -0.138893 0
M  V30 6926 H 650.972 1.37844 -0.989808 0
M  V30 6927 H 649.744 3.36074 -2.00425 0
M  V30 6928 H 649.367 3.95624 -0.395939 0
M  V30 6929 N 650.364 0.662433 1.43002 0
M  V30 6930 C 651.61 0.188492 2.02525 0
M  V30 6931 C 651.965 -1.18752 1.51379 0
M  V30 6932 O 651.258 -1.78313 0.701065 0
M  V30 6933 C 651.452 0.149363 3.57088 0
M  V30 6934 C 651.281 1.52004 4.23231 0
M  V30 6935 C 650.051 2.11473 4.5892 0
M  V30 6936 C 652.249 2.46028 4.51635 0
M  V30 6937 N 650.231 3.4145 5.10181 0
M  V30 6938 C 651.602 3.60647 5.04315 0
M  V30 6939 C 653.657 2.44715 4.33612 0
M  V30 6940 C 652.36 4.74189 5.40867 0
M  V30 6941 C 654.386 3.57344 4.71232 0
M  V30 6942 C 653.748 4.70689 5.24053 0
M  V30 6943 H 649.847 0.113615 0.773703 0
M  V30 6944 H 652.431 0.872738 1.74044 0
M  V30 6945 H 650.602 -0.504255 3.85113 0
M  V30 6946 H 652.334 -0.336307 4.033 0
M  V30 6947 H 649.089 1.64087 4.44266 0
M  V30 6948 H 649.513 4.07987 5.40255 0
M  V30 6949 H 654.155 1.58318 3.9204 0
M  V30 6950 H 651.873 5.61271 5.81378 0
M  V30 6951 H 655.459 3.5754 4.58973 0
M  V30 6952 H 654.339 5.56398 5.52621 0
M  V30 6953 N 651.842 -1.52309 0.404946 0
M  V30 6954 C 653.091 -2.00952 -0.173529 0
M  V30 6955 C 653.404 -1.29512 -1.46581 0
M  V30 6956 O 654.61 -1.6895 -2.12528 0
M  V30 6957 C 653.066 -3.58097 -0.359801 0
M  V30 6958 C 652.674 -4.38449 0.920138 0
M  V30 6959 C 654.418 -4.14984 -0.893794 0
M  V30 6960 C 652.325 -5.87227 0.701285 0
M  V30 6961 H 651.255 -0.750871 -0.0686244 0
M  V30 6962 H 653.906 -1.75687 0.529749 0
M  V30 6963 H 652.288 -3.79675 -1.12531 0
M  V30 6964 H 653.462 -4.28633 1.69147 0
M  V30 6965 H 651.777 -3.92859 1.38024 0
M  V30 6966 H 654.374 -5.23813 -1.0735 0
M  V30 6967 H 654.717 -3.72072 -1.8673 0
M  V30 6968 H 655.25 -3.97358 -0.187453 0
M  V30 6969 H 651.989 -6.34491 1.64624 0
M  V30 6970 H 651.509 -5.99792 -0.0308288 0
M  V30 6971 H 653.188 -6.46096 0.341846 0
M  V30 6972 N 653.32 -0.135238 -1.57019 0
M  V30 6973 C 654.548 0.526066 -2.001 0
M  V30 6974 C 654.963 1.59184 -1.01519 0
M  V30 6975 O 654.32 1.82497 -0.0104258 0
M  V30 6976 C 654.371 1.13744 -3.43139 0
M  V30 6977 O 654.092 0.114259 -4.37951 0
M  V30 6978 C 655.593 1.8805 -4.01438 0
M  V30 6979 H 652.813 0.137962 -0.656664 0
M  V30 6980 H 655.357 -0.226359 -2.03243 0
M  V30 6981 H 653.512 1.84056 -3.40885 0
M  V30 6982 H 653.926 0.56058 -5.21496 0
M  V30 6983 H 655.4 2.26133 -5.03555 0
M  V30 6984 H 655.877 2.76194 -3.41487 0
M  V30 6985 H 656.483 1.22464 -4.07287 0
M  V30 6986 N 654.798 1.5699 0.138552 0
M  V30 6987 C 655.73 1.95515 1.1961 0
M  V30 6988 C 656.743 0.852002 1.38726 0
M  V30 6989 O 657.932 1.13038 1.38147 0
M  V30 6990 C 655.032 2.2213 2.55952 0
M  V30 6991 C 654.205 3.53424 2.57702 0
M  V30 6992 C 653.264 3.6848 3.75645 0
M  V30 6993 O 652.29 4.4079 3.60129 0
M  V30 6994 N 653.492 3.05777 4.93438 0
M  V30 6995 H 656.257 2.86838 0.868557 0
M  V30 6996 H 653.818 1.58542 0.328033 0
M  V30 6997 H 655.81 2.29435 3.33379 0
M  V30 6998 H 654.38 1.3703 2.80965 0
M  V30 6999 H 653.6 3.57484 1.6613 0
M  V30 7000 H 654.888 4.39759 2.55909 0
M  V30 7001 H 654.286 2.46961 5.08947 0
M  V30 7002 H 652.843 3.18631 5.6861 0
M  V30 7003 N 656.276 -0.40816 1.52223 0
M  V30 7004 C 657.239 -1.48 1.7501 0
M  V30 7005 C 658.239 -1.48367 0.619996 0
M  V30 7006 O 659.429 -1.49874 0.887881 0
M  V30 7007 C 656.561 -2.87403 1.83336 0
M  V30 7008 H 657.754 -1.29086 2.70697 0
M  V30 7009 H 655.307 -0.638715 1.42654 0
M  V30 7010 H 656.042 -3.11686 0.895677 0
M  V30 7011 H 655.827 -2.8854 2.65494 0
M  V30 7012 H 657.317 -3.65103 2.02705 0
M  V30 7013 N 657.755 -1.42862 -0.66545 0
M  V30 7014 C 658.665 -1.49491 -1.80803 0
M  V30 7015 C 659.681 -0.382914 -1.69734 0
M  V30 7016 O 660.857 -0.635223 -1.9112 0
M  V30 7017 C 657.922 -1.40383 -3.17007 0
M  V30 7018 C 656.983 -2.62152 -3.39963 0
M  V30 7019 C 656.216 -2.53469 -4.69669 0
M  V30 7020 O 656.439 -1.57568 -5.48205 0
M  V30 7021 O 655.373 -3.43763 -4.94075 0
M  V30 7022 H 659.199 -2.45949 -1.78165 0
M  V30 7023 H 656.784 -1.24728 -0.822387 0
M  V30 7024 H 658.666 -1.377 -3.98267 0
M  V30 7025 H 657.341 -0.470546 -3.20262 0
M  V30 7026 H 656.248 -2.70409 -2.58515 0
M  V30 7027 H 657.581 -3.54411 -3.41546 0
M  V30 7028 N 659.233 0.902656 -1.29189 0
M  V30 7029 C 660.51 1.63296 -1.07674 0
M  V30 7030 C 660.89 2.07649 0.380137 0
M  V30 7031 O 660.238 1.82997 1.36837 0
M  V30 7032 C 660.448 2.81603 -2.06158 0
M  V30 7033 C 661.796 3.52359 -2.36914 0
M  V30 7034 O 662.82 2.91767 -2.04329 0
M  V30 7035 O 661.679 4.61586 -2.92576 0
M  V30 7036 H 658.773 0.716889 -0.41231 0
M  V30 7037 H 661.319 0.950984 -1.4055 0
M  V30 7038 H 660.091 2.46004 -3.04299 0
M  V30 7039 H 659.714 3.57508 -1.73993 0
M  V30 7040 N 660.711 1.11618 1.11262 0
M  V30 7041 C 661.96 0.860934 1.82403 0
M  V30 7042 C 662.273 -0.615303 1.8567 0
M  V30 7043 O 663.479 -0.986861 2.52929 0
M  V30 7044 C 661.935 1.49048 3.27586 0
M  V30 7045 C 661.543 3.00089 3.32642 0
M  V30 7046 C 663.287 1.31515 4.03614 0
M  V30 7047 C 661.194 3.56019 4.72234 0
M  V30 7048 H 660.124 0.318423 0.683464 0
M  V30 7049 H 662.775 1.34165 1.25188 0
M  V30 7050 H 661.157 0.937434 3.84744 0
M  V30 7051 H 662.331 3.61813 2.85356 0
M  V30 7052 H 660.646 3.16919 2.70096 0
M  V30 7053 H 663.243 1.70732 5.0671 0
M  V30 7054 H 663.586 0.257917 4.155 0
M  V30 7055 H 664.119 1.83694 3.52848 0
M  V30 7056 H 660.858 4.61463 4.65545 0
M  V30 7057 H 660.378 2.99066 5.19923 0
M  V30 7058 H 662.057 3.54568 5.41193 0
M  V30 7059 N 662.189 -1.289 0.906776 0
M  V30 7060 C 663.466 -1.90221 0.455537 0
M  V30 7061 C 663.846 -1.82251 -1.06527 0
M  V30 7062 O 663.194 -1.25385 -1.91026 0
M  V30 7063 C 663.404 -3.35015 0.97806 0
M  V30 7064 C 664.752 -4.12018 1.02598 0
M  V30 7065 O 665.776 -3.43947 0.926218 0
M  V30 7066 O 664.635 -5.33677 1.17689 0
M  V30 7067 H 661.729 -0.814505 0.143214 0
M  V30 7068 H 664.275 -1.37317 0.997104 0
M  V30 7069 H 663.047 -3.35006 2.02204 0
M  V30 7070 H 662.67 -3.95408 0.416914 0
M  V30 7071 N 663.667 -0.670007 -1.42649 0
M  V30 7072 C 665.078 -0.268118 -1.84765 0
M  V30 7073 C 665.429 1.18877 -1.56086 0
M  V30 7074 O 664.554 1.90947 -1.01825 0
M  V30 7075 C 665.149 -0.47984 -3.35385 0
M  V30 7076 C 663.708 -0.132116 -3.76168 0
M  V30 7077 C 662.855 -0.774611 -2.66261 0
M  V30 7078 H 665.806 -0.872509 -1.32563 0
M  V30 7079 H 665.827 0.269522 -3.79544 0
M  V30 7080 H 665.339 -1.54026 -3.56227 0
M  V30 7081 H 663.44 0.92505 -3.60934 0
M  V30 7082 H 663.553 -0.569294 -4.75706 0
M  V30 7083 H 661.917 -0.206353 -2.53863 0
M  V30 7084 H 662.7 -1.83839 -2.89928 0
M  V30 7085 N 665.145 1.52092 -0.413018 0
M  V30 7086 C 666.055 2.30858 0.417318 0
M  V30 7087 C 667.071 1.38746 1.05003 0
M  V30 7088 O 668.247 1.71821 1.05069 0
M  V30 7089 C 665.312 3.11756 1.51687 0
M  V30 7090 C 664.373 4.19613 0.906825 0
M  V30 7091 C 663.606 4.96644 1.95399 0
M  V30 7092 O 663.829 4.7402 3.17271 0
M  V30 7093 O 662.763 5.81385 1.55805 0
M  V30 7094 H 666.589 3.02865 -0.225028 0
M  V30 7095 H 664.174 1.48358 -0.176126 0
M  V30 7096 H 666.056 3.62122 2.15512 0
M  V30 7097 H 664.731 2.42539 2.14375 0
M  V30 7098 H 663.638 3.73385 0.231183 0
M  V30 7099 H 664.971 4.91134 0.323814 0
M  V30 7100 N 666.623 0.143563 1.56945 0
M  V30 7101 C 667.571 -0.814556 2.17871 0
M  V30 7102 C 668.565 -1.25778 1.13474 0
M  V30 7103 O 669.771 -1.22666 1.31731 0
M  V30 7104 H 666.146 -0.280873 0.697578 0
M  V30 7105 H 668.117 -0.276459 2.97117 0
M  V30 7106 C 666.866 -2.04503 2.81201 0
M  V30 7107 H 666.189 -1.71296 3.61245 0
M  V30 7108 H 667.629 -2.69493 3.27337 0
M  V30 7109 C 666.088 -2.85079 1.79532 0
M  V30 7110 O 666.618 -3.81306 1.26368 0
M  V30 7111 N 664.824 -2.49546 1.48913 0
M  V30 7112 H 664.371 -1.71359 1.92338 0
M  V30 7113 H 664.329 -3.03751 0.811348 0
M  V30 7114 N 668.101 -1.57061 -0.130224 0
M  V30 7115 C 669.011 -2.02802 -1.17934 0
M  V30 7116 C 670.027 -0.946378 -1.46013 0
M  V30 7117 O 671.203 -1.25708 -1.57351 0
M  V30 7118 C 668.268 -2.41368 -2.48882 0
M  V30 7119 C 667.329 -3.63561 -2.28301 0
M  V30 7120 C 666.562 -4.00279 -3.53005 0
M  V30 7121 O 666.785 -3.37463 -4.59864 0
M  V30 7122 O 665.719 -4.93441 -3.44673 0
M  V30 7123 H 669.545 -2.92394 -0.820958 0
M  V30 7124 H 667.13 -1.45475 -0.340197 0
M  V30 7125 H 669.012 -2.66958 -3.26054 0
M  V30 7126 H 667.687 -1.54926 -2.84217 0
M  V30 7127 H 666.594 -3.43136 -1.49025 0
M  V30 7128 H 667.927 -4.50673 -1.97875 0
M  V30 7129 N 669.579 0.400081 -1.52437 0
M  V30 7130 C 670.489 1.51253 -1.79331 0
M  V30 7131 C 671.505 1.60188 -0.679396 0
M  V30 7132 O 672.681 1.76733 -0.965791 0
M  V30 7133 C 669.746 2.869 -1.94652 0
M  V30 7134 C 668.807 2.87777 -3.18564 0
M  V30 7135 C 668.04 4.16954 -3.33145 0
M  V30 7136 O 668.263 5.11329 -2.52783 0
M  V30 7137 O 667.197 4.2487 -4.26343 0
M  V30 7138 H 671.023 1.31461 -2.73773 0
M  V30 7139 H 668.608 0.586834 -1.37392 0
M  V30 7140 H 670.49 3.67336 -2.065 0
M  V30 7141 H 669.165 3.06741 -1.034 0
M  V30 7142 H 668.072 2.06162 -3.12167 0
M  V30 7143 H 669.405 2.72886 -4.09627 0
M  V30 7144 N 671.057 1.43213 0.657864 0
M  V30 7145 C 671.967 1.50448 1.80007 0
M  V30 7146 C 672.983 0.39191 1.69529 0
M  V30 7147 O 674.159 0.645349 1.90781 0
M  V30 7148 C 671.224 1.42062 3.16258 0
M  V30 7149 C 670.285 2.63951 3.38568 0
M  V30 7150 C 669.518 2.55956 4.68318 0
M  V30 7151 O 669.741 1.60473 5.47361 0
M  V30 7152 O 668.675 3.46378 4.92245 0
M  V30 7153 H 672.501 2.4689 1.76858 0
M  V30 7154 H 670.086 1.25163 0.81576 0
M  V30 7155 H 671.968 1.3981 3.97531 0
M  V30 7156 H 670.643 0.487524 3.20008 0
M  V30 7157 H 669.55 2.71776 2.57077 0
M  V30 7158 H 670.883 3.56217 3.39662 0
M  V30 7159 N 672.536 -0.895792 1.29666 0
M  V30 7160 C 673.784 -1.64339 1.17631 0
M  V30 7161 C 674.105 -1.93099 -0.271643 0
M  V30 7162 O 673.375 -1.55981 -1.18518 0
M  V30 7163 H 671.955 -0.609162 0.432354 0
M  V30 7164 H 674.617 -1.07389 1.62646 0
M  V30 7165 H 673.713 -2.59815 1.72924 0
M  V30 7166 N 674.014 -1.12206 -1.10668 0
M  V30 7167 C 675.262 -0.874144 -1.82217 0
M  V30 7168 C 675.583 0.601736 -1.85484 0
M  V30 7169 O 674.853 1.43725 -1.33116 0
M  V30 7170 H 673.433 -0.320404 -0.674797 0
M  V30 7171 H 676.095 -1.41606 -1.33917 0
M  V30 7172 H 675.191 -1.25349 -2.85822 0
M  V30 7173 N 675.492 1.28418 -0.913599 0
M  V30 7174 C 676.402 2.31043 -0.406965 0
M  V30 7175 C 677.418 1.66501 0.505298 0
M  V30 7176 O 678.594 1.97558 0.391522 0
M  V30 7177 C 675.659 3.4498 0.344901 0
M  V30 7178 C 674.72 4.25078 -0.600563 0
M  V30 7179 C 673.953 5.33575 0.115516 0
M  V30 7180 O 674.176 5.54503 1.33727 0
M  V30 7181 O 673.11 5.9939 -0.549095 0
M  V30 7182 H 676.936 2.76387 -1.25873 0
M  V30 7183 H 674.521 1.33109 -0.678415 0
M  V30 7184 H 676.403 4.14314 0.769542 0
M  V30 7185 H 675.078 3.01719 1.1725 0
M  V30 7186 H 673.985 3.58334 -1.0746 0
M  V30 7187 H 675.318 4.72018 -1.39497 0
M  V30 7188 N 676.97 0.677563 1.42291 0
M  V30 7189 C 677.88 0.000962654 2.346 0
M  V30 7190 C 678.896 -0.785833 1.55244 0
M  V30 7191 O 680.072 -0.727523 1.87801 0
M  V30 7192 C 677.137 -0.936746 3.33805 0
M  V30 7193 C 676.198 -0.144173 4.29058 0
M  V30 7194 C 675.431 -1.03722 5.23524 0
M  V30 7195 O 675.654 -2.27675 5.22992 0
M  V30 7196 O 674.588 -0.496542 5.99848 0
M  V30 7197 H 678.414 0.761397 2.94001 0
M  V30 7198 H 675.999 0.43781 1.42841 0
M  V30 7199 H 677.881 -1.47497 3.94744 0
M  V30 7200 H 676.556 -1.67698 2.76874 0
M  V30 7201 H 675.463 0.438224 3.71524 0
M  V30 7202 H 676.796 0.55701 4.89038 0
M  V30 7203 N 678.448 -1.51871 0.421078 0
M  V30 7204 C 679.696 -2.01539 -0.150492 0
M  V30 7205 C 680.017 -1.30803 -1.44623 0
M  V30 7206 O 679.287 -0.437568 -1.90951 0
M  V30 7207 H 677.867 -0.744698 -0.0586041 0
M  V30 7208 H 680.529 -1.8668 0.560059 0
M  V30 7209 H 679.625 -3.10264 -0.338068 0
M  V30 7210 N 679.926 -0.151884 -1.56866 0
M  V30 7211 C 680.873 0.785936 -2.17006 0
M  V30 7212 C 681.843 1.2407 -1.10435 0
M  V30 7213 O 683.028 1.31235 -1.38499 0
M  V30 7214 C 680.168 2.01771 -2.79969 0
M  V30 7215 C 679.281 1.6083 -4.00946 0
M  V30 7216 C 678.416 2.79224 -4.51893 0
M  V30 7217 C 677.455 2.3468 -5.65324 0
M  V30 7218 N 676.592 3.461 -6.10867 0
M  V30 7219 H 681.432 0.266286 -2.96808 0
M  V30 7220 H 678.969 0.11972 -1.46612 0
M  V30 7221 H 680.927 2.73989 -3.14621 0
M  V30 7222 H 679.557 2.51139 -2.02803 0
M  V30 7223 H 678.609 0.783592 -3.72242 0
M  V30 7224 H 679.921 1.24119 -4.83111 0
M  V30 7225 H 679.075 3.59625 -4.88625 0
M  V30 7226 H 677.814 3.19183 -3.68746 0
M  V30 7227 H 676.819 1.52721 -5.28163 0
M  V30 7228 H 678.044 1.95801 -6.5026 0
M  V30 7229 H 675.99 3.85671 -5.30654 0
M  V30 7230 H 675.907 3.1342 -6.87971 0
M  V30 7231 H 677.175 4.26844 -6.52246 0
M  V30 7232 N 681.404 1.57128 0.121893 0
M  V30 7233 C 682.82 1.52357 0.47534 0
M  V30 7234 C 683.02 0.864417 1.82017 0
M  V30 7235 O 682.076 0.445529 2.48538 0
M  V30 7236 C 683.389 2.97122 0.4625 0
M  V30 7237 C 684.937 3.08196 0.546255 0
M  V30 7238 C 685.412 4.54516 0.563833 0
M  V30 7239 N 686.903 4.58959 0.625353 0
M  V30 7240 C 687.638 5.69585 0.660354 0
M  V30 7241 N 687.134 6.89714 0.653175 0
M  V30 7242 N 688.927 5.57685 0.703143 0
M  V30 7243 H 681.078 1.98364 -0.75931 0
M  V30 7244 H 683.341 0.905777 -0.279772 0
M  V30 7245 H 683.047 3.48706 -0.457943 0
M  V30 7246 H 682.921 3.54406 1.29136 0
M  V30 7247 H 685.308 2.56617 1.45712 0
M  V30 7248 H 685.389 2.53912 -0.310234 0
M  V30 7249 H 685.033 5.06741 -0.342974 0
M  V30 7250 H 684.963 5.06609 1.43716 0
M  V30 7251 H 687.454 3.72489 0.637182 0
M  V30 7252 H 687.767 7.69781 0.682425 0
M  V30 7253 H 686.112 6.92223 0.620646 0
M  V30 7254 H 689.303 4.62744 0.706095 0
M  V30 7255 H 689.476 6.43909 0.726952 0
M  V30 7256 N 682.882 -0.391992 1.52647 0
M  V30 7257 C 683.83 -1.4991 1.77848 0
M  V30 7258 C 684.824 -1.56587 0.646282 0
M  V30 7259 O 686.03 -1.59789 0.828698 0
M  V30 7260 H 682.405 -0.498883 0.56269 0
M  V30 7261 H 684.376 -1.25847 2.70564 0
M  V30 7262 C 683.125 -2.87081 1.96163 0
M  V30 7263 H 682.448 -2.82692 2.82711 0
M  V30 7264 H 683.888 -3.63792 2.17787 0
M  V30 7265 C 682.347 -3.28822 0.733348 0
M  V30 7266 O 682.877 -4.01598 -0.0906481 0
M  V30 7267 N 681.083 -2.85068 0.564317 0
M  V30 7268 H 680.63 -2.26012 1.23598 0
M  V30 7269 H 680.588 -3.13355 -0.256166 0
M  V30 7270 N 684.36 -1.4356 -0.65026 0
M  V30 7271 C 685.588 -1.48779 -1.43779 0
M  V30 7272 C 686.003 -0.106593 -1.88499 0
M  V30 7273 O 685.36 0.883766 -1.59674 0
M  V30 7274 C 685.411 -2.43618 -2.67081 0
M  V30 7275 O 685.132 -3.76367 -2.24231 0
M  V30 7276 C 686.633 -2.5811 -3.60409 0
M  V30 7277 H 683.853 -0.50521 -0.441593 0
M  V30 7278 H 686.397 -1.88332 -0.796941 0
M  V30 7279 H 684.552 -2.07253 -3.273 0
M  V30 7280 H 684.966 -4.27394 -3.0403 0
M  V30 7281 H 686.44 -3.28539 -4.43583 0
M  V30 7282 H 686.917 -1.627 -4.07953 0
M  V30 7283 H 687.523 -2.95298 -3.0607 0
M  V30 7284 N 685.838 0.888903 -1.30139 0
M  V30 7285 C 687.063 1.67884 -1.21777 0
M  V30 7286 C 687.488 1.86848 0.216689 0
M  V30 7287 O 686.846 1.39659 1.15608 0
M  V30 7288 C 686.894 3.03483 -1.94757 0
M  V30 7289 O 685.998 3.92294 -1.27198 0
M  V30 7290 H 685.339 0.513144 -0.421402 0
M  V30 7291 H 687.869 1.10968 -1.71893 0
M  V30 7292 H 687.879 3.53553 -2.03627 0
M  V30 7293 H 686.554 2.89 -2.99085 0
M  V30 7294 H 685.131 3.50732 -1.26655 0
M  V30 7295 N 687.317 1.12792 1.10072 0
M  V30 7296 C 688.25 0.742921 2.15768 0
M  V30 7297 C 689.228 -0.267714 1.60381 0
M  V30 7298 O 690.412 -0.160782 1.87813 0
M  V30 7299 C 687.539 0.100244 3.38552 0
M  V30 7300 C 686.585 1.07831 4.12644 0
M  V30 7301 S 687.418 2.60765 4.6772 0
M  V30 7302 C 688.574 1.97838 5.9381 0
M  V30 7303 H 688.807 1.63822 2.48092 0
M  V30 7304 H 686.34 0.947385 1.21918 0
M  V30 7305 H 688.298 -0.264175 4.09649 0
M  V30 7306 H 686.959 -0.772223 3.04459 0
M  V30 7307 H 686.152 0.576325 5.00694 0
M  V30 7308 H 685.754 1.38586 3.47376 0
M  V30 7309 H 688.046 1.32341 6.64449 0
M  V30 7310 H 688.989 2.83943 6.48677 0
M  V30 7311 H 689.397 1.43267 5.46017 0
M  V30 7312 N 688.795 -1.27931 0.920396 0
M  V30 7313 C 690.206 -1.76707 0.602616 0
M  V30 7314 C 690.557 -1.75249 -0.882159 0
M  V30 7315 O 689.682 -1.35135 -1.69019 0
M  V30 7316 C 690.277 -3.20884 1.08714 0
M  V30 7317 C 688.836 -3.67356 0.820157 0
M  V30 7318 C 687.983 -2.47525 1.25006 0
M  V30 7319 H 690.934 -1.14301 1.10095 0
M  V30 7320 H 690.955 -3.78045 0.431535 0
M  V30 7321 H 690.467 -3.21913 2.1678 0
M  V30 7322 H 688.568 -3.7178 -0.247012 0
M  V30 7323 H 688.681 -4.57181 1.43257 0
M  V30 7324 H 687.045 -2.45765 0.668698 0
M  V30 7325 H 687.828 -2.51269 2.3392 0
M  V30 7326 N 690.273 -0.685099 -1.4193 0
M  V30 7327 C 691.501 -0.220372 -2.05723 0
M  V30 7328 C 691.916 1.12642 -1.51516 0
M  V30 7329 O 691.273 1.70182 -0.659114 0
M  V30 7330 C 691.324 -0.157974 -3.61155 0
M  V30 7331 O 691.045 -1.45156 -4.13354 0
M  V30 7332 C 692.546 0.329009 -4.42077 0
M  V30 7333 H 689.766 -0.104725 -0.662777 0
M  V30 7334 H 692.31 -0.934736 -1.81887 0
M  V30 7335 H 690.465 0.507144 -3.84066 0
M  V30 7336 H 690.879 -1.33172 -5.07312 0
M  V30 7337 H 692.353 0.321559 -5.51063 0
M  V30 7338 H 692.83 1.36608 -4.17414 0
M  V30 7339 H 693.436 -0.304737 -4.24207 0
M  V30 7340 N 691.751 1.51645 -0.429126 0
M  V30 7341 C 692.976 2.06917 0.141399 0
M  V30 7342 C 693.401 1.29527 1.36398 0
M  V30 7343 O 692.759 0.33094 1.78254 0
M  V30 7344 C 692.807 3.57776 0.4504 0
M  V30 7345 O 691.911 3.82639 1.53821 0
M  V30 7346 H 691.252 0.663978 0.0054647 0
M  V30 7347 H 693.782 1.95355 -0.608093 0
M  V30 7348 H 693.792 4.01894 0.703249 0
M  V30 7349 H 692.467 4.13532 -0.443213 0
M  V30 7350 H 691.044 3.5039 1.27597 0
M  V30 7351 N 693.229 0.160201 1.56784 0
M  V30 7352 C 694.139 -0.787167 2.21 0
M  V30 7353 C 695.155 -1.26167 1.19825 0
M  V30 7354 O 696.331 -1.31611 1.52448 0
M  V30 7355 C 693.396 -2.00364 2.8294 0
M  V30 7356 C 692.457 -1.5771 3.99282 0
M  V30 7357 C 691.69 -2.73558 4.58259 0
M  V30 7358 O 691.913 -3.90129 4.16119 0
M  V30 7359 O 690.847 -2.48271 5.48311 0
M  V30 7360 H 694.673 -0.270462 3.02493 0
M  V30 7361 H 692.258 -0.0674666 1.49248 0
M  V30 7362 H 694.14 -2.71529 3.22257 0
M  V30 7363 H 692.815 -2.50961 2.04451 0
M  V30 7364 H 691.722 -0.835274 3.64656 0
M  V30 7365 H 693.055 -1.11815 4.79331 0
M  V30 7366 N 694.707 -1.5719 -0.113559 0
M  V30 7367 C 695.935 -1.89328 -0.834422 0
M  V30 7368 C 696.35 -0.752018 -1.73177 0
M  V30 7369 O 695.707 0.276912 -1.80387 0
M  V30 7370 C 695.758 -3.20962 -1.66329 0
M  V30 7371 O 695.479 -4.30695 -0.802069 0
M  V30 7372 C 696.98 -3.6684 -2.48884 0
M  V30 7373 H 694.2 -0.626769 -0.239587 0
M  V30 7374 H 696.744 -2.04273 -0.0963195 0
M  V30 7375 H 694.899 -3.0767 -2.35409 0
M  V30 7376 H 695.313 -5.06175 -1.37431 0
M  V30 7377 H 696.787 -4.61692 -3.02563 0
M  V30 7378 H 697.264 -2.93765 -3.26495 0
M  V30 7379 H 697.87 -3.82938 -1.85036 0
M  V30 7380 N 696.185 0.383891 -1.52853 0
M  V30 7381 C 697.095 1.49343 -1.80925 0
M  V30 7382 C 698.111 1.59458 -0.696348 0
M  V30 7383 O 699.287 1.75698 -0.984481 0
M  V30 7384 C 696.352 2.84819 -1.97684 0
M  V30 7385 C 695.413 2.84382 -3.21598 0
M  V30 7386 C 694.646 4.13397 -3.37548 0
M  V30 7387 O 694.869 5.08619 -2.58192 0
M  V30 7388 O 693.803 4.20325 -4.30826 0
M  V30 7389 H 697.629 1.2855 -2.75152 0
M  V30 7390 H 695.214 0.572229 -1.38007 0
M  V30 7391 H 697.096 3.65125 -2.10385 0
M  V30 7392 H 695.771 3.05627 -1.06647 0
M  V30 7393 H 694.678 2.0284 -3.14336 0
M  V30 7394 H 696.011 2.68526 -4.12498 0
M  V30 7395 N 697.663 1.43903 0.642637 0
M  V30 7396 C 698.888 1.49758 1.43483 0
M  V30 7397 C 699.313 0.119911 1.87717 0
M  V30 7398 O 698.671 -0.888558 1.58033 0
M  V30 7399 C 698.719 2.45744 2.63898 0
M  V30 7400 O 697.823 1.95101 3.63331 0
M  V30 7401 H 697.164 0.506138 0.429791 0
M  V30 7402 H 699.694 1.88923 0.785438 0
M  V30 7403 H 699.704 2.63399 3.11584 0
M  V30 7404 H 698.379 3.45818 2.31046 0
M  V30 7405 H 696.956 1.87158 3.22531 0
M  V30 7406 N 699.141 -0.881989 1.30609 0
M  V30 7407 C 700.387 -1.63647 1.19781 0
M  V30 7408 C 700.72 -1.92632 -0.246265 0
M  V30 7409 O 699.995 -1.54938 -1.17577 0
M  V30 7410 C 700.278 -2.97437 2.02985 0
M  V30 7411 C 700.131 -2.75406 3.55628 0
M  V30 7412 C 701.45 -3.98397 1.86997 0
M  V30 7413 H 698.569 -0.593841 0.436488 0
M  V30 7414 H 701.211 -1.02041 1.60273 0
M  V30 7415 H 699.361 -3.50018 1.68581 0
M  V30 7416 H 701.033 -2.2959 4.00107 0
M  V30 7417 H 699.276 -2.09856 3.79662 0
M  V30 7418 H 699.947 -3.70552 4.09139 0
M  V30 7419 H 702.423 -3.54986 2.17081 0
M  V30 7420 H 701.299 -4.89916 2.47536 0
M  V30 7421 H 701.56 -4.3424 0.829943 0
M  V30 7422 N 700.619 -1.13374 -1.09472 0
M  V30 7423 C 701.567 -0.806105 -2.18185 0
M  V30 7424 C 702.561 0.21136 -1.68076 0
M  V30 7425 O 703.767 0.0685558 -1.79869 0
M  V30 7426 H 700.142 -0.242901 -0.71169 0
M  V30 7427 H 702.113 -1.73115 -2.43051 0
M  V30 7428 C 700.862 -0.287928 -3.46506 0
M  V30 7429 H 700.185 -1.06217 -3.85432 0
M  V30 7430 H 701.625 -0.0971054 -4.23889 0
M  V30 7431 C 700.084 0.986256 -3.22141 0
M  V30 7432 O 700.614 2.06217 -3.44728 0
M  V30 7433 N 698.82 0.917153 -2.75747 0
M  V30 7434 H 698.367 0.0414609 -2.57567 0
M  V30 7435 H 698.325 1.77029 -2.59823 0
M  V30 7436 N 702.098 1.27442 -0.927168 0
M  V30 7437 C 703.326 1.98498 -0.583622 0
M  V30 7438 C 703.741 1.69171 0.838241 0
M  V30 7439 O 703.098 0.951969 1.55704 0
M  V30 7440 C 703.149 3.52552 -0.799341 0
M  V30 7441 O 702.87 3.80851 -2.16527 0
M  V30 7442 C 704.371 4.4086 -0.464436 0
M  V30 7443 H 701.591 0.633487 -0.221213 0
M  V30 7444 H 704.135 1.62308 -1.24404 0
M  V30 7445 H 702.29 3.86955 -0.185728 0
M  V30 7446 H 702.704 4.75441 -2.21487 0
M  V30 7447 H 704.178 5.47967 -0.666075 0
M  V30 7448 H 704.655 4.35082 0.599995 0
M  V30 7449 H 705.261 4.11977 -1.05617 0
M  V30 7450 N 703.576 0.692616 1.41565 0
M  V30 7451 C 704.486 0.0258451 2.34586 0
M  V30 7452 C 705.502 -0.769324 1.56069 0
M  V30 7453 O 706.678 -0.707563 1.88562 0
M  V30 7454 C 703.743 -0.901289 3.3478 0
M  V30 7455 C 702.804 -0.0986579 4.29187 0
M  V30 7456 C 702.037 -0.981634 5.24595 0
M  V30 7457 O 702.26 -2.22115 5.25377 0
M  V30 7458 O 701.194 -0.432892 6.00341 0
M  V30 7459 H 705.02 0.792537 2.93177 0
M  V30 7460 H 702.605 0.452935 1.42369 0
M  V30 7461 H 704.487 -1.43302 3.96286 0
M  V30 7462 H 703.162 -1.64752 2.78637 0
M  V30 7463 H 702.069 0.477604 3.71039 0
M  V30 7464 H 703.402 0.608848 4.8842 0
M  V30 7465 N 705.054 -1.51416 0.437162 0
M  V30 7466 C 706.002 -2.29328 -0.388765 0
M  V30 7467 C 706.996 -1.35171 -1.02104 0
M  V30 7468 O 708.202 -1.52513 -0.956024 0
M  V30 7469 H 704.577 -0.738048 -0.144183 0
M  V30 7470 H 706.548 -2.96995 0.289212 0
M  V30 7471 C 705.297 -3.14741 -1.47761 0
M  V30 7472 H 704.62 -3.8708 -1.00045 0
M  V30 7473 H 706.06 -3.72313 -2.02877 0
M  V30 7474 C 704.519 -2.30105 -2.46076 0
M  V30 7475 O 705.049 -1.96055 -3.50607 0
M  V30 7476 N 703.255 -1.93331 -2.1696 0
M  V30 7477 H 702.802 -2.2122 -1.31983 0
M  V30 7478 H 702.76 -1.36999 -2.82982 0
M  V30 7479 N 706.532 -0.168513 -1.56696 0
M  V30 7480 C 707.778 0.477865 -1.9709 0
M  V30 7481 C 708.111 1.63084 -1.05438 0
M  V30 7482 O 707.386 1.94238 -0.10095 0
M  V30 7483 C 707.669 0.963521 -3.4697 0
M  V30 7484 C 707.522 -0.189443 -4.49401 0
M  V30 7485 C 708.841 1.83813 -3.99876 0
M  V30 7486 H 705.96 0.172229 -0.716593 0
M  V30 7487 H 708.602 -0.254083 -1.88293 0
M  V30 7488 H 706.752 1.58724 -3.54597 0
M  V30 7489 H 708.424 -0.826451 -4.53836 0
M  V30 7490 H 706.667 -0.845366 -4.25483 0
M  V30 7491 H 707.338 0.192446 -5.51664 0
M  V30 7492 H 709.814 1.31235 -3.94863 0
M  V30 7493 H 708.69 2.14697 -5.0517 0
M  V30 7494 H 708.951 2.78289 -3.43523 0
M  V30 7495 N 708.01 1.57248 0.105221 0
M  V30 7496 C 709.235 1.90143 0.828264 0
M  V30 7497 C 709.66 0.761811 1.71983 0
M  V30 7498 O 709.018 -0.287086 1.79013 0
M  V30 7499 C 709.066 3.21856 1.62608 0
M  V30 7500 O 708.17 3.08732 2.7342 0
M  V30 7501 H 707.511 0.623558 0.228192 0
M  V30 7502 H 710.041 2.0443 0.0834826 0
M  V30 7503 H 710.051 3.54916 2.01243 0
M  V30 7504 H 708.726 4.0439 0.971687 0
M  V30 7505 H 707.303 2.87167 2.37886 0
M  V30 7506 N 709.488 -0.375779 1.53054 0
M  V30 7507 C 710.736 -1.11727 1.68409 0
M  V30 7508 C 711.057 -1.90127 0.43323 0
M  V30 7509 O 710.327 -1.87945 -0.552595 0
M  V30 7510 H 708.907 -0.415451 0.620813 0
M  V30 7511 H 711.569 -0.424869 1.90213 0
M  V30 7512 H 710.665 -1.8128 2.54055 0
M  V30 7513 N 710.966 -1.44241 -0.634997 0
M  V30 7514 C 711.876 -1.53293 -1.77591 0
M  V30 7515 C 712.892 -0.418831 -1.68884 0
M  V30 7516 O 714.068 -0.675619 -1.8973 0
M  V30 7517 C 711.133 -1.47075 -3.13958 0
M  V30 7518 C 710.194 -2.69304 -3.34326 0
M  V30 7519 C 709.427 -2.63374 -4.64187 0
M  V30 7520 O 709.65 -1.69161 -5.44739 0
M  V30 7521 O 708.584 -3.54166 -4.86673 0
M  V30 7522 H 712.41 -2.49673 -1.72908 0
M  V30 7523 H 709.995 -1.26445 -0.795745 0
M  V30 7524 H 711.877 -1.46117 -3.95257 0
M  V30 7525 H 710.552 -0.538373 -3.19192 0
M  V30 7526 H 709.459 -2.75831 -2.52721 0
M  V30 7527 H 710.792 -3.61576 -3.33951 0
M  V30 7528 N 712.444 0.87505 -1.31075 0
M  V30 7529 C 713.692 1.62447 -1.20231 0
M  V30 7530 C 714.013 1.93506 0.240888 0
M  V30 7531 O 713.283 1.57847 1.16022 0
M  V30 7532 H 711.863 0.602207 -0.441991 0
M  V30 7533 H 714.525 1.04788 -1.64334 0
M  V30 7534 H 713.621 2.57031 -1.77036 0
M  V30 7535 N 713.922 1.13953 1.08869 0
M  V30 7536 C 714.832 0.835666 2.19212 0
M  V30 7537 C 715.848 -0.182005 1.73045 0
M  V30 7538 O 717.024 -0.0116661 2.01397 0
M  V30 7539 C 714.089 0.312325 3.4529 0
M  V30 7540 C 713.15 1.39196 4.06107 0
M  V30 7541 C 712.383 0.893496 5.26168 0
M  V30 7542 O 712.606 -0.266807 5.69776 0
M  V30 7543 O 711.54 1.67037 5.78258 0
M  V30 7544 H 715.366 1.75769 2.47667 0
M  V30 7545 H 712.951 0.917421 1.17914 0
M  V30 7546 H 714.833 0.0261582 4.21392 0
M  V30 7547 H 713.508 -0.582042 3.18424 0
M  V30 7548 H 712.415 1.73152 3.31616 0
M  V30 7549 H 713.748 2.26068 4.37212 0
M  V30 7550 N 715.4 -1.26948 0.933913 0
M  V30 7551 C 716.348 -2.2862 0.428463 0
M  V30 7552 C 717.342 -1.62144 -0.490464 0
M  V30 7553 O 718.548 -1.76167 -0.36948 0
M  V30 7554 H 714.923 -0.742363 0.120003 0
M  V30 7555 H 716.894 -2.68659 1.29865 0
M  V30 7556 C 715.643 -3.46423 -0.29774 0
M  V30 7557 H 714.966 -3.97792 0.400183 0
M  V30 7558 H 716.406 -4.19505 -0.615736 0
M  V30 7559 C 714.865 -3.01017 -1.51295 0
M  V30 7560 O 715.395 -3.05226 -2.61151 0
M  V30 7561 N 713.601 -2.56442 -1.36696 0
M  V30 7562 H 713.148 -2.53217 -0.473178 0
M  V30 7563 H 713.106 -2.26424 -2.18127 0
M  V30 7564 N 716.879 -0.700114 -1.41195 0
M  V30 7565 C 718.295 -0.372114 -1.55201 0
M  V30 7566 C 718.495 1.12053 -1.6747 0
M  V30 7567 O 717.551 1.90642 -1.65566 0
M  V30 7568 C 718.864 -1.12462 -2.78878 0
M  V30 7569 C 720.412 -1.10941 -2.92679 0
M  V30 7570 C 720.887 -1.84376 -4.19249 0
M  V30 7571 N 722.378 -1.81368 -4.26216 0
M  V30 7572 C 723.113 -2.35024 -5.23021 0
M  V30 7573 N 722.609 -2.9717 -6.25829 0
M  V30 7574 N 724.402 -2.25254 -5.14992 0
M  V30 7575 H 716.553 -1.66816 -1.31477 0
M  V30 7576 H 718.816 -0.704223 -0.634644 0
M  V30 7577 H 718.522 -2.17937 -2.76037 0
M  V30 7578 H 718.396 -0.706152 -3.70531 0
M  V30 7579 H 720.783 -0.062911 -2.95033 0
M  V30 7580 H 720.864 -1.56698 -2.02187 0
M  V30 7581 H 720.508 -2.89008 -4.17656 0
M  V30 7582 H 720.438 -1.3605 -5.08722 0
M  V30 7583 H 722.929 -1.36062 -3.52556 0
M  V30 7584 H 723.242 -3.35668 -6.96094 0
M  V30 7585 H 721.587 -3.01249 -6.26318 0
M  V30 7586 H 724.778 -1.76372 -4.33602 0
M  V30 7587 H 724.951 -2.67373 -5.90268 0
M  V30 7588 N 718.357 1.51182 -0.445186 0
M  V30 7589 C 719.605 2.01753 0.11841 0
M  V30 7590 C 719.926 1.33087 1.42523 0
M  V30 7591 O 719.196 0.467891 1.9023 0
M  V30 7592 H 717.776 0.745536 0.0467492 0
M  V30 7593 H 720.438 1.85765 -0.589688 0
M  V30 7594 H 719.534 3.10762 0.288665 0
M  V30 7595 N 719.835 0.176821 1.56605 0
M  V30 7596 C 721.075 -0.469104 1.98944 0
M  V30 7597 C 721.439 -1.60048 1.06059 0
M  V30 7598 O 722.64 -2.30934 1.3756 0
M  V30 7599 C 720.911 -0.934571 3.44965 0
M  V30 7600 S 722.47 -1.58091 4.09332 0
M  V30 7601 H 719.288 -0.150695 0.694847 0
M  V30 7602 H 721.89 0.27558 1.93548 0
M  V30 7603 H 720.594 -0.100814 4.10276 0
M  V30 7604 H 720.125 -1.71316 3.54139 0
M  V30 7605 H 722.14 -2.86922 4.04834 0
M  V30 7606 N 721.313 -1.57302 -0.09688 0
M  V30 7607 C 722.553 -1.87823 -0.806334 0
M  V30 7608 C 722.917 -0.767593 -1.75989 0
M  V30 7609 O 724.118 -0.955173 -2.51257 0
M  V30 7610 C 722.389 -3.23585 -1.51749 0
M  V30 7611 S 723.948 -3.75795 -2.26547 0
M  V30 7612 H 720.766 -0.658281 -0.268676 0
M  V30 7613 H 723.368 -1.95397 -0.0635476 0
M  V30 7614 H 722.072 -4.0234 -0.809348 0
M  V30 7615 H 721.603 -3.19145 -2.30021 0
M  V30 7616 H 723.618 -3.49068 -3.52656 0
M  V30 7617 N 722.791 0.367657 -1.53252 0
M  V30 7618 C 724.039 1.10832 -1.68999 0
M  V30 7619 C 724.36 1.89894 -0.443306 0
M  V30 7620 O 723.63 1.88235 0.54262 0
M  V30 7621 H 722.21 0.412153 -0.623008 0
M  V30 7622 H 724.872 0.414775 -1.90435 0
M  V30 7623 H 723.968 1.7993 -2.55013 0
M  V30 7624 N 724.269 1.44576 0.627338 0
M  V30 7625 C 725.494 1.51271 1.41887 0
M  V30 7626 C 725.919 0.139814 1.8758 0
M  V30 7627 O 725.277 -0.871746 1.58966 0
M  V30 7628 C 725.325 2.48529 2.61277 0
M  V30 7629 O 724.429 1.98944 3.61241 0
M  V30 7630 H 723.77 0.510668 0.424399 0
M  V30 7631 H 726.3 1.89746 0.765356 0
M  V30 7632 H 726.31 2.66689 3.08773 0
M  V30 7633 H 724.985 3.48249 2.27366 0
M  V30 7634 H 723.562 1.90568 3.20528 0
M  V30 7635 N 725.747 -0.868086 1.31537 0
M  V30 7636 C 726.677 -1.99131 1.21939 0
M  V30 7637 C 727.658 -1.69768 0.106166 0
M  V30 7638 O 728.843 -1.92006 0.291081 0
M  V30 7639 C 725.973 -3.34676 0.927879 0
M  V30 7640 C 724.927 -3.7835 2.00088 0
M  V30 7641 C 724.253 -5.11375 1.56203 0
M  V30 7642 C 725.553 -3.95256 3.41424 0
M  V30 7643 H 727.247 -2.07419 2.15911 0
M  V30 7644 H 724.793 -0.996569 1.03945 0
M  V30 7645 H 726.746 -4.12793 0.847327 0
M  V30 7646 H 725.47 -3.26565 -0.0475042 0
M  V30 7647 H 724.129 -3.02474 2.07135 0
M  V30 7648 H 723.777 -4.99709 0.57445 0
M  V30 7649 H 723.477 -5.41568 2.27985 0
M  V30 7650 H 725.001 -5.92001 1.49558 0
M  V30 7651 H 726.415 -4.63764 3.3704 0
M  V30 7652 H 724.812 -4.36849 4.1144 0
M  V30 7653 H 725.882 -2.98579 3.82072 0
M  V30 7654 N 727.225 -1.14528 -1.08264 0
M  V30 7655 C 728.465 -0.924808 -1.82282 0
M  V30 7656 C 728.829 0.538881 -1.84283 0
M  V30 7657 O 730.03 0.877355 -2.54079 0
M  V30 7658 C 728.301 -1.51102 -3.23887 0
M  V30 7659 S 729.86 -1.43232 -4.14765 0
M  V30 7660 H 726.678 -0.333052 -0.62817 0
M  V30 7661 H 729.28 -1.45905 -1.30123 0
M  V30 7662 H 727.984 -2.56942 -3.20014 0
M  V30 7663 H 727.515 -0.975234 -3.8112 0
M  V30 7664 H 729.53 -0.418843 -4.94429 0
M  V30 7665 N 728.703 1.26451 -0.940633 0
M  V30 7666 C 729.635 2.25556 -0.407104 0
M  V30 7667 C 730.648 1.55888 0.469324 0
M  V30 7668 O 731.837 1.76292 0.279858 0
M  V30 7669 C 728.937 3.36109 0.434064 0
M  V30 7670 C 728.11 4.3532 -0.426082 0
M  V30 7671 C 727.169 5.25004 0.354563 0
M  V30 7672 O 726.195 5.68684 -0.242219 0
M  V30 7673 N 727.397 5.5652 1.65123 0
M  V30 7674 H 730.162 2.7197 -1.25907 0
M  V30 7675 H 727.723 1.40212 -0.809456 0
M  V30 7676 H 729.715 3.93059 0.963684 0
M  V30 7677 H 728.285 2.89194 1.18683 0
M  V30 7678 H 727.505 3.77449 -1.13692 0
M  V30 7679 H 728.793 4.986 -1.01366 0
M  V30 7680 H 728.191 5.22912 2.15822 0
M  V30 7681 H 726.748 6.16115 2.12711 0
M  V30 7682 N 730.181 0.707592 1.40822 0
M  V30 7683 C 731.144 0.0587224 2.29125 0
M  V30 7684 C 732.144 -0.695624 1.44975 0
M  V30 7685 O 733.334 -0.528718 1.65983 0
M  V30 7686 C 730.466 -0.926939 3.28056 0
M  V30 7687 H 731.659 0.836349 2.88002 0
M  V30 7688 H 729.212 0.471778 1.4901 0
M  V30 7689 H 729.947 -1.7319 2.74182 0
M  V30 7690 H 729.732 -0.389015 3.90165 0
M  V30 7691 H 731.222 -1.37837 3.94196 0
M  V30 7692 N 731.66 -1.50943 0.453197 0
M  V30 7693 C 732.909 -2.01402 -0.10951 0
M  V30 7694 C 733.222 -1.3411 -1.42386 0
M  V30 7695 O 734.428 -1.75626 -2.07045 0
M  V30 7696 C 732.884 -3.5906 -0.245693 0
M  V30 7697 C 732.492 -4.353 1.05916 0
M  V30 7698 C 734.236 -4.17617 -0.761318 0
M  V30 7699 C 732.143 -5.84699 0.887752 0
M  V30 7700 H 731.073 -0.752674 -0.0447013 0
M  V30 7701 H 733.724 -1.73913 0.585375 0
M  V30 7702 H 732.106 -3.83062 -1.00395 0
M  V30 7703 H 733.28 -4.23034 1.82698 0
M  V30 7704 H 731.595 -3.88269 1.50452 0
M  V30 7705 H 734.192 -5.26963 -0.906306 0
M  V30 7706 H 734.535 -3.77824 -1.74799 0
M  V30 7707 H 735.068 -3.97753 -0.0609416 0
M  V30 7708 H 731.807 -6.28933 1.84726 0
M  V30 7709 H 731.327 -5.99587 0.160006 0
M  V30 7710 H 733.006 -6.44682 0.547223 0
M  V30 7711 N 733.138 -0.185124 -1.56509 0
M  V30 7712 C 734.363 0.465278 -2.02114 0
M  V30 7713 C 734.788 1.55083 -1.06447 0
M  V30 7714 O 734.146 1.81241 -0.0462852 0
M  V30 7715 C 734.194 1.00784 -3.46229 0
M  V30 7716 O 733.298 2.12123 -3.53663 0
M  V30 7717 H 732.639 0.109891 -0.654843 0
M  V30 7718 H 735.169 -0.293072 -2.0249 0
M  V30 7719 H 735.179 1.32697 -3.85818 0
M  V30 7720 H 733.854 0.213113 -4.15354 0
M  V30 7721 H 732.431 1.8115 -3.25943 0
M  V30 7722 N 734.616 1.57351 0.0885366 0
M  V30 7723 C 735.563 2.02523 1.10693 0
M  V30 7724 C 736.533 0.902736 1.39427 0
M  V30 7725 O 737.718 1.16921 1.50779 0
M  V30 7726 C 734.858 2.46013 2.42016 0
M  V30 7727 C 733.971 3.7181 2.19957 0
M  V30 7728 C 733.106 4.04152 3.44724 0
M  V30 7729 C 732.145 5.2304 3.17956 0
M  V30 7730 N 731.282 5.51102 4.35007 0
M  V30 7731 H 736.122 2.89302 0.714742 0
M  V30 7732 H 733.659 1.43084 0.341378 0
M  V30 7733 H 735.617 2.69274 3.18665 0
M  V30 7734 H 734.247 1.62235 2.79069 0
M  V30 7735 H 733.299 3.55987 1.34079 0
M  V30 7736 H 734.611 4.58604 1.96173 0
M  V30 7737 H 733.765 4.28225 4.29777 0
M  V30 7738 H 732.504 3.15893 3.71568 0
M  V30 7739 H 731.509 4.98781 2.31296 0
M  V30 7740 H 732.734 6.12902 2.92451 0
M  V30 7741 H 730.68 4.65802 4.61914 0
M  V30 7742 H 730.597 6.3228 4.14437 0
M  V30 7743 H 731.865 5.79714 5.21106 0
M  V30 7744 N 736.094 -0.359525 1.53444 0
M  V30 7745 C 737.319 -1.12644 1.74144 0
M  V30 7746 C 737.744 -1.82082 0.472007 0
M  V30 7747 O 737.102 -1.71962 -0.57436 0
M  V30 7748 C 737.15 -2.12781 2.9113 0
M  V30 7749 O 736.254 -3.19984 2.60162 0
M  V30 7750 H 735.595 -0.326553 0.578152 0
M  V30 7751 H 738.125 -0.414798 2.00351 0
M  V30 7752 H 738.135 -2.56278 3.17467 0
M  V30 7753 H 736.81 -1.61634 3.83207 0
M  V30 7754 H 735.387 -2.81417 2.44661 0
M  V30 7755 N 737.572 -1.44907 -0.619662 0
M  V30 7756 C 738.519 -1.52654 -1.73105 0
M  V30 7757 C 739.489 -0.373334 -1.6185 0
M  V30 7758 O 740.674 -0.585143 -1.81606 0
M  V30 7759 C 737.814 -1.48769 -3.11387 0
M  V30 7760 C 736.927 -2.74551 -3.33535 0
M  V30 7761 C 736.062 -2.62421 -4.61854 0
M  V30 7762 C 735.101 -3.83312 -4.77219 0
M  V30 7763 N 734.238 -3.69789 -5.96826 0
M  V30 7764 H 739.078 -2.47605 -1.65819 0
M  V30 7765 H 736.615 -1.22875 -0.808719 0
M  V30 7766 H 738.573 -1.44507 -3.91374 0
M  V30 7767 H 737.203 -0.573783 -3.1766 0
M  V30 7768 H 736.255 -2.88953 -2.47408 0
M  V30 7769 H 737.567 -3.64253 -3.40765 0
M  V30 7770 H 736.721 -2.56056 -5.50019 0
M  V30 7771 H 735.46 -1.70298 -4.57001 0
M  V30 7772 H 734.465 -3.90049 -3.87481 0
M  V30 7773 H 735.69 -4.76486 -4.83878 0
M  V30 7774 H 733.636 -2.80426 -5.93041 0
M  V30 7775 H 733.553 -4.53116 -6.05163 0
M  V30 7776 H 734.821 -3.67335 -6.87521 0
M  V30 7777 N 739.05 0.861098 -1.31996 0
M  V30 7778 C 739.98 1.98482 -1.22993 0
M  V30 7779 C 740.961 1.6971 -0.115168 0
M  V30 7780 O 742.146 1.91849 -0.30126 0
M  V30 7781 C 739.276 3.34179 -0.945615 0
M  V30 7782 C 738.23 3.77284 -2.02091 0
M  V30 7783 C 737.556 5.1054 -1.58912 0
M  V30 7784 C 738.856 3.93439 -3.43515 0
M  V30 7785 H 740.55 2.06271 -2.17008 0
M  V30 7786 H 738.096 0.991043 -1.04472 0
M  V30 7787 H 740.049 4.12338 -0.869206 0
M  V30 7788 H 738.773 3.26586 0.0301849 0
M  V30 7789 H 737.432 3.01371 -2.08737 0
M  V30 7790 H 737.08 4.99397 -0.600942 0
M  V30 7791 H 736.78 5.40352 -2.30854 0
M  V30 7792 H 738.304 5.91199 -1.52696 0
M  V30 7793 H 739.718 4.6197 -3.39495 0
M  V30 7794 H 738.115 4.34661 -4.13751 0
M  V30 7795 H 739.185 2.96548 -3.8365 0
M  V30 7796 N 740.528 1.15101 1.07655 0
M  V30 7797 C 741.753 0.948177 1.84457 0
M  V30 7798 C 742.178 -0.498432 1.81376 0
M  V30 7799 O 741.536 -1.35509 1.20445 0
M  V30 7800 C 741.584 1.46318 3.29581 0
M  V30 7801 O 740.688 0.660342 4.07079 0
M  V30 7802 H 740.029 0.338428 0.571281 0
M  V30 7803 H 742.559 1.5301 1.35828 0
M  V30 7804 H 742.569 1.47468 3.80417 0
M  V30 7805 H 741.244 2.51635 3.31138 0
M  V30 7806 H 739.821 0.718216 3.65918 0
M  V30 7807 N 742.006 -1.2595 0.947325 0
M  V30 7808 C 743.422 -1.45737 0.650597 0
M  V30 7809 C 743.622 -1.85189 -0.794188 0
M  V30 7810 O 742.678 -1.97738 -1.57022 0
M  V30 7811 C 743.991 -2.53505 1.61728 0
M  V30 7812 C 745.539 -2.67351 1.62765 0
M  V30 7813 C 746.014 -3.78296 2.58179 0
M  V30 7814 N 747.505 -3.85696 2.56501 0
M  V30 7815 C 748.24 -4.71012 3.2701 0
M  V30 7816 N 747.736 -5.60669 4.06966 0
M  V30 7817 N 749.529 -4.64912 3.15932 0
M  V30 7818 H 741.68 -0.986327 1.8811 0
M  V30 7819 H 743.943 -0.494639 0.808725 0
M  V30 7820 H 743.649 -2.31357 2.6489 0
M  V30 7821 H 743.523 -3.51281 1.3741 0
M  V30 7822 H 745.91 -2.88869 0.603241 0
M  V30 7823 H 745.991 -1.69998 1.91139 0
M  V30 7824 H 745.635 -3.5753 3.60742 0
M  V30 7825 H 745.565 -4.75117 2.27093 0
M  V30 7826 H 748.056 -3.21601 1.98447 0
M  V30 7827 H 748.369 -6.22677 4.57704 0
M  V30 7828 H 746.714 -5.60402 4.11066 0
M  V30 7829 H 749.905 -3.93874 2.52945 0
M  V30 7830 H 750.078 -5.3118 3.71149 0
M  V30 7831 N 743.484 -0.715051 -1.40445 0
M  V30 7832 C 744.9 -0.388555 -1.54798 0
M  V30 7833 C 745.1 1.10271 -1.68649 0
M  V30 7834 O 744.156 1.88875 -1.67578 0
M  V30 7835 C 745.469 -1.15414 -2.77669 0
M  V30 7836 C 747.017 -1.14039 -2.91486 0
M  V30 7837 C 747.492 -1.88812 -4.1727 0
M  V30 7838 N 748.983 -1.85878 -4.24268 0
M  V30 7839 C 749.718 -2.40558 -5.20499 0
M  V30 7840 N 749.214 -3.03791 -6.22642 0
M  V30 7841 N 751.007 -2.30703 -5.12574 0
M  V30 7842 H 743.158 -1.68201 -1.297 0
M  V30 7843 H 745.421 -0.710915 -0.627139 0
M  V30 7844 H 745.127 -2.20853 -2.7371 0
M  V30 7845 H 745.001 -0.745412 -3.69761 0
M  V30 7846 H 747.388 -0.0941996 -2.9495 0
M  V30 7847 H 747.469 -1.58834 -2.00513 0
M  V30 7848 H 747.113 -2.93422 -4.14568 0
M  V30 7849 H 747.043 -1.41438 -5.0725 0
M  V30 7850 H 749.534 -1.39794 -3.51093 0
M  V30 7851 H 749.847 -3.43032 -6.92495 0
M  V30 7852 H 748.192 -3.07875 -6.23087 0
M  V30 7853 H 751.383 -1.80961 -4.31707 0
M  V30 7854 H 751.556 -2.73618 -5.87398 0
M  V30 7855 N 744.962 1.50701 -0.461195 0
M  V30 7856 C 746.208 2.03203 0.0895017 0
M  V30 7857 C 746.563 1.33768 1.38289 0
M  V30 7858 O 745.856 0.451304 1.86209 0
M  V30 7859 C 746.05 3.55788 0.33908 0
M  V30 7860 C 745.879 4.40009 -0.928571 0
M  V30 7861 C 744.649 4.83475 -1.46903 0
M  V30 7862 C 746.847 4.80972 -1.82129 0
M  V30 7863 N 744.829 5.51985 -2.68673 0
M  V30 7864 C 746.2 5.48792 -2.88491 0
M  V30 7865 C 748.255 4.62937 -1.83285 0
M  V30 7866 C 746.958 6.00489 -3.95987 0
M  V30 7867 C 748.984 5.15568 -2.89731 0
M  V30 7868 C 748.346 5.83355 -3.94812 0
M  V30 7869 H 744.445 0.781968 -0.00702462 0
M  V30 7870 H 747.029 1.84321 -0.627195 0
M  V30 7871 H 745.2 3.74636 1.02481 0
M  V30 7872 H 746.932 3.94944 0.883242 0
M  V30 7873 H 743.687 4.62495 -1.01959 0
M  V30 7874 H 744.111 5.90854 -3.30486 0
M  V30 7875 H 748.753 4.0997 -1.03366 0
M  V30 7876 H 746.471 6.52499 -4.7673 0
M  V30 7877 H 750.057 5.0345 -2.91597 0
M  V30 7878 H 748.937 6.23347 -4.75824 0
M  V30 7879 N 746.441 0.193421 1.56409 0
M  V30 7880 C 747.857 -0.162447 1.58771 0
M  V30 7881 C 748.057 -1.6116 1.20954 0
M  V30 7882 O 747.113 -2.3469 0.931497 0
M  V30 7883 C 748.426 0.138391 3.00381 0
M  V30 7884 C 749.974 0.0783649 3.12902 0
M  V30 7885 C 750.449 0.352491 4.56642 0
M  V30 7886 N 751.94 0.30105 4.62221 0
M  V30 7887 C 752.675 0.487028 5.71328 0
M  V30 7888 N 752.171 0.733265 6.88909 0
M  V30 7889 N 753.964 0.4214 5.60518 0
M  V30 7890 H 746.115 1.13909 1.79272 0
M  V30 7891 H 748.378 0.454528 0.83193 0
M  V30 7892 H 748.084 1.14312 3.32604 0
M  V30 7893 H 747.958 -0.559804 3.73023 0
M  V30 7894 H 750.345 -0.916963 2.80492 0
M  V30 7895 H 750.426 0.809611 2.4265 0
M  V30 7896 H 750.07 1.34513 4.89764 0
M  V30 7897 H 750 -0.399624 5.25081 0
M  V30 7898 H 752.491 0.117279 3.77718 0
M  V30 7899 H 752.804 0.86403 7.67955 0
M  V30 7900 H 751.149 0.770138 6.9072 0
M  V30 7901 H 754.34 0.229461 4.67537 0
M  V30 7902 H 754.513 0.569758 6.4549 0
M  V30 7903 N 747.919 -1.57396 -0.0801906 0
M  V30 7904 C 749.335 -1.53564 -0.434778 0
M  V30 7905 C 749.535 -0.912372 -1.79661 0
M  V30 7906 O 748.591 -0.511268 -2.4727 0
M  V30 7907 C 749.904 -2.98244 -0.383561 0
M  V30 7908 C 751.452 -3.09536 -0.46435 0
M  V30 7909 C 751.927 -4.55851 -0.443128 0
M  V30 7910 N 753.418 -4.60456 -0.503448 0
M  V30 7911 C 754.153 -5.71135 -0.509106 0
M  V30 7912 N 753.649 -6.91203 -0.47008 0
M  V30 7913 N 755.442 -5.59353 -0.555035 0
M  V30 7914 H 747.593 -1.96281 0.811635 0
M  V30 7915 H 749.856 -0.898041 0.303689 0
M  V30 7916 H 749.562 -3.47369 0.550236 0
M  V30 7917 H 749.436 -3.57705 -1.19694 0
M  V30 7918 H 751.823 -2.6039 -1.38857 0
M  V30 7919 H 751.904 -2.53 0.377445 0
M  V30 7920 H 751.548 -5.05653 0.477207 0
M  V30 7921 H 751.478 -5.10242 -1.30234 0
M  V30 7922 H 753.969 -3.74048 -0.538199 0
M  V30 7923 H 754.282 -7.7132 -0.478091 0
M  V30 7924 H 752.627 -6.93625 -0.436897 0
M  V30 7925 H 755.818 -4.64453 -0.583158 0
M  V30 7926 H 755.991 -6.4561 -0.555976 0
M  V30 7927 N 749.397 0.351382 -1.53633 0
M  V30 7928 C 750.643 1.09049 -1.71697 0
M  V30 7929 C 750.998 1.86563 -0.470314 0
M  V30 7930 O 750.291 1.83922 0.536954 0
M  V30 7931 C 750.485 2.06744 -2.91533 0
M  V30 7932 C 750.314 1.38832 -4.27733 0
M  V30 7933 C 749.084 1.13646 -4.92354 0
M  V30 7934 C 751.282 0.818602 -5.07743 0
M  V30 7935 N 749.264 0.422324 -6.12446 0
M  V30 7936 C 750.635 0.234602 -6.19556 0
M  V30 7937 C 752.69 0.718679 -4.92686 0
M  V30 7938 C 751.393 -0.439592 -7.17955 0
M  V30 7939 C 753.419 0.0582402 -5.91371 0
M  V30 7940 C 752.781 -0.514823 -7.02516 0
M  V30 7941 H 748.88 0.383697 -0.681396 0
M  V30 7942 H 751.464 0.375063 -1.91053 0
M  V30 7943 H 749.635 2.75586 -2.73691 0
M  V30 7944 H 751.367 2.73436 -2.98353 0
M  V30 7945 H 748.122 1.4215 -4.51764 0
M  V30 7946 H 748.546 0.0802092 -6.76952 0
M  V30 7947 H 753.188 1.14748 -4.06931 0
M  V30 7948 H 750.906 -0.880307 -8.03291 0
M  V30 7949 H 754.492 -0.0183382 -5.81797 0
M  V30 7950 H 753.372 -1.01777 -7.77567 0
M  V30 7951 N 750.875 1.45233 0.611969 0
M  V30 7952 C 751.823 1.53898 1.74408 0
M  V30 7953 C 752.817 0.409254 1.64382 0
M  V30 7954 O 754.023 0.584988 1.70229 0
M  V30 7955 H 750.398 0.483303 0.576127 0
M  V30 7956 H 752.369 2.49143 1.64227 0
M  V30 7957 C 751.118 1.51865 3.12782 0
M  V30 7958 H 750.441 2.38118 3.21154 0
M  V30 7959 H 751.881 1.61986 3.91838 0
M  V30 7960 C 750.34 0.242374 3.36027 0
M  V30 7961 O 750.87 -0.679587 3.9591 0
M  V30 7962 N 749.076 0.139448 2.90265 0
M  V30 7963 H 748.623 0.890571 2.41716 0
M  V30 7964 H 748.581 -0.713686 3.06193 0
M  V30 7965 N 752.353 -0.854086 1.3245 0
M  V30 7966 C 753.769 -1.14238 1.11453 0
M  V30 7967 C 753.969 -2.01228 -0.10461 0
M  V30 7968 O 753.025 -2.39845 -0.789339 0
M  V30 7969 C 754.338 -1.81916 2.39431 0
M  V30 7970 C 755.886 -1.94549 2.45193 0
M  V30 7971 C 756.361 -2.65642 3.73093 0
M  V30 7972 N 757.852 -2.73167 3.74078 0
M  V30 7973 C 758.587 -3.28828 4.69744 0
M  V30 7974 N 758.083 -3.85295 5.75778 0
M  V30 7975 N 759.876 -3.26936 4.57241 0
M  V30 7976 H 752.027 -0.274786 2.10615 0
M  V30 7977 H 754.29 -0.184375 0.929898 0
M  V30 7978 H 753.996 -1.25452 3.28565 0
M  V30 7979 H 753.87 -2.82068 2.50434 0
M  V30 7980 H 756.257 -2.50172 1.56518 0
M  V30 7981 H 756.338 -0.933914 2.38142 0
M  V30 7982 H 755.982 -2.10683 4.62142 0
M  V30 7983 H 755.912 -3.6724 3.77415 0
M  V30 7984 H 758.403 -2.33108 2.97438 0
M  V30 7985 H 758.716 -4.25925 6.44832 0
M  V30 7986 H 757.061 -3.83625 5.79531 0
M  V30 7987 H 760.252 -2.8207 3.7357 0
M  V30 7988 H 760.425 -3.70014 5.31971 0
M  V30 7989 N 753.831 -1.1567 -1.07043 0
M  V30 7990 C 755.078 -0.933517 -1.79699 0
M  V30 7991 C 755.406 0.539162 -1.86878 0
M  V30 7992 O 754.661 1.41592 -1.35093 0
M  V30 7993 C 754.96 -1.49677 -3.24548 0
M  V30 7994 C 754.626 -2.99047 -3.37463 0
M  V30 7995 C 753.288 -3.39824 -3.40695 0
M  V30 7996 C 755.64 -3.95027 -3.40004 0
M  V30 7997 C 752.968 -4.75215 -3.44075 0
M  V30 7998 C 755.32 -5.30295 -3.44921 0
M  V30 7999 C 753.984 -5.70562 -3.46432 0
M  V30 8000 H 753.254 -0.341598 -0.657565 0
M  V30 8001 H 755.901 -1.44263 -1.25938 0
M  V30 8002 H 754.206 -0.908915 -3.81111 0
M  V30 8003 H 755.903 -1.29986 -3.79348 0
M  V30 8004 H 752.493 -2.6653 -3.35648 0
M  V30 8005 H 756.677 -3.64596 -3.36725 0
M  V30 8006 H 751.933 -5.05754 -3.43545 0
M  V30 8007 H 756.107 -6.0446 -3.45833 0
M  V30 8008 H 753.734 -6.75456 -3.48803 0
M  V30 8009 N 755.309 1.25446 -0.953992 0
M  V30 8010 C 756.257 2.27909 -0.46478 0
M  V30 8011 C 757.251 1.62904 0.464607 0
M  V30 8012 O 758.457 1.76733 0.341407 0
M  V30 8013 H 754.832 0.74036 -0.131798 0
M  V30 8014 H 756.803 2.66559 -1.34122 0
M  V30 8015 C 755.552 3.46853 0.242589 0
M  V30 8016 H 754.875 3.97105 -0.463418 0
M  V30 8017 H 756.315 4.20432 0.548919 0
M  V30 8018 C 754.774 3.03386 1.46487 0
M  V30 8019 O 755.304 3.09342 2.56262 0
M  V30 8020 N 753.51 2.58584 1.32599 0
M  V30 8021 H 753.057 2.53938 0.432834 0
M  V30 8022 H 753.015 2.29866 2.14497 0
M  V30 8023 N 756.787 0.722489 1.40064 0
M  V30 8024 C 758.203 0.396758 1.5459 0
M  V30 8025 C 758.403 -1.09375 1.69232 0
M  V30 8026 O 757.459 -1.87984 1.68578 0
M  V30 8027 C 758.772 1.16885 2.77053 0
M  V30 8028 C 760.32 1.15583 2.90877 0
M  V30 8029 C 760.795 1.91023 4.16262 0
M  V30 8030 N 762.286 1.88126 4.23276 0
M  V30 8031 C 763.021 2.43315 5.19216 0
M  V30 8032 N 762.517 3.07089 6.21022 0
M  V30 8033 N 764.31 2.33418 5.11344 0
M  V30 8034 H 756.461 1.68887 1.28806 0
M  V30 8035 H 758.724 0.714231 0.62336 0
M  V30 8036 H 758.43 2.22301 2.72534 0
M  V30 8037 H 758.304 0.765011 3.69361 0
M  V30 8038 H 760.691 0.10984 2.94896 0
M  V30 8039 H 760.772 1.59895 1.99668 0
M  V30 8040 H 760.416 2.95616 4.13006 0
M  V30 8041 H 760.346 1.44126 5.06493 0
M  V30 8042 H 762.837 1.41654 3.50346 0
M  V30 8043 H 763.15 3.467 6.90666 0
M  V30 8044 H 761.495 3.11175 6.21446 0
M  V30 8045 H 764.686 1.83248 4.30741 0
M  V30 8046 H 764.859 2.7673 5.85939 0
M  V30 8047 N 758.265 -1.50454 0.469181 0
M  V30 8048 C 759.681 -1.59124 0.123226 0
M  V30 8049 C 759.881 -1.47749 -1.37013 0
M  V30 8050 O 758.937 -1.335 -2.14322 0
M  V30 8051 C 760.25 -2.93101 0.67172 0
M  V30 8052 C 761.798 -3.06491 0.634978 0
M  V30 8053 C 762.273 -4.43041 1.16098 0
M  V30 8054 N 763.764 -4.49448 1.12031 0
M  V30 8055 C 764.499 -5.53491 1.49784 0
M  V30 8056 N 763.995 -6.64798 1.94976 0
M  V30 8057 N 765.788 -5.44025 1.41399 0
M  V30 8058 H 757.939 -1.56091 1.44046 0
M  V30 8059 H 760.202 -0.737564 0.59557 0
M  V30 8060 H 759.908 -3.06895 1.7178 0
M  V30 8061 H 759.782 -3.77027 0.114222 0
M  V30 8062 H 762.169 -2.92346 -0.402187 0
M  V30 8063 H 762.25 -2.24328 1.22926 0
M  V30 8064 H 761.894 -4.57935 2.19677 0
M  V30 8065 H 761.824 -5.23794 0.542939 0
M  V30 8066 H 764.315 -3.69575 0.788828 0
M  V30 8067 H 764.628 -7.40246 2.21936 0
M  V30 8068 H 762.973 -6.65923 1.98927 0
M  V30 8069 H 766.164 -4.55955 1.05935 0
M  V30 8070 H 766.337 -6.2499 1.71147 0
M  V30 8071 N 759.743 -0.201713 -1.56304 0
M  V30 8072 C 761.159 0.154025 -1.58855 0
M  V30 8073 C 761.359 1.60516 -1.21807 0
M  V30 8074 O 760.415 2.34193 -0.94393 0
M  V30 8075 C 761.728 -0.154319 -3.00304 0
M  V30 8076 C 763.276 -0.0949578 -3.12856 0
M  V30 8077 C 763.751 -0.376703 -4.56448 0
M  V30 8078 N 765.242 -0.325558 -4.62054 0
M  V30 8079 C 765.977 -0.51732 -5.71062 0
M  V30 8080 N 765.473 -0.769789 -6.8851 0
M  V30 8081 N 767.266 -0.45112 -5.60287 0
M  V30 8082 H 759.417 -1.14858 -1.78666 0
M  V30 8083 H 761.68 -0.458934 -0.829508 0
M  V30 8084 H 761.386 -1.16074 -3.31994 0
M  V30 8085 H 761.26 0.540014 -3.73314 0
M  V30 8086 H 763.647 0.902075 -2.80974 0
M  V30 8087 H 763.728 -0.822468 -2.42217 0
M  V30 8088 H 763.372 -1.37108 -4.89044 0
M  V30 8089 H 763.302 0.371772 -5.25286 0
M  V30 8090 H 765.793 -0.137308 -3.7765 0
M  V30 8091 H 766.106 -0.904744 -7.67486 0
M  V30 8092 H 764.451 -0.806758 -6.90302 0
M  V30 8093 H 767.642 -0.254253 -4.67409 0
M  V30 8094 H 767.815 -0.603982 -6.45179 0
M  V30 8095 N 761.222 1.57436 0.0718424 0
M  V30 8096 C 762.462 1.89082 0.776351 0
M  V30 8097 C 762.826 0.795494 1.74745 0
M  V30 8098 O 764.027 0.995025 2.49705 0
M  V30 8099 C 762.298 3.25958 1.46582 0
M  V30 8100 S 763.857 3.79352 2.2054 0
M  V30 8101 H 760.675 0.662472 0.25817 0
M  V30 8102 H 763.277 1.95473 0.0324536 0
M  V30 8103 H 761.981 4.03577 0.745237 0
M  V30 8104 H 761.512 3.22764 2.24915 0
M  V30 8105 H 763.527 3.54634 3.47058 0
M  V30 8106 N 762.7 -0.34323 1.53817 0
M  V30 8107 C 764.116 -0.686355 1.44088 0
M  V30 8108 C 764.316 -1.92426 0.597882 0
M  V30 8109 O 763.372 -2.52343 0.0889918 0
M  V30 8110 C 764.685 -0.878698 2.87575 0
M  V30 8111 C 766.233 -0.977296 2.97352 0
M  V30 8112 C 766.708 -1.20195 4.41947 0
M  V30 8113 N 768.199 -1.26915 4.45474 0
M  V30 8114 C 768.934 -1.46049 5.54488 0
M  V30 8115 N 768.43 -1.62354 6.73508 0
M  V30 8116 N 770.223 -1.48599 5.42102 0
M  V30 8117 H 762.374 0.470679 2.07119 0
M  V30 8118 H 764.637 0.148652 0.936273 0
M  V30 8119 H 764.343 -0.040602 3.51677 0
M  V30 8120 H 764.217 -1.78034 3.32541 0
M  V30 8121 H 766.604 -1.80591 2.3339 0
M  V30 8122 H 766.685 -0.0525498 2.55746 0
M  V30 8123 H 766.329 -0.378262 5.06489 0
M  V30 8124 H 766.259 -2.14027 4.81145 0
M  V30 8125 H 768.75 -1.15837 3.59708 0
M  V30 8126 H 769.063 -1.76591 7.52353 0
M  V30 8127 H 767.408 -1.5949 6.76453 0
M  V30 8128 H 770.599 -1.35443 4.48077 0
M  V30 8129 H 770.772 -1.6317 6.2712 0
M  V30 8130 N 764.178 -1.45556 -0.604258 0
M  V30 8131 C 765.141 -1.54091 -1.69672 0
M  V30 8132 C 766.141 -0.420076 -1.55216 0
M  V30 8133 O 767.331 -0.683671 -1.60224 0
M  V30 8134 C 764.463 -1.44063 -3.08964 0
M  V30 8135 H 765.656 -2.51431 -1.6347 0
M  V30 8136 H 763.209 -1.33046 -0.820273 0
M  V30 8137 H 763.944 -0.479201 -3.2074 0
M  V30 8138 H 763.729 -2.25362 -3.20865 0
M  V30 8139 H 765.219 -1.53075 -3.88533 0
M  V30 8140 N 765.656 0.84705 -1.32902 0
M  V30 8141 C 766.619 1.9378 -1.224 0
M  V30 8142 C 767.619 1.60144 -0.145108 0
M  V30 8143 O 768.809 1.69638 -0.396058 0
M  V30 8144 C 765.941 3.29234 -0.884174 0
M  V30 8145 H 767.134 2.04518 -2.19345 0
M  V30 8146 H 764.687 1.03816 -1.16842 0
M  V30 8147 H 765.422 3.24193 0.0831277 0
M  V30 8148 H 765.207 3.55026 -1.6643 0
M  V30 8149 H 766.697 4.09162 -0.835226 0
M  V30 8150 N 767.134 1.16236 1.06428 0
M  V30 8151 C 768.38 0.944431 1.79467 0
M  V30 8152 C 768.713 -0.526558 1.86925 0
M  V30 8153 O 767.988 -1.39061 1.35986 0
M  V30 8154 C 768.271 1.57092 3.24028 0
M  V30 8155 C 768.124 3.11315 3.24658 0
M  V30 8156 C 769.443 1.26447 4.21544 0
M  V30 8157 H 766.562 0.344521 0.651517 0
M  V30 8158 H 769.204 1.43545 1.24478 0
M  V30 8159 H 767.354 1.15337 3.70985 0
M  V30 8160 H 769.026 3.62042 2.85873 0
M  V30 8161 H 767.269 3.44716 2.6335 0
M  V30 8162 H 767.94 3.50269 4.26633 0
M  V30 8163 H 770.416 1.62581 3.83023 0
M  V30 8164 H 769.292 1.72885 5.20963 0
M  V30 8165 H 769.553 0.183068 4.41721 0
M  V30 8166 N 768.612 -1.24939 0.960631 0
M  V30 8167 C 769.559 -2.25658 0.484459 0
M  V30 8168 C 770.529 -1.59422 -0.466242 0
M  V30 8169 O 771.714 -1.87015 -0.378169 0
M  V30 8170 C 768.854 -3.44359 -0.225958 0
M  V30 8171 C 767.967 -4.25214 0.762682 0
M  V30 8172 C 767.102 -5.31192 0.0290931 0
M  V30 8173 C 766.141 -6.03739 1.00827 0
M  V30 8174 N 765.278 -7.01437 0.305155 0
M  V30 8175 H 770.118 -2.65758 1.34821 0
M  V30 8176 H 767.655 -1.30648 0.675983 0
M  V30 8177 H 769.613 -4.12035 -0.654472 0
M  V30 8178 H 768.243 -3.05118 -1.05371 0
M  V30 8179 H 767.295 -3.57144 1.30966 0
M  V30 8180 H 768.607 -4.75406 1.50964 0
M  V30 8181 H 767.761 -6.04971 -0.457763 0
M  V30 8182 H 766.5 -4.81889 -0.750614 0
M  V30 8183 H 765.505 -5.2877 1.50607 0
M  V30 8184 H 766.73 -6.55131 1.7883 0
M  V30 8185 H 764.676 -6.54415 -0.455704 0
M  V30 8186 H 764.593 -7.49475 0.991104 0
M  V30 8187 H 765.861 -7.79336 -0.159966 0
M  V30 8188 N 770.09 -0.729906 -1.39679 0
M  V30 8189 C 771.315 -0.284345 -2.05442 0
M  V30 8190 C 771.74 1.07056 -1.54663 0
M  V30 8191 O 771.098 1.67732 -0.688157 0
M  V30 8192 C 771.146 -0.290089 -3.59431 0
M  V30 8193 O 770.25 0.723978 -4.05995 0
M  V30 8194 H 769.591 -0.130311 -0.651088 0
M  V30 8195 H 772.121 -0.994403 -1.78809 0
M  V30 8196 H 772.131 -0.132712 -4.07784 0
M  V30 8197 H 770.806 -1.27877 -3.95753 0
M  V30 8198 H 769.383 0.533154 -3.69069 0
M  V30 8199 N 771.568 1.50203 -0.477153 0
M  V30 8200 C 772.814 2.02658 0.0758507 0
M  V30 8201 C 773.147 1.358 1.38824 0
M  V30 8202 O 772.422 0.485696 1.88338 0
M  V30 8203 C 772.705 3.59208 0.253339 0
M  V30 8204 C 772.558 4.36629 -1.0805 0
M  V30 8205 C 773.877 4.28469 1.00509 0
M  V30 8206 H 770.996 0.736538 0.0260921 0
M  V30 8207 H 773.638 1.79464 -0.623925 0
M  V30 8208 H 771.788 3.79101 0.849378 0
M  V30 8209 H 773.46 4.28292 -1.71358 0
M  V30 8210 H 771.703 4.0013 -1.67566 0
M  V30 8211 H 772.374 5.44449 -0.909883 0
M  V30 8212 H 774.85 4.13087 0.499818 0
M  V30 8213 H 773.726 5.37804 1.09808 0
M  V30 8214 H 773.987 3.92057 2.04314 0
M  V30 8215 N 773.046 0.209999 1.56195 0
M  V30 8216 C 774.274 -0.429996 2.02382 0
M  V30 8217 C 774.689 -1.54159 1.08998 0
M  V30 8218 O 774.046 -1.82239 0.0974856 0
M  V30 8219 C 774.097 -0.972433 3.48175 0
M  V30 8220 O 773.818 0.0948231 4.37997 0
M  V30 8221 C 775.319 -1.68683 4.09952 0
M  V30 8222 H 772.539 -0.106475 0.662498 0
M  V30 8223 H 775.083 0.323072 2.01932 0
M  V30 8224 H 773.238 -1.67582 3.49278 0
M  V30 8225 H 773.652 -0.31113 5.23576 0
M  V30 8226 H 775.126 -2.01851 5.13771 0
M  V30 8227 H 775.603 -2.59587 3.54276 0
M  V30 8228 H 776.209 -1.02893 4.12666 0
M  V30 8229 N 774.524 -1.57472 -0.0634922 0
M  V30 8230 C 775.771 -1.87654 -0.761066 0
M  V30 8231 C 776.099 -0.802847 -1.77157 0
M  V30 8232 O 775.354 0.200244 -1.94673 0
M  V30 8233 C 775.653 -3.24521 -1.49736 0
M  V30 8234 C 775.319 -4.46532 -0.626065 0
M  V30 8235 C 773.981 -4.7965 -0.385978 0
M  V30 8236 C 776.333 -5.21195 -0.0224001 0
M  V30 8237 C 773.661 -5.84837 0.467118 0
M  V30 8238 C 776.013 -6.27286 0.818198 0
M  V30 8239 C 774.677 -6.58899 1.06808 0
M  V30 8240 H 773.947 -0.686675 -0.278494 0
M  V30 8241 H 776.594 -1.91488 -0.0216348 0
M  V30 8242 H 774.899 -3.16516 -2.30921 0
M  V30 8243 H 776.596 -3.45111 -2.04204 0
M  V30 8244 H 773.186 -4.20618 -0.823325 0
M  V30 8245 H 777.37 -4.95917 -0.194985 0
M  V30 8246 H 772.626 -6.07725 0.669375 0
M  V30 8247 H 776.8 -6.84298 1.29265 0
M  V30 8248 H 774.427 -7.40233 1.73088 0
M  V30 8249 N 776.003 0.335068 -1.53997 0
M  V30 8250 C 777.233 1.0926 -1.75345 0
M  V30 8251 C 777.641 1.82568 -0.496545 0
M  V30 8252 O 776.984 1.75525 0.541897 0
M  V30 8253 C 777.046 2.14473 -2.88516 0
M  V30 8254 C 776.71 1.60665 -4.27827 0
M  V30 8255 C 777.707 1.05448 -5.09094 0
M  V30 8256 C 775.392 1.65255 -4.74337 0
M  V30 8257 C 777.386 0.555372 -6.34976 0
M  V30 8258 C 775.073 1.14956 -6.0019 0
M  V30 8259 C 776.071 0.601907 -6.80343 0
M  V30 8260 O 775.759 0.106445 -8.0383 0
M  V30 8261 H 775.491 0.331329 -0.589234 0
M  V30 8262 H 778.045 0.39042 -2.01655 0
M  V30 8263 H 776.275 2.88274 -2.5775 0
M  V30 8264 H 777.964 2.75857 -2.97755 0
M  V30 8265 H 778.73 1.01218 -4.74321 0
M  V30 8266 H 774.609 2.06822 -4.12002 0
M  V30 8267 H 778.153 0.127245 -6.97484 0
M  V30 8268 H 774.05 1.18891 -6.34457 0
M  V30 8269 H 774.818 0.222944 -8.18196 0
M  V30 8270 N 777.481 1.45874 0.596531 0
M  V30 8271 C 778.727 1.51679 1.35518 0
M  V30 8272 C 779.082 0.160681 1.91728 0
M  V30 8273 O 778.375 -0.828886 1.72743 0
M  V30 8274 C 778.569 2.54034 2.51399 0
M  V30 8275 C 778.398 3.99465 2.06538 0
M  V30 8276 C 777.168 4.67321 1.92196 0
M  V30 8277 C 779.366 4.87674 1.63336 0
M  V30 8278 N 777.348 5.97427 1.41261 0
M  V30 8279 C 778.719 6.07495 1.23895 0
M  V30 8280 C 780.774 4.74442 1.51028 0
M  V30 8281 C 779.477 7.15548 0.733739 0
M  V30 8282 C 781.503 5.82553 1.0191 0
M  V30 8283 C 780.865 7.01537 0.634403 0
M  V30 8284 H 776.964 0.609933 0.489393 0
M  V30 8285 H 779.548 1.82411 0.680746 0
M  V30 8286 H 777.719 2.25235 3.16424 0
M  V30 8287 H 779.451 2.49918 3.18313 0
M  V30 8288 H 776.206 4.22635 2.1372 0
M  V30 8289 H 776.63 6.66638 1.17995 0
M  V30 8290 H 781.272 3.82855 1.79393 0
M  V30 8291 H 778.99 8.06914 0.437656 0
M  V30 8292 H 782.576 5.74352 0.927977 0
M  V30 8293 H 781.456 7.83768 0.26019 0
M  V30 8294 N 778.959 -0.83999 1.33349 0
M  V30 8295 C 779.889 -1.965 1.26135 0
M  V30 8296 C 780.87 -1.69505 0.142152 0
M  V30 8297 O 782.055 -1.91346 0.331743 0
M  V30 8298 C 779.185 -3.32632 0.99866 0
M  V30 8299 C 778.139 -3.74021 2.08068 0
M  V30 8300 C 777.465 -5.07947 1.67014 0
M  V30 8301 C 778.765 -3.87925 3.49731 0
M  V30 8302 H 780.459 -2.02793 2.20262 0
M  V30 8303 H 778.005 -0.974297 1.06035 0
M  V30 8304 H 779.958 -4.10903 0.934696 0
M  V30 8305 H 778.682 -3.26593 0.0217759 0
M  V30 8306 H 777.341 -2.98012 2.13505 0
M  V30 8307 H 776.989 -4.98378 0.680316 0
M  V30 8308 H 776.689 -5.36611 2.39422 0
M  V30 8309 H 778.213 -5.88695 1.62082 0
M  V30 8310 H 779.627 -4.5651 3.46802 0
M  V30 8311 H 778.024 -4.28023 4.20614 0
M  V30 8312 H 779.094 -2.90407 3.88319 0
M  V30 8313 N 780.437 -1.16799 -1.0581 0
M  V30 8314 C 781.683 -0.953935 -1.78963 0
M  V30 8315 C 782.016 0.516638 -1.87202 0
M  V30 8316 O 781.291 1.38338 -1.36721 0
M  V30 8317 C 781.574 -1.58808 -3.23191 0
M  V30 8318 C 781.427 -3.13032 -3.23003 0
M  V30 8319 C 782.746 -1.2868 -4.20867 0
M  V30 8320 H 779.865 -0.347972 -0.64968 0
M  V30 8321 H 782.507 -1.44204 -1.23715 0
M  V30 8322 H 780.657 -1.17303 -3.70368 0
M  V30 8323 H 782.329 -3.63553 -2.83949 0
M  V30 8324 H 780.572 -3.46108 -2.61518 0
M  V30 8325 H 781.243 -3.52527 -4.24769 0
M  V30 8326 H 783.719 -1.6461 -3.82155 0
M  V30 8327 H 782.595 -1.75645 -5.20038 0
M  V30 8328 H 782.856 -0.206491 -4.41618 0
M  V30 8329 N 781.915 1.24427 -0.967243 0
M  V30 8330 C 783.164 1.91789 -0.624478 0
M  V30 8331 C 783.477 1.76448 0.844129 0
M  V30 8332 O 784.683 2.38495 1.2974 0
M  V30 8333 C 783.139 3.43743 -1.06626 0
M  V30 8334 C 782.747 3.67771 -2.55829 0
M  V30 8335 C 784.491 4.16958 -0.79662 0
M  V30 8336 C 782.398 5.13293 -2.93742 0
M  V30 8337 H 781.328 0.71811 -0.229856 0
M  V30 8338 H 783.979 1.41081 -1.17339 0
M  V30 8339 H 782.361 3.93484 -0.445663 0
M  V30 8340 H 783.535 3.28631 -3.23015 0
M  V30 8341 H 781.85 3.07841 -2.80398 0
M  V30 8342 H 784.447 5.24171 -1.05589 0
M  V30 8343 H 784.79 4.15442 0.267163 0
M  V30 8344 H 785.323 3.73164 -1.37816 0
M  V30 8345 H 782.062 5.19931 -3.9919 0
M  V30 8346 H 781.582 5.53433 -2.3124 0
M  V30 8347 H 783.261 5.81521 -2.83623 0
M  V30 8348 N 783.393 0.737304 1.3929 0
M  V30 8349 C 784.639 0.286681 2.00763 0
M  V30 8350 C 784.972 -1.12388 1.58375 0
M  V30 8351 O 784.247 -1.76661 0.813699 0
M  V30 8352 C 784.53 0.391147 3.57969 0
M  V30 8353 C 784.383 1.84165 4.1037 0
M  V30 8354 C 785.702 -0.225072 4.39524 0
M  V30 8355 H 782.821 0.105642 0.729389 0
M  V30 8356 H 785.463 0.933892 1.65464 0
M  V30 8357 H 783.613 -0.159875 3.88171 0
M  V30 8358 H 785.285 2.44972 3.90879 0
M  V30 8359 H 783.528 2.3622 3.63844 0
M  V30 8360 H 784.199 1.866 5.19504 0
M  V30 8361 H 786.675 0.244677 4.1538 0
M  V30 8362 H 785.551 -0.121646 5.48765 0
M  V30 8363 H 785.812 -1.31141 4.22202 0
M  V30 8364 N 784.871 -1.49948 0.485112 0
M  V30 8365 C 785.801 -2.31675 -0.291364 0
M  V30 8366 C 786.782 -1.39216 -0.977383 0
M  V30 8367 O 787.967 -1.68133 -0.971855 0
M  V30 8368 C 785.097 -3.19326 -1.36558 0
M  V30 8369 C 784.051 -4.2045 -0.800359 0
M  V30 8370 C 783.377 -4.96931 -1.97391 0
M  V30 8371 C 784.677 -5.21925 0.197867 0
M  V30 8372 H 786.371 -2.96839 0.390775 0
M  V30 8373 H 783.917 -1.42749 0.189375 0
M  V30 8374 H 785.87 -3.75304 -1.91638 0
M  V30 8375 H 784.594 -2.52074 -2.07668 0
M  V30 8376 H 783.253 -3.65594 -0.271428 0
M  V30 8377 H 782.901 -4.26141 -2.67232 0
M  V30 8378 H 782.601 -5.65344 -1.60187 0
M  V30 8379 H 784.125 -5.55749 -2.52935 0
M  V30 8380 H 785.539 -5.72691 -0.264239 0
M  V30 8381 H 783.936 -5.98138 0.484908 0
M  V30 8382 H 785.006 -4.71809 1.11912 0
M  V30 8383 N 786.349 -0.21828 -1.56081 0
M  V30 8384 C 787.595 0.414921 -1.9851 0
M  V30 8385 C 787.928 1.59648 -1.10573 0
M  V30 8386 O 787.203 1.93818 -0.162695 0
M  V30 8387 C 787.486 0.852647 -3.4986 0
M  V30 8388 C 787.339 -0.33232 -4.48571 0
M  V30 8389 C 788.658 1.70998 -4.05521 0
M  V30 8390 H 785.777 0.149344 -0.72171 0
M  V30 8391 H 788.419 -0.313858 -1.8739 0
M  V30 8392 H 786.569 1.47362 -3.59467 0
M  V30 8393 H 788.241 -0.970418 -4.50977 0
M  V30 8394 H 786.484 -0.980302 -4.22578 0
M  V30 8395 H 787.155 0.0168407 -5.51997 0
M  V30 8396 H 789.631 1.18606 -3.98838 0
M  V30 8397 H 788.507 1.98517 -5.11744 0
M  V30 8398 H 788.768 2.67219 -3.52202 0
M  V30 8399 N 787.827 1.57504 0.0551401 0
M  V30 8400 C 789.074 1.88055 0.751104 0
M  V30 8401 C 789.402 0.812231 1.76729 0
M  V30 8402 O 788.657 -0.189918 1.94776 0
M  V30 8403 C 788.956 3.25311 1.48013 0
M  V30 8404 C 788.622 4.46858 0.602375 0
M  V30 8405 C 787.284 4.79847 0.360536 0
M  V30 8406 C 789.636 5.212 -0.00524047 0
M  V30 8407 C 786.964 5.84582 -0.498127 0
M  V30 8408 C 789.316 6.26844 -0.851453 0
M  V30 8409 C 787.98 6.58324 -1.103 0
M  V30 8410 H 787.25 0.688142 0.274848 0
M  V30 8411 H 789.897 1.91497 0.0114795 0
M  V30 8412 H 788.202 3.17737 2.29239 0
M  V30 8413 H 789.899 3.46189 2.02371 0
M  V30 8414 H 786.489 4.21049 0.801007 0
M  V30 8415 H 790.673 4.96013 0.168682 0
M  V30 8416 H 785.929 6.07361 -0.701594 0
M  V30 8417 H 790.103 6.83603 -1.32893 0
M  V30 8418 H 787.73 7.39304 -1.77011 0
M  V30 8419 N 789.305 -0.326896 1.54172 0
M  V30 8420 C 790.235 -1.40741 1.86317 0
M  V30 8421 C 791.216 -1.54125 0.719684 0
M  V30 8422 O 792.401 -1.6806 0.973117 0
M  V30 8423 C 789.531 -2.77557 2.08757 0
M  V30 8424 C 788.485 -2.78965 3.24596 0
M  V30 8425 C 787.811 -4.18824 3.32401 0
M  V30 8426 C 789.111 -2.4301 4.62324 0
M  V30 8427 H 790.805 -1.14088 2.76811 0
M  V30 8428 H 788.351 -0.547389 1.3319 0
M  V30 8429 H 790.304 -3.53209 2.29829 0
M  V30 8430 H 789.028 -3.0568 1.15009 0
M  V30 8431 H 787.687 -2.05767 3.03406 0
M  V30 8432 H 787.335 -4.44083 2.36218 0
M  V30 8433 H 787.035 -4.20673 4.10253 0
M  V30 8434 H 788.559 -4.96294 3.55703 0
M  V30 8435 H 789.973 -3.08375 4.83299 0
M  V30 8436 H 788.37 -2.56116 5.42701 0
M  V30 8437 H 789.44 -1.38165 4.64799 0
M  V30 8438 N 790.784 -1.46188 -0.588786 0
M  V30 8439 C 791.732 -1.56653 -1.71938 0
M  V30 8440 C 792.726 -0.435354 -1.6371 0
M  V30 8441 O 793.932 -0.611996 -1.69277 0
M  V30 8442 H 790.307 -0.492408 -0.568365 0
M  V30 8443 H 792.278 -2.51724 -1.60242 0
M  V30 8444 C 791.027 -1.56822 -3.10326 0
M  V30 8445 H 790.35 -2.43198 -3.17325 0
M  V30 8446 H 791.79 -1.68199 -3.89211 0
M  V30 8447 C 790.249 -0.295802 -3.35599 0
M  V30 8448 O 790.779 0.616515 -3.96941 0
M  V30 8449 N 788.985 -0.185609 -2.90007 0
M  V30 8450 H 788.532 -0.928914 -2.40269 0
M  V30 8451 H 788.49 0.664883 -3.07289 0
M  V30 8452 N 792.262 0.832906 -1.33792 0
M  V30 8453 C 793.49 1.62048 -1.28639 0
M  V30 8454 C 793.905 1.88269 0.141522 0
M  V30 8455 O 793.262 1.46706 1.08553 0
M  V30 8456 C 793.313 2.96722 -2.0649 0
M  V30 8457 O 793.034 2.7165 -3.43712 0
M  V30 8458 C 794.535 3.91144 -2.08617 0
M  V30 8459 H 791.755 0.504032 -0.442937 0
M  V30 8460 H 794.299 1.03704 -1.76255 0
M  V30 8461 H 792.454 3.51652 -1.62541 0
M  V30 8462 H 792.868 3.57453 -3.83833 0
M  V30 8463 H 794.342 4.82837 -2.67531 0
M  V30 8464 H 794.819 4.25766 -1.07796 0
M  V30 8465 H 795.425 3.42152 -2.52611 0
M  V30 8466 N 793.74 1.17359 1.05189 0
M  V30 8467 C 794.67 0.91365 2.14883 0
M  V30 8468 C 795.651 -0.144365 1.69486 0
M  V30 8469 O 796.836 0.00587861 1.94199 0
M  V30 8470 C 793.966 0.426196 3.44675 0
M  V30 8471 C 792.92 1.4234 4.03638 0
M  V30 8472 C 792.246 0.793902 5.28773 0
M  V30 8473 C 793.546 2.7966 4.41121 0
M  V30 8474 H 795.24 1.831 2.36885 0
M  V30 8475 H 792.786 0.881781 1.13845 0
M  V30 8476 H 794.739 0.231767 4.20762 0
M  V30 8477 H 793.463 -0.526693 3.22325 0
M  V30 8478 H 792.122 1.60457 3.2962 0
M  V30 8479 H 791.77 -0.165824 5.02727 0
M  V30 8480 H 791.47 1.45959 5.69183 0
M  V30 8481 H 792.994 0.609747 6.07548 0
M  V30 8482 H 794.408 2.6526 5.08242 0
M  V30 8483 H 792.805 3.42807 4.92548 0
M  V30 8484 H 793.875 3.34068 3.51464 0
M  V30 8485 N 795.218 -1.23913 0.973828 0
M  V30 8486 C 796.446 -1.96195 0.656891 0
M  V30 8487 C 796.861 -1.72166 -0.774876 0
M  V30 8488 O 796.218 -1.0091 -1.52064 0
M  V30 8489 C 796.269 -3.49342 0.929638 0
M  V30 8490 O 795.99 -3.72553 2.30512 0
M  V30 8491 C 797.491 -4.38833 0.627739 0
M  V30 8492 H 794.711 -0.624841 0.244572 0
M  V30 8493 H 797.255 -1.57579 1.30343 0
M  V30 8494 H 795.41 -3.85999 0.329216 0
M  V30 8495 H 795.824 -4.66893 2.3898 0
M  V30 8496 H 797.298 -5.45117 0.868991 0
M  V30 8497 H 797.775 -4.37009 -0.438104 0
M  V30 8498 H 798.381 -4.07773 1.20834 0
M  V30 8499 N 796.696 -0.74468 -1.38897 0
M  V30 8500 C 797.945 -0.293716 -1.9955 0
M  V30 8501 C 798.258 1.12831 -1.59777 0
M  V30 8502 O 799.464 1.67929 -2.13336 0
M  V30 8503 C 797.92 -0.474188 -3.56762 0
M  V30 8504 C 797.528 -1.90472 -4.05493 0
M  V30 8505 C 799.272 -0.0854875 -4.24414 0
M  V30 8506 C 797.179 -2.03423 -5.55314 0
M  V30 8507 H 796.109 -0.106066 -0.746502 0
M  V30 8508 H 798.76 -0.919948 -1.58774 0
M  V30 8509 H 797.142 0.221092 -3.95382 0
M  V30 8510 H 798.316 -2.63274 -3.78184 0
M  V30 8511 H 796.631 -2.24752 -3.50536 0
M  V30 8512 H 799.228 -0.161133 -5.34457 0
M  V30 8513 H 799.571 0.96066 -4.05064 0
M  V30 8514 H 800.104 -0.732286 -3.91002 0
M  V30 8515 H 796.843 -3.0626 -5.79556 0
M  V30 8516 H 796.363 -1.3507 -5.84394 0
M  V30 8517 H 798.042 -1.81996 -6.20876 0
M  V30 8518 N 798.174 1.49689 -0.493057 0
M  V30 8519 C 799.399 2.07331 0.0535114 0
M  V30 8520 C 799.824 1.35196 1.30781 0
M  V30 8521 O 799.182 0.406246 1.7669 0
M  V30 8522 C 799.23 3.59364 0.29825 0
M  V30 8523 O 798.334 3.88819 1.37454 0
M  V30 8524 H 797.675 0.663612 -0.0227018 0
M  V30 8525 H 800.205 1.926 -0.690402 0
M  V30 8526 H 800.215 4.04515 0.532159 0
M  V30 8527 H 798.89 4.1128 -0.618207 0
M  V30 8528 H 797.467 3.55487 1.12621 0
M  V30 8529 N 799.652 0.226554 1.55963 0
M  V30 8530 C 800.877 -0.411527 2.03276 0
M  V30 8531 C 801.302 -1.52206 1.10521 0
M  V30 8532 O 800.66 -1.81054 0.0943217 0
M  V30 8533 C 800.708 -0.915694 3.4878 0
M  V30 8534 O 799.812 -2.02672 3.59163 0
M  V30 8535 H 799.153 -0.0924907 0.657527 0
M  V30 8536 H 801.683 0.346656 2.01642 0
M  V30 8537 H 801.693 -1.22421 3.892 0
M  V30 8538 H 800.368 -0.102915 4.15773 0
M  V30 8539 H 798.945 -1.72445 3.30632 0
M  V30 8540 N 801.13 -1.57531 -0.0467866 0
M  V30 8541 C 802.04 -2.08768 -1.07018 0
M  V30 8542 C 803.056 -1.02245 -1.40791 0
M  V30 8543 O 804.232 -1.33873 -1.50466 0
M  V30 8544 C 801.297 -2.54221 -2.35738 0
M  V30 8545 C 800.358 -3.75152 -2.08709 0
M  V30 8546 C 799.591 -4.18428 -3.31291 0
M  V30 8547 O 799.814 -3.61365 -4.4133 0
M  V30 8548 O 798.748 -5.11018 -3.18032 0
M  V30 8549 H 802.574 -2.96334 -0.664812 0
M  V30 8550 H 800.159 -1.47074 -0.262605 0
M  V30 8551 H 802.041 -2.83866 -3.11445 0
M  V30 8552 H 800.716 -1.69774 -2.75605 0
M  V30 8553 H 799.623 -3.50553 -1.30627 0
M  V30 8554 H 800.956 -4.60528 -1.73708 0
M  V30 8555 N 802.608 0.318715 -1.54344 0
M  V30 8556 C 803.558 1.39364 -1.80448 0
M  V30 8557 C 804.542 1.46708 -0.660728 0
M  V30 8558 O 805.734 1.51159 -0.920869 0
M  V30 8559 C 802.863 2.76144 -2.03959 0
M  V30 8560 C 801.949 2.73094 -3.24469 0
M  V30 8561 N 802.34 2.39663 -4.45416 0
M  V30 8562 C 800.638 3.04218 -3.2614 0
M  V30 8563 C 801.339 2.45469 -5.27371 0
M  V30 8564 N 800.315 2.82107 -4.64668 0
M  V30 8565 H 804.117 1.12453 -2.71535 0
M  V30 8566 H 801.631 0.527221 -1.53604 0
M  V30 8567 H 803.628 3.53627 -2.20802 0
M  V30 8568 H 802.288 3.03982 -1.14129 0
M  V30 8569 H 803.299 2.12424 -4.72331 0
M  V30 8570 H 799.976 3.37066 -2.4636 0
M  V30 8571 H 801.366 2.22571 -6.33965 0
M  V30 8572 N 804.086 1.46499 0.581025 0
M  V30 8573 C 805.316 1.55244 1.36319 0
M  V30 8574 C 805.724 0.193059 1.88212 0
M  V30 8575 O 805.067 -0.820109 1.64377 0
M  V30 8576 C 805.129 2.498 2.58535 0
M  V30 8577 C 804.793 3.96007 2.28096 0
M  V30 8578 C 805.79 4.85171 1.8683 0
M  V30 8579 C 803.475 4.41152 2.40189 0
M  V30 8580 C 805.469 6.17493 1.58053 0
M  V30 8581 C 803.156 5.73508 2.11024 0
M  V30 8582 C 804.154 6.615 1.70021 0
M  V30 8583 O 803.842 7.914 1.41215 0
M  V30 8584 H 803.574 0.527513 0.422736 0
M  V30 8585 H 806.128 1.92623 0.713139 0
M  V30 8586 H 804.358 2.07443 3.2635 0
M  V30 8587 H 806.047 2.48934 3.20604 0
M  V30 8588 H 806.813 4.51548 1.77001 0
M  V30 8589 H 802.692 3.72886 2.71066 0
M  V30 8590 H 806.236 6.86131 1.25974 0
M  V30 8591 H 802.133 6.06679 2.20478 0
M  V30 8592 H 802.901 8.03681 1.55046 0
M  V30 8593 N 805.565 -0.825799 1.34232 0
M  V30 8594 C 806.513 -1.95792 1.25572 0
M  V30 8595 C 807.507 -1.68695 0.154404 0
M  V30 8596 O 808.713 -1.77147 0.319196 0
M  V30 8597 H 805.088 -0.642949 0.390027 0
M  V30 8598 H 807.059 -2.00219 2.21258 0
M  V30 8599 C 805.808 -3.32245 1.02511 0
M  V30 8600 H 805.131 -3.53642 1.86487 0
M  V30 8601 H 806.571 -4.1192 1.00487 0
M  V30 8602 C 805.03 -3.35803 -0.27167 0
M  V30 8603 O 805.56 -3.80962 -1.274 0
M  V30 8604 N 803.766 -2.89008 -0.303778 0
M  V30 8605 H 803.313 -2.52451 0.512464 0
M  V30 8606 H 803.271 -2.9177 -1.17121 0
M  V30 8607 N 807.043 -1.17915 -1.04565 0
M  V30 8608 C 807.975 -0.859359 -2.1248 0
M  V30 8609 C 808.988 0.140922 -1.62189 0
M  V30 8610 O 810.177 -0.0862361 -1.78292 0
M  V30 8611 C 807.277 -0.261811 -3.37887 0
M  V30 8612 C 806.45 -1.30651 -4.17431 0
M  V30 8613 C 805.509 -0.725575 -5.21174 0
M  V30 8614 O 804.535 -1.39901 -5.51739 0
M  V30 8615 N 805.737 0.479351 -5.78517 0
M  V30 8616 H 808.502 -1.78818 -2.40508 0
M  V30 8617 H 806.063 -1.07885 -1.20716 0
M  V30 8618 H 808.055 0.14028 -4.04457 0
M  V30 8619 H 806.625 0.570929 -3.07342 0
M  V30 8620 H 805.845 -1.88412 -3.46258 0
M  V30 8621 H 807.133 -2.01099 -4.67372 0
M  V30 8622 H 806.531 1.04431 -5.55977 0
M  V30 8623 H 805.088 0.823427 -6.46578 0
M  V30 8624 N 808.521 1.23394 -0.980386 0
M  V30 8625 C 809.932 1.73631 -0.686239 0
M  V30 8626 C 810.283 1.79259 0.797541 0
M  V30 8627 O 809.408 1.43046 1.62379 0
M  V30 8628 C 810.003 3.15332 -1.239 0
M  V30 8629 C 808.562 3.63024 -0.994494 0
M  V30 8630 C 807.709 2.41279 -1.36673 0
M  V30 8631 H 810.66 1.08918 -1.15423 0
M  V30 8632 H 810.681 3.75556 -0.611414 0
M  V30 8633 H 810.193 3.11204 -2.31892 0
M  V30 8634 H 808.294 3.72535 0.0693492 0
M  V30 8635 H 808.407 4.49825 -1.64906 0
M  V30 8636 H 806.771 2.42295 -0.785195 0
M  V30 8637 H 807.554 2.39822 -2.45642 0
M  V30 8638 N 809.999 0.752036 1.385 0
M  V30 8639 C 811.276 0.233075 1.94206 0
M  V30 8640 C 811.656 -1.26838 1.68746 0
M  V30 8641 O 811.004 -2.04214 1.02513 0
M  V30 8642 C 811.214 0.58509 3.44061 0
M  V30 8643 C 812.562 0.543871 4.21102 0
M  V30 8644 O 813.586 0.523291 3.52335 0
M  V30 8645 O 812.445 0.553436 5.4369 0
M  V30 8646 H 809.539 0.0483049 0.825588 0
M  V30 8647 H 812.085 0.832053 1.47902 0
M  V30 8648 H 810.857 1.62212 3.56094 0
M  V30 8649 H 810.48 -0.0419738 3.97578 0
M  V30 8650 N 811.477 -1.49425 0.500989 0
M  V30 8651 C 812.723 -2.03369 -0.0355945 0
M  V30 8652 C 813.078 -1.37387 -1.34694 0
M  V30 8653 O 812.371 -0.500516 -1.84947 0
M  V30 8654 C 812.565 -3.56562 -0.24463 0
M  V30 8655 C 812.394 -4.37392 1.04491 0
M  V30 8656 C 811.164 -4.7941 1.59669 0
M  V30 8657 C 813.362 -4.75974 1.94817 0
M  V30 8658 N 811.344 -5.44668 2.83214 0
M  V30 8659 C 812.715 -5.4095 3.0294 0
M  V30 8660 C 814.77 -4.57915 1.95495 0
M  V30 8661 C 813.473 -5.89779 4.11768 0
M  V30 8662 C 815.499 -5.07705 3.03298 0
M  V30 8663 C 814.861 -5.72682 4.1014 0
M  V30 8664 H 810.96 -0.781507 0.0277547 0
M  V30 8665 H 813.544 -1.82594 0.675844 0
M  V30 8666 H 811.715 -3.77221 -0.925126 0
M  V30 8667 H 813.447 -3.97147 -0.778219 0
M  V30 8668 H 810.202 -4.59629 1.14185 0
M  V30 8669 H 810.626 -5.81884 3.46035 0
M  V30 8670 H 815.268 -4.07085 1.14199 0
M  V30 8671 H 812.986 -6.3963 4.93862 0
M  V30 8672 H 816.572 -4.95542 3.04843 0
M  V30 8673 H 815.452 -6.10512 4.92184 0
M  V30 8674 N 812.955 -0.234822 -1.55841 0
M  V30 8675 C 813.885 0.664217 -2.23854 0
M  V30 8676 C 814.866 1.19076 -1.2147 0
M  V30 8677 O 816.051 1.23232 -1.50091 0
M  V30 8678 C 813.181 1.86666 -2.9287 0
M  V30 8679 C 812.135 1.47341 -4.01839 0
M  V30 8680 C 811.461 2.75571 -4.58219 0
M  V30 8681 C 812.761 0.653479 -5.18196 0
M  V30 8682 H 814.455 0.0971213 -2.99242 0
M  V30 8683 H 812.001 0.0452724 -1.43929 0
M  V30 8684 H 813.954 2.50116 -3.39146 0
M  V30 8685 H 812.678 2.45894 -2.1495 0
M  V30 8686 H 811.337 0.862314 -3.56314 0
M  V30 8687 H 810.985 3.32971 -3.77014 0
M  V30 8688 H 810.685 2.49987 -5.31771 0
M  V30 8689 H 812.209 3.39939 -5.07221 0
M  V30 8690 H 813.623 1.19198 -5.60771 0
M  V30 8691 H 812.02 0.494188 -5.98062 0
M  V30 8692 H 813.09 -0.337004 -4.83728 0
M  V30 8693 N 814.433 1.57553 0.0384317 0
M  V30 8694 C 815.661 1.93093 0.743141 0
M  V30 8695 C 816.076 0.833787 1.69391 0
M  V30 8696 O 815.433 -0.190532 1.81503 0
M  V30 8697 C 815.484 3.28533 1.50826 0
M  V30 8698 O 815.205 4.34032 0.595665 0
M  V30 8699 C 816.706 3.78297 2.31098 0
M  V30 8700 H 813.926 0.637486 0.20941 0
M  V30 8701 H 816.47 2.045 -0.00125154 0
M  V30 8702 H 814.625 3.18552 2.20462 0
M  V30 8703 H 815.039 5.12155 1.13124 0
M  V30 8704 H 816.513 4.75602 2.80191 0
M  V30 8705 H 816.99 3.09008 3.12107 0
M  V30 8706 H 817.596 3.91331 1.66555 0
M  V30 8707 N 815.911 -0.310526 1.54511 0
M  V30 8708 C 816.843 -1.40405 1.8116 0
M  V30 8709 C 817.856 -1.47261 0.694114 0
M  V30 8710 O 819.045 -1.49751 0.971441 0
M  V30 8711 C 816.145 -2.78849 1.92604 0
M  V30 8712 C 815.318 -2.95041 3.22908 0
M  V30 8713 C 814.377 -4.13925 3.24889 0
M  V30 8714 O 813.403 -4.06463 3.98467 0
M  V30 8715 N 814.605 -5.24099 2.496 0
M  V30 8716 H 817.37 -1.17903 2.75534 0
M  V30 8717 H 814.931 -0.500564 1.53967 0
M  V30 8718 H 816.923 -3.5661 1.91342 0
M  V30 8719 H 815.493 -2.94342 1.05268 0
M  V30 8720 H 814.713 -2.04472 3.37023 0
M  V30 8721 H 816.001 -3.02763 4.08916 0
M  V30 8722 H 815.399 -5.33039 1.89435 0
M  V30 8723 H 813.956 -6.0023 2.54102 0
M  V30 8724 N 817.389 -1.46805 -0.573248 0
M  V30 8725 C 818.638 -1.51868 -1.32736 0
M  V30 8726 C 818.951 -0.178765 -1.94781 0
M  V30 8727 O 820.157 -0.107272 -2.71288 0
M  V30 8728 C 818.613 -2.67641 -2.40616 0
M  V30 8729 C 818.221 -4.08094 -1.84832 0
M  V30 8730 C 819.965 -2.81984 -3.17309 0
M  V30 8731 C 817.872 -5.15193 -2.90397 0
M  V30 8732 H 816.802 -0.56523 -0.49903 0
M  V30 8733 H 819.453 -1.7304 -0.610695 0
M  V30 8734 H 817.835 -2.39818 -3.15124 0
M  V30 8735 H 819.009 -4.45751 -1.16803 0
M  V30 8736 H 817.324 -3.985 -1.20775 0
M  V30 8737 H 819.921 -3.59166 -3.96111 0
M  V30 8738 H 820.264 -1.89842 -3.70494 0
M  V30 8739 H 820.797 -3.095 -2.4991 0
M  V30 8740 H 817.536 -6.09158 -2.42088 0
M  V30 8741 H 817.056 -4.82071 -3.56886 0
M  V30 8742 H 818.735 -5.41448 -3.54179 0
M  V30 8743 N 818.867 0.818669 -1.34668 0
M  V30 8744 C 819.799 1.93754 -1.22442 0
M  V30 8745 C 820.812 1.62103 -0.150501 0
M  V30 8746 O 822.001 1.73898 -0.402728 0
M  V30 8747 C 819.101 3.27806 -0.860031 0
M  V30 8748 C 818.274 3.8745 -2.02981 0
M  V30 8749 C 817.333 4.99887 -1.64314 0
M  V30 8750 O 816.359 5.17957 -2.36029 0
M  V30 8751 N 817.561 5.77795 -0.55976 0
M  V30 8752 H 820.326 2.04773 -2.18833 0
M  V30 8753 H 817.887 0.995472 -1.27679 0
M  V30 8754 H 819.879 4.00478 -0.583068 0
M  V30 8755 H 818.449 3.12597 0.0138253 0
M  V30 8756 H 817.669 3.07119 -2.47127 0
M  V30 8757 H 818.957 4.2403 -2.81204 0
M  V30 8758 H 818.355 5.65688 0.0363329 0
M  V30 8759 H 816.912 6.50899 -0.342541 0
M  V30 8760 N 820.346 1.18468 1.03938 0
M  V30 8761 C 821.623 0.890435 1.74157 0
M  V30 8762 C 822.003 -0.606409 2.02203 0
M  V30 8763 O 821.351 -1.5615 1.66822 0
M  V30 8764 C 821.561 1.73906 3.02585 0
M  V30 8765 C 822.909 1.96686 3.76297 0
M  V30 8766 O 823.933 1.70969 3.12487 0
M  V30 8767 O 822.792 2.39986 4.90988 0
M  V30 8768 H 819.886 0.330889 0.757919 0
M  V30 8769 H 822.432 1.29228 1.09992 0
M  V30 8770 H 821.204 2.75369 2.78006 0
M  V30 8771 H 820.827 1.33581 3.74489 0
M  V30 8772 N 821.824 -1.22873 0.986916 0
M  V30 8773 C 823.073 -1.90772 0.654911 0
M  V30 8774 C 823.386 -1.77768 -0.81595 0
M  V30 8775 O 824.592 -2.40529 -1.25929 0
M  V30 8776 C 823.048 -3.42003 1.12081 0
M  V30 8777 C 822.656 -3.63655 2.61647 0
M  V30 8778 C 824.4 -4.15638 0.862854 0
M  V30 8779 C 822.307 -5.08555 3.01871 0
M  V30 8780 H 821.237 -0.714362 0.241252 0
M  V30 8781 H 823.888 -1.39196 1.19568 0
M  V30 8782 H 822.27 -3.92725 0.508207 0
M  V30 8783 H 823.444 -3.2345 3.28202 0
M  V30 8784 H 821.759 -3.03341 2.8526 0
M  V30 8785 H 824.356 -5.22425 1.13915 0
M  V30 8786 H 824.699 -4.15814 -0.201036 0
M  V30 8787 H 825.232 -3.70924 1.43736 0
M  V30 8788 H 821.971 -5.13514 4.07411 0
M  V30 8789 H 821.491 -5.49684 2.40015 0
M  V30 8790 H 823.17 -5.76936 2.92839 0
M  V30 8791 N 823.302 -0.75937 -1.38099 0
M  V30 8792 C 824.265 -0.14372 -2.28749 0
M  V30 8793 C 825.265 0.641338 -1.47457 0
M  V30 8794 O 826.455 0.466751 -1.67831 0
M  V30 8795 C 823.587 0.804545 -3.3127 0
M  V30 8796 H 824.78 -0.942663 -2.847 0
M  V30 8797 H 822.333 -0.526757 -1.47156 0
M  V30 8798 H 823.068 1.62895 -2.80421 0
M  V30 8799 H 822.853 0.243939 -3.9134 0
M  V30 8800 H 824.343 1.23111 -3.99041 0
M  V30 8801 N 824.78 1.49157 -0.508906 0
M  V30 8802 C 825.728 2.30922 0.278906 0
M  V30 8803 C 826.722 1.39889 0.955382 0
M  V30 8804 O 827.928 1.56901 0.882169 0
M  V30 8805 H 824.303 0.744087 0.108805 0
M  V30 8806 H 826.274 2.95277 -0.430583 0
M  V30 8807 C 825.023 3.21432 1.32576 0
M  V30 8808 H 824.346 3.91413 0.814634 0
M  V30 8809 H 825.786 3.81568 1.84882 0
M  V30 8810 C 824.245 2.41583 2.34817 0
M  V30 8811 O 824.775 2.1256 3.40854 0
M  V30 8812 N 822.981 2.03462 2.07489 0
M  V30 8813 H 822.528 2.27265 1.21278 0
M  V30 8814 H 822.486 1.50345 2.76123 0
M  V30 8815 N 826.258 0.243083 1.55714 0
M  V30 8816 C 827.205 -0.658078 2.21219 0
M  V30 8817 C 828.175 -1.1742 1.17481 0
M  V30 8818 O 829.36 -1.22937 1.45915 0
M  V30 8819 C 826.5 -1.85104 2.91257 0
M  V30 8820 C 825.613 -1.3718 4.09641 0
M  V30 8821 C 824.748 -2.52403 4.67404 0
M  V30 8822 C 823.787 -2.01321 5.78045 0
M  V30 8823 N 822.924 -3.09896 6.30007 0
M  V30 8824 H 827.764 -0.0927854 2.97856 0
M  V30 8825 H 825.301 -0.0340375 1.47061 0
M  V30 8826 H 827.259 -2.55179 3.3006 0
M  V30 8827 H 825.889 -2.38887 2.17101 0
M  V30 8828 H 824.941 -0.565232 3.76177 0
M  V30 8829 H 826.253 -0.957409 4.89525 0
M  V30 8830 H 825.407 -3.30525 5.08761 0
M  V30 8831 H 824.146 -2.97142 3.86728 0
M  V30 8832 H 823.151 -1.21667 5.36169 0
M  V30 8833 H 824.376 -1.57556 6.6057 0
M  V30 8834 H 822.322 -3.54077 5.52237 0
M  V30 8835 H 822.239 -2.72776 7.05074 0
M  V30 8836 H 823.507 -3.8809 6.76023 0
M  V30 8837 N 827.736 -1.57571 -0.0300757 0
M  V30 8838 C 828.982 -1.89506 -0.722159 0
M  V30 8839 C 829.315 -0.840699 -1.7506 0
M  V30 8840 O 828.59 0.144358 -1.93964 0
M  V30 8841 C 828.873 -3.32081 -1.39262 0
M  V30 8842 C 828.726 -4.48211 -0.377768 0
M  V30 8843 C 830.045 -3.73557 -2.32687 0
M  V30 8844 H 827.164 -0.689213 -0.261064 0
M  V30 8845 H 829.806 -1.89994 0.0150388 0
M  V30 8846 H 827.956 -3.31796 -2.02098 0
M  V30 8847 H 829.628 -4.6063 0.248591 0
M  V30 8848 H 827.871 -4.3274 0.303045 0
M  V30 8849 H 828.542 -5.44854 -0.885347 0
M  V30 8850 H 831.018 -3.75202 -1.79896 0
M  V30 8851 H 829.894 -4.74125 -2.7658 0
M  V30 8852 H 830.155 -3.05759 -3.19317 0
M  V30 8853 N 829.214 0.302327 -1.54673 0
M  V30 8854 C 830.144 1.37759 -1.88533 0
M  V30 8855 C 831.125 1.52961 -0.744113 0
M  V30 8856 O 832.31 1.6649 -0.999731 0
M  V30 8857 C 829.44 2.74201 -2.13146 0
M  V30 8858 C 828.394 2.73765 -3.28993 0
M  V30 8859 C 827.72 4.13483 -3.39022 0
M  V30 8860 C 829.02 2.35624 -4.66132 0
M  V30 8861 H 830.714 1.0967 -2.78591 0
M  V30 8862 H 828.26 0.52613 -1.34044 0
M  V30 8863 H 830.213 3.49508 -2.35419 0
M  V30 8864 H 828.937 3.03812 -1.19858 0
M  V30 8865 H 827.596 2.00914 -3.06642 0
M  V30 8866 H 827.244 4.40269 -2.43253 0
M  V30 8867 H 826.944 4.14093 -4.16894 0
M  V30 8868 H 828.468 4.90572 -3.63553 0
M  V30 8869 H 829.882 3.00647 -4.88143 0
M  V30 8870 H 828.279 2.47449 -5.46707 0
M  V30 8871 H 829.349 1.30753 -4.66939 0
M  V30 8872 N 830.692 1.47107 0.565454 0
M  V30 8873 C 831.622 1.61846 1.68309 0
M  V30 8874 C 832.603 0.468159 1.63531 0
M  V30 8875 O 833.788 0.696504 1.8128 0
M  V30 8876 C 830.918 1.62474 3.06952 0
M  V30 8877 C 829.872 2.76649 3.26572 0
M  V30 8878 C 829.198 2.62345 4.65917 0
M  V30 8879 C 830.498 4.18319 3.12741 0
M  V30 8880 H 832.192 2.55407 1.5623 0
M  V30 8881 H 829.738 1.22916 0.750179 0
M  V30 8882 H 831.691 1.71378 3.84977 0
M  V30 8883 H 830.415 0.654692 3.19971 0
M  V30 8884 H 829.074 2.67242 2.50952 0
M  V30 8885 H 828.722 1.63386 4.75725 0
M  V30 8886 H 828.422 3.38936 4.79996 0
M  V30 8887 H 829.946 2.73165 5.46089 0
M  V30 8888 H 831.36 4.28745 3.80593 0
M  V30 8889 H 829.757 4.95632 3.38333 0
M  V30 8890 H 830.827 4.37263 2.09592 0
M  V30 8891 N 832.17 -0.811516 1.35101 0
M  V30 8892 C 833.133 -1.90467 1.27495 0
M  V30 8893 C 834.133 -1.59703 0.187516 0
M  V30 8894 O 835.323 -1.68528 0.440896 0
M  V30 8895 C 832.455 -3.26774 0.971154 0
M  V30 8896 H 833.648 -1.98631 2.2469 0
M  V30 8897 H 831.201 -1.00681 1.19553 0
M  V30 8898 H 831.936 -3.243 0.0028557 0
M  V30 8899 H 831.721 -3.50488 1.75785 0
M  V30 8900 H 833.211 -4.06804 0.943414 0
M  V30 8901 N 833.648 -1.19017 -1.03309 0
M  V30 8902 C 834.578 -0.94772 -2.13402 0
M  V30 8903 C 835.559 0.117383 -1.69694 0
M  V30 8904 O 836.744 -0.0367733 -1.94165 0
M  V30 8905 C 833.874 -0.480977 -3.43953 0
M  V30 8906 C 832.828 -1.48743 -4.01322 0
M  V30 8907 C 832.154 -0.877924 -5.27443 0
M  V30 8908 C 833.454 -2.86642 -4.36616 0
M  V30 8909 H 835.148 -1.86846 -2.33942 0
M  V30 8910 H 832.694 -0.899781 -1.12427 0
M  V30 8911 H 834.647 -0.298677 -4.2034 0
M  V30 8912 H 833.371 0.475348 -3.23122 0
M  V30 8913 H 832.03 -1.65681 -3.27025 0
M  V30 8914 H 831.678 0.0858232 -5.02927 0
M  V30 8915 H 831.378 -1.54996 -5.66789 0
M  V30 8916 H 832.902 -0.706326 -6.06501 0
M  V30 8917 H 834.316 -2.73312 -5.03958 0
M  V30 8918 H 832.713 -3.50599 -4.87032 0
M  V30 8919 H 833.783 -3.39617 -3.46105 0
M  V30 8920 N 835.127 1.22348 -0.993418 0
M  V30 8921 C 836.374 1.9111 -0.669568 0
M  V30 8922 C 836.702 1.77357 0.79843 0
M  V30 8923 O 835.957 1.13675 1.593 0
M  V30 8924 C 836.256 3.42477 -1.02197 0
M  V30 8925 C 835.922 3.7642 -2.48232 0
M  V30 8926 C 834.584 3.85395 -2.88139 0
M  V30 8927 C 836.936 3.9253 -3.42884 0
M  V30 8928 C 834.264 4.07918 -4.21687 0
M  V30 8929 C 836.616 4.16557 -4.76091 0
M  V30 8930 C 835.28 4.23757 -5.15739 0
M  V30 8931 H 834.55 0.699321 -0.245012 0
M  V30 8932 H 837.197 1.45102 -1.2497 0
M  V30 8933 H 835.502 3.90143 -0.359921 0
M  V30 8934 H 837.199 3.93935 -0.74942 0
M  V30 8935 H 833.789 3.70017 -2.16299 0
M  V30 8936 H 837.973 3.84974 -3.13224 0
M  V30 8937 H 833.229 4.11719 -4.51993 0
M  V30 8938 H 837.403 4.27966 -5.4938 0
M  V30 8939 H 835.03 4.40962 -6.19239 0
M  V30 8940 N 836.605 0.766683 1.37694 0
M  V30 8941 C 837.833 0.339939 2.04088 0
M  V30 8942 C 838.248 -1.03617 1.57826 0
M  V30 8943 O 837.605 -1.6605 0.757214 0
M  V30 8944 C 837.656 0.368269 3.59619 0
M  V30 8945 O 837.377 1.69009 4.04188 0
M  V30 8946 C 838.878 -0.0707053 4.43244 0
M  V30 8947 H 836.098 0.143189 0.655544 0
M  V30 8948 H 838.642 1.03919 1.76128 0
M  V30 8949 H 836.797 -0.282359 3.8637 0
M  V30 8950 H 837.211 1.62523 4.98685 0
M  V30 8951 H 838.685 0.000273538 5.52 0
M  V30 8952 H 839.162 -1.1204 4.24669 0
M  V30 8953 H 839.768 0.551543 4.21709 0
M  V30 8954 N 838.083 -1.48885 0.516809 0
M  V30 8955 C 839.323 -2.0439 -0.0202232 0
M  V30 8956 C 839.687 -1.38652 -1.32814 0
M  V30 8957 O 840.888 -1.84968 -1.95039 0
M  V30 8958 C 839.159 -3.57071 -0.153257 0
M  V30 8959 S 840.718 -4.34074 -0.642256 0
M  V30 8960 H 837.536 -0.710977 0.00576322 0
M  V30 8961 H 840.138 -1.82753 0.694376 0
M  V30 8962 H 838.842 -4.02454 0.803695 0
M  V30 8963 H 838.373 -3.83139 -0.892627 0
M  V30 8964 H 840.388 -4.58011 -1.90893 0
M  V30 8965 N 839.561 -0.251338 -1.55583 0
M  V30 8966 C 840.471 0.656978 -2.25213 0
M  V30 8967 C 841.487 1.18966 -1.26977 0
M  V30 8968 O 842.663 1.22499 -1.59862 0
M  V30 8969 C 839.728 1.83527 -2.94141 0
M  V30 8970 C 838.789 1.34162 -4.07798 0
M  V30 8971 C 838.022 2.46375 -4.73429 0
M  V30 8972 O 838.245 3.65205 -4.38157 0
M  V30 8973 O 837.179 2.15881 -5.61853 0
M  V30 8974 H 841.005 0.0936395 -3.03556 0
M  V30 8975 H 838.59 -0.0196638 -1.49387 0
M  V30 8976 H 840.472 2.52279 -3.3754 0
M  V30 8977 H 839.147 2.38614 -2.18735 0
M  V30 8978 H 838.054 0.621249 -3.68906 0
M  V30 8979 H 839.387 0.836779 -4.85035 0
M  V30 8980 N 841.039 1.57585 0.0217189 0
M  V30 8981 C 841.972 2.02435 1.05334 0
M  V30 8982 C 842.95 0.91006 1.34747 0
M  V30 8983 O 844.134 1.17648 1.47279 0
M  V30 8984 C 841.261 2.40362 2.38629 0
M  V30 8985 C 840.307 3.62307 2.25025 0
M  V30 8986 S 841.14 5.11141 1.59673 0
M  V30 8987 C 842.296 5.52316 2.94444 0
M  V30 8988 H 842.529 2.89621 0.671354 0
M  V30 8989 H 840.062 1.52648 0.231925 0
M  V30 8990 H 842.02 2.62883 3.15282 0
M  V30 8991 H 840.681 1.53615 2.73973 0
M  V30 8992 H 839.874 3.86523 3.23443 0
M  V30 8993 H 839.476 3.39675 1.56515 0
M  V30 8994 H 841.768 5.53449 3.90768 0
M  V30 8995 H 842.711 6.52539 2.74952 0
M  V30 8996 H 843.119 4.79834 2.97355 0
M  V30 8997 N 842.517 -0.29412 1.54831 0
M  V30 8998 C 843.447 -1.36757 1.89261 0
M  V30 8999 C 844.428 -1.52564 0.752214 0
M  V30 9000 O 845.613 -1.65958 1.00855 0
M  V30 9001 C 842.743 -2.73066 2.14597 0
M  V30 9002 C 841.697 -2.72017 3.3044 0
M  V30 9003 C 841.023 -4.11679 3.4121 0
M  V30 9004 C 842.323 -2.33149 4.67375 0
M  V30 9005 H 844.017 -1.08191 2.79169 0
M  V30 9006 H 841.563 -0.519014 1.34321 0
M  V30 9007 H 843.516 -3.48255 2.37269 0
M  V30 9008 H 842.24 -3.03172 1.21467 0
M  V30 9009 H 840.899 -1.99285 3.07703 0
M  V30 9010 H 840.547 -4.38973 2.45584 0
M  V30 9011 H 840.247 -4.11877 4.19084 0
M  V30 9012 H 841.771 -4.88637 3.6615 0
M  V30 9013 H 843.185 -2.98054 4.89731 0
M  V30 9014 H 841.582 -2.44546 5.48012 0
M  V30 9015 H 842.652 -1.28275 4.67626 0
M  V30 9016 N 843.995 -1.47404 -0.557645 0
M  V30 9017 C 845.241 -1.54235 -1.31679 0
M  V30 9018 C 845.574 -0.203782 -1.93128 0
M  V30 9019 O 844.849 0.787536 -1.77843 0
M  V30 9020 C 845.132 -2.66003 -2.42723 0
M  V30 9021 C 844.985 -4.09475 -1.86145 0
M  V30 9022 C 846.304 -2.73685 -3.44652 0
M  V30 9023 H 843.423 -0.561466 -0.477415 0
M  V30 9024 H 846.065 -1.79459 -0.624067 0
M  V30 9025 H 844.215 -2.44627 -3.01811 0
M  V30 9026 H 845.887 -4.42213 -1.31321 0
M  V30 9027 H 844.13 -4.17774 -1.16823 0
M  V30 9028 H 844.801 -4.83451 -2.66418 0
M  V30 9029 H 847.277 -2.92968 -2.95481 0
M  V30 9030 H 846.153 -3.53665 -4.19777 0
M  V30 9031 H 846.414 -1.80726 -4.03473 0
M  V30 9032 N 845.473 0.80434 -1.35529 0
M  V30 9033 C 846.42 1.91629 -1.28635 0
M  V30 9034 C 847.39 1.65348 -0.157862 0
M  V30 9035 O 848.575 1.87711 -0.341934 0
M  V30 9036 C 845.715 3.28207 -1.0665 0
M  V30 9037 C 844.828 3.66659 -2.28441 0
M  V30 9038 C 843.963 4.92279 -1.99588 0
M  V30 9039 C 843.002 5.23365 -3.1742 0
M  V30 9040 N 842.139 6.40165 -2.88328 0
M  V30 9041 H 846.979 1.96858 -2.23721 0
M  V30 9042 H 844.516 0.962871 -1.11208 0
M  V30 9043 H 846.474 4.06945 -0.919343 0
M  V30 9044 H 845.104 3.22441 -0.152253 0
M  V30 9045 H 844.156 2.83164 -2.54013 0
M  V30 9046 H 845.468 3.8559 -3.1642 0
M  V30 9047 H 844.622 5.78847 -1.81715 0
M  V30 9048 H 843.361 4.75387 -1.08896 0
M  V30 9049 H 842.366 4.35285 -3.35867 0
M  V30 9050 H 843.591 5.42185 -4.08916 0
M  V30 9051 H 841.537 6.24694 -2.00233 0
M  V30 9052 H 841.454 6.59357 -3.69843 0
M  V30 9053 H 842.722 7.29755 -2.74002 0
M  V30 9054 N 846.951 1.19563 1.02676 0
M  V30 9055 C 847.884 0.878638 2.10607 0
M  V30 9056 C 848.862 -0.165176 1.61759 0
M  V30 9057 O 850.046 -0.041014 1.88455 0
M  V30 9058 C 847.173 0.315347 3.37229 0
M  V30 9059 C 846.219 1.33855 4.04951 0
M  V30 9060 S 847.052 2.89982 4.50189 0
M  V30 9061 C 848.208 2.35202 5.80027 0
M  V30 9062 H 848.441 1.79268 2.37171 0
M  V30 9063 H 845.974 1.023 1.15646 0
M  V30 9064 H 847.932 -0.00311911 4.105 0
M  V30 9065 H 846.593 -0.577035 3.08754 0
M  V30 9066 H 845.786 0.893581 4.96015 0
M  V30 9067 H 845.388 1.60397 3.37859 0
M  V30 9068 H 847.68 1.74329 6.54687 0
M  V30 9069 H 848.623 3.24622 6.29306 0
M  V30 9070 H 849.031 1.77702 5.35801 0
M  V30 9071 N 848.429 -1.21819 0.999893 0
M  V30 9072 C 849.659 -1.94475 0.697346 0
M  V30 9073 C 850.067 -1.73991 -0.743228 0
M  V30 9074 O 849.41 -1.04042 -1.51397 0
M  V30 9075 C 849.472 -3.47204 0.932181 0
M  V30 9076 C 849.136 -3.91432 2.3586 0
M  V30 9077 C 850.133 -3.98545 3.33853 0
M  V30 9078 C 847.818 -4.23888 2.69489 0
M  V30 9079 C 849.812 -4.37499 4.63545 0
M  V30 9080 C 847.499 -4.62519 3.99399 0
M  V30 9081 C 848.497 -4.69294 4.96238 0
M  V30 9082 O 848.185 -5.07048 6.23825 0
M  V30 9083 H 847.917 -0.625419 0.256567 0
M  V30 9084 H 850.471 -1.55728 1.33933 0
M  V30 9085 H 848.701 -3.85997 0.233025 0
M  V30 9086 H 850.39 -4.01078 0.623807 0
M  V30 9087 H 851.156 -3.73654 3.09205 0
M  V30 9088 H 847.035 -4.17815 1.94812 0
M  V30 9089 H 850.579 -4.42702 5.3913 0
M  V30 9090 H 846.476 -4.86864 4.23833 0
M  V30 9091 H 847.244 -5.25098 6.27865 0
M  V30 9092 N 849.908 -0.773975 -1.37286 0
M  V30 9093 C 851.133 -0.349561 -2.04433 0
M  V30 9094 C 851.558 1.02082 -1.5799 0
M  V30 9095 O 850.916 1.65458 -0.741172 0
M  V30 9096 C 850.964 -0.404292 -3.58326 0
M  V30 9097 O 850.068 0.594447 -4.08093 0
M  V30 9098 H 849.409 -0.150959 -0.646612 0
M  V30 9099 H 851.939 -1.05079 -1.75555 0
M  V30 9100 H 851.949 -0.262378 -4.07155 0
M  V30 9101 H 850.624 -1.40403 -3.91484 0
M  V30 9102 H 849.201 0.415468 -3.70578 0
M  V30 9103 N 851.386 1.48609 -0.524698 0
M  V30 9104 C 852.316 2.32366 0.229837 0
M  V30 9105 C 853.297 1.41759 0.940129 0
M  V30 9106 O 854.482 1.7065 0.926936 0
M  V30 9107 C 851.612 3.22835 1.28043 0
M  V30 9108 C 850.566 4.22424 0.688603 0
M  V30 9109 C 849.892 5.0199 1.84146 0
M  V30 9110 C 851.192 5.21217 -0.336176 0
M  V30 9111 H 852.886 2.95698 -0.469339 0
M  V30 9112 H 850.432 1.42197 -0.227156 0
M  V30 9113 H 852.385 3.80253 1.8162 0
M  V30 9114 H 851.109 2.57492 2.00912 0
M  V30 9115 H 849.768 3.66185 0.174402 0
M  V30 9116 H 849.416 4.33076 2.5584 0
M  V30 9117 H 849.116 5.69392 1.45142 0
M  V30 9118 H 850.64 5.62259 2.38111 0
M  V30 9119 H 852.054 5.7319 0.112307 0
M  V30 9120 H 850.451 5.96642 -0.643324 0
M  V30 9121 H 851.521 4.68676 -1.24381 0
M  V30 9122 N 852.864 0.259585 1.55447 0
M  V30 9123 C 854.112 -0.360893 1.98852 0
M  V30 9124 C 854.433 -1.57535 1.14924 0
M  V30 9125 O 853.703 -1.94485 0.235025 0
M  V30 9126 H 852.283 -0.136332 0.734454 0
M  V30 9127 H 854.945 0.361319 1.91522 0
M  V30 9128 H 854.041 -0.661388 3.05012 0
M  V30 9129 N 854.342 -1.57594 -0.0133615 0
M  V30 9130 C 855.272 -2.10611 -1.00823 0
M  V30 9131 C 856.253 -1.01217 -1.36708 0
M  V30 9132 O 857.438 -1.28827 -1.45318 0
M  V30 9133 C 854.568 -2.59844 -2.30431 0
M  V30 9134 C 853.522 -3.73644 -2.08745 0
M  V30 9135 C 852.848 -4.09141 -3.4425 0
M  V30 9136 C 854.148 -5.01454 -1.46086 0
M  V30 9137 H 855.842 -2.93985 -0.566849 0
M  V30 9138 H 853.388 -1.41423 -0.271219 0
M  V30 9139 H 855.341 -2.95557 -3.00373 0
M  V30 9140 H 854.065 -1.73573 -2.76658 0
M  V30 9141 H 852.724 -3.38303 -1.41232 0
M  V30 9142 H 852.372 -3.19914 -3.88155 0
M  V30 9143 H 852.072 -4.85802 -3.3056 0
M  V30 9144 H 853.596 -4.47402 -4.15528 0
M  V30 9145 H 855.01 -5.35024 -2.05966 0
M  V30 9146 H 853.407 -5.82832 -1.42924 0
M  V30 9147 H 854.477 -4.83003 -0.428471 0
M  V30 9148 N 855.82 0.285905 -1.54985 0
M  V30 9149 C 856.752 1.37505 -1.83371 0
M  V30 9150 C 857.765 1.46138 -0.717454 0
M  V30 9151 O 858.954 1.48186 -0.995142 0
M  V30 9152 C 856.054 2.7575 -1.97016 0
M  V30 9153 C 855.227 2.89866 -3.27561 0
M  V30 9154 C 854.286 4.08704 -3.31433 0
M  V30 9155 O 853.312 4.00073 -4.04883 0
M  V30 9156 N 854.514 5.20062 -2.57907 0
M  V30 9157 H 857.279 1.13505 -2.77375 0
M  V30 9158 H 854.84 0.476006 -1.54744 0
M  V30 9159 H 856.832 3.5352 -1.96991 0
M  V30 9160 H 855.402 2.9263 -1.09938 0
M  V30 9161 H 854.622 1.99085 -3.40234 0
M  V30 9162 H 855.91 2.96219 -4.13681 0
M  V30 9163 H 855.308 5.29958 -1.97891 0
M  V30 9164 H 853.865 5.96111 -2.63619 0
M  V30 9165 N 857.298 1.47698 0.54982 0
M  V30 9166 C 858.261 1.60282 1.63837 0
M  V30 9167 C 859.261 0.477394 1.5355 0
M  V30 9168 O 860.451 0.742665 1.57576 0
M  V30 9169 C 857.583 1.55431 3.03404 0
M  V30 9170 H 858.776 2.57325 1.54026 0
M  V30 9171 H 856.329 1.35999 0.770329 0
M  V30 9172 H 857.064 0.597912 3.1874 0
M  V30 9173 H 856.849 2.37116 3.12279 0
M  V30 9174 H 858.339 1.6739 3.82584 0
M  V30 9175 N 858.776 -0.797141 1.35954 0
M  V30 9176 C 860.006 -1.5835 1.32698 0
M  V30 9177 C 860.414 -1.88959 -0.0955298 0
M  V30 9178 O 859.757 -1.49987 -1.06064 0
M  V30 9179 C 859.819 -2.93529 2.0756 0
M  V30 9180 C 859.483 -2.85688 3.56695 0
M  V30 9181 C 860.48 -2.58467 4.51099 0
M  V30 9182 C 858.165 -3.04508 3.99475 0
M  V30 9183 C 860.159 -2.50157 5.8626 0
M  V30 9184 C 857.846 -2.9582 5.34728 0
M  V30 9185 C 858.844 -2.68681 6.27933 0
M  V30 9186 O 858.532 -2.59973 7.60703 0
M  V30 9187 H 858.264 -0.49807 0.457059 0
M  V30 9188 H 860.818 -0.997889 1.79531 0
M  V30 9189 H 859.048 -3.54111 1.55378 0
M  V30 9190 H 860.737 -3.54744 1.9726 0
M  V30 9191 H 861.503 -2.43638 4.19363 0
M  V30 9192 H 857.382 -3.24641 3.27306 0
M  V30 9193 H 860.926 -2.28894 6.58979 0
M  V30 9194 H 856.823 -3.10211 5.66074 0
M  V30 9195 H 857.591 -2.75511 7.70737 0
M  V30 9196 N 860.254 -1.20106 -1.0204 0
M  V30 9197 C 861.501 -1.00889 -1.75578 0
M  V30 9198 C 861.829 0.459415 -1.88996 0
M  V30 9199 O 861.084 1.35735 -1.40977 0
M  V30 9200 C 861.383 -1.63308 -3.17908 0
M  V30 9201 C 861.049 -3.13091 -3.24476 0
M  V30 9202 C 859.711 -3.53968 -3.25976 0
M  V30 9203 C 862.063 -4.09093 -3.22944 0
M  V30 9204 C 859.391 -4.89381 -3.2361 0
M  V30 9205 C 861.743 -5.44447 -3.22119 0
M  V30 9206 C 860.407 -5.84742 -3.2192 0
M  V30 9207 H 859.677 -0.36918 -0.642485 0
M  V30 9208 H 862.324 -1.49475 -1.19706 0
M  V30 9209 H 860.629 -1.06974 -3.76914 0
M  V30 9210 H 862.326 -1.45958 -3.73493 0
M  V30 9211 H 858.916 -2.80526 -3.24042 0
M  V30 9212 H 863.1 -3.78549 -3.20958 0
M  V30 9213 H 858.356 -5.1987 -3.21785 0
M  V30 9214 H 862.53 -6.18584 -3.19885 0
M  V30 9215 H 860.157 -6.89642 -3.19841 0
M  V30 9216 N 861.732 1.21287 -1.00634 0
M  V30 9217 C 862.978 1.90671 -0.690822 0
M  V30 9218 C 863.311 1.77996 0.776592 0
M  V30 9219 O 862.586 1.15748 1.5631 0
M  V30 9220 C 862.869 3.42426 -1.11428 0
M  V30 9221 C 862.722 3.64086 -2.64124 0
M  V30 9222 C 864.041 4.34851 -0.677686 0
M  V30 9223 H 861.16 0.692419 -0.252439 0
M  V30 9224 H 863.802 1.42893 -1.25226 0
M  V30 9225 H 861.952 3.83249 -0.636586 0
M  V30 9226 H 863.624 3.32582 -3.19667 0
M  V30 9227 H 861.867 3.07906 -3.05576 0
M  V30 9228 H 862.538 4.7042 -2.88806 0
M  V30 9229 H 865.014 4.01619 -1.0882 0
M  V30 9230 H 863.89 5.39675 -1.00213 0
M  V30 9231 H 864.151 4.4009 0.421125 0
M  V30 9232 N 863.21 0.781244 1.36873 0
M  V30 9233 C 864.435 0.360398 2.04245 0
M  V30 9234 C 864.86 -1.01242 1.58529 0
M  V30 9235 O 864.218 -1.65063 0.749936 0
M  V30 9236 C 864.266 0.42329 3.58107 0
M  V30 9237 O 863.37 -0.572796 4.08403 0
M  V30 9238 H 862.711 0.154386 0.645803 0
M  V30 9239 H 865.241 1.06008 1.74996 0
M  V30 9240 H 865.251 0.283967 4.07011 0
M  V30 9241 H 863.926 1.42477 3.90734 0
M  V30 9242 H 862.503 -0.395809 3.70793 0
M  V30 9243 N 864.689 -1.48329 0.532571 0
M  V30 9244 C 865.619 -2.32485 -0.217511 0
M  V30 9245 C 866.6 -1.42255 -0.932598 0
M  V30 9246 O 867.785 -1.7114 -0.917873 0
M  V30 9247 C 864.915 -3.23509 -1.26329 0
M  V30 9248 C 863.869 -4.22784 -0.666191 0
M  V30 9249 C 863.195 -5.0296 -1.81482 0
M  V30 9250 C 864.495 -5.21031 0.363813 0
M  V30 9251 H 866.189 -2.95445 0.485014 0
M  V30 9252 H 863.735 -1.42075 0.234694 0
M  V30 9253 H 865.688 -3.81211 -1.79601 0
M  V30 9254 H 864.412 -2.58554 -1.99543 0
M  V30 9255 H 863.071 -3.66272 -0.15498 0
M  V30 9256 H 862.719 -4.34427 -2.5354 0
M  V30 9257 H 862.419 -5.70154 -1.4212 0
M  V30 9258 H 863.943 -5.63514 -2.35126 0
M  V30 9259 H 865.357 -5.73241 -0.0819079 0
M  V30 9260 H 863.754 -5.96292 0.674956 0
M  V30 9261 H 864.824 -4.6801 1.26865 0
M  V30 9262 N 866.167 -0.267825 -1.55308 0
M  V30 9263 C 867.414 0.351036 -1.99434 0
M  V30 9264 C 867.742 1.56406 -1.15618 0
M  V30 9265 O 866.997 1.94548 -0.212045 0
M  V30 9266 C 867.296 0.784247 -3.48689 0
M  V30 9267 C 866.962 -0.323328 -4.49739 0
M  V30 9268 C 865.624 -0.627467 -4.77091 0
M  V30 9269 C 867.976 -1.07002 -5.10098 0
M  V30 9270 C 865.304 -1.682 -5.62073 0
M  V30 9271 C 867.656 -2.11422 -5.96224 0
M  V30 9272 C 866.32 -2.42479 -6.21901 0
M  V30 9273 H 865.59 0.128453 -0.729781 0
M  V30 9274 H 868.237 -0.380018 -1.87692 0
M  V30 9275 H 866.542 1.59485 -3.57871 0
M  V30 9276 H 868.239 1.2737 -3.80234 0
M  V30 9277 H 864.829 -0.0761528 -4.28532 0
M  V30 9278 H 869.013 -0.848302 -4.88996 0
M  V30 9279 H 864.269 -1.92772 -5.80215 0
M  V30 9280 H 868.443 -2.69759 -6.4203 0
M  V30 9281 H 866.07 -3.24328 -6.87543 0
M  V30 9282 N 867.645 1.57599 0.00500368 0
M  V30 9283 C 868.593 2.09223 1.01628 0
M  V30 9284 C 869.587 1.01113 1.35913 0
M  V30 9285 O 870.793 1.19583 1.34536 0
M  V30 9286 H 867.168 0.667999 0.345372 0
M  V30 9287 H 869.139 2.93188 0.555274 0
M  V30 9288 C 867.888 2.60674 2.30097 0
M  V30 9289 H 867.211 3.43491 2.04582 0
M  V30 9290 H 868.651 3.00479 2.99146 0
M  V30 9291 C 867.11 1.51862 3.00731 0
M  V30 9292 O 867.64 0.898651 3.91519 0
M  V30 9293 N 865.846 1.24729 2.62471 0
M  V30 9294 H 865.393 1.7533 1.88725 0
M  V30 9295 H 865.351 0.521437 3.10046 0
M  V30 9296 N 869.123 -0.277682 1.55134 0
M  V30 9297 C 870.539 -0.624625 1.46869 0
M  V30 9298 C 870.739 -1.89717 0.678958 0
M  V30 9299 O 869.795 -2.51739 0.195939 0
M  V30 9300 C 871.108 -0.755937 2.91043 0
M  V30 9301 C 872.656 -0.850299 3.01229 0
M  V30 9302 C 873.131 -1.01343 4.46647 0
M  V30 9303 N 874.622 -1.07906 4.50456 0
M  V30 9304 C 875.357 -1.224 5.60184 0
M  V30 9305 N 874.853 -1.33642 6.79788 0
M  V30 9306 N 876.646 -1.25473 5.47917 0
M  V30 9307 H 868.797 0.558102 2.04937 0
M  V30 9308 H 871.06 0.188228 0.929125 0
M  V30 9309 H 870.766 0.108593 3.51532 0
M  V30 9310 H 870.64 -1.6377 3.39793 0
M  V30 9311 H 873.027 -1.7053 2.40839 0
M  V30 9312 H 873.108 0.0559681 2.55739 0
M  V30 9313 H 872.752 -0.163102 5.07638 0
M  V30 9314 H 872.682 -1.93427 4.89789 0
M  V30 9315 H 875.173 -1.00477 3.64298 0
M  V30 9316 H 875.486 -1.44522 7.59166 0
M  V30 9317 H 873.831 -1.30655 6.82608 0
M  V30 9318 H 877.022 -1.16317 4.53418 0
M  V30 9319 H 877.195 -1.36424 6.33476 0
M  V30 9320 N 870.601 -1.47988 -0.541979 0
M  V30 9321 C 871.848 -1.55393 -1.29843 0
M  V30 9322 C 872.176 -0.222668 -1.93221 0
M  V30 9323 O 871.431 0.785936 -1.79225 0
M  V30 9324 C 871.73 -2.63189 -2.41798 0
M  V30 9325 C 871.396 -4.05999 -1.96151 0
M  V30 9326 C 870.058 -4.44872 -1.83419 0
M  V30 9327 C 872.41 -4.95545 -1.61507 0
M  V30 9328 C 869.738 -5.71108 -1.34361 0
M  V30 9329 C 872.09 -6.22259 -1.13915 0
M  V30 9330 C 870.754 -6.59998 -0.997911 0
M  V30 9331 H 870.024 -0.568623 -0.47513 0
M  V30 9332 H 872.671 -1.81654 -0.606142 0
M  V30 9333 H 870.976 -2.30743 -3.16647 0
M  V30 9334 H 872.673 -2.66138 -2.99953 0
M  V30 9335 H 869.263 -3.75294 -2.07008 0
M  V30 9336 H 873.447 -4.662 -1.70209 0
M  V30 9337 H 868.703 -5.99083 -1.22103 0
M  V30 9338 H 872.877 -6.91048 -0.861755 0
M  V30 9339 H 870.504 -7.57704 -0.615561 0
M  V30 9340 N 872.079 0.78992 -1.36375 0
M  V30 9341 C 873.356 1.53584 -1.21126 0
M  V30 9342 C 873.736 2.10124 0.202785 0
M  V30 9343 O 873.084 1.93936 1.20835 0
M  V30 9344 C 873.294 2.63117 -2.29282 0
M  V30 9345 C 874.642 3.31013 -2.65924 0
M  V30 9346 O 875.666 2.734 -2.28321 0
M  V30 9347 O 874.525 4.35129 -3.30643 0
M  V30 9348 H 871.619 0.679366 -0.471583 0
M  V30 9349 H 874.165 0.828446 -1.48104 0
M  V30 9350 H 872.937 2.19329 -3.24053 0
M  V30 9351 H 872.56 3.41476 -2.03666 0
M  V30 9352 N 873.557 1.20646 1.01402 0
M  V30 9353 C 874.797 1.02951 1.7658 0
M  V30 9354 C 875.161 -0.430522 1.87111 0
M  V30 9355 O 876.362 -0.727727 2.58762 0
M  V30 9356 C 874.633 1.69728 3.14527 0
M  V30 9357 S 876.192 1.6717 4.05709 0
M  V30 9358 H 873.01 0.36911 0.607683 0
M  V30 9359 H 875.612 1.53243 1.21395 0
M  V30 9360 H 874.316 2.75162 3.0449 0
M  V30 9361 H 873.847 1.19578 3.74786 0
M  V30 9362 H 875.862 0.706397 4.91146 0
M  V30 9363 N 875.035 -1.20752 1.01276 0
M  V30 9364 C 876.282 -1.90021 0.699887 0
M  V30 9365 C 876.61 -1.78604 -0.770113 0
M  V30 9366 O 875.865 -1.16195 -1.57471 0
M  V30 9367 C 876.164 -3.40808 1.07633 0
M  V30 9368 C 875.83 -3.72423 2.54189 0
M  V30 9369 C 874.492 -3.80762 2.94234 0
M  V30 9370 C 876.844 -3.87025 3.49086 0
M  V30 9371 C 874.172 -4.01158 4.28123 0
M  V30 9372 C 876.524 -4.0893 4.82658 0
M  V30 9373 C 875.188 -4.15498 5.22415 0
M  V30 9374 H 874.458 -0.695335 0.256107 0
M  V30 9375 H 877.105 -1.43096 1.27263 0
M  V30 9376 H 875.41 -3.89521 0.421944 0
M  V30 9377 H 877.107 -3.92693 0.811997 0
M  V30 9378 H 873.697 -3.66529 2.22158 0
M  V30 9379 H 877.881 -3.79942 3.19309 0
M  V30 9380 H 873.137 -4.04476 4.58486 0
M  V30 9381 H 877.311 -4.19172 5.56119 0
M  V30 9382 H 874.938 -4.31055 6.26176 0
M  V30 9383 N 876.513 -0.788492 -1.36457 0
M  V30 9384 C 877.759 -0.360995 -1.99561 0
M  V30 9385 C 878.092 1.06433 -1.62437 0
M  V30 9386 O 877.367 1.7352 -0.878705 0
M  V30 9387 C 877.65 -0.523735 -3.56271 0
M  V30 9388 C 877.503 -1.99268 -4.03252 0
M  V30 9389 C 878.822 0.0617908 -4.40057 0
M  V30 9390 H 875.941 -0.13264 -0.724966 0
M  V30 9391 H 878.583 -0.994659 -1.61884 0
M  V30 9392 H 876.733 0.0156979 -3.88497 0
M  V30 9393 H 878.405 -2.59311 -3.81518 0
M  V30 9394 H 876.648 -2.49561 -3.54826 0
M  V30 9395 H 877.319 -2.05752 -5.12221 0
M  V30 9396 H 879.795 -0.398674 -4.14186 0
M  V30 9397 H 878.671 -0.0821089 -5.48839 0
M  V30 9398 H 878.932 1.15381 -4.26778 0
M  V30 9399 N 877.991 1.48044 -0.54043 0
M  V30 9400 C 879.237 2.02797 -0.0101718 0
M  V30 9401 C 879.57 1.41565 1.32939 0
M  V30 9402 O 878.845 0.565139 1.86109 0
M  V30 9403 C 879.128 3.59959 0.100758 0
M  V30 9404 C 878.981 4.31654 -1.26471 0
M  V30 9405 C 880.3 4.32347 0.822455 0
M  V30 9406 H 877.419 0.736982 -0.00517052 0
M  V30 9407 H 880.061 1.76656 -0.69948 0
M  V30 9408 H 878.211 3.82363 0.687824 0
M  V30 9409 H 879.883 4.20639 -1.89369 0
M  V30 9410 H 878.126 3.92663 -1.84386 0
M  V30 9411 H 878.797 5.401 -1.13998 0
M  V30 9412 H 881.273 4.14835 0.324164 0
M  V30 9413 H 880.149 5.41978 0.868993 0
M  V30 9414 H 880.41 4.00369 1.87501 0
M  V30 9415 N 879.47 0.276058 1.55163 0
M  V30 9416 C 880.71 -0.341634 2.01525 0
M  V30 9417 C 881.074 -1.52979 1.16023 0
M  V30 9418 O 882.275 -2.21718 1.51968 0
M  V30 9419 C 880.546 -0.713294 3.5021 0
M  V30 9420 S 882.105 -1.31739 4.18558 0
M  V30 9421 H 878.923 -0.1062 0.703024 0
M  V30 9422 H 881.525 0.398112 1.91404 0
M  V30 9423 H 880.229 0.160311 4.10087 0
M  V30 9424 H 879.76 -1.48448 3.64317 0
M  V30 9425 H 881.775 -2.60595 4.22261 0
M  V30 9426 N 880.948 -1.576 0.00335426 0
M  V30 9427 C 882.196 -1.90336 -0.679446 0
M  V30 9428 C 882.517 -0.877777 -1.74127 0
M  V30 9429 O 881.787 0.0843585 -1.95718 0
M  V30 9430 H 880.367 -0.702509 -0.253948 0
M  V30 9431 H 883.029 -1.94848 0.0450731 0
M  V30 9432 H 882.125 -2.90197 -1.14857 0
M  V30 9433 N 882.426 0.269451 -1.5528 0
M  V30 9434 C 883.674 0.998604 -1.75705 0
M  V30 9435 C 883.995 1.86691 -0.563175 0
M  V30 9436 O 883.265 1.91305 0.421811 0
M  V30 9437 H 881.845 0.371698 -0.647958 0
M  V30 9438 H 884.507 0.292826 -1.92688 0
M  V30 9439 H 883.603 1.63348 -2.6594 0
M  V30 9440 N 883.904 1.48273 0.534124 0
M  V30 9441 C 885.153 1.55334 1.28663 0
M  V30 9442 C 885.466 0.230345 1.94239 0
M  V30 9443 O 886.672 0.179161 2.70908 0
M  V30 9444 C 885.128 2.73927 2.33435 0
M  V30 9445 C 884.736 4.12852 1.73947 0
M  V30 9446 C 886.48 2.90298 3.09722 0
M  V30 9447 C 884.387 5.22711 2.76636 0
M  V30 9448 H 883.317 0.578262 0.483869 0
M  V30 9449 H 885.968 1.74598 0.564602 0
M  V30 9450 H 884.35 2.48089 3.08655 0
M  V30 9451 H 885.524 4.48691 1.04944 0
M  V30 9452 H 883.839 4.01562 1.10167 0
M  V30 9453 H 886.436 3.69542 3.86449 0
M  V30 9454 H 886.779 1.99598 3.6533 0
M  V30 9455 H 887.312 3.16017 2.41616 0
M  V30 9456 H 884.051 6.15362 2.25852 0
M  V30 9457 H 883.571 4.91364 3.43979 0
M  V30 9458 H 885.25 5.50648 3.39699 0
M  V30 9459 N 885.382 -0.782676 1.36792 0
M  V30 9460 C 886.61 -1.57162 1.34565 0
M  V30 9461 C 887.025 -1.88664 -0.0715501 0
M  V30 9462 O 886.382 -1.50633 -1.03033 0
M  V30 9463 C 886.433 -2.88854 2.1736 0
M  V30 9464 O 886.154 -2.58707 3.53557 0
M  V30 9465 C 887.655 -3.83132 2.2299 0
M  V30 9466 H 884.875 -0.487245 0.461338 0
M  V30 9467 H 887.419 -0.970905 1.79982 0
M  V30 9468 H 885.574 -3.45377 1.7548 0
M  V30 9469 H 885.988 -3.42961 3.96835 0
M  V30 9470 H 887.462 -4.72575 2.85266 0
M  V30 9471 H 887.939 -4.21472 1.23524 0
M  V30 9472 H 888.545 -3.32541 2.65135 0
M  V30 9473 N 886.86 -1.21182 -1.00761 0
M  V30 9474 C 887.77 -0.984691 -2.12934 0
M  V30 9475 C 888.786 0.0623657 -1.73888 0
M  V30 9476 O 889.962 -0.1271 -2.00999 0
M  V30 9477 C 887.027 -0.549447 -3.42319 0
M  V30 9478 C 886.088 -1.66841 -3.95553 0
M  V30 9479 C 885.321 -1.25384 -5.18763 0
M  V30 9480 O 885.544 -0.126333 -5.7026 0
M  V30 9481 O 884.478 -2.06475 -5.65377 0
M  V30 9482 H 888.304 -1.92413 -2.3497 0
M  V30 9483 H 885.889 -0.99647 -1.11314 0
M  V30 9484 H 887.771 -0.316384 -4.20211 0
M  V30 9485 H 886.446 0.361304 -3.21677 0
M  V30 9486 H 885.353 -1.95585 -3.189 0
M  V30 9487 H 886.686 -2.55649 -4.206 0
M  V30 9488 N 888.338 1.20213 -1.01915 0
M  V30 9489 C 889.566 1.93622 -0.729255 0
M  V30 9490 C 889.981 1.74923 0.710444 0
M  V30 9491 O 889.338 1.06484 1.48214 0
M  V30 9492 C 889.389 3.45651 -1.05865 0
M  V30 9493 O 889.11 3.63741 -2.44181 0
M  V30 9494 C 890.611 4.36201 -0.790176 0
M  V30 9495 H 887.831 0.615333 -0.267594 0
M  V30 9496 H 890.375 1.52633 -1.36101 0
M  V30 9497 H 888.53 3.84511 -0.47225 0
M  V30 9498 H 888.944 4.57702 -2.56143 0
M  V30 9499 H 890.418 5.41516 -1.07071 0
M  V30 9500 H 890.895 4.38334 0.275609 0
M  V30 9501 H 891.501 4.03008 -1.35885 0
M  V30 9502 N 889.816 0.795718 1.36037 0
M  V30 9503 C 891.065 0.367575 1.98322 0
M  V30 9504 C 891.378 -1.06823 1.63854 0
M  V30 9505 O 892.584 -1.59895 2.19421 0
M  V30 9506 C 891.04 0.606272 3.54757 0
M  V30 9507 C 890.648 2.0539 3.98144 0
M  V30 9508 C 892.392 0.242947 4.23804 0
M  V30 9509 C 890.299 2.23893 5.47381 0
M  V30 9510 H 889.229 0.133699 0.742052 0
M  V30 9511 H 891.88 0.978242 1.5525 0
M  V30 9512 H 890.262 -0.0741957 3.9593 0
M  V30 9513 H 891.436 2.77129 3.68152 0
M  V30 9514 H 889.751 2.37607 3.41953 0
M  V30 9515 H 892.348 0.359382 5.33491 0
M  V30 9516 H 892.691 -0.809661 4.08351 0
M  V30 9517 H 893.224 0.876899 3.88015 0
M  V30 9518 H 889.963 3.27559 5.6779 0
M  V30 9519 H 889.483 1.56666 5.78978 0
M  V30 9520 H 891.162 2.04914 6.13693 0
M  V30 9521 N 891.294 -1.47756 0.548274 0
M  V30 9522 C 892.224 -2.32702 -0.19284 0
M  V30 9523 C 893.205 -1.43237 -0.917457 0
M  V30 9524 O 894.39 -1.72103 -0.89967 0
M  V30 9525 C 891.52 -3.24831 -1.22891 0
M  V30 9526 C 890.474 -4.23466 -0.621312 0
M  V30 9527 C 889.8 -5.04856 -1.76137 0
M  V30 9528 C 891.1 -5.20616 0.419055 0
M  V30 9529 H 892.794 -2.94914 0.516323 0
M  V30 9530 H 890.34 -1.41818 0.24975 0
M  V30 9531 H 892.293 -3.83094 -1.75547 0
M  V30 9532 H 891.017 -2.60656 -1.9679 0
M  V30 9533 H 889.676 -3.66416 -0.116123 0
M  V30 9534 H 889.324 -4.37091 -2.48918 0
M  V30 9535 H 889.024 -5.71629 -1.36065 0
M  V30 9536 H 890.548 -5.65976 -2.29136 0
M  V30 9537 H 891.962 -5.73296 -0.0211034 0
M  V30 9538 H 890.359 -5.95543 0.738163 0
M  V30 9539 H 891.429 -4.66638 1.31822 0
M  V30 9540 N 892.772 -0.284283 -1.55015 0
M  V30 9541 C 894.018 0.330352 -2.00091 0
M  V30 9542 C 894.351 1.54814 -1.17244 0
M  V30 9543 O 893.626 1.92954 -0.244753 0
M  V30 9544 C 893.909 0.703492 -3.53161 0
M  V30 9545 C 893.762 -0.522275 -4.46758 0
M  V30 9546 C 895.081 1.53645 -4.12409 0
M  V30 9547 H 892.2 0.118599 -0.727395 0
M  V30 9548 H 894.842 -0.393054 -1.8589 0
M  V30 9549 H 892.992 1.31983 -3.65394 0
M  V30 9550 H 894.664 -1.16082 -4.46456 0
M  V30 9551 H 892.907 -1.15865 -4.1804 0
M  V30 9552 H 893.578 -0.217295 -5.51572 0
M  V30 9553 H 896.054 1.01583 -4.0351 0
M  V30 9554 H 894.93 1.76633 -5.19704 0
M  V30 9555 H 895.191 2.5204 -3.63219 0
M  V30 9556 N 894.251 1.57596 -0.0117121 0
M  V30 9557 C 895.161 2.12596 0.991964 0
M  V30 9558 C 896.177 1.07399 1.36899 0
M  V30 9559 O 897.353 1.39365 1.45394 0
M  V30 9560 C 894.418 2.62796 2.2614 0
M  V30 9561 C 893.479 3.8264 1.94642 0
M  V30 9562 C 892.712 4.30435 3.15533 0
M  V30 9563 O 892.935 3.77495 4.27614 0
M  V30 9564 O 891.869 5.22469 2.98847 0
M  V30 9565 H 895.695 2.98597 0.554371 0
M  V30 9566 H 893.28 1.47947 0.207839 0
M  V30 9567 H 895.162 2.9523 3.00695 0
M  V30 9568 H 893.837 1.79886 2.69114 0
M  V30 9569 H 892.744 3.5516 1.17526 0
M  V30 9570 H 894.077 4.66658 1.56496 0
M  V30 9571 N 895.729 -0.261212 1.5542 0
M  V30 9572 C 896.659 -1.32712 1.92119 0
M  V30 9573 C 897.64 -1.50934 0.784406 0
M  V30 9574 O 898.825 -1.63781 1.04352 0
M  V30 9575 C 895.955 -2.68453 2.20341 0
M  V30 9576 C 894.909 -2.64947 3.36136 0
M  V30 9577 C 894.235 -4.04349 3.49865 0
M  V30 9578 C 895.535 -2.23182 4.72215 0
M  V30 9579 H 897.229 -1.02245 2.81401 0
M  V30 9580 H 894.775 -0.490406 1.35392 0
M  V30 9581 H 896.728 -3.43144 2.44603 0
M  V30 9582 H 895.452 -3.00527 1.27871 0
M  V30 9583 H 894.111 -1.92714 3.11861 0
M  V30 9584 H 893.759 -4.33665 2.5484 0
M  V30 9585 H 893.459 -4.02895 4.27726 0
M  V30 9586 H 894.983 -4.80761 3.76432 0
M  V30 9587 H 896.397 -2.87599 4.95943 0
M  V30 9588 H 894.794 -2.32867 5.53076 0
M  V30 9589 H 895.864 -1.18327 4.70241 0
M  V30 9590 N 897.207 -1.48554 -0.526253 0
M  V30 9591 C 898.117 -1.66044 -1.65731 0
M  V30 9592 C 899.133 -0.542951 -1.65312 0
M  V30 9593 O 900.309 -0.814495 -1.84195 0
M  V30 9594 C 897.374 -1.69959 -3.02184 0
M  V30 9595 C 896.435 -2.93362 -3.13428 0
M  V30 9596 C 895.668 -2.97081 -4.43372 0
M  V30 9597 O 895.891 -2.09103 -5.3069 0
M  V30 9598 O 894.825 -3.8929 -4.59061 0
M  V30 9599 H 898.651 -2.61811 -1.53912 0
M  V30 9600 H 896.236 -1.31999 -0.699759 0
M  V30 9601 H 898.118 -1.75033 -3.83329 0
M  V30 9602 H 896.793 -0.773658 -3.14319 0
M  V30 9603 H 895.7 -2.93818 -2.31564 0
M  V30 9604 H 897.033 -3.85352 -3.06211 0
M  V30 9605 N 898.685 0.775411 -1.37205 0
M  V30 9606 C 899.934 1.52909 -1.31536 0
M  V30 9607 C 900.247 1.9535 0.0989374 0
M  V30 9608 O 901.453 2.70072 0.278079 0
M  V30 9609 C 899.909 2.761 -2.30861 0
M  V30 9610 C 899.517 2.40773 -3.77799 0
M  V30 9611 C 901.261 3.54052 -2.34195 0
M  V30 9612 C 899.168 3.60444 -4.68865 0
M  V30 9613 H 898.098 0.574061 -0.488845 0
M  V30 9614 H 900.749 0.849642 -1.62645 0
M  V30 9615 H 899.131 3.45916 -1.92764 0
M  V30 9616 H 900.305 1.78764 -4.24712 0
M  V30 9617 H 898.62 1.76004 -3.77375 0
M  V30 9618 H 901.217 4.42992 -2.99437 0
M  V30 9619 H 901.56 3.93649 -1.35449 0
M  V30 9620 H 902.093 2.91229 -2.7098 0
M  V30 9621 H 898.832 3.25932 -5.68725 0
M  V30 9622 H 898.352 4.21571 -4.26659 0
M  V30 9623 H 900.031 4.27302 -4.85821 0
M  V30 9624 N 900.163 1.21714 1.00117 0
M  V30 9625 C 901.096 0.923113 2.08696 0
M  V30 9626 C 902.074 -0.130827 1.62073 0
M  V30 9627 O 903.258 -0.00103064 1.885 0
M  V30 9628 C 900.385 0.386807 3.36484 0
M  V30 9629 C 899.431 1.42414 4.0202 0
M  V30 9630 S 900.264 2.99466 4.43937 0
M  V30 9631 C 901.42 2.47452 5.74907 0
M  V30 9632 H 901.653 1.84258 2.33315 0
M  V30 9633 H 899.186 1.0473 1.1345 0
M  V30 9634 H 901.144 0.0839547 4.10414 0
M  V30 9635 H 899.805 -0.511413 3.09909 0
M  V30 9636 H 898.998 0.998593 4.94008 0
M  V30 9637 H 898.6 1.67527 3.34381 0
M  V30 9638 H 900.892 1.88177 6.50842 0
M  V30 9639 H 901.835 3.37898 6.22279 0
M  V30 9640 H 902.243 1.89027 5.31911 0
M  V30 9641 N 901.641 -1.19671 1.02551 0
M  V30 9642 C 902.866 -1.93774 0.739363 0
M  V30 9643 C 903.291 -1.74787 -0.695064 0
M  V30 9644 O 902.649 -1.04796 -1.47944 0
M  V30 9645 C 902.697 -3.43684 1.09149 0
M  V30 9646 O 901.801 -4.11874 0.208213 0
M  V30 9647 H 901.142 -0.605064 0.273484 0
M  V30 9648 H 903.672 -1.51846 1.37128 0
M  V30 9649 H 903.682 -3.94339 1.04695 0
M  V30 9650 H 902.357 -3.56826 2.13654 0
M  V30 9651 H 900.934 -3.716 0.311045 0
M  V30 9652 N 903.119 -0.802921 -1.35613 0
M  V30 9653 C 904.53 -0.443004 -1.81368 0
M  V30 9654 C 904.881 1.03459 -1.66706 0
M  V30 9655 O 904.006 1.80372 -1.19561 0
M  V30 9656 C 904.601 -0.797324 -3.29284 0
M  V30 9657 C 903.16 -0.490055 -3.73196 0
M  V30 9658 C 902.307 -1.02487 -2.57666 0
M  V30 9659 H 905.258 -0.994888 -1.23643 0
M  V30 9660 H 905.279 -0.0934638 -3.80385 0
M  V30 9661 H 904.791 -1.87278 -3.39924 0
M  V30 9662 H 902.892 0.576818 -3.68108 0
M  V30 9663 H 903.005 -1.02012 -4.68114 0
M  V30 9664 H 901.369 -0.44738 -2.5074 0
M  V30 9665 H 902.152 -2.10636 -2.71085 0
M  V30 9666 N 904.597 1.47463 -0.556102 0
M  V30 9667 C 905.527 2.32801 0.180497 0
M  V30 9668 C 906.508 1.43721 0.909848 0
M  V30 9669 O 907.693 1.72578 0.89053 0
M  V30 9670 C 904.823 3.25478 1.21167 0
M  V30 9671 C 903.777 4.2379 0.598846 0
M  V30 9672 C 903.103 5.05783 1.73457 0
M  V30 9673 C 904.403 5.20387 -0.446659 0
M  V30 9674 H 906.097 2.94636 -0.531956 0
M  V30 9675 H 903.643 1.41683 -0.257267 0
M  V30 9676 H 905.596 3.8402 1.73513 0
M  V30 9677 H 904.32 2.61695 1.95405 0
M  V30 9678 H 902.979 3.66472 0.0966897 0
M  V30 9679 H 902.627 4.38405 2.46596 0
M  V30 9680 H 902.327 5.72343 1.33031 0
M  V30 9681 H 903.851 5.67183 2.26131 0
M  V30 9682 H 905.265 5.73299 -0.00930019 0
M  V30 9683 H 903.662 5.95143 -0.769735 0
M  V30 9684 H 904.732 4.65932 -1.34295 0
M  V30 9685 N 906.075 0.2925 1.54862 0
M  V30 9686 C 907.323 -0.318633 1.99572 0
M  V30 9687 C 907.644 -1.55062 1.1824 0
M  V30 9688 O 906.914 -1.93943 0.276226 0
M  V30 9689 H 905.494 -0.120722 0.737181 0
M  V30 9690 H 908.156 0.401862 1.90712 0
M  V30 9691 H 907.252 -0.596542 3.06346 0
M  V30 9692 N 907.553 -1.57587 0.0200696 0
M  V30 9693 C 908.802 -1.90602 -0.659822 0
M  V30 9694 C 909.115 -0.897216 -1.73808 0
M  V30 9695 O 910.321 -1.11829 -2.47399 0
M  V30 9696 C 908.777 -3.38416 -1.22484 0
M  V30 9697 C 908.385 -4.47637 -0.180339 0
M  V30 9698 C 910.129 -3.80513 -1.88176 0
M  V30 9699 C 908.036 -5.86542 -0.756482 0
M  V30 9700 H 906.966 -0.711272 -0.250216 0
M  V30 9701 H 909.617 -1.83308 0.0838942 0
M  V30 9702 H 907.999 -3.40613 -2.01987 0
M  V30 9703 H 909.173 -4.56987 0.591573 0
M  V30 9704 H 907.488 -4.14687 0.377302 0
M  V30 9705 H 910.085 -4.8164 -2.32222 0
M  V30 9706 H 910.428 -3.15091 -2.72073 0
M  V30 9707 H 910.961 -3.80701 -1.15377 0
M  V30 9708 H 907.7 -6.55485 0.0441468 0
M  V30 9709 H 907.22 -5.80816 -1.49709 0
M  V30 9710 H 908.899 -6.3483 -1.249 0
M  V30 9711 N 909.032 0.252966 -1.55557 0
M  V30 9712 C 910.257 1.0038 -1.8149 0
M  V30 9713 C 910.682 1.78397 -0.596318 0
M  V30 9714 O 910.04 1.7551 0.454535 0
M  V30 9715 C 910.088 1.9222 -3.05096 0
M  V30 9716 O 909.192 3.01302 -2.81587 0
M  V30 9717 H 908.533 0.285949 -0.599274 0
M  V30 9718 H 911.063 0.275795 -2.02733 0
M  V30 9719 H 911.073 2.338 -3.34368 0
M  V30 9720 H 909.748 1.34852 -3.93431 0
M  V30 9721 H 908.325 2.63894 -2.63466 0
M  V30 9722 N 910.51 1.48831 0.518367 0
M  V30 9723 C 911.756 1.57672 1.27543 0
M  V30 9724 C 912.089 0.254915 1.9252 0
M  V30 9725 O 911.364 -0.740107 1.79868 0
M  V30 9726 C 911.647 2.72345 2.35585 0
M  V30 9727 C 911.5 4.14267 1.75224 0
M  V30 9728 C 912.819 2.82726 3.37274 0
M  V30 9729 H 909.938 0.573926 0.462361 0
M  V30 9730 H 912.58 1.8105 0.576267 0
M  V30 9731 H 910.73 2.52543 2.95219 0
M  V30 9732 H 912.402 4.45539 1.19551 0
M  V30 9733 H 910.645 4.20724 1.05706 0
M  V30 9734 H 911.316 4.90345 2.53507 0
M  V30 9735 H 913.792 3.00699 2.8761 0
M  V30 9736 H 912.668 3.6467 4.10252 0
M  V30 9737 H 912.929 1.9136 3.9854 0
M  V30 9738 N 911.988 -0.768124 1.37614 0
M  V30 9739 C 913.235 -1.5268 1.33022 0
M  V30 9740 C 913.563 -1.94318 -0.0841918 0
M  V30 9741 O 912.818 -1.64623 -1.0582 0
M  V30 9742 C 913.117 -2.80204 2.21856 0
M  V30 9743 C 912.783 -2.57602 3.7007 0
M  V30 9744 C 911.445 -2.51146 4.10462 0
M  V30 9745 C 913.797 -2.37482 4.63952 0
M  V30 9746 C 911.125 -2.22566 5.42846 0
M  V30 9747 C 913.477 -2.10425 5.96577 0
M  V30 9748 C 912.141 -2.02416 6.36069 0
M  V30 9749 H 911.411 -0.558697 0.486763 0
M  V30 9750 H 914.058 -0.88447 1.69851 0
M  V30 9751 H 912.363 -3.49014 1.78034 0
M  V30 9752 H 914.06 -3.38099 2.15615 0
M  V30 9753 H 910.65 -2.63491 3.38039 0
M  V30 9754 H 914.834 -2.41457 4.33604 0
M  V30 9755 H 910.09 -2.14863 5.72402 0
M  V30 9756 H 914.264 -1.93857 6.68874 0
M  V30 9757 H 911.891 -1.80034 7.38574 0
M  V30 9758 N 913.466 -1.22244 -0.994698 0
M  V30 9759 C 914.882 -0.982006 -1.25813 0
M  V30 9760 C 915.082 0.325488 -1.98854 0
M  V30 9761 O 914.138 1.04857 -2.29698 0
M  V30 9762 C 915.451 -2.1795 -2.07167 0
M  V30 9763 C 916.999 -2.22287 -2.20358 0
M  V30 9764 C 917.474 -3.41583 -3.05098 0
M  V30 9765 N 918.965 -3.41734 -3.12686 0
M  V30 9766 C 919.7 -4.30692 -3.78539 0
M  V30 9767 N 919.196 -5.29865 -4.46335 0
M  V30 9768 N 920.989 -4.18473 -3.75283 0
M  V30 9769 H 913.14 -2.0631 -0.504963 0
M  V30 9770 H 915.403 -0.90395 -0.285618 0
M  V30 9771 H 915.109 -3.12758 -1.60858 0
M  V30 9772 H 914.983 -2.17862 -3.07922 0
M  V30 9773 H 917.37 -1.28028 -2.65881 0
M  V30 9774 H 917.451 -2.26414 -1.19039 0
M  V30 9775 H 917.095 -4.36141 -2.60275 0
M  V30 9776 H 917.025 -3.34695 -4.06555 0
M  V30 9777 H 919.516 -2.69969 -2.64433 0
M  V30 9778 H 919.829 -5.94027 -4.9432 0
M  V30 9779 H 918.174 -5.3378 -4.45089 0
M  V30 9780 H 921.365 -3.40249 -3.21478 0
M  V30 9781 H 921.538 -4.88007 -4.26326 0
M  V30 9782 N 914.944 1.19125 -1.03184 0
M  V30 9783 C 916.184 1.90582 -0.738785 0
M  V30 9784 C 916.548 1.78004 0.719627 0
M  V30 9785 O 917.749 2.44084 1.12589 0
M  V30 9786 C 916.02 3.37319 -1.18114 0
M  V30 9787 S 917.579 4.26962 -1.01238 0
M  V30 9788 H 914.397 0.6582 -0.268875 0
M  V30 9789 H 916.999 1.43999 -1.32229 0
M  V30 9790 H 915.703 3.43999 -2.23814 0
M  V30 9791 H 915.234 3.88935 -0.591051 0
M  V30 9792 H 917.249 4.96143 0.0753558 0
M  V30 9793 N 916.422 0.810101 1.35185 0
M  V30 9794 C 917.668 0.392698 1.98962 0
M  V30 9795 C 918.001 -1.03835 1.64109 0
M  V30 9796 O 917.276 -1.721 0.9062 0
M  V30 9797 C 917.559 0.580349 3.55393 0
M  V30 9798 C 917.412 2.05658 4.00031 0
M  V30 9799 C 918.731 0.00822618 4.40099 0
M  V30 9800 H 915.85 0.144157 0.722764 0
M  V30 9801 H 918.492 1.02029 1.60281 0
M  V30 9802 H 916.642 0.0461106 3.88473 0
M  V30 9803 H 918.314 2.65348 3.77344 0
M  V30 9804 H 916.557 2.55174 3.50811 0
M  V30 9805 H 917.228 2.13875 5.08883 0
M  V30 9806 H 919.704 0.464517 4.13499 0
M  V30 9807 H 918.58 0.169414 5.48638 0
M  V30 9808 H 918.841 -1.08576 4.2856 0
M  V30 9809 N 917.9 -1.47166 0.563914 0
M  V30 9810 C 919.316 -1.58018 0.224173 0
M  V30 9811 C 919.516 -1.56163 -1.27339 0
M  V30 9812 O 918.572 -1.4686 -2.05398 0
M  V30 9813 C 919.885 -2.88236 0.856762 0
M  V30 9814 C 921.433 -3.01833 0.82861 0
M  V30 9815 C 921.908 -4.34761 1.44039 0
M  V30 9816 N 923.399 -4.41413 1.40388 0
M  V30 9817 C 924.134 -5.42845 1.84681 0
M  V30 9818 N 923.63 -6.51052 2.3686 0
M  V30 9819 N 925.423 -5.33931 1.75711 0
M  V30 9820 H 917.574 -1.46615 1.53681 0
M  V30 9821 H 919.837 -0.698195 0.64127 0
M  V30 9822 H 919.543 -2.95349 1.90949 0
M  V30 9823 H 919.417 -3.75537 0.353766 0
M  V30 9824 H 921.804 -2.94312 -0.215451 0
M  V30 9825 H 921.885 -2.16056 1.36943 0
M  V30 9826 H 921.529 -4.43037 2.48355 0
M  V30 9827 H 921.459 -5.1928 0.874953 0
M  V30 9828 H 923.95 -3.63811 1.02227 0
M  V30 9829 H 924.263 -7.24633 2.68564 0
M  V30 9830 H 922.608 -6.51924 2.40875 0
M  V30 9831 H 925.799 -4.48295 1.34718 0
M  V30 9832 H 925.972 -6.12841 2.10547 0
M  V30 9833 N 919.378 -0.300708 -1.54705 0
M  V30 9834 C 920.308 0.568675 -2.26469 0
M  V30 9835 C 921.289 1.13817 -1.26411 0
M  V30 9836 O 922.474 1.16756 -1.55183 0
M  V30 9837 C 919.604 1.74077 -3.00524 0
M  V30 9838 C 918.558 1.30165 -4.07727 0
M  V30 9839 C 917.884 2.55888 -4.69495 0
M  V30 9840 C 919.184 0.433106 -5.20501 0
M  V30 9841 H 920.878 -0.0298851 -2.99385 0
M  V30 9842 H 918.424 -0.0158135 -1.43991 0
M  V30 9843 H 920.377 2.35506 -3.49449 0
M  V30 9844 H 919.101 2.36556 -2.25186 0
M  V30 9845 H 917.76 0.710414 -3.59651 0
M  V30 9846 H 917.408 3.16681 -3.90797 0
M  V30 9847 H 917.108 2.27207 -5.41895 0
M  V30 9848 H 918.632 3.18121 -5.21183 0
M  V30 9849 H 920.046 0.95307 -5.65322 0
M  V30 9850 H 918.443 0.240085 -5.9962 0
M  V30 9851 H 919.513 -0.541866 -4.81863 0
M  V30 9852 N 920.856 1.57574 -0.0284266 0
M  V30 9853 C 921.786 2.1321 0.952039 0
M  V30 9854 C 922.767 1.04806 1.33977 0
M  V30 9855 O 923.952 1.32635 1.41851 0
M  V30 9856 C 921.082 2.65862 2.23461 0
M  V30 9857 C 920.036 3.79047 1.98765 0
M  V30 9858 C 919.362 4.18124 3.33281 0
M  V30 9859 C 920.662 5.05151 1.32739 0
M  V30 9860 H 922.356 2.95385 0.488705 0
M  V30 9861 H 919.902 1.42092 0.233628 0
M  V30 9862 H 921.855 3.03417 2.92431 0
M  V30 9863 H 920.579 1.80848 2.71959 0
M  V30 9864 H 919.238 3.41929 1.32213 0
M  V30 9865 H 918.886 3.30092 3.79537 0
M  V30 9866 H 918.586 4.94396 3.17563 0
M  V30 9867 H 920.11 4.58262 4.0352 0
M  V30 9868 H 921.524 5.40297 1.91708 0
M  V30 9869 H 919.921 5.86416 1.27421 0
M  V30 9870 H 920.991 4.83969 0.300261 0
M  V30 9871 N 922.334 -0.244713 1.55689 0
M  V30 9872 C 923.75 -0.593331 1.48161 0
M  V30 9873 C 923.95 -1.88234 0.719047 0
M  V30 9874 O 923.006 -2.51266 0.249292 0
M  V30 9875 C 924.319 -0.694032 2.92581 0
M  V30 9876 C 925.867 -0.786213 3.02965 0
M  V30 9877 C 926.342 -0.918457 4.48696 0
M  V30 9878 N 927.833 -0.983272 4.52643 0
M  V30 9879 C 928.568 -1.1049 5.62654 0
M  V30 9880 N 928.064 -1.19193 6.8247 0
M  V30 9881 N 929.857 -1.13823 5.50455 0
M  V30 9882 H 922.008 0.601446 2.03707 0
M  V30 9883 H 924.271 0.207894 0.924924 0
M  V30 9884 H 923.977 0.183133 3.51223 0
M  V30 9885 H 923.851 -1.56525 3.4319 0
M  V30 9886 H 926.238 -1.65383 2.44402 0
M  V30 9887 H 926.319 0.110202 2.55563 0
M  V30 9888 H 925.963 -0.0553881 5.0787 0
M  V30 9889 H 925.893 -1.82994 4.93782 0
M  V30 9890 H 928.384 -0.927269 3.66347 0
M  V30 9891 H 928.697 -1.28387 7.62061 0
M  V30 9892 H 927.042 -1.16147 6.85226 0
M  V30 9893 H 930.233 -1.06673 4.55783 0
M  V30 9894 H 930.406 -1.22957 6.36228 0
M  V30 9895 N 923.813 -1.49104 -0.510467 0
M  V30 9896 C 925.062 -1.57362 -1.26175 0
M  V30 9897 C 925.375 -0.261218 -1.93848 0
M  V30 9898 O 926.581 -0.222238 -2.70589 0
M  V30 9899 C 925.037 -2.77606 -2.29048 0
M  V30 9900 C 924.645 -4.15567 -1.67357 0
M  V30 9901 C 926.389 -2.95188 -3.05064 0
M  V30 9902 C 924.296 -5.27046 -2.68285 0
M  V30 9903 H 923.226 -0.585887 -0.474608 0
M  V30 9904 H 925.877 -1.75474 -0.536753 0
M  V30 9905 H 924.259 -2.52968 -3.04669 0
M  V30 9906 H 925.433 -4.50304 -0.977924 0
M  V30 9907 H 923.748 -4.03264 -1.03765 0
M  V30 9908 H 926.345 -3.75643 -3.80521 0
M  V30 9909 H 926.688 -2.05385 -3.62108 0
M  V30 9910 H 927.221 -3.19821 -2.36558 0
M  V30 9911 H 923.96 -6.18878 -2.16034 0
M  V30 9912 H 923.48 -4.96774 -3.36118 0
M  V30 9913 H 925.159 -5.55983 -3.30896 0
M  V30 9914 N 925.291 0.760815 -1.38019 0
M  V30 9915 C 926.538 1.51973 -1.3383 0
M  V30 9916 C 926.866 1.9436 0.0738855 0
M  V30 9917 O 926.121 1.65181 1.04946 0
M  V30 9918 C 926.42 2.79024 -2.23339 0
M  V30 9919 C 926.086 2.55636 -3.71431 0
M  V30 9920 C 924.748 2.48966 -4.11788 0
M  V30 9921 C 927.1 2.35018 -4.65205 0
M  V30 9922 C 924.428 2.19684 -5.44018 0
M  V30 9923 C 926.78 2.07258 -5.97685 0
M  V30 9924 C 925.444 1.9904 -6.37134 0
M  V30 9925 H 924.714 0.556108 -0.489719 0
M  V30 9926 H 927.361 0.87545 -1.70318 0
M  V30 9927 H 925.666 3.48065 -1.79883 0
M  V30 9928 H 927.363 3.36951 -2.17405 0
M  V30 9929 H 923.953 2.61695 -3.39432 0
M  V30 9930 H 928.137 2.39154 -4.34878 0
M  V30 9931 H 923.393 2.11825 -5.73533 0
M  V30 9932 H 927.567 1.90307 -6.69893 0
M  V30 9933 H 925.194 1.76115 -7.39519 0
M  V30 9934 N 926.769 1.22769 0.988202 0
M  V30 9935 C 927.716 1.00195 2.07917 0
M  V30 9936 C 928.686 -0.0779391 1.65917 0
M  V30 9937 O 929.871 0.0726005 1.90662 0
M  V30 9938 C 927.011 0.590853 3.40004 0
M  V30 9939 C 926.124 1.74202 3.9532 0
M  V30 9940 C 925.259 1.27846 5.15586 0
M  V30 9941 C 924.298 2.40087 5.63049 0
M  V30 9942 N 923.435 1.94744 6.74551 0
M  V30 9943 H 928.275 1.93581 2.26562 0
M  V30 9944 H 925.812 0.96448 1.11068 0
M  V30 9945 H 927.77 0.333653 4.15864 0
M  V30 9946 H 926.4 -0.306007 3.21346 0
M  V30 9947 H 925.452 2.11342 3.16289 0
M  V30 9948 H 926.764 2.58612 4.26522 0
M  V30 9949 H 925.918 0.978919 5.9875 0
M  V30 9950 H 924.657 0.404617 4.86019 0
M  V30 9951 H 923.662 2.70824 4.78471 0
M  V30 9952 H 924.887 3.27995 5.9464 0
M  V30 9953 H 922.833 1.09729 6.46758 0
M  V30 9954 H 922.75 2.72718 7.05096 0
M  V30 9955 H 924.018 1.67873 7.61209 0
M  V30 9956 N 928.247 -1.18576 1.03814 0
M  V30 9957 C 929.493 -1.88773 0.741132 0
M  V30 9958 C 929.826 -1.79993 -0.729127 0
M  V30 9959 O 929.101 -1.19851 -1.53186 0
M  V30 9960 C 929.384 -3.39352 1.20468 0
M  V30 9961 C 929.237 -3.56955 2.73684 0
M  V30 9962 C 930.556 -4.32901 0.792741 0
M  V30 9963 H 927.675 -0.685482 0.270708 0
M  V30 9964 H 930.317 -1.39523 1.2897 0
M  V30 9965 H 928.467 -3.81427 0.737974 0
M  V30 9966 H 930.139 -3.2399 3.28372 0
M  V30 9967 H 928.382 -2.99696 3.13632 0
M  V30 9968 H 929.053 -4.62598 3.01176 0
M  V30 9969 H 931.529 -3.98592 1.1943 0
M  V30 9970 H 930.405 -5.36828 1.14486 0
M  V30 9971 H 930.666 -4.41052 -0.304295 0
M  V30 9972 N 929.725 -0.817259 -1.34754 0
M  V30 9973 C 930.953 -0.415451 -2.02686 0
M  V30 9974 C 931.368 0.97688 -1.61563 0
M  V30 9975 O 930.725 1.63125 -0.818321 0
M  V30 9976 C 930.776 -0.501486 -3.58005 0
M  V30 9977 O 930.497 -1.83893 -3.97637 0
M  V30 9978 C 931.998 -0.0938504 -4.43201 0
M  V30 9979 H 929.218 -0.16742 -0.649778 0
M  V30 9980 H 931.762 -1.10384 -1.7215 0
M  V30 9981 H 929.917 0.138766 -3.87151 0
M  V30 9982 H 930.331 -1.8092 -4.92309 0
M  V30 9983 H 931.805 -0.205145 -5.51619 0
M  V30 9984 H 932.282 0.962011 -4.28535 0
M  V30 9985 H 932.888 -0.707677 -4.19371 0
M  V30 9986 N 931.203 1.46865 -0.571711 0
M  V30 9987 C 932.619 1.57897 -0.23255 0
M  V30 9988 C 932.819 1.56836 1.26509 0
M  V30 9989 O 931.875 1.47947 2.04617 0
M  V30 9990 C 933.188 2.87778 -0.872036 0
M  V30 9991 C 934.736 3.01389 -0.844605 0
M  V30 9992 C 935.211 4.33991 -1.46343 0
M  V30 9993 N 936.702 4.40662 -1.42727 0
M  V30 9994 C 937.437 5.41858 -1.87557 0
M  V30 9995 N 936.933 6.49787 -2.4031 0
M  V30 9996 N 938.726 5.32992 -1.7854 0
M  V30 9997 H 930.877 1.45798 -1.54457 0
M  V30 9998 H 933.14 0.694785 -0.644964 0
M  V30 9999 H 932.846 2.94332 -1.92513 0
M  V30 10000 H 932.72 3.75345 -0.373677 0
M  V30 10001 H 935.107 2.94423 0.19984 0
M  V30 10002 H 935.188 2.15327 -1.38087 0
M  V30 10003 H 934.832 4.41714 -2.50701 0
M  V30 10004 H 934.762 5.18809 -0.902479 0
M  V30 10005 H 937.253 3.63263 -1.04155 0
M  V30 10006 H 937.566 7.23199 -2.72403 0
M  V30 10007 H 935.911 6.50637 -2.44329 0
M  V30 10008 H 939.102 4.47575 -1.37093 0
M  V30 10009 H 939.275 6.11716 -2.13794 0
M  V30 10010 N 932.681 0.308908 1.54543 0
M  V30 10011 C 933.631 -0.578902 2.20528 0
M  V30 10012 C 934.615 -1.09288 1.18088 0
M  V30 10013 O 935.807 -1.03234 1.43777 0
M  V30 10014 C 932.936 -1.74649 2.95555 0
M  V30 10015 C 932.022 -1.24809 4.05319 0
M  V30 10016 N 932.413 -0.46828 5.03628 0
M  V30 10017 C 930.711 -1.52813 4.19004 0
M  V30 10018 C 931.412 -0.201896 5.8135 0
M  V30 10019 N 930.388 -0.783927 5.37918 0
M  V30 10020 H 934.19 0.0243496 2.9389 0
M  V30 10021 H 931.704 0.114049 1.61999 0
M  V30 10022 H 933.701 -2.39414 3.41301 0
M  V30 10023 H 932.361 -2.35336 2.23712 0
M  V30 10024 H 933.372 -0.112453 5.17778 0
M  V30 10025 H 930.049 -2.14191 3.58369 0
M  V30 10026 H 931.439 0.424929 6.70555 0
M  V30 10027 N 934.159 -1.57557 0.0367827 0
M  V30 10028 C 935.405 -1.93224 -0.635306 0
M  V30 10029 C 935.76 -0.914194 -1.69293 0
M  V30 10030 O 935.053 0.0686974 -1.91477 0
M  V30 10031 C 935.247 -3.33387 -1.28794 0
M  V30 10032 C 935.076 -4.48731 -0.295055 0
M  V30 10033 C 933.846 -5.05185 0.10783 0
M  V30 10034 C 936.044 -5.12294 0.453749 0
M  V30 10035 N 934.026 -6.04054 1.09508 0
M  V30 10036 C 935.397 -6.06335 1.29452 0
M  V30 10037 C 937.452 -4.95244 0.513622 0
M  V30 10038 C 936.155 -6.85158 2.18977 0
M  V30 10039 C 938.181 -5.74682 1.39624 0
M  V30 10040 C 937.543 -6.68344 2.22477 0
M  V30 10041 H 933.642 -0.754772 -0.204555 0
M  V30 10042 H 936.226 -1.94413 0.105751 0
M  V30 10043 H 934.397 -3.33002 -1.9991 0
M  V30 10044 H 936.129 -3.56381 -1.91767 0
M  V30 10045 H 932.884 -4.7284 -0.268192 0
M  V30 10046 H 933.308 -6.5818 1.58518 0
M  V30 10047 H 937.95 -4.2265 -0.112699 0
M  V30 10048 H 935.668 -7.57052 2.82661 0
M  V30 10049 H 939.254 -5.6352 1.44696 0
M  V30 10050 H 938.134 -7.2874 2.89668 0
M  V30 10051 N 935.637 0.236453 -1.55816 0
M  V30 10052 C 936.865 0.980295 -1.82203 0
M  V30 10053 C 937.28 1.7854 -0.613926 0
M  V30 10054 O 936.637 1.77661 0.417491 0
M  V30 10055 C 936.688 1.90982 -3.06933 0
M  V30 10056 O 936.409 1.13728 -4.23081 0
M  V30 10057 C 937.91 2.76879 -3.46198 0
M  V30 10058 H 935.13 0.28799 -0.606055 0
M  V30 10059 H 937.674 0.256182 -2.02889 0
M  V30 10060 H 935.829 2.58808 -2.88266 0
M  V30 10061 H 936.243 1.76694 -4.93842 0
M  V30 10062 H 937.717 3.37831 -4.36548 0
M  V30 10063 H 938.194 3.48522 -2.67262 0
M  V30 10064 H 938.8 2.1449 -3.67252 0
M  V30 10065 N 937.115 1.49373 0.502552 0
M  V30 10066 C 938.34 1.62752 1.28556 0
M  V30 10067 C 938.765 0.298285 1.8572 0
M  V30 10068 O 938.123 -0.733885 1.65782 0
M  V30 10069 C 938.171 2.69778 2.39274 0
M  V30 10070 O 937.275 2.28843 3.43081 0
M  V30 10071 H 936.616 0.544799 0.379592 0
M  V30 10072 H 939.146 1.9555 0.601792 0
M  V30 10073 H 939.156 2.91899 2.8506 0
M  V30 10074 H 937.831 3.66266 1.97033 0
M  V30 10075 H 936.408 2.17047 3.03224 0
M  V30 10076 N 938.594 -0.753485 1.38421 0
M  V30 10077 C 939.524 -1.8808 1.38377 0
M  V30 10078 C 940.505 -1.68258 0.249664 0
M  V30 10079 O 941.69 -1.88848 0.45276 0
M  V30 10080 C 938.82 -3.25608 1.20818 0
M  V30 10081 C 937.774 -3.60032 2.31433 0
M  V30 10082 C 937.1 -4.96297 1.9898 0
M  V30 10083 C 938.4 -3.64898 3.73694 0
M  V30 10084 H 940.094 -1.88375 2.32713 0
M  V30 10085 H 937.64 -0.90489 1.12017 0
M  V30 10086 H 939.593 -4.04127 1.19412 0
M  V30 10087 H 938.317 -3.25793 0.229433 0
M  V30 10088 H 936.976 -2.83831 2.32025 0
M  V30 10089 H 936.624 -4.93043 0.995889 0
M  V30 10090 H 936.324 -5.20298 2.73063 0
M  V30 10091 H 937.848 -5.77196 1.99193 0
M  V30 10092 H 939.262 -4.33531 3.75132 0
M  V30 10093 H 937.659 -4.00407 4.46983 0
M  V30 10094 H 938.729 -2.65124 4.06002 0
M  V30 10095 N 940.072 -1.23292 -0.981677 0
M  V30 10096 C 941.297 -1.09176 -1.76339 0
M  V30 10097 C 941.722 0.352726 -1.84763 0
M  V30 10098 O 941.08 1.25509 -1.30832 0
M  V30 10099 C 941.128 -1.72046 -3.16911 0
M  V30 10100 O 940.232 -0.98174 -4.00544 0
M  V30 10101 H 939.573 -0.382755 -0.542581 0
M  V30 10102 H 942.103 -1.63319 -1.23239 0
M  V30 10103 H 942.113 -1.77232 -3.67495 0
M  V30 10104 H 940.788 -2.77154 -3.10095 0
M  V30 10105 H 939.365 -1.00672 -3.59054 0
M  V30 10106 N 941.55 1.18024 -1.04442 0
M  V30 10107 C 942.498 2.23834 -0.632557 0
M  V30 10108 C 943.492 1.65902 0.342488 0
M  V30 10109 O 944.698 1.78778 0.20937 0
M  V30 10110 H 941.073 0.728544 -0.186353 0
M  V30 10111 H 943.044 2.55876 -1.53526 0
M  V30 10112 C 941.793 3.47697 -0.0153661 0
M  V30 10113 H 941.116 3.92574 -0.756704 0
M  V30 10114 H 942.556 4.23345 0.235541 0
M  V30 10115 C 941.015 3.13416 1.23579 0
M  V30 10116 O 941.545 3.27499 2.3261 0
M  V30 10117 N 939.751 2.67708 1.13053 0
M  V30 10118 H 939.298 2.56449 0.243277 0
M  V30 10119 H 939.256 2.45143 1.96855 0
M  V30 10120 N 943.028 0.824394 1.34319 0
M  V30 10121 C 943.958 0.262077 2.32025 0
M  V30 10122 C 944.939 -0.622277 1.58309 0
M  V30 10123 O 946.124 -0.548848 1.86283 0
M  V30 10124 C 943.254 -0.57567 3.42496 0
M  V30 10125 C 942.208 0.21167 4.27476 0
M  V30 10126 C 941.534 -0.748913 5.29429 0
M  V30 10127 C 942.834 1.42068 5.02607 0
M  V30 10128 H 944.528 1.07842 2.79304 0
M  V30 10129 H 942.074 0.520022 1.34282 0
M  V30 10130 H 944.027 -0.979251 4.09864 0
M  V30 10131 H 942.751 -1.42508 2.93869 0
M  V30 10132 H 941.41 0.596636 3.61712 0
M  V30 10133 H 941.058 -1.59432 4.77064 0
M  V30 10134 H 940.758 -0.226313 5.87164 0
M  V30 10135 H 942.282 -1.15032 5.99667 0
M  V30 10136 H 943.696 1.09103 5.62823 0
M  V30 10137 H 942.093 1.87903 5.69923 0
M  V30 10138 H 943.163 2.1981 4.32217 0
M  V30 10139 N 944.506 -1.46559 0.579492 0
M  V30 10140 C 945.752 -2.02699 0.0639363 0
M  V30 10141 C 946.085 -1.4504 -1.29139 0
M  V30 10142 O 945.36 -0.614284 -1.84545 0
M  V30 10143 C 945.643 -3.601 -0.00528618 0
M  V30 10144 C 945.496 -4.28149 1.37871 0
M  V30 10145 C 946.815 -4.34375 -0.707537 0
M  V30 10146 H 943.934 -0.736586 0.0247085 0
M  V30 10147 H 946.576 -1.74739 0.746071 0
M  V30 10148 H 944.726 -3.84052 -0.586206 0
M  V30 10149 H 946.398 -4.1547 2.00455 0
M  V30 10150 H 944.641 -3.87636 1.94732 0
M  V30 10151 H 945.312 -5.36888 1.28278 0
M  V30 10152 H 947.788 -4.15549 -0.214064 0
M  V30 10153 H 946.664 -5.44091 -0.724992 0
M  V30 10154 H 946.925 -4.052 -1.7682 0
M  V30 10155 N 945.984 -0.3171 -1.54377 0
M  V30 10156 C 946.947 0.53905 -2.22771 0
M  V30 10157 C 947.947 1.04865 -1.21901 0
M  V30 10158 O 949.137 0.942108 -1.46526 0
M  V30 10159 C 946.269 1.74804 -2.92671 0
M  V30 10160 H 947.462 -0.0587417 -2.99842 0
M  V30 10161 H 945.015 -0.068107 -1.56152 0
M  V30 10162 H 945.75 2.38524 -2.1972 0
M  V30 10163 H 945.535 1.39011 -3.66631 0
M  V30 10164 H 947.025 2.35592 -3.44799 0
M  V30 10165 N 947.462 1.57535 -0.0451378 0
M  V30 10166 C 948.687 1.97172 0.64326 0
M  V30 10167 C 949.112 0.922266 1.63939 0
M  V30 10168 O 948.47 -0.115155 1.80934 0
M  V30 10169 C 948.518 3.35889 1.3119 0
M  V30 10170 O 947.622 3.33387 2.42748 0
M  V30 10171 H 946.963 0.642469 0.167719 0
M  V30 10172 H 949.493 2.04295 -0.111747 0
M  V30 10173 H 949.503 3.72481 1.66499 0
M  V30 10174 H 948.178 4.1181 0.581823 0
M  V30 10175 H 946.755 3.08533 2.09432 0
M  V30 10176 N 948.94 -0.228186 1.55939 0
M  V30 10177 C 949.87 -1.28607 1.94891 0
M  V30 10178 C 950.851 -1.49236 0.816245 0
M  V30 10179 O 952.036 -1.61531 1.07803 0
M  V30 10180 C 949.166 -2.63719 2.25986 0
M  V30 10181 C 948.12 -2.57757 3.4168 0
M  V30 10182 C 947.446 -3.96837 3.58364 0
M  V30 10183 C 948.746 -2.13116 4.76843 0
M  V30 10184 H 950.44 -0.962531 2.83506 0
M  V30 10185 H 947.986 -0.461577 1.36402 0
M  V30 10186 H 949.939 -3.37878 2.51826 0
M  V30 10187 H 948.663 -2.97747 1.34217 0
M  V30 10188 H 947.322 -1.86055 3.15878 0
M  V30 10189 H 946.97 -4.28162 2.63982 0
M  V30 10190 H 946.67 -3.93731 4.36176 0
M  V30 10191 H 948.194 -4.72668 3.86545 0
M  V30 10192 H 949.608 -2.77015 5.01932 0
M  V30 10193 H 948.005 -2.21083 5.57891 0
M  V30 10194 H 949.075 -1.08326 4.72645 0
M  V30 10195 N 950.418 -1.49637 -0.494624 0
M  V30 10196 C 951.348 -1.69692 -1.60396 0
M  V30 10197 C 952.329 -0.545648 -1.61111 0
M  V30 10198 O 953.514 -0.782202 -1.77751 0
M  V30 10199 C 950.644 -1.76934 -2.9885 0
M  V30 10200 C 949.598 -2.91915 -3.13001 0
M  V30 10201 C 948.924 -2.84276 -4.5287 0
M  V30 10202 C 950.224 -4.32764 -2.92426 0
M  V30 10203 H 951.918 -2.6257 -1.43866 0
M  V30 10204 H 949.464 -1.26355 -0.690679 0
M  V30 10205 H 951.417 -1.8955 -3.76362 0
M  V30 10206 H 950.141 -0.806609 -3.16483 0
M  V30 10207 H 948.8 -2.78911 -2.37916 0
M  V30 10208 H 948.448 -1.85897 -4.67388 0
M  V30 10209 H 948.148 -3.61452 -4.63278 0
M  V30 10210 H 949.672 -2.98909 -5.32434 0
M  V30 10211 H 951.086 -4.46415 -3.59703 0
M  V30 10212 H 949.483 -5.1121 -3.143 0
M  V30 10213 H 950.553 -4.46765 -1.88491 0
M  V30 10214 N 951.896 0.746133 -1.38819 0
M  V30 10215 C 952.844 1.88137 -1.36774 0
M  V30 10216 C 953.838 1.67508 -0.252495 0
M  V30 10217 O 955.044 1.74985 -0.421935 0
M  V30 10218 H 951.419 0.619116 -0.426849 0
M  V30 10219 H 953.39 1.86978 -2.32555 0
M  V30 10220 C 952.139 3.25703 -1.21708 0
M  V30 10221 H 951.462 3.42168 -2.06788 0
M  V30 10222 H 952.902 4.05361 -1.24332 0
M  V30 10223 C 951.361 3.36816 0.0754257 0
M  V30 10224 O 951.891 3.87742 1.04972 0
M  V30 10225 N 950.097 2.90287 0.134761 0
M  V30 10226 H 949.644 2.49034 -0.658779 0
M  V30 10227 H 949.602 2.98103 0.999109 0
M  V30 10228 N 953.375 1.23811 0.975125 0
M  V30 10229 C 954.6 1.10109 1.75757 0
M  V30 10230 C 955.025 -0.342922 1.84948 0
M  V30 10231 O 954.383 -1.24814 1.31496 0
M  V30 10232 C 954.431 1.73724 3.15994 0
M  V30 10233 O 953.535 1.00297 4.00018 0
M  V30 10234 H 952.876 0.385627 0.540544 0
M  V30 10235 H 955.406 1.63971 1.22372 0
M  V30 10236 H 955.416 1.79178 3.6655 0
M  V30 10237 H 954.091 2.78794 3.0862 0
M  V30 10238 H 952.668 1.02575 3.58515 0
M  V30 10239 N 954.853 -1.17469 1.05066 0
M  V30 10240 C 955.786 -2.2031 0.594863 0
M  V30 10241 C 956.764 -1.58196 -0.375878 0
M  V30 10242 O 957.948 -1.8629 -0.287798 0
M  V30 10243 C 955.075 -3.38452 -0.129614 0
M  V30 10244 C 954.121 -4.19007 0.795943 0
M  V30 10245 S 954.954 -4.8433 2.28441 0
M  V30 10246 C 956.11 -6.05862 1.57107 0
M  V30 10247 H 956.343 -2.58632 1.46618 0
M  V30 10248 H 953.876 -1.28063 0.862511 0
M  V30 10249 H 955.834 -4.06914 -0.541416 0
M  V30 10250 H 954.495 -2.98521 -0.976948 0
M  V30 10251 H 953.688 -5.0345 0.235396 0
M  V30 10252 H 953.29 -3.55976 1.14705 0
M  V30 10253 H 955.582 -6.71895 0.86969 0
M  V30 10254 H 956.525 -6.66442 2.39292 0
M  V30 10255 H 956.933 -5.54477 1.05903 0
M  V30 10256 N 956.331 -0.831506 -1.3388 0
M  V30 10257 C 957.278 -0.257449 -2.2936 0
M  V30 10258 C 958.248 0.622604 -1.5399 0
M  V30 10259 O 959.433 0.562432 -1.82322 0
M  V30 10260 C 956.573 0.567587 -3.404 0
M  V30 10261 C 955.686 -0.335666 -4.30694 0
M  V30 10262 C 954.821 0.499762 -5.28844 0
M  V30 10263 C 953.86 -0.402343 -6.10776 0
M  V30 10264 N 952.997 0.39452 -7.00991 0
M  V30 10265 H 957.837 -1.077 -2.77857 0
M  V30 10266 H 955.374 -0.542589 -1.36727 0
M  V30 10267 H 957.332 1.06133 -4.03474 0
M  V30 10268 H 955.962 1.35217 -2.93115 0
M  V30 10269 H 955.014 -0.94768 -3.68406 0
M  V30 10270 H 956.326 -1.02896 -4.88072 0
M  V30 10271 H 955.48 1.05763 -5.9741 0
M  V30 10272 H 954.219 1.22652 -4.72025 0
M  V30 10273 H 953.224 -0.972288 -5.41135 0
M  V30 10274 H 954.449 -1.12735 -6.69677 0
M  V30 10275 H 952.395 1.1048 -6.4663 0
M  V30 10276 H 952.312 -0.240209 -7.55618 0
M  V30 10277 H 953.58 0.934867 -7.73874 0
M  V30 10278 N 957.809 1.4625 -0.587256 0
M  V30 10279 C 959.034 2.07252 -0.0784517 0
M  V30 10280 C 959.459 1.43239 1.21919 0
M  V30 10281 O 958.817 0.517791 1.73749 0
M  V30 10282 C 958.865 3.60534 0.0691037 0
M  V30 10283 O 957.969 3.96773 1.12448 0
M  V30 10284 H 957.31 0.660825 -0.064859 0
M  V30 10285 H 959.84 1.87819 -0.811491 0
M  V30 10286 H 959.85 4.0708 0.273826 0
M  V30 10287 H 958.525 4.06516 -0.878514 0
M  V30 10288 H 957.102 3.6193 0.897852 0
M  V30 10289 N 959.287 0.325282 1.54207 0
M  V30 10290 C 960.536 -0.27768 1.99779 0
M  V30 10291 C 960.849 -1.5311 1.21723 0
M  V30 10292 O 962.055 -2.21017 1.57682 0
M  V30 10293 C 960.511 -0.545329 3.55745 0
M  V30 10294 C 960.119 0.691143 4.42637 0
M  V30 10295 C 961.863 -1.10815 4.09781 0
M  V30 10296 C 959.77 0.395302 5.90077 0
M  V30 10297 H 958.7 -0.107536 0.746292 0
M  V30 10298 H 961.351 0.437773 1.78202 0
M  V30 10299 H 959.733 -1.32101 3.73317 0
M  V30 10300 H 960.907 1.46653 4.3684 0
M  V30 10301 H 959.222 1.1743 3.99499 0
M  V30 10302 H 961.819 -1.34414 5.1753 0
M  V30 10303 H 962.162 -2.05806 3.6187 0
M  V30 10304 H 962.695 -0.393608 3.95848 0
M  V30 10305 H 959.434 1.31443 6.42186 0
M  V30 10306 H 958.954 -0.34235 5.98822 0
M  V30 10307 H 960.633 0.00576877 6.47 0
M  V30 10308 N 960.765 -1.57509 0.0534917 0
M  V30 10309 C 961.728 -2.10563 -0.905307 0
M  V30 10310 C 962.728 -1.02571 -1.23838 0
M  V30 10311 O 963.918 -1.28635 -1.17468 0
M  V30 10312 C 961.05 -2.5918 -2.21447 0
M  V30 10313 H 962.243 -2.96575 -0.445354 0
M  V30 10314 H 959.796 -1.55079 -0.194947 0
M  V30 10315 H 960.531 -1.76568 -2.72019 0
M  V30 10316 H 960.316 -3.38098 -1.98575 0
M  V30 10317 H 961.806 -3.00365 -2.90122 0
M  V30 10318 N 962.243 0.219913 -1.56058 0
M  V30 10319 C 963.468 0.965073 -1.83579 0
M  V30 10320 C 963.893 1.77092 -0.634024 0
M  V30 10321 O 963.251 1.76434 0.417205 0
M  V30 10322 C 963.299 1.85705 -3.09105 0
M  V30 10323 O 962.403 2.95261 -2.87914 0
M  V30 10324 H 961.744 0.273173 -0.605204 0
M  V30 10325 H 964.274 0.23273 -2.03272 0
M  V30 10326 H 964.284 2.26655 -3.39252 0
M  V30 10327 H 962.959 1.26476 -3.96203 0
M  V30 10328 H 961.536 2.58246 -2.69005 0
M  V30 10329 N 963.721 1.49897 0.486681 0
M  V30 10330 C 964.651 1.7054 1.59494 0
M  V30 10331 C 965.632 0.554184 1.60819 0
M  V30 10332 O 966.817 0.791617 1.77333 0
M  V30 10333 C 963.947 1.78517 2.97908 0
M  V30 10334 C 962.901 2.93571 3.11449 0
M  V30 10335 C 962.227 2.86674 4.51356 0
M  V30 10336 C 963.527 4.34308 2.90127 0
M  V30 10337 H 965.221 2.63329 1.42472 0
M  V30 10338 H 962.767 1.2672 0.683969 0
M  V30 10339 H 964.72 1.91544 3.75352 0
M  V30 10340 H 963.444 0.823381 3.16051 0
M  V30 10341 H 962.103 2.80169 2.36433 0
M  V30 10342 H 961.751 1.88373 4.66395 0
M  V30 10343 H 961.451 3.63903 4.61355 0
M  V30 10344 H 962.975 3.01728 5.30841 0
M  V30 10345 H 964.389 4.48317 3.57331 0
M  V30 10346 H 962.786 5.12869 3.11585 0
M  V30 10347 H 963.856 4.47759 1.86119 0
M  V30 10348 N 965.199 -0.738761 1.39212 0
M  V30 10349 C 966.129 -1.86602 1.40364 0
M  V30 10350 C 967.11 -1.67984 0.267495 0
M  V30 10351 O 968.295 -1.88358 0.472765 0
M  V30 10352 C 965.425 -3.24308 1.24265 0
M  V30 10353 C 964.379 -3.57557 2.35239 0
M  V30 10354 C 963.705 -4.94159 2.04233 0
M  V30 10355 C 965.005 -3.60914 3.77543 0
M  V30 10356 H 966.699 -1.85896 2.34698 0
M  V30 10357 H 964.245 -0.892959 1.1297 0
M  V30 10358 H 966.198 -4.02838 1.23692 0
M  V30 10359 H 964.922 -3.25531 0.263974 0
M  V30 10360 H 963.581 -2.81354 2.35022 0
M  V30 10361 H 963.229 -4.91959 1.04813 0
M  V30 10362 H 962.929 -5.17373 2.78567 0
M  V30 10363 H 964.453 -5.7505 2.05303 0
M  V30 10364 H 965.867 -4.29528 3.79709 0
M  V30 10365 H 964.264 -3.95644 4.51205 0
M  V30 10366 H 965.334 -2.60803 4.08791 0
M  V30 10367 N 966.677 -1.24326 -0.968545 0
M  V30 10368 C 967.607 -1.05951 -2.08079 0
M  V30 10369 C 968.588 0.0272666 -1.70078 0
M  V30 10370 O 969.773 -0.139644 -1.93697 0
M  V30 10371 C 966.903 -0.662623 -3.4092 0
M  V30 10372 C 965.857 -1.69807 -3.92873 0
M  V30 10373 C 965.183 -1.15628 -5.22048 0
M  V30 10374 C 966.483 -3.09383 -4.20808 0
M  V30 10375 H 968.177 -1.98984 -2.23709 0
M  V30 10376 H 965.723 -0.958112 -1.075 0
M  V30 10377 H 967.676 -0.521071 -4.18166 0
M  V30 10378 H 966.4 0.303399 -3.25188 0
M  V30 10379 H 965.059 -1.82783 -3.17783 0
M  V30 10380 H 964.707 -0.180888 -5.02675 0
M  V30 10381 H 964.407 -1.84822 -5.57776 0
M  V30 10382 H 965.931 -1.02683 -6.01904 0
M  V30 10383 H 967.345 -2.99642 -4.88761 0
M  V30 10384 H 965.742 -3.75923 -4.67763 0
M  V30 10385 H 966.812 -3.57486 -3.27616 0
M  V30 10386 N 968.156 1.1691 -1.05688 0
M  V30 10387 C 969.086 2.23275 -0.683402 0
M  V30 10388 C 970.067 1.6704 0.321206 0
M  V30 10389 O 971.252 1.93191 0.197691 0
M  V30 10390 C 968.382 3.47244 -0.0626006 0
M  V30 10391 C 967.336 4.16333 -0.992513 0
M  V30 10392 C 966.662 5.34182 -0.23533 0
M  V30 10393 C 967.962 4.68002 -2.31886 0
M  V30 10394 H 969.656 2.54771 -1.57264 0
M  V30 10395 H 967.202 1.2246 -0.757606 0
M  V30 10396 H 969.155 4.20874 0.210503 0
M  V30 10397 H 967.879 3.1503 0.861616 0
M  V30 10398 H 966.538 3.44622 -1.25026 0
M  V30 10399 H 966.186 4.9822 0.69181 0
M  V30 10400 H 965.886 5.81346 -0.855002 0
M  V30 10401 H 967.41 6.10592 0.0303717 0
M  V30 10402 H 968.824 5.33244 -2.10531 0
M  V30 10403 H 967.221 5.25764 -2.89296 0
M  V30 10404 H 968.291 3.84541 -2.95391 0
M  V30 10405 N 969.634 0.838594 1.33437 0
M  V30 10406 C 970.564 0.286672 2.31734 0
M  V30 10407 C 971.545 -0.605451 1.5896 0
M  V30 10408 O 972.73 -0.529059 1.86854 0
M  V30 10409 C 969.86 -0.539311 3.43087 0
M  V30 10410 C 968.814 0.256997 4.27228 0
M  V30 10411 C 968.14 -0.692718 5.30194 0
M  V30 10412 C 969.44 1.47391 5.01072 0
M  V30 10413 H 971.134 1.10798 2.78144 0
M  V30 10414 H 968.68 0.534235 1.33723 0
M  V30 10415 H 970.633 -0.935724 4.1088 0
M  V30 10416 H 969.357 -1.39383 2.95364 0
M  V30 10417 H 968.016 0.634967 3.61059 0
M  V30 10418 H 967.664 -1.54363 4.78729 0
M  V30 10419 H 967.364 -0.164023 5.87371 0
M  V30 10420 H 968.888 -1.08665 6.00853 0
M  V30 10421 H 970.302 1.15067 5.61634 0
M  V30 10422 H 968.699 1.93937 5.67898 0
M  V30 10423 H 969.769 2.24382 4.29861 0
M  V30 10424 N 971.112 -1.45937 0.595003 0
M  V30 10425 C 972.359 -2.0232 0.0853053 0
M  V30 10426 C 972.687 -1.465 -1.27937 0
M  V30 10427 O 971.942 -0.624767 -1.85459 0
M  V30 10428 C 972.241 -3.57396 -0.0173747 0
M  V30 10429 C 971.907 -4.32311 1.28131 0
M  V30 10430 C 970.569 -4.52496 1.63708 0
M  V30 10431 C 972.921 -4.75233 2.14017 0
M  V30 10432 C 970.249 -5.12857 2.84947 0
M  V30 10433 C 972.601 -5.36933 3.34493 0
M  V30 10434 C 971.265 -5.55343 3.70338 0
M  V30 10435 H 970.535 -0.740342 0.0312154 0
M  V30 10436 H 973.182 -1.75157 0.774103 0
M  V30 10437 H 971.487 -3.83766 -0.789371 0
M  V30 10438 H 973.184 -3.98713 -0.427699 0
M  V30 10439 H 969.774 -4.16905 0.994374 0
M  V30 10440 H 973.958 -4.59383 1.87833 0
M  V30 10441 H 969.214 -5.253 3.12841 0
M  V30 10442 H 973.388 -5.69147 4.01304 0
M  V30 10443 H 971.015 -6.01883 4.64371 0
M  V30 10444 N 972.59 -0.333456 -1.54032 0
M  V30 10445 C 973.52 0.52051 -2.27625 0
M  V30 10446 C 974.501 1.1111 -1.28797 0
M  V30 10447 O 975.686 1.13438 -1.57625 0
M  V30 10448 C 972.816 1.67663 -3.04149 0
M  V30 10449 C 971.77 1.21487 -4.10396 0
M  V30 10450 C 971.096 2.45872 -4.74817 0
M  V30 10451 C 972.396 0.322603 -5.21303 0
M  V30 10452 H 974.09 -0.0933823 -2.99254 0
M  V30 10453 H 971.636 -0.0463526 -1.43925 0
M  V30 10454 H 973.589 2.28041 -3.54366 0
M  V30 10455 H 972.313 2.31727 -2.30153 0
M  V30 10456 H 970.972 0.633966 -3.61077 0
M  V30 10457 H 970.62 3.0832 -3.97426 0
M  V30 10458 H 970.32 2.15662 -5.46593 0
M  V30 10459 H 971.844 3.06994 -5.27814 0
M  V30 10460 H 973.258 0.832942 -5.67217 0
M  V30 10461 H 971.655 0.112843 -5.99994 0
M  V30 10462 H 972.725 -0.643954 -4.80605 0
M  V30 10463 N 974.068 1.57479 -0.061844 0
M  V30 10464 C 975.315 1.93108 0.60954 0
M  V30 10465 C 975.643 0.941086 1.70217 0
M  V30 10466 O 974.898 -0.044914 1.95648 0
M  V30 10467 C 975.197 3.35394 1.23474 0
M  V30 10468 C 974.863 4.50095 0.269247 0
M  V30 10469 C 973.525 4.812 0.00360316 0
M  V30 10470 C 975.877 5.19725 -0.391839 0
M  V30 10471 C 973.205 5.79276 -0.930383 0
M  V30 10472 C 975.557 6.18801 -1.31408 0
M  V30 10473 C 974.221 6.48328 -1.58829 0
M  V30 10474 H 973.491 0.706634 0.223046 0
M  V30 10475 H 976.138 1.91054 -0.1306 0
M  V30 10476 H 974.443 3.33866 2.05039 0
M  V30 10477 H 976.14 3.60247 1.76134 0
M  V30 10478 H 972.73 4.2583 0.486477 0
M  V30 10479 H 976.914 4.95898 -0.199713 0
M  V30 10480 H 972.17 6.00484 -1.15019 0
M  V30 10481 H 976.344 6.71862 -1.83234 0
M  V30 10482 H 973.971 7.24137 -2.31363 0
M  V30 10483 N 975.546 -0.211634 1.56173 0
M  V30 10484 C 976.795 -0.932647 1.78842 0
M  V30 10485 C 977.108 -1.85103 0.63217 0
M  V30 10486 O 978.314 -2.61143 0.742746 0
M  V30 10487 C 976.77 -1.70866 3.16753 0
M  V30 10488 C 976.378 -0.835934 4.40132 0
M  V30 10489 C 978.122 -2.4203 3.48743 0
M  V30 10490 C 976.029 -1.60987 5.69067 0
M  V30 10491 H 974.959 -0.351983 0.666801 0
M  V30 10492 H 977.61 -0.186284 1.82552 0
M  V30 10493 H 975.992 -2.4983 3.07247 0
M  V30 10494 H 977.166 -0.0861298 4.60719 0
M  V30 10495 H 975.481 -0.235941 4.15731 0
M  V30 10496 H 978.078 -3.00453 4.42303 0
M  V30 10497 H 978.421 -3.15406 2.71707 0
M  V30 10498 H 978.954 -1.70048 3.59623 0
M  V30 10499 H 975.693 -0.9192 6.49023 0
M  V30 10500 H 975.213 -2.33403 5.52524 0
M  V30 10501 H 976.892 -2.16798 6.09596 0
M  V30 10502 N 977.024 -1.50153 -0.478725 0
M  V30 10503 C 978.273 -1.60002 -1.22809 0
M  V30 10504 C 978.586 -0.302277 -1.9325 0
M  V30 10505 O 979.792 -0.279583 -2.70057 0
M  V30 10506 C 978.248 -2.82402 -2.23108 0
M  V30 10507 C 977.856 -4.19023 -1.58505 0
M  V30 10508 C 979.6 -3.01593 -2.98734 0
M  V30 10509 C 977.507 -5.32618 -2.57045 0
M  V30 10510 H 976.437 -0.595822 -0.462073 0
M  V30 10511 H 979.088 -1.76573 -0.499412 0
M  V30 10512 H 977.47 -2.59373 -2.99235 0
M  V30 10513 H 978.644 -4.52277 -0.882187 0
M  V30 10514 H 976.959 -4.05374 -0.951877 0
M  V30 10515 H 979.556 -3.8363 -3.72468 0
M  V30 10516 H 979.899 -2.1302 -3.57671 0
M  V30 10517 H 980.432 -3.24766 -2.29721 0
M  V30 10518 H 977.171 -6.23321 -2.02858 0
M  V30 10519 H 976.691 -5.03792 -3.25505 0
M  V30 10520 H 978.37 -5.62877 -3.19028 0
M  V30 10521 N 978.502 0.731368 -1.39602 0
M  V30 10522 C 979.751 1.48647 -1.36334 0
M  V30 10523 C 980.064 1.95565 0.0367383 0
M  V30 10524 O 981.27 2.7082 0.192017 0
M  V30 10525 C 979.726 2.68616 -2.39528 0
M  V30 10526 C 979.334 2.28632 -3.85268 0
M  V30 10527 C 981.078 3.46422 -2.45341 0
M  V30 10528 C 978.985 3.45345 -4.80095 0
M  V30 10529 H 977.915 0.558218 -0.506861 0
M  V30 10530 H 980.566 0.797467 -1.65266 0
M  V30 10531 H 978.948 3.39609 -2.03671 0
M  V30 10532 H 980.122 1.65162 -4.30184 0
M  V30 10533 H 978.437 1.63909 -3.82783 0
M  V30 10534 H 981.034 4.33241 -3.13379 0
M  V30 10535 H 981.377 3.8914 -1.47904 0
M  V30 10536 H 981.91 2.82461 -2.80108 0
M  V30 10537 H 978.649 3.07674 -5.78807 0
M  V30 10538 H 978.169 4.07784 -4.39855 0
M  V30 10539 H 979.848 4.1163 -4.99169 0
M  V30 10540 N 979.98 1.24838 0.961938 0
M  V30 10541 C 981.227 1.09151 1.70564 0
M  V30 10542 C 981.555 -0.368719 1.90973 0
M  V30 10543 O 980.81 -1.28854 1.47293 0
M  V30 10544 C 981.109 1.78289 3.09754 0
M  V30 10545 C 980.775 3.28216 3.09169 0
M  V30 10546 C 979.437 3.69118 3.08716 0
M  V30 10547 C 981.789 4.24035 3.03058 0
M  V30 10548 C 979.117 5.04263 2.99892 0
M  V30 10549 C 981.469 5.59195 2.95776 0
M  V30 10550 C 980.133 5.99436 2.93655 0
M  V30 10551 H 979.403 0.399414 0.624139 0
M  V30 10552 H 982.05 1.55016 1.12438 0
M  V30 10553 H 980.355 1.24835 3.7138 0
M  V30 10554 H 982.052 1.63612 3.66104 0
M  V30 10555 H 978.642 2.95667 3.10289 0
M  V30 10556 H 982.826 3.93431 3.02532 0
M  V30 10557 H 978.082 5.3463 2.96615 0
M  V30 10558 H 982.256 6.33142 2.90007 0
M  V30 10559 H 979.883 7.04116 2.86573 0
M  V30 10560 N 981.458 -1.16348 1.06306 0
M  V30 10561 C 982.683 -1.91323 0.800636 0
M  V30 10562 C 983.108 -1.7691 -0.639105 0
M  V30 10563 O 982.466 -1.0945 -1.44535 0
M  V30 10564 C 982.514 -3.40038 1.20027 0
M  V30 10565 O 981.618 -4.11003 0.339142 0
M  V30 10566 H 980.959 -0.596057 0.292595 0
M  V30 10567 H 983.489 -1.47406 1.41889 0
M  V30 10568 H 983.499 -3.90808 1.17188 0
M  V30 10569 H 982.174 -3.49848 2.24898 0
M  V30 10570 H 980.751 -3.70423 0.42911 0
M  V30 10571 N 982.937 -0.845659 -1.3299 0
M  V30 10572 C 983.867 -0.298957 -2.31578 0
M  V30 10573 C 984.848 0.597012 -1.59279 0
M  V30 10574 O 986.033 0.519142 -1.87132 0
M  V30 10575 C 983.163 0.521109 -3.43368 0
M  V30 10576 C 982.117 -0.279651 -4.27085 0
M  V30 10577 C 981.443 0.664591 -5.30554 0
M  V30 10578 C 982.743 -1.50046 -5.00283 0
M  V30 10579 H 984.437 -1.12272 -2.77552 0
M  V30 10580 H 981.983 -0.54132 -1.33438 0
M  V30 10581 H 983.936 0.913921 -4.1137 0
M  V30 10582 H 982.66 1.37815 -2.96099 0
M  V30 10583 H 981.319 -0.654106 -3.60717 0
M  V30 10584 H 980.967 1.51822 -4.79541 0
M  V30 10585 H 980.667 0.132871 -5.8745 0
M  V30 10586 H 982.191 1.05477 -6.01421 0
M  V30 10587 H 983.605 -1.18044 -5.61016 0
M  V30 10588 H 982.002 -1.96946 -5.66862 0
M  V30 10589 H 983.072 -2.26659 -4.28665 0
M  V30 10590 N 984.415 1.45619 -0.602734 0
M  V30 10591 C 985.345 2.33258 0.106342 0
M  V30 10592 C 986.326 1.46543 0.863664 0
M  V30 10593 O 987.511 1.75324 0.835175 0
M  V30 10594 C 984.641 3.29168 1.10751 0
M  V30 10595 C 983.595 4.25481 0.463717 0
M  V30 10596 C 982.921 5.11046 1.57278 0
M  V30 10597 C 984.221 5.18702 -0.61199 0
M  V30 10598 H 985.915 2.92795 -0.625423 0
M  V30 10599 H 983.461 1.40793 -0.302213 0
M  V30 10600 H 985.414 3.89346 1.61208 0
M  V30 10601 H 984.138 2.6778 1.8698 0
M  V30 10602 H 982.797 3.66595 -0.0199496 0
M  V30 10603 H 982.445 4.46029 2.32524 0
M  V30 10604 H 982.145 5.76286 1.14755 0
M  V30 10605 H 983.669 5.74091 2.07972 0
M  V30 10606 H 985.083 5.72979 -0.191686 0
M  V30 10607 H 983.48 5.92393 -0.958686 0
M  V30 10608 H 984.55 4.61424 -1.4905 0
M  V30 10609 N 985.893 0.34162 1.53853 0
M  V30 10610 C 987.141 -0.254979 2.00485 0
M  V30 10611 C 987.462 -1.51222 1.23114 0
M  V30 10612 O 986.732 -1.92966 0.337787 0
M  V30 10613 H 985.312 -0.0972084 0.740648 0
M  V30 10614 H 987.974 0.462332 1.89337 0
M  V30 10615 H 987.07 -0.498778 3.08089 0
M  V30 10616 N 987.371 -1.57444 0.0701946 0
M  V30 10617 C 988.304 -2.08232 -0.93352 0
M  V30 10618 C 989.282 -0.987073 -1.29212 0
M  V30 10619 O 990.466 -1.26035 -1.40169 0
M  V30 10620 C 987.593 -2.53866 -2.2421 0
M  V30 10621 C 986.639 -3.7481 -2.03518 0
M  V30 10622 S 987.472 -5.1958 -1.29601 0
M  V30 10623 C 988.628 -5.68544 -2.61742 0
M  V30 10624 H 988.861 -2.93042 -0.501354 0
M  V30 10625 H 986.394 -1.53741 -0.142533 0
M  V30 10626 H 988.352 -2.80818 -2.99419 0
M  V30 10627 H 987.013 -1.69327 -2.64551 0
M  V30 10628 H 986.206 -4.04724 -3.00358 0
M  V30 10629 H 985.808 -3.48222 -1.36445 0
M  V30 10630 H 988.1 -5.75291 -3.57836 0
M  V30 10631 H 989.043 -6.67459 -2.3644 0
M  V30 10632 H 989.451 -4.96354 -2.68873 0
M  V30 10633 N 988.849 0.203349 -1.56283 0
M  V30 10634 C 989.781 1.27592 -1.90402 0
M  V30 10635 C 990.794 1.4213 -0.79391 0
M  V30 10636 O 991.983 1.42703 -1.07229 0
M  V30 10637 C 989.083 2.64919 -2.11356 0
M  V30 10638 C 988.256 2.72095 -3.42466 0
M  V30 10639 C 987.315 3.9056 -3.52631 0
M  V30 10640 O 986.341 3.78048 -4.25521 0
M  V30 10641 N 987.543 5.0566 -2.85111 0
M  V30 10642 H 990.308 0.986423 -2.83001 0
M  V30 10643 H 987.869 0.39331 -1.5705 0
M  V30 10644 H 989.861 3.42581 -2.15453 0
M  V30 10645 H 988.431 2.86391 -1.25295 0
M  V30 10646 H 987.651 1.8077 -3.50308 0
M  V30 10647 H 988.939 2.73874 -4.28801 0
M  V30 10648 H 988.337 5.18723 -2.25705 0
M  V30 10649 H 986.894 5.81299 -2.94847 0
M  V30 10650 N 990.327 1.50405 0.470755 0
M  V30 10651 C 991.257 1.72222 1.57676 0
M  V30 10652 C 992.238 0.57121 1.60222 0
M  V30 10653 O 993.423 0.810381 1.76484 0
M  V30 10654 C 990.553 1.81666 2.95998 0
M  V30 10655 C 989.507 2.96857 3.08318 0
M  V30 10656 C 988.833 2.91445 4.4829 0
M  V30 10657 C 990.133 4.37361 2.85504 0
M  V30 10658 H 991.827 2.64825 1.39671 0
M  V30 10659 H 989.373 1.27438 0.67049 0
M  V30 10660 H 991.326 1.95514 3.73299 0
M  V30 10661 H 990.05 0.856856 3.1516 0
M  V30 10662 H 988.709 2.82661 2.33449 0
M  V30 10663 H 988.357 1.93309 4.64371 0
M  V30 10664 H 988.057 3.68776 4.57469 0
M  V30 10665 H 989.581 3.07341 5.27611 0
M  V30 10666 H 990.995 4.52081 3.52555 0
M  V30 10667 H 989.392 5.16145 3.06127 0
M  V30 10668 H 990.462 4.49708 1.81359 0
M  V30 10669 N 991.805 -0.723954 1.39988 0
M  V30 10670 C 993.052 -1.48371 1.37812 0
M  V30 10671 C 993.38 -1.94487 -0.0223285 0
M  V30 10672 O 992.635 -1.67906 -1.00529 0
M  V30 10673 C 992.934 -2.73004 2.30659 0
M  V30 10674 C 992.6 -2.45698 3.78078 0
M  V30 10675 C 991.262 -2.37961 4.18244 0
M  V30 10676 C 993.614 -2.22601 4.71273 0
M  V30 10677 C 990.942 -2.05183 5.49652 0
M  V30 10678 C 993.294 -1.91339 6.0297 0
M  V30 10679 C 991.958 -1.82078 6.42187 0
M  V30 10680 H 991.228 -0.542929 0.504291 0
M  V30 10681 H 993.875 -0.829986 1.72579 0
M  V30 10682 H 992.18 -3.43174 1.89048 0
M  V30 10683 H 993.877 -3.31068 2.26263 0
M  V30 10684 H 990.467 -2.52603 3.46251 0
M  V30 10685 H 994.651 -2.2754 4.41066 0
M  V30 10686 H 989.907 -1.96544 5.78948 0
M  V30 10687 H 994.081 -1.72479 6.74703 0
M  V30 10688 H 991.708 -1.56446 7.43928 0
M  V30 10689 N 993.283 -1.25346 -0.955304 0
M  V30 10690 C 994.531 -1.09837 -1.69647 0
M  V30 10691 C 994.852 0.361425 -1.91621 0
M  V30 10692 O 994.122 1.25666 -1.50283 0
M  V30 10693 H 992.702 -0.403467 -0.628668 0
M  V30 10694 H 995.364 -1.57459 -1.14859 0
M  V30 10695 H 994.46 -1.60616 -2.67598 0
M  V30 10696 N 994.761 1.15782 -1.06922 0
M  V30 10697 C 996.009 1.86097 -0.788192 0
M  V30 10698 C 996.33 1.82475 0.687606 0
M  V30 10699 O 995.6 1.26266 1.49778 0
M  V30 10700 H 994.18 0.689008 -0.288577 0
M  V30 10701 H 996.842 1.40377 -1.35205 0
M  V30 10702 H 995.938 2.91358 -1.1188 0
M  V30 10703 N 996.239 0.8527 1.3254 0
M  V30 10704 C 997.186 0.293905 2.28921 0
M  V30 10705 C 998.156 -0.598027 1.54961 0
M  V30 10706 O 999.341 -0.533355 1.83194 0
M  V30 10707 C 996.481 -0.513361 3.4126 0
M  V30 10708 C 995.594 0.404144 4.30105 0
M  V30 10709 C 994.729 -0.415564 5.29572 0
M  V30 10710 C 993.768 0.499461 6.10059 0
M  V30 10711 N 992.905 -0.282949 7.0153 0
M  V30 10712 H 997.745 1.12107 2.76109 0
M  V30 10713 H 995.282 0.564272 1.35847 0
M  V30 10714 H 997.24 -0.997008 4.05112 0
M  V30 10715 H 995.87 -1.30537 2.95229 0
M  V30 10716 H 994.922 1.00617 3.66852 0
M  V30 10717 H 996.234 1.10648 4.86373 0
M  V30 10718 H 995.388 -0.962458 5.99017 0
M  V30 10719 H 994.127 -1.15127 4.73917 0
M  V30 10720 H 993.132 1.05825 5.39519 0
M  V30 10721 H 994.357 1.23375 6.67799 0
M  V30 10722 H 992.303 -1.00179 6.48306 0
M  V30 10723 H 992.22 0.36039 7.55141 0
M  V30 10724 H 993.488 -0.811632 7.75263 0
M  V30 10725 N 997.718 -1.45297 0.610449 0
M  V30 10726 C 998.965 -2.02218 0.106759 0
M  V30 10727 C 999.293 -1.47849 -1.26376 0
M  V30 10728 O 998.548 -0.644402 -1.84786 0
M  V30 10729 C 998.847 -3.57394 0.0205329 0
M  V30 10730 C 998.513 -4.30928 1.32709 0
M  V30 10731 C 997.175 -4.50735 1.68498 0
M  V30 10732 C 999.527 -4.72936 2.19046 0
M  V30 10733 C 996.855 -5.09806 2.90371 0
M  V30 10734 C 999.207 -5.33355 3.40169 0
M  V30 10735 C 997.871 -5.51384 3.76207 0
M  V30 10736 H 997.141 -0.739969 0.039066 0
M  V30 10737 H 999.788 -1.74326 0.792638 0
M  V30 10738 H 998.093 -3.84581 -0.748623 0
M  V30 10739 H 999.79 -3.99144 -0.385386 0
M  V30 10740 H 996.38 -4.15827 1.03854 0
M  V30 10741 H 1000.56 -4.57365 1.92695 0
M  V30 10742 H 995.82 -5.21953 3.18395 0
M  V30 10743 H 999.994 -5.64859 4.07318 0
M  V30 10744 H 997.621 -5.96924 4.70729 0
M  V30 10745 N 999.196 -0.349774 -1.5367 0
M  V30 10746 C 1000.14 0.519396 -2.26727 0
M  V30 10747 C 1001.14 1.09673 -1.29105 0
M  V30 10748 O 1002.34 1.04176 -1.46791 0
M  V30 10749 H 998.719 0.186192 -0.728585 0
M  V30 10750 H 1000.69 -0.118736 -2.98164 0
M  V30 10751 C 999.439 1.65535 -3.05767 0
M  V30 10752 H 998.762 1.22038 -3.80719 0
M  V30 10753 H 1000.2 2.23856 -3.6009 0
M  V30 10754 C 998.661 2.58844 -2.15642 0
M  V30 10755 O 999.191 3.61254 -1.75665 0
M  V30 10756 N 997.397 2.27671 -1.80595 0
M  V30 10757 H 996.944 1.44429 -2.13302 0
M  V30 10758 H 996.902 2.90359 -1.20577 0
M  V30 10759 N 1000.67 1.57404 -0.0785433 0
M  V30 10760 C 1001.92 1.93744 0.589024 0
M  V30 10761 C 1002.25 0.959087 1.69209 0
M  V30 10762 O 1001.5 -0.0241604 1.95685 0
M  V30 10763 C 1001.8 3.36684 1.1991 0
M  V30 10764 C 1001.47 4.50356 0.221493 0
M  V30 10765 C 1000.13 4.81177 -0.0474347 0
M  V30 10766 C 1002.48 5.1928 -0.446941 0
M  V30 10767 C 999.811 5.78257 -0.99177 0
M  V30 10768 C 1002.16 6.17372 -1.37964 0
M  V30 10769 C 1000.83 6.46607 -1.65697 0
M  V30 10770 H 1000.1 0.70896 0.215539 0
M  V30 10771 H 1002.74 1.90905 -0.150856 0
M  V30 10772 H 1001.05 3.36022 2.01486 0
M  V30 10773 H 1002.75 3.62095 1.72303 0
M  V30 10774 H 999.336 4.26322 0.441284 0
M  V30 10775 H 1003.52 4.95658 -0.252298 0
M  V30 10776 H 998.776 5.9923 -1.21381 0
M  V30 10777 H 1002.95 6.6988 -1.9035 0
M  V30 10778 H 1000.58 7.21643 -2.39031 0
M  V30 10779 N 1002.15 -0.195058 1.56388 0
M  V30 10780 C 1003.43 -0.941335 1.71459 0
M  V30 10781 C 1003.81 -2.01375 0.633336 0
M  V30 10782 O 1003.16 -2.25715 -0.35567 0
M  V30 10783 C 1003.37 -1.52772 3.13786 0
M  V30 10784 C 1004.71 -2.00983 3.7402 0
M  V30 10785 O 1005.74 -1.62614 3.16915 0
M  V30 10786 O 1004.6 -2.71586 4.7424 0
M  V30 10787 H 1001.69 -0.441451 0.699321 0
M  V30 10788 H 1004.24 -0.184752 1.68691 0
M  V30 10789 H 1003.01 -0.754699 3.83953 0
M  V30 10790 H 1002.63 -2.34914 3.20782 0
M  V30 10791 N 1003.63 -1.50653 -0.462772 0
M  V30 10792 C 1004.54 -1.72923 -1.58539 0
M  V30 10793 C 1005.56 -0.612577 -1.6286 0
M  V30 10794 O 1006.73 -0.891885 -1.80575 0
M  V30 10795 C 1003.8 -1.82623 -2.94703 0
M  V30 10796 C 1002.86 -3.06392 -3.00704 0
M  V30 10797 C 1002.09 -3.15618 -4.30373 0
M  V30 10798 O 1002.31 -2.31423 -5.21344 0
M  V30 10799 O 1001.25 -4.0841 -4.42136 0
M  V30 10800 H 1005.07 -2.68103 -1.42669 0
M  V30 10801 H 1002.66 -1.34848 -0.643144 0
M  V30 10802 H 1004.54 -1.91134 -3.7556 0
M  V30 10803 H 1003.22 -0.906275 -3.10754 0
M  V30 10804 H 1002.12 -3.03375 -2.18894 0
M  V30 10805 H 1003.46 -3.97992 -2.89591 0
M  V30 10806 N 1005.11 0.71652 -1.4037 0
M  V30 10807 C 1006.34 1.50563 -1.4191 0
M  V30 10808 C 1006.75 1.88791 -0.0185456 0
M  V30 10809 O 1006.11 1.55378 0.957289 0
M  V30 10810 C 1006.16 2.78155 -2.30894 0
M  V30 10811 O 1005.88 2.41543 -3.65497 0
M  V30 10812 C 1007.38 3.72057 -2.41016 0
M  V30 10813 H 1004.6 0.464679 -0.48406 0
M  V30 10814 H 1007.15 0.883927 -1.8441 0
M  V30 10815 H 1005.3 3.36611 -1.91759 0
M  V30 10816 H 1005.71 3.23636 -4.12747 0
M  V30 10817 H 1007.19 4.58426 -3.07489 0
M  V30 10818 H 1007.67 4.15098 -1.43492 0
M  V30 10819 H 1008.27 3.19512 -2.80699 0
M  V30 10820 N 1006.59 1.25851 0.948643 0
M  V30 10821 C 1007.52 1.02549 2.04979 0
M  V30 10822 C 1008.53 -0.0115923 1.62796 0
M  V30 10823 O 1009.72 0.227643 1.77042 0
M  V30 10824 C 1006.82 0.529486 3.34738 0
M  V30 10825 C 1005.99 1.6341 4.05729 0
M  V30 10826 C 1005.05 1.13743 5.1376 0
M  V30 10827 O 1004.08 1.83303 5.38877 0
M  V30 10828 N 1005.28 -0.0181151 5.80497 0
M  V30 10829 H 1008.05 1.97365 2.25537 0
M  V30 10830 H 1005.61 1.17137 1.11761 0
M  V30 10831 H 1007.6 0.181566 4.04293 0
M  V30 10832 H 1006.17 -0.324893 3.10907 0
M  V30 10833 H 1005.39 2.15331 3.30191 0
M  V30 10834 H 1006.68 2.37603 4.49914 0
M  V30 10835 H 1006.07 -0.599198 5.62518 0
M  V30 10836 H 1004.63 -0.307019 6.51077 0
M  V30 10837 N 1008.06 -1.15214 1.07534 0
M  V30 10838 C 1009.29 -1.89922 0.820804 0
M  V30 10839 C 1009.71 -1.78114 -0.626177 0
M  V30 10840 O 1009.06 -1.13435 -1.42964 0
M  V30 10841 C 1009.12 -3.40207 1.22236 0
M  V30 10842 O 1008.84 -3.51676 2.61257 0
M  V30 10843 C 1010.34 -4.31934 0.997393 0
M  V30 10844 H 1007.56 -0.601865 0.296647 0
M  V30 10845 H 1010.1 -1.45965 1.43229 0
M  V30 10846 H 1008.26 -3.8182 0.655167 0
M  V30 10847 H 1008.67 -4.44959 2.77689 0
M  V30 10848 H 1010.14 -5.35791 1.32785 0
M  V30 10849 H 1010.62 -4.3915 -0.0661599 0
M  V30 10850 H 1011.23 -3.96066 1.54958 0
M  V30 10851 N 1009.54 -0.859717 -1.32086 0
M  V30 10852 C 1010.49 -0.306042 -2.28762 0
M  V30 10853 C 1011.46 0.589801 -1.55276 0
M  V30 10854 O 1012.64 0.523633 -1.83474 0
M  V30 10855 C 1009.78 0.495256 -3.41528 0
M  V30 10856 C 1008.9 -0.426947 -4.29885 0
M  V30 10857 C 1008.03 0.387474 -5.29785 0
M  V30 10858 C 1007.07 -0.531807 -6.09785 0
M  V30 10859 N 1006.21 0.245741 -7.0167 0
M  V30 10860 H 1011.05 -1.1357 -2.7551 0
M  V30 10861 H 1008.59 -0.571468 -1.35546 0
M  V30 10862 H 1010.54 0.97551 -4.05635 0
M  V30 10863 H 1009.17 1.28969 -2.95917 0
M  V30 10864 H 1008.23 -1.02561 -3.66313 0
M  V30 10865 H 1009.54 -1.13226 -4.85779 0
M  V30 10866 H 1008.69 0.930677 -5.99519 0
M  V30 10867 H 1007.43 1.12612 -4.74521 0
M  V30 10868 H 1006.44 -1.08685 -5.3895 0
M  V30 10869 H 1007.66 -1.26915 -6.67135 0
M  V30 10870 H 1005.61 0.967391 -6.48828 0
M  V30 10871 H 1005.52 -0.400432 -7.54939 0
M  V30 10872 H 1006.79 0.770507 -7.75683 0
M  V30 10873 N 1011.02 1.44971 -0.618145 0
M  V30 10874 C 1012.44 1.57077 -0.282666 0
M  V30 10875 C 1012.64 1.60782 1.21456 0
M  V30 10876 O 1011.69 1.54382 1.99806 0
M  V30 10877 C 1013.01 2.84858 -0.963148 0
M  V30 10878 C 1014.55 2.9855 -0.940062 0
M  V30 10879 C 1015.03 4.29115 -1.60076 0
M  V30 10880 N 1016.52 4.35899 -1.56674 0
M  V30 10881 C 1017.25 5.35617 -2.04701 0
M  V30 10882 N 1016.75 6.41813 -2.6086 0
M  V30 10883 N 1018.54 5.27042 -1.95406 0
M  V30 10884 H 1010.69 1.4081 -1.59017 0
M  V30 10885 H 1012.96 0.673914 -0.666741 0
M  V30 10886 H 1012.66 2.88059 -2.0178 0
M  V30 10887 H 1012.54 3.73966 -0.492901 0
M  V30 10888 H 1014.92 2.94909 0.10607 0
M  V30 10889 H 1015.01 2.10825 -1.44868 0
M  V30 10890 H 1014.65 4.33514 -2.64627 0
M  V30 10891 H 1014.58 5.15675 -1.06708 0
M  V30 10892 H 1017.07 3.59766 -1.15659 0
M  V30 10893 H 1017.38 7.14166 -2.95273 0
M  V30 10894 H 1015.73 6.42534 -2.64905 0
M  V30 10895 H 1018.92 4.42987 -1.51263 0
M  V30 10896 H 1019.09 6.04604 -2.33147 0
M  V30 10897 N 1012.5 0.357919 1.53482 0
M  V30 10898 C 1013.72 -0.237769 2.06033 0
M  V30 10899 C 1014.15 -1.42292 1.23023 0
M  V30 10900 O 1013.51 -1.79604 0.247427 0
M  V30 10901 C 1013.55 -0.616806 3.55286 0
M  V30 10902 O 1012.66 -1.71503 3.75047 0
M  V30 10903 H 1012 -0.0364322 0.663 0
M  V30 10904 H 1014.53 0.516301 1.97979 0
M  V30 10905 H 1014.54 -0.88996 3.98175 0
M  V30 10906 H 1013.21 0.249825 4.15149 0
M  V30 10907 H 1011.79 -1.43803 3.44057 0
M  V30 10908 N 1013.98 -1.5736 0.0868897 0
M  V30 10909 C 1015.2 -1.98388 -0.587349 0
M  V30 10910 C 1015.62 -0.965757 -1.6223 0
M  V30 10911 O 1014.98 0.0456981 -1.82443 0
M  V30 10912 C 1015.03 -3.39479 -1.24242 0
M  V30 10913 O 1014.75 -4.37393 -0.248878 0
M  V30 10914 C 1016.25 -3.95465 -2.00305 0
M  V30 10915 H 1013.47 -0.652111 -0.15809 0
M  V30 10916 H 1016.01 -2.03843 0.163754 0
M  V30 10917 H 1014.17 -3.35063 -1.94451 0
M  V30 10918 H 1014.58 -5.19525 -0.720678 0
M  V30 10919 H 1016.06 -4.96363 -2.41511 0
M  V30 10920 H 1016.53 -3.32832 -2.86565 0
M  V30 10921 H 1017.14 -4.03328 -1.34931 0
M  V30 10922 N 1015.45 0.186762 -1.56489 0
M  V30 10923 C 1016.7 0.905852 -1.81109 0
M  V30 10924 C 1017.03 1.82906 -0.661477 0
M  V30 10925 O 1016.28 1.92504 0.35226 0
M  V30 10926 C 1016.58 1.74719 -3.11782 0
M  V30 10927 C 1016.25 0.974238 -4.40249 0
M  V30 10928 C 1014.91 0.760856 -4.75147 0
M  V30 10929 C 1017.26 0.430971 -5.19415 0
M  V30 10930 C 1014.59 -0.00714216 -5.867 0
M  V30 10931 C 1016.94 -0.323859 -6.3177 0
M  V30 10932 C 1015.61 -0.548183 -6.65245 0
M  V30 10933 H 1014.88 0.331475 -0.662726 0
M  V30 10934 H 1017.52 0.171703 -1.90729 0
M  V30 10935 H 1015.83 2.55027 -2.97437 0
M  V30 10936 H 1017.53 2.30634 -3.28038 0
M  V30 10937 H 1014.12 1.15057 -4.12868 0
M  V30 10938 H 1018.3 0.583205 -4.92861 0
M  V30 10939 H 1013.56 -0.190832 -6.11102 0
M  V30 10940 H 1017.73 -0.752155 -6.92326 0
M  V30 10941 H 1015.36 -1.14518 -7.51525 0
M  V30 10942 N 1016.93 1.50896 0.454776 0
M  V30 10943 C 1018.21 1.53227 1.21576 0
M  V30 10944 C 1018.59 0.286358 2.09149 0
M  V30 10945 O 1017.94 -0.729469 2.16543 0
M  V30 10946 C 1018.15 2.83693 2.03271 0
M  V30 10947 C 1019.5 3.34981 2.60908 0
M  V30 10948 O 1020.52 2.85126 2.13499 0
M  V30 10949 O 1019.38 4.21929 3.4733 0
M  V30 10950 H 1016.47 0.615306 0.552564 0
M  V30 10951 H 1019.02 1.63197 0.465266 0
M  V30 10952 H 1017.79 3.65839 1.38843 0
M  V30 10953 H 1017.41 2.76803 2.85422 0
M  V30 10954 N 1018.41 -0.709066 1.40748 0
M  V30 10955 C 1019.36 -1.84445 1.41714 0
M  V30 10956 C 1020.35 -1.66779 0.296818 0
M  V30 10957 O 1021.56 -1.73805 0.468181 0
M  V30 10958 H 1017.93 -0.607581 0.443114 0
M  V30 10959 H 1019.9 -1.80747 2.3743 0
M  V30 10960 C 1018.65 -3.22362 1.303 0
M  V30 10961 H 1017.98 -3.36565 2.15787 0
M  V30 10962 H 1019.42 -4.01922 1.35036 0
M  V30 10963 C 1017.88 -3.36897 0.0139015 0
M  V30 10964 O 1018.41 -3.90389 -0.946553 0
M  V30 10965 N 1016.61 -2.90543 -0.0577491 0
M  V30 10966 H 1016.16 -2.472 0.724574 0
M  V30 10967 H 1016.12 -3.00647 -0.919721 0
M  V30 10968 N 1019.89 -1.26353 -0.941956 0
M  V30 10969 C 1021.14 -1.11851 -1.68806 0
M  V30 10970 C 1021.46 0.33829 -1.91535 0
M  V30 10971 O 1020.72 1.26495 -1.49324 0
M  V30 10972 C 1021.02 -1.83195 -3.06879 0
M  V30 10973 C 1020.68 -3.33093 -3.03908 0
M  V30 10974 C 1019.35 -3.73982 -3.02805 0
M  V30 10975 C 1021.7 -4.28803 -2.96273 0
M  V30 10976 C 1019.03 -5.08971 -2.91832 0
M  V30 10977 C 1021.38 -5.6383 -2.86842 0
M  V30 10978 C 1020.04 -6.04032 -2.84081 0
M  V30 10979 H 1019.31 -0.409293 -0.617706 0
M  V30 10980 H 1021.96 -1.56785 -1.09957 0
M  V30 10981 H 1020.26 -1.30728 -3.69347 0
M  V30 10982 H 1021.96 -1.69416 -3.63455 0
M  V30 10983 H 1018.55 -3.00566 -3.05546 0
M  V30 10984 H 1022.74 -3.98195 -2.96234 0
M  V30 10985 H 1017.99 -5.39282 -2.88072 0
M  V30 10986 H 1022.17 -6.37676 -2.79898 0
M  V30 10987 H 1019.79 -7.08586 -2.75335 0
M  V30 10988 N 1021.37 1.14642 -1.08144 0
M  V30 10989 C 1022.78 1.6719 -0.830923 0
M  V30 10990 C 1023.13 1.85373 0.642749 0
M  V30 10991 O 1022.25 1.56293 1.49671 0
M  V30 10992 C 1022.85 3.03697 -1.50179 0
M  V30 10993 C 1021.41 3.5329 -1.29858 0
M  V30 10994 C 1020.56 2.28828 -1.5663 0
M  V30 10995 H 1023.51 0.987441 -1.24239 0
M  V30 10996 H 1023.53 3.69023 -0.9275 0
M  V30 10997 H 1023.04 2.90431 -2.57432 0
M  V30 10998 H 1021.14 3.71783 -0.246626 0
M  V30 10999 H 1021.25 4.34231 -2.02436 0
M  V30 11000 H 1019.62 2.34769 -0.987716 0
M  V30 11001 H 1020.4 2.18141 -2.65084 0
M  V30 11002 N 1022.85 0.866709 1.31628 0
M  V30 11003 C 1023.78 0.277328 2.27516 0
M  V30 11004 C 1024.79 -0.557786 1.52946 0
M  V30 11005 O 1025.98 -0.38031 1.74402 0
M  V30 11006 C 1023.08 -0.625742 3.33073 0
M  V30 11007 C 1022.25 0.176204 4.37045 0
M  V30 11008 C 1021.31 -0.654497 5.22114 0
M  V30 11009 O 1020.34 -0.0836961 5.69138 0
M  V30 11010 N 1021.54 -1.96708 5.46156 0
M  V30 11011 H 1024.3 1.10133 2.78731 0
M  V30 11012 H 1021.87 0.72787 1.44616 0
M  V30 11013 H 1023.86 -1.18709 3.86898 0
M  V30 11014 H 1022.43 -1.35042 2.81926 0
M  V30 11015 H 1021.65 0.918999 3.83338 0
M  V30 11016 H 1022.94 0.726594 5.03585 0
M  V30 11017 H 1022.33 -2.454 5.09701 0
M  V30 11018 H 1020.89 -2.47629 6.02929 0
M  V30 11019 N 1024.32 -1.44642 0.625825 0
M  V30 11020 C 1025.29 -2.29085 -0.072526 0
M  V30 11021 C 1026.29 -1.40755 -0.777467 0
M  V30 11022 O 1027.48 -1.62684 -0.622861 0
M  V30 11023 C 1024.61 -3.22212 -1.1132 0
M  V30 11024 H 1025.8 -2.92317 0.670124 0
M  V30 11025 H 1023.35 -1.51466 0.38571 0
M  V30 11026 H 1024.09 -2.63819 -1.88601 0
M  V30 11027 H 1023.87 -3.87299 -0.611709 0
M  V30 11028 H 1025.36 -3.8566 -1.60175 0
M  V30 11029 N 1025.8 -0.366053 -1.5329 0
M  V30 11030 C 1026.73 0.47211 -2.28677 0
M  V30 11031 C 1027.71 1.08353 -1.31125 0
M  V30 11032 O 1028.9 1.10069 -1.59995 0
M  V30 11033 C 1026.03 1.61174 -3.07637 0
M  V30 11034 C 1024.98 1.12755 -4.12881 0
M  V30 11035 C 1024.31 2.35745 -4.79925 0
M  V30 11036 C 1025.61 0.211954 -5.2187 0
M  V30 11037 H 1027.3 -0.156838 -2.98989 0
M  V30 11038 H 1024.85 -0.0768709 -1.43795 0
M  V30 11039 H 1026.8 2.20473 -3.59123 0
M  V30 11040 H 1025.52 2.26793 -2.35016 0
M  V30 11041 H 1024.18 0.557234 -3.6234 0
M  V30 11042 H 1023.83 2.99821 -4.03877 0
M  V30 11043 H 1023.53 2.04019 -5.51044 0
M  V30 11044 H 1025.06 2.95729 -5.34207 0
M  V30 11045 H 1026.47 0.71244 -5.68856 0
M  V30 11046 H 1024.87 -0.0144501 -6.00098 0
M  V30 11047 H 1025.94 -0.745753 -4.79131 0
M  V30 11048 N 1027.28 1.57312 -0.0952337 0
M  V30 11049 C 1028.21 2.17056 0.860753 0
M  V30 11050 C 1029.19 1.10394 1.29411 0
M  V30 11051 O 1030.38 1.38532 1.36098 0
M  V30 11052 C 1027.51 2.751 2.11984 0
M  V30 11053 C 1026.46 3.87136 1.8251 0
M  V30 11054 C 1025.79 4.31883 3.15247 0
M  V30 11055 C 1027.09 5.10326 1.11194 0
M  V30 11056 H 1028.78 2.97192 0.362983 0
M  V30 11057 H 1026.33 1.42955 0.173151 0
M  V30 11058 H 1028.28 3.15547 2.79299 0
M  V30 11059 H 1027 1.92219 2.64044 0
M  V30 11060 H 1025.66 3.47229 1.17592 0
M  V30 11061 H 1025.31 3.45893 3.65195 0
M  V30 11062 H 1025.01 5.0742 2.96309 0
M  V30 11063 H 1026.53 4.74964 3.83721 0
M  V30 11064 H 1027.95 5.47942 1.6862 0
M  V30 11065 H 1026.34 5.91293 1.02435 0
M  V30 11066 H 1027.41 4.84807 0.0947227 0
M  V30 11067 N 1028.76 -0.17846 1.56586 0
M  V30 11068 C 1029.99 -0.911996 1.85715 0
M  V30 11069 C 1030.4 -1.76138 0.679766 0
M  V30 11070 O 1029.76 -1.79088 -0.351266 0
M  V30 11071 C 1029.81 -1.79459 3.1381 0
M  V30 11072 O 1029.53 -0.979476 4.2701 0
M  V30 11073 C 1031.03 -2.6384 3.56235 0
M  V30 11074 H 1028.25 -0.265299 0.616326 0
M  V30 11075 H 1030.79 -0.180704 2.037 0
M  V30 11076 H 1028.95 -2.4793 2.97673 0
M  V30 11077 H 1029.36 -1.58244 5.00059 0
M  V30 11078 H 1030.84 -3.21396 4.48786 0
M  V30 11079 H 1031.31 -3.38363 2.80013 0
M  V30 11080 H 1031.92 -2.00712 3.7496 0
M  V30 11081 N 1030.24 -1.51135 -0.446768 0
M  V30 11082 C 1031.48 -1.63578 -1.19875 0
M  V30 11083 C 1031.81 -0.346478 -1.91084 0
M  V30 11084 O 1031.09 0.653447 -1.83195 0
M  V30 11085 C 1031.37 -2.83275 -2.22323 0
M  V30 11086 C 1031.23 -4.22155 -1.55259 0
M  V30 11087 C 1032.54 -2.98496 -3.23401 0
M  V30 11088 H 1029.66 -0.595333 -0.434452 0
M  V30 11089 H 1032.31 -1.83593 -0.48923 0
M  V30 11090 H 1030.46 -2.6634 -2.82834 0
M  V30 11091 H 1032.13 -4.50736 -0.981571 0
M  V30 11092 H 1030.37 -4.25288 -0.855122 0
M  V30 11093 H 1031.04 -5.01882 -2.29823 0
M  V30 11094 H 1033.52 -3.14079 -2.72935 0
M  V30 11095 H 1032.39 -3.83828 -3.92386 0
M  V30 11096 H 1032.65 -2.10157 -3.88956 0
M  V30 11097 N 1031.71 0.701592 -1.41122 0
M  V30 11098 C 1032.96 1.4616 -1.40155 0
M  V30 11099 C 1033.29 1.94498 -0.00861553 0
M  V30 11100 O 1032.54 1.69484 0.978452 0
M  V30 11101 C 1032.84 2.693 -2.34973 0
M  V30 11102 C 1032.51 2.39652 -3.81939 0
M  V30 11103 C 1031.17 2.31277 -4.21977 0
M  V30 11104 C 1033.52 2.15076 -4.74755 0
M  V30 11105 C 1030.85 1.96413 -5.52846 0
M  V30 11106 C 1033.2 1.81722 -6.05937 0
M  V30 11107 C 1031.87 1.71838 -6.45002 0
M  V30 11108 H 1031.14 0.534837 -0.512865 0
M  V30 11109 H 1033.78 0.802425 -1.73878 0
M  V30 11110 H 1032.09 3.40123 -1.94484 0
M  V30 11111 H 1033.79 3.27427 -2.31501 0
M  V30 11112 H 1030.38 2.47063 -3.50226 0
M  V30 11113 H 1034.56 2.20495 -4.4463 0
M  V30 11114 H 1029.82 1.87308 -5.82001 0
M  V30 11115 H 1033.99 1.61723 -6.77362 0
M  V30 11116 H 1031.62 1.44591 -7.46323 0
M  V30 11117 N 1033.19 1.2685 0.935242 0
M  V30 11118 C 1034.12 1.04717 2.0388 0
M  V30 11119 C 1035.14 0.00567507 1.62799 0
M  V30 11120 O 1036.33 0.246408 1.76791 0
M  V30 11121 C 1033.43 0.56496 3.34158 0
M  V30 11122 C 1032.6 1.67704 4.03973 0
M  V30 11123 C 1031.66 1.19186 5.12524 0
M  V30 11124 O 1030.68 1.89008 5.36903 0
M  V30 11125 N 1031.89 0.0434554 5.80484 0
M  V30 11126 H 1034.65 1.99746 2.23431 0
M  V30 11127 H 1032.21 1.18316 1.10512 0
M  V30 11128 H 1034.2 0.224436 4.04077 0
M  V30 11129 H 1032.77 -0.291899 3.11234 0
M  V30 11130 H 1031.99 2.18821 3.27889 0
M  V30 11131 H 1033.28 2.42361 4.47368 0
M  V30 11132 H 1032.68 -0.539502 5.63122 0
M  V30 11133 H 1031.24 -0.237946 6.51366 0
M  V30 11134 N 1034.67 -1.14067 1.0875 0
M  V30 11135 C 1035.92 -1.84535 0.814235 0
M  V30 11136 C 1036.23 -1.84044 -0.662355 0
M  V30 11137 O 1037.44 -2.50336 -1.05091 0
M  V30 11138 C 1035.89 -3.31273 1.40663 0
M  V30 11139 C 1035.5 -3.40171 2.91526 0
M  V30 11140 C 1037.25 -4.0683 1.21201 0
M  V30 11141 C 1035.15 -4.81141 3.43885 0
M  V30 11142 H 1034.08 -0.691346 0.300926 0
M  V30 11143 H 1036.73 -1.28562 1.30935 0
M  V30 11144 H 1035.12 -3.87005 0.839215 0
M  V30 11145 H 1036.29 -2.94471 3.54434 0
M  V30 11146 H 1034.61 -2.78073 3.09942 0
M  V30 11147 H 1037.2 -5.10891 1.57781 0
M  V30 11148 H 1037.55 -4.16022 0.152092 0
M  V30 11149 H 1038.08 -3.57408 1.74655 0
M  V30 11150 H 1034.82 -4.77138 4.49466 0
M  V30 11151 H 1034.34 -5.27365 2.85738 0
M  V30 11152 H 1036.02 -5.50042 3.40681 0
M  V30 11153 N 1036.15 -0.873678 -1.31166 0
M  V30 11154 C 1037.08 -0.348011 -2.30892 0
M  V30 11155 C 1038.06 0.563092 -1.60509 0
M  V30 11156 O 1039.24 0.479332 -1.88192 0
M  V30 11157 C 1036.37 0.448158 -3.44396 0
M  V30 11158 C 1035.33 -0.370179 -4.26396 0
M  V30 11159 C 1034.65 0.551903 -5.31844 0
M  V30 11160 C 1035.95 -1.60624 -4.96988 0
M  V30 11161 H 1037.65 -1.18134 -2.75109 0
M  V30 11162 H 1035.19 -0.569502 -1.3226 0
M  V30 11163 H 1037.15 0.826458 -4.13216 0
M  V30 11164 H 1035.87 1.31503 -2.98956 0
M  V30 11165 H 1034.53 -0.730472 -3.59249 0
M  V30 11166 H 1034.18 1.41616 -4.82653 0
M  V30 11167 H 1033.88 0.00823478 -5.87599 0
M  V30 11168 H 1035.4 0.926965 -6.03523 0
M  V30 11169 H 1036.82 -1.29917 -5.58386 0
M  V30 11170 H 1035.21 -2.08926 -5.62557 0
M  V30 11171 H 1036.28 -2.357 -4.23761 0
M  V30 11172 N 1037.63 1.44308 -0.633487 0
M  V30 11173 C 1038.85 2.06384 -0.146063 0
M  V30 11174 C 1039.27 1.47357 1.18031 0
M  V30 11175 O 1038.63 0.597334 1.72448 0
M  V30 11176 C 1038.68 3.61489 -0.0276722 0
M  V30 11177 O 1038.4 4.18318 -1.3016 0
M  V30 11178 C 1039.9 4.40604 0.488168 0
M  V30 11179 H 1037.12 0.666122 -0.0807632 0
M  V30 11180 H 1039.66 1.85139 -0.868557 0
M  V30 11181 H 1037.82 3.81988 0.645273 0
M  V30 11182 H 1038.23 5.11783 -1.14797 0
M  V30 11183 H 1039.71 5.49545 0.520013 0
M  V30 11184 H 1040.18 4.12218 1.51568 0
M  V30 11185 H 1040.79 4.2503 -0.151608 0
M  V30 11186 N 1039.1 0.374177 1.53094 0
M  V30 11187 C 1040.35 -0.212396 2.00981 0
M  V30 11188 C 1040.67 -1.48576 1.26293 0
M  V30 11189 O 1039.94 -1.92206 0.378642 0
M  V30 11190 H 1038.52 -0.0814763 0.742543 0
M  V30 11191 H 1041.19 0.502389 1.88314 0
M  V30 11192 H 1040.28 -0.433316 3.09077 0
M  V30 11193 N 1040.58 -1.57259 0.103575 0
M  V30 11194 C 1041.49 -2.18018 -0.866327 0
M  V30 11195 C 1042.51 -1.15198 -1.30404 0
M  V30 11196 O 1043.68 -1.47605 -1.37021 0
M  V30 11197 C 1040.75 -2.75533 -2.10434 0
M  V30 11198 C 1039.81 -3.93337 -1.72002 0
M  V30 11199 C 1039.04 -4.481 -2.89901 0
M  V30 11200 O 1039.27 -4.01784 -4.04877 0
M  V30 11201 O 1038.2 -5.39004 -2.67877 0
M  V30 11202 H 1042.03 -3.01322 -0.379338 0
M  V30 11203 H 1039.61 -1.48907 -0.121228 0
M  V30 11204 H 1041.49 -3.12259 -2.8297 0
M  V30 11205 H 1040.17 -1.9527 -2.58169 0
M  V30 11206 H 1039.08 -3.61408 -0.966193 0
M  V30 11207 H 1040.41 -4.74989 -1.29022 0
M  V30 11208 N 1042.06 0.170153 -1.56679 0
M  V30 11209 C 1043.34 0.913938 -1.72935 0
M  V30 11210 C 1043.72 2.00342 -0.665293 0
M  V30 11211 O 1043.07 2.26252 0.319715 0
M  V30 11212 C 1043.28 1.47761 -3.16177 0
M  V30 11213 C 1044.62 1.95007 -3.7717 0
M  V30 11214 O 1045.65 1.57552 -3.19462 0
M  V30 11215 O 1044.51 2.64007 -4.78501 0
M  V30 11216 H 1041.6 0.43027 -0.706256 0
M  V30 11217 H 1044.15 0.157891 -1.68964 0
M  V30 11218 H 1042.92 0.69352 -3.85105 0
M  V30 11219 H 1042.54 2.2978 -3.24479 0
M  V30 11220 N 1043.54 1.5137 0.438746 0
M  V30 11221 C 1044.78 1.65173 1.18698 0
M  V30 11222 C 1045.14 0.362753 1.88949 0
M  V30 11223 O 1044.43 -0.641351 1.80547 0
M  V30 11224 C 1044.63 2.79221 2.23093 0
M  V30 11225 C 1044.46 4.19085 1.63088 0
M  V30 11226 C 1043.23 4.85042 1.41642 0
M  V30 11227 C 1045.42 5.02225 1.10789 0
M  V30 11228 N 1043.41 6.09024 0.772198 0
M  V30 11229 C 1044.78 6.17197 0.588854 0
M  V30 11230 C 1046.83 4.87764 0.999516 0
M  V30 11231 C 1045.53 7.19295 -0.0279103 0
M  V30 11232 C 1047.56 5.90068 0.396648 0
M  V30 11233 C 1046.92 7.04311 -0.111855 0
M  V30 11234 H 1043.02 0.658316 0.422071 0
M  V30 11235 H 1045.61 1.88593 0.483808 0
M  V30 11236 H 1043.78 2.57468 2.908 0
M  V30 11237 H 1045.51 2.82213 2.90066 0
M  V30 11238 H 1042.26 4.42886 1.67776 0
M  V30 11239 H 1042.69 6.75383 0.467568 0
M  V30 11240 H 1047.33 3.99695 1.37853 0
M  V30 11241 H 1045.05 8.07013 -0.419056 0
M  V30 11242 H 1048.63 5.80948 0.314715 0
M  V30 11243 H 1047.51 7.82118 -0.571021 0
M  V30 11244 N 1045.02 -0.694098 1.41492 0
M  V30 11245 C 1045.96 -1.82932 1.43662 0
M  V30 11246 C 1046.96 -1.66455 0.31449 0
M  V30 11247 O 1048.16 -1.73298 0.486589 0
M  V30 11248 H 1044.54 -0.602847 0.449533 0
M  V30 11249 H 1046.51 -1.78218 2.39334 0
M  V30 11250 C 1045.26 -3.20962 1.33712 0
M  V30 11251 H 1044.58 -3.34257 2.19345 0
M  V30 11252 H 1046.02 -4.00467 1.39291 0
M  V30 11253 C 1044.48 -3.36863 0.0496332 0
M  V30 11254 O 1045.01 -3.91371 -0.905093 0
M  V30 11255 N 1043.22 -2.90588 -0.0269299 0
M  V30 11256 H 1042.76 -2.46417 0.750752 0
M  V30 11257 H 1042.72 -3.01605 -0.887781 0
M  V30 11258 N 1046.49 -1.27344 -0.928501 0
M  V30 11259 C 1047.46 -1.10043 -2.01055 0
M  V30 11260 C 1048.46 -0.0446793 -1.60738 0
M  V30 11261 O 1049.65 -0.289202 -1.71783 0
M  V30 11262 C 1046.78 -0.676559 -3.34119 0
M  V30 11263 H 1047.97 -2.06126 -2.17835 0
M  V30 11264 H 1045.53 -1.10121 -1.10919 0
M  V30 11265 H 1046.26 0.285697 -3.23039 0
M  V30 11266 H 1046.05 -1.43903 -3.64739 0
M  V30 11267 H 1047.54 -0.577725 -4.13584 0
M  V30 11268 N 1047.97 1.13488 -1.09353 0
M  V30 11269 C 1049.22 1.85022 -0.830354 0
M  V30 11270 C 1049.55 1.83266 0.64242 0
M  V30 11271 O 1048.83 1.27024 1.47293 0
M  V30 11272 C 1049.11 3.33218 -1.36521 0
M  V30 11273 C 1048.96 3.43491 -2.90404 0
M  V30 11274 C 1050.28 4.28626 -0.998381 0
M  V30 11275 H 1047.4 0.671786 -0.303105 0
M  V30 11276 H 1050.04 1.33211 -1.3548 0
M  V30 11277 H 1048.19 3.77471 -0.919117 0
M  V30 11278 H 1049.86 3.07954 -3.43456 0
M  V30 11279 H 1048.11 2.84391 -3.27573 0
M  V30 11280 H 1048.78 4.47702 -3.22905 0
M  V30 11281 H 1051.25 3.9244 -1.38311 0
M  V30 11282 H 1050.13 5.30754 -1.39968 0
M  V30 11283 H 1050.39 4.42001 0.093517 0
M  V30 11284 N 1049.45 0.880621 1.30701 0
M  V30 11285 C 1050.38 0.288813 2.26365 0
M  V30 11286 C 1051.36 -0.588135 1.51591 0
M  V30 11287 O 1052.55 -0.539197 1.80624 0
M  V30 11288 C 1049.67 -0.590032 3.33521 0
M  V30 11289 C 1048.72 0.217003 4.25948 0
M  V30 11290 S 1049.55 1.60246 5.10961 0
M  V30 11291 C 1050.71 0.730023 6.21628 0
M  V30 11292 H 1050.94 1.09971 2.76213 0
M  V30 11293 H 1048.47 0.67978 1.3863 0
M  V30 11294 H 1050.43 -1.09136 3.95727 0
M  V30 11295 H 1049.09 -1.37498 2.82406 0
M  V30 11296 H 1048.29 -0.453481 5.01956 0
M  V30 11297 H 1047.89 0.650803 3.68294 0
M  V30 11298 H 1050.18 -0.0548644 6.77478 0
M  V30 11299 H 1051.12 1.46157 6.92852 0
M  V30 11300 H 1051.53 0.292854 5.6374 0
M  V30 11301 N 1050.93 -1.4397 0.641131 0
M  V30 11302 C 1052.16 -2.06004 0.156779 0
M  V30 11303 C 1052.57 -1.48059 -1.17793 0
M  V30 11304 O 1051.91 -0.601788 -1.73563 0
M  V30 11305 C 1051.97 -3.59493 -0.0217203 0
M  V30 11306 C 1051.64 -4.39957 1.23639 0
M  V30 11307 C 1052.63 -4.72797 2.16239 0
M  V30 11308 C 1050.32 -4.80168 1.4746 0
M  V30 11309 C 1052.31 -5.44741 3.30962 0
M  V30 11310 C 1050 -5.51859 2.62478 0
M  V30 11311 C 1051 -5.84067 3.54055 0
M  V30 11312 O 1050.69 -6.54296 4.67067 0
M  V30 11313 H 1050.42 -0.671061 0.0815685 0
M  V30 11314 H 1052.97 -1.85664 0.878517 0
M  V30 11315 H 1051.2 -3.78362 -0.798707 0
M  V30 11316 H 1052.89 -4.03263 -0.461893 0
M  V30 11317 H 1053.66 -4.42261 1.99073 0
M  V30 11318 H 1049.54 -4.54513 0.770652 0
M  V30 11319 H 1053.08 -5.69798 4.02462 0
M  V30 11320 H 1048.98 -5.81811 2.79583 0
M  V30 11321 H 1049.74 -6.72772 4.66177 0
M  V30 11322 N 1052.41 -0.382291 -1.52893 0
M  V30 11323 C 1053.68 0.259354 -1.93873 0
M  V30 11324 C 1054.06 1.64964 -1.3172 0
M  V30 11325 O 1053.41 2.23345 -0.482611 0
M  V30 11326 C 1053.62 0.292765 -3.4777 0
M  V30 11327 C 1054.97 0.525095 -4.21341 0
M  V30 11328 O 1055.99 0.373272 -3.54239 0
M  V30 11329 O 1054.85 0.822004 -5.40283 0
M  V30 11330 H 1051.95 0.159422 -0.811489 0
M  V30 11331 H 1054.49 -0.436289 -1.63996 0
M  V30 11332 H 1053.27 -0.681341 -3.85323 0
M  V30 11333 H 1052.89 1.03362 -3.8393 0
M  V30 11334 N 1053.89 1.57202 -0.111913 0
M  V30 11335 C 1055.13 1.94565 0.546713 0
M  V30 11336 C 1055.45 0.995644 1.67666 0
M  V30 11337 O 1054.72 0.0506681 1.95834 0
M  V30 11338 H 1053.3 0.718334 0.204951 0
M  V30 11339 H 1055.97 1.94074 -0.179193 0
M  V30 11340 H 1055.06 2.9742 0.945931 0
M  V30 11341 N 1055.36 -0.161842 1.56767 0
M  V30 11342 C 1056.61 -0.875278 1.81719 0
M  V30 11343 C 1056.93 -1.82998 0.690739 0
M  V30 11344 O 1058.13 -2.58648 0.82545 0
M  V30 11345 C 1056.59 -1.60703 3.22029 0
M  V30 11346 C 1056.2 -0.695486 4.42569 0
M  V30 11347 C 1057.94 -2.30813 3.56266 0
M  V30 11348 C 1055.85 -1.42801 5.73901 0
M  V30 11349 H 1054.78 -0.330591 0.677662 0
M  V30 11350 H 1057.43 -0.128112 1.83052 0
M  V30 11351 H 1055.81 -2.39929 3.1504 0
M  V30 11352 H 1056.98 0.0604882 4.6076 0
M  V30 11353 H 1055.3 -0.10356 4.16271 0
M  V30 11354 H 1057.9 -2.86229 4.51638 0
M  V30 11355 H 1058.24 -3.06603 2.81604 0
M  V30 11356 H 1058.77 -1.5852 3.64851 0
M  V30 11357 H 1055.51 -0.712253 6.51619 0
M  V30 11358 H 1055.03 -2.15707 5.5967 0
M  V30 11359 H 1056.71 -1.97295 6.16185 0
M  V30 11360 N 1056.84 -1.516 -0.430713 0
M  V30 11361 C 1057.77 -1.68084 -1.54347 0
M  V30 11362 C 1058.75 -0.528401 -1.53775 0
M  V30 11363 O 1059.94 -0.753072 -1.72804 0
M  V30 11364 C 1057.06 -1.70048 -2.92919 0
M  V30 11365 C 1056.11 -2.91336 -3.11489 0
M  V30 11366 S 1056.94 -4.52043 -2.87084 0
M  V30 11367 C 1058.1 -4.56761 -4.27926 0
M  V30 11368 H 1058.33 -2.62203 -1.40131 0
M  V30 11369 H 1055.86 -1.41368 -0.620853 0
M  V30 11370 H 1057.82 -1.71864 -3.72791 0
M  V30 11371 H 1056.48 -0.770946 -3.04492 0
M  V30 11372 H 1055.68 -2.8913 -4.1282 0
M  V30 11373 H 1055.28 -2.87296 -2.39451 0
M  V30 11374 H 1057.57 -4.32809 -5.21232 0
M  V30 11375 H 1058.51 -5.58604 -4.35163 0
M  V30 11376 H 1058.92 -3.86014 -4.1189 0
M  V30 11377 N 1058.32 0.686584 -1.41858 0
M  V30 11378 C 1059.28 1.78214 -1.44126 0
M  V30 11379 C 1060.28 1.57366 -0.330541 0
M  V30 11380 O 1061.47 1.63874 -0.590837 0
M  V30 11381 C 1058.6 3.16704 -1.26142 0
M  V30 11382 H 1059.8 1.77594 -2.41661 0
M  V30 11383 H 1057.35 0.895085 -1.28132 0
M  V30 11384 H 1058.09 3.22957 -0.294823 0
M  V30 11385 H 1057.87 3.33238 -2.06627 0
M  V30 11386 H 1059.36 3.96658 -1.30584 0
M  V30 11387 N 1059.8 1.27835 0.921735 0
M  V30 11388 C 1061.03 1.17182 1.70153 0
M  V30 11389 C 1061.44 -0.273207 1.87217 0
M  V30 11390 O 1060.78 -1.19729 1.39322 0
M  V30 11391 C 1060.84 1.78969 3.11786 0
M  V30 11392 C 1060.5 3.28179 3.18037 0
M  V30 11393 C 1061.5 4.24729 2.99835 0
M  V30 11394 C 1059.19 3.68995 3.40805 0
M  V30 11395 C 1061.18 5.60071 3.04301 0
M  V30 11396 C 1058.87 5.04465 3.44904 0
M  V30 11397 C 1059.87 5.99813 3.2667 0
M  V30 11398 O 1059.55 7.32813 3.30515 0
M  V30 11399 H 1059.29 0.408079 0.538932 0
M  V30 11400 H 1061.84 1.69326 1.16266 0
M  V30 11401 H 1060.07 1.2131 3.6718 0
M  V30 11402 H 1061.76 1.62946 3.71757 0
M  V30 11403 H 1062.52 3.94533 2.8208 0
M  V30 11404 H 1058.4 2.9525 3.54045 0
M  V30 11405 H 1061.95 6.34471 2.89987 0
M  V30 11406 H 1057.84 5.34315 3.62185 0
M  V30 11407 H 1058.61 7.41338 3.4693 0
M  V30 11408 N 1061.28 -1.12907 1.09954 0
M  V30 11409 C 1062.52 -1.83941 0.837255 0
M  V30 11410 C 1062.84 -1.84234 -0.638984 0
M  V30 11411 O 1062.11 -1.30193 -1.46378 0
M  V30 11412 H 1060.69 -0.681115 0.306743 0
M  V30 11413 H 1063.36 -1.36743 1.38879 0
M  V30 11414 H 1062.45 -2.88289 1.19565 0
M  V30 11415 N 1062.75 -0.88754 -1.30232 0
M  V30 11416 C 1064 -0.506277 -1.95656 0
M  V30 11417 C 1064.32 0.948191 -1.70395 0
M  V30 11418 O 1063.59 1.66701 -1.02895 0
M  V30 11419 H 1062.17 -0.184235 -0.723924 0
M  V30 11420 H 1064.83 -1.13118 -1.58715 0
M  V30 11421 H 1063.93 -0.678673 -3.04632 0
M  V30 11422 N 1064.23 1.43628 -0.648757 0
M  V30 11423 C 1065.64 1.85142 -0.24066 0
M  V30 11424 C 1065.99 1.54304 1.21181 0
M  V30 11425 O 1065.12 0.989792 1.92437 0
M  V30 11426 C 1065.71 3.3606 -0.429999 0
M  V30 11427 C 1064.27 3.76323 -0.0762588 0
M  V30 11428 C 1063.42 2.67382 -0.734999 0
M  V30 11429 H 1066.37 1.33844 -0.852734 0
M  V30 11430 H 1066.39 3.79102 0.325836 0
M  V30 11431 H 1065.9 3.58474 -1.48721 0
M  V30 11432 H 1064.01 3.59521 0.978529 0
M  V30 11433 H 1064.12 4.76498 -0.498612 0
M  V30 11434 H 1062.48 2.54141 -0.168644 0
M  V30 11435 H 1063.27 2.92625 -1.79515 0
M  V30 11436 N 1065.71 0.390394 1.52688 0
M  V30 11437 C 1066.94 -0.194013 2.06491 0
M  V30 11438 C 1067.36 -1.3965 1.26014 0
M  V30 11439 O 1066.72 -1.79038 0.285468 0
M  V30 11440 C 1066.77 -0.541306 3.56514 0
M  V30 11441 O 1065.87 -1.63509 3.78601 0
M  V30 11442 H 1065.21 -0.0223608 0.663623 0
M  V30 11443 H 1067.74 0.558179 1.96839 0
M  V30 11444 H 1067.75 -0.805301 3.99974 0
M  V30 11445 H 1066.43 0.337828 4.14526 0
M  V30 11446 H 1065 -1.36473 3.4703 0
M  V30 11447 N 1067.19 -1.57141 0.120249 0
M  V30 11448 C 1068.41 -2.00017 -0.548454 0
M  V30 11449 C 1068.84 -0.999433 -1.59352 0
M  V30 11450 O 1068.2 0.0286978 -1.81277 0
M  V30 11451 C 1068.24 -3.41766 -1.15015 0
M  V30 11452 O 1067.35 -3.44589 -2.26566 0
M  V30 11453 H 1066.69 -0.649739 -0.136875 0
M  V30 11454 H 1069.22 -2.03529 0.209092 0
M  V30 11455 H 1069.23 -3.80001 -1.48537 0
M  V30 11456 H 1067.9 -4.14117 -0.384681 0
M  V30 11457 H 1066.48 -3.18174 -1.94473 0
M  V30 11458 N 1068.67 0.153526 -1.5685 0
M  V30 11459 C 1069.89 0.886343 -1.87507 0
M  V30 11460 C 1070.32 1.74244 -0.708565 0
M  V30 11461 O 1069.67 1.78045 0.341997 0
M  V30 11462 C 1069.72 1.72428 -3.16703 0
M  V30 11463 O 1068.83 2.82784 -3.00178 0
M  V30 11464 H 1068.17 0.247259 -0.616246 0
M  V30 11465 H 1070.7 0.146306 -2.04076 0
M  V30 11466 H 1070.71 2.12062 -3.4856 0
M  V30 11467 H 1069.38 1.09558 -4.01211 0
M  V30 11468 H 1067.96 2.46604 -2.79716 0
M  V30 11469 N 1070.14 1.51827 0.422667 0
M  V30 11470 C 1071.39 1.64893 1.16853 0
M  V30 11471 C 1071.71 0.37456 1.91369 0
M  V30 11472 O 1070.98 -0.610128 1.86157 0
M  V30 11473 H 1069.56 0.607744 0.434345 0
M  V30 11474 H 1072.23 1.88816 0.483159 0
M  V30 11475 H 1071.32 2.48361 1.89006 0
M  V30 11476 N 1071.62 -0.679052 1.4222 0
M  V30 11477 C 1072.56 -1.80369 1.39794 0
M  V30 11478 C 1073.53 -1.60462 0.262806 0
M  V30 11479 O 1074.72 -1.82992 0.452352 0
M  V30 11480 C 1071.84 -3.17305 1.18471 0
M  V30 11481 C 1070.89 -3.55969 2.34922 0
M  V30 11482 S 1071.72 -3.58884 3.97445 0
M  V30 11483 C 1072.88 -4.98519 3.78457 0
M  V30 11484 H 1073.11 -1.82152 2.34964 0
M  V30 11485 H 1070.65 -0.84932 1.28942 0
M  V30 11486 H 1072.6 -3.96348 1.06856 0
M  V30 11487 H 1071.26 -3.13112 0.248944 0
M  V30 11488 H 1070.46 -4.55491 2.1574 0
M  V30 11489 H 1070.06 -2.84275 2.4303 0
M  V30 11490 H 1072.35 -5.86481 3.39184 0
M  V30 11491 H 1073.29 -5.22748 4.77641 0
M  V30 11492 H 1073.7 -4.70836 3.11406 0
M  V30 11493 N 1073.1 -1.28322 -0.914942 0
M  V30 11494 C 1074.35 -1.14785 -1.65853 0
M  V30 11495 C 1074.66 0.303135 -1.93237 0
M  V30 11496 O 1075.87 0.559606 -2.6567 0
M  V30 11497 C 1074.32 -2.00652 -2.98776 0
M  V30 11498 C 1073.93 -3.50483 -2.79044 0
M  V30 11499 C 1075.68 -1.95798 -3.76648 0
M  V30 11500 C 1073.58 -4.28505 -4.076 0
M  V30 11501 H 1072.51 -0.425987 -0.622135 0
M  V30 11502 H 1075.16 -1.52844 -1.01543 0
M  V30 11503 H 1073.55 -1.55447 -3.64214 0
M  V30 11504 H 1074.72 -4.03636 -2.22293 0
M  V30 11505 H 1073.04 -3.5685 -2.14586 0
M  V30 11506 H 1075.63 -2.51359 -4.71935 0
M  V30 11507 H 1075.98 -0.934455 -4.05677 0
M  V30 11508 H 1076.51 -2.38965 -3.18026 0
M  V30 11509 H 1073.25 -5.31433 -3.83744 0
M  V30 11510 H 1072.77 -3.80125 -4.63966 0
M  V30 11511 H 1074.45 -4.3836 -4.75867 0
M  V30 11512 N 1074.58 1.12322 -1.10551 0
M  V30 11513 C 1075.82 1.8413 -0.849932 0
M  V30 11514 C 1076.16 1.83938 0.622946 0
M  V30 11515 O 1075.43 1.28579 1.45937 0
M  V30 11516 C 1075.72 3.31751 -1.40048 0
M  V30 11517 C 1075.57 3.40391 -2.9403 0
M  V30 11518 C 1076.89 4.27543 -1.04379 0
M  V30 11519 H 1074.01 0.668533 -0.310213 0
M  V30 11520 H 1076.65 1.31766 -1.36886 0
M  V30 11521 H 1074.8 3.76475 -0.959102 0
M  V30 11522 H 1076.47 3.04294 -3.46703 0
M  V30 11523 H 1074.71 2.809 -3.30571 0
M  V30 11524 H 1075.38 4.44252 -3.27635 0
M  V30 11525 H 1077.86 3.90951 -1.42466 0
M  V30 11526 H 1076.74 5.2924 -1.4559 0
M  V30 11527 H 1077 4.42075 0.0466316 0
M  V30 11528 N 1076.06 0.894434 1.2976 0
M  V30 11529 C 1077.3 0.524501 1.97556 0
M  V30 11530 C 1077.66 -0.911202 1.69 0
M  V30 11531 O 1078.86 -1.38774 2.30207 0
M  V30 11532 C 1077.13 0.802636 3.48271 0
M  V30 11533 S 1078.69 0.536223 4.35511 0
M  V30 11534 H 1075.51 0.194786 0.683798 0
M  V30 11535 H 1078.11 1.15574 1.5768 0
M  V30 11536 H 1076.82 1.84586 3.66546 0
M  V30 11537 H 1076.35 0.159316 3.93077 0
M  V30 11538 H 1078.36 -0.621056 4.92298 0
M  V30 11539 N 1077.53 -1.43282 0.656365 0
M  V30 11540 C 1078.78 -2.00996 0.168354 0
M  V30 11541 C 1079.1 -1.52408 -1.22601 0
M  V30 11542 O 1080.3 -2.02417 -1.80941 0
M  V30 11543 C 1078.76 -3.5903 0.250161 0
M  V30 11544 C 1078.37 -4.1661 1.64742 0
M  V30 11545 C 1080.11 -4.24118 -0.180084 0
M  V30 11546 C 1078.02 -5.66948 1.68299 0
M  V30 11547 H 1076.95 -0.751674 0.0591769 0
M  V30 11548 H 1079.6 -1.64216 0.818859 0
M  V30 11549 H 1077.98 -3.93226 -0.467908 0
M  V30 11550 H 1079.15 -3.93908 2.3911 0
M  V30 11551 H 1077.47 -3.63905 2.02391 0
M  V30 11552 H 1080.07 -5.34419 -0.173401 0
M  V30 11553 H 1080.41 -3.98264 -1.21208 0
M  V30 11554 H 1080.94 -3.94816 0.486343 0
M  V30 11555 H 1077.68 -5.97573 2.69419 0
M  V30 11556 H 1077.2 -5.91697 0.98261 0
M  V30 11557 H 1078.88 -6.31041 1.42813 0
M  V30 11558 N 1079.01 -0.398486 -1.52479 0
M  V30 11559 C 1080.24 0.180295 -2.05812 0
M  V30 11560 C 1080.65 1.40301 -1.26934 0
M  V30 11561 O 1079.99 1.81039 -0.311544 0
M  V30 11562 C 1080.06 0.60601 -3.54355 0
M  V30 11563 C 1079.72 -0.504508 -4.54207 0
M  V30 11564 C 1080.72 -1.36478 -5.01667 0
M  V30 11565 C 1078.4 -0.674161 -4.97755 0
M  V30 11566 C 1080.4 -2.37975 -5.91309 0
M  V30 11567 C 1078.08 -1.69246 -5.87196 0
M  V30 11568 C 1079.08 -2.54367 -6.33866 0
M  V30 11569 O 1078.77 -3.54454 -7.21538 0
M  V30 11570 H 1078.5 0.0286396 -0.675393 0
M  V30 11571 H 1081.06 -0.564912 -1.97479 0
M  V30 11572 H 1079.29 1.40334 -3.60338 0
M  V30 11573 H 1080.97 1.1115 -3.90385 0
M  V30 11574 H 1081.74 -1.24506 -4.68746 0
M  V30 11575 H 1077.62 -0.0213029 -4.60995 0
M  V30 11576 H 1081.16 -3.0445 -6.27659 0
M  V30 11577 H 1077.06 -1.81252 -6.1953 0
M  V30 11578 H 1077.83 -3.50571 -7.39623 0
M  V30 11579 N 1080.49 1.57075 -0.12858 0
M  V30 11580 C 1081.74 1.9552 0.527087 0
M  V30 11581 C 1082.07 1.01243 1.66072 0
M  V30 11582 O 1081.32 0.0381076 1.95663 0
M  V30 11583 C 1081.62 3.40329 1.09138 0
M  V30 11584 C 1081.29 4.50832 0.0781039 0
M  V30 11585 C 1079.95 4.80782 -0.200493 0
M  V30 11586 C 1082.3 5.17595 -0.61192 0
M  V30 11587 C 1079.63 5.74809 -1.17524 0
M  V30 11588 C 1081.98 6.12671 -1.57536 0
M  V30 11589 C 1080.64 6.41008 -1.86184 0
M  V30 11590 H 1079.91 0.715458 0.192875 0
M  V30 11591 H 1082.56 1.90328 -0.211515 0
M  V30 11592 H 1080.87 3.42262 1.90694 0
M  V30 11593 H 1082.56 3.67393 1.60696 0
M  V30 11594 H 1079.15 4.2751 0.30543 0
M  V30 11595 H 1083.34 4.94605 -0.40986 0
M  V30 11596 H 1078.59 5.95065 -1.40384 0
M  V30 11597 H 1082.77 6.63486 -2.11565 0
M  V30 11598 H 1080.39 7.13673 -2.61868 0
M  V30 11599 N 1081.97 -0.145205 1.5693 0
M  V30 11600 C 1083.22 -0.855955 1.82637 0
M  V30 11601 C 1083.53 -1.82255 0.710109 0
M  V30 11602 O 1084.74 -2.57758 0.852837 0
M  V30 11603 C 1083.19 -1.57278 3.23715 0
M  V30 11604 C 1082.8 -0.648507 4.43281 0
M  V30 11605 C 1084.55 -2.27021 3.58695 0
M  V30 11606 C 1082.45 -1.36706 5.75383 0
M  V30 11607 H 1081.38 -0.323385 0.68113 0
M  V30 11608 H 1084.03 -0.10869 1.83178 0
M  V30 11609 H 1082.42 -2.36574 3.17567 0
M  V30 11610 H 1083.59 0.109355 4.6067 0
M  V30 11611 H 1081.9 -0.0594029 4.16358 0
M  V30 11612 H 1084.5 -2.81423 4.54648 0
M  V30 11613 H 1084.84 -3.03598 2.8484 0
M  V30 11614 H 1085.38 -1.54642 3.66512 0
M  V30 11615 H 1082.12 -0.6431 6.52338 0
M  V30 11616 H 1081.64 -2.09759 5.61926 0
M  V30 11617 H 1083.32 -1.90748 6.18243 0
M  V30 11618 N 1083.45 -1.52049 -0.414609 0
M  V30 11619 C 1084.7 -1.65067 -1.15912 0
M  V30 11620 C 1085.01 -0.383969 -1.91794 0
M  V30 11621 O 1086.22 -0.393872 -2.68628 0
M  V30 11622 C 1084.67 -2.91611 -2.1093 0
M  V30 11623 C 1084.28 -4.25369 -1.4059 0
M  V30 11624 C 1086.02 -3.13992 -2.85674 0
M  V30 11625 C 1083.93 -5.43041 -2.34223 0
M  V30 11626 H 1082.86 -0.614884 -0.436387 0
M  V30 11627 H 1085.51 -1.78533 -0.424072 0
M  V30 11628 H 1083.89 -2.71831 -2.87965 0
M  V30 11629 H 1085.07 -4.55611 -0.689568 0
M  V30 11630 H 1083.38 -4.09047 -0.779088 0
M  V30 11631 H 1085.98 -3.99082 -3.55861 0
M  V30 11632 H 1086.32 -2.27998 -3.48314 0
M  V30 11633 H 1086.86 -3.34217 -2.1574 0
M  V30 11634 H 1083.59 -6.31364 -1.76238 0
M  V30 11635 H 1083.11 -5.17144 -3.03845 0
M  V30 11636 H 1084.79 -5.75901 -2.94868 0
M  V30 11637 N 1084.93 0.6715 -1.42579 0
M  V30 11638 C 1085.86 1.79693 -1.49107 0
M  V30 11639 C 1086.84 1.66516 -0.347338 0
M  V30 11640 O 1088.02 1.85887 -0.562094 0
M  V30 11641 C 1085.15 3.1801 -1.39596 0
M  V30 11642 C 1084.11 3.45926 -2.5203 0
M  V30 11643 C 1083.43 4.83852 -2.27577 0
M  V30 11644 C 1084.73 3.4249 -3.94333 0
M  V30 11645 H 1086.43 1.74486 -2.433 0
M  V30 11646 H 1083.97 0.838042 -1.17102 0
M  V30 11647 H 1085.92 3.96478 -1.42771 0
M  V30 11648 H 1084.65 3.23901 -0.418989 0
M  V30 11649 H 1083.31 2.6982 -2.48178 0
M  V30 11650 H 1082.96 4.86398 -1.28165 0
M  V30 11651 H 1082.66 5.03493 -3.02934 0
M  V30 11652 H 1084.18 5.646 -2.32506 0
M  V30 11653 H 1085.59 4.10922 -3.9977 0
M  V30 11654 H 1083.99 3.73666 -4.69568 0
M  V30 11655 H 1085.06 2.41002 -4.20768 0
M  V30 11656 N 1086.4 1.28806 0.908124 0
M  V30 11657 C 1087.65 1.16287 1.65781 0
M  V30 11658 C 1087.98 -0.287389 1.92365 0
M  V30 11659 O 1087.23 -1.22491 1.52625 0
M  V30 11660 C 1087.53 1.91267 3.01914 0
M  V30 11661 C 1087.2 3.41033 2.9497 0
M  V30 11662 C 1085.86 3.81879 2.92783 0
M  V30 11663 C 1088.21 4.36507 2.848 0
M  V30 11664 C 1085.54 5.16529 2.78235 0
M  V30 11665 C 1087.89 5.71237 2.71792 0
M  V30 11666 C 1086.56 6.11351 2.67967 0
M  V30 11667 H 1085.83 0.425526 0.606637 0
M  V30 11668 H 1088.47 1.59646 1.05762 0
M  V30 11669 H 1086.78 1.40474 3.65752 0
M  V30 11670 H 1088.48 1.78992 3.58835 0
M  V30 11671 H 1085.07 3.08561 2.97469 0
M  V30 11672 H 1089.25 4.05909 2.85573 0
M  V30 11673 H 1084.51 5.4673 2.73672 0
M  V30 11674 H 1088.68 6.44872 2.62892 0
M  V30 11675 H 1086.31 7.15637 2.56451 0
M  V30 11676 N 1087.88 -1.11734 1.11145 0
M  V30 11677 C 1089.13 -1.82766 0.853194 0
M  V30 11678 C 1089.44 -1.85408 -0.623168 0
M  V30 11679 O 1090.65 -2.52509 -0.997574 0
M  V30 11680 C 1089.11 -3.28215 1.47658 0
M  V30 11681 C 1088.71 -3.33911 2.98676 0
M  V30 11682 C 1090.46 -4.04168 1.29803 0
M  V30 11683 C 1088.36 -4.73739 3.54013 0
M  V30 11684 H 1087.29 -0.684807 0.315523 0
M  V30 11685 H 1089.95 -1.25756 1.33633 0
M  V30 11686 H 1088.33 -3.85138 0.921116 0
M  V30 11687 H 1089.5 -2.86887 3.606 0
M  V30 11688 H 1087.82 -2.71437 3.15771 0
M  V30 11689 H 1090.41 -5.07429 1.68582 0
M  V30 11690 H 1090.76 -4.15606 0.240302 0
M  V30 11691 H 1091.29 -3.53623 1.82196 0
M  V30 11692 H 1088.03 -4.67497 4.59485 0
M  V30 11693 H 1087.55 -5.21186 2.9686 0
M  V30 11694 H 1089.23 -5.42691 3.52271 0
M  V30 11695 N 1089.36 -0.901303 -1.29284 0
M  V30 11696 C 1090.6 -0.534971 -1.97275 0
M  V30 11697 C 1090.96 0.902226 -1.69481 0
M  V30 11698 O 1092.16 1.37551 -2.3094 0
M  V30 11699 C 1090.44 -0.821095 -3.4784 0
M  V30 11700 S 1091.99 -0.559312 -4.35221 0
M  V30 11701 H 1088.81 -0.198409 -0.682755 0
M  V30 11702 H 1091.41 -1.16408 -1.57065 0
M  V30 11703 H 1090.12 -1.86527 -3.65562 0
M  V30 11704 H 1089.65 -0.18016 -3.92987 0
M  V30 11705 H 1091.66 0.59494 -4.9262 0
M  V30 11706 N 1090.84 1.42931 -0.663954 0
M  V30 11707 C 1092.09 2.01284 -0.181379 0
M  V30 11708 C 1092.41 1.52708 1.21265 0
M  V30 11709 O 1091.68 0.744181 1.81215 0
M  V30 11710 H 1090.26 0.744248 -0.0640646 0
M  V30 11711 H 1092.92 1.74997 -0.858031 0
M  V30 11712 H 1092.01 3.11613 -0.174273 0
M  V30 11713 N 1092.32 0.406567 1.52266 0
M  V30 11714 C 1093.26 -0.43489 2.28498 0
M  V30 11715 C 1094.26 -1.04806 1.33086 0
M  V30 11716 O 1095.46 -0.986557 1.50556 0
M  V30 11717 H 1091.84 -0.159023 0.734994 0
M  V30 11718 H 1093.81 0.229316 2.97518 0
M  V30 11719 C 1092.56 -1.54073 3.117 0
M  V30 11720 H 1091.88 -1.07824 3.84986 0
M  V30 11721 H 1093.32 -2.10337 3.6815 0
M  V30 11722 C 1091.78 -2.50662 2.251 0
M  V30 11723 O 1092.31 -3.54486 1.88951 0
M  V30 11724 N 1090.52 -2.20811 1.8892 0
M  V30 11725 H 1090.06 -1.36413 2.18516 0
M  V30 11726 H 1090.02 -2.85684 1.3127 0
M  V30 11727 N 1093.79 -1.57004 0.136909 0
M  V30 11728 C 1095.02 -1.99866 -0.523177 0
M  V30 11729 C 1095.43 -1.01584 -1.59616 0
M  V30 11730 O 1094.78 -0.00326426 -1.837 0
M  V30 11731 C 1094.84 -3.39157 -1.19217 0
M  V30 11732 C 1094.5 -4.56231 -0.265 0
M  V30 11733 C 1095.5 -5.17457 0.503412 0
M  V30 11734 C 1093.18 -5.02009 -0.170846 0
M  V30 11735 C 1095.18 -6.22863 1.35353 0
M  V30 11736 C 1092.86 -6.07273 0.682884 0
M  V30 11737 C 1093.86 -6.67568 1.44369 0
M  V30 11738 O 1093.55 -7.70795 2.28321 0
M  V30 11739 H 1093.28 -0.661005 -0.141593 0
M  V30 11740 H 1095.84 -2.04159 0.225445 0
M  V30 11741 H 1094.07 -3.31672 -1.98823 0
M  V30 11742 H 1095.76 -3.66191 -1.75096 0
M  V30 11743 H 1096.52 -4.82994 0.440648 0
M  V30 11744 H 1092.4 -4.54813 -0.752744 0
M  V30 11745 H 1095.94 -6.69855 1.94783 0
M  V30 11746 H 1091.84 -6.41163 0.746978 0
M  V30 11747 H 1092.61 -7.87971 2.21458 0
M  V30 11748 N 1095.27 0.136881 -1.57004 0
M  V30 11749 C 1096.52 0.846257 -1.83088 0
M  V30 11750 C 1096.83 1.81876 -0.719765 0
M  V30 11751 O 1098.04 2.57302 -0.866494 0
M  V30 11752 C 1096.5 1.55559 -3.24545 0
M  V30 11753 C 1096.1 0.624989 -4.43619 0
M  V30 11754 C 1097.85 2.25115 -3.59893 0
M  V30 11755 C 1095.76 1.33653 -5.761 0
M  V30 11756 H 1094.69 0.319768 -0.682836 0
M  V30 11757 H 1097.34 0.0989741 -1.83233 0
M  V30 11758 H 1095.72 2.34887 -3.18817 0
M  V30 11759 H 1096.89 -0.133783 -4.60606 0
M  V30 11760 H 1095.21 0.0373216 -4.16383 0
M  V30 11761 H 1097.8 2.79008 -4.56134 0
M  V30 11762 H 1098.15 3.02084 -2.86446 0
M  V30 11763 H 1098.68 1.52696 -3.67327 0
M  V30 11764 H 1095.42 0.608495 -6.5267 0
M  V30 11765 H 1094.94 2.06776 -5.63031 0
M  V30 11766 H 1096.62 1.87467 -6.19246 0
M  V30 11767 N 1096.75 1.52266 0.40654 0
M  V30 11768 C 1097.68 1.78755 1.50229 0
M  V30 11769 C 1098.66 0.638652 1.57655 0
M  V30 11770 O 1099.85 0.884505 1.72888 0
M  V30 11771 C 1096.98 1.94057 2.88026 0
M  V30 11772 C 1095.93 3.09667 2.95449 0
M  V30 11773 C 1095.26 3.10196 4.35526 0
M  V30 11774 C 1096.56 4.49077 2.66697 0
M  V30 11775 H 1098.25 2.70511 1.28313 0
M  V30 11776 H 1095.8 1.30167 0.615836 0
M  V30 11777 H 1097.75 2.11171 3.64671 0
M  V30 11778 H 1096.47 0.989755 3.11242 0
M  V30 11779 H 1095.13 2.92308 2.2125 0
M  V30 11780 H 1094.78 2.12831 4.55754 0
M  V30 11781 H 1094.48 3.87847 4.41416 0
M  V30 11782 H 1096 3.29443 5.14101 0
M  V30 11783 H 1097.42 4.66628 3.33064 0
M  V30 11784 H 1095.82 5.28665 2.8396 0
M  V30 11785 H 1096.89 4.56995 1.62122 0
M  V30 11786 N 1098.23 -0.663929 1.42933 0
M  V30 11787 C 1099.16 -1.78899 1.50058 0
M  V30 11788 C 1100.14 -1.66329 0.356164 0
M  V30 11789 O 1101.32 -1.85587 0.571944 0
M  V30 11790 C 1098.45 -3.17265 1.41281 0
M  V30 11791 C 1097.41 -3.44584 2.53861 0
M  V30 11792 C 1096.73 -4.82638 2.3014 0
M  V30 11793 C 1098.03 -3.40394 3.96143 0
M  V30 11794 H 1099.73 -1.73194 2.44222 0
M  V30 11795 H 1097.27 -0.83182 1.17545 0
M  V30 11796 H 1099.23 -3.95715 1.44872 0
M  V30 11797 H 1097.95 -3.23675 0.43616 0
M  V30 11798 H 1096.61 -2.685 2.49606 0
M  V30 11799 H 1096.26 -4.85711 1.30743 0
M  V30 11800 H 1095.96 -5.01879 3.056 0
M  V30 11801 H 1097.48 -5.63359 2.35497 0
M  V30 11802 H 1098.9 -4.08796 4.01943 0
M  V30 11803 H 1097.29 -3.7117 4.71543 0
M  V30 11804 H 1098.36 -2.38767 4.22041 0
M  V30 11805 N 1099.71 -1.29285 -0.901281 0
M  V30 11806 C 1100.65 -1.14159 -2.02659 0
M  V30 11807 C 1101.65 -0.0575887 -1.69302 0
M  V30 11808 O 1102.85 -0.217273 -1.78684 0
M  V30 11809 H 1099.23 -0.352584 -0.66422 0
M  V30 11810 H 1101.2 -2.09434 -2.12555 0
M  V30 11811 C 1099.95 -0.833253 -3.37568 0
M  V30 11812 H 1099.27 -1.65939 -3.63737 0
M  V30 11813 H 1100.71 -0.767436 -4.16997 0
M  V30 11814 C 1099.17 0.46344 -3.33697 0
M  V30 11815 O 1099.7 1.48998 -3.73045 0
M  V30 11816 N 1097.91 0.468709 -2.86795 0
M  V30 11817 H 1097.45 -0.36712 -2.54971 0
M  V30 11818 H 1097.41 1.3363 -2.84588 0
M  V30 11819 N 1101.18 1.11143 -1.11736 0
M  V30 11820 C 1102.43 1.83219 -0.869413 0
M  V30 11821 C 1102.76 1.84588 0.603402 0
M  V30 11822 O 1102.04 1.30119 1.44566 0
M  V30 11823 C 1102.32 3.30247 -1.43559 0
M  V30 11824 C 1102.17 3.37253 -2.97624 0
M  V30 11825 C 1103.49 4.26412 -1.08907 0
M  V30 11826 H 1100.61 0.665205 -0.317286 0
M  V30 11827 H 1103.25 1.30307 -1.38275 0
M  V30 11828 H 1101.4 3.75437 -0.998978 0
M  V30 11829 H 1103.08 3.00599 -3.49911 0
M  V30 11830 H 1101.32 2.77378 -3.33532 0
M  V30 11831 H 1101.99 4.40752 -3.32328 0
M  V30 11832 H 1104.47 3.89418 -1.46604 0
M  V30 11833 H 1103.34 5.27666 -1.51195 0
M  V30 11834 H 1103.6 4.421 -0.000259009 0
M  V30 11835 N 1102.66 0.908147 1.28804 0
M  V30 11836 C 1103.91 0.538404 1.95211 0
M  V30 11837 C 1104.24 -0.916886 1.71533 0
M  V30 11838 O 1103.49 -1.66643 1.02609 0
M  V30 11839 C 1103.79 0.787327 3.4862 0
M  V30 11840 C 1103.46 2.22129 3.92389 0
M  V30 11841 C 1102.12 2.61336 4.04051 0
M  V30 11842 C 1104.47 3.15471 4.14883 0
M  V30 11843 C 1101.8 3.93048 4.3558 0
M  V30 11844 C 1104.15 4.46741 4.47889 0
M  V30 11845 C 1102.82 4.85809 4.57761 0
M  V30 11846 H 1102.09 0.197016 0.714329 0
M  V30 11847 H 1104.73 1.14841 1.53244 0
M  V30 11848 H 1103.04 0.0944731 3.91686 0
M  V30 11849 H 1104.73 0.480503 3.98111 0
M  V30 11850 H 1101.32 1.90704 3.83836 0
M  V30 11851 H 1105.51 2.86391 4.05332 0
M  V30 11852 H 1100.76 4.23027 4.41428 0
M  V30 11853 H 1104.94 5.19087 4.64243 0
M  V30 11854 H 1102.57 5.87904 4.81947 0
M  V30 11855 N 1104.14 -1.42577 0.671525 0
M  V30 11856 C 1105.07 -2.33499 0.00506984 0
M  V30 11857 C 1106.05 -1.50497 -0.792763 0
M  V30 11858 O 1107.24 -1.79109 -0.750574 0
M  V30 11859 C 1104.37 -3.34077 -0.949194 0
M  V30 11860 C 1103.32 -4.27208 -0.260187 0
M  V30 11861 C 1102.65 -5.17968 -1.32716 0
M  V30 11862 C 1103.95 -5.15192 0.858772 0
M  V30 11863 H 1105.64 -2.89477 0.764407 0
M  V30 11864 H 1103.19 -1.39191 0.369043 0
M  V30 11865 H 1105.14 -3.96594 -1.42448 0
M  V30 11866 H 1103.86 -2.76396 -1.73991 0
M  V30 11867 H 1102.52 -3.66082 0.194834 0
M  V30 11868 H 1102.17 -4.56615 -2.10979 0
M  V30 11869 H 1101.87 -5.81104 -0.871293 0
M  V30 11870 H 1103.39 -5.83359 -1.80345 0
M  V30 11871 H 1104.81 -5.71412 0.464844 0
M  V30 11872 H 1103.21 -5.87144 1.24023 0
M  V30 11873 H 1104.28 -4.53787 1.70895 0
M  V30 11874 N 1105.62 -0.414636 -1.52048 0
M  V30 11875 C 1106.58 0.396285 -2.25748 0
M  V30 11876 C 1107.58 0.969003 -1.28324 0
M  V30 11877 O 1108.77 0.847016 -1.52221 0
M  V30 11878 C 1105.9 1.55838 -3.03195 0
M  V30 11879 H 1107.1 -0.249311 -2.98862 0
M  V30 11880 H 1104.65 -0.167276 -1.55402 0
M  V30 11881 H 1105.38 2.24068 -2.34444 0
M  V30 11882 H 1105.17 1.15414 -3.74729 0
M  V30 11883 H 1106.66 2.13187 -3.59084 0
M  V30 11884 N 1107.1 1.56929 -0.145233 0
M  V30 11885 C 1108.35 1.95243 0.506273 0
M  V30 11886 C 1108.66 1.0325 1.66129 0
M  V30 11887 O 1109.86 1.31135 2.37731 0
M  V30 11888 C 1108.32 3.47079 0.952042 0
M  V30 11889 C 1107.93 4.47654 -0.175947 0
M  V30 11890 C 1109.67 3.94263 1.57344 0
M  V30 11891 C 1107.58 5.90698 0.287993 0
M  V30 11892 H 1106.51 0.728906 0.192903 0
M  V30 11893 H 1109.16 1.82062 -0.229295 0
M  V30 11894 H 1107.54 3.55587 1.74282 0
M  V30 11895 H 1108.72 4.50841 -0.952848 0
M  V30 11896 H 1107.03 4.10377 -0.70564 0
M  V30 11897 H 1109.63 4.9857 1.93214 0
M  V30 11898 H 1109.97 3.35714 2.46174 0
M  V30 11899 H 1110.5 3.88665 0.847593 0
M  V30 11900 H 1107.24 6.53061 -0.564889 0
M  V30 11901 H 1106.76 5.90876 1.03081 0
M  V30 11902 H 1108.44 6.42747 0.740586 0
M  V30 11903 N 1108.58 -0.128553 1.57075 0
M  V30 11904 C 1109.54 -1.14215 1.98715 0
M  V30 11905 C 1110.54 -1.34843 0.876019 0
M  V30 11906 O 1111.73 -1.31522 1.14227 0
M  V30 11907 C 1108.86 -2.49865 2.31905 0
M  V30 11908 H 1110.05 -0.784481 2.89458 0
M  V30 11909 H 1107.61 -0.372531 1.51796 0
M  V30 11910 H 1108.34 -2.9057 1.44012 0
M  V30 11911 H 1108.13 -2.3625 3.12935 0
M  V30 11912 H 1109.62 -3.22832 2.64895 0
M  V30 11913 N 1110.05 -1.5248 -0.398459 0
M  V30 11914 C 1111.3 -1.67309 -1.1461 0
M  V30 11915 C 1111.63 -0.407095 -1.89885 0
M  V30 11916 O 1110.91 0.594834 -1.85181 0
M  V30 11917 C 1111.19 -2.90204 -2.13198 0
M  V30 11918 C 1111.04 -4.26881 -1.4175 0
M  V30 11919 C 1112.36 -3.08634 -3.13741 0
M  V30 11920 H 1109.48 -0.608853 -0.415292 0
M  V30 11921 H 1112.12 -1.85057 -0.430573 0
M  V30 11922 H 1110.27 -2.75204 -2.74218 0
M  V30 11923 H 1111.95 -4.53631 -0.837676 0
M  V30 11924 H 1110.19 -4.27793 -0.719387 0
M  V30 11925 H 1110.86 -5.08939 -2.1374 0
M  V30 11926 H 1113.34 -3.22603 -2.62805 0
M  V30 11927 H 1112.21 -3.96117 -3.79977 0
M  V30 11928 H 1112.47 -2.22425 -3.82073 0
M  V30 11929 N 1111.53 0.65634 -1.43283 0
M  V30 11930 C 1112.81 1.41339 -1.35213 0
M  V30 11931 C 1113.19 2.111 0.00158494 0
M  V30 11932 O 1112.54 2.0457 1.018 0
M  V30 11933 C 1112.75 2.40066 -2.53317 0
M  V30 11934 C 1114.09 3.04159 -2.96264 0
M  V30 11935 O 1115.12 2.50393 -2.53341 0
M  V30 11936 O 1113.98 4.01633 -3.70612 0
M  V30 11937 H 1111.07 0.631325 -0.534189 0
M  V30 11938 H 1113.62 0.68351 -1.55326 0
M  V30 11939 H 1112.39 1.87444 -3.43483 0
M  V30 11940 H 1112.01 3.20509 -2.35287 0
M  V30 11941 N 1113.01 1.29761 0.894412 0
M  V30 11942 C 1113.96 1.15232 2.0205 0
M  V30 11943 C 1114.95 0.0665664 1.69269 0
M  V30 11944 O 1116.16 0.226746 1.78566 0
M  V30 11945 H 1112.53 0.356102 0.662341 0
M  V30 11946 H 1114.5 2.10559 2.11442 0
M  V30 11947 C 1113.25 0.851143 3.37121 0
M  V30 11948 H 1112.58 1.67865 3.62852 0
M  V30 11949 H 1114.02 0.78954 4.16584 0
M  V30 11950 C 1112.47 -0.445737 3.33938 0
M  V30 11951 O 1113 -1.47017 3.7383 0
M  V30 11952 N 1111.21 -0.453493 2.8704 0
M  V30 11953 H 1110.76 0.380636 2.54772 0
M  V30 11954 H 1110.72 -1.32119 2.85293 0
M  V30 11955 N 1114.49 -1.10549 1.12324 0
M  V30 11956 C 1115.42 -2.18911 0.812416 0
M  V30 11957 C 1116.4 -1.68628 -0.22327 0
M  V30 11958 O 1117.58 -1.94015 -0.0847184 0
M  V30 11959 C 1114.71 -3.46288 0.264947 0
M  V30 11960 C 1113.67 -4.09838 1.23356 0
M  V30 11961 C 1112.99 -5.31901 0.546374 0
M  V30 11962 C 1114.29 -4.53686 2.58778 0
M  V30 11963 H 1115.99 -2.45169 1.71851 0
M  V30 11964 H 1113.53 -1.17834 0.827715 0
M  V30 11965 H 1115.49 -4.21385 0.0352364 0
M  V30 11966 H 1114.21 -3.19517 -0.676479 0
M  V30 11967 H 1112.87 -3.36746 1.44906 0
M  V30 11968 H 1112.52 -5.01406 -0.400157 0
M  V30 11969 H 1112.22 -5.75372 1.19249 0
M  V30 11970 H 1113.74 -6.09731 0.325673 0
M  V30 11971 H 1115.16 -5.20063 2.41263 0
M  V30 11972 H 1113.55 -5.08003 3.19457 0
M  V30 11973 H 1114.62 -3.66665 3.17309 0
M  V30 11974 N 1115.97 -0.914965 -1.28321 0
M  V30 11975 C 1116.93 -0.409024 -2.25521 0
M  V30 11976 C 1117.93 0.465327 -1.5392 0
M  V30 11977 O 1119.12 0.26821 -1.72123 0
M  V30 11978 C 1116.25 0.413452 -3.38383 0
M  V30 11979 H 1117.44 -1.26767 -2.71791 0
M  V30 11980 H 1115 -0.694477 -1.40024 0
M  V30 11981 H 1115.73 1.29145 -2.97476 0
M  V30 11982 H 1115.52 -0.213268 -3.9152 0
M  V30 11983 H 1117.01 0.758232 -4.10659 0
M  V30 11984 N 1117.44 1.42219 -0.679077 0
M  V30 11985 C 1118.72 1.95155 -0.13188 0
M  V30 11986 C 1119.1 1.6193 1.35433 0
M  V30 11987 O 1118.45 0.917672 2.09263 0
M  V30 11988 C 1118.66 3.46635 -0.405578 0
M  V30 11989 C 1120.01 4.23359 -0.324394 0
M  V30 11990 O 1121.03 3.54578 -0.339564 0
M  V30 11991 O 1119.89 5.45831 -0.270268 0
M  V30 11992 H 1116.98 0.826983 -0.00535438 0
M  V30 11993 H 1119.53 1.52024 -0.754101 0
M  V30 11994 H 1118.3 3.6404 -1.43495 0
M  V30 11995 H 1117.92 3.96823 0.248439 0
M  V30 11996 N 1118.92 0.422693 1.51826 0
M  V30 11997 C 1119.88 -0.384307 2.25955 0
M  V30 11998 C 1120.88 -0.962184 1.28836 0
M  V30 11999 O 1122.07 -0.838931 1.52668 0
M  V30 12000 C 1119.21 -1.54228 3.04018 0
M  V30 12001 H 1120.4 0.265157 2.98726 0
M  V30 12002 H 1117.95 0.175515 1.55311 0
M  V30 12003 H 1118.69 -2.22822 2.35629 0
M  V30 12004 H 1118.47 -1.13425 3.75336 0
M  V30 12005 H 1119.96 -2.1128 3.60209 0
M  V30 12006 N 1120.4 -1.5685 0.153553 0
M  V30 12007 C 1121.31 -2.20664 -0.796528 0
M  V30 12008 C 1122.33 -1.19289 -1.26674 0
M  V30 12009 O 1123.5 -1.51889 -1.32256 0
M  V30 12010 C 1120.57 -2.82088 -2.01561 0
M  V30 12011 C 1119.63 -3.9861 -1.59401 0
M  V30 12012 C 1118.86 -4.57096 -2.75498 0
M  V30 12013 O 1119.08 -4.14462 -3.9189 0
M  V30 12014 O 1118.02 -5.47254 -2.50593 0
M  V30 12015 H 1121.84 -3.02376 -0.283282 0
M  V30 12016 H 1119.43 -1.49218 -0.0737927 0
M  V30 12017 H 1121.31 -3.21103 -2.72893 0
M  V30 12018 H 1119.99 -2.03385 -2.51826 0
M  V30 12019 H 1118.89 -3.64299 -0.850725 0
M  V30 12020 H 1120.23 -4.78853 -1.13845 0
M  V30 12021 N 1121.88 0.120221 -1.57141 0
M  V30 12022 C 1123.1 0.84637 -1.89344 0
M  V30 12023 C 1123.53 1.72702 -0.745365 0
M  V30 12024 O 1122.89 1.7873 0.304155 0
M  V30 12025 C 1122.93 1.65671 -3.20289 0
M  V30 12026 O 1122.04 2.76353 -3.06109 0
M  V30 12027 H 1121.38 0.234132 -0.621352 0
M  V30 12028 H 1123.91 0.102986 -2.04341 0
M  V30 12029 H 1123.92 2.04621 -3.52979 0
M  V30 12030 H 1122.59 1.01023 -4.03444 0
M  V30 12031 H 1121.17 2.40615 -2.84884 0
M  V30 12032 N 1123.36 1.52689 0.390367 0
M  V30 12033 C 1124.29 1.80338 1.48325 0
M  V30 12034 C 1125.27 0.655338 1.56969 0
M  V30 12035 O 1126.45 0.902792 1.7194 0
M  V30 12036 C 1123.58 1.97101 2.85952 0
M  V30 12037 C 1122.54 3.12783 2.92148 0
M  V30 12038 C 1121.86 3.14798 4.32211 0
M  V30 12039 C 1123.16 4.5188 2.61919 0
M  V30 12040 H 1124.86 2.71857 1.25437 0
M  V30 12041 H 1122.4 1.30813 0.601995 0
M  V30 12042 H 1124.36 2.15027 3.62411 0
M  V30 12043 H 1123.08 1.02271 3.10174 0
M  V30 12044 H 1121.74 2.94638 2.18137 0
M  V30 12045 H 1121.39 2.17653 4.53471 0
M  V30 12046 H 1121.09 3.92507 4.37278 0
M  V30 12047 H 1122.61 3.34877 5.10578 0
M  V30 12048 H 1124.02 4.70134 3.28096 0
M  V30 12049 H 1122.42 5.31647 2.78337 0
M  V30 12050 H 1123.49 4.58689 1.57266 0
M  V30 12051 N 1124.83 -0.648732 1.43629 0
M  V30 12052 C 1125.78 -1.78269 1.49409 0
M  V30 12053 C 1126.78 -1.6537 0.367288 0
M  V30 12054 O 1127.98 -1.71663 0.541476 0
M  V30 12055 H 1124.36 -0.58824 0.468484 0
M  V30 12056 H 1126.33 -1.70514 2.44883 0
M  V30 12057 C 1125.08 -3.16545 1.43856 0
M  V30 12058 H 1124.4 -3.2711 2.29868 0
M  V30 12059 H 1125.84 -3.95833 1.51961 0
M  V30 12060 C 1124.3 -3.36535 0.156779 0
M  V30 12061 O 1124.83 -3.94052 -0.780124 0
M  V30 12062 N 1123.04 -2.90526 0.0655319 0
M  V30 12063 H 1122.58 -2.43904 0.828768 0
M  V30 12064 H 1122.54 -3.04277 -0.791379 0
M  V30 12065 N 1126.31 -1.30234 -0.887518 0
M  V30 12066 C 1127.54 -1.21829 -1.67229 0
M  V30 12067 C 1127.96 0.219251 -1.87523 0
M  V30 12068 O 1127.31 1.14526 -1.42091 0
M  V30 12069 C 1127.36 -1.94044 -3.05007 0
M  V30 12070 O 1127.08 -3.32185 -2.85631 0
M  V30 12071 C 1128.59 -1.92265 -3.99436 0
M  V30 12072 H 1125.81 -0.421716 -0.521916 0
M  V30 12073 H 1128.35 -1.71816 -1.10903 0
M  V30 12074 H 1126.5 -1.47861 -3.58072 0
M  V30 12075 H 1126.92 -3.68724 -3.73018 0
M  V30 12076 H 1128.39 -2.47336 -4.93486 0
M  V30 12077 H 1128.87 -0.900984 -4.29859 0
M  V30 12078 H 1129.48 -2.38247 -3.52305 0
M  V30 12079 N 1127.79 1.09952 -1.12909 0
M  V30 12080 C 1128.75 2.14615 -0.804548 0
M  V30 12081 C 1129.75 1.5975 0.18345 0
M  V30 12082 O 1130.94 1.74147 -0.0429623 0
M  V30 12083 C 1128.08 3.40333 -0.196471 0
M  V30 12084 H 1129.27 2.44835 -1.73193 0
M  V30 12085 H 1126.82 1.25399 -0.932997 0
M  V30 12086 H 1127.56 3.15735 0.740388 0
M  V30 12087 H 1127.34 3.81444 -0.907886 0
M  V30 12088 H 1128.83 4.17598 0.0139264 0
M  V30 12089 N 1129.27 0.921757 1.27833 0
M  V30 12090 C 1130.2 0.373575 2.26135 0
M  V30 12091 C 1131.21 -0.492414 1.55174 0
M  V30 12092 O 1132.4 -0.305998 1.75858 0
M  V30 12093 C 1129.5 -0.483911 3.35427 0
M  V30 12094 C 1128.68 0.361411 4.35904 0
M  V30 12095 C 1127.73 -0.432461 5.2442 0
M  V30 12096 O 1126.76 0.15777 5.68981 0
M  V30 12097 N 1127.96 -1.73367 5.54007 0
M  V30 12098 H 1130.73 1.21856 2.73809 0
M  V30 12099 H 1128.29 0.788552 1.41398 0
M  V30 12100 H 1130.28 -1.02193 3.91585 0
M  V30 12101 H 1128.85 -1.22963 2.874 0
M  V30 12102 H 1128.07 1.08076 3.79095 0
M  V30 12103 H 1129.36 0.939528 5.0005 0
M  V30 12104 H 1128.76 -2.23561 5.19651 0
M  V30 12105 H 1127.31 -2.21834 6.12889 0
M  V30 12106 N 1130.75 -1.41857 0.686609 0
M  V30 12107 C 1131.69 -2.30795 0.015643 0
M  V30 12108 C 1132.66 -1.46616 -0.780569 0
M  V30 12109 O 1133.85 -1.75423 -0.750424 0
M  V30 12110 C 1130.99 -3.32577 -0.921229 0
M  V30 12111 C 1130.1 -4.3184 -0.117585 0
M  V30 12112 C 1129.24 -5.20693 -1.05128 0
M  V30 12113 C 1128.28 -6.11629 -0.240018 0
M  V30 12114 N 1127.41 -6.92995 -1.12704 0
M  V30 12115 H 1132.25 -2.87615 0.77985 0
M  V30 12116 H 1129.79 -1.41661 0.396298 0
M  V30 12117 H 1131.75 -3.90129 -1.47836 0
M  V30 12118 H 1130.38 -2.77328 -1.65193 0
M  V30 12119 H 1129.43 -3.7631 0.55634 0
M  V30 12120 H 1130.74 -4.96168 0.511753 0
M  V30 12121 H 1129.9 -5.83035 -1.67795 0
M  V30 12122 H 1128.63 -4.5657 -1.71449 0
M  V30 12123 H 1127.64 -5.48345 0.399779 0
M  V30 12124 H 1128.86 -6.77805 0.419266 0
M  V30 12125 H 1126.81 -6.31489 -1.77644 0
M  V30 12126 H 1126.73 -7.53974 -0.553065 0
M  V30 12127 H 1128 -7.59813 -1.7408 0
M  V30 12128 N 1132.22 -0.430739 -1.51599 0
M  V30 12129 C 1133.13 0.390347 -2.3133 0
M  V30 12130 C 1134.15 1.03376 -1.39962 0
M  V30 12131 O 1135.33 1.03057 -1.73035 0
M  V30 12132 C 1132.39 1.48039 -3.13505 0
M  V30 12133 C 1131.45 0.857792 -4.20643 0
M  V30 12134 C 1130.69 1.89589 -4.9889 0
M  V30 12135 O 1130.91 3.11717 -4.77691 0
M  V30 12136 O 1129.84 1.49009 -5.83164 0
M  V30 12137 H 1133.67 -0.260358 -3.02582 0
M  V30 12138 H 1131.25 -0.193428 -1.48143 0
M  V30 12139 H 1133.14 2.11272 -3.64612 0
M  V30 12140 H 1131.81 2.1153 -2.45024 0
M  V30 12141 H 1130.72 0.187592 -3.73629 0
M  V30 12142 H 1132.05 0.266474 -4.91478 0
M  V30 12143 N 1133.7 1.56767 -0.161869 0
M  V30 12144 C 1134.61 2.21083 0.784814 0
M  V30 12145 C 1135.63 1.19959 1.26039 0
M  V30 12146 O 1136.8 1.52588 1.31449 0
M  V30 12147 C 1133.87 2.83153 2.00063 0
M  V30 12148 C 1132.93 3.9945 1.57285 0
M  V30 12149 C 1132.16 4.5855 2.7307 0
M  V30 12150 O 1132.39 4.16534 3.89686 0
M  V30 12151 O 1131.32 5.48575 2.47688 0
M  V30 12152 H 1135.15 3.02522 0.267243 0
M  V30 12153 H 1132.73 1.49255 0.0658783 0
M  V30 12154 H 1134.61 3.22546 2.71186 0
M  V30 12155 H 1133.29 2.04718 2.50744 0
M  V30 12156 H 1132.2 3.64745 0.831393 0
M  V30 12157 H 1133.53 4.7945 1.11304 0
M  V30 12158 N 1135.18 -0.111886 1.57202 0
M  V30 12159 C 1136.14 -1.12101 1.99915 0
M  V30 12160 C 1137.14 -1.33906 0.890272 0
M  V30 12161 O 1138.33 -1.30303 1.15615 0
M  V30 12162 C 1135.47 -2.47392 2.34543 0
M  V30 12163 H 1136.66 -0.753736 2.90274 0
M  V30 12164 H 1134.21 -0.35641 1.52182 0
M  V30 12165 H 1134.95 -2.89026 1.47086 0
M  V30 12166 H 1134.73 -2.32917 3.15423 0
M  V30 12167 H 1136.22 -3.20004 2.68304 0
M  V30 12168 N 1136.66 -1.52894 -0.382264 0
M  V30 12169 C 1137.57 -1.81084 -1.4915 0
M  V30 12170 C 1138.58 -0.698045 -1.59384 0
M  V30 12171 O 1139.76 -0.98635 -1.75594 0
M  V30 12172 C 1136.83 -1.97987 -2.84608 0
M  V30 12173 C 1135.89 -3.219 -2.8404 0
M  V30 12174 C 1135.12 -3.37988 -4.13037 0
M  V30 12175 O 1135.34 -2.58733 -5.08344 0
M  V30 12176 O 1134.28 -4.31273 -4.19866 0
M  V30 12177 H 1138.1 -2.75289 -1.28257 0
M  V30 12178 H 1135.69 -1.38068 -0.57076 0
M  V30 12179 H 1137.57 -2.10773 -3.64901 0
M  V30 12180 H 1136.24 -1.06972 -3.05514 0
M  V30 12181 H 1135.15 -3.14551 -2.02505 0
M  V30 12182 H 1136.48 -4.12783 -2.68087 0
M  V30 12183 N 1138.14 0.641106 -1.43971 0
M  V30 12184 C 1139.05 1.78239 -1.52538 0
M  V30 12185 C 1140.06 1.6906 -0.411668 0
M  V30 12186 O 1141.24 1.90014 -0.66757 0
M  V30 12187 C 1138.3 3.14579 -1.45743 0
M  V30 12188 C 1137.37 3.35464 -2.67885 0
M  V30 12189 C 1136.6 4.65299 -2.61404 0
M  V30 12190 O 1136.82 5.45451 -1.66851 0
M  V30 12191 O 1135.76 4.8817 -3.521 0
M  V30 12192 H 1139.58 1.73965 -2.48937 0
M  V30 12193 H 1137.17 0.801098 -1.26106 0
M  V30 12194 H 1139.05 3.95873 -1.4444 0
M  V30 12195 H 1137.72 3.19417 -0.524837 0
M  V30 12196 H 1136.63 2.53888 -2.74758 0
M  V30 12197 H 1137.96 3.35481 -3.60157 0
M  V30 12198 N 1139.62 1.30703 0.880598 0
M  V30 12199 C 1140.56 1.17455 1.98678 0
M  V30 12200 C 1141.53 0.0629569 1.65981 0
M  V30 12201 O 1142.72 0.233926 1.89361 0
M  V30 12202 C 1139.86 0.876882 3.33774 0
M  V30 12203 C 1138.97 2.07078 3.79134 0
M  V30 12204 C 1138.11 1.71082 5.02896 0
M  V30 12205 C 1137.14 2.86942 5.40676 0
M  V30 12206 N 1136.28 2.51212 6.55619 0
M  V30 12207 H 1141.12 2.12086 2.09341 0
M  V30 12208 H 1138.66 1.05514 1.02495 0
M  V30 12209 H 1140.62 0.684899 4.1154 0
M  V30 12210 H 1139.25 -0.0325633 3.22784 0
M  V30 12211 H 1138.3 2.37388 2.97239 0
M  V30 12212 H 1139.61 2.9383 4.0307 0
M  V30 12213 H 1138.76 1.48284 5.883 0
M  V30 12214 H 1137.5 0.815064 4.80841 0
M  V30 12215 H 1136.51 3.10401 4.53797 0
M  V30 12216 H 1137.73 3.77211 5.64703 0
M  V30 12217 H 1135.68 1.64147 6.35131 0
M  V30 12218 H 1135.6 3.31495 6.79446 0
M  V30 12219 H 1136.86 2.31781 7.44243 0
M  V30 12220 N 1141.09 -1.09351 1.1349 0
M  V30 12221 C 1142 -2.19564 0.826366 0
M  V30 12222 C 1143.02 -1.72967 -0.189339 0
M  V30 12223 O 1144.2 -2.0139 -0.0202033 0
M  V30 12224 C 1141.26 -3.4542 0.297685 0
M  V30 12225 C 1140.32 -4.06694 1.37473 0
M  V30 12226 C 1139.55 -5.26542 0.871183 0
M  V30 12227 O 1139.78 -5.69657 -0.290958 0
M  V30 12228 O 1138.71 -5.78961 1.64584 0
M  V30 12229 H 1142.54 -2.4841 1.74718 0
M  V30 12230 H 1140.12 -1.18302 0.912414 0
M  V30 12231 H 1142 -4.21399 0.00829479 0
M  V30 12232 H 1140.68 -3.18175 -0.595536 0
M  V30 12233 H 1139.59 -3.32347 1.71745 0
M  V30 12234 H 1140.92 -4.38166 2.24212 0
M  V30 12235 N 1142.57 -0.928524 -1.27343 0
M  V30 12236 C 1143.99 -0.62889 -1.46687 0
M  V30 12237 C 1144.19 0.821592 -1.83989 0
M  V30 12238 O 1143.24 1.59941 -1.95385 0
M  V30 12239 C 1144.56 -1.57947 -2.55878 0
M  V30 12240 C 1146.1 -1.58778 -2.69738 0
M  V30 12241 C 1146.58 -2.52535 -3.82087 0
M  V30 12242 N 1148.07 -2.50747 -3.89462 0
M  V30 12243 C 1148.81 -3.19981 -4.75814 0
M  V30 12244 N 1148.3 -3.98598 -5.66649 0
M  V30 12245 N 1150.09 -3.08996 -4.69551 0
M  V30 12246 H 1142.25 -1.86625 -1.01414 0
M  V30 12247 H 1144.51 -0.801293 -0.50659 0
M  V30 12248 H 1144.21 -2.61427 -2.35264 0
M  V30 12249 H 1144.09 -1.3218 -3.53282 0
M  V30 12250 H 1146.48 -0.560292 -2.89732 0
M  V30 12251 H 1146.56 -1.88594 -1.72817 0
M  V30 12252 H 1146.2 -3.55395 -3.62846 0
M  V30 12253 H 1146.13 -2.20015 -4.78436 0
M  V30 12254 H 1148.62 -1.93651 -3.24511 0
M  V30 12255 H 1148.93 -4.4841 -6.29403 0
M  V30 12256 H 1147.28 -4.02701 -5.66442 0
M  V30 12257 H 1150.47 -2.4707 -3.97585 0
M  V30 12258 H 1150.64 -3.63223 -5.36631 0
M  V30 12259 N 1144.05 1.41491 -0.694123 0
M  V30 12260 C 1145 2.30783 -0.0278824 0
M  V30 12261 C 1145.97 1.47028 0.772783 0
M  V30 12262 O 1147.15 1.75819 0.74111 0
M  V30 12263 C 1144.29 3.33061 0.903579 0
M  V30 12264 C 1143.4 4.31896 0.0946823 0
M  V30 12265 C 1142.54 5.21243 1.02365 0
M  V30 12266 C 1141.58 6.11748 0.207578 0
M  V30 12267 N 1140.72 6.93583 1.09028 0
M  V30 12268 H 1145.56 2.87197 -0.795092 0
M  V30 12269 H 1143.09 1.41449 -0.403806 0
M  V30 12270 H 1145.05 3.90907 1.45765 0
M  V30 12271 H 1143.68 2.782 1.6372 0
M  V30 12272 H 1142.73 3.76009 -0.576289 0
M  V30 12273 H 1144.04 4.95889 -0.538059 0
M  V30 12274 H 1143.2 5.83917 1.647 0
M  V30 12275 H 1141.94 4.57473 1.69025 0
M  V30 12276 H 1140.94 5.48125 -0.428854 0
M  V30 12277 H 1142.17 6.77573 -0.455206 0
M  V30 12278 H 1140.11 6.32422 1.74292 0
M  V30 12279 H 1140.03 7.54257 0.513073 0
M  V30 12280 H 1141.3 7.60726 1.70048 0
M  V30 12281 N 1145.53 0.438773 1.51369 0
M  V30 12282 C 1146.47 -0.37195 2.27783 0
M  V30 12283 C 1147.44 -1.01558 1.31435 0
M  V30 12284 O 1148.63 -1.03421 1.60339 0
M  V30 12285 C 1145.77 -1.46636 3.12397 0
M  V30 12286 C 1144.88 -0.840727 4.2374 0
M  V30 12287 C 1144.02 -1.91031 4.95662 0
M  V30 12288 C 1143.06 -1.26318 5.98924 0
M  V30 12289 N 1142.19 -2.27419 6.64248 0
M  V30 12290 H 1147.03 0.286048 2.96624 0
M  V30 12291 H 1144.57 0.152909 1.46303 0
M  V30 12292 H 1146.53 -2.11219 3.59781 0
M  V30 12293 H 1145.16 -2.09397 2.45668 0
M  V30 12294 H 1144.21 -0.0831588 3.80309 0
M  V30 12295 H 1145.52 -0.328285 4.97719 0
M  V30 12296 H 1144.68 -2.63272 5.46601 0
M  V30 12297 H 1143.42 -2.45649 4.21317 0
M  V30 12298 H 1142.42 -0.526246 5.47276 0
M  V30 12299 H 1143.65 -0.724324 6.75226 0
M  V30 12300 H 1141.59 -2.81114 5.92715 0
M  V30 12301 H 1141.51 -1.81071 7.33996 0
M  V30 12302 H 1142.78 -2.99139 7.19817 0
M  V30 12303 N 1147.01 -1.56678 0.170181 0
M  V30 12304 C 1148.25 -1.96024 -0.475147 0
M  V30 12305 C 1148.57 -1.0588 -1.64465 0
M  V30 12306 O 1149.77 -1.34901 -2.35614 0
M  V30 12307 C 1148.23 -3.4855 -0.896704 0
M  V30 12308 C 1147.84 -4.47318 0.247142 0
M  V30 12309 C 1149.58 -3.96716 -1.51052 0
M  V30 12310 C 1147.49 -5.91082 -0.193982 0
M  V30 12311 H 1146.42 -0.731883 -0.181282 0
M  V30 12312 H 1149.07 -1.81674 0.25823 0
M  V30 12313 H 1147.45 -3.58314 -1.68603 0
M  V30 12314 H 1148.63 -4.49268 1.02445 0
M  V30 12315 H 1146.94 -4.09203 0.770839 0
M  V30 12316 H 1149.54 -5.01581 -1.85258 0
M  V30 12317 H 1149.88 -3.39588 -2.40802 0
M  V30 12318 H 1150.41 -3.89965 -0.785652 0
M  V30 12319 H 1147.15 -6.5208 0.668714 0
M  V30 12320 H 1146.67 -5.92441 -0.936675 0
M  V30 12321 H 1148.35 -6.43844 -0.638237 0
M  V30 12322 N 1148.48 0.103547 -1.57259 0
M  V30 12323 C 1149.45 1.11039 -2.00507 0
M  V30 12324 C 1150.45 1.33432 -0.897361 0
M  V30 12325 O 1151.64 1.29688 -1.16304 0
M  V30 12326 C 1148.77 2.46144 -2.35851 0
M  V30 12327 H 1149.96 0.738332 -2.90669 0
M  V30 12328 H 1147.51 0.348334 -1.52369 0
M  V30 12329 H 1148.25 2.88242 -1.48617 0
M  V30 12330 H 1148.03 2.31241 -3.16654 0
M  V30 12331 H 1149.52 3.18577 -2.69997 0
M  V30 12332 N 1149.96 1.53094 0.37415 0
M  V30 12333 C 1151.38 1.42676 0.715246 0
M  V30 12334 C 1151.58 0.558992 1.93591 0
M  V30 12335 O 1150.63 0.0381328 2.52471 0
M  V30 12336 C 1151.95 2.85746 0.936459 0
M  V30 12337 C 1153.49 2.95322 1.03701 0
M  V30 12338 C 1153.97 4.39436 1.29075 0
M  V30 12339 N 1155.46 4.42826 1.35864 0
M  V30 12340 C 1156.2 5.51433 1.57191 0
M  V30 12341 N 1155.69 6.701 1.75891 0
M  V30 12342 N 1157.48 5.38998 1.59491 0
M  V30 12343 H 1149.64 2.08025 -0.428854 0
M  V30 12344 H 1151.9 0.939078 -0.129758 0
M  V30 12345 H 1151.6 3.51523 0.111448 0
M  V30 12346 H 1151.48 3.28887 1.84698 0
M  V30 12347 H 1153.87 2.29704 1.85257 0
M  V30 12348 H 1153.95 2.55588 0.104066 0
M  V30 12349 H 1153.59 5.05625 0.480231 0
M  V30 12350 H 1153.52 4.76735 2.23677 0
M  V30 12351 H 1156.01 3.57301 1.23061 0
M  V30 12352 H 1156.32 7.48643 1.91713 0
M  V30 12353 H 1154.67 6.73102 1.73086 0
M  V30 12354 H 1157.86 4.45257 1.44444 0
M  V30 12355 H 1158.03 6.23705 1.75771 0
M  V30 12356 N 1151.44 -0.633461 1.44309 0
M  V30 12357 C 1152.39 -1.74554 1.50995 0
M  V30 12358 C 1153.36 -1.62199 0.357873 0
M  V30 12359 O 1154.54 -1.82156 0.567787 0
M  V30 12360 C 1151.68 -3.12792 1.45791 0
M  V30 12361 C 1150.79 -3.3614 2.71356 0
M  V30 12362 C 1149.93 -4.64337 2.58002 0
M  V30 12363 C 1148.97 -4.80855 3.78741 0
M  V30 12364 N 1148.11 -6.00327 3.64077 0
M  V30 12365 H 1152.95 -1.68174 2.46011 0
M  V30 12366 H 1150.48 -0.820407 1.22097 0
M  V30 12367 H 1152.44 -3.92735 1.40765 0
M  V30 12368 H 1151.07 -3.18193 0.543445 0
M  V30 12369 H 1150.12 -2.50154 2.86579 0
M  V30 12370 H 1151.43 -3.44226 3.60985 0
M  V30 12371 H 1150.59 -5.52437 2.50795 0
M  V30 12372 H 1149.33 -4.58605 1.65929 0
M  V30 12373 H 1148.33 -3.91185 3.86334 0
M  V30 12374 H 1149.56 -4.88403 4.71847 0
M  V30 12375 H 1147.5 -5.9569 2.74754 0
M  V30 12376 H 1147.42 -6.09459 4.47321 0
M  V30 12377 H 1148.69 -6.90995 3.60758 0
M  V30 12378 N 1152.92 -1.31168 -0.873655 0
M  V30 12379 C 1153.83 -1.20458 -2.01313 0
M  V30 12380 C 1154.84 -0.122074 -1.73571 0
M  V30 12381 O 1156.02 -0.339176 -1.98523 0
M  V30 12382 C 1153.09 -0.90876 -3.34578 0
M  V30 12383 C 1152.15 -2.07779 -3.75668 0
M  V30 12384 C 1151.38 -1.79599 -5.02573 0
M  V30 12385 O 1151.6 -0.729338 -5.65718 0
M  V30 12386 O 1150.54 -2.65169 -5.40341 0
M  V30 12387 H 1154.36 -2.16207 -2.13279 0
M  V30 12388 H 1151.95 -1.10871 -1.00139 0
M  V30 12389 H 1153.83 -0.759469 -4.145 0
M  V30 12390 H 1152.5 0.0187249 -3.23695 0
M  V30 12391 H 1151.41 -2.28247 -2.96402 0
M  V30 12392 H 1152.74 -2.9874 -3.91172 0
M  V30 12393 N 1154.4 1.08748 -1.14068 0
M  V30 12394 C 1155.62 1.85353 -0.930532 0
M  V30 12395 C 1156.05 1.80892 0.515717 0
M  V30 12396 O 1155.4 1.19146 1.36652 0
M  V30 12397 C 1155.45 3.30962 -1.43167 0
M  V30 12398 O 1154.56 4.0769 -0.621468 0
M  V30 12399 H 1153.9 0.574485 -0.332962 0
M  V30 12400 H 1156.43 1.37282 -1.51707 0
M  V30 12401 H 1156.44 3.81807 -1.43832 0
M  V30 12402 H 1155.11 3.33524 -2.48464 0
M  V30 12403 H 1153.69 3.66587 -0.683267 0
M  V30 12404 N 1155.87 0.935264 1.26849 0
M  V30 12405 C 1156.8 0.457776 2.28969 0
M  V30 12406 C 1157.79 -0.48587 1.63013 0
M  V30 12407 O 1158.97 -0.388998 1.90264 0
M  V30 12408 C 1156.1 -0.283332 3.46142 0
M  V30 12409 C 1155.05 0.573196 4.24144 0
M  V30 12410 C 1154.38 -0.297525 5.33872 0
M  V30 12411 C 1155.68 1.84153 4.88759 0
M  V30 12412 H 1157.37 1.31125 2.69159 0
M  V30 12413 H 1154.92 0.631956 1.29392 0
M  V30 12414 H 1156.87 -0.628366 4.16689 0
M  V30 12415 H 1155.6 -1.1709 3.04889 0
M  V30 12416 H 1154.26 0.901043 3.55354 0
M  V30 12417 H 1153.9 -1.18427 4.8886 0
M  V30 12418 H 1153.6 0.272126 5.8697 0
M  V30 12419 H 1155.13 -0.637961 6.07258 0
M  V30 12420 H 1156.54 1.5641 5.51551 0
M  V30 12421 H 1154.94 2.35528 5.51948 0
M  V30 12422 H 1156.01 2.5565 4.12033 0
M  V30 12423 N 1157.35 -1.41121 0.701616 0
M  V30 12424 C 1158.26 -2.34565 0.0407815 0
M  V30 12425 C 1159.28 -1.56555 -0.75937 0
M  V30 12426 O 1160.45 -1.89008 -0.695542 0
M  V30 12427 C 1157.52 -3.35347 -0.879954 0
M  V30 12428 C 1156.58 -4.29241 -0.0713279 0
M  V30 12429 C 1155.81 -5.25209 -0.948211 0
M  V30 12430 O 1156.04 -5.26781 -2.18766 0
M  V30 12431 O 1154.97 -6.00605 -0.394657 0
M  V30 12432 H 1158.8 -2.92666 0.811188 0
M  V30 12433 H 1156.38 -1.42077 0.461991 0
M  V30 12434 H 1158.26 -3.9719 -1.40776 0
M  V30 12435 H 1156.94 -2.7968 -1.62975 0
M  V30 12436 H 1155.85 -3.70727 0.50122 0
M  V30 12437 H 1157.18 -4.88022 0.639935 0
M  V30 12438 N 1158.83 -0.446794 -1.51134 0
M  V30 12439 C 1159.78 0.374154 -2.29571 0
M  V30 12440 C 1160.77 1.01241 -1.35818 0
M  V30 12441 O 1161.98 0.946293 -1.53119 0
M  V30 12442 H 1158.35 0.13948 -0.738951 0
M  V30 12443 H 1160.32 -0.308117 -2.96805 0
M  V30 12444 C 1159.07 1.45754 -3.15675 0
M  V30 12445 H 1158.4 0.975787 -3.87709 0
M  V30 12446 H 1159.84 2.00502 -3.73597 0
M  V30 12447 C 1158.3 2.44606 -2.31667 0
M  V30 12448 O 1158.83 3.49352 -1.98284 0
M  V30 12449 N 1157.03 2.15725 -1.94708 0
M  V30 12450 H 1156.58 1.30572 -2.22056 0
M  V30 12451 H 1156.54 2.82103 -1.38798 0
M  V30 12452 N 1160.31 1.56586 -0.178487 0
M  V30 12453 C 1161.26 2.18309 0.74899 0
M  V30 12454 C 1162.23 1.12525 1.22178 0
M  V30 12455 O 1163.41 1.40706 1.28866 0
M  V30 12456 C 1160.55 2.83353 1.9699 0
M  V30 12457 C 1159.66 4.03618 1.54002 0
M  V30 12458 C 1158.8 4.56567 2.71514 0
M  V30 12459 C 1157.84 5.69226 2.25051 0
M  V30 12460 N 1156.97 6.16654 3.35682 0
M  V30 12461 H 1161.81 2.97217 0.21587 0
M  V30 12462 H 1159.35 1.46794 0.0948182 0
M  V30 12463 H 1161.31 3.19226 2.68609 0
M  V30 12464 H 1159.94 2.07037 2.4766 0
M  V30 12465 H 1158.99 3.73518 0.720298 0
M  V30 12466 H 1160.3 4.85148 1.15901 0
M  V30 12467 H 1159.46 4.94659 3.5128 0
M  V30 12468 H 1158.2 3.7411 3.12879 0
M  V30 12469 H 1157.2 5.30679 1.43734 0
M  V30 12470 H 1158.43 6.5349 1.84736 0
M  V30 12471 H 1156.37 5.37124 3.76609 0
M  V30 12472 H 1156.29 6.93192 3.01697 0
M  V30 12473 H 1157.56 6.59397 4.15711 0
M  V30 12474 N 1161.79 -0.095206 1.57312 0
M  V30 12475 C 1162.73 -1.11551 2.02052 0
M  V30 12476 C 1163.7 -1.39808 0.896818 0
M  V30 12477 O 1164.89 -1.51273 1.1628 0
M  V30 12478 C 1162.03 -2.43056 2.44985 0
M  V30 12479 C 1161.14 -2.21531 3.70875 0
M  V30 12480 C 1160.28 -3.46434 4.02687 0
M  V30 12481 C 1159.32 -3.2017 5.21687 0
M  V30 12482 N 1158.45 -4.37339 5.49253 0
M  V30 12483 H 1163.29 -0.727 2.88996 0
M  V30 12484 H 1160.83 -0.347441 1.42938 0
M  V30 12485 H 1162.79 -3.19803 2.67921 0
M  V30 12486 H 1161.42 -2.79754 1.61051 0
M  V30 12487 H 1160.47 -1.35587 3.55416 0
M  V30 12488 H 1161.78 -1.98116 4.57768 0
M  V30 12489 H 1160.94 -4.31589 4.26399 0
M  V30 12490 H 1159.67 -3.72904 3.14315 0
M  V30 12491 H 1158.68 -2.33409 4.97796 0
M  V30 12492 H 1159.9 -2.95047 6.11657 0
M  V30 12493 H 1157.85 -4.63885 4.6384 0
M  V30 12494 H 1157.77 -4.17114 6.30517 0
M  V30 12495 H 1159.04 -5.23559 5.775 0
M  V30 12496 N 1163.26 -1.53291 -0.366026 0
M  V30 12497 C 1164.21 -1.80367 -1.4687 0
M  V30 12498 C 1165.21 -0.672767 -1.55468 0
M  V30 12499 O 1166.41 -0.8557 -1.5836 0
M  V30 12500 H 1162.79 -0.571076 -0.48926 0
M  V30 12501 H 1164.76 -2.72661 -1.21237 0
M  V30 12502 C 1163.51 -2.01008 -2.8371 0
M  V30 12503 H 1162.83 -2.87468 -2.77853 0
M  V30 12504 H 1164.27 -2.2393 -3.60043 0
M  V30 12505 C 1162.73 -0.789054 -3.27529 0
M  V30 12506 O 1163.26 0.0224712 -4.01694 0
M  V30 12507 N 1161.47 -0.612621 -2.84069 0
M  V30 12508 H 1161.01 -1.27416 -2.23881 0
M  V30 12509 H 1160.97 0.202943 -3.13744 0
M  V30 12510 N 1164.74 0.6258 -1.44643 0
M  V30 12511 C 1165.69 1.75869 -1.52226 0
M  V30 12512 C 1166.68 1.64765 -0.39355 0
M  V30 12513 O 1167.89 1.70779 -0.568718 0
M  V30 12514 H 1164.27 0.580712 -0.477784 0
M  V30 12515 H 1166.24 1.66596 -2.47565 0
M  V30 12516 C 1164.99 3.14217 -1.48873 0
M  V30 12517 H 1164.31 3.23411 -2.35043 0
M  V30 12518 H 1165.75 3.93365 -1.58239 0
M  V30 12519 C 1164.21 3.36243 -0.210299 0
M  V30 12520 O 1164.74 3.95243 0.717335 0
M  V30 12521 N 1162.94 2.90385 -0.111744 0
M  V30 12522 H 1162.49 2.42555 -0.867466 0
M  V30 12523 H 1162.45 3.05498 0.742871 0
M  V30 12524 N 1166.22 1.31629 0.866686 0
M  V30 12525 C 1167.17 1.19556 1.97421 0
M  V30 12526 C 1168.14 0.0805578 1.65905 0
M  V30 12527 O 1169.32 0.253997 1.89102 0
M  V30 12528 C 1166.46 0.912234 3.32825 0
M  V30 12529 C 1165.58 2.11088 3.76916 0
M  V30 12530 C 1164.71 1.76406 5.01053 0
M  V30 12531 C 1163.75 2.9266 5.37602 0
M  V30 12532 N 1162.89 2.58152 6.52918 0
M  V30 12533 H 1167.73 2.14294 2.0708 0
M  V30 12534 H 1165.26 1.06595 1.0137 0
M  V30 12535 H 1167.22 0.72851 4.1079 0
M  V30 12536 H 1165.85 0.00167404 3.228 0
M  V30 12537 H 1164.9 2.40527 2.94705 0
M  V30 12538 H 1166.22 2.98089 3.99931 0
M  V30 12539 H 1165.37 1.54515 5.86694 0
M  V30 12540 H 1164.11 0.866018 4.79949 0
M  V30 12541 H 1163.11 3.15196 4.50479 0
M  V30 12542 H 1164.34 3.83179 5.6067 0
M  V30 12543 H 1162.28 1.70874 6.33355 0
M  V30 12544 H 1162.2 3.38682 6.75892 0
M  V30 12545 H 1163.47 2.39662 7.41743 0
M  V30 12546 N 1167.7 -1.08142 1.14644 0
M  V30 12547 C 1169.11 -1.62061 0.926986 0
M  V30 12548 C 1169.46 -1.88805 -0.533578 0
M  V30 12549 O 1168.59 -1.64753 -1.40305 0
M  V30 12550 C 1169.18 -2.94425 1.67629 0
M  V30 12551 C 1167.74 -3.45118 1.50235 0
M  V30 12552 C 1166.89 -2.19307 1.69705 0
M  V30 12553 H 1169.84 -0.913326 1.29785 0
M  V30 12554 H 1169.86 -3.62987 1.14107 0
M  V30 12555 H 1169.37 -2.74928 2.73927 0
M  V30 12556 H 1167.47 -3.69713 0.462967 0
M  V30 12557 H 1167.59 -4.2169 2.27408 0
M  V30 12558 H 1165.95 -2.28611 1.12291 0
M  V30 12559 H 1166.73 -2.02315 2.77351 0
M  V30 12560 N 1169.18 -0.941978 -1.26351 0
M  V30 12561 C 1170.09 -0.45833 -2.30079 0
M  V30 12562 C 1171.1 0.468084 -1.67586 0
M  V30 12563 O 1172.28 0.347418 -1.98381 0
M  V30 12564 C 1169.34 0.26797 -3.45663 0
M  V30 12565 C 1168.41 -0.695102 -4.23635 0
M  V30 12566 C 1167.64 -0.003369 -5.337 0
M  V30 12567 O 1167.86 1.21342 -5.57344 0
M  V30 12568 O 1166.8 -0.682476 -5.98018 0
M  V30 12569 H 1170.62 -1.31998 -2.73514 0
M  V30 12570 H 1168.21 -0.707897 -1.31564 0
M  V30 12571 H 1170.09 0.677061 -4.15925 0
M  V30 12572 H 1168.76 1.105 -3.04256 0
M  V30 12573 H 1167.67 -1.15415 -3.55851 0
M  V30 12574 H 1169 -1.49977 -4.68794 0
M  V30 12575 N 1170.66 1.40747 -0.709091 0
M  V30 12576 C 1171.9 2.013 -0.246174 0
M  V30 12577 C 1172.23 1.56078 1.15556 0
M  V30 12578 O 1171.51 0.777941 1.78265 0
M  V30 12579 C 1171.79 3.58685 -0.318945 0
M  V30 12580 C 1171.65 4.13997 -1.75859 0
M  V30 12581 C 1172.96 4.38981 0.31358 0
M  V30 12582 H 1170.08 0.73137 -0.0909255 0
M  V30 12583 H 1172.73 1.67312 -0.900365 0
M  V30 12584 H 1170.88 3.8777 0.23805 0
M  V30 12585 H 1172.55 3.95735 -2.37047 0
M  V30 12586 H 1170.79 3.6853 -2.28841 0
M  V30 12587 H 1171.46 5.23158 -1.76095 0
M  V30 12588 H 1173.94 4.15789 -0.160939 0
M  V30 12589 H 1172.81 5.48409 0.232184 0
M  V30 12590 H 1173.07 4.19474 1.39621 0
M  V30 12591 N 1172.13 0.454803 1.50895 0
M  V30 12592 C 1173.08 -0.361974 2.29766 0
M  V30 12593 C 1174.08 -1.00519 1.36353 0
M  V30 12594 O 1175.28 -0.938159 1.53618 0
M  V30 12595 H 1171.66 -0.135559 0.739681 0
M  V30 12596 H 1173.63 0.323853 2.96637 0
M  V30 12597 C 1172.38 -1.44078 3.16444 0
M  V30 12598 H 1171.7 -0.955212 3.88221 0
M  V30 12599 H 1173.14 -1.98518 3.74655 0
M  V30 12600 C 1171.6 -2.43374 2.32961 0
M  V30 12601 O 1172.13 -3.48295 2.00133 0
M  V30 12602 N 1170.33 -2.14689 1.95849 0
M  V30 12603 H 1169.88 -1.29392 2.22745 0
M  V30 12604 H 1169.84 -2.81363 1.40292 0
M  V30 12605 N 1173.61 -1.56489 0.186789 0
M  V30 12606 C 1174.54 -2.15911 -0.769104 0
M  V30 12607 C 1175.56 -1.11872 -1.18273 0
M  V30 12608 O 1176.75 -1.38999 -1.1199 0
M  V30 12609 C 1173.85 -2.69957 -2.04882 0
M  V30 12610 C 1173.02 -3.98812 -1.79631 0
M  V30 12611 C 1172.08 -4.37767 -2.9197 0
M  V30 12612 O 1171.1 -5.0535 -2.61935 0
M  V30 12613 N 1172.31 -4.0059 -4.20128 0
M  V30 12614 H 1175.07 -2.98561 -0.261007 0
M  V30 12615 H 1172.63 -1.61899 0.00453357 0
M  V30 12616 H 1174.62 -2.93006 -2.79158 0
M  V30 12617 H 1173.19 -1.91808 -2.46837 0
M  V30 12618 H 1172.41 -3.8398 -0.891776 0
M  V30 12619 H 1173.7 -4.82939 -1.60148 0
M  V30 12620 H 1173.1 -3.46213 -4.47385 0
M  V30 12621 H 1171.66 -4.28608 -4.91059 0
M  V30 12622 N 1175.09 0.086862 -1.5736 0
M  V30 12623 C 1176.34 0.787581 -1.85688 0
M  V30 12624 C 1176.65 1.79494 -0.777263 0
M  V30 12625 O 1177.86 2.54415 -0.947914 0
M  V30 12626 C 1176.31 1.45155 -3.2933 0
M  V30 12627 C 1175.92 0.483539 -4.45383 0
M  V30 12628 C 1177.67 2.13552 -3.66873 0
M  V30 12629 C 1175.57 1.15257 -5.8006 0
M  V30 12630 H 1174.5 0.297882 -0.692663 0
M  V30 12631 H 1177.15 0.0406299 -1.83455 0
M  V30 12632 H 1175.54 2.24625 -3.26128 0
M  V30 12633 H 1176.71 -0.280254 -4.59947 0
M  V30 12634 H 1175.02 -0.0951664 -4.16291 0
M  V30 12635 H 1177.62 2.64355 -4.6478 0
M  V30 12636 H 1177.96 2.92818 -2.95911 0
M  V30 12637 H 1178.5 1.40932 -3.71999 0
M  V30 12638 H 1175.24 0.400546 -6.54275 0
M  V30 12639 H 1174.76 1.88759 -5.69324 0
M  V30 12640 H 1176.44 1.67671 -6.24896 0
M  V30 12641 N 1176.57 1.53483 0.357892 0
M  V30 12642 C 1177.53 1.79782 1.42166 0
M  V30 12643 C 1178.53 0.668441 1.46248 0
M  V30 12644 O 1179.72 0.936677 1.46874 0
M  V30 12645 C 1176.85 1.92686 2.8122 0
M  V30 12646 H 1178.05 2.74794 1.20117 0
M  V30 12647 H 1175.6 1.44677 0.591468 0
M  V30 12648 H 1176.33 0.997669 3.08573 0
M  V30 12649 H 1176.12 2.74837 2.79655 0
M  V30 12650 H 1177.61 2.14599 3.58242 0
M  V30 12651 N 1178.05 -0.61812 1.44973 0
M  V30 12652 C 1178.99 -1.75059 1.53157 0
M  V30 12653 C 1179.99 -1.64554 0.402282 0
M  V30 12654 O 1181.19 -1.70475 0.577767 0
M  V30 12655 H 1177.57 -0.57817 0.480856 0
M  V30 12656 H 1179.54 -1.65281 2.48445 0
M  V30 12657 C 1178.29 -3.13423 1.50538 0
M  V30 12658 H 1177.61 -3.2216 2.36755 0
M  V30 12659 H 1179.05 -3.92521 1.60323 0
M  V30 12660 C 1177.51 -3.36127 0.228127 0
M  V30 12661 O 1178.04 -3.95618 -0.696364 0
M  V30 12662 N 1176.25 -2.90322 0.127142 0
M  V30 12663 H 1175.79 -2.42091 0.880317 0
M  V30 12664 H 1175.75 -3.05887 -0.726659 0
M  V30 12665 N 1179.52 -1.32087 -0.859693 0
M  V30 12666 C 1180.75 -1.25486 -1.6513 0
M  V30 12667 C 1181.17 0.175015 -1.87284 0
M  V30 12668 O 1180.53 1.12468 -1.42199 0
M  V30 12669 C 1180.58 -2.01469 -2.9907 0
M  V30 12670 O 1179.68 -1.35904 -3.89363 0
M  V30 12671 H 1179.02 -0.432728 -0.503629 0
M  V30 12672 H 1181.55 -1.74322 -1.07112 0
M  V30 12673 H 1181.56 -2.11452 -3.4893 0
M  V30 12674 H 1180.24 -3.05448 -2.82266 0
M  V30 12675 H 1178.82 -1.34437 -3.47823 0
M  V30 12676 N 1181 1.07532 -1.15215 0
M  V30 12677 C 1182.28 1.76813 -0.83646 0
M  V30 12678 C 1182.66 2.00242 0.6683 0
M  V30 12679 O 1182.01 1.61941 1.61206 0
M  V30 12680 C 1182.22 3.0779 -1.64519 0
M  V30 12681 C 1183.56 3.82168 -1.85022 0
M  V30 12682 O 1184.59 3.17596 -1.61279 0
M  V30 12683 O 1183.45 4.98135 -2.24775 0
M  V30 12684 H 1180.54 0.767736 -0.307426 0
M  V30 12685 H 1183.09 1.13914 -1.25784 0
M  V30 12686 H 1181.86 2.86342 -2.6669 0
M  V30 12687 H 1181.48 3.78419 -1.22002 0
M  V30 12688 N 1182.48 0.948665 1.2585 0
M  V30 12689 C 1183.43 0.455115 2.28104 0
M  V30 12690 C 1184.42 -0.471508 1.62706 0
M  V30 12691 O 1185.63 -0.348895 1.76586 0
M  V30 12692 H 1182 0.128659 0.740912 0
M  V30 12693 H 1183.97 1.32991 2.67125 0
M  V30 12694 C 1182.72 -0.25729 3.46747 0
M  V30 12695 H 1182.05 0.44658 3.97298 0
M  V30 12696 H 1183.49 -0.566736 4.20195 0
M  V30 12697 C 1181.95 -1.47772 3.02762 0
M  V30 12698 O 1182.48 -2.57571 3.08253 0
M  V30 12699 N 1180.68 -1.33694 2.5802 0
M  V30 12700 H 1180.23 -0.443595 2.53752 0
M  V30 12701 H 1180.19 -2.1547 2.28954 0
M  V30 12702 N 1183.96 -1.40369 0.716545 0
M  V30 12703 C 1184.91 -2.3071 0.0645944 0
M  V30 12704 C 1185.88 -1.48239 -0.749294 0
M  V30 12705 O 1187.06 -1.76975 -0.713045 0
M  V30 12706 C 1184.2 -3.34456 -0.850478 0
M  V30 12707 C 1183.31 -4.31992 -0.0259594 0
M  V30 12708 C 1182.45 -5.22806 -0.940599 0
M  V30 12709 C 1181.49 -6.12001 -0.110228 0
M  V30 12710 N 1180.62 -6.9523 -0.979796 0
M  V30 12711 H 1185.46 -2.85896 0.840682 0
M  V30 12712 H 1183 -1.40789 0.426258 0
M  V30 12713 H 1184.96 -3.93177 -1.39528 0
M  V30 12714 H 1183.59 -2.8077 -1.59274 0
M  V30 12715 H 1182.64 -3.75045 0.636036 0
M  V30 12716 H 1183.95 -4.94971 0.616883 0
M  V30 12717 H 1183.11 -5.86463 -1.5539 0
M  V30 12718 H 1181.85 -4.60104 -1.61726 0
M  V30 12719 H 1180.85 -5.47373 0.516001 0
M  V30 12720 H 1182.08 -6.76763 0.562944 0
M  V30 12721 H 1180.02 -6.35115 -1.64209 0
M  V30 12722 H 1179.94 -7.54978 -0.393012 0
M  V30 12723 H 1181.21 -7.63335 -1.57924 0
M  V30 12724 N 1185.44 -0.462799 -1.50652 0
M  V30 12725 C 1186.68 0.0951853 -2.02576 0
M  V30 12726 C 1187.02 1.40113 -1.34469 0
M  V30 12727 O 1186.29 1.88793 -0.467702 0
M  V30 12728 C 1186.57 0.287603 -3.5895 0
M  V30 12729 C 1186.43 -1.03878 -4.37641 0
M  V30 12730 C 1187.75 1.04593 -4.27491 0
M  V30 12731 H 1184.86 0.0331191 -0.736255 0
M  V30 12732 H 1187.51 -0.606772 -1.80051 0
M  V30 12733 H 1185.66 0.885514 -3.78274 0
M  V30 12734 H 1187.33 -1.67263 -4.29908 0
M  V30 12735 H 1185.57 -1.6374 -4.01711 0
M  V30 12736 H 1186.24 -0.857889 -5.45293 0
M  V30 12737 H 1188.72 0.539213 -4.12591 0
M  V30 12738 H 1187.59 1.14935 -5.36732 0
M  V30 12739 H 1187.86 2.08045 -3.90089 0
M  V30 12740 N 1186.91 1.56388 -0.195085 0
M  V30 12741 C 1188.14 2.01963 0.449289 0
M  V30 12742 C 1188.56 1.07522 1.55192 0
M  V30 12743 O 1187.91 0.0800915 1.82324 0
M  V30 12744 C 1187.97 3.47231 1.00561 0
M  V30 12745 O 1187.69 4.38068 -0.0530241 0
M  V30 12746 C 1189.19 4.08324 1.72587 0
M  V30 12747 H 1186.41 0.661452 0.112792 0
M  V30 12748 H 1188.95 2.02231 -0.303788 0
M  V30 12749 H 1187.11 3.47663 1.70907 0
M  V30 12750 H 1187.52 5.23256 0.361076 0
M  V30 12751 H 1188.99 5.11821 2.06744 0
M  V30 12752 H 1189.47 3.51782 2.62956 0
M  V30 12753 H 1190.08 4.11665 1.06826 0
M  V30 12754 N 1188.39 -0.0785156 1.57404 0
M  V30 12755 C 1189.64 -0.777722 1.86103 0
M  V30 12756 C 1189.95 -1.79079 0.786771 0
M  V30 12757 O 1191.16 -2.53908 0.961393 0
M  V30 12758 C 1189.62 -1.43407 3.30095 0
M  V30 12759 C 1189.22 -0.459912 4.45633 0
M  V30 12760 C 1190.97 -2.11603 3.68 0
M  V30 12761 C 1188.88 -1.12179 5.80663 0
M  V30 12762 H 1187.81 -0.294205 0.694233 0
M  V30 12763 H 1190.46 -0.0309003 1.83474 0
M  V30 12764 H 1188.84 -2.22892 3.27315 0
M  V30 12765 H 1190.01 0.304642 4.59792 0
M  V30 12766 H 1188.33 0.117242 4.16235 0
M  V30 12767 H 1190.92 -2.61887 4.66175 0
M  V30 12768 H 1191.27 -2.91244 2.9746 0
M  V30 12769 H 1191.8 -1.38958 3.72741 0
M  V30 12770 H 1188.54 -0.365842 6.54478 0
M  V30 12771 H 1188.06 -1.85737 5.70317 0
M  V30 12772 H 1189.74 -1.64355 6.25777 0
M  V30 12773 N 1189.87 -1.5367 -0.349747 0
M  V30 12774 C 1191.15 -1.61238 -1.10732 0
M  V30 12775 C 1191.53 -0.429756 -2.06679 0
M  V30 12776 O 1190.88 0.578564 -2.21054 0
M  V30 12777 C 1191.09 -2.97022 -1.83245 0
M  V30 12778 C 1192.43 -3.52158 -2.37212 0
M  V30 12779 O 1193.46 -2.99156 -1.9335 0
M  V30 12780 O 1192.32 -4.44853 -3.1744 0
M  V30 12781 H 1189.41 -0.65191 -0.508864 0
M  V30 12782 H 1191.96 -1.66015 -0.351738 0
M  V30 12783 H 1190.73 -3.74535 -1.13311 0
M  V30 12784 H 1190.35 -2.95808 -2.65675 0
M  V30 12785 N 1191.35 0.610423 -1.45298 0
M  V30 12786 C 1192.63 1.36966 -1.39641 0
M  V30 12787 C 1193.01 2.10998 -0.0655757 0
M  V30 12788 O 1192.35 2.07705 0.952407 0
M  V30 12789 C 1192.56 2.31885 -2.60826 0
M  V30 12790 C 1193.91 2.9458 -3.05791 0
M  V30 12791 O 1194.94 2.42207 -2.61179 0
M  V30 12792 O 1193.79 3.89639 -3.83202 0
M  V30 12793 H 1190.89 0.61401 -0.554004 0
M  V30 12794 H 1193.43 0.633748 -1.57422 0
M  V30 12795 H 1192.21 1.76421 -3.49272 0
M  V30 12796 H 1191.83 3.12861 -2.45364 0
M  V30 12797 N 1192.83 1.32541 0.852676 0
M  V30 12798 C 1194.06 1.26037 1.63702 0
M  V30 12799 C 1194.46 -0.173583 1.88402 0
M  V30 12800 O 1193.81 -1.12175 1.45473 0
M  V30 12801 C 1193.87 1.95245 3.01861 0
M  V30 12802 C 1193.53 3.44576 3.00193 0
M  V30 12803 C 1194.53 4.40026 2.76899 0
M  V30 12804 C 1192.22 3.86541 3.20766 0
M  V30 12805 C 1194.21 5.75414 2.74185 0
M  V30 12806 C 1191.9 5.22038 3.17678 0
M  V30 12807 C 1192.89 6.16286 2.94416 0
M  V30 12808 O 1192.58 7.49303 2.91206 0
M  V30 12809 H 1192.31 0.436073 0.516543 0
M  V30 12810 H 1194.87 1.75251 1.07127 0
M  V30 12811 H 1193.1 1.40603 3.60233 0
M  V30 12812 H 1194.79 1.82423 3.62597 0
M  V30 12813 H 1195.55 4.0893 2.6077 0
M  V30 12814 H 1191.43 3.13603 3.37897 0
M  V30 12815 H 1194.98 6.4895 2.55947 0
M  V30 12816 H 1190.87 5.52762 3.33353 0
M  V30 12817 H 1191.64 7.58686 3.07146 0
M  V30 12818 N 1194.3 -1.0692 1.15784 0
M  V30 12819 C 1195.72 -1.31707 0.901408 0
M  V30 12820 C 1195.92 -1.96429 -0.449203 0
M  V30 12821 O 1194.98 -2.22692 -1.19015 0
M  V30 12822 C 1196.29 -2.20391 2.04568 0
M  V30 12823 C 1197.84 -2.33827 2.08072 0
M  V30 12824 C 1198.31 -3.25862 3.21835 0
M  V30 12825 N 1199.8 -3.33444 3.21511 0
M  V30 12826 C 1200.54 -4.04731 4.06177 0
M  V30 12827 N 1200.03 -4.78596 5.00917 0
M  V30 12828 N 1201.83 -4.00717 3.94185 0
M  V30 12829 H 1193.98 -0.632989 2.02749 0
M  V30 12830 H 1196.24 -0.341587 0.88432 0
M  V30 12831 H 1195.95 -1.80102 3.02087 0
M  V30 12832 H 1195.82 -3.20943 1.9818 0
M  V30 12833 H 1198.21 -2.73367 1.11151 0
M  V30 12834 H 1198.29 -1.32964 2.18527 0
M  V30 12835 H 1197.93 -2.8704 4.19012 0
M  V30 12836 H 1197.86 -4.26689 3.08617 0
M  V30 12837 H 1200.35 -2.80798 2.52905 0
M  V30 12838 H 1200.67 -5.30499 5.61952 0
M  V30 12839 H 1199.01 -4.77598 5.04902 0
M  V30 12840 H 1202.2 -3.42126 3.1948 0
M  V30 12841 H 1202.38 -4.56008 4.60392 0
M  V30 12842 N 1195.78 -0.955326 -1.25345 0
M  V30 12843 C 1196.69 -0.482707 -2.2958 0
M  V30 12844 C 1197.71 0.450283 -1.68073 0
M  V30 12845 O 1198.88 0.326358 -1.98738 0
M  V30 12846 C 1195.95 0.231293 -3.45928 0
M  V30 12847 C 1195.01 -0.739995 -4.22874 0
M  V30 12848 C 1194.24 -0.0599748 -5.33666 0
M  V30 12849 O 1194.47 1.15423 -5.586 0
M  V30 12850 O 1193.4 -0.745865 -5.97261 0
M  V30 12851 H 1197.23 -1.34892 -2.72099 0
M  V30 12852 H 1194.81 -0.721812 -1.30806 0
M  V30 12853 H 1196.69 0.632908 -4.1662 0
M  V30 12854 H 1195.37 1.07267 -3.0541 0
M  V30 12855 H 1194.28 -1.19183 -3.54607 0
M  V30 12856 H 1195.61 -1.54941 -4.67177 0
M  V30 12857 N 1197.26 1.39987 -0.723979 0
M  V30 12858 C 1198.17 2.3447 -0.0780936 0
M  V30 12859 C 1199.19 1.57744 0.734368 0
M  V30 12860 O 1200.36 1.90091 0.665385 0
M  V30 12861 C 1197.43 3.36705 0.826492 0
M  V30 12862 C 1196.49 4.293 0.00303036 0
M  V30 12863 C 1195.72 5.26651 0.864535 0
M  V30 12864 O 1195.95 5.30194 2.10357 0
M  V30 12865 O 1194.88 6.01157 0.299057 0
M  V30 12866 H 1198.71 2.91338 -0.857646 0
M  V30 12867 H 1196.29 1.41324 -0.484536 0
M  V30 12868 H 1198.17 3.9938 1.34439 0
M  V30 12869 H 1196.85 2.82237 1.58505 0
M  V30 12870 H 1195.75 3.69883 -0.560136 0
M  V30 12871 H 1197.09 4.86942 -0.717494 0
M  V30 12872 N 1198.74 0.470782 1.50404 0
M  V30 12873 C 1200.02 -0.145879 1.95055 0
M  V30 12874 C 1200.4 -1.57004 1.41114 0
M  V30 12875 O 1199.74 -2.20152 0.612006 0
M  V30 12876 C 1199.95 -0.0895071 3.48885 0
M  V30 12877 C 1201.3 -0.278548 4.23685 0
M  V30 12878 O 1202.33 -0.166105 3.55812 0
M  V30 12879 O 1201.19 -0.505606 5.44156 0
M  V30 12880 H 1198.28 -0.111838 0.819403 0
M  V30 12881 H 1200.83 0.531162 1.61173 0
M  V30 12882 H 1199.6 0.904836 3.80695 0
M  V30 12883 H 1199.22 -0.808019 3.89303 0
M  V30 12884 N 1200.22 -1.56282 0.203376 0
M  V30 12885 C 1201.13 -2.23086 -0.725922 0
M  V30 12886 C 1202.14 -1.23258 -1.22814 0
M  V30 12887 O 1203.32 -1.5602 -1.27357 0
M  V30 12888 C 1200.38 -2.88358 -1.92485 0
M  V30 12889 C 1199.45 -4.03479 -1.46639 0
M  V30 12890 C 1198.68 -4.65629 -2.60816 0
M  V30 12891 O 1198.9 -4.2672 -3.78506 0
M  V30 12892 O 1197.84 -5.54949 -2.33056 0
M  V30 12893 H 1201.66 -3.03124 -0.18694 0
M  V30 12894 H 1199.25 -1.49377 -0.0262829 0
M  V30 12895 H 1201.13 -3.29623 -2.62539 0
M  V30 12896 H 1199.8 -2.11294 -2.45228 0
M  V30 12897 H 1198.71 -3.66821 -0.734396 0
M  V30 12898 H 1200.04 -4.82232 -0.985535 0
M  V30 12899 N 1201.7 0.070167 -1.57444 0
M  V30 12900 C 1202.97 0.802108 -1.78397 0
M  V30 12901 C 1203.35 1.95706 -0.791356 0
M  V30 12902 O 1202.7 2.27827 0.17518 0
M  V30 12903 C 1202.91 1.27354 -3.24934 0
M  V30 12904 C 1204.26 1.70626 -3.88808 0
M  V30 12905 O 1205.28 1.36916 -3.28835 0
M  V30 12906 O 1204.14 2.33041 -4.94322 0
M  V30 12907 H 1201.24 0.384483 -0.73219 0
M  V30 12908 H 1203.78 0.0501168 -1.69626 0
M  V30 12909 H 1202.55 0.447204 -3.88736 0
M  V30 12910 H 1202.18 2.0868 -3.38435 0
M  V30 12911 N 1203.17 1.53854 0.341593 0
M  V30 12912 C 1204.12 1.81979 1.41959 0
M  V30 12913 C 1205.09 0.665616 1.5218 0
M  V30 12914 O 1206.28 0.910246 1.67688 0
M  V30 12915 C 1203.42 2.03681 2.78583 0
M  V30 12916 C 1202.53 3.31389 2.77137 0
M  V30 12917 C 1201.66 3.43148 4.05491 0
M  V30 12918 C 1200.7 4.64799 3.98282 0
M  V30 12919 N 1199.84 4.73581 5.18329 0
M  V30 12920 H 1204.68 2.73953 1.17275 0
M  V30 12921 H 1202.22 1.35689 0.568062 0
M  V30 12922 H 1204.17 2.14253 3.57983 0
M  V30 12923 H 1202.8 1.15017 3.01614 0
M  V30 12924 H 1201.86 3.29649 1.89832 0
M  V30 12925 H 1203.17 4.20885 2.67689 0
M  V30 12926 H 1202.32 3.53163 4.93316 0
M  V30 12927 H 1201.06 2.51712 4.17723 0
M  V30 12928 H 1200.07 4.54859 3.08842 0
M  V30 12929 H 1201.29 5.57601 3.87631 0
M  V30 12930 H 1199.24 3.85055 5.31102 0
M  V30 12931 H 1199.15 5.57016 5.11145 0
M  V30 12932 H 1200.42 4.87908 6.0792 0
M  V30 12933 N 1204.65 -0.602709 1.4562 0
M  V30 12934 C 1205.93 -1.36224 1.40366 0
M  V30 12935 C 1206.31 -2.1096 0.0767645 0
M  V30 12936 O 1205.66 -2.08207 -0.941378 0
M  V30 12937 C 1205.87 -2.30499 2.62052 0
M  V30 12938 C 1207.21 -2.92954 3.07348 0
M  V30 12939 O 1208.24 -2.40818 2.62459 0
M  V30 12940 O 1207.1 -3.87601 3.85263 0
M  V30 12941 H 1204.19 -0.611064 0.557253 0
M  V30 12942 H 1206.74 -0.625391 1.57756 0
M  V30 12943 H 1205.51 -1.74566 3.50203 0
M  V30 12944 H 1205.13 -3.11556 2.4702 0
M  V30 12945 N 1206.13 -1.32992 -0.845635 0
M  V30 12946 C 1207.54 -1.21616 -1.41656 0
M  V30 12947 C 1207.89 0.167687 -1.95482 0
M  V30 12948 O 1207.02 1.06692 -1.8827 0
M  V30 12949 C 1207.61 -2.2018 -2.575 0
M  V30 12950 C 1206.17 -2.12664 -3.10565 0
M  V30 12951 C 1205.32 -2.08042 -1.83341 0
M  V30 12952 H 1208.27 -1.44688 -0.651993 0
M  V30 12953 H 1208.29 -1.80558 -3.34931 0
M  V30 12954 H 1207.8 -3.20888 -2.18294 0
M  V30 12955 H 1205.9 -1.15235 -3.54333 0
M  V30 12956 H 1206.02 -3.02902 -3.71197 0
M  V30 12957 H 1204.38 -1.53416 -2.03312 0
M  V30 12958 H 1205.16 -3.10547 -1.46339 0
M  V30 12959 N 1207.61 1.06304 -1.1635 0
M  V30 12960 C 1208.84 1.82534 -0.967725 0
M  V30 12961 C 1209.25 1.82816 0.487338 0
M  V30 12962 O 1208.59 1.24581 1.35001 0
M  V30 12963 C 1208.65 3.30349 -1.4181 0
M  V30 12964 C 1208.31 3.53769 -2.89303 0
M  V30 12965 C 1209.31 3.46826 -3.87308 0
M  V30 12966 C 1207 3.81094 -3.2722 0
M  V30 12967 C 1208.99 3.66874 -5.21232 0
M  V30 12968 C 1206.68 4.00792 -4.61313 0
M  V30 12969 C 1207.68 3.93679 -5.58127 0
M  V30 12970 O 1207.36 4.12839 -6.89796 0
M  V30 12971 H 1207.1 0.582407 -0.343189 0
M  V30 12972 H 1209.65 1.35022 -1.54784 0
M  V30 12973 H 1207.88 3.78722 -0.781456 0
M  V30 12974 H 1209.57 3.88072 -1.18976 0
M  V30 12975 H 1210.33 3.25706 -3.59361 0
M  V30 12976 H 1206.21 3.85739 -2.5244 0
M  V30 12977 H 1209.76 3.61238 -5.96786 0
M  V30 12978 H 1205.65 4.214 -4.8897 0
M  V30 12979 H 1206.42 4.30128 -6.96371 0
M  V30 12980 N 1209.09 0.96196 1.24836 0
M  V30 12981 C 1210.5 0.660388 1.7463 0
M  V30 12982 C 1210.85 -0.824064 1.78055 0
M  V30 12983 O 1209.97 -1.64485 1.40619 0
M  V30 12984 C 1210.57 1.19205 3.17137 0
M  V30 12985 C 1209.13 0.940493 3.64461 0
M  V30 12986 C 1208.27 1.33076 2.43282 0
M  V30 12987 H 1211.22 1.13794 1.1062 0
M  V30 12988 H 1211.25 0.555595 3.76422 0
M  V30 12989 H 1210.76 2.27247 3.14612 0
M  V30 12990 H 1208.86 -0.124645 3.72391 0
M  V30 12991 H 1208.97 1.5821 4.52224 0
M  V30 12992 H 1207.34 0.749139 2.43434 0
M  V30 12993 H 1208.12 2.42055 2.43442 0
M  V30 12994 N 1210.56 -1.39601 0.731392 0
M  V30 12995 C 1211.97 -1.83424 0.348194 0
M  V30 12996 C 1212.33 -1.61106 -1.11979 0
M  V30 12997 O 1211.45 -1.1003 -1.86339 0
M  V30 12998 C 1212.05 -3.32982 0.6252 0
M  V30 12999 C 1210.6 -3.75238 0.295536 0
M  V30 13000 C 1209.75 -2.62642 0.88964 0
M  V30 13001 H 1212.7 -1.28644 0.929318 0
M  V30 13002 H 1212.72 -3.80357 -0.104254 0
M  V30 13003 H 1212.24 -3.49193 1.69368 0
M  V30 13004 H 1210.34 -3.64615 -0.767254 0
M  V30 13005 H 1210.45 -4.72781 0.775576 0
M  V30 13006 H 1208.81 -2.52726 0.316529 0
M  V30 13007 H 1209.6 -2.81661 1.96271 0
M  V30 13008 N 1212.04 -0.478751 -1.50152 0
M  V30 13009 C 1213.28 0.0722328 -2.04272 0
M  V30 13010 C 1213.65 1.36299 -1.35227 0
M  V30 13011 O 1214.85 1.99683 -1.79945 0
M  V30 13012 C 1213.12 0.24408 -3.56566 0
M  V30 13013 S 1214.68 0.752517 -4.32299 0
M  V30 13014 H 1211.5 0.0123326 -0.710893 0
M  V30 13015 H 1214.1 -0.647641 -1.84461 0
M  V30 13016 H 1212.8 -0.701012 -4.04369 0
M  V30 13017 H 1212.33 0.989845 -3.80744 0
M  V30 13018 H 1214.35 2.02488 -4.53005 0
M  V30 13019 N 1213.52 1.56172 -0.211661 0
M  V30 13020 C 1214.8 1.8984 0.471195 0
M  V30 13021 C 1215.18 1.1276 1.78461 0
M  V30 13022 O 1214.53 0.233817 2.27301 0
M  V30 13023 C 1214.74 3.42434 0.673814 0
M  V30 13024 C 1216.08 4.13 0.985719 0
M  V30 13025 O 1217.11 3.47977 0.760953 0
M  V30 13026 O 1215.97 5.2795 1.41176 0
M  V30 13027 H 1213.06 0.789008 0.247782 0
M  V30 13028 H 1215.61 1.67802 -0.25311 0
M  V30 13029 H 1214.38 3.90481 -0.253034 0
M  V30 13030 H 1214 3.70218 1.44997 0
M  V30 13031 N 1215 -0.0618163 1.57479 0
M  V30 13032 C 1216.24 -0.760193 1.88013 0
M  V30 13033 C 1216.58 -1.76718 0.805258 0
M  V30 13034 O 1215.85 -1.93633 -0.183408 0
M  V30 13035 C 1216.14 -1.45924 3.29208 0
M  V30 13036 C 1215.99 -0.467994 4.47359 0
M  V30 13037 C 1217.31 -2.40166 3.68793 0
M  V30 13038 H 1214.43 -0.274896 0.683814 0
M  V30 13039 H 1217.07 -0.0232433 1.89986 0
M  V30 13040 H 1215.22 -2.08741 3.27657 0
M  V30 13041 H 1216.89 0.155735 4.61037 0
M  V30 13042 H 1215.13 0.215797 4.33263 0
M  V30 13043 H 1215.8 -0.994942 5.42959 0
M  V30 13044 H 1218.28 -1.87419 3.71501 0
M  V30 13045 H 1217.16 -2.86076 4.68457 0
M  V30 13046 H 1217.42 -3.25413 2.99264 0
M  V30 13047 N 1216.48 -1.54033 -0.333429 0
M  V30 13048 C 1217.89 -1.63107 -0.908455 0
M  V30 13049 C 1218.24 -0.518823 -1.89216 0
M  V30 13050 O 1217.36 0.34985 -2.13553 0
M  V30 13051 C 1217.96 -2.95657 -1.65447 0
M  V30 13052 C 1216.52 -3.0696 -2.17836 0
M  V30 13053 C 1215.66 -2.58617 -1.00063 0
M  V30 13054 H 1218.62 -1.58309 -0.11128 0
M  V30 13055 H 1218.64 -2.85263 -2.51804 0
M  V30 13056 H 1218.15 -3.76588 -0.938263 0
M  V30 13057 H 1216.25 -2.30683 -2.92602 0
M  V30 13058 H 1216.36 -4.12599 -2.43513 0
M  V30 13059 H 1214.73 -2.1427 -1.37697 0
M  V30 13060 H 1215.51 -3.41996 -0.298901 0
M  V30 13061 N 1217.95 0.594978 -1.45938 0
M  V30 13062 C 1219.2 1.35561 -1.50834 0
M  V30 13063 C 1219.53 1.93584 -0.154566 0
M  V30 13064 O 1218.81 1.75781 0.832541 0
M  V30 13065 C 1219.09 2.49414 -2.5974 0
M  V30 13066 C 1218.94 1.96506 -4.04605 0
M  V30 13067 C 1220.26 3.51505 -2.64825 0
M  V30 13068 H 1217.38 0.491549 -0.549134 0
M  V30 13069 H 1220.02 0.669536 -1.77812 0
M  V30 13070 H 1218.17 3.07939 -2.36866 0
M  V30 13071 H 1219.85 1.42533 -4.38728 0
M  V30 13072 H 1218.09 1.27418 -4.14665 0
M  V30 13073 H 1218.76 2.78636 -4.76515 0
M  V30 13074 H 1221.24 3.02841 -2.85353 0
M  V30 13075 H 1220.11 4.28641 -3.42867 0
M  V30 13076 H 1220.37 4.07942 -1.70399 0
M  V30 13077 N 1219.43 1.33438 0.838571 0
M  V30 13078 C 1220.68 1.24665 1.59069 0
M  V30 13079 C 1221 -0.187433 1.94097 0
M  V30 13080 O 1220.27 -1.11625 1.60987 0
M  V30 13081 H 1218.85 0.45843 0.589789 0
M  V30 13082 H 1221.51 1.67161 1.00216 0
M  V30 13083 H 1220.61 1.84057 2.52051 0
M  V30 13084 N 1220.91 -1.05686 1.16912 0
M  V30 13085 C 1221.82 -2.16824 0.8958 0
M  V30 13086 C 1222.84 -1.73482 -0.134215 0
M  V30 13087 O 1224.01 -2.01352 0.0438776 0
M  V30 13088 C 1221.08 -3.44298 0.407427 0
M  V30 13089 C 1220.14 -4.02114 1.50342 0
M  V30 13090 C 1219.37 -5.23503 1.03826 0
M  V30 13091 O 1219.59 -5.70295 -0.109579 0
M  V30 13092 O 1218.53 -5.73432 1.8292 0
M  V30 13093 H 1222.35 -2.42725 1.82533 0
M  V30 13094 H 1219.94 -1.15339 0.949589 0
M  V30 13095 H 1221.82 -4.21159 0.142356 0
M  V30 13096 H 1220.5 -3.19908 -0.494009 0
M  V30 13097 H 1219.4 -3.26715 1.82231 0
M  V30 13098 H 1220.74 -4.30811 2.38039 0
M  V30 13099 N 1222.39 -0.968567 -1.24324 0
M  V30 13100 C 1223.3 -0.50703 -2.29055 0
M  V30 13101 C 1224.31 0.432431 -1.68541 0
M  V30 13102 O 1225.49 0.30526 -1.99073 0
M  V30 13103 C 1222.56 0.194589 -3.46153 0
M  V30 13104 C 1221.62 -0.784805 -4.22066 0
M  V30 13105 C 1220.85 -0.116574 -5.33573 0
M  V30 13106 O 1221.07 1.09492 -5.59792 0
M  V30 13107 O 1220.01 -0.809171 -5.96436 0
M  V30 13108 H 1223.83 -1.3777 -2.70653 0
M  V30 13109 H 1221.42 -0.735645 -1.30033 0
M  V30 13110 H 1223.3 0.588684 -4.17268 0
M  V30 13111 H 1221.97 1.04021 -3.06531 0
M  V30 13112 H 1220.88 -1.22938 -3.53323 0
M  V30 13113 H 1222.21 -1.59887 -4.65507 0
M  V30 13114 N 1223.87 1.39211 -0.738786 0
M  V30 13115 C 1224.78 2.34374 -0.102958 0
M  V30 13116 C 1225.79 1.58514 0.717596 0
M  V30 13117 O 1226.97 1.90786 0.645186 0
M  V30 13118 C 1224.03 3.37562 0.790733 0
M  V30 13119 C 1223.09 4.29279 -0.0425028 0
M  V30 13120 C 1222.33 5.27539 0.808628 0
M  V30 13121 O 1222.55 5.32396 2.04722 0
M  V30 13122 O 1221.48 6.0144 0.235279 0
M  V30 13123 H 1225.31 2.90412 -0.888498 0
M  V30 13124 H 1222.9 1.40803 -0.499498 0
M  V30 13125 H 1224.78 4.00783 1.30196 0
M  V30 13126 H 1223.45 2.83903 1.55502 0
M  V30 13127 H 1222.36 3.69268 -0.599335 0
M  V30 13128 H 1223.69 4.86154 -0.7691 0
M  V30 13129 N 1225.34 0.486708 1.49896 0
M  V30 13130 C 1226.25 -0.304222 2.32619 0
M  V30 13131 C 1227.27 -0.981103 1.43702 0
M  V30 13132 O 1228.45 -0.965639 1.76741 0
M  V30 13133 C 1225.51 -1.36301 3.18783 0
M  V30 13134 C 1224.57 -0.701082 4.23537 0
M  V30 13135 C 1223.81 -1.70943 5.05583 0
M  V30 13136 O 1224.03 -2.93773 4.88931 0
M  V30 13137 O 1222.96 -1.27263 5.88292 0
M  V30 13138 H 1226.79 0.37248 3.01407 0
M  V30 13139 H 1224.37 0.248277 1.47323 0
M  V30 13140 H 1226.26 -1.97594 3.72202 0
M  V30 13141 H 1224.93 -2.0229 2.52706 0
M  V30 13142 H 1223.84 -0.0487926 3.74068 0
M  V30 13143 H 1225.17 -0.0838817 4.92129 0
M  V30 13144 N 1226.82 -1.56058 0.219941 0
M  V30 13145 C 1227.73 -2.23844 -0.70222 0
M  V30 13146 C 1228.75 -1.24554 -1.215 0
M  V30 13147 O 1229.93 -1.57362 -1.25695 0
M  V30 13148 C 1226.99 -2.90384 -1.89416 0
M  V30 13149 C 1226.05 -4.05012 -1.42351 0
M  V30 13150 C 1225.28 -4.68369 -2.55863 0
M  V30 13151 O 1225.51 -4.3071 -3.73958 0
M  V30 13152 O 1224.44 -5.5739 -2.27157 0
M  V30 13153 H 1228.27 -3.03305 -0.15478 0
M  V30 13154 H 1225.85 -1.49396 -0.010438 0
M  V30 13155 H 1227.73 -3.32389 -2.59028 0
M  V30 13156 H 1226.41 -2.13883 -2.42973 0
M  V30 13157 H 1225.32 -3.67579 -0.695448 0
M  V30 13158 H 1226.65 -4.83251 -0.934332 0
M  V30 13159 N 1228.3 0.053464 -1.57509 0
M  V30 13160 C 1229.21 1.07902 -2.08313 0
M  V30 13161 C 1230.23 1.41223 -1.01647 0
M  V30 13162 O 1231.4 1.51032 -1.33233 0
M  V30 13163 C 1228.47 2.36813 -2.5322 0
M  V30 13164 C 1227.53 2.10297 -3.74264 0
M  V30 13165 C 1226.76 3.33062 -4.1702 0
M  V30 13166 O 1226.99 4.42857 -3.59491 0
M  V30 13167 O 1225.92 3.20195 -5.09665 0
M  V30 13168 H 1229.75 0.677368 -2.9605 0
M  V30 13169 H 1227.33 0.268838 -1.46961 0
M  V30 13170 H 1229.21 3.12645 -2.82544 0
M  V30 13171 H 1227.89 2.76323 -1.68605 0
M  V30 13172 H 1226.79 1.32111 -3.49996 0
M  V30 13173 H 1228.13 1.75658 -4.59788 0
M  V30 13174 N 1229.78 1.54207 0.325255 0
M  V30 13175 C 1230.69 1.86495 1.42326 0
M  V30 13176 C 1231.71 0.756718 1.56684 0
M  V30 13177 O 1232.88 1.05084 1.71812 0
M  V30 13178 C 1229.95 2.08414 2.77064 0
M  V30 13179 C 1229.01 3.32221 2.71897 0
M  V30 13180 C 1228.24 3.53085 4.00209 0
M  V30 13181 O 1228.46 2.77421 4.98391 0
M  V30 13182 O 1227.4 4.46559 4.0357 0
M  V30 13183 H 1231.22 2.79859 1.17951 0
M  V30 13184 H 1228.81 1.40091 0.519124 0
M  V30 13185 H 1230.69 2.24171 3.56827 0
M  V30 13186 H 1229.37 1.18238 3.01333 0
M  V30 13187 H 1228.27 3.21851 1.90691 0
M  V30 13188 H 1229.61 4.22449 2.52582 0
M  V30 13189 N 1231.26 -0.58723 1.46251 0
M  V30 13190 C 1232.17 -1.72455 1.59048 0
M  V30 13191 C 1233.18 -1.67416 0.47413 0
M  V30 13192 O 1234.36 -1.87406 0.737633 0
M  V30 13193 C 1231.42 -3.08953 1.57318 0
M  V30 13194 C 1230.49 -3.25291 2.80151 0
M  V30 13195 C 1229.72 -4.55277 2.78493 0
M  V30 13196 O 1229.94 -5.38883 1.8698 0
M  V30 13197 O 1228.88 -4.74765 3.69975 0
M  V30 13198 H 1232.7 -1.64606 2.55223 0
M  V30 13199 H 1230.29 -0.753742 1.28993 0
M  V30 13200 H 1232.17 -3.90239 1.59033 0
M  V30 13201 H 1230.84 -3.17249 0.643025 0
M  V30 13202 H 1229.75 -2.43515 2.83991 0
M  V30 13203 H 1231.08 -3.21883 3.7236 0
M  V30 13204 N 1232.74 -1.33881 -0.831482 0
M  V30 13205 C 1234.01 -1.16346 -1.57236 0
M  V30 13206 C 1234.39 0.267304 -2.09401 0
M  V30 13207 O 1233.74 1.26742 -1.90128 0
M  V30 13208 C 1233.95 -2.21082 -2.70044 0
M  V30 13209 C 1235.3 -2.5562 -3.39033 0
M  V30 13210 O 1236.32 -2.19806 -2.80292 0
M  V30 13211 O 1235.18 -3.17106 -4.45091 0
M  V30 13212 H 1232.28 -0.450469 -0.693546 0
M  V30 13213 H 1234.82 -1.45487 -0.873597 0
M  V30 13214 H 1233.59 -3.17155 -2.2919 0
M  V30 13215 H 1233.22 -1.9307 -3.47577 0
M  V30 13216 N 1234.21 1.05064 -1.1747 0
M  V30 13217 C 1235.12 2.16346 -0.907286 0
M  V30 13218 C 1236.14 1.7355 0.125013 0
M  V30 13219 O 1237.32 2.01326 -0.0545551 0
M  V30 13220 C 1234.38 3.44077 -0.425681 0
M  V30 13221 C 1233.44 4.01311 -1.52473 0
M  V30 13222 C 1232.67 5.22946 -1.06601 0
M  V30 13223 O 1232.9 5.70345 0.0793329 0
M  V30 13224 O 1231.83 5.72454 -1.85958 0
M  V30 13225 H 1235.66 2.41754 -1.83817 0
M  V30 13226 H 1233.24 1.14834 -0.955693 0
M  V30 13227 H 1235.12 4.21078 -0.164689 0
M  V30 13228 H 1233.8 3.20166 0.477037 0
M  V30 13229 H 1232.71 3.25744 -1.83961 0
M  V30 13230 H 1234.04 4.29543 -2.4032 0
M  V30 13231 N 1235.69 0.975146 1.23809 0
M  V30 13232 C 1237.1 0.678873 1.7392 0
M  V30 13233 C 1237.45 -0.805133 1.78919 0
M  V30 13234 O 1236.58 -1.62984 1.42356 0
M  V30 13235 C 1237.17 1.22562 3.15854 0
M  V30 13236 C 1235.73 0.979096 3.63443 0
M  V30 13237 C 1234.88 1.35649 2.41857 0
M  V30 13238 H 1237.83 1.14961 1.09406 0
M  V30 13239 H 1237.85 0.595489 3.75811 0
M  V30 13240 H 1237.36 2.30571 3.12184 0
M  V30 13241 H 1235.46 -0.0851407 3.72503 0
M  V30 13242 H 1235.58 1.62998 4.5052 0
M  V30 13243 H 1233.94 0.774916 2.42626 0
M  V30 13244 H 1234.72 2.44624 2.40861 0
M  V30 13245 N 1237.17 -1.38817 0.746158 0
M  V30 13246 C 1238.08 -2.34316 0.115386 0
M  V30 13247 C 1239.1 -1.58892 -0.709179 0
M  V30 13248 O 1240.27 -1.91126 -0.635059 0
M  V30 13249 C 1237.34 -3.37977 -0.772821 0
M  V30 13250 C 1236.4 -4.2925 0.0652679 0
M  V30 13251 C 1235.63 -5.2796 -0.78064 0
M  V30 13252 O 1235.85 -5.33474 -2.01896 0
M  V30 13253 O 1234.79 -6.01556 -0.20338 0
M  V30 13254 H 1238.61 -2.89937 0.903887 0
M  V30 13255 H 1236.2 -1.40536 0.506958 0
M  V30 13256 H 1238.08 -4.01468 -1.28068 0
M  V30 13257 H 1236.76 -2.84723 -1.53994 0
M  V30 13258 H 1235.66 -3.68945 0.61891 0
M  V30 13259 H 1237 -4.85739 0.794871 0
M  V30 13260 N 1238.65 -0.49465 -1.49636 0
M  V30 13261 C 1239.89 0.0521945 -2.02733 0
M  V30 13262 C 1240.23 1.3723 -1.37411 0
M  V30 13263 O 1239.5 1.87758 -0.507642 0
M  V30 13264 C 1239.78 0.2114 -3.59479 0
M  V30 13265 C 1239.64 -1.13138 -4.35339 0
M  V30 13266 C 1240.96 0.955015 -4.29613 0
M  V30 13267 H 1238.08 0.0174946 -0.736792 0
M  V30 13268 H 1240.72 -0.644827 -1.78723 0
M  V30 13269 H 1238.87 0.805078 -3.80067 0
M  V30 13270 H 1240.54 -1.76345 -4.26263 0
M  V30 13271 H 1238.78 -1.72224 -3.98147 0
M  V30 13272 H 1239.45 -0.97336 -5.4335 0
M  V30 13273 H 1241.93 0.451575 -4.13642 0
M  V30 13274 H 1240.81 1.03524 -5.39049 0
M  V30 13275 H 1241.07 1.99724 -3.94414 0
M  V30 13276 N 1240.13 1.55939 -0.228214 0
M  V30 13277 C 1241.54 1.84612 0.278417 0
M  V30 13278 C 1241.89 1.14973 1.58983 0
M  V30 13279 O 1241.01 0.421673 2.12252 0
M  V30 13280 C 1241.61 3.3491 0.511935 0
M  V30 13281 C 1240.17 3.63876 0.962861 0
M  V30 13282 C 1239.31 2.77284 0.0296246 0
M  V30 13283 H 1242.26 1.52149 -0.451245 0
M  V30 13284 H 1242.29 3.55477 1.35707 0
M  V30 13285 H 1241.8 3.85567 -0.442697 0
M  V30 13286 H 1239.9 3.18682 1.93062 0
M  V30 13287 H 1240.01 4.71809 0.832659 0
M  V30 13288 H 1238.38 2.48961 0.53763 0
M  V30 13289 H 1239.16 3.30742 -0.920044 0
M  V30 13290 N 1241.6 -0.0451101 1.57535 0
M  V30 13291 C 1242.57 -1.03521 2.0449 0
M  V30 13292 C 1243.57 -1.30009 0.946265 0
M  V30 13293 O 1244.76 -1.25282 1.21038 0
M  V30 13294 C 1241.89 -2.37221 2.44824 0
M  V30 13295 H 1243.08 -0.629943 2.93209 0
M  V30 13296 H 1240.64 -0.291544 1.53557 0
M  V30 13297 H 1241.37 -2.82528 1.59212 0
M  V30 13298 H 1241.16 -2.19329 3.25018 0
M  V30 13299 H 1242.65 -3.08337 2.81635 0
M  V30 13300 N 1243.08 -1.54377 -0.317073 0
M  V30 13301 C 1244.33 -1.72551 -1.05216 0
M  V30 13302 C 1244.65 -0.5055 -1.88334 0
M  V30 13303 O 1243.92 0.480439 -1.89917 0
M  V30 13304 H 1242.5 -0.636222 -0.391447 0
M  V30 13305 H 1245.16 -1.91696 -0.35194 0
M  V30 13306 H 1244.26 -2.60791 -1.71448 0
M  V30 13307 N 1244.56 0.579466 -1.4656 0
M  V30 13308 C 1245.97 1.1616 -1.46164 0
M  V30 13309 C 1246.32 1.95134 -0.20423 0
M  V30 13310 O 1245.45 2.05022 0.692457 0
M  V30 13311 C 1246.04 2.11322 -2.64818 0
M  V30 13312 C 1244.6 2.64852 -2.67452 0
M  V30 13313 C 1243.75 1.40786 -2.38903 0
M  V30 13314 H 1246.7 0.367229 -1.54393 0
M  V30 13315 H 1246.72 2.94839 -2.4052 0
M  V30 13316 H 1246.23 1.53815 -3.56318 0
M  V30 13317 H 1244.33 3.26219 -1.80032 0
M  V30 13318 H 1244.45 3.07366 -3.67509 0
M  V30 13319 H 1242.81 1.70707 -1.89027 0
M  V30 13320 H 1243.59 0.851049 -3.32584 0
M  V30 13321 N 1246.04 1.3432 0.824371 0
M  V30 13322 C 1247.45 1.1397 1.11727 0
M  V30 13323 C 1247.65 -0.0597597 2.01411 0
M  V30 13324 O 1246.71 -0.735717 2.41544 0
M  V30 13325 C 1248.02 2.43423 1.76538 0
M  V30 13326 C 1249.57 2.49466 1.89039 0
M  V30 13327 C 1250.05 3.78917 2.57266 0
M  V30 13328 N 1251.54 3.8007 2.64767 0
M  V30 13329 C 1252.27 4.76953 3.18282 0
M  V30 13330 N 1251.77 5.84217 3.72373 0
M  V30 13331 N 1253.56 4.6441 3.1667 0
M  V30 13332 H 1245.71 2.11175 0.227802 0
M  V30 13333 H 1247.98 0.933774 0.163615 0
M  V30 13334 H 1247.68 3.31278 1.18102 0
M  V30 13335 H 1247.56 2.56655 2.7642 0
M  V30 13336 H 1249.94 1.62052 2.46623 0
M  V30 13337 H 1250.02 2.40163 0.880635 0
M  V30 13338 H 1249.67 4.6672 2.00336 0
M  V30 13339 H 1249.6 3.85502 3.58742 0
M  V30 13340 H 1252.09 3.02556 2.26425 0
M  V30 13341 H 1252.4 6.54159 4.11455 0
M  V30 13342 H 1250.75 5.87933 3.70621 0
M  V30 13343 H 1253.94 3.7976 2.73678 0
M  V30 13344 H 1254.11 5.40081 3.58073 0
M  V30 13345 N 1247.52 -1.0444 1.18026 0
M  V30 13346 C 1248.93 -1.5903 0.978076 0
M  V30 13347 C 1249.28 -1.90407 -0.473241 0
M  V30 13348 O 1248.4 -1.69133 -1.34992 0
M  V30 13349 C 1249 -2.88942 1.76912 0
M  V30 13350 C 1247.56 -3.40164 1.61139 0
M  V30 13351 C 1246.7 -2.13797 1.76596 0
M  V30 13352 H 1249.66 -0.871574 1.32625 0
M  V30 13353 H 1249.68 -3.59173 1.25598 0
M  V30 13354 H 1249.19 -2.66074 2.82535 0
M  V30 13355 H 1247.29 -3.68053 0.580353 0
M  V30 13356 H 1247.4 -4.14241 2.40709 0
M  V30 13357 H 1245.77 -2.24922 1.19507 0
M  V30 13358 H 1246.55 -1.93389 2.83647 0
M  V30 13359 N 1248.99 -0.981699 -1.2329 0
M  V30 13360 C 1250.41 -0.690539 -1.43888 0
M  V30 13361 C 1250.61 0.742816 -1.87309 0
M  V30 13362 O 1249.67 1.5151 -2.01993 0
M  V30 13363 C 1250.98 -1.68657 -2.48948 0
M  V30 13364 C 1252.53 -1.70076 -2.62761 0
M  V30 13365 C 1253 -2.68513 -3.71032 0
M  V30 13366 N 1254.49 -2.67039 -3.78476 0
M  V30 13367 C 1255.23 -3.39874 -4.61815 0
M  V30 13368 N 1254.72 -4.22273 -5.49233 0
M  V30 13369 N 1256.52 -3.28633 -4.56023 0
M  V30 13370 H 1248.67 -1.90758 -0.934077 0
M  V30 13371 H 1250.93 -0.822058 -0.472149 0
M  V30 13372 H 1250.64 -2.7117 -2.23964 0
M  V30 13373 H 1250.51 -1.47045 -3.47358 0
M  V30 13374 H 1252.9 -0.682673 -2.87095 0
M  V30 13375 H 1252.98 -1.95754 -1.64663 0
M  V30 13376 H 1252.62 -3.70464 -3.47446 0
M  V30 13377 H 1252.55 -2.40109 -4.68674 0
M  V30 13378 H 1255.04 -2.07241 -3.16006 0
M  V30 13379 H 1255.36 -4.74702 -6.09818 0
M  V30 13380 H 1253.7 -4.26364 -5.48852 0
M  V30 13381 H 1256.89 -2.6371 -3.86749 0
M  V30 13382 H 1257.07 -3.85656 -5.20743 0
M  V30 13383 N 1250.47 1.3842 -0.753509 0
M  V30 13384 C 1251.89 1.53668 -0.431095 0
M  V30 13385 C 1252.09 1.71626 1.05578 0
M  V30 13386 O 1251.14 1.72723 1.84182 0
M  V30 13387 C 1252.46 2.74381 -1.23027 0
M  V30 13388 C 1254.01 2.8823 -1.22034 0
M  V30 13389 C 1254.48 4.11904 -2.00248 0
M  V30 13390 N 1255.97 4.18981 -1.97508 0
M  V30 13391 C 1256.71 5.13667 -2.5482 0
M  V30 13392 N 1256.2 6.14027 -3.20846 0
M  V30 13393 N 1258 5.06017 -2.44751 0
M  V30 13394 H 1250.15 1.25012 -1.71714 0
M  V30 13395 H 1252.41 0.607296 -0.727939 0
M  V30 13396 H 1252.12 2.67515 -2.28317 0
M  V30 13397 H 1251.99 3.67565 -0.847098 0
M  V30 13398 H 1254.38 2.94578 -0.175502 0
M  V30 13399 H 1254.46 1.96057 -1.64303 0
M  V30 13400 H 1254.1 4.06318 -3.04742 0
M  V30 13401 H 1254.03 5.03157 -1.55373 0
M  V30 13402 H 1256.52 3.47104 -1.49423 0
M  V30 13403 H 1256.84 6.82771 -3.61999 0
M  V30 13404 H 1255.18 6.1436 -3.24941 0
M  V30 13405 H 1258.37 4.26552 -1.92797 0
M  V30 13406 H 1258.54 5.7963 -2.89713 0
M  V30 13407 N 1251.95 0.502579 1.49372 0
M  V30 13408 C 1253.2 -0.0432341 2.01654 0
M  V30 13409 C 1253.51 -1.379 1.38719 0
M  V30 13410 O 1254.72 -2.01159 1.82338 0
M  V30 13411 C 1253.17 -0.127509 3.59674 0
M  V30 13412 C 1252.78 1.20171 4.31582 0
M  V30 13413 C 1254.53 -0.623603 4.19895 0
M  V30 13414 C 1252.43 1.07951 5.81464 0
M  V30 13415 H 1251.36 -0.0199308 0.753737 0
M  V30 13416 H 1254.01 0.642237 1.71894 0
M  V30 13417 H 1252.4 -0.877465 3.86156 0
M  V30 13418 H 1253.57 1.96508 4.16799 0
M  V30 13419 H 1251.89 1.63136 3.83113 0
M  V30 13420 H 1254.48 -0.732562 5.29658 0
M  V30 13421 H 1254.83 -1.62282 3.83367 0
M  V30 13422 H 1255.36 0.0698641 3.97739 0
M  V30 13423 H 1252.1 2.05304 6.22519 0
M  V30 13424 H 1251.62 0.357051 5.98736 0
M  V30 13425 H 1253.3 0.758885 6.42534 0
M  V30 13426 N 1253.43 -1.55816 0.23648 0
M  V30 13427 C 1254.65 -2.03534 -0.398575 0
M  V30 13428 C 1255.08 -1.11488 -1.51499 0
M  V30 13429 O 1254.44 -0.105848 -1.80991 0
M  V30 13430 C 1254.48 -3.49356 -0.893467 0
M  V30 13431 O 1253.59 -3.60446 -2.00381 0
M  V30 13432 H 1252.93 -0.658102 -0.0883021 0
M  V30 13433 H 1255.46 -2.01417 0.359488 0
M  V30 13434 H 1255.47 -3.89972 -1.19941 0
M  V30 13435 H 1254.14 -4.1583 -0.0764388 0
M  V30 13436 H 1252.72 -3.31723 -1.70336 0
M  V30 13437 N 1254.91 0.036755 -1.57557 0
M  V30 13438 C 1255.82 1.05687 -2.09446 0
M  V30 13439 C 1256.83 1.40137 -1.03139 0
M  V30 13440 O 1258.01 1.49611 -1.34828 0
M  V30 13441 C 1255.07 2.34114 -2.55717 0
M  V30 13442 C 1254.13 2.06316 -3.76473 0
M  V30 13443 C 1253.37 3.2862 -4.20529 0
M  V30 13444 O 1253.59 4.3902 -3.64167 0
M  V30 13445 O 1252.52 3.14772 -5.13033 0
M  V30 13446 H 1256.35 0.64593 -2.96751 0
M  V30 13447 H 1253.94 0.253235 -1.47238 0
M  V30 13448 H 1255.82 3.09631 -2.85844 0
M  V30 13449 H 1254.49 2.74519 -1.71526 0
M  V30 13450 H 1253.4 1.28392 -3.51378 0
M  V30 13451 H 1254.73 1.70772 -4.61625 0
M  V30 13452 N 1256.39 1.54543 0.308881 0
M  V30 13453 C 1257.32 1.87947 1.38557 0
M  V30 13454 C 1258.3 0.737622 1.53275 0
M  V30 13455 O 1259.48 0.992664 1.66913 0
M  V30 13456 C 1256.61 2.11982 2.75102 0
M  V30 13457 C 1255.57 3.2783 2.75158 0
M  V30 13458 C 1254.89 3.37266 4.14917 0
M  V30 13459 C 1256.19 4.65129 2.37598 0
M  V30 13460 H 1257.89 2.78123 1.1085 0
M  V30 13461 H 1255.43 1.3382 0.531808 0
M  V30 13462 H 1257.38 2.33935 3.50503 0
M  V30 13463 H 1256.11 1.18569 3.04317 0
M  V30 13464 H 1254.77 3.05787 2.02212 0
M  V30 13465 H 1254.42 2.41384 4.41296 0
M  V30 13466 H 1254.12 4.15135 4.15857 0
M  V30 13467 H 1255.64 3.61471 4.92109 0
M  V30 13468 H 1257.05 4.86865 3.02714 0
M  V30 13469 H 1255.45 5.45653 2.49765 0
M  V30 13470 H 1256.52 4.6638 1.32731 0
M  V30 13471 N 1257.86 -0.571685 1.46866 0
M  V30 13472 C 1258.81 -1.70098 1.58649 0
M  V30 13473 C 1259.81 -1.63191 0.45443 0
M  V30 13474 O 1261.01 -1.68551 0.63171 0
M  V30 13475 H 1257.39 -0.56258 0.499007 0
M  V30 13476 H 1259.36 -1.57293 2.53577 0
M  V30 13477 C 1258.11 -3.08475 1.60433 0
M  V30 13478 H 1257.43 -3.14465 2.46884 0
M  V30 13479 H 1258.87 -3.87221 1.7273 0
M  V30 13480 C 1257.33 -3.35231 0.334948 0
M  V30 13481 O 1257.86 -3.97633 -0.570149 0
M  V30 13482 N 1256.06 -2.8977 0.219441 0
M  V30 13483 H 1255.61 -2.39168 0.956891 0
M  V30 13484 H 1255.57 -3.08044 -0.628975 0
M  V30 13485 N 1259.34 -1.34755 -0.817236 0
M  V30 13486 C 1260.27 -1.21147 -1.93387 0
M  V30 13487 C 1261.25 -0.101788 -1.62281 0
M  V30 13488 O 1262.44 -0.267968 -1.86586 0
M  V30 13489 C 1259.56 -0.86301 -3.27521 0
M  V30 13490 C 1258.61 -1.98325 -3.77584 0
M  V30 13491 S 1259.44 -3.59751 -3.9666 0
M  V30 13492 C 1260.6 -3.26959 -5.33712 0
M  V30 13493 H 1260.83 -2.15667 -2.04634 0
M  V30 13494 H 1258.36 -1.19848 -0.973441 0
M  V30 13495 H 1260.32 -0.668754 -4.05016 0
M  V30 13496 H 1258.98 0.0639417 -3.14035 0
M  V30 13497 H 1258.18 -1.69332 -4.74703 0
M  V30 13498 H 1257.78 -2.13529 -3.07053 0
M  V30 13499 H 1260.07 -2.79126 -6.17329 0
M  V30 13500 H 1261.01 -4.23238 -5.67693 0
M  V30 13501 H 1261.42 -2.62996 -4.99493 0
M  V30 13502 N 1260.82 1.03812 -1.18578 0
M  V30 13503 C 1261.77 2.11883 -0.915115 0
M  V30 13504 C 1262.74 1.65453 0.146479 0
M  V30 13505 O 1263.92 1.90799 0.00630058 0
M  V30 13506 C 1261.06 3.42157 -0.449755 0
M  V30 13507 C 1260.17 4.02185 -1.57706 0
M  V30 13508 C 1259.31 5.20431 -1.06417 0
M  V30 13509 C 1258.35 5.72496 -2.16599 0
M  V30 13510 N 1257.49 6.82027 -1.66685 0
M  V30 13511 H 1262.33 2.34373 -1.84047 0
M  V30 13512 H 1259.86 1.14962 -0.917728 0
M  V30 13513 H 1261.82 4.16888 -0.161407 0
M  V30 13514 H 1260.45 3.19806 0.438622 0
M  V30 13515 H 1259.5 3.24757 -1.98083 0
M  V30 13516 H 1260.81 4.36851 -2.40754 0
M  V30 13517 H 1259.97 6.02286 -0.730497 0
M  V30 13518 H 1258.71 4.87276 -0.203301 0
M  V30 13519 H 1257.71 4.8926 -2.50808 0
M  V30 13520 H 1258.94 6.07694 -3.03126 0
M  V30 13521 H 1256.88 6.50742 -0.828916 0
M  V30 13522 H 1256.8 7.1577 -2.43329 0
M  V30 13523 H 1258.07 7.67499 -1.36253 0
M  V30 13524 N 1262.3 0.988223 1.22768 0
M  V30 13525 C 1263.21 0.543407 2.2822 0
M  V30 13526 C 1264.22 -0.405563 1.69208 0
M  V30 13527 O 1265.4 -0.273551 1.99534 0
M  V30 13528 C 1262.46 -0.139495 3.46419 0
M  V30 13529 C 1261.53 0.851853 4.20764 0
M  V30 13530 C 1260.76 0.201446 5.3332 0
M  V30 13531 O 1260.98 -1.00573 5.61464 0
M  V30 13532 O 1259.92 0.903956 5.95073 0
M  V30 13533 H 1263.74 1.42059 2.68427 0
M  V30 13534 H 1261.33 0.756239 1.28846 0
M  V30 13535 H 1263.21 -0.522226 4.18152 0
M  V30 13536 H 1261.88 -0.991315 3.08147 0
M  V30 13537 H 1260.79 1.28543 3.51322 0
M  V30 13538 H 1262.12 1.67273 4.62905 0
M  V30 13539 N 1263.78 -1.38018 0.760839 0
M  V30 13540 C 1264.72 -2.30387 0.13796 0
M  V30 13541 C 1265.69 -1.50548 -0.701754 0
M  V30 13542 O 1266.88 -1.79154 -0.656381 0
M  V30 13543 C 1264.02 -3.36993 -0.743642 0
M  V30 13544 C 1263.13 -4.31856 0.111489 0
M  V30 13545 C 1262.27 -5.25534 -0.773796 0
M  V30 13546 C 1261.3 -6.12042 0.0845311 0
M  V30 13547 N 1260.44 -6.97995 -0.758118 0
M  V30 13548 H 1265.28 -2.83077 0.931212 0
M  V30 13549 H 1262.82 -1.39361 0.470833 0
M  V30 13550 H 1264.78 -3.97417 -1.26948 0
M  V30 13551 H 1263.41 -2.85695 -1.50261 0
M  V30 13552 H 1262.46 -3.72832 0.755031 0
M  V30 13553 H 1263.77 -4.92758 0.774042 0
M  V30 13554 H 1262.92 -5.9111 -1.36653 0
M  V30 13555 H 1261.66 -4.65017 -1.47006 0
M  V30 13556 H 1260.67 -5.45455 0.689883 0
M  V30 13557 H 1261.89 -6.74629 0.777966 0
M  V30 13558 H 1259.84 -6.40018 -1.4392 0
M  V30 13559 H 1259.76 -7.55846 -0.152623 0
M  V30 13560 H 1261.02 -7.67973 -1.33559 0
M  V30 13561 N 1265.25 -0.510493 -1.49103 0
M  V30 13562 C 1266.5 0.0325393 -2.01674 0
M  V30 13563 C 1266.82 1.37162 -1.39448 0
M  V30 13564 O 1268.02 2.00189 -1.83402 0
M  V30 13565 C 1266.48 0.108433 -3.59737 0
M  V30 13566 C 1266.09 -1.22458 -4.30939 0
M  V30 13567 C 1267.83 0.601326 -4.20219 0
M  V30 13568 C 1265.74 -1.11033 -5.80884 0
M  V30 13569 H 1264.67 0.0159333 -0.753832 0
M  V30 13570 H 1267.32 -0.651344 -1.71551 0
M  V30 13571 H 1265.7 0.856974 -3.86616 0
M  V30 13572 H 1266.87 -1.98715 -4.15751 0
M  V30 13573 H 1265.19 -1.65166 -3.82242 0
M  V30 13574 H 1267.79 0.704462 -5.30039 0
M  V30 13575 H 1268.13 1.60247 -3.84222 0
M  V30 13576 H 1268.66 -0.0909561 -3.97696 0
M  V30 13577 H 1265.4 -2.08603 -6.21422 0
M  V30 13578 H 1264.92 -0.388798 -5.98539 0
M  V30 13579 H 1266.6 -0.792949 -6.42123 0
M  V30 13580 N 1266.73 1.55688 -0.24474 0
M  V30 13581 C 1267.69 2.20014 0.642382 0
M  V30 13582 C 1268.69 1.16877 1.10437 0
M  V30 13583 O 1269.88 1.41972 1.00943 0
M  V30 13584 C 1267.02 2.84198 1.88267 0
M  V30 13585 H 1268.21 2.9979 0.0811937 0
M  V30 13586 H 1265.76 1.56299 0.00480917 0
M  V30 13587 H 1266.5 2.08354 2.48514 0
M  V30 13588 H 1266.28 3.59747 1.55963 0
M  V30 13589 H 1267.77 3.33434 2.5142 0
M  V30 13590 N 1268.21 -0.0283989 1.57574 0
M  V30 13591 C 1269.62 -0.574912 1.77628 0
M  V30 13592 C 1269.97 -1.75563 0.875903 0
M  V30 13593 O 1269.1 -2.16284 0.0709141 0
M  V30 13594 C 1269.69 -1.04972 3.22128 0
M  V30 13595 C 1268.25 -1.54175 3.43376 0
M  V30 13596 C 1267.4 -0.480127 2.73112 0
M  V30 13597 H 1270.35 0.197826 1.57462 0
M  V30 13598 H 1270.37 -1.91705 3.28678 0
M  V30 13599 H 1269.88 -0.190173 3.87634 0
M  V30 13600 H 1267.98 -2.42313 2.83046 0
M  V30 13601 H 1268.1 -1.58879 4.51989 0
M  V30 13602 H 1266.46 -0.935314 2.36905 0
M  V30 13603 H 1267.24 0.369973 3.41301 0
M  V30 13604 N 1269.69 -1.54705 -0.300681 0
M  V30 13605 C 1270.94 -1.73211 -1.03349 0
M  V30 13606 C 1271.25 -0.52518 -1.88418 0
M  V30 13607 O 1272.46 -0.592049 -2.64966 0
M  V30 13608 C 1270.91 -3.06453 -1.88717 0
M  V30 13609 C 1270.52 -4.34625 -1.0865 0
M  V30 13610 C 1272.26 -3.34317 -2.61595 0
M  V30 13611 C 1270.17 -5.58919 -1.93297 0
M  V30 13612 H 1269.1 -0.64556 -0.389574 0
M  V30 13613 H 1271.75 -1.81186 -0.290472 0
M  V30 13614 H 1270.13 -2.92443 -2.67008 0
M  V30 13615 H 1271.31 -4.59471 -0.349707 0
M  V30 13616 H 1269.62 -4.13699 -0.473521 0
M  V30 13617 H 1272.22 -4.2438 -3.25278 0
M  V30 13618 H 1272.56 -2.53207 -3.30442 0
M  V30 13619 H 1273.1 -3.493 -1.90354 0
M  V30 13620 H 1269.83 -6.42697 -1.2892 0
M  V30 13621 H 1269.35 -5.38258 -2.64647 0
M  V30 13622 H 1271.03 -5.96187 -2.51336 0
M  V30 13623 N 1271.17 0.563888 -1.47167 0
M  V30 13624 C 1272.58 1.14603 -1.47388 0
M  V30 13625 C 1272.93 1.94907 -0.224916 0
M  V30 13626 O 1272.05 2.05745 0.670672 0
M  V30 13627 C 1272.65 2.08501 -2.67044 0
M  V30 13628 C 1271.21 2.62 -2.70246 0
M  V30 13629 C 1270.35 1.38244 -2.40383 0
M  V30 13630 H 1273.31 0.350833 -1.54774 0
M  V30 13631 H 1273.33 2.92272 -2.43634 0
M  V30 13632 H 1272.84 1.50027 -3.57929 0
M  V30 13633 H 1270.94 3.24292 -1.83482 0
M  V30 13634 H 1271.05 3.0345 -3.70749 0
M  V30 13635 H 1269.42 1.68692 -1.90827 0
M  V30 13636 H 1270.2 0.815726 -3.33468 0
M  V30 13637 N 1272.64 1.35187 0.810078 0
M  V30 13638 C 1273.55 1.29926 1.95337 0
M  V30 13639 C 1274.57 0.204748 1.72791 0
M  V30 13640 O 1275.75 0.433507 1.96679 0
M  V30 13641 C 1272.81 1.06736 3.29861 0
M  V30 13642 C 1271.87 2.25466 3.65326 0
M  V30 13643 C 1271.11 2.03373 4.93432 0
M  V30 13644 O 1271.33 0.998419 5.61594 0
M  V30 13645 O 1270.26 2.90648 5.27075 0
M  V30 13646 H 1274.09 2.26137 2.02721 0
M  V30 13647 H 1271.67 1.15523 0.947354 0
M  V30 13648 H 1273.56 0.956367 4.10404 0
M  V30 13649 H 1272.23 0.135735 3.23415 0
M  V30 13650 H 1271.14 2.42129 2.85175 0
M  V30 13651 H 1272.47 3.17063 3.76473 0
M  V30 13652 N 1274.12 -1.03182 1.19127 0
M  V30 13653 C 1275.37 -1.76184 0.990134 0
M  V30 13654 C 1275.69 -1.88986 -0.480546 0
M  V30 13655 O 1274.96 -1.4213 -1.34817 0
M  V30 13656 H 1273.54 -0.652668 0.363364 0
M  V30 13657 H 1276.2 -1.24481 1.49968 0
M  V30 13658 H 1275.3 -2.77119 1.43568 0
M  V30 13659 N 1275.6 -0.99472 -1.22242 0
M  V30 13660 C 1276.83 -0.689809 -1.95592 0
M  V30 13661 C 1277.25 0.739321 -1.72961 0
M  V30 13662 O 1276.61 1.50563 -1.00997 0
M  V30 13663 C 1276.66 -1.00367 -3.46351 0
M  V30 13664 O 1275.76 -0.103326 -4.12271 0
M  V30 13665 H 1275.1 -0.257997 -0.611828 0
M  V30 13666 H 1277.63 -1.33219 -1.55286 0
M  V30 13667 H 1277.64 -0.946259 -3.96875 0
M  V30 13668 H 1276.32 -2.04504 -3.62148 0
M  V30 13669 H 1274.89 -0.216374 -3.72272 0
M  V30 13670 N 1277.08 1.37613 -0.768148 0
M  V30 13671 C 1278.04 2.28653 -0.158283 0
M  V30 13672 C 1279.04 1.47862 0.631936 0
M  V30 13673 O 1280.23 1.68124 0.456055 0
M  V30 13674 C 1277.36 3.31776 0.783435 0
M  V30 13675 H 1278.56 2.84094 -0.960772 0
M  V30 13676 H 1276.11 1.46818 -0.536116 0
M  V30 13677 H 1276.84 2.81452 1.61106 0
M  V30 13678 H 1276.63 3.91488 0.219016 0
M  V30 13679 H 1278.12 3.99816 1.20568 0
M  V30 13680 N 1278.56 0.518393 1.4883 0
M  V30 13681 C 1279.8 -0.0199053 2.0249 0
M  V30 13682 C 1280.13 -1.35375 1.39657 0
M  V30 13683 O 1279.39 -1.88454 0.527586 0
M  V30 13684 C 1279.69 -0.203001 3.56823 0
M  V30 13685 C 1279.35 1.05502 4.38384 0
M  V30 13686 C 1278.01 1.39982 4.60389 0
M  V30 13687 C 1280.37 1.89042 4.85708 0
M  V30 13688 C 1277.69 2.57922 5.26966 0
M  V30 13689 C 1280.05 3.06151 5.53583 0
M  V30 13690 C 1278.71 3.40991 5.73831 0
M  V30 13691 H 1277.98 -0.00728388 0.740964 0
M  V30 13692 H 1280.63 0.682073 1.78941 0
M  V30 13693 H 1278.93 -0.987653 3.79147 0
M  V30 13694 H 1280.63 -0.634234 3.95953 0
M  V30 13695 H 1277.22 0.77647 4.21508 0
M  V30 13696 H 1281.4 1.63716 4.6852 0
M  V30 13697 H 1276.66 2.85132 5.40842 0
M  V30 13698 H 1280.83 3.71198 5.89224 0
M  V30 13699 H 1278.46 4.32479 6.25193 0
M  V30 13700 N 1280.03 -1.55556 0.252993 0
M  V30 13701 C 1281.28 -1.9909 -0.37005 0
M  V30 13702 C 1281.61 -1.1412 -1.57502 0
M  V30 13703 O 1280.86 -0.193471 -1.94741 0
M  V30 13704 C 1281.16 -3.47925 -0.817484 0
M  V30 13705 C 1280.83 -4.50027 0.280398 0
M  V30 13706 C 1279.49 -4.77669 0.581914 0
M  V30 13707 C 1281.84 -5.11096 1.02129 0
M  V30 13708 C 1279.17 -5.63652 1.62829 0
M  V30 13709 C 1281.52 -5.98215 2.05723 0
M  V30 13710 C 1280.19 -6.24186 2.36533 0
M  V30 13711 H 1279.46 -0.728522 -0.135411 0
M  V30 13712 H 1282.1 -1.88046 0.36209 0
M  V30 13713 H 1280.41 -3.56333 -1.62893 0
M  V30 13714 H 1282.11 -3.79001 -1.30993 0
M  V30 13715 H 1278.7 -4.28585 0.0352579 0
M  V30 13716 H 1282.88 -4.89784 0.801603 0
M  V30 13717 H 1278.14 -5.82028 1.87227 0
M  V30 13718 H 1282.31 -6.44575 2.6362 0
M  V30 13719 H 1279.94 -6.90607 3.17752 0
M  V30 13720 N 1281.51 0.0200419 -1.57587 0
M  V30 13721 C 1282.76 0.708115 -1.88861 0
M  V30 13722 C 1283.07 1.76036 -0.852693 0
M  V30 13723 O 1284.28 2.50165 -1.05497 0
M  V30 13724 C 1282.74 1.31057 -3.3519 0
M  V30 13725 C 1282.34 0.294202 -4.47033 0
M  V30 13726 C 1284.09 1.97799 -3.756 0
M  V30 13727 C 1282 0.905508 -5.84427 0
M  V30 13728 H 1280.93 0.268236 -0.704674 0
M  V30 13729 H 1283.58 -0.0372162 -1.83462 0
M  V30 13730 H 1281.96 2.1059 -3.35362 0
M  V30 13731 H 1283.13 -0.475081 -4.58344 0
M  V30 13732 H 1281.45 -0.271644 -4.15513 0
M  V30 13733 H 1284.04 2.44404 -4.75574 0
M  V30 13734 H 1284.39 2.80004 -3.08064 0
M  V30 13735 H 1284.92 1.25028 -3.77641 0
M  V30 13736 H 1281.66 0.122685 -6.55385 0
M  V30 13737 H 1281.18 1.64442 -5.76818 0
M  V30 13738 H 1282.86 1.41016 -6.31446 0
M  V30 13739 N 1282.99 1.54862 0.292472 0
M  V30 13740 C 1283.92 1.89406 1.36556 0
M  V30 13741 C 1284.9 0.753838 1.52484 0
M  V30 13742 O 1286.09 1.01031 1.6585 0
M  V30 13743 C 1283.22 2.14888 2.72838 0
M  V30 13744 C 1282.17 3.3073 2.71665 0
M  V30 13745 C 1281.5 3.41648 4.11316 0
M  V30 13746 C 1282.8 4.67622 2.32651 0
M  V30 13747 H 1284.49 2.79284 1.07894 0
M  V30 13748 H 1282.04 1.34377 0.517585 0
M  V30 13749 H 1283.99 2.3764 3.48002 0
M  V30 13750 H 1282.71 1.2179 3.03042 0
M  V30 13751 H 1281.37 3.07915 1.98958 0
M  V30 13752 H 1281.02 2.46051 4.38711 0
M  V30 13753 H 1280.72 4.19522 4.11431 0
M  V30 13754 H 1282.24 3.6667 4.88248 0
M  V30 13755 H 1283.66 4.90048 2.97533 0
M  V30 13756 H 1282.06 5.48272 2.43963 0
M  V30 13757 H 1283.13 4.67762 1.27777 0
M  V30 13758 N 1284.47 -0.556076 1.47464 0
M  V30 13759 C 1285.69 -1.3434 1.58011 0
M  V30 13760 C 1286.12 -1.86674 0.231138 0
M  V30 13761 O 1285.48 -1.63029 -0.793174 0
M  V30 13762 C 1285.52 -2.48844 2.60977 0
M  V30 13763 O 1284.63 -3.51108 2.16326 0
M  V30 13764 H 1283.97 -0.398986 0.53076 0
M  V30 13765 H 1286.5 -0.671898 1.93253 0
M  V30 13766 H 1286.51 -2.95398 2.81432 0
M  V30 13767 H 1285.18 -2.10109 3.58925 0
M  V30 13768 H 1283.76 -3.10852 2.05975 0
M  V30 13769 N 1285.95 -1.35615 -0.802897 0
M  V30 13770 C 1286.89 -1.28839 -1.91492 0
M  V30 13771 C 1287.86 -0.159621 -1.65331 0
M  V30 13772 O 1289.05 -0.343931 -1.87675 0
M  V30 13773 C 1286.19 -1.06999 -3.28093 0
M  V30 13774 C 1285.3 -2.28831 -3.66416 0
M  V30 13775 C 1284.44 -2.00111 -4.92066 0
M  V30 13776 C 1283.48 -3.17977 -5.23027 0
M  V30 13777 N 1282.61 -2.89009 -6.39858 0
M  V30 13778 H 1287.45 -2.2393 -1.96619 0
M  V30 13779 H 1284.99 -1.1131 -0.961687 0
M  V30 13780 H 1286.95 -0.923673 -4.06847 0
M  V30 13781 H 1285.58 -0.155684 -3.22424 0
M  V30 13782 H 1284.63 -2.54314 -2.82893 0
M  V30 13783 H 1285.94 -3.1683 -3.85253 0
M  V30 13784 H 1285.1 -1.82331 -5.78654 0
M  V30 13785 H 1283.84 -1.09402 -4.75271 0
M  V30 13786 H 1282.84 -3.3633 -4.34928 0
M  V30 13787 H 1284.07 -4.09493 -5.41749 0
M  V30 13788 H 1282.01 -2.00898 -6.24481 0
M  V30 13789 H 1281.93 -3.70544 -6.58964 0
M  V30 13790 H 1283.2 -2.74779 -7.29463 0
M  V30 13791 N 1287.43 1.02549 -1.19673 0
M  V30 13792 C 1288.65 1.79623 -1.0268 0
M  V30 13793 C 1289.07 1.83969 0.424345 0
M  V30 13794 O 1288.43 1.28621 1.29472 0
M  V30 13795 C 1288.48 3.24514 -1.59289 0
M  V30 13796 O 1288.2 3.20462 -2.98723 0
M  V30 13797 C 1289.7 4.18173 -1.47126 0
M  V30 13798 H 1286.92 0.565167 -0.3617 0
M  V30 13799 H 1289.46 1.29143 -1.58564 0
M  V30 13800 H 1287.62 3.72173 -1.07546 0
M  V30 13801 H 1288.03 4.11341 -3.25421 0
M  V30 13802 H 1289.51 5.17714 -1.9151 0
M  V30 13803 H 1289.98 4.37165 -0.422315 0
M  V30 13804 H 1290.59 3.7639 -1.98017 0
M  V30 13805 N 1288.9 1.00119 1.21713 0
M  V30 13806 C 1289.85 0.551452 2.25969 0
M  V30 13807 C 1290.85 -0.402075 1.64559 0
M  V30 13808 O 1292.05 -0.273685 1.77907 0
M  V30 13809 H 1288.43 0.159968 0.734789 0
M  V30 13810 H 1290.4 1.44201 2.61244 0
M  V30 13811 C 1289.15 -0.109992 3.47526 0
M  V30 13812 H 1288.47 0.614686 3.95046 0
M  V30 13813 H 1289.91 -0.388007 4.22221 0
M  V30 13814 C 1288.37 -1.34798 3.08757 0
M  V30 13815 O 1288.9 -2.44266 3.189 0
M  V30 13816 N 1287.1 -1.2263 2.63458 0
M  V30 13817 H 1286.65 -0.335571 2.55405 0
M  V30 13818 H 1286.61 -2.05565 2.37887 0
M  V30 13819 N 1290.38 -1.37203 0.775435 0
M  V30 13820 C 1291.79 -1.82224 0.406372 0
M  V30 13821 C 1292.14 -1.64587 -1.06796 0
M  V30 13822 O 1291.27 -1.15903 -1.82744 0
M  V30 13823 C 1291.86 -3.30824 0.730819 0
M  V30 13824 C 1290.42 -3.74108 0.414766 0
M  V30 13825 C 1289.57 -2.59679 0.972747 0
M  V30 13826 H 1292.52 -1.25623 0.969775 0
M  V30 13827 H 1292.54 -3.80496 0.0168066 0
M  V30 13828 H 1292.05 -3.43628 1.80392 0
M  V30 13829 H 1290.15 -3.66871 -0.650866 0
M  V30 13830 H 1290.27 -4.70074 0.925595 0
M  V30 13831 H 1288.63 -2.51591 0.396772 0
M  V30 13832 H 1289.41 -2.75274 2.05132 0
M  V30 13833 N 1291.86 -0.526279 -1.48553 0
M  V30 13834 C 1293.11 0.0111473 -2.01697 0
M  V30 13835 C 1293.42 1.35675 -1.40895 0
M  V30 13836 O 1294.63 1.98233 -1.85515 0
M  V30 13837 C 1293.08 0.0702721 -3.59831 0
M  V30 13838 C 1292.69 -1.27022 -4.29616 0
M  V30 13839 C 1294.44 0.556722 -4.20834 0
M  V30 13840 C 1292.34 -1.17188 -5.79673 0
M  V30 13841 H 1291.27 0.00793697 -0.753958 0
M  V30 13842 H 1293.92 -0.669503 -1.70851 0
M  V30 13843 H 1292.31 0.81592 -3.87503 0
M  V30 13844 H 1293.48 -2.03114 -4.1362 0
M  V30 13845 H 1291.79 -1.69211 -3.80469 0
M  V30 13846 H 1294.39 0.648205 -5.30756 0
M  V30 13847 H 1294.73 1.56163 -3.859 0
M  V30 13848 H 1295.27 -0.133132 -3.97577 0
M  V30 13849 H 1292.01 -2.15182 -6.19174 0
M  V30 13850 H 1291.53 -0.452259 -5.98093 0
M  V30 13851 H 1293.21 -0.861011 -6.41245 0
M  V30 13852 N 1293.34 1.5542 -0.261239 0
M  V30 13853 C 1294.75 1.59327 0.0932655 0
M  V30 13854 C 1294.95 1.27846 1.55748 0
M  V30 13855 O 1294.01 1.03265 2.30418 0
M  V30 13856 C 1295.32 2.99496 -0.268856 0
M  V30 13857 C 1296.87 3.12265 -0.21433 0
M  V30 13858 C 1297.35 4.54677 -0.55069 0
M  V30 13859 N 1298.84 4.60475 -0.501723 0
M  V30 13860 C 1299.57 5.6867 -0.734961 0
M  V30 13861 N 1299.07 6.85069 -1.03209 0
M  V30 13862 N 1300.86 5.58156 -0.664696 0
M  V30 13863 H 1293.01 1.7415 -1.21595 0
M  V30 13864 H 1295.27 0.811382 -0.490268 0
M  V30 13865 H 1294.98 3.2732 -1.28664 0
M  V30 13866 H 1294.85 3.75104 0.397097 0
M  V30 13867 H 1297.24 2.84213 0.794148 0
M  V30 13868 H 1297.32 2.389 -0.914342 0
M  V30 13869 H 1296.97 4.83453 -1.55679 0
M  V30 13870 H 1296.9 5.26322 0.170959 0
M  V30 13871 H 1299.39 3.76851 -0.281387 0
M  V30 13872 H 1299.7 7.63472 -1.19709 0
M  V30 13873 H 1298.05 6.86718 -1.06971 0
M  V30 13874 H 1301.24 4.66098 -0.432513 0
M  V30 13875 H 1301.41 6.42403 -0.849857 0
M  V30 13876 N 1294.82 -0.0116844 1.57596 0
M  V30 13877 C 1296.06 -0.699994 1.90336 0
M  V30 13878 C 1296.39 -1.74067 0.861072 0
M  V30 13879 O 1295.67 -1.94119 -0.121712 0
M  V30 13880 C 1295.95 -1.35377 3.33684 0
M  V30 13881 C 1295.81 -0.325434 4.48621 0
M  V30 13882 C 1297.12 -2.28312 3.76247 0
M  V30 13883 H 1294.24 -0.253002 0.692213 0
M  V30 13884 H 1296.89 0.037211 1.89964 0
M  V30 13885 H 1295.04 -1.98212 3.34132 0
M  V30 13886 H 1296.71 0.302331 4.60308 0
M  V30 13887 H 1294.95 0.353527 4.32357 0
M  V30 13888 H 1295.62 -0.8217 5.4585 0
M  V30 13889 H 1298.1 -1.75505 3.77276 0
M  V30 13890 H 1296.97 -2.71028 4.77321 0
M  V30 13891 H 1297.23 -3.15727 3.09465 0
M  V30 13892 N 1296.29 -1.55015 -0.284256 0
M  V30 13893 C 1297.54 -1.74744 -1.01532 0
M  V30 13894 C 1297.86 -0.545334 -1.87219 0
M  V30 13895 O 1297.13 0.440046 -1.90894 0
M  V30 13896 H 1295.71 -0.644382 -0.377864 0
M  V30 13897 H 1298.37 -1.92399 -0.311199 0
M  V30 13898 H 1297.47 -2.64369 -1.65878 0
M  V30 13899 N 1297.77 0.548248 -1.47757 0
M  V30 13900 C 1299.01 1.31569 -1.56426 0
M  V30 13901 C 1299.38 1.90676 -0.225072 0
M  V30 13902 O 1300.58 2.68151 -0.186652 0
M  V30 13903 C 1298.85 2.38951 -2.65776 0
M  V30 13904 S 1300.41 3.25664 -2.94089 0
M  V30 13905 H 1297.22 0.447791 -0.552272 0
M  V30 13906 H 1299.83 0.626659 -1.85184 0
M  V30 13907 H 1298.53 1.93978 -3.61664 0
M  V30 13908 H 1298.06 3.12584 -2.38861 0
M  V30 13909 H 1300.08 4.38629 -2.31989 0
M  V30 13910 N 1299.25 1.36039 0.795694 0
M  V30 13911 C 1300.2 1.26386 1.89765 0
M  V30 13912 C 1301.18 0.156711 1.60135 0
M  V30 13913 O 1302.38 0.388946 1.72674 0
M  V30 13914 C 1299.5 1.04907 3.26878 0
M  V30 13915 C 1298.59 2.20061 3.62538 0
M  V30 13916 N 1298.98 3.45347 3.69553 0
M  V30 13917 C 1297.28 2.11688 3.92561 0
M  V30 13918 C 1297.98 4.21138 4.0127 0
M  V30 13919 N 1296.96 3.5001 4.15925 0
M  V30 13920 H 1300.76 2.21295 1.93405 0
M  V30 13921 H 1298.27 1.28668 0.990877 0
M  V30 13922 H 1300.27 0.960791 4.05678 0
M  V30 13923 H 1298.93 0.108921 3.24517 0
M  V30 13924 H 1299.94 3.79561 3.52355 0
M  V30 13925 H 1296.62 1.25592 3.98162 0
M  V30 13926 H 1298.01 5.29456 4.13673 0
M  V30 13927 N 1300.73 -1.01913 1.20215 0
M  V30 13928 C 1301.68 -2.104 0.948708 0
M  V30 13929 C 1302.65 -1.65665 -0.120139 0
M  V30 13930 O 1303.83 -1.90785 0.0240547 0
M  V30 13931 C 1300.97 -3.41398 0.504132 0
M  V30 13932 C 1300.08 -3.99625 1.64085 0
M  V30 13933 C 1299.22 -5.18673 1.14683 0
M  V30 13934 C 1298.26 -5.68977 2.2568 0
M  V30 13935 N 1297.39 -6.79289 1.77514 0
M  V30 13936 H 1302.23 -2.31415 1.87753 0
M  V30 13937 H 1299.77 -1.13487 0.935901 0
M  V30 13938 H 1301.73 -4.16578 0.22771 0
M  V30 13939 H 1300.36 -3.20463 -0.387689 0
M  V30 13940 H 1299.41 -3.21565 2.03225 0
M  V30 13941 H 1300.72 -4.32965 2.47674 0
M  V30 13942 H 1299.88 -6.01048 0.826223 0
M  V30 13943 H 1298.62 -4.86891 0.280797 0
M  V30 13944 H 1297.62 -4.85208 2.5856 0
M  V30 13945 H 1298.85 -6.02794 3.12755 0
M  V30 13946 H 1296.79 -6.49341 0.932338 0
M  V30 13947 H 1296.71 -7.11808 2.54686 0
M  V30 13948 H 1297.98 -7.65235 1.48446 0
M  V30 13949 N 1302.21 -1.00763 -1.2118 0
M  V30 13950 C 1303.14 -0.590493 -2.2591 0
M  V30 13951 C 1304.12 0.390002 -1.65569 0
M  V30 13952 O 1305.3 0.277406 -1.92208 0
M  V30 13953 C 1302.43 0.0810388 -3.47205 0
M  V30 13954 C 1301.39 -0.81951 -4.20081 0
M  V30 13955 C 1300.71 -0.014244 -5.34698 0
M  V30 13956 C 1302.01 -2.12336 -4.7719 0
M  V30 13957 H 1303.71 -1.46595 -2.61056 0
M  V30 13958 H 1301.25 -0.706321 -1.25487 0
M  V30 13959 H 1303.21 0.384355 -4.19644 0
M  V30 13960 H 1301.93 0.991145 -3.11197 0
M  V30 13961 H 1300.59 -1.10669 -3.49497 0
M  V30 13962 H 1300.24 0.897233 -4.94933 0
M  V30 13963 H 1299.94 -0.613883 -5.84384 0
M  V30 13964 H 1301.46 0.282827 -6.09945 0
M  V30 13965 H 1302.87 -1.88301 -5.41494 0
M  V30 13966 H 1301.27 -2.67308 -5.37277 0
M  V30 13967 H 1302.34 -2.79238 -3.96427 0
M  V30 13968 N 1303.68 1.3679 -0.7827 0
M  V30 13969 C 1304.93 1.98664 -0.348634 0
M  V30 13970 C 1305.25 1.62827 1.08382 0
M  V30 13971 O 1306.45 2.17886 1.61982 0
M  V30 13972 C 1304.91 3.55319 -0.572392 0
M  V30 13973 C 1304.52 4.00086 -2.01582 0
M  V30 13974 C 1306.26 4.24017 -0.202496 0
M  V30 13975 C 1304.17 5.49493 -2.18659 0
M  V30 13976 H 1303.1 0.743294 -0.126612 0
M  V30 13977 H 1305.75 1.56177 -0.963383 0
M  V30 13978 H 1304.13 3.95842 0.111973 0
M  V30 13979 H 1305.3 3.7078 -2.73603 0
M  V30 13980 H 1303.62 3.44205 -2.34333 0
M  V30 13981 H 1306.22 5.3381 -0.308459 0
M  V30 13982 H 1306.56 4.07559 0.84859 0
M  V30 13983 H 1307.09 3.88834 -0.839834 0
M  V30 13984 H 1303.83 5.7089 -3.22126 0
M  V30 13985 H 1303.35 5.80447 -1.51134 0
M  V30 13986 H 1305.03 6.15621 -1.99048 0
M  V30 13987 N 1305.16 0.53415 1.48272 0
M  V30 13988 C 1306.11 -0.239672 2.31362 0
M  V30 13989 C 1307.1 -0.931501 1.4149 0
M  V30 13990 O 1308.31 -0.855411 1.58375 0
M  V30 13991 H 1304.69 -0.09616 0.745827 0
M  V30 13992 H 1306.66 0.480638 2.94504 0
M  V30 13993 C 1305.41 -1.27102 3.23636 0
M  V30 13994 H 1304.73 -0.748082 3.92739 0
M  V30 13995 H 1306.17 -1.78379 3.84652 0
M  V30 13996 C 1304.63 -2.30683 2.45534 0
M  V30 13997 O 1305.16 -3.37197 2.18314 0
M  V30 13998 N 1303.36 -2.04006 2.06954 0
M  V30 13999 H 1302.91 -1.17403 2.29291 0
M  V30 14000 H 1302.87 -2.73531 1.5501 0
M  V30 14001 N 1306.64 -1.55279 0.269478 0
M  V30 14002 C 1307.59 -2.18984 -0.634838 0
M  V30 14003 C 1308.57 -1.15269 -1.12258 0
M  V30 14004 O 1309.77 -1.41103 -1.0686 0
M  V30 14005 C 1306.9 -2.91014 -1.82114 0
M  V30 14006 C 1305.98 -4.02011 -1.35084 0
M  V30 14007 N 1306.37 -5.02273 -0.596299 0
M  V30 14008 C 1304.67 -4.14979 -1.63427 0
M  V30 14009 C 1305.37 -5.80647 -0.349781 0
M  V30 14010 N 1304.35 -5.35749 -0.92057 0
M  V30 14011 H 1308.15 -2.93857 -0.0504516 0
M  V30 14012 H 1305.66 -1.62237 0.0727843 0
M  V30 14013 H 1307.66 -3.35098 -2.48022 0
M  V30 14014 H 1306.32 -2.1765 -2.40953 0
M  V30 14015 H 1307.33 -5.17324 -0.244188 0
M  V30 14016 H 1304.01 -3.52802 -2.23242 0
M  V30 14017 H 1305.4 -6.71419 0.254139 0
M  V30 14018 N 1308.12 0.00332656 -1.576 0
M  V30 14019 C 1309.07 1.00425 -2.04692 0
M  V30 14020 C 1310.05 1.30514 -0.941011 0
M  V30 14021 O 1311.24 1.29667 -1.2048 0
M  V30 14022 C 1308.37 2.29731 -2.55105 0
M  V30 14023 C 1307.46 2.02621 -3.72566 0
M  V30 14024 N 1307.85 1.45657 -4.84373 0
M  V30 14025 C 1306.15 2.3278 -3.80433 0
M  V30 14026 C 1306.85 1.34942 -5.65832 0
M  V30 14027 N 1305.83 1.83389 -5.11732 0
M  V30 14028 H 1309.63 0.558262 -2.88549 0
M  V30 14029 H 1307.14 0.209094 -1.61048 0
M  V30 14030 H 1309.14 3.02274 -2.87116 0
M  V30 14031 H 1307.8 2.74985 -1.72665 0
M  V30 14032 H 1308.81 1.13582 -5.05291 0
M  V30 14033 H 1305.49 2.80932 -3.08842 0
M  V30 14034 H 1306.88 0.911707 -6.65686 0
M  V30 14035 N 1309.6 1.55164 0.276031 0
M  V30 14036 C 1310.85 1.74833 1.0058 0
M  V30 14037 C 1311.16 0.555089 1.87558 0
M  V30 14038 O 1312.36 0.634127 2.63991 0
M  V30 14039 C 1310.82 3.09417 1.83818 0
M  V30 14040 C 1310.43 4.36299 1.01721 0
M  V30 14041 C 1312.17 3.38437 2.56244 0
M  V30 14042 C 1310.08 5.61923 1.8438 0
M  V30 14043 H 1309.01 0.651676 0.379254 0
M  V30 14044 H 1311.66 1.81626 0.26161 0
M  V30 14045 H 1310.04 2.96654 2.62321 0
M  V30 14046 H 1311.22 4.59969 0.276565 0
M  V30 14047 H 1309.53 4.144 0.407645 0
M  V30 14048 H 1312.13 4.29501 3.18485 0
M  V30 14049 H 1312.47 2.58432 3.26372 0
M  V30 14050 H 1313 3.52284 1.84773 0
M  V30 14051 H 1309.74 6.44667 1.18679 0
M  V30 14052 H 1309.26 5.424 2.56051 0
M  V30 14053 H 1310.94 6.0011 2.4182 0
M  V30 14054 N 1311.07 -0.540404 1.48045 0
M  V30 14055 C 1312.32 -1.29678 1.55531 0
M  V30 14056 C 1312.65 -1.93197 0.224725 0
M  V30 14057 O 1311.9 -1.79308 -0.784028 0
M  V30 14058 C 1312.2 -2.41517 2.63447 0
M  V30 14059 C 1311.87 -1.95719 4.06208 0
M  V30 14060 C 1310.53 -1.82946 4.45067 0
M  V30 14061 C 1312.88 -1.6098 4.95717 0
M  V30 14062 C 1310.21 -1.33753 5.7125 0
M  V30 14063 C 1312.56 -1.13253 6.2238 0
M  V30 14064 C 1311.23 -0.990886 6.60104 0
M  V30 14065 H 1310.5 -0.474525 0.569129 0
M  V30 14066 H 1313.14 -0.604209 1.81718 0
M  V30 14067 H 1311.45 -3.16401 2.3108 0
M  V30 14068 H 1313.15 -2.9967 2.66457 0
M  V30 14069 H 1309.74 -2.06609 3.75514 0
M  V30 14070 H 1313.92 -1.69713 4.66381 0
M  V30 14071 H 1309.18 -1.21465 5.99213 0
M  V30 14072 H 1313.35 -0.854401 6.91139 0
M  V30 14073 H 1310.98 -0.607497 7.57769 0
M  V30 14074 N 1312.55 -1.36459 -0.788468 0
M  V30 14075 C 1313.78 -1.33898 -1.57731 0
M  V30 14076 C 1314.2 0.0795471 -1.88632 0
M  V30 14077 O 1313.55 1.03671 -1.50195 0
M  V30 14078 C 1313.6 -2.16134 -2.89773 0
M  V30 14079 O 1313.32 -3.52457 -2.60203 0
M  V30 14080 C 1314.83 -2.21364 -3.84074 0
M  V30 14081 H 1312.05 -0.459269 -0.489197 0
M  V30 14082 H 1314.59 -1.79569 -0.978526 0
M  V30 14083 H 1312.74 -1.74015 -3.46118 0
M  V30 14084 H 1313.16 -3.95378 -3.4464 0
M  V30 14085 H 1314.63 -2.83261 -4.7378 0
M  V30 14086 H 1315.11 -1.21736 -4.21992 0
M  V30 14087 H 1315.72 -2.63723 -3.33662 0
M  V30 14088 N 1314.03 1.01274 -1.20754 0
M  V30 14089 C 1314.98 2.12012 -0.95675 0
M  V30 14090 C 1315.97 1.69143 0.0932738 0
M  V30 14091 O 1317.18 1.79908 -0.0574298 0
M  V30 14092 H 1313.55 0.692956 -0.292088 0
M  V30 14093 H 1315.52 2.30347 -1.89692 0
M  V30 14094 C 1314.27 3.43643 -0.529602 0
M  V30 14095 H 1313.6 3.77058 -1.32918 0
M  V30 14096 H 1315.04 4.22171 -0.393376 0
M  V30 14097 C 1313.5 3.2825 0.758505 0
M  V30 14098 O 1314.03 3.58309 1.81598 0
M  V30 14099 N 1312.23 2.81487 0.722022 0
M  V30 14100 H 1311.78 2.57226 -0.138807 0
M  V30 14101 H 1311.74 2.7157 1.58421 0
M  V30 14102 N 1315.51 1.01404 1.20644 0
M  V30 14103 C 1316.44 0.602465 2.25594 0
M  V30 14104 C 1317.42 -0.381216 1.65773 0
M  V30 14105 O 1318.61 -0.267209 1.92353 0
M  V30 14106 C 1315.74 -0.0626245 3.47244 0
M  V30 14107 C 1314.69 0.841776 4.1964 0
M  V30 14108 C 1314.02 0.0426002 5.34683 0
M  V30 14109 C 1315.32 2.14864 4.76058 0
M  V30 14110 H 1317.01 1.47977 2.60275 0
M  V30 14111 H 1314.56 0.712966 1.25111 0
M  V30 14112 H 1316.51 -0.362095 4.19841 0
M  V30 14113 H 1315.23 -0.974627 3.11719 0
M  V30 14114 H 1313.89 1.12521 3.48905 0
M  V30 14115 H 1313.54 -0.870973 4.95402 0
M  V30 14116 H 1313.24 0.644866 5.84051 0
M  V30 14117 H 1314.76 -0.250476 6.10086 0
M  V30 14118 H 1316.18 1.9117 5.40488 0
M  V30 14119 H 1314.57 2.70153 5.35852 0
M  V30 14120 H 1315.64 2.81336 3.9494 0
M  V30 14121 N 1316.99 -1.36373 0.789944 0
M  V30 14122 C 1318.24 -1.98476 0.359165 0
M  V30 14123 C 1318.55 -1.634 -1.07517 0
M  V30 14124 O 1319.76 -2.18742 -1.60824 0
M  V30 14125 C 1318.21 -3.55011 0.591228 0
M  V30 14126 C 1317.82 -3.99011 2.03701 0
M  V30 14127 C 1319.56 -4.23903 0.224979 0
M  V30 14128 C 1317.47 -5.48325 2.2157 0
M  V30 14129 H 1316.4 -0.742612 0.130552 0
M  V30 14130 H 1319.05 -1.55664 0.971652 0
M  V30 14131 H 1317.43 -3.95895 -0.0909788 0
M  V30 14132 H 1318.61 -3.69324 2.75566 0
M  V30 14133 H 1316.92 -3.42957 2.36155 0
M  V30 14134 H 1319.52 -5.33638 0.336764 0
M  V30 14135 H 1319.86 -4.08004 -0.826964 0
M  V30 14136 H 1320.4 -3.88383 0.860443 0
M  V30 14137 H 1317.13 -5.69173 3.25149 0
M  V30 14138 H 1316.65 -5.79637 1.54211 0
M  V30 14139 H 1318.33 -6.14556 2.0231 0
M  V30 14140 N 1318.47 -0.542005 -1.47987 0
M  V30 14141 C 1319.4 0.202703 -2.32618 0
M  V30 14142 C 1320.38 0.923521 -1.42846 0
M  V30 14143 O 1321.56 0.906957 -1.7172 0
M  V30 14144 C 1318.69 1.24267 -3.24307 0
M  V30 14145 C 1317.65 0.639257 -4.23199 0
M  V30 14146 C 1316.97 1.78275 -5.04105 0
M  V30 14147 C 1318.27 -0.396982 -5.20789 0
M  V30 14148 H 1319.97 -0.503817 -2.95131 0
M  V30 14149 H 1317.51 -0.243736 -1.41922 0
M  V30 14150 H 1319.46 1.7717 -3.82347 0
M  V30 14151 H 1318.19 1.97893 -2.59819 0
M  V30 14152 H 1316.85 0.131655 -3.66364 0
M  V30 14153 H 1316.5 2.50768 -4.36032 0
M  V30 14154 H 1316.2 1.38487 -5.71047 0
M  V30 14155 H 1317.72 2.31533 -5.65 0
M  V30 14156 H 1319.13 0.0454057 -5.73282 0
M  V30 14157 H 1317.53 -0.712911 -5.9585 0
M  V30 14158 H 1318.6 -1.29843 -4.67193 0
M  V30 14159 N 1319.94 1.55134 -0.277709 0
M  V30 14160 C 1321.19 1.99949 0.338831 0
M  V30 14161 C 1321.52 1.16587 1.5531 0
M  V30 14162 O 1320.8 0.236572 1.93056 0
M  V30 14163 C 1321.08 3.5286 0.718457 0
M  V30 14164 C 1320.93 4.46975 -0.503332 0
M  V30 14165 C 1322.25 4.11754 1.55392 0
M  V30 14166 H 1319.37 0.726885 0.121682 0
M  V30 14167 H 1322.01 1.86055 -0.385171 0
M  V30 14168 H 1320.16 3.64831 1.33531 0
M  V30 14169 H 1321.84 4.46944 -1.14188 0
M  V30 14170 H 1320.08 4.18528 -1.14092 0
M  V30 14171 H 1320.75 5.51659 -0.193912 0
M  V30 14172 H 1323.23 4.03075 1.03293 0
M  V30 14173 H 1322.1 5.1895 1.78835 0
M  V30 14174 H 1322.36 3.62147 2.53578 0
M  V30 14175 N 1321.42 0.00503138 1.57599 0
M  V30 14176 C 1322.67 -0.678761 1.90785 0
M  V30 14177 C 1323 -1.73499 0.87911 0
M  V30 14178 O 1322.25 -1.95359 -0.115418 0
M  V30 14179 C 1322.55 -1.35485 3.30724 0
M  V30 14180 C 1322.22 -0.431335 4.48832 0
M  V30 14181 C 1320.88 -0.177078 4.80874 0
M  V30 14182 C 1323.23 0.204219 5.208 0
M  V30 14183 C 1320.56 0.720944 5.82254 0
M  V30 14184 C 1322.91 1.09015 6.23136 0
M  V30 14185 C 1321.57 1.35353 6.53633 0
M  V30 14186 H 1320.84 -0.248376 0.698133 0
M  V30 14187 H 1323.49 0.061638 1.91401 0
M  V30 14188 H 1321.8 -2.16942 3.26257 0
M  V30 14189 H 1323.49 -1.89007 3.53663 0
M  V30 14190 H 1320.08 -0.639676 4.238 0
M  V30 14191 H 1324.27 0.0208074 4.96296 0
M  V30 14192 H 1319.52 0.93296 6.0424 0
M  V30 14193 H 1323.7 1.58894 6.78031 0
M  V30 14194 H 1321.32 2.05107 7.32008 0
M  V30 14195 N 1322.9 -1.55308 -0.267798 0
M  V30 14196 C 1324.15 -1.75364 -0.996515 0
M  V30 14197 C 1324.46 -0.565028 -1.87261 0
M  V30 14198 O 1325.67 -0.648119 -2.63651 0
M  V30 14199 C 1324.12 -3.10388 -1.82175 0
M  V30 14200 C 1323.73 -4.36832 -0.994062 0
M  V30 14201 C 1325.48 -3.39791 -2.54445 0
M  V30 14202 C 1323.38 -5.62893 -1.81398 0
M  V30 14203 H 1322.31 -0.653679 -0.375793 0
M  V30 14204 H 1324.96 -1.81762 -0.251975 0
M  V30 14205 H 1323.35 -2.98041 -2.60744 0
M  V30 14206 H 1324.52 -4.6011 -0.252167 0
M  V30 14207 H 1322.83 -4.1461 -0.385662 0
M  V30 14208 H 1325.43 -4.31184 -3.16203 0
M  V30 14209 H 1325.77 -2.60159 -3.24997 0
M  V30 14210 H 1326.31 -3.53259 -1.82902 0
M  V30 14211 H 1323.05 -6.45287 -1.15258 0
M  V30 14212 H 1322.57 -5.43751 -2.5317 0
M  V30 14213 H 1324.25 -6.01384 -2.38634 0
M  V30 14214 N 1324.38 0.532545 -1.4833 0
M  V30 14215 C 1325.31 1.65392 -1.57229 0
M  V30 14216 C 1326.29 1.57005 -0.422884 0
M  V30 14217 O 1327.47 1.77513 -0.634132 0
M  V30 14218 C 1324.6 3.03778 -1.49789 0
M  V30 14219 C 1323.65 3.30532 -2.69538 0
M  V30 14220 S 1324.48 3.17084 -4.3153 0
M  V30 14221 C 1325.63 4.57921 -4.26684 0
M  V30 14222 H 1325.87 1.57593 -2.52095 0
M  V30 14223 H 1323.4 0.715307 -1.36831 0
M  V30 14224 H 1325.36 3.83589 -1.46183 0
M  V30 14225 H 1324.02 3.0902 -0.562646 0
M  V30 14226 H 1323.21 4.31479 -2.60464 0
M  V30 14227 H 1322.81 2.58386 -2.70393 0
M  V30 14228 H 1325.11 5.49387 -3.96459 0
M  V30 14229 H 1326.05 4.72049 -5.27802 0
M  V30 14230 H 1326.46 4.37123 -3.57188 0
M  V30 14231 N 1325.86 1.36875 0.78122 0
M  V30 14232 C 1326.79 1.34559 1.9083 0
M  V30 14233 C 1327.77 0.215713 1.68727 0
M  V30 14234 O 1328.95 0.41462 1.89722 0
M  V30 14235 C 1326.08 1.14233 3.27976 0
M  V30 14236 C 1325.04 2.24132 3.64621 0
M  V30 14237 C 1324.36 1.8894 5.00206 0
M  V30 14238 C 1325.66 3.66266 3.72353 0
M  V30 14239 H 1327.36 2.28871 1.93025 0
M  V30 14240 H 1324.9 1.10171 0.927275 0
M  V30 14241 H 1326.85 1.11246 4.06451 0
M  V30 14242 H 1325.58 0.163747 3.26189 0
M  V30 14243 H 1324.24 2.26259 2.88448 0
M  V30 14244 H 1323.89 0.896351 4.94949 0
M  V30 14245 H 1323.59 2.62525 5.25694 0
M  V30 14246 H 1325.11 1.87523 5.81092 0
M  V30 14247 H 1326.52 3.66321 4.41001 0
M  V30 14248 H 1324.92 4.38825 4.09332 0
M  V30 14249 H 1325.99 4.00578 2.7325 0
M  V30 14250 N 1327.33 -1.00632 1.21289 0
M  V30 14251 C 1328.56 -1.78503 1.05601 0
M  V30 14252 C 1328.98 -1.84015 -0.389879 0
M  V30 14253 O 1328.34 -1.28277 -1.2812 0
M  V30 14254 C 1328.39 -3.20313 1.65626 0
M  V30 14255 O 1327.49 -4.02441 0.900841 0
M  V30 14256 H 1326.83 -0.550183 0.371746 0
M  V30 14257 H 1329.36 -1.26505 1.60803 0
M  V30 14258 H 1329.37 -3.70992 1.69792 0
M  V30 14259 H 1328.05 -3.15616 2.7085 0
M  V30 14260 H 1326.63 -3.61009 0.934178 0
M  V30 14261 N 1328.81 -1.02043 -1.20104 0
M  V30 14262 C 1330.04 -0.731142 -1.94085 0
M  V30 14263 C 1330.46 0.702467 -1.74491 0
M  V30 14264 O 1329.82 1.48387 -1.04168 0
M  V30 14265 C 1329.87 -1.07691 -3.44144 0
M  V30 14266 O 1328.97 -0.190751 -4.11959 0
M  V30 14267 H 1328.31 -0.270917 -0.606218 0
M  V30 14268 H 1330.84 -1.36483 -1.52426 0
M  V30 14269 H 1330.85 -1.03023 -3.94779 0
M  V30 14270 H 1329.53 -2.1214 -3.57728 0
M  V30 14271 H 1328.1 -0.29529 -3.71729 0
M  V30 14272 N 1330.29 1.35952 -0.797165 0
M  V30 14273 C 1331.25 2.28266 -0.206748 0
M  V30 14274 C 1332.25 1.49169 0.60043 0
M  V30 14275 O 1333.44 1.69054 0.42029 0
M  V30 14276 C 1330.58 3.33363 0.712884 0
M  V30 14277 H 1331.77 2.81992 -1.02082 0
M  V30 14278 H 1329.32 1.45648 -0.567138 0
M  V30 14279 H 1330.06 2.84806 1.551 0
M  V30 14280 H 1329.84 3.91864 0.135926 0
M  V30 14281 H 1331.33 4.02284 1.1206 0
M  V30 14282 N 1331.77 0.549846 1.47697 0
M  V30 14283 C 1332.73 -0.191427 2.28399 0
M  V30 14284 C 1333.73 -0.849533 1.36527 0
M  V30 14285 O 1334.92 -0.706526 1.59229 0
M  V30 14286 C 1332.05 -1.27907 3.15995 0
M  V30 14287 H 1333.25 0.517375 2.95404 0
M  V30 14288 H 1330.8 0.30651 1.53265 0
M  V30 14289 H 1331.53 -2.0205 2.53665 0
M  V30 14290 H 1331.32 -0.812066 3.83599 0
M  V30 14291 H 1332.81 -1.79992 3.76819 0
M  V30 14292 N 1333.25 -1.54984 0.285932 0
M  V30 14293 C 1334.18 -2.25916 -0.590259 0
M  V30 14294 C 1335.16 -1.25319 -1.15018 0
M  V30 14295 O 1336.34 -1.54062 -1.18231 0
M  V30 14296 C 1333.47 -2.98849 -1.76936 0
M  V30 14297 C 1332.43 -4.06466 -1.3405 0
M  V30 14298 C 1331.75 -4.67032 -2.60356 0
M  V30 14299 C 1333.05 -5.20064 -0.482754 0
M  V30 14300 H 1334.75 -2.994 0.00131571 0
M  V30 14301 H 1332.29 -1.44 0.00207281 0
M  V30 14302 H 1334.25 -3.47186 -2.3883 0
M  V30 14303 H 1332.97 -2.22918 -2.38694 0
M  V30 14304 H 1331.63 -3.58957 -0.7447 0
M  V30 14305 H 1331.28 -3.87757 -3.20396 0
M  V30 14306 H 1330.98 -5.39703 -2.32368 0
M  V30 14307 H 1332.5 -5.18124 -3.23079 0
M  V30 14308 H 1333.91 -5.64387 -1.00697 0
M  V30 14309 H 1332.31 -5.99363 -0.297291 0
M  V30 14310 H 1333.38 -4.82358 0.495861 0
M  V30 14311 N 1334.72 -0.0133892 -1.57594 0
M  V30 14312 C 1335.69 0.958601 -2.08191 0
M  V30 14313 C 1336.69 1.26408 -0.993865 0
M  V30 14314 O 1337.88 1.20703 -1.25604 0
M  V30 14315 C 1335.01 2.27971 -2.5346 0
M  V30 14316 H 1336.2 0.520686 -2.95345 0
M  V30 14317 H 1333.76 0.234351 -1.54533 0
M  V30 14318 H 1334.49 2.76424 -1.69588 0
M  V30 14319 H 1334.28 2.07116 -3.32935 0
M  V30 14320 H 1335.77 2.97672 -2.92884 0
M  V30 14321 N 1336.2 1.55448 0.259558 0
M  V30 14322 C 1337.17 1.88459 1.30445 0
M  V30 14323 C 1338.17 0.760096 1.41701 0
M  V30 14324 O 1339.36 1.02819 1.4062 0
M  V30 14325 C 1336.49 2.10181 2.68397 0
M  V30 14326 H 1337.68 2.81877 1.02398 0
M  V30 14327 H 1335.23 1.48145 0.498262 0
M  V30 14328 H 1335.97 1.19189 3.01603 0
M  V30 14329 H 1335.75 2.92066 2.6161 0
M  V30 14330 H 1337.24 2.36947 3.43869 0
M  V30 14331 N 1337.68 -0.524672 1.4861 0
M  V30 14332 C 1338.59 -1.65554 1.6622 0
M  V30 14333 C 1339.61 -1.65254 0.54471 0
M  V30 14334 O 1340.78 -1.84109 0.816454 0
M  V30 14335 C 1337.85 -3.02003 1.7028 0
M  V30 14336 C 1336.91 -3.13116 2.93695 0
M  V30 14337 C 1336.14 -4.43055 2.97553 0
M  V30 14338 O 1336.36 -5.30468 2.09667 0
M  V30 14339 O 1335.3 -4.58646 3.89779 0
M  V30 14340 H 1339.12 -1.53633 2.61974 0
M  V30 14341 H 1336.71 -0.698354 1.32073 0
M  V30 14342 H 1338.59 -3.83143 1.75441 0
M  V30 14343 H 1337.27 -3.14236 0.777002 0
M  V30 14344 H 1336.17 -2.31251 2.94064 0
M  V30 14345 H 1337.51 -3.058 3.85677 0
M  V30 14346 N 1339.16 -1.37287 -0.77395 0
M  V30 14347 C 1340.44 -1.2291 -1.52159 0
M  V30 14348 C 1340.82 0.178249 -2.10346 0
M  V30 14349 O 1340.16 1.18564 -1.95333 0
M  V30 14350 C 1340.37 -2.32337 -2.60424 0
M  V30 14351 C 1341.72 -2.69769 -3.27887 0
M  V30 14352 O 1342.75 -2.31497 -2.70717 0
M  V30 14353 O 1341.6 -3.35699 -4.31241 0
M  V30 14354 H 1338.7 -0.47948 -0.673816 0
M  V30 14355 H 1341.24 -1.49061 -0.811105 0
M  V30 14356 H 1340.02 -3.26591 -2.15532 0
M  V30 14357 H 1339.64 -2.07638 -3.39076 0
M  V30 14358 N 1340.64 0.999871 -1.21821 0
M  V30 14359 C 1342.05 1.5529 -1.03642 0
M  V30 14360 C 1342.4 1.92032 0.402246 0
M  V30 14361 O 1341.52 1.74027 1.28622 0
M  V30 14362 C 1342.12 2.82177 -1.87514 0
M  V30 14363 C 1340.68 3.33949 -1.73653 0
M  V30 14364 C 1339.82 2.07095 -1.84409 0
M  V30 14365 H 1342.78 0.821751 -1.35768 0
M  V30 14366 H 1342.8 3.54264 -1.38842 0
M  V30 14367 H 1342.31 2.55405 -2.92216 0
M  V30 14368 H 1340.41 3.65645 -0.716554 0
M  V30 14369 H 1340.52 4.05022 -2.55918 0
M  V30 14370 H 1338.89 2.20332 -1.27773 0
M  V30 14371 H 1339.67 1.82728 -2.90629 0
M  V30 14372 N 1342.11 1.02678 1.19562 0
M  V30 14373 C 1343.36 0.717279 1.88515 0
M  V30 14374 C 1343.68 -0.757063 1.80355 0
M  V30 14375 O 1344.88 -1.17953 2.44539 0
M  V30 14376 C 1343.34 1.23265 3.38133 0
M  V30 14377 C 1342.95 2.73462 3.54856 0
M  V30 14378 C 1344.69 0.99904 4.12577 0
M  V30 14379 C 1342.6 3.18428 4.98355 0
M  V30 14380 H 1341.53 0.264608 0.706044 0
M  V30 14381 H 1344.18 1.2408 1.3519 0
M  V30 14382 H 1342.56 0.637052 3.90842 0
M  V30 14383 H 1343.73 3.38659 3.12485 0
M  V30 14384 H 1342.05 2.95079 2.93798 0
M  V30 14385 H 1344.65 1.3103 5.18397 0
M  V30 14386 H 1344.99 -0.064217 4.1625 0
M  V30 14387 H 1345.52 1.55853 3.65998 0
M  V30 14388 H 1342.26 4.24074 4.99842 0
M  V30 14389 H 1341.78 2.57958 5.41496 0
M  V30 14390 H 1343.46 3.11649 5.66996 0
M  V30 14391 N 1343.59 -1.35528 0.804364 0
M  V30 14392 C 1345.01 -1.51962 0.487831 0
M  V30 14393 C 1345.21 -1.75426 -0.991353 0
M  V30 14394 O 1344.26 -1.7944 -1.77644 0
M  V30 14395 C 1345.58 -2.69626 1.33126 0
M  V30 14396 C 1347.13 -2.83502 1.32648 0
M  V30 14397 C 1347.6 -4.04188 2.15397 0
M  V30 14398 N 1349.09 -4.11362 2.12922 0
M  V30 14399 C 1349.83 -5.03856 2.73709 0
M  V30 14400 N 1349.32 -6.01696 3.43415 0
M  V30 14401 N 1351.12 -4.96585 2.63363 0
M  V30 14402 H 1343.27 -1.18553 1.76235 0
M  V30 14403 H 1345.53 -0.57986 0.749977 0
M  V30 14404 H 1345.24 -2.58857 2.38088 0
M  V30 14405 H 1345.11 -3.64168 0.982934 0
M  V30 14406 H 1347.5 -2.93723 0.284712 0
M  V30 14407 H 1347.58 -1.89824 1.71466 0
M  V30 14408 H 1347.22 -3.94728 3.19613 0
M  V30 14409 H 1347.15 -4.97044 1.7394 0
M  V30 14410 H 1349.64 -3.41319 1.62203 0
M  V30 14411 H 1349.96 -6.68866 3.8709 0
M  V30 14412 H 1348.3 -6.01877 3.47519 0
M  V30 14413 H 1351.49 -4.19103 2.08496 0
M  V30 14414 H 1351.66 -5.68478 3.11026 0
M  V30 14415 N 1345.07 -0.557671 -1.47404 0
M  V30 14416 C 1346.3 -0.0366797 -2.07368 0
M  V30 14417 C 1346.72 1.2478 -1.40754 0
M  V30 14418 O 1346.08 1.74757 -0.48268 0
M  V30 14419 C 1346.13 0.141728 -3.60321 0
M  V30 14420 O 1345.23 1.20419 -3.94427 0
M  V30 14421 H 1344.57 -0.0515319 -0.661997 0
M  V30 14422 H 1347.1 -0.773485 -1.89416 0
M  V30 14423 H 1347.11 0.355787 -4.06446 0
M  V30 14424 H 1345.79 -0.796433 -4.08203 0
M  V30 14425 H 1344.36 0.970589 -3.60047 0
M  V30 14426 N 1346.55 1.54831 -0.294147 0
M  V30 14427 C 1347.5 2.19966 0.599919 0
M  V30 14428 C 1348.48 1.1704 1.1041 0
M  V30 14429 O 1349.68 1.42785 1.04601 0
M  V30 14430 C 1346.8 2.93875 1.77461 0
M  V30 14431 C 1345.89 4.0411 1.28671 0
M  V30 14432 N 1346.28 5.03158 0.516316 0
M  V30 14433 C 1344.58 4.17527 1.56804 0
M  V30 14434 C 1345.28 5.8113 0.257361 0
M  V30 14435 N 1344.26 5.37145 0.835221 0
M  V30 14436 H 1348.06 2.939 0.00369516 0
M  V30 14437 H 1345.57 1.621 -0.0985855 0
M  V30 14438 H 1347.57 3.39001 2.4266 0
M  V30 14439 H 1346.23 2.21456 2.3746 0
M  V30 14440 H 1347.24 5.17647 0.161855 0
M  V30 14441 H 1343.92 3.56309 2.17601 0
M  V30 14442 H 1345.31 6.7093 -0.360924 0
M  V30 14443 N 1348.03 0.0217466 1.57585 0
M  V30 14444 C 1349.25 -0.67246 1.96196 0
M  V30 14445 C 1349.68 -1.6529 0.897827 0
M  V30 14446 O 1349.04 -1.80743 -0.142002 0
M  V30 14447 C 1349.08 -1.36162 3.33905 0
M  V30 14448 O 1348.19 -2.47671 3.29747 0
M  V30 14449 H 1347.53 -0.177238 0.639908 0
M  V30 14450 H 1350.06 0.0814073 2.04438 0
M  V30 14451 H 1350.07 -1.7201 3.69968 0
M  V30 14452 H 1348.74 -0.642893 4.10901 0
M  V30 14453 H 1347.32 -2.13989 3.0539 0
M  V30 14454 N 1349.51 -1.55583 -0.251311 0
M  V30 14455 C 1350.75 -1.77209 -0.979966 0
M  V30 14456 C 1351.08 -0.585279 -1.85485 0
M  V30 14457 O 1350.34 0.431559 -1.90882 0
M  V30 14458 C 1350.63 -3.04291 -1.87461 0
M  V30 14459 C 1350.3 -4.35844 -1.15545 0
M  V30 14460 C 1348.96 -4.71594 -0.956679 0
M  V30 14461 C 1351.31 -5.17189 -0.645381 0
M  V30 14462 C 1348.64 -5.86227 -0.235465 0
M  V30 14463 C 1350.99 -6.32569 0.0623441 0
M  V30 14464 C 1349.66 -6.66943 0.272634 0
M  V30 14465 H 1348.93 -0.648452 -0.358595 0
M  V30 14466 H 1351.58 -1.89856 -0.250423 0
M  V30 14467 H 1349.88 -2.86637 -2.67108 0
M  V30 14468 H 1351.58 -3.18221 -2.44001 0
M  V30 14469 H 1348.17 -4.07757 -1.32031 0
M  V30 14470 H 1352.35 -4.90028 -0.786505 0
M  V30 14471 H 1347.61 -6.11369 -0.0620232 0
M  V30 14472 H 1351.78 -6.94844 0.465234 0
M  V30 14473 H 1349.41 -7.55617 0.833442 0
M  V30 14474 N 1350.98 0.516783 -1.48886 0
M  V30 14475 C 1352.4 0.84654 -1.35299 0
M  V30 14476 C 1352.6 1.97998 -0.374035 0
M  V30 14477 O 1351.66 2.51707 0.200003 0
M  V30 14478 C 1352.97 1.20162 -2.75648 0
M  V30 14479 C 1354.52 1.31074 -2.84233 0
M  V30 14480 C 1354.99 1.69919 -4.25313 0
M  V30 14481 N 1356.48 1.76998 -4.28049 0
M  V30 14482 C 1357.22 2.08466 -5.34162 0
M  V30 14483 N 1356.71 2.38268 -6.50538 0
M  V30 14484 N 1358.51 2.09584 -5.21566 0
M  V30 14485 H 1350.66 -0.230871 -2.11142 0
M  V30 14486 H 1352.92 -0.0406678 -0.947127 0
M  V30 14487 H 1352.63 0.442278 -3.48908 0
M  V30 14488 H 1352.5 2.14875 -3.10014 0
M  V30 14489 H 1354.89 2.06083 -2.1122 0
M  V30 14490 H 1354.97 0.344506 -2.5347 0
M  V30 14491 H 1354.61 0.954667 -4.98847 0
M  V30 14492 H 1354.54 2.67616 -4.5353 0
M  V30 14493 H 1357.03 1.56191 -3.44112 0
M  V30 14494 H 1357.35 2.61423 -7.2724 0
M  V30 14495 H 1355.69 2.35758 -6.53791 0
M  V30 14496 H 1358.88 1.85768 -4.2966 0
M  V30 14497 H 1359.06 2.33776 -6.04362 0
M  V30 14498 N 1352.46 1.37696 0.766659 0
M  V30 14499 C 1353.41 1.33966 1.90147 0
M  V30 14500 C 1354.4 0.2276 1.67864 0
M  V30 14501 O 1355.61 0.395912 1.75592 0
M  V30 14502 H 1351.98 0.417611 0.625384 0
M  V30 14503 H 1353.96 2.29753 1.9041 0
M  V30 14504 C 1352.7 1.16859 3.27474 0
M  V30 14505 H 1352.03 2.01686 3.452 0
M  V30 14506 H 1353.47 1.18301 4.07162 0
M  V30 14507 C 1351.93 -0.125418 3.36666 0
M  V30 14508 O 1352.46 -1.10717 3.86141 0
M  V30 14509 N 1350.66 -0.17784 2.90055 0
M  V30 14510 H 1350.21 0.621737 2.49984 0
M  V30 14511 H 1350.17 -1.04325 2.96587 0
M  V30 14512 N 1353.94 -0.993397 1.22349 0
M  V30 14513 C 1355.17 -1.76838 1.07406 0
M  V30 14514 C 1355.58 -1.8503 -0.37542 0
M  V30 14515 O 1354.94 -1.32008 -1.26016 0
M  V30 14516 C 1354.99 -3.20177 1.67837 0
M  V30 14517 O 1354.71 -3.12429 3.07115 0
M  V30 14518 C 1356.21 -4.14125 1.58161 0
M  V30 14519 H 1353.43 -0.555379 0.376557 0
M  V30 14520 H 1355.98 -1.24893 1.61932 0
M  V30 14521 H 1354.13 -3.69191 1.17375 0
M  V30 14522 H 1354.55 -4.02568 3.36213 0
M  V30 14523 H 1356.02 -5.12455 2.05169 0
M  V30 14524 H 1356.5 -4.35892 0.538073 0
M  V30 14525 H 1357.1 -3.71008 2.07926 0
M  V30 14526 N 1355.42 -1.03311 -1.19015 0
M  V30 14527 C 1356.67 -0.727266 -1.88132 0
M  V30 14528 C 1356.98 0.747488 -1.80754 0
M  V30 14529 O 1358.19 1.16654 -2.45161 0
M  V30 14530 C 1356.64 -1.25056 -3.37474 0
M  V30 14531 C 1356.25 -2.7534 -3.534 0
M  V30 14532 C 1357.99 -1.02091 -4.12041 0
M  V30 14533 C 1355.9 -3.21066 -4.96659 0
M  V30 14534 H 1354.83 -0.268349 -0.704631 0
M  V30 14535 H 1357.48 -1.24795 -1.3453 0
M  V30 14536 H 1355.86 -0.65777 -3.90499 0
M  V30 14537 H 1357.04 -3.40311 -3.10684 0
M  V30 14538 H 1355.35 -2.96633 -2.92229 0
M  V30 14539 H 1357.95 -1.33777 -5.17695 0
M  V30 14540 H 1358.29 0.0421413 -4.16279 0
M  V30 14541 H 1358.83 -1.57792 -3.65166 0
M  V30 14542 H 1355.56 -4.26719 -4.97586 0
M  V30 14543 H 1355.08 -2.60826 -5.4012 0
M  V30 14544 H 1356.76 -3.14651 -5.65335 0
M  V30 14545 N 1356.9 1.35099 -0.81154 0
M  V30 14546 C 1357.83 2.32264 -0.239925 0
M  V30 14547 C 1358.81 1.57708 0.637354 0
M  V30 14548 O 1359.99 1.85751 0.566598 0
M  V30 14549 C 1357.12 3.41931 0.608325 0
M  V30 14550 C 1356.08 4.27659 -0.170869 0
M  V30 14551 C 1355.4 5.28691 0.799398 0
M  V30 14552 C 1356.7 5.0394 -1.37266 0
M  V30 14553 H 1358.4 2.8032 -1.05172 0
M  V30 14554 H 1355.94 1.34773 -0.507185 0
M  V30 14555 H 1357.89 4.08911 1.01832 0
M  V30 14556 H 1356.62 2.92496 1.45306 0
M  V30 14557 H 1355.28 3.62265 -0.562094 0
M  V30 14558 H 1354.93 4.75521 1.63977 0
M  V30 14559 H 1354.63 5.86921 0.282331 0
M  V30 14560 H 1356.15 5.98542 1.20749 0
M  V30 14561 H 1357.56 5.63838 -1.03728 0
M  V30 14562 H 1355.96 5.7169 -1.82456 0
M  V30 14563 H 1357.03 4.34295 -2.15676 0
M  V30 14564 N 1358.37 0.56548 1.47106 0
M  V30 14565 C 1359.62 0.0444375 2.02051 0
M  V30 14566 C 1359.94 -1.31344 1.44131 0
M  V30 14567 O 1359.21 -1.85845 0.619556 0
M  V30 14568 H 1357.79 0.0134375 0.746879 0
M  V30 14569 H 1360.45 0.737362 1.80413 0
M  V30 14570 H 1359.55 -0.0374834 3.12077 0
M  V30 14571 N 1359.85 -1.54672 0.302354 0
M  V30 14572 C 1361.08 -2.04282 -0.308645 0
M  V30 14573 C 1361.49 -1.17912 -1.47965 0
M  V30 14574 O 1360.83 -0.197723 -1.82633 0
M  V30 14575 C 1360.9 -3.49872 -0.826417 0
M  V30 14576 C 1360.56 -4.56473 0.219486 0
M  V30 14577 C 1361.56 -5.0922 1.0484 0
M  V30 14578 C 1359.24 -5.00997 0.361574 0
M  V30 14579 C 1361.24 -6.05033 2.00533 0
M  V30 14580 C 1358.92 -5.9663 1.32195 0
M  V30 14581 C 1359.92 -6.48532 2.1423 0
M  V30 14582 O 1359.61 -7.42292 3.08639 0
M  V30 14583 H 1359.34 -0.67228 -0.0708187 0
M  V30 14584 H 1361.89 -2.00625 0.440314 0
M  V30 14585 H 1360.12 -3.50857 -1.62593 0
M  V30 14586 H 1361.81 -3.8267 -1.35345 0
M  V30 14587 H 1362.58 -4.75615 0.949501 0
M  V30 14588 H 1358.46 -4.60226 -0.267018 0
M  V30 14589 H 1362 -6.45469 2.64604 0
M  V30 14590 H 1357.9 -6.29652 1.42156 0
M  V30 14591 H 1358.67 -7.60098 3.03633 0
M  V30 14592 N 1361.33 -0.0301034 -1.57571 0
M  V30 14593 C 1362.58 0.648323 -1.91841 0
M  V30 14594 C 1362.91 1.72078 -0.906601 0
M  V30 14595 O 1362.16 1.95518 0.0843233 0
M  V30 14596 C 1362.46 1.30206 -3.32838 0
M  V30 14597 C 1362.13 0.359876 -4.49462 0
M  V30 14598 C 1360.79 0.100552 -4.81095 0
M  V30 14599 C 1363.14 -0.287048 -5.20409 0
M  V30 14600 C 1360.47 -0.813484 -5.81033 0
M  V30 14601 C 1362.82 -1.18914 -6.21323 0
M  V30 14602 C 1361.48 -1.45735 -6.51397 0
M  V30 14603 H 1360.75 0.237238 -0.701997 0
M  V30 14604 H 1363.4 -0.0920804 -1.91278 0
M  V30 14605 H 1361.71 2.11724 -3.29667 0
M  V30 14606 H 1363.4 1.83356 -3.56625 0
M  V30 14607 H 1359.99 0.572172 -4.24764 0
M  V30 14608 H 1364.18 -0.0997611 -4.962 0
M  V30 14609 H 1359.43 -1.02897 -6.02679 0
M  V30 14610 H 1363.61 -1.69661 -6.75417 0
M  V30 14611 H 1361.23 -2.16727 -7.28652 0
M  V30 14612 N 1362.81 1.55714 0.243056 0
M  V30 14613 C 1364.09 1.68483 0.993614 0
M  V30 14614 C 1364.47 0.571112 2.03228 0
M  V30 14615 O 1363.81 -0.42491 2.24515 0
M  V30 14616 C 1364.02 3.0894 1.62349 0
M  V30 14617 C 1365.37 3.67663 2.12389 0
M  V30 14618 O 1366.4 3.11764 1.72283 0
M  V30 14619 O 1365.25 4.65664 2.8604 0
M  V30 14620 H 1362.35 0.685415 0.462747 0
M  V30 14621 H 1364.89 1.68043 0.236538 0
M  V30 14622 H 1363.67 3.81451 0.87241 0
M  V30 14623 H 1363.29 3.13407 2.44667 0
M  V30 14624 N 1364.29 -0.50888 1.49158 0
M  V30 14625 C 1365.52 -1.28585 1.61708 0
M  V30 14626 C 1365.92 -1.87047 0.284629 0
M  V30 14627 O 1365.27 -1.68182 -0.738959 0
M  V30 14628 C 1365.33 -2.46043 2.62113 0
M  V30 14629 C 1364.99 -2.0851 4.0666 0
M  V30 14630 C 1365.99 -1.62943 4.93706 0
M  V30 14631 C 1363.68 -2.18386 4.52342 0
M  V30 14632 C 1365.67 -1.27747 6.24467 0
M  V30 14633 C 1363.36 -1.82801 5.83118 0
M  V30 14634 C 1364.35 -1.37555 6.69005 0
M  V30 14635 O 1364.04 -1.02447 7.97345 0
M  V30 14636 H 1363.77 -0.396504 0.547504 0
M  V30 14637 H 1366.33 -0.61834 1.95872 0
M  V30 14638 H 1364.56 -3.15844 2.23113 0
M  V30 14639 H 1366.25 -3.08081 2.64275 0
M  V30 14640 H 1367.01 -1.54766 4.59644 0
M  V30 14641 H 1362.89 -2.52556 3.85664 0
M  V30 14642 H 1366.44 -0.923589 6.91459 0
M  V30 14643 H 1362.33 -1.90626 6.16711 0
M  V30 14644 H 1363.1 -1.15663 8.10287 0
M  V30 14645 N 1365.76 -1.381 -0.759346 0
M  V30 14646 C 1366.73 -1.34674 -1.8546 0
M  V30 14647 C 1367.73 -0.248351 -1.58871 0
M  V30 14648 O 1368.92 -0.504915 -1.66722 0
M  V30 14649 C 1366.05 -1.0952 -3.22828 0
M  V30 14650 H 1367.24 -2.3211 -1.89908 0
M  V30 14651 H 1364.8 -1.2331 -0.960435 0
M  V30 14652 H 1365.53 -0.126664 -3.24053 0
M  V30 14653 H 1365.32 -1.89037 -3.43522 0
M  V30 14654 H 1366.81 -1.09804 -4.02906 0
M  V30 14655 N 1367.24 0.986894 -1.22875 0
M  V30 14656 C 1368.49 1.72729 -1.05693 0
M  V30 14657 C 1368.82 1.90191 0.407121 0
M  V30 14658 O 1368.07 1.44667 1.31796 0
M  V30 14659 C 1368.37 3.13283 -1.72012 0
M  V30 14660 C 1368.04 3.15719 -3.2192 0
M  V30 14661 C 1366.7 3.1609 -3.62823 0
M  V30 14662 C 1369.05 3.11539 -4.17843 0
M  V30 14663 C 1366.38 3.09991 -4.98119 0
M  V30 14664 C 1368.73 3.06982 -5.53123 0
M  V30 14665 C 1367.4 3.05672 -5.93397 0
M  V30 14666 H 1366.67 0.63206 -0.386758 0
M  V30 14667 H 1369.31 1.15538 -1.52719 0
M  V30 14668 H 1367.62 3.7382 -1.17327 0
M  V30 14669 H 1369.31 3.69326 -1.56203 0
M  V30 14670 H 1365.9 3.16183 -2.89355 0
M  V30 14671 H 1370.09 3.10397 -3.87256 0
M  V30 14672 H 1365.34 3.07326 -5.28546 0
M  V30 14673 H 1369.52 3.02705 -6.27171 0
M  V30 14674 H 1367.15 3.00701 -6.982 0
M  V30 14675 N 1368.72 1.0394 1.18466 0
M  V30 14676 C 1369.95 0.762014 1.92356 0
M  V30 14677 C 1370.36 -0.680652 1.76104 0
M  V30 14678 O 1369.72 -1.46385 1.08985 0
M  V30 14679 C 1369.77 1.11717 3.43805 0
M  V30 14680 O 1369.49 2.50319 3.59544 0
M  V30 14681 C 1370.99 0.864099 4.34797 0
M  V30 14682 H 1368.21 0.277999 0.610702 0
M  V30 14683 H 1370.76 1.38672 1.503 0
M  V30 14684 H 1368.91 0.537445 3.83654 0
M  V30 14685 H 1369.33 2.63875 4.53288 0
M  V30 14686 H 1370.8 1.16247 5.39621 0
M  V30 14687 H 1371.28 -0.20117 4.38739 0
M  V30 14688 H 1371.88 1.42706 4.00643 0
M  V30 14689 N 1370.2 -1.34667 0.818693 0
M  V30 14690 C 1371.16 -2.27908 0.243037 0
M  V30 14691 C 1372.16 -1.50106 -0.576622 0
M  V30 14692 O 1373.35 -1.69701 -0.393342 0
M  V30 14693 C 1370.48 -3.34455 -0.659759 0
M  V30 14694 H 1371.68 -2.80332 1.06555 0
M  V30 14695 H 1369.23 -1.44727 0.590237 0
M  V30 14696 H 1369.96 -2.87238 -1.50549 0
M  V30 14697 H 1369.75 -3.92031 -0.073567 0
M  V30 14698 H 1371.24 -4.04016 -1.05646 0
M  V30 14699 N 1371.68 -0.573274 -1.46804 0
M  V30 14700 C 1372.93 -0.0530267 -2.0163 0
M  V30 14701 C 1373.24 1.31124 -1.45141 0
M  V30 14702 O 1374.44 1.92231 -1.91728 0
M  V30 14703 C 1372.9 -0.0442411 -3.59873 0
M  V30 14704 C 1372.51 -1.40625 -4.25357 0
M  V30 14705 C 1374.25 0.422556 -4.22392 0
M  V30 14706 C 1372.16 -1.3557 -5.75652 0
M  V30 14707 H 1371.09 -0.0160537 -0.753829 0
M  V30 14708 H 1373.74 -0.723518 -1.68634 0
M  V30 14709 H 1372.12 0.692225 -3.89903 0
M  V30 14710 H 1373.3 -2.1617 -4.06949 0
M  V30 14711 H 1371.61 -1.81229 -3.74893 0
M  V30 14712 H 1374.21 0.479021 -5.3255 0
M  V30 14713 H 1374.55 1.43806 -3.90673 0
M  V30 14714 H 1375.08 -0.259551 -3.96952 0
M  V30 14715 H 1371.82 -2.34772 -6.12015 0
M  V30 14716 H 1371.34 -0.642309 -5.96351 0
M  V30 14717 H 1373.02 -1.06458 -6.38182 0
M  V30 14718 N 1373.15 1.5451 -0.310553 0
M  V30 14719 C 1374.4 2.00326 0.295904 0
M  V30 14720 C 1374.73 1.19887 1.53158 0
M  V30 14721 O 1373.98 0.265615 1.93889 0
M  V30 14722 C 1374.28 3.5072 0.68779 0
M  V30 14723 C 1373.95 4.48677 -0.447229 0
M  V30 14724 C 1372.61 4.7518 -0.758796 0
M  V30 14725 C 1374.96 5.06953 -1.21028 0
M  V30 14726 C 1372.29 5.5722 -1.83637 0
M  V30 14727 C 1374.64 5.90167 -2.27784 0
M  V30 14728 C 1373.31 6.14977 -2.59537 0
M  V30 14729 H 1372.58 0.733046 0.108279 0
M  V30 14730 H 1375.22 1.86572 -0.431633 0
M  V30 14731 H 1373.53 3.62133 1.49556 0
M  V30 14732 H 1375.23 3.83602 1.16836 0
M  V30 14733 H 1371.82 4.28159 -0.1943 0
M  V30 14734 H 1376 4.86471 -0.98283 0
M  V30 14735 H 1371.26 5.74678 -2.08699 0
M  V30 14736 H 1375.43 6.34347 -2.87362 0
M  V30 14737 H 1373.06 6.78338 -3.43165 0
M  V30 14738 N 1374.63 0.0384594 1.57553 0
M  V30 14739 C 1375.86 -0.648077 1.96488 0
M  V30 14740 C 1376.28 -1.65123 0.915414 0
M  V30 14741 O 1375.63 -1.82216 -0.101779 0
M  V30 14742 C 1375.68 -1.34623 3.35498 0
M  V30 14743 O 1375.41 -0.383261 4.3642 0
M  V30 14744 C 1376.91 -2.12372 3.89119 0
M  V30 14745 H 1374.13 -0.178068 0.646941 0
M  V30 14746 H 1376.67 0.100993 2.0425 0
M  V30 14747 H 1374.83 -2.04663 3.28926 0
M  V30 14748 H 1375.24 -0.880095 5.17063 0
M  V30 14749 H 1376.71 -2.5666 4.88702 0
M  V30 14750 H 1377.19 -2.96664 3.23863 0
M  V30 14751 H 1377.8 -1.4727 3.98988 0
M  V30 14752 N 1376.11 -1.55841 -0.234795 0
M  V30 14753 C 1377.36 -1.78502 -0.96254 0
M  V30 14754 C 1377.69 -0.605832 -1.84508 0
M  V30 14755 O 1376.97 0.395446 -1.90438 0
M  V30 14756 C 1377.25 -3.11144 -1.81277 0
M  V30 14757 C 1377.1 -4.39488 -0.957607 0
M  V30 14758 C 1378.42 -3.40114 -2.79304 0
M  V30 14759 H 1375.54 -0.649397 -0.348501 0
M  V30 14760 H 1378.18 -1.88575 -0.23224 0
M  V30 14761 H 1376.33 -3.02687 -2.43542 0
M  V30 14762 H 1378 -4.59949 -0.352726 0
M  V30 14763 H 1376.25 -4.33005 -0.262454 0
M  V30 14764 H 1376.92 -5.28707 -1.58659 0
M  V30 14765 H 1379.39 -3.48612 -2.27175 0
M  V30 14766 H 1378.27 -4.34118 -3.35906 0
M  V30 14767 H 1378.53 -2.61623 -3.56378 0
M  V30 14768 N 1377.59 0.500963 -1.49426 0
M  V30 14769 C 1378.5 1.62889 -1.68833 0
M  V30 14770 C 1379.52 1.64367 -0.570932 0
M  V30 14771 O 1380.69 1.82786 -0.845641 0
M  V30 14772 C 1377.76 2.99255 -1.75063 0
M  V30 14773 C 1376.82 3.08404 -2.9864 0
M  V30 14774 C 1376.05 4.38266 -3.04564 0
M  V30 14775 O 1376.27 5.27065 -2.1808 0
M  V30 14776 O 1375.21 4.52387 -3.97026 0
M  V30 14777 H 1379.03 1.49446 -2.64385 0
M  V30 14778 H 1376.62 0.677254 -1.33168 0
M  V30 14779 H 1378.5 3.80303 -1.81515 0
M  V30 14780 H 1377.18 3.1296 -0.826896 0
M  V30 14781 H 1376.08 2.26544 -2.97706 0
M  V30 14782 H 1377.42 2.99626 -3.90494 0
M  V30 14783 N 1379.07 1.38501 0.752011 0
M  V30 14784 C 1380.32 1.34112 1.50655 0
M  V30 14785 C 1380.63 -0.0657661 1.95489 0
M  V30 14786 O 1381.84 -0.232199 2.70505 0
M  V30 14787 C 1380.29 2.35514 2.72142 0
M  V30 14788 C 1379.9 3.81831 2.34326 0
M  V30 14789 C 1381.64 2.40171 3.50026 0
M  V30 14790 C 1379.55 4.74915 3.52434 0
M  V30 14791 H 1378.48 0.498519 0.565681 0
M  V30 14792 H 1381.13 1.64064 0.821913 0
M  V30 14793 H 1379.51 1.98607 3.42595 0
M  V30 14794 H 1380.69 4.27685 1.7153 0
M  V30 14795 H 1379 3.80308 1.69573 0
M  V30 14796 H 1381.6 3.06913 4.37845 0
M  V30 14797 H 1381.94 1.42111 3.91293 0
M  V30 14798 H 1382.48 2.75884 2.86588 0
M  V30 14799 H 1379.21 5.74176 3.16232 0
M  V30 14800 H 1378.73 4.33753 4.14268 0
M  V30 14801 H 1380.41 4.93003 4.18995 0
M  V30 14802 N 1380.55 -0.980364 1.23396 0
M  V30 14803 C 1381.48 -2.0908 1.0396 0
M  V30 14804 C 1382.46 -1.70044 -0.0434946 0
M  V30 14805 O 1383.64 -1.93822 0.121155 0
M  V30 14806 C 1380.77 -3.41537 0.630061 0
M  V30 14807 C 1379.73 -3.94476 1.66051 0
M  V30 14808 C 1379.05 -5.23128 1.10641 0
M  V30 14809 C 1380.35 -4.23741 3.05354 0
M  V30 14810 H 1382.05 -2.25598 1.9684 0
M  V30 14811 H 1379.59 -1.08409 0.94781 0
M  V30 14812 H 1381.54 -4.18644 0.481145 0
M  V30 14813 H 1380.27 -3.24883 -0.334416 0
M  V30 14814 H 1378.93 -3.19513 1.79742 0
M  V30 14815 H 1378.58 -5.02824 0.132913 0
M  V30 14816 H 1378.28 -5.59515 1.79492 0
M  V30 14817 H 1379.8 -6.02857 0.969344 0
M  V30 14818 H 1381.21 -4.91598 2.94964 0
M  V30 14819 H 1379.61 -4.71329 3.71442 0
M  V30 14820 H 1380.68 -3.31012 3.54343 0
M  V30 14821 N 1382.02 -1.04567 -1.17913 0
M  V30 14822 C 1382.95 -0.662066 -2.23917 0
M  V30 14823 C 1383.93 0.33713 -1.66726 0
M  V30 14824 O 1385.12 0.216116 -1.92994 0
M  V30 14825 C 1382.25 -0.029463 -3.47288 0
M  V30 14826 C 1381.2 -0.95274 -4.17261 0
M  V30 14827 C 1380.53 -0.184347 -5.34382 0
M  V30 14828 C 1381.83 -2.2741 -4.70194 0
M  V30 14829 H 1383.52 -1.54826 -2.5626 0
M  V30 14830 H 1381.07 -0.745886 -1.23177 0
M  V30 14831 H 1383.02 0.250654 -4.20654 0
M  V30 14832 H 1381.75 0.891638 -3.14193 0
M  V30 14833 H 1380.41 -1.21732 -3.45799 0
M  V30 14834 H 1380.05 0.73932 -4.97537 0
M  V30 14835 H 1379.75 -0.79949 -5.82136 0
M  V30 14836 H 1381.28 0.0886344 -6.10536 0
M  V30 14837 H 1382.69 -2.05433 -5.35229 0
M  V30 14838 H 1381.09 -2.84265 -5.28501 0
M  V30 14839 H 1382.16 -2.91708 -3.87342 0
M  V30 14840 N 1383.5 1.34231 -0.825823 0
M  V30 14841 C 1384.45 2.29467 -0.247724 0
M  V30 14842 C 1385.42 1.53724 0.629127 0
M  V30 14843 O 1386.6 1.82082 0.570156 0
M  V30 14844 C 1383.74 3.40157 0.582012 0
M  V30 14845 C 1382.86 4.30832 -0.317406 0
M  V30 14846 C 1381.99 5.28627 0.522176 0
M  V30 14847 C 1381.03 6.10941 -0.376448 0
M  V30 14848 N 1380.17 7.00817 0.424232 0
M  V30 14849 H 1385.01 2.78311 -1.06521 0
M  V30 14850 H 1382.54 1.36956 -0.536788 0
M  V30 14851 H 1384.5 4.03021 1.07843 0
M  V30 14852 H 1383.13 2.92539 1.36459 0
M  V30 14853 H 1382.18 3.68805 -0.932054 0
M  V30 14854 H 1383.5 4.88503 -1.00826 0
M  V30 14855 H 1382.65 5.96957 1.08295 0
M  V30 14856 H 1381.39 4.71501 1.24652 0
M  V30 14857 H 1380.39 5.41542 -0.94934 0
M  V30 14858 H 1381.62 6.70149 -1.09895 0
M  V30 14859 H 1379.57 6.46156 1.1322 0
M  V30 14860 H 1379.48 7.55713 -0.208175 0
M  V30 14861 H 1380.75 7.7347 0.967664 0
M  V30 14862 N 1384.98 0.581051 1.46498 0
M  V30 14863 C 1385.91 -0.201475 2.27309 0
M  V30 14864 C 1386.89 -0.898424 1.35525 0
M  V30 14865 O 1388.07 -0.912643 1.64934 0
M  V30 14866 C 1385.2 -1.28896 3.13215 0
M  V30 14867 C 1384.25 -0.698028 4.20749 0
M  V30 14868 S 1385.08 0.473812 5.334 0
M  V30 14869 C 1386.24 -0.614916 6.22872 0
M  V30 14870 H 1386.47 0.484205 2.9333 0
M  V30 14871 H 1384 0.367907 1.49953 0
M  V30 14872 H 1385.96 -1.91162 3.63273 0
M  V30 14873 H 1384.62 -1.94658 2.46509 0
M  V30 14874 H 1383.81 -1.51542 4.80678 0
M  V30 14875 H 1383.42 -0.151069 3.73695 0
M  V30 14876 H 1385.71 -1.501 6.60663 0
M  V30 14877 H 1386.65 -0.0524259 7.08081 0
M  V30 14878 H 1387.06 -0.918315 5.5698 0
M  V30 14879 N 1386.46 -1.54343 0.318742 0
M  V30 14880 C 1387.69 -2.04894 -0.287378 0
M  V30 14881 C 1388.1 -1.19514 -1.46157 0
M  V30 14882 O 1387.46 -0.224722 -1.81111 0
M  V30 14883 C 1387.51 -3.54124 -0.726505 0
M  V30 14884 O 1387.23 -4.36261 0.400968 0
M  V30 14885 C 1388.73 -4.20748 -1.39594 0
M  V30 14886 H 1385.95 -0.668323 -0.0598724 0
M  V30 14887 H 1388.49 -1.99177 0.463531 0
M  V30 14888 H 1386.65 -3.60145 -1.4274 0
M  V30 14889 H 1387.06 -5.2447 0.0558714 0
M  V30 14890 H 1388.54 -5.26632 -1.65418 0
M  V30 14891 H 1389.01 -3.71566 -2.3417 0
M  V30 14892 H 1389.62 -4.18852 -0.737749 0
M  V30 14893 N 1387.94 -0.0468143 -1.5753 0
M  V30 14894 C 1389.16 0.637648 -1.96829 0
M  V30 14895 C 1389.58 1.64635 -0.924158 0
M  V30 14896 O 1388.94 1.82267 0.0921139 0
M  V30 14897 C 1388.99 1.32842 -3.36207 0
M  V30 14898 O 1388.71 0.360111 -4.36617 0
M  V30 14899 C 1390.21 2.10305 -3.90239 0
M  V30 14900 H 1387.43 0.174634 -0.647876 0
M  V30 14901 H 1389.97 -0.111824 -2.04194 0
M  V30 14902 H 1388.13 2.02915 -3.30006 0
M  V30 14903 H 1388.54 0.852661 -5.17523 0
M  V30 14904 H 1390.02 2.54065 -4.90056 0
M  V30 14905 H 1390.49 2.94942 -3.25432 0
M  V30 14906 H 1391.1 1.45152 -3.99764 0
M  V30 14907 N 1389.41 1.55964 0.226527 0
M  V30 14908 C 1390.66 1.78745 0.95165 0
M  V30 14909 C 1390.99 0.614714 1.84531 0
M  V30 14910 O 1390.24 -0.401137 1.91545 0
M  V30 14911 C 1390.54 3.07235 1.82597 0
M  V30 14912 C 1390.21 4.37627 1.08596 0
M  V30 14913 C 1388.87 4.73057 0.881531 0
M  V30 14914 C 1391.22 5.1815 0.563019 0
M  V30 14915 C 1388.55 5.86528 0.142172 0
M  V30 14916 C 1390.9 6.3239 -0.162972 0
M  V30 14917 C 1389.57 6.66425 -0.378704 0
M  V30 14918 H 1388.84 0.654075 0.348233 0
M  V30 14919 H 1391.48 1.9023 0.220187 0
M  V30 14920 H 1389.79 2.9085 2.62514 0
M  V30 14921 H 1391.49 3.22063 2.38907 0
M  V30 14922 H 1388.08 4.09806 1.25527 0
M  V30 14923 H 1392.26 4.91218 0.708446 0
M  V30 14924 H 1387.52 6.1139 -0.0352481 0
M  V30 14925 H 1391.69 6.94016 -0.575719 0
M  V30 14926 H 1389.32 7.54196 -0.953549 0
M  V30 14927 N 1390.89 -0.493031 1.4969 0
M  V30 14928 C 1392.14 -1.24418 1.59263 0
M  V30 14929 C 1392.46 -1.92908 0.284882 0
M  V30 14930 O 1391.73 -1.83108 -0.696302 0
M  V30 14931 H 1390.31 -0.462223 0.586821 0
M  V30 14932 H 1392.97 -0.570713 1.86357 0
M  V30 14933 H 1392.07 -2.00386 2.39274 0
M  V30 14934 N 1392.37 -1.38898 -0.744656 0
M  V30 14935 C 1393.33 -1.36633 -1.84022 0
M  V30 14936 C 1394.33 -0.265187 -1.58598 0
M  V30 14937 O 1395.52 -0.522569 -1.66177 0
M  V30 14938 C 1392.66 -1.12938 -3.21649 0
M  V30 14939 H 1393.85 -2.34111 -1.87435 0
M  V30 14940 H 1391.4 -1.24322 -0.947302 0
M  V30 14941 H 1392.14 -0.161027 -3.239 0
M  V30 14942 H 1391.92 -1.9267 -3.41498 0
M  V30 14943 H 1393.41 -1.14071 -4.01718 0
M  V30 14944 N 1393.85 0.973806 -1.23914 0
M  V30 14945 C 1395.1 1.71598 -1.07519 0
M  V30 14946 C 1395.42 1.90613 0.386926 0
M  V30 14947 O 1394.68 1.46056 1.30254 0
M  V30 14948 C 1394.98 3.11441 -1.75326 0
M  V30 14949 C 1394.64 3.12286 -3.25251 0
M  V30 14950 C 1393.31 3.12224 -3.66155 0
M  V30 14951 C 1395.66 3.0709 -4.21124 0
M  V30 14952 C 1392.99 3.0469 -5.01379 0
M  V30 14953 C 1395.34 3.01098 -5.56348 0
M  V30 14954 C 1394 2.99362 -5.96606 0
M  V30 14955 H 1393.27 0.627922 -0.39344 0
M  V30 14956 H 1395.92 1.13912 -1.53936 0
M  V30 14957 H 1394.22 3.72555 -1.21286 0
M  V30 14958 H 1395.92 3.67649 -1.60111 0
M  V30 14959 H 1392.51 3.13096 -2.92693 0
M  V30 14960 H 1396.69 3.06272 -3.90527 0
M  V30 14961 H 1391.95 3.01703 -5.31776 0
M  V30 14962 H 1396.12 2.96036 -6.30346 0
M  V30 14963 H 1393.75 2.93279 -7.0135 0
M  V30 14964 N 1395.33 1.05191 1.17357 0
M  V30 14965 C 1396.26 0.673931 2.23563 0
M  V30 14966 C 1397.24 -0.328284 1.66902 0
M  V30 14967 O 1398.42 -0.205878 1.93106 0
M  V30 14968 C 1395.55 0.0478801 3.47267 0
M  V30 14969 C 1394.51 0.974855 4.1675 0
M  V30 14970 C 1393.83 0.212684 5.34277 0
M  V30 14971 C 1395.13 2.299 4.68981 0
M  V30 14972 H 1396.83 1.56183 2.55436 0
M  V30 14973 H 1394.37 0.752408 1.2278 0
M  V30 14974 H 1396.33 -0.228343 4.20781 0
M  V30 14975 H 1395.05 -0.874963 3.14662 0
M  V30 14976 H 1393.71 1.23564 3.45148 0
M  V30 14977 H 1393.36 -0.712924 4.97922 0
M  V30 14978 H 1393.06 0.830351 5.81703 0
M  V30 14979 H 1394.58 -0.056255 6.10574 0
M  V30 14980 H 1395.99 2.08269 5.34132 0
M  V30 14981 H 1394.39 2.87064 5.26986 0
M  V30 14982 H 1395.46 2.93759 3.8579 0
M  V30 14983 N 1396.8 -1.33791 0.83293 0
M  V30 14984 C 1397.75 -2.26795 0.234069 0
M  V30 14985 C 1398.74 -1.48991 -0.60749 0
M  V30 14986 O 1399.93 -1.70907 -0.46043 0
M  V30 14987 C 1397.06 -3.38107 -0.594863 0
M  V30 14988 C 1396.15 -4.23315 0.257877 0
M  V30 14989 N 1396.54 -4.87899 1.33373 0
M  V30 14990 C 1394.83 -4.45978 0.0438997 0
M  V30 14991 C 1395.54 -5.51278 1.85655 0
M  V30 14992 N 1394.51 -5.31103 1.15892 0
M  V30 14993 H 1398.31 -2.7424 1.05688 0
M  V30 14994 H 1395.83 -1.47627 0.676767 0
M  V30 14995 H 1397.82 -4.03716 -1.04014 0
M  V30 14996 H 1396.48 -2.92212 -1.41571 0
M  V30 14997 H 1397.5 -4.88624 1.71659 0
M  V30 14998 H 1394.17 -4.10818 -0.743985 0
M  V30 14999 H 1395.56 -6.12723 2.75717 0
M  V30 15000 N 1398.28 -0.588812 -1.46187 0
M  V30 15001 C 1399.23 0.140932 -2.30369 0
M  V30 15002 C 1400.2 0.878216 -1.40984 0
M  V30 15003 O 1401.38 0.867678 -1.69929 0
M  V30 15004 C 1398.52 1.14468 -3.25563 0
M  V30 15005 C 1397.64 0.410215 -4.30048 0
M  V30 15006 C 1396.77 1.40203 -5.12364 0
M  V30 15007 C 1395.81 0.65431 -6.08593 0
M  V30 15008 N 1394.95 1.59448 -6.83755 0
M  V30 15009 H 1399.79 -0.582976 -2.92242 0
M  V30 15010 H 1397.33 -0.299302 -1.44023 0
M  V30 15011 H 1399.28 1.73957 -3.79203 0
M  V30 15012 H 1397.91 1.83623 -2.65485 0
M  V30 15013 H 1396.97 -0.299822 -3.79217 0
M  V30 15014 H 1398.28 -0.174043 -4.98496 0
M  V30 15015 H 1397.43 2.06953 -5.70312 0
M  V30 15016 H 1396.17 2.02022 -4.4389 0
M  V30 15017 H 1395.18 -0.0269371 -5.49793 0
M  V30 15018 H 1396.4 0.0414285 -6.79087 0
M  V30 15019 H 1394.35 2.20066 -6.17986 0
M  V30 15020 H 1394.26 1.06318 -7.48487 0
M  V30 15021 H 1395.53 2.25215 -7.46256 0
M  V30 15022 N 1399.76 1.54172 -0.326923 0
M  V30 15023 C 1401.01 2.00233 0.274098 0
M  V30 15024 C 1401.33 1.21665 1.5239 0
M  V30 15025 O 1400.6 0.319359 1.93279 0
M  V30 15026 H 1399.18 0.739687 0.104271 0
M  V30 15027 H 1401.84 1.8977 -0.444244 0
M  V30 15028 H 1400.94 3.07599 0.528154 0
M  V30 15029 N 1401.24 0.0551678 1.57503 0
M  V30 15030 C 1402.2 -0.903065 2.10659 0
M  V30 15031 C 1403.2 -1.23728 1.02703 0
M  V30 15032 O 1404.39 -1.17331 1.2876 0
M  V30 15033 C 1401.52 -2.21171 2.59415 0
M  V30 15034 H 1402.72 -0.442197 2.96622 0
M  V30 15035 H 1400.27 -0.193297 1.551 0
M  V30 15036 H 1401 -2.71831 1.76858 0
M  V30 15037 H 1400.79 -1.98216 3.38309 0
M  V30 15038 H 1402.28 -2.89802 3.00674 0
M  V30 15039 N 1402.72 -1.56081 -0.218252 0
M  V30 15040 C 1403.96 -1.79247 -0.942157 0
M  V30 15041 C 1404.29 -0.624492 -1.84202 0
M  V30 15042 O 1403.55 0.390973 -1.91755 0
M  V30 15043 C 1403.85 -3.08199 -1.80965 0
M  V30 15044 C 1403.51 -4.38197 -1.06274 0
M  V30 15045 C 1402.17 -4.73517 -0.856432 0
M  V30 15046 C 1404.53 -5.18441 -0.535532 0
M  V30 15047 C 1401.85 -5.86595 -0.111065 0
M  V30 15048 C 1404.21 -6.32295 0.196507 0
M  V30 15049 C 1402.87 -6.66215 0.414041 0
M  V30 15050 H 1402.14 -0.655913 -0.34476 0
M  V30 15051 H 1404.79 -1.90344 -0.210095 0
M  V30 15052 H 1403.09 -2.92238 -2.60967 0
M  V30 15053 H 1404.79 -3.23325 -2.37196 0
M  V30 15054 H 1401.38 -4.10466 -1.23352 0
M  V30 15055 H 1405.56 -4.91586 -0.682386 0
M  V30 15056 H 1400.82 -6.11363 0.0676711 0
M  V30 15057 H 1404.99 -6.93701 0.612516 0
M  V30 15058 H 1402.62 -7.5368 0.993532 0
M  V30 15059 N 1404.2 0.485086 -1.49949 0
M  V30 15060 C 1405.44 1.24816 -1.61865 0
M  V30 15061 C 1405.8 1.8955 -0.305741 0
M  V30 15062 O 1407 2.67118 -0.300216 0
M  V30 15063 C 1405.27 2.27464 -2.75672 0
M  V30 15064 S 1406.83 3.12898 -3.07637 0
M  V30 15065 H 1403.65 0.423964 -0.570767 0
M  V30 15066 H 1406.25 0.547552 -1.87676 0
M  V30 15067 H 1404.95 1.78464 -3.69566 0
M  V30 15068 H 1404.49 3.02172 -2.51904 0
M  V30 15069 H 1406.5 4.28395 -2.50384 0
M  V30 15070 N 1405.67 1.39291 0.737279 0
M  V30 15071 C 1407.09 1.20845 1.04253 0
M  V30 15072 C 1407.29 0.0684513 2.01384 0
M  V30 15073 O 1406.35 -0.580615 2.45734 0
M  V30 15074 C 1407.66 2.54158 1.60699 0
M  V30 15075 C 1409.21 2.60983 1.72791 0
M  V30 15076 C 1409.68 3.94511 2.32647 0
M  V30 15077 N 1411.17 3.96138 2.4006 0
M  V30 15078 C 1411.91 4.96229 2.87306 0
M  V30 15079 N 1411.4 6.06716 3.34465 0
M  V30 15080 N 1413.2 4.83609 2.86494 0
M  V30 15081 H 1405.35 2.12196 0.0930416 0
M  V30 15082 H 1407.61 0.942289 0.103899 0
M  V30 15083 H 1407.32 3.38118 0.96795 0
M  V30 15084 H 1407.19 2.73715 2.59538 0
M  V30 15085 H 1409.58 1.77408 2.35818 0
M  V30 15086 H 1409.66 2.45278 0.726118 0
M  V30 15087 H 1409.3 4.78516 1.70249 0
M  V30 15088 H 1409.23 4.07536 3.33499 0
M  V30 15089 H 1411.72 3.16344 2.06725 0
M  V30 15090 H 1412.04 6.79002 3.6902 0
M  V30 15091 H 1410.38 6.10313 3.3248 0
M  V30 15092 H 1413.57 3.96396 2.48973 0
M  V30 15093 H 1413.75 5.6176 3.23001 0
M  V30 15094 N 1407.15 -0.967221 1.24429 0
M  V30 15095 C 1408.1 -2.08315 1.03478 0
M  V30 15096 C 1409.09 -1.69373 -0.0304332 0
M  V30 15097 O 1410.3 -1.79571 0.124162 0
M  V30 15098 H 1406.67 -0.681638 0.317605 0
M  V30 15099 H 1408.65 -2.23148 1.9811 0
M  V30 15100 C 1407.39 -3.41441 0.656778 0
M  V30 15101 H 1406.72 -3.71865 1.4682 0
M  V30 15102 H 1408.16 -4.2042 0.549791 0
M  V30 15103 C 1406.62 -3.30839 -0.636154 0
M  V30 15104 O 1407.15 -3.64802 -1.68175 0
M  V30 15105 N 1405.35 -2.83973 -0.617052 0
M  V30 15106 H 1404.9 -2.56533 0.234179 0
M  V30 15107 H 1404.86 -2.77262 -1.48233 0
M  V30 15108 N 1408.63 -1.05812 -1.16797 0
M  V30 15109 C 1409.86 -0.79137 -1.90843 0
M  V30 15110 C 1410.27 0.657481 -1.77409 0
M  V30 15111 O 1409.61 1.46142 -1.11302 0
M  V30 15112 C 1409.67 -1.10042 -3.42244 0
M  V30 15113 C 1409.34 -2.54671 -3.79463 0
M  V30 15114 C 1410.33 -3.52894 -3.81788 0
M  V30 15115 C 1408.02 -2.89843 -4.10239 0
M  V30 15116 C 1410.01 -4.84332 -4.14369 0
M  V30 15117 C 1407.7 -4.21482 -4.42488 0
M  V30 15118 C 1408.7 -5.18537 -4.44532 0
M  V30 15119 O 1408.39 -6.47814 -4.76018 0
M  V30 15120 H 1408.12 -0.286766 -0.612161 0
M  V30 15121 H 1410.67 -1.41369 -1.4901 0
M  V30 15122 H 1408.9 -0.421015 -3.84401 0
M  V30 15123 H 1410.59 -0.818688 -3.97558 0
M  V30 15124 H 1411.36 -3.27062 -3.58128 0
M  V30 15125 H 1407.24 -2.14959 -4.07816 0
M  V30 15126 H 1410.78 -5.60081 -4.15879 0
M  V30 15127 H 1406.68 -4.47075 -4.65612 0
M  V30 15128 H 1407.44 -6.52729 -4.93849 0
M  V30 15129 N 1410.11 1.33347 -0.840014 0
M  V30 15130 C 1411.35 1.97745 -0.436274 0
M  V30 15131 C 1411.68 1.66538 1.00475 0
M  V30 15132 O 1410.94 0.938137 1.71748 0
M  V30 15133 C 1411.24 3.52239 -0.605173 0
M  V30 15134 C 1410.9 4.03398 -2.01446 0
M  V30 15135 C 1409.56 4.1708 -2.39994 0
M  V30 15136 C 1411.92 4.3071 -2.93494 0
M  V30 15137 C 1409.24 4.55409 -3.69891 0
M  V30 15138 C 1411.6 4.70491 -4.22873 0
M  V30 15139 C 1410.26 4.82379 -4.61375 0
M  V30 15140 H 1409.53 0.723599 -0.159644 0
M  V30 15141 H 1412.18 1.59003 -1.06725 0
M  V30 15142 H 1410.48 3.91648 0.109116 0
M  V30 15143 H 1412.18 4.00069 -0.273056 0
M  V30 15144 H 1408.77 3.93224 -1.70508 0
M  V30 15145 H 1412.95 4.19661 -2.64949 0
M  V30 15146 H 1408.21 4.62806 -3.99525 0
M  V30 15147 H 1412.38 4.9058 -4.94271 0
M  V30 15148 H 1410.01 5.11835 -5.62075 0
M  V30 15149 N 1411.59 0.596556 1.45873 0
M  V30 15150 C 1412.53 -0.141327 2.3217 0
M  V30 15151 C 1413.53 -0.870652 1.45314 0
M  V30 15152 O 1414.73 -0.787469 1.61861 0
M  V30 15153 H 1411.11 -0.0644404 0.749234 0
M  V30 15154 H 1413.08 0.605115 2.922 0
M  V30 15155 C 1411.83 -1.13261 3.28736 0
M  V30 15156 H 1411.15 -0.580835 3.95558 0
M  V30 15157 H 1412.59 -1.61904 3.91871 0
M  V30 15158 C 1411.05 -2.20062 2.55097 0
M  V30 15159 O 1411.58 -3.27634 2.3242 0
M  V30 15160 N 1409.79 -1.95044 2.15421 0
M  V30 15161 H 1409.33 -1.07573 2.34064 0
M  V30 15162 H 1409.29 -2.66711 1.66472 0
M  V30 15163 N 1413.06 -1.53996 0.335095 0
M  V30 15164 C 1413.99 -2.2768 -0.518087 0
M  V30 15165 C 1414.97 -1.28915 -1.10972 0
M  V30 15166 O 1416.16 -1.57745 -1.1327 0
M  V30 15167 C 1413.29 -3.04327 -1.67339 0
M  V30 15168 C 1412.24 -4.10525 -1.2105 0
M  V30 15169 C 1411.57 -4.75078 -2.45366 0
M  V30 15170 C 1412.87 -5.21337 -0.317055 0
M  V30 15171 H 1414.56 -2.99244 0.0965669 0
M  V30 15172 H 1412.11 -1.4392 0.0478842 0
M  V30 15173 H 1414.06 -3.54608 -2.27664 0
M  V30 15174 H 1412.79 -2.30399 -2.31481 0
M  V30 15175 H 1411.45 -3.61144 -0.630124 0
M  V30 15176 H 1411.09 -3.97754 -3.07897 0
M  V30 15177 H 1410.79 -5.46822 -2.1508 0
M  V30 15178 H 1412.32 -5.2814 -3.06432 0
M  V30 15179 H 1413.73 -5.67305 -0.826905 0
M  V30 15180 H 1412.13 -6.00006 -0.106458 0
M  V30 15181 H 1413.2 -4.80536 0.649068 0
M  V30 15182 N 1414.54 -0.0635198 -1.57472 0
M  V30 15183 C 1415.47 0.90431 -2.15278 0
M  V30 15184 C 1416.45 1.31609 -1.07764 0
M  V30 15185 O 1417.64 1.38861 -1.35762 0
M  V30 15186 C 1414.77 2.17483 -2.70774 0
M  V30 15187 C 1413.72 1.90272 -3.8338 0
M  V30 15188 C 1413.05 3.23885 -4.25444 0
M  V30 15189 C 1414.35 1.21454 -5.07983 0
M  V30 15190 H 1416.04 0.422786 -2.964 0
M  V30 15191 H 1413.59 0.201918 -1.42577 0
M  V30 15192 H 1415.54 2.856 -3.09856 0
M  V30 15193 H 1414.26 2.67863 -1.86861 0
M  V30 15194 H 1412.92 1.24564 -3.44789 0
M  V30 15195 H 1412.57 3.72089 -3.38465 0
M  V30 15196 H 1412.27 3.06472 -5.01347 0
M  V30 15197 H 1413.8 3.93212 -4.67137 0
M  V30 15198 H 1415.21 1.79625 -5.44433 0
M  V30 15199 H 1413.61 1.14327 -5.89109 0
M  V30 15200 H 1414.68 0.19238 -4.84518 0
M  V30 15201 N 1416.02 1.56195 0.209972 0
M  V30 15202 C 1417.3 1.70553 0.957653 0
M  V30 15203 C 1417.68 0.614091 2.01971 0
M  V30 15204 O 1417.02 -0.377192 2.25365 0
M  V30 15205 C 1417.23 3.12314 1.55759 0
M  V30 15206 C 1418.58 3.72085 2.04543 0
M  V30 15207 O 1419.61 3.15349 1.65631 0
M  V30 15208 O 1418.47 4.71627 2.76099 0
M  V30 15209 H 1415.56 0.695077 0.448104 0
M  V30 15210 H 1418.11 1.68507 0.20084 0
M  V30 15211 H 1416.88 3.83215 0.791302 0
M  V30 15212 H 1416.5 3.18526 2.37964 0
M  V30 15213 N 1417.5 -0.477127 1.50204 0
M  V30 15214 C 1418.43 -1.59442 1.63259 0
M  V30 15215 C 1419.41 -1.55327 0.480864 0
M  V30 15216 O 1420.59 -1.75038 0.699578 0
M  V30 15217 C 1417.72 -2.98009 1.6096 0
M  V30 15218 C 1416.77 -3.20301 2.8162 0
M  V30 15219 S 1417.6 -3.00849 4.43001 0
M  V30 15220 C 1418.75 -4.41769 4.43386 0
M  V30 15221 H 1418.99 -1.48128 2.5777 0
M  V30 15222 H 1416.52 -0.66403 1.39392 0
M  V30 15223 H 1418.48 -3.779 1.60319 0
M  V30 15224 H 1417.14 -3.06718 0.676948 0
M  V30 15225 H 1416.33 -4.21515 2.76299 0
M  V30 15226 H 1415.93 -2.48173 2.79797 0
M  V30 15227 H 1418.23 -5.34294 4.16576 0
M  V30 15228 H 1419.17 -4.52135 5.44958 0
M  V30 15229 H 1419.58 -4.23565 3.73166 0
M  V30 15230 N 1418.98 -1.3968 -0.729882 0
M  V30 15231 C 1419.91 -1.41549 -1.85704 0
M  V30 15232 C 1420.89 -0.278186 -1.6781 0
M  V30 15233 O 1422.07 -0.484749 -1.88053 0
M  V30 15234 C 1419.2 -1.26327 -3.2351 0
M  V30 15235 C 1418.16 -2.37511 -3.56051 0
M  V30 15236 C 1417.48 -2.07375 -4.92849 0
M  V30 15237 C 1418.78 -3.79833 -3.58502 0
M  V30 15238 H 1420.48 -2.35877 -1.84398 0
M  V30 15239 H 1418.02 -1.13536 -0.885747 0
M  V30 15240 H 1419.98 -1.26254 -4.02042 0
M  V30 15241 H 1418.7 -0.284697 -3.25357 0
M  V30 15242 H 1417.36 -2.36809 -2.79852 0
M  V30 15243 H 1417.01 -1.07943 -4.91281 0
M  V30 15244 H 1416.71 -2.81855 -5.15588 0
M  V30 15245 H 1418.23 -2.08961 -5.73731 0
M  V30 15246 H 1419.64 -3.82436 -4.27101 0
M  V30 15247 H 1418.04 -4.53715 -3.92763 0
M  V30 15248 H 1419.11 -4.10443 -2.58195 0
M  V30 15249 N 1420.45 0.960609 -1.2494 0
M  V30 15250 C 1421.7 1.70701 -1.09495 0
M  V30 15251 C 1422.03 1.90754 0.364214 0
M  V30 15252 O 1421.31 1.47417 1.26879 0
M  V30 15253 C 1421.59 3.09353 -1.84317 0
M  V30 15254 C 1421.44 2.96747 -3.38026 0
M  V30 15255 C 1422.76 4.09139 -1.62153 0
M  V30 15256 H 1419.88 0.61955 -0.399158 0
M  V30 15257 H 1422.52 1.11701 -1.53698 0
M  V30 15258 H 1420.67 3.59719 -1.46746 0
M  V30 15259 H 1422.35 2.53752 -3.85237 0
M  V30 15260 H 1420.59 2.32798 -3.66043 0
M  V30 15261 H 1421.26 3.95002 -3.85587 0
M  V30 15262 H 1423.74 3.67659 -1.94849 0
M  V30 15263 H 1422.61 5.04206 -2.16951 0
M  V30 15264 H 1422.87 4.38521 -0.561437 0
M  V30 15265 N 1421.93 1.0643 1.16234 0
M  V30 15266 C 1423.18 0.782998 1.87075 0
M  V30 15267 C 1423.51 -0.688852 1.81572 0
M  V30 15268 O 1422.79 -1.50478 1.23234 0
M  V30 15269 C 1423.07 1.27997 3.36584 0
M  V30 15270 C 1422.92 2.81568 3.5077 0
M  V30 15271 C 1424.24 0.888975 4.31028 0
M  V30 15272 H 1421.36 0.28591 0.679282 0
M  V30 15273 H 1424 1.32046 1.36615 0
M  V30 15274 H 1422.15 0.822756 3.79688 0
M  V30 15275 H 1423.82 3.35508 3.16595 0
M  V30 15276 H 1422.07 3.2023 2.92635 0
M  V30 15277 H 1422.74 3.11406 4.55774 0
M  V30 15278 H 1425.21 1.28279 3.95833 0
M  V30 15279 H 1424.09 1.26416 5.34144 0
M  V30 15280 H 1424.35 -0.205973 4.4162 0
M  V30 15281 N 1423.41 -1.329 0.847073 0
M  V30 15282 C 1424.66 -1.9712 0.445872 0
M  V30 15283 C 1424.98 -1.67398 -1.00014 0
M  V30 15284 O 1424.25 -0.977204 -1.69787 0
M  V30 15285 H 1422.83 -0.729247 0.161887 0
M  V30 15286 H 1425.49 -1.62118 1.08184 0
M  V30 15287 H 1424.59 -3.06575 0.584676 0
M  V30 15288 N 1424.89 -0.604284 -1.45555 0
M  V30 15289 C 1426.13 -0.0983316 -2.02561 0
M  V30 15290 C 1426.47 1.26659 -1.47211 0
M  V30 15291 O 1425.74 1.83476 -0.645519 0
M  V30 15292 C 1426.03 -0.0558349 -3.60057 0
M  V30 15293 C 1425.88 -1.45119 -4.25747 0
M  V30 15294 C 1427.2 0.633708 -4.35514 0
M  V30 15295 H 1424.32 -0.0372071 -0.73606 0
M  V30 15296 H 1426.96 -0.775623 -1.73448 0
M  V30 15297 H 1425.11 0.520935 -3.84992 0
M  V30 15298 H 1426.78 -2.07478 -4.12008 0
M  V30 15299 H 1425.02 -2.01283 -3.84275 0
M  V30 15300 H 1425.69 -1.37372 -5.34633 0
M  V30 15301 H 1428.17 0.143501 -4.15852 0
M  V30 15302 H 1427.05 0.632538 -5.45243 0
M  V30 15303 H 1427.31 1.69917 -4.08143 0
M  V30 15304 N 1426.37 1.53816 -0.343257 0
M  V30 15305 C 1427.59 2.05796 0.257418 0
M  V30 15306 C 1428.02 1.2166 1.43459 0
M  V30 15307 O 1427.37 0.230278 1.79832 0
M  V30 15308 C 1427.42 3.54681 0.65068 0
M  V30 15309 O 1426.53 3.73394 1.75074 0
M  V30 15310 H 1425.87 0.662622 0.042757 0
M  V30 15311 H 1428.4 1.98462 -0.497386 0
M  V30 15312 H 1428.41 3.97308 0.927914 0
M  V30 15313 H 1427.08 4.15368 -0.210199 0
M  V30 15314 H 1425.66 3.42669 1.4708 0
M  V30 15315 N 1427.84 0.0718701 1.57436 0
M  V30 15316 C 1428.77 -0.89288 2.15754 0
M  V30 15317 C 1429.76 -1.31036 1.0846 0
M  V30 15318 O 1430.94 -1.38139 1.36496 0
M  V30 15319 C 1428.07 -2.16044 2.71923 0
M  V30 15320 C 1427.02 -1.88236 3.84384 0
M  V30 15321 C 1426.35 -3.21624 4.27156 0
M  V30 15322 C 1427.65 -1.18758 5.0862 0
M  V30 15323 H 1429.34 -0.407061 2.9662 0
M  V30 15324 H 1426.89 -0.194354 1.42682 0
M  V30 15325 H 1428.84 -2.83952 3.11366 0
M  V30 15326 H 1427.57 -2.66868 1.88279 0
M  V30 15327 H 1426.23 -1.22734 3.45445 0
M  V30 15328 H 1425.87 -3.70289 3.40433 0
M  V30 15329 H 1425.57 -3.03809 5.02965 0
M  V30 15330 H 1427.1 -3.90729 4.69215 0
M  V30 15331 H 1428.51 -1.76735 5.45378 0
M  V30 15332 H 1426.91 -1.11201 5.89707 0
M  V30 15333 H 1427.98 -0.166682 4.84613 0
M  V30 15334 N 1429.32 -1.56304 -0.201686 0
M  V30 15335 C 1430.57 -1.80504 -0.92446 0
M  V30 15336 C 1430.9 -0.644832 -1.83182 0
M  V30 15337 O 1430.18 0.354963 -1.91234 0
M  V30 15338 C 1430.46 -3.14919 -1.74636 0
M  V30 15339 C 1430.31 -4.41421 -0.864169 0
M  V30 15340 C 1431.63 -3.45962 -2.72026 0
M  V30 15341 H 1428.75 -0.656643 -0.334648 0
M  V30 15342 H 1431.39 -1.89025 -0.192188 0
M  V30 15343 H 1429.54 -3.07785 -2.37066 0
M  V30 15344 H 1431.21 -4.60594 -0.255084 0
M  V30 15345 H 1429.46 -4.33465 -0.170548 0
M  V30 15346 H 1430.13 -5.31954 -1.47409 0
M  V30 15347 H 1432.6 -3.53353 -2.1973 0
M  V30 15348 H 1431.48 -4.41146 -3.26622 0
M  V30 15349 H 1431.74 -2.69124 -3.50749 0
M  V30 15350 N 1430.8 0.469154 -1.50455 0
M  V30 15351 C 1432.03 1.24899 -1.65575 0
M  V30 15352 C 1432.45 1.85009 -0.339581 0
M  V30 15353 O 1431.81 1.67376 0.696774 0
M  V30 15354 C 1431.86 2.33205 -2.75041 0
M  V30 15355 O 1430.96 3.37898 -2.36429 0
M  V30 15356 H 1430.3 0.367362 -0.553119 0
M  V30 15357 H 1432.83 0.558083 -1.96842 0
M  V30 15358 H 1432.84 2.78487 -2.98176 0
M  V30 15359 H 1431.52 1.88826 -3.70564 0
M  V30 15360 H 1430.09 2.98314 -2.23748 0
M  V30 15361 N 1432.28 1.40065 0.722464 0
M  V30 15362 C 1433.53 1.3797 1.48224 0
M  V30 15363 C 1433.85 -0.0202588 1.94489 0
M  V30 15364 O 1433.11 -1.0035 1.68013 0
M  V30 15365 C 1433.41 2.30949 2.72759 0
M  V30 15366 C 1433.07 3.7834 2.45295 0
M  V30 15367 C 1431.74 4.18497 2.37515 0
M  V30 15368 C 1434.09 4.71509 2.221 0
M  V30 15369 C 1431.42 5.4987 2.04598 0
M  V30 15370 C 1433.77 6.03173 1.90697 0
M  V30 15371 C 1432.43 6.4238 1.81394 0
M  V30 15372 H 1431.7 0.504869 0.542392 0
M  V30 15373 H 1434.35 1.72667 0.828149 0
M  V30 15374 H 1432.65 1.89413 3.42972 0
M  V30 15375 H 1434.35 2.26615 3.30827 0
M  V30 15376 H 1430.94 3.46519 2.52235 0
M  V30 15377 H 1435.12 4.41308 2.27071 0
M  V30 15378 H 1430.38 5.79157 1.95928 0
M  V30 15379 H 1434.55 6.74886 1.71761 0
M  V30 15380 H 1432.18 7.44094 1.55654 0
M  V30 15381 N 1433.76 -0.95397 1.25448 0
M  V30 15382 C 1435.01 -1.6953 1.10018 0
M  V30 15383 C 1435.33 -1.9166 -0.359385 0
M  V30 15384 O 1434.6 -1.50417 -1.25506 0
M  V30 15385 H 1433.18 -0.628238 0.404136 0
M  V30 15386 H 1435.84 -1.14691 1.57581 0
M  V30 15387 H 1434.93 -2.67427 1.60901 0
M  V30 15388 N 1435.24 -1.07045 -1.15668 0
M  V30 15389 C 1436.48 -0.786751 -1.85723 0
M  V30 15390 C 1436.8 0.689604 -1.83041 0
M  V30 15391 O 1438 1.08796 -2.48748 0
M  V30 15392 C 1436.46 -1.35729 -3.33325 0
M  V30 15393 C 1436.07 -2.86444 -3.44462 0
M  V30 15394 C 1437.81 -1.15148 -4.08584 0
M  V30 15395 C 1435.72 -3.36705 -4.86193 0
M  V30 15396 H 1434.65 -0.29063 -0.695737 0
M  V30 15397 H 1437.3 -1.29012 -1.30492 0
M  V30 15398 H 1435.68 -0.781671 -3.88209 0
M  V30 15399 H 1436.86 -3.50023 -2.997 0
M  V30 15400 H 1435.17 -3.0578 -2.82644 0
M  V30 15401 H 1437.77 -1.50179 -5.13177 0
M  V30 15402 H 1438.11 -0.0903159 -4.16202 0
M  V30 15403 H 1438.64 -1.6933 -3.59962 0
M  V30 15404 H 1435.38 -4.42333 -4.83758 0
M  V30 15405 H 1434.9 -2.77877 -5.31549 0
M  V30 15406 H 1436.58 -3.32478 -5.55038 0
M  V30 15407 N 1436.71 1.32449 -0.85411 0
M  V30 15408 C 1437.65 2.2777 -0.255605 0
M  V30 15409 C 1438.66 1.52407 0.572355 0
M  V30 15410 O 1439.85 1.74031 0.396935 0
M  V30 15411 C 1436.95 3.32461 0.657496 0
M  V30 15412 C 1436.12 4.37193 -0.134492 0
M  V30 15413 C 1435.18 5.21465 0.704288 0
M  V30 15414 O 1434.21 5.69033 0.138001 0
M  V30 15415 N 1435.41 5.44254 2.01911 0
M  V30 15416 H 1438.17 2.79769 -1.07468 0
M  V30 15417 H 1435.73 1.45304 -0.714038 0
M  V30 15418 H 1437.73 3.85748 1.22396 0
M  V30 15419 H 1436.3 2.80625 1.37726 0
M  V30 15420 H 1435.52 3.84198 -0.882378 0
M  V30 15421 H 1436.8 5.04256 -0.678508 0
M  V30 15422 H 1436.2 5.07336 2.50252 0
M  V30 15423 H 1434.76 6.00538 2.53371 0
M  V30 15424 N 1438.19 0.611994 1.45232 0
M  V30 15425 C 1439.42 0.113618 2.07089 0
M  V30 15426 C 1439.84 -1.1947 1.45288 0
M  V30 15427 O 1439.2 -1.72845 0.547207 0
M  V30 15428 C 1439.25 -0.00789978 3.60599 0
M  V30 15429 O 1438.35 -1.05697 3.98625 0
M  V30 15430 H 1437.69 0.076066 0.659629 0
M  V30 15431 H 1440.22 0.843253 1.86415 0
M  V30 15432 H 1440.23 -0.204692 4.07486 0
M  V30 15433 H 1438.91 0.947386 4.04966 0
M  V30 15434 H 1437.48 -0.836291 3.63401 0
M  V30 15435 N 1439.67 -1.53632 0.351409 0
M  V30 15436 C 1440.89 -2.0593 -0.246501 0
M  V30 15437 C 1441.32 -1.22419 -1.42812 0
M  V30 15438 O 1440.68 -0.239811 -1.79707 0
M  V30 15439 C 1440.73 -3.55021 -0.631862 0
M  V30 15440 O 1439.83 -3.74317 -1.73092 0
M  V30 15441 H 1439.17 -0.662839 -0.0392424 0
M  V30 15442 H 1441.7 -1.98196 0.507904 0
M  V30 15443 H 1441.71 -3.97795 -0.906831 0
M  V30 15444 H 1440.39 -4.15251 0.232224 0
M  V30 15445 H 1438.96 -3.43444 -1.4526 0
M  V30 15446 N 1441.15 -0.0802183 -1.57396 0
M  V30 15447 C 1442.11 0.869437 -2.12069 0
M  V30 15448 C 1443.11 1.22079 -1.04658 0
M  V30 15449 O 1444.3 1.15267 -1.3061 0
M  V30 15450 C 1441.43 2.17016 -2.62901 0
M  V30 15451 H 1442.63 0.394952 -2.97288 0
M  V30 15452 H 1440.18 0.168597 -1.55388 0
M  V30 15453 H 1440.91 2.68983 -1.8116 0
M  V30 15454 H 1440.7 1.92808 -3.4142 0
M  V30 15455 H 1442.19 2.84982 -3.05246 0
M  V30 15456 N 1442.63 1.56409 0.193394 0
M  V30 15457 C 1443.87 1.79919 0.911712 0
M  V30 15458 C 1444.19 0.653729 1.84352 0
M  V30 15459 O 1445.39 0.773172 2.60258 0
M  V30 15460 C 1443.85 3.18726 1.67158 0
M  V30 15461 C 1443.46 4.41078 0.784512 0
M  V30 15462 C 1445.2 3.51544 2.37944 0
M  V30 15463 C 1443.11 5.70907 1.54335 0
M  V30 15464 H 1442.04 0.670864 0.344177 0
M  V30 15465 H 1444.69 1.82757 0.164967 0
M  V30 15466 H 1443.07 3.10142 2.46227 0
M  V30 15467 H 1444.25 4.60789 0.032356 0
M  V30 15468 H 1442.56 4.15978 0.187407 0
M  V30 15469 H 1445.16 4.45779 2.95271 0
M  V30 15470 H 1445.5 2.75369 3.12214 0
M  V30 15471 H 1446.03 3.61583 1.65839 0
M  V30 15472 H 1442.77 6.50052 0.843393 0
M  V30 15473 H 1442.29 5.5521 2.26939 0
M  V30 15474 H 1443.97 6.12085 2.09669 0
M  V30 15475 N 1444.1 -0.461169 1.50702 0
M  V30 15476 C 1445.33 -1.24019 1.66235 0
M  V30 15477 C 1445.75 -1.84827 0.349388 0
M  V30 15478 O 1445.11 -1.67743 -0.687888 0
M  V30 15479 C 1445.16 -2.31743 2.76274 0
M  V30 15480 O 1444.26 -3.3664 2.38217 0
M  V30 15481 H 1443.6 -0.364424 0.55506 0
M  V30 15482 H 1446.13 -0.547636 1.97135 0
M  V30 15483 H 1446.14 -2.76902 2.99649 0
M  V30 15484 H 1444.82 -1.86858 3.7156 0
M  V30 15485 H 1443.4 -2.97123 2.25327 0
M  V30 15486 N 1445.58 -1.40446 -0.715026 0
M  V30 15487 C 1446.83 -1.3896 -1.47709 0
M  V30 15488 C 1447.16 0.00798698 -1.94198 0
M  V30 15489 O 1446.44 0.976732 -1.68197 0
M  V30 15490 C 1446.72 -2.37955 -2.70277 0
M  V30 15491 C 1446.57 -3.8674 -2.29678 0
M  V30 15492 C 1447.89 -2.34478 -3.72435 0
M  V30 15493 H 1445.01 -0.50607 -0.535782 0
M  V30 15494 H 1447.65 -1.71585 -0.815999 0
M  V30 15495 H 1445.8 -2.10264 -3.26682 0
M  V30 15496 H 1447.47 -4.2526 -1.7875 0
M  V30 15497 H 1445.72 -4.02547 -1.61674 0
M  V30 15498 H 1446.39 -4.51524 -3.17538 0
M  V30 15499 H 1448.86 -2.59007 -3.2566 0
M  V30 15500 H 1447.74 -3.05791 -4.55832 0
M  V30 15501 H 1448 -1.35661 -4.20771 0
M  V30 15502 N 1447.06 0.947303 -1.25952 0
M  V30 15503 C 1448.31 1.6953 -1.11299 0
M  V30 15504 C 1448.64 1.9113 0.343961 0
M  V30 15505 O 1447.91 1.48755 1.25309 0
M  V30 15506 C 1448.2 3.0738 -1.87588 0
M  V30 15507 C 1448.05 2.93145 -3.41154 0
M  V30 15508 C 1449.37 4.07396 -1.66483 0
M  V30 15509 H 1446.49 0.615281 -0.405707 0
M  V30 15510 H 1449.13 1.10064 -1.54874 0
M  V30 15511 H 1447.28 3.58143 -1.50553 0
M  V30 15512 H 1448.95 2.49651 -3.87907 0
M  V30 15513 H 1447.19 2.28902 -3.68492 0
M  V30 15514 H 1447.87 3.9089 -3.89755 0
M  V30 15515 H 1450.34 3.65572 -1.98738 0
M  V30 15516 H 1449.22 5.01876 -2.22287 0
M  V30 15517 H 1449.48 4.379 -0.607916 0
M  V30 15518 N 1448.54 1.07657 1.15099 0
M  V30 15519 C 1449.49 0.699678 2.19939 0
M  V30 15520 C 1450.46 -0.310432 1.63173 0
M  V30 15521 O 1451.64 -0.196177 1.89789 0
M  V30 15522 C 1448.78 0.106963 3.44934 0
M  V30 15523 C 1447.89 1.16892 4.15885 0
M  V30 15524 C 1447.03 0.540884 5.28439 0
M  V30 15525 C 1446.07 1.58542 5.91211 0
M  V30 15526 N 1445.2 0.979731 6.95231 0
M  V30 15527 H 1450.04 1.59805 2.51528 0
M  V30 15528 H 1447.58 0.798746 1.23525 0
M  V30 15529 H 1449.54 -0.254335 4.16424 0
M  V30 15530 H 1448.17 -0.754756 3.13852 0
M  V30 15531 H 1447.22 1.64775 3.4286 0
M  V30 15532 H 1448.53 1.96078 4.58645 0
M  V30 15533 H 1447.69 0.127397 6.06566 0
M  V30 15534 H 1446.43 -0.282708 4.8688 0
M  V30 15535 H 1445.43 2.00865 5.11794 0
M  V30 15536 H 1446.66 2.41135 6.34847 0
M  V30 15537 H 1444.6 0.177098 6.55761 0
M  V30 15538 H 1444.52 1.70878 7.36435 0
M  V30 15539 H 1445.79 0.591849 7.7725 0
M  V30 15540 N 1450.02 -1.31994 0.861122 0
M  V30 15541 C 1451.27 -1.96294 0.463868 0
M  V30 15542 C 1451.58 -1.68869 -0.98704 0
M  V30 15543 O 1452.78 -2.26959 -1.49003 0
M  V30 15544 C 1451.24 -3.51377 0.77858 0
M  V30 15545 C 1450.85 -3.87653 2.24565 0
M  V30 15546 C 1452.59 -4.22115 0.449365 0
M  V30 15547 C 1450.5 -5.35809 2.50324 0
M  V30 15548 H 1449.43 -0.734647 0.169733 0
M  V30 15549 H 1452.08 -1.50294 1.0528 0
M  V30 15550 H 1450.46 -3.95821 0.119005 0
M  V30 15551 H 1451.64 -3.54197 2.94755 0
M  V30 15552 H 1449.95 -3.29957 2.54003 0
M  V30 15553 H 1452.55 -5.31103 0.61916 0
M  V30 15554 H 1452.89 -4.11814 -0.609528 0
M  V30 15555 H 1453.42 -3.83276 1.06511 0
M  V30 15556 H 1450.16 -5.51138 3.54863 0
M  V30 15557 H 1449.68 -5.70648 1.84719 0
M  V30 15558 H 1451.36 -6.02968 2.34602 0
M  V30 15559 N 1451.49 -0.619688 -1.44906 0
M  V30 15560 C 1452.42 0.0791121 -2.33366 0
M  V30 15561 C 1453.41 0.846503 -1.47541 0
M  V30 15562 O 1454.59 0.814657 -1.76287 0
M  V30 15563 C 1451.72 1.06901 -3.30438 0
M  V30 15564 C 1450.67 0.41403 -4.25993 0
M  V30 15565 C 1450 1.51303 -5.12846 0
M  V30 15566 C 1451.3 -0.672483 -5.17953 0
M  V30 15567 H 1452.99 -0.659551 -2.92045 0
M  V30 15568 H 1450.54 -0.318623 -1.40431 0
M  V30 15569 H 1452.49 1.56653 -3.912 0
M  V30 15570 H 1451.22 1.83842 -2.69944 0
M  V30 15571 H 1449.88 -0.0627315 -3.66546 0
M  V30 15572 H 1449.52 2.27303 -4.48712 0
M  V30 15573 H 1449.22 1.08022 -5.77586 0
M  V30 15574 H 1450.75 2.01258 -5.76479 0
M  V30 15575 H 1452.16 -0.258542 -5.72717 0
M  V30 15576 H 1450.56 -1.02776 -5.91234 0
M  V30 15577 H 1451.63 -1.54425 -4.59653 0
M  V30 15578 N 1452.97 1.53444 -0.359552 0
M  V30 15579 C 1454.39 1.59598 -0.00824946 0
M  V30 15580 C 1454.59 1.37492 1.47303 0
M  V30 15581 O 1453.64 1.1771 2.23385 0
M  V30 15582 C 1454.96 2.9718 -0.45878 0
M  V30 15583 C 1456.51 3.1027 -0.412485 0
M  V30 15584 C 1456.98 4.50255 -0.838733 0
M  V30 15585 N 1458.47 4.56352 -0.793552 0
M  V30 15586 C 1459.21 5.62845 -1.09513 0
M  V30 15587 N 1458.7 6.77119 -1.46567 0
M  V30 15588 N 1460.5 5.52799 -1.01832 0
M  V30 15589 H 1452.65 1.66065 -1.32424 0
M  V30 15590 H 1454.91 0.778561 -0.540876 0
M  V30 15591 H 1454.62 3.18475 -1.4922 0
M  V30 15592 H 1454.49 3.7687 0.157741 0
M  V30 15593 H 1456.88 2.88689 0.611791 0
M  V30 15594 H 1456.96 2.32602 -1.06442 0
M  V30 15595 H 1456.6 4.72573 -1.8611 0
M  V30 15596 H 1456.53 5.26344 -0.164109 0
M  V30 15597 H 1459.02 3.74299 -0.52048 0
M  V30 15598 H 1459.34 7.54313 -1.68021 0
M  V30 15599 H 1457.68 6.78525 -1.50427 0
M  V30 15600 H 1460.87 4.62403 -0.728059 0
M  V30 15601 H 1461.04 6.35698 -1.25668 0
M  V30 15602 N 1454.45 0.0885642 1.57351 0
M  V30 15603 C 1455.7 -0.57753 1.94403 0
M  V30 15604 C 1456.03 -1.68238 0.970029 0
M  V30 15605 O 1455.3 -1.945 0.00198684 0
M  V30 15606 C 1455.59 -1.13882 3.41618 0
M  V30 15607 C 1455.44 -0.0394686 4.49783 0
M  V30 15608 C 1456.76 -2.03922 3.90005 0
M  V30 15609 H 1453.88 -0.208468 0.706902 0
M  V30 15610 H 1456.52 0.157945 1.89342 0
M  V30 15611 H 1454.67 -1.76561 3.46061 0
M  V30 15612 H 1456.34 0.594458 4.57454 0
M  V30 15613 H 1454.59 0.627775 4.29234 0
M  V30 15614 H 1455.26 -0.472897 5.49971 0
M  V30 15615 H 1457.73 -1.51156 3.87674 0
M  V30 15616 H 1456.61 -2.40123 4.93591 0
M  V30 15617 H 1456.87 -2.95407 3.28918 0
M  V30 15618 N 1455.93 -1.56509 -0.185096 0
M  V30 15619 C 1456.86 -1.98363 -1.23184 0
M  V30 15620 C 1457.84 -0.85709 -1.46929 0
M  V30 15621 O 1459.02 -1.12216 -1.58497 0
M  V30 15622 C 1456.15 -2.33172 -2.57387 0
M  V30 15623 C 1455.11 -3.48658 -2.48236 0
M  V30 15624 C 1454.43 -3.69171 -3.86804 0
M  V30 15625 C 1455.73 -4.82538 -1.99885 0
M  V30 15626 H 1457.43 -2.86053 -0.883982 0
M  V30 15627 H 1454.97 -1.37623 -0.423786 0
M  V30 15628 H 1456.93 -2.61048 -3.30805 0
M  V30 15629 H 1455.65 -1.42377 -2.93933 0
M  V30 15630 H 1454.31 -3.20889 -1.77273 0
M  V30 15631 H 1453.96 -2.75689 -4.20719 0
M  V30 15632 H 1453.66 -4.46868 -3.81553 0
M  V30 15633 H 1455.18 -3.99433 -4.61829 0
M  V30 15634 H 1456.6 -5.0938 -2.63068 0
M  V30 15635 H 1454.99 -5.63775 -2.05614 0
M  V30 15636 H 1456.06 -4.75453 -0.952503 0
M  V30 15637 N 1457.41 0.45317 -1.50944 0
M  V30 15638 C 1458.82 0.788393 -1.38768 0
M  V30 15639 C 1459.02 1.96233 -0.457676 0
M  V30 15640 O 1458.08 2.52328 0.0930651 0
M  V30 15641 C 1459.39 1.08363 -2.80496 0
M  V30 15642 C 1460.94 1.18901 -2.89537 0
M  V30 15643 C 1461.41 1.51727 -4.32138 0
M  V30 15644 N 1462.91 1.58683 -4.35171 0
M  V30 15645 C 1463.64 1.85623 -5.42523 0
M  V30 15646 N 1463.14 2.10462 -6.60059 0
M  V30 15647 N 1464.93 1.87274 -5.29986 0
M  V30 15648 H 1457.08 -0.320216 -2.09972 0
M  V30 15649 H 1459.34 -0.0808021 -0.94455 0
M  V30 15650 H 1459.05 0.293897 -3.5047 0
M  V30 15651 H 1458.92 2.01532 -3.18849 0
M  V30 15652 H 1461.31 1.96939 -2.19771 0
M  V30 15653 H 1461.39 0.236691 -2.54703 0
M  V30 15654 H 1461.04 0.74223 -5.02447 0
M  V30 15655 H 1460.97 2.48139 -4.64472 0
M  V30 15656 H 1463.46 1.41455 -3.50427 0
M  V30 15657 H 1463.77 2.30343 -7.37673 0
M  V30 15658 H 1462.11 2.07817 -6.63202 0
M  V30 15659 H 1465.31 1.67377 -4.37153 0
M  V30 15660 H 1465.48 2.07933 -6.13733 0
M  V30 15661 N 1458.88 1.40823 0.707568 0
M  V30 15662 C 1460.13 1.39741 1.4697 0
M  V30 15663 C 1460.46 0.00231194 1.942 0
M  V30 15664 O 1459.74 -0.967798 1.68713 0
M  V30 15665 C 1460.02 2.39385 2.69011 0
M  V30 15666 C 1459.87 3.87953 2.27624 0
M  V30 15667 C 1461.19 2.3645 3.71186 0
M  V30 15668 H 1458.31 0.508904 0.533091 0
M  V30 15669 H 1460.95 1.72015 0.806888 0
M  V30 15670 H 1459.1 2.11993 3.25563 0
M  V30 15671 H 1460.78 4.26202 1.76492 0
M  V30 15672 H 1459.02 4.03399 1.59537 0
M  V30 15673 H 1459.69 4.53201 3.15139 0
M  V30 15674 H 1462.17 2.60731 3.24282 0
M  V30 15675 H 1461.04 3.08204 4.54204 0
M  V30 15676 H 1461.3 1.3789 4.20046 0
M  V30 15677 N 1460.36 -0.94061 1.26453 0
M  V30 15678 C 1461.29 -2.05667 1.10559 0
M  V30 15679 C 1462.27 -1.70097 0.0106258 0
M  V30 15680 O 1463.46 -1.93338 0.182756 0
M  V30 15681 C 1460.59 -3.3936 0.7384 0
M  V30 15682 C 1459.54 -3.88993 1.78517 0
M  V30 15683 C 1458.87 -5.19343 1.27228 0
M  V30 15684 C 1460.17 -4.13812 3.1868 0
M  V30 15685 H 1461.86 -2.19221 2.03918 0
M  V30 15686 H 1459.41 -1.05339 0.98182 0
M  V30 15687 H 1461.36 -4.16902 0.61409 0
M  V30 15688 H 1460.09 -3.25783 -0.230887 0
M  V30 15689 H 1458.74 -3.13633 1.89816 0
M  V30 15690 H 1458.39 -5.02147 0.292816 0
M  V30 15691 H 1458.09 -5.53521 1.97201 0
M  V30 15692 H 1459.62 -5.99468 1.16065 0
M  V30 15693 H 1461.03 -4.81966 3.10455 0
M  V30 15694 H 1459.43 -4.59273 3.86249 0
M  V30 15695 H 1460.5 -3.19571 3.64695 0
M  V30 15696 N 1461.84 -1.08266 -1.14527 0
M  V30 15697 C 1463.26 -0.810001 -1.37518 0
M  V30 15698 C 1463.46 0.581399 -1.9293 0
M  V30 15699 O 1462.51 1.33846 -2.14107 0
M  V30 15700 C 1463.83 -1.89149 -2.33759 0
M  V30 15701 C 1465.37 -1.91733 -2.47401 0
M  V30 15702 C 1465.85 -2.98992 -3.4694 0
M  V30 15703 N 1467.34 -2.98155 -3.54483 0
M  V30 15704 C 1468.07 -3.77791 -4.31349 0
M  V30 15705 N 1467.57 -4.67302 -5.11469 0
M  V30 15706 N 1469.36 -3.66099 -4.2653 0
M  V30 15707 H 1461.51 -1.97988 -0.769048 0
M  V30 15708 H 1463.78 -0.859115 -0.40078 0
M  V30 15709 H 1463.48 -2.89175 -2.00176 0
M  V30 15710 H 1463.36 -1.75955 -3.33646 0
M  V30 15711 H 1465.74 -0.923531 -2.80276 0
M  V30 15712 H 1465.83 -2.09005 -1.4748 0
M  V30 15713 H 1465.47 -3.98578 -3.14799 0
M  V30 15714 H 1465.4 -2.78965 -4.46639 0
M  V30 15715 H 1467.89 -2.33277 -2.97305 0
M  V30 15716 H 1468.2 -5.24676 -5.67393 0
M  V30 15717 H 1466.55 -4.71345 -5.10743 0
M  V30 15718 H 1469.74 -2.95539 -3.63008 0
M  V30 15719 H 1469.91 -4.28402 -4.86185 0
M  V30 15720 N 1463.32 1.31536 -0.86811 0
M  V30 15721 C 1464.73 1.78991 -0.530937 0
M  V30 15722 C 1465.08 1.71553 0.952046 0
M  V30 15723 O 1464.21 1.28216 1.74326 0
M  V30 15724 C 1464.8 3.25004 -0.956981 0
M  V30 15725 C 1463.36 3.70362 -0.671495 0
M  V30 15726 C 1462.51 2.52361 -1.14932 0
M  V30 15727 H 1465.46 1.18644 -1.05401 0
M  V30 15728 H 1465.48 3.79477 -0.278883 0
M  V30 15729 H 1464.99 3.30385 -2.03635 0
M  V30 15730 H 1463.09 3.70483 0.39659 0
M  V30 15731 H 1463.21 4.62581 -1.24722 0
M  V30 15732 H 1461.57 2.4826 -0.569144 0
M  V30 15733 H 1462.35 2.60489 -2.23608 0
M  V30 15734 N 1464.8 0.627364 1.44575 0
M  V30 15735 C 1465.73 -0.066735 2.33405 0
M  V30 15736 C 1466.71 -0.838666 1.47988 0
M  V30 15737 O 1467.89 -0.805296 1.76716 0
M  V30 15738 C 1465.02 -1.05148 3.31 0
M  V30 15739 C 1463.98 -0.391433 4.26206 0
M  V30 15740 C 1463.3 -1.48581 5.13642 0
M  V30 15741 C 1464.6 0.699942 5.17589 0
M  V30 15742 H 1466.3 0.675029 2.91691 0
M  V30 15743 H 1463.84 0.326066 1.4026 0
M  V30 15744 H 1465.8 -1.54576 3.92026 0
M  V30 15745 H 1464.52 -1.82408 2.70915 0
M  V30 15746 H 1463.18 0.0821694 3.66508 0
M  V30 15747 H 1462.83 -2.2492 4.49911 0
M  V30 15748 H 1462.53 -1.04957 5.7815 0
M  V30 15749 H 1464.05 -1.98198 5.77538 0
M  V30 15750 H 1465.47 0.288911 5.72572 0
M  V30 15751 H 1463.86 1.0591 5.9068 0
M  V30 15752 H 1464.93 1.5686 4.58828 0
M  V30 15753 N 1466.28 -1.53251 0.367684 0
M  V30 15754 C 1467.69 -1.59591 0.0167132 0
M  V30 15755 C 1467.89 -1.38272 -1.46571 0
M  V30 15756 O 1466.95 -1.18893 -2.22757 0
M  V30 15757 C 1468.26 -2.96932 0.474534 0
M  V30 15758 C 1469.81 -3.10047 0.428934 0
M  V30 15759 C 1470.28 -4.49804 0.862599 0
M  V30 15760 N 1471.77 -4.55925 0.817742 0
M  V30 15761 C 1472.51 -5.62256 1.12496 0
M  V30 15762 N 1472.01 -6.76332 1.50156 0
M  V30 15763 N 1473.8 -5.52251 1.04762 0
M  V30 15764 H 1465.95 -1.6536 1.33303 0
M  V30 15765 H 1468.21 -0.775681 0.544998 0
M  V30 15766 H 1467.92 -3.17679 1.50907 0
M  V30 15767 H 1467.79 -3.76948 -0.137752 0
M  V30 15768 H 1470.18 -2.89009 -0.596473 0
M  V30 15769 H 1470.26 -2.32034 1.07674 0
M  V30 15770 H 1469.9 -4.7158 1.88613 0
M  V30 15771 H 1469.83 -5.2625 0.19202 0
M  V30 15772 H 1472.33 -3.74017 0.540323 0
M  V30 15773 H 1472.64 -7.53412 1.72019 0
M  V30 15774 H 1470.98 -6.77718 1.54024 0
M  V30 15775 H 1474.17 -4.62011 0.752571 0
M  V30 15776 H 1474.35 -6.35022 1.29038 0
M  V30 15777 N 1467.75 -0.0969077 -1.57302 0
M  V30 15778 C 1468.72 0.846895 -2.1298 0
M  V30 15779 C 1469.72 1.20962 -1.05947 0
M  V30 15780 O 1470.91 1.13876 -1.31826 0
M  V30 15781 C 1468.04 2.14215 -2.65188 0
M  V30 15782 H 1469.23 0.363398 -2.9769 0
M  V30 15783 H 1466.78 0.152107 -1.55558 0
M  V30 15784 H 1467.52 2.67046 -1.84002 0
M  V30 15785 H 1467.3 1.89176 -3.43445 0
M  V30 15786 H 1468.79 2.81728 -3.08252 0
M  V30 15787 N 1469.23 1.56605 0.176793 0
M  V30 15788 C 1470.48 1.80875 0.892578 0
M  V30 15789 C 1470.79 0.673245 1.83648 0
M  V30 15790 O 1472 0.800732 2.59423 0
M  V30 15791 C 1470.46 3.20481 1.63768 0
M  V30 15792 C 1470.06 4.41885 0.737685 0
M  V30 15793 C 1471.81 3.54048 2.34202 0
M  V30 15794 C 1469.71 5.72512 1.48271 0
M  V30 15795 H 1468.64 0.674476 0.337042 0
M  V30 15796 H 1471.3 1.82922 0.145574 0
M  V30 15797 H 1469.68 3.12736 2.42924 0
M  V30 15798 H 1470.85 4.60797 -0.0165186 0
M  V30 15799 H 1469.17 4.16153 0.143277 0
M  V30 15800 H 1471.76 4.48886 2.90526 0
M  V30 15801 H 1472.11 2.78665 3.09276 0
M  V30 15802 H 1472.64 3.63322 1.61995 0
M  V30 15803 H 1469.38 6.5091 0.774399 0
M  V30 15804 H 1468.9 5.57586 2.21038 0
M  V30 15805 H 1470.58 6.14274 2.03165 0
M  V30 15806 N 1470.71 -0.445159 1.51182 0
M  V30 15807 C 1471.66 -1.5604 1.72494 0
M  V30 15808 C 1472.65 -1.58753 0.591101 0
M  V30 15809 O 1473.86 -1.62591 0.772285 0
M  V30 15810 H 1470.23 -0.518265 0.544891 0
M  V30 15811 H 1472.2 -1.35237 2.65995 0
M  V30 15812 C 1470.95 -2.93768 1.85999 0
M  V30 15813 H 1470.28 -2.9241 2.72647 0
M  V30 15814 H 1471.72 -3.71189 2.04926 0
M  V30 15815 C 1470.17 -3.31186 0.617853 0
M  V30 15816 O 1470.7 -4.01035 -0.231101 0
M  V30 15817 N 1468.91 -2.86868 0.464234 0
M  V30 15818 H 1468.46 -2.30198 1.15614 0
M  V30 15819 H 1468.42 -3.12267 -0.365643 0
M  V30 15820 N 1472.19 -1.41197 -0.700089 0
M  V30 15821 C 1473.6 -1.23567 -1.01012 0
M  V30 15822 C 1473.8 -0.121821 -2.01131 0
M  V30 15823 O 1472.86 0.515258 -2.47187 0
M  V30 15824 C 1474.17 -2.58329 -1.53904 0
M  V30 15825 C 1475.72 -2.65473 -1.65811 0
M  V30 15826 C 1476.2 -4.00541 -2.22106 0
M  V30 15827 N 1477.69 -4.02364 -2.29472 0
M  V30 15828 C 1478.42 -5.03672 -2.74048 0
M  V30 15829 N 1477.92 -6.15371 -3.18262 0
M  V30 15830 N 1479.71 -4.91035 -2.73571 0
M  V30 15831 H 1471.86 -2.12368 -0.0367488 0
M  V30 15832 H 1474.12 -0.944713 -0.0788795 0
M  V30 15833 H 1473.83 -3.40565 -0.877964 0
M  V30 15834 H 1473.7 -2.805 -2.5219 0
M  V30 15835 H 1476.09 -1.83598 -2.31032 0
M  V30 15836 H 1476.17 -2.47117 -0.660831 0
M  V30 15837 H 1475.82 -4.82862 -1.57502 0
M  V30 15838 H 1475.75 -4.16235 -3.22577 0
M  V30 15839 H 1478.24 -3.21713 -1.98265 0
M  V30 15840 H 1478.55 -6.88548 -3.50888 0
M  V30 15841 H 1476.9 -6.18914 -3.16182 0
M  V30 15842 H 1480.09 -4.02858 -2.38376 0
M  V30 15843 H 1480.26 -5.70127 -3.07993 0
M  V30 15844 N 1473.67 0.933891 -1.2695 0
M  V30 15845 C 1474.63 2.0152 -1.0919 0
M  V30 15846 C 1475.63 1.60755 -0.037865 0
M  V30 15847 O 1476.82 1.71904 -0.281917 0
M  V30 15848 C 1473.95 3.34403 -0.66239 0
M  V30 15849 H 1475.14 2.18706 -2.05201 0
M  V30 15850 H 1472.7 1.11385 -1.0965 0
M  V30 15851 H 1473.43 3.22915 0.299388 0
M  V30 15852 H 1473.22 3.65345 -1.42356 0
M  V30 15853 H 1474.71 4.13826 -0.560187 0
M  V30 15854 N 1475.14 1.08871 1.13951 0
M  V30 15855 C 1476.09 0.722966 2.19184 0
M  V30 15856 C 1477.06 -0.293108 1.63493 0
M  V30 15857 O 1478.25 -0.176036 1.89986 0
M  V30 15858 C 1475.39 0.143542 3.44801 0
M  V30 15859 C 1474.5 1.21297 4.14622 0
M  V30 15860 C 1473.63 0.596902 5.27836 0
M  V30 15861 C 1472.67 1.64803 5.89497 0
M  V30 15862 N 1471.81 1.05341 6.94152 0
M  V30 15863 H 1476.65 1.62464 2.49819 0
M  V30 15864 H 1474.19 0.811803 1.22671 0
M  V30 15865 H 1476.14 -0.210153 4.1667 0
M  V30 15866 H 1474.77 -0.721426 3.14635 0
M  V30 15867 H 1473.83 1.68403 3.41093 0
M  V30 15868 H 1475.14 2.00931 4.56539 0
M  V30 15869 H 1474.29 0.191724 6.06397 0
M  V30 15870 H 1473.03 -0.231052 4.87152 0
M  V30 15871 H 1472.04 2.06282 5.09635 0
M  V30 15872 H 1473.26 2.47855 6.32254 0
M  V30 15873 H 1471.21 0.24664 6.55536 0
M  V30 15874 H 1471.12 1.7868 7.34581 0
M  V30 15875 H 1472.39 0.674253 7.76578 0
M  V30 15876 N 1476.62 -1.31073 0.875073 0
M  V30 15877 C 1477.87 -1.9613 0.487584 0
M  V30 15878 C 1478.19 -1.69482 -0.964407 0
M  V30 15879 O 1477.46 -1.013 -1.67676 0
M  V30 15880 H 1476.04 -0.725649 0.177319 0
M  V30 15881 H 1478.7 -1.59787 1.11598 0
M  V30 15882 H 1477.8 -3.05265 0.649574 0
M  V30 15883 N 1478.1 -0.635022 -1.4424 0
M  V30 15884 C 1479.03 0.0543561 -2.33437 0
M  V30 15885 C 1480.01 0.830807 -1.48431 0
M  V30 15886 O 1481.2 0.795913 -1.77141 0
M  V30 15887 C 1478.33 1.03391 -3.31553 0
M  V30 15888 C 1477.28 0.368824 -4.26408 0
M  V30 15889 C 1476.61 1.45855 -5.14422 0
M  V30 15890 C 1477.91 -0.727381 -5.1721 0
M  V30 15891 H 1479.6 -0.690489 -2.91329 0
M  V30 15892 H 1477.15 -0.3335 -1.40085 0
M  V30 15893 H 1479.1 1.52495 -3.9284 0
M  V30 15894 H 1477.82 1.80969 -2.71878 0
M  V30 15895 H 1476.48 -0.101605 -3.66459 0
M  V30 15896 H 1476.13 2.22531 -4.51098 0
M  V30 15897 H 1475.83 1.0189 -5.78699 0
M  V30 15898 H 1477.35 1.95132 -5.78581 0
M  V30 15899 H 1478.77 -0.319272 -5.7241 0
M  V30 15900 H 1477.17 -1.09041 -5.9011 0
M  V30 15901 H 1478.24 -1.59292 -4.57989 0
M  V30 15902 N 1479.58 1.53054 -0.375806 0
M  V30 15903 C 1480.53 2.2605 0.46582 0
M  V30 15904 C 1481.5 1.27123 1.06906 0
M  V30 15905 O 1482.68 1.55926 1.09963 0
M  V30 15906 C 1479.82 3.06066 1.59429 0
M  V30 15907 C 1478.93 4.19901 1.01523 0
M  V30 15908 C 1478.07 4.87339 2.11363 0
M  V30 15909 C 1477.11 5.93189 1.50976 0
M  V30 15910 N 1476.24 6.54276 2.54692 0
M  V30 15911 H 1481.08 2.97553 -0.163149 0
M  V30 15912 H 1478.62 1.4681 -0.092282 0
M  V30 15913 H 1480.58 3.50739 2.25915 0
M  V30 15914 H 1479.21 2.36799 2.19377 0
M  V30 15915 H 1478.26 3.7964 0.240346 0
M  V30 15916 H 1479.57 4.95935 0.533812 0
M  V30 15917 H 1478.73 5.35247 2.85649 0
M  V30 15918 H 1477.47 4.10799 2.6286 0
M  V30 15919 H 1476.47 5.44632 0.752095 0
M  V30 15920 H 1477.7 6.71654 1.00291 0
M  V30 15921 H 1475.64 5.80584 3.05383 0
M  V30 15922 H 1475.56 7.2588 2.11267 0
M  V30 15923 H 1476.83 7.06831 3.28648 0
M  V30 15924 N 1481.06 0.105248 1.57248 0
M  V30 15925 C 1482.01 -0.860855 2.11124 0
M  V30 15926 C 1482.99 -1.23721 1.02868 0
M  V30 15927 O 1484.18 -1.2106 1.29126 0
M  V30 15928 C 1481.31 -2.11612 2.70325 0
M  V30 15929 C 1480.4 -1.76474 3.85639 0
M  V30 15930 N 1480.79 -1.11944 4.93257 0
M  V30 15931 C 1479.09 -2.0602 3.95565 0
M  V30 15932 C 1479.79 -0.956421 5.73783 0
M  V30 15933 N 1478.76 -1.47701 5.23149 0
M  V30 15934 H 1482.57 -0.35816 2.91709 0
M  V30 15935 H 1480.08 -0.0976543 1.62106 0
M  V30 15936 H 1482.08 -2.81778 3.07257 0
M  V30 15937 H 1480.74 -2.62438 1.91198 0
M  V30 15938 H 1481.75 -0.785042 5.11916 0
M  V30 15939 H 1478.42 -2.58989 3.27461 0
M  V30 15940 H 1479.81 -0.450964 6.70385 0
M  V30 15941 N 1482.53 -1.56697 -0.168486 0
M  V30 15942 C 1483.78 -1.82424 -0.885965 0
M  V30 15943 C 1484.11 -0.683543 -1.81773 0
M  V30 15944 O 1483.39 0.314319 -1.91943 0
M  V30 15945 C 1483.67 -3.18553 -1.67917 0
M  V30 15946 C 1483.52 -4.43154 -0.770343 0
M  V30 15947 C 1484.84 -3.51654 -2.64627 0
M  V30 15948 H 1481.96 -0.663594 -0.320644 0
M  V30 15949 H 1484.6 -1.89391 -0.15205 0
M  V30 15950 H 1482.75 -3.12745 -2.30484 0
M  V30 15951 H 1484.43 -4.61032 -0.157328 0
M  V30 15952 H 1482.67 -4.33729 -0.0785653 0
M  V30 15953 H 1483.34 -5.34961 -1.36092 0
M  V30 15954 H 1485.82 -3.57934 -2.12185 0
M  V30 15955 H 1484.69 -4.47975 -3.17191 0
M  V30 15956 H 1484.95 -2.76503 -3.44961 0
M  V30 15957 N 1484.01 0.437135 -1.51416 0
M  V30 15958 C 1485.26 1.18831 -1.64338 0
M  V30 15959 C 1485.59 1.9086 -0.358638 0
M  V30 15960 O 1484.87 1.83607 0.641769 0
M  V30 15961 C 1485.15 2.20515 -2.84685 0
M  V30 15962 C 1485 1.52568 -4.23135 0
M  V30 15963 C 1486.32 3.21494 -3.00549 0
M  V30 15964 H 1483.44 0.430652 -0.598087 0
M  V30 15965 H 1486.08 0.47753 -1.83901 0
M  V30 15966 H 1484.23 2.81132 -2.68136 0
M  V30 15967 H 1485.9 0.952851 -4.51352 0
M  V30 15968 H 1484.15 0.828025 -4.25824 0
M  V30 15969 H 1484.82 2.26623 -5.03335 0
M  V30 15970 H 1487.29 2.7093 -3.1581 0
M  V30 15971 H 1486.17 3.89934 -3.86319 0
M  V30 15972 H 1486.43 3.8761 -2.12629 0
M  V30 15973 N 1485.49 1.41566 0.692592 0
M  V30 15974 C 1486.42 1.39582 1.81795 0
M  V30 15975 C 1487.44 0.29754 1.60058 0
M  V30 15976 O 1488.62 0.559463 1.69506 0
M  V30 15977 C 1485.72 1.15506 3.18609 0
M  V30 15978 C 1484.9 2.37432 3.67349 0
M  V30 15979 C 1483.96 2.09168 4.82841 0
M  V30 15980 O 1482.98 2.8223 4.94303 0
M  V30 15981 N 1484.18 1.08377 5.70294 0
M  V30 15982 H 1486.95 2.36577 1.83988 0
M  V30 15983 H 1484.51 1.36216 0.875026 0
M  V30 15984 H 1486.5 0.945452 3.93501 0
M  V30 15985 H 1485.07 0.270987 3.11423 0
M  V30 15986 H 1484.29 2.74076 2.8333 0
M  V30 15987 H 1485.58 3.18661 3.96652 0
M  V30 15988 H 1484.98 0.479122 5.63667 0
M  V30 15989 H 1483.54 0.934042 6.45073 0
M  V30 15990 N 1486.97 -0.927146 1.27443 0
M  V30 15991 C 1488.21 -1.68946 1.15051 0
M  V30 15992 C 1488.57 -1.89664 -0.298585 0
M  V30 15993 O 1489.77 -2.63218 -0.544943 0
M  V30 15994 C 1488.04 -3.01884 1.91313 0
M  V30 15995 S 1489.6 -3.93021 1.9514 0
M  V30 15996 H 1486.42 -0.580376 0.410713 0
M  V30 15997 H 1489.02 -1.10378 1.61359 0
M  V30 15998 H 1487.73 -2.84496 2.95787 0
M  V30 15999 H 1487.26 -3.65504 1.45501 0
M  V30 16000 H 1489.27 -4.85002 1.04822 0
M  V30 16001 N 1488.45 -1.09474 -1.13372 0
M  V30 16002 C 1489.69 -0.832323 -1.84933 0
M  V30 16003 C 1490.03 0.640469 -1.83335 0
M  V30 16004 O 1489.3 1.47158 -1.2718 0
M  V30 16005 C 1489.58 -1.36876 -3.33072 0
M  V30 16006 C 1489.44 -2.90769 -3.43181 0
M  V30 16007 C 1490.76 -1.00294 -4.2852 0
M  V30 16008 H 1487.87 -0.30382 -0.671463 0
M  V30 16009 H 1490.52 -1.35622 -1.33066 0
M  V30 16010 H 1488.67 -0.923134 -3.77373 0
M  V30 16011 H 1490.34 -3.43784 -3.07588 0
M  V30 16012 H 1488.58 -3.27876 -2.84042 0
M  V30 16013 H 1489.25 -3.23381 -4.47358 0
M  V30 16014 H 1491.73 -1.38729 -3.92293 0
M  V30 16015 H 1490.6 -1.40533 -5.30605 0
M  V30 16016 H 1490.87 0.0888133 -4.42011 0
M  V30 16017 N 1489.92 1.30607 -0.882012 0
M  V30 16018 C 1491.17 1.96256 -0.498964 0
M  V30 16019 C 1491.5 1.69651 0.951259 0
M  V30 16020 O 1490.75 0.992303 1.68677 0
M  V30 16021 C 1491.05 3.50136 -0.716929 0
M  V30 16022 C 1490.72 3.96785 -2.14178 0
M  V30 16023 C 1489.38 4.09234 -2.53142 0
M  V30 16024 C 1491.73 4.21154 -3.07048 0
M  V30 16025 C 1489.06 4.43411 -3.84192 0
M  V30 16026 C 1491.41 4.56799 -4.37627 0
M  V30 16027 C 1490.08 4.67456 -4.76488 0
M  V30 16028 H 1489.35 0.718153 -0.182584 0
M  V30 16029 H 1491.99 1.55527 -1.1173 0
M  V30 16030 H 1490.3 3.91797 -0.0155388 0
M  V30 16031 H 1492 3.98998 -0.400196 0
M  V30 16032 H 1488.59 3.876 -1.82932 0
M  V30 16033 H 1492.77 4.1102 -2.78167 0
M  V30 16034 H 1488.03 4.49861 -4.14047 0
M  V30 16035 H 1492.2 4.74607 -5.09629 0
M  V30 16036 H 1489.83 4.93694 -5.78074 0
M  V30 16037 N 1491.4 0.642663 1.43901 0
M  V30 16038 C 1492.65 0.152003 2.0223 0
M  V30 16039 C 1492.98 -1.22711 1.50518 0
M  V30 16040 O 1492.26 -1.817 0.693937 0
M  V30 16041 C 1492.54 0.151278 3.59782 0
M  V30 16042 C 1492.39 1.56356 4.2175 0
M  V30 16043 C 1493.71 -0.518016 4.37041 0
M  V30 16044 H 1490.83 0.0567094 0.734815 0
M  V30 16045 H 1493.47 0.821337 1.7133 0
M  V30 16046 H 1491.62 -0.418679 3.86237 0
M  V30 16047 H 1493.29 2.18329 4.06362 0
M  V30 16048 H 1491.54 2.11401 3.78803 0
M  V30 16049 H 1492.21 1.51499 5.30803 0
M  V30 16050 H 1494.68 -0.0331947 4.16087 0
M  V30 16051 H 1493.56 -0.487754 5.46729 0
M  V30 16052 H 1493.82 -1.59036 4.12504 0
M  V30 16053 N 1492.88 -1.52852 0.383918 0
M  V30 16054 C 1493.84 -2.24904 -0.441687 0
M  V30 16055 C 1494.84 -1.26345 -0.99466 0
M  V30 16056 O 1496.03 -1.50484 -0.877513 0
M  V30 16057 C 1493.17 -2.99994 -1.61915 0
M  V30 16058 H 1494.36 -2.99304 0.189047 0
M  V30 16059 H 1491.91 -1.55708 0.135932 0
M  V30 16060 H 1492.65 -2.29882 -2.28746 0
M  V30 16061 H 1492.43 -3.72328 -1.2294 0
M  V30 16062 H 1493.92 -3.54716 -2.20378 0
M  V30 16063 N 1494.36 -0.113586 -1.5719 0
M  V30 16064 C 1495.61 0.545507 -1.94183 0
M  V30 16065 C 1495.92 1.68176 -0.998816 0
M  V30 16066 O 1497.13 2.40324 -1.26319 0
M  V30 16067 C 1495.58 1.02178 -3.45091 0
M  V30 16068 C 1495.19 -0.0857195 -4.47918 0
M  V30 16069 C 1496.94 1.65255 -3.91013 0
M  V30 16070 C 1494.84 0.406946 -5.89998 0
M  V30 16071 H 1493.77 0.20755 -0.724872 0
M  V30 16072 H 1496.42 -0.192567 -1.82487 0
M  V30 16073 H 1494.81 1.81411 -3.52003 0
M  V30 16074 H 1495.98 -0.861821 -4.52669 0
M  V30 16075 H 1494.29 -0.622816 -4.11716 0
M  V30 16076 H 1496.89 2.0322 -4.94576 0
M  V30 16077 H 1497.23 2.52888 -3.30687 0
M  V30 16078 H 1497.77 0.925727 -3.86879 0
M  V30 16079 H 1494.51 -0.433199 -6.54067 0
M  V30 16080 H 1494.03 1.14965 -5.88679 0
M  V30 16081 H 1495.71 0.869934 -6.41125 0
M  V30 16082 N 1495.84 1.56784 0.160173 0
M  V30 16083 C 1497.25 1.51153 0.512352 0
M  V30 16084 C 1497.45 0.819774 1.84071 0
M  V30 16085 O 1496.51 0.384789 2.49551 0
M  V30 16086 C 1497.82 2.95906 0.534817 0
M  V30 16087 C 1499.37 3.06773 0.621248 0
M  V30 16088 C 1499.85 4.53006 0.674501 0
M  V30 16089 N 1501.34 4.57298 0.737087 0
M  V30 16090 C 1502.07 5.67805 0.799054 0
M  V30 16091 N 1501.57 6.87916 0.821171 0
M  V30 16092 N 1503.36 5.55804 0.838928 0
M  V30 16093 H 1495.51 2.00157 -0.710712 0
M  V30 16094 H 1497.77 0.91233 -0.257601 0
M  V30 16095 H 1497.48 3.49719 -0.372773 0
M  V30 16096 H 1497.35 3.51152 1.3774 0
M  V30 16097 H 1499.74 2.52987 1.51926 0
M  V30 16098 H 1499.82 2.54593 -0.248224 0
M  V30 16099 H 1499.47 5.07426 -0.219301 0
M  V30 16100 H 1499.4 5.02954 1.56028 0
M  V30 16101 H 1501.89 3.70825 0.727827 0
M  V30 16102 H 1502.2 7.67888 0.869938 0
M  V30 16103 H 1500.55 6.90504 0.789264 0
M  V30 16104 H 1503.74 4.60884 0.818728 0
M  V30 16105 H 1503.91 6.41945 0.883757 0
M  V30 16106 N 1497.32 -0.429099 1.51646 0
M  V30 16107 C 1498.54 -1.20006 1.68541 0
M  V30 16108 C 1498.96 -1.84806 0.386264 0
M  V30 16109 O 1498.32 -1.7106 -0.635988 0
M  V30 16110 C 1498.37 -2.27801 2.80694 0
M  V30 16111 O 1498.09 -1.65649 4.05576 0
M  V30 16112 C 1499.59 -3.17927 3.08929 0
M  V30 16113 H 1496.81 -0.361388 0.565367 0
M  V30 16114 H 1499.35 -0.507432 1.98104 0
M  V30 16115 H 1497.51 -2.92766 2.53706 0
M  V30 16116 H 1497.92 -2.36955 4.67924 0
M  V30 16117 H 1499.4 -3.8968 3.90965 0
M  V30 16118 H 1499.87 -3.79157 2.21668 0
M  V30 16119 H 1500.48 -2.58654 3.37606 0
M  V30 16120 N 1498.79 -1.41931 -0.685074 0
M  V30 16121 C 1500.04 -1.41147 -1.44085 0
M  V30 16122 C 1500.36 -0.0275793 -1.95581 0
M  V30 16123 O 1501.56 0.102873 -2.71305 0
M  V30 16124 C 1500.02 -2.4823 -2.60596 0
M  V30 16125 C 1499.63 -3.92576 -2.15842 0
M  V30 16126 C 1501.37 -2.56597 -3.38169 0
M  V30 16127 C 1499.28 -4.91189 -3.29374 0
M  V30 16128 H 1498.21 -0.52494 -0.541252 0
M  V30 16129 H 1500.86 -1.67798 -0.7427 0
M  V30 16130 H 1499.24 -2.14727 -3.32729 0
M  V30 16131 H 1500.41 -4.35381 -1.50929 0
M  V30 16132 H 1498.73 -3.87965 -1.51235 0
M  V30 16133 H 1501.33 -3.27453 -4.22704 0
M  V30 16134 H 1501.67 -1.60618 -3.84067 0
M  V30 16135 H 1502.2 -2.89244 -2.73099 0
M  V30 16136 H 1498.94 -5.88609 -2.88477 0
M  V30 16137 H 1498.46 -4.53024 -3.93102 0
M  V30 16138 H 1500.14 -5.12433 -3.94996 0
M  V30 16139 N 1500.27 0.920374 -1.27933 0
M  V30 16140 C 1501.52 1.66554 -1.14474 0
M  V30 16141 C 1501.84 1.92545 0.308444 0
M  V30 16142 O 1501.11 1.53691 1.21473 0
M  V30 16143 H 1499.69 0.617302 -0.420651 0
M  V30 16144 H 1502.35 1.10473 -1.60567 0
M  V30 16145 H 1501.45 2.63067 -1.67935 0
M  V30 16146 N 1501.75 1.10074 1.1279 0
M  V30 16147 C 1502.7 0.740977 2.20482 0
M  V30 16148 C 1503.69 -0.261163 1.67375 0
M  V30 16149 O 1504.9 -0.121923 1.79587 0
M  V30 16150 H 1501.27 0.221666 0.718588 0
M  V30 16151 H 1503.24 1.65823 2.48083 0
M  V30 16152 C 1501.99 0.184934 3.47208 0
M  V30 16153 H 1501.32 0.947278 3.88416 0
M  V30 16154 H 1502.76 -0.0287769 4.2399 0
M  V30 16155 C 1501.21 -1.08145 3.19071 0
M  V30 16156 O 1501.74 -2.1636 3.38454 0
M  V30 16157 N 1499.95 -0.998609 2.72903 0
M  V30 16158 H 1499.5 -0.117906 2.5733 0
M  V30 16159 H 1499.46 -1.84664 2.54453 0
M  V30 16160 N 1503.23 -1.30138 0.888926 0
M  V30 16161 C 1504.48 -1.95265 0.5054 0
M  V30 16162 C 1504.79 -1.70925 -0.950998 0
M  V30 16163 O 1506 -2.30069 -1.44155 0
M  V30 16164 C 1504.45 -3.49647 0.852937 0
M  V30 16165 C 1504.06 -3.82802 2.32737 0
M  V30 16166 C 1505.8 -4.21067 0.538801 0
M  V30 16167 C 1503.71 -5.30379 2.61633 0
M  V30 16168 H 1502.64 -0.730882 0.185278 0
M  V30 16169 H 1505.29 -1.48027 1.08444 0
M  V30 16170 H 1503.67 -3.9548 0.202937 0
M  V30 16171 H 1504.85 -3.47866 3.02202 0
M  V30 16172 H 1503.16 -3.24495 2.60944 0
M  V30 16173 H 1505.76 -5.2967 0.731676 0
M  V30 16174 H 1506.1 -4.13014 -0.522039 0
M  V30 16175 H 1506.64 -3.8093 1.14617 0
M  V30 16176 H 1503.37 -5.43486 3.66473 0
M  V30 16177 H 1502.89 -5.66601 1.96782 0
M  V30 16178 H 1504.57 -5.97856 2.47339 0
M  V30 16179 N 1504.71 -0.650285 -1.43559 0
M  V30 16180 C 1505.64 0.0927934 -2.28011 0
M  V30 16181 C 1506.62 0.832739 -1.39657 0
M  V30 16182 O 1507.8 0.832912 -1.691 0
M  V30 16183 C 1504.93 1.13806 -3.19008 0
M  V30 16184 C 1503.97 0.496488 -4.236 0
M  V30 16185 S 1504.81 -0.727765 -5.30532 0
M  V30 16186 C 1505.96 0.317035 -6.25097 0
M  V30 16187 H 1506.2 -0.623605 -2.90686 0
M  V30 16188 H 1503.73 -0.439032 -1.48027 0
M  V30 16189 H 1505.69 1.73612 -3.7198 0
M  V30 16190 H 1504.35 1.82676 -2.55516 0
M  V30 16191 H 1503.54 1.28436 -4.87361 0
M  V30 16192 H 1503.14 -0.0273975 -3.7399 0
M  V30 16193 H 1505.43 1.18408 -6.67073 0
M  V30 16194 H 1506.38 -0.285468 -7.07524 0
M  V30 16195 H 1506.79 0.651527 -5.60728 0
M  V30 16196 N 1506.18 1.52647 -0.392018 0
M  V30 16197 C 1507.43 2.00798 0.19056 0
M  V30 16198 C 1507.75 1.28265 1.47673 0
M  V30 16199 O 1508.95 1.67142 2.13953 0
M  V30 16200 C 1507.41 3.57779 0.390148 0
M  V30 16201 C 1507.02 4.39213 -0.882933 0
M  V30 16202 C 1508.76 4.14211 0.928945 0
M  V30 16203 C 1506.67 5.87801 -0.651474 0
M  V30 16204 H 1505.6 0.750262 0.0749879 0
M  V30 16205 H 1508.25 1.7613 -0.514835 0
M  V30 16206 H 1506.63 3.78707 1.15746 0
M  V30 16207 H 1507.8 4.30051 -1.65507 0
M  V30 16208 H 1506.12 3.94015 -1.34688 0
M  V30 16209 H 1508.72 5.22884 1.11787 0
M  V30 16210 H 1509.06 3.70475 1.89878 0
M  V30 16211 H 1509.59 3.97185 0.221135 0
M  V30 16212 H 1506.33 6.35864 -1.59239 0
M  V30 16213 H 1505.85 5.99744 0.0816786 0
M  V30 16214 H 1507.53 6.46363 -0.287057 0
M  V30 16215 N 1507.66 0.121921 1.57128 0
M  V30 16216 C 1508.91 -0.536164 1.95584 0
M  V30 16217 C 1509.24 -1.66143 1.0055 0
M  V30 16218 O 1508.52 -1.94452 0.0432427 0
M  V30 16219 C 1508.8 -1.0661 3.43957 0
M  V30 16220 C 1508.65 0.0559458 4.49765 0
M  V30 16221 C 1509.97 -1.95603 3.94243 0
M  V30 16222 H 1507.09 -0.193427 0.711165 0
M  V30 16223 H 1509.73 0.198072 1.88965 0
M  V30 16224 H 1507.88 -1.69181 3.49729 0
M  V30 16225 H 1509.55 0.691357 4.5609 0
M  V30 16226 H 1507.8 0.71868 4.27805 0
M  V30 16227 H 1508.47 -0.356133 5.5085 0
M  V30 16228 H 1510.94 -1.42899 3.90793 0
M  V30 16229 H 1509.82 -2.29599 4.98573 0
M  V30 16230 H 1510.08 -2.88364 3.3511 0
M  V30 16231 N 1509.14 -1.56867 -0.151857 0
M  V30 16232 C 1510.37 -1.87237 -0.880343 0
M  V30 16233 C 1510.78 -0.709565 -1.74959 0
M  V30 16234 O 1510.14 0.320818 -1.79658 0
M  V30 16235 C 1510.19 -3.16811 -1.74107 0
M  V30 16236 O 1509.91 -4.28611 -0.906858 0
M  V30 16237 C 1511.41 -3.60662 -2.57755 0
M  V30 16238 H 1508.63 -0.62074 -0.254799 0
M  V30 16239 H 1511.18 -2.03977 -0.146104 0
M  V30 16240 H 1509.33 -3.01838 -2.42842 0
M  V30 16241 H 1509.75 -5.02673 -1.49733 0
M  V30 16242 H 1511.22 -4.54176 -3.13732 0
M  V30 16243 H 1511.7 -2.85716 -3.33561 0
M  V30 16244 H 1512.3 -3.78312 -1.94319 0
M  V30 16245 N 1510.62 0.421051 -1.51871 0
M  V30 16246 C 1511.85 1.1911 -1.69175 0
M  V30 16247 C 1512.26 1.84599 -0.39606 0
M  V30 16248 O 1511.62 1.71395 0.626907 0
M  V30 16249 C 1511.67 2.26309 -2.81898 0
M  V30 16250 O 1511.39 1.63496 -4.06449 0
M  V30 16251 C 1512.89 3.16285 -3.10611 0
M  V30 16252 H 1510.11 0.358385 -0.567275 0
M  V30 16253 H 1512.66 0.496919 -1.98371 0
M  V30 16254 H 1510.81 2.91416 -2.55255 0
M  V30 16255 H 1511.22 2.3447 -4.69174 0
M  V30 16256 H 1512.7 3.87601 -3.93026 0
M  V30 16257 H 1513.18 3.77976 -2.23676 0
M  V30 16258 H 1513.78 2.5686 -3.38973 0
M  V30 16259 N 1512.1 1.42293 0.677538 0
M  V30 16260 C 1513.03 1.48344 1.80323 0
M  V30 16261 C 1514.01 0.340276 1.66662 0
M  V30 16262 O 1515.19 0.554209 1.86124 0
M  V30 16263 C 1512.32 1.38247 3.18599 0
M  V30 16264 C 1511.28 2.50562 3.46991 0
M  V30 16265 C 1510.6 2.25524 4.84812 0
M  V30 16266 C 1511.9 3.92877 3.44158 0
M  V30 16267 H 1513.6 2.42558 1.75516 0
M  V30 16268 H 1511.14 1.16746 0.842999 0
M  V30 16269 H 1513.1 1.41089 3.97079 0
M  V30 16270 H 1511.82 0.405255 3.24076 0
M  V30 16271 H 1510.48 2.47032 2.7087 0
M  V30 16272 H 1510.13 1.26102 4.86937 0
M  V30 16273 H 1509.83 3.00797 5.04772 0
M  V30 16274 H 1511.35 2.3011 5.65581 0
M  V30 16275 H 1512.76 3.98024 4.12613 0
M  V30 16276 H 1511.16 4.6798 3.75653 0
M  V30 16277 H 1512.23 4.19743 2.42783 0
M  V30 16278 N 1513.57 -0.913576 1.28419 0
M  V30 16279 C 1514.5 -2.03275 1.14897 0
M  V30 16280 C 1515.49 -1.70036 0.0467034 0
M  V30 16281 O 1516.67 -1.92907 0.223725 0
M  V30 16282 C 1513.8 -3.37717 0.810217 0
M  V30 16283 C 1512.75 -3.85119 1.86728 0
M  V30 16284 C 1512.08 -5.16527 1.38215 0
M  V30 16285 C 1513.38 -4.06959 3.27386 0
M  V30 16286 H 1515.07 -2.14847 2.08522 0
M  V30 16287 H 1512.62 -1.03233 1.00394 0
M  V30 16288 H 1514.57 -4.15505 0.702382 0
M  V30 16289 H 1513.3 -3.26199 -0.161732 0
M  V30 16290 H 1511.96 -3.09536 1.96426 0
M  V30 16291 H 1511.6 -5.01413 0.399263 0
M  V30 16292 H 1511.3 -5.49213 2.08898 0
M  V30 16293 H 1512.83 -5.96871 1.28754 0
M  V30 16294 H 1514.24 -4.75272 3.20608 0
M  V30 16295 H 1512.64 -4.50977 3.95904 0
M  V30 16296 H 1513.71 -3.11764 3.71391 0
M  V30 16297 N 1515.05 -1.1067 -1.12204 0
M  V30 16298 C 1515.98 -0.715581 -2.17743 0
M  V30 16299 C 1517 0.248892 -1.60886 0
M  V30 16300 O 1518.19 0.0329917 -1.7847 0
M  V30 16301 C 1515.29 -0.0356388 -3.38881 0
M  V30 16302 C 1514.46 -1.0249 -4.25223 0
M  V30 16303 C 1513.52 -0.375998 -5.24855 0
M  V30 16304 O 1512.54 -1.02753 -5.59849 0
M  V30 16305 N 1513.75 0.864525 -5.74026 0
M  V30 16306 H 1516.51 -1.62362 -2.5191 0
M  V30 16307 H 1514.07 -0.995851 -1.2765 0
M  V30 16308 H 1516.06 0.41 -4.02618 0
M  V30 16309 H 1514.63 0.77485 -3.02845 0
M  V30 16310 H 1513.85 -1.64874 -3.58065 0
M  V30 16311 H 1515.14 -1.69446 -4.79756 0
M  V30 16312 H 1514.54 1.41317 -5.47764 0
M  V30 16313 H 1513.1 1.25327 -6.39638 0
M  V30 16314 N 1516.53 1.29665 -0.895815 0
M  V30 16315 C 1517.78 1.95716 -0.519752 0
M  V30 16316 C 1518.11 1.7065 0.933212 0
M  V30 16317 O 1517.36 1.01014 1.67615 0
M  V30 16318 C 1517.66 3.49355 -0.754025 0
M  V30 16319 C 1517.33 3.94491 -2.18375 0
M  V30 16320 C 1515.99 4.06526 -2.57468 0
M  V30 16321 C 1518.34 4.17874 -3.11498 0
M  V30 16322 C 1515.67 4.39311 -3.88874 0
M  V30 16323 C 1518.02 4.52132 -4.42447 0
M  V30 16324 C 1516.68 4.62376 -4.81419 0
M  V30 16325 H 1515.95 0.716176 -0.190191 0
M  V30 16326 H 1518.6 1.54333 -1.13373 0
M  V30 16327 H 1516.91 3.91758 -0.0570932 0
M  V30 16328 H 1518.6 3.98551 -0.442493 0
M  V30 16329 H 1515.19 3.85638 -1.87033 0
M  V30 16330 H 1519.38 4.08046 -2.8251 0
M  V30 16331 H 1514.63 4.45444 -4.18795 0
M  V30 16332 H 1518.81 4.69175 -5.14634 0
M  V30 16333 H 1516.43 4.87535 -5.83278 0
M  V30 16334 N 1518.01 0.657889 1.43212 0
M  V30 16335 C 1518.94 -0.0807001 2.28057 0
M  V30 16336 C 1519.92 -0.825321 1.40097 0
M  V30 16337 O 1521.1 -0.823932 1.69539 0
M  V30 16338 C 1518.23 -1.12112 3.19607 0
M  V30 16339 C 1517.28 -0.474017 4.23858 0
M  V30 16340 S 1518.11 0.75589 5.30138 0
M  V30 16341 C 1519.27 -0.28388 6.25256 0
M  V30 16342 H 1519.5 0.639012 2.90351 0
M  V30 16343 H 1517.03 0.446876 1.47792 0
M  V30 16344 H 1518.99 -1.71637 3.72895 0
M  V30 16345 H 1517.65 -1.81318 2.56481 0
M  V30 16346 H 1516.84 -1.25849 4.88035 0
M  V30 16347 H 1516.45 0.0472307 3.7397 0
M  V30 16348 H 1518.74 -1.14869 6.67691 0
M  V30 16349 H 1519.68 0.322986 7.07363 0
M  V30 16350 H 1520.09 -0.621781 5.61065 0
M  V30 16351 N 1519.49 -1.52437 0.400108 0
M  V30 16352 C 1520.73 -2.01711 -0.178605 0
M  V30 16353 C 1521.06 -1.28613 -1.45908 0
M  V30 16354 O 1520.32 -0.378206 -1.92011 0
M  V30 16355 C 1520.62 -3.54133 -0.482141 0
M  V30 16356 C 1520.28 -4.45306 0.70806 0
M  V30 16357 C 1518.94 -4.69947 1.03455 0
M  V30 16358 C 1521.3 -4.99035 1.50379 0
M  V30 16359 C 1518.62 -5.45566 2.15812 0
M  V30 16360 C 1520.98 -5.75883 2.61805 0
M  V30 16361 C 1519.64 -5.98799 2.9495 0
M  V30 16362 H 1518.91 -0.738112 -0.0653562 0
M  V30 16363 H 1521.56 -1.83738 0.539676 0
M  V30 16364 H 1519.86 -3.70237 -1.28188 0
M  V30 16365 H 1521.56 -3.89761 -0.942725 0
M  V30 16366 H 1518.15 -4.26298 0.443599 0
M  V30 16367 H 1522.33 -4.79913 1.26479 0
M  V30 16368 H 1517.59 -5.61532 2.4185 0
M  V30 16369 H 1521.76 -6.16514 3.23857 0
M  V30 16370 H 1519.39 -6.57176 3.8213 0
M  V30 16371 N 1520.96 -0.130252 -1.57061 0
M  V30 16372 C 1521.93 0.801529 -2.14728 0
M  V30 16373 C 1522.93 1.18687 -1.08489 0
M  V30 16374 O 1524.12 1.11054 -1.34211 0
M  V30 16375 C 1521.25 2.08542 -2.69672 0
M  V30 16376 H 1522.44 0.300172 -2.98394 0
M  V30 16377 H 1520 0.119077 -1.55846 0
M  V30 16378 H 1520.73 2.63083 -1.89625 0
M  V30 16379 H 1520.52 1.81849 -3.47381 0
M  V30 16380 H 1522.01 2.75126 -3.14158 0
M  V30 16381 N 1522.44 1.56945 0.143535 0
M  V30 16382 C 1523.68 1.85347 0.861738 0
M  V30 16383 C 1524.05 0.715009 1.7819 0
M  V30 16384 O 1525.25 0.880162 2.53981 0
M  V30 16385 C 1523.52 3.18937 1.61288 0
M  V30 16386 S 1525.08 3.68904 2.37603 0
M  V30 16387 H 1521.9 0.650015 0.2881 0
M  V30 16388 H 1524.5 1.95122 0.121527 0
M  V30 16389 H 1523.2 3.9976 0.928434 0
M  V30 16390 H 1522.73 3.12176 2.39394 0
M  V30 16391 H 1524.75 3.38445 3.62863 0
M  V30 16392 N 1523.92 -0.412991 1.52093 0
M  V30 16393 C 1525.17 -1.15737 1.65191 0
M  V30 16394 C 1525.48 -1.91753 0.38601 0
M  V30 16395 O 1526.69 -2.68586 0.396731 0
M  V30 16396 C 1525.15 -2.10619 2.91835 0
M  V30 16397 C 1524.75 -1.40137 4.25518 0
M  V30 16398 C 1526.5 -2.85339 3.14296 0
M  V30 16399 C 1524.4 -2.33645 5.4329 0
M  V30 16400 H 1523.33 -0.435732 0.615348 0
M  V30 16401 H 1525.99 -0.422172 1.78578 0
M  V30 16402 H 1524.37 -2.87675 2.72138 0
M  V30 16403 H 1525.54 -0.684719 4.55684 0
M  V30 16404 H 1523.86 -0.774734 4.09129 0
M  V30 16405 H 1526.45 -3.55437 3.99461 0
M  V30 16406 H 1526.8 -3.48071 2.28369 0
M  V30 16407 H 1527.33 -2.15384 3.34447 0
M  V30 16408 H 1524.07 -1.75566 6.31551 0
M  V30 16409 H 1523.59 -3.03294 5.17467 0
M  V30 16410 H 1525.27 -2.94255 5.76215 0
M  V30 16411 N 1525.4 -1.4265 -0.669982 0
M  V30 16412 C 1526.65 -1.43093 -1.42719 0
M  V30 16413 C 1526.97 -0.0501228 -1.94936 0
M  V30 16414 O 1526.24 0.912077 -1.73372 0
M  V30 16415 H 1524.82 -0.526785 -0.529628 0
M  V30 16416 H 1527.48 -1.78113 -0.791324 0
M  V30 16417 H 1526.58 -2.13357 -2.27783 0
M  V30 16418 N 1526.88 0.906753 -1.28902 0
M  V30 16419 C 1528.12 1.65903 -1.16636 0
M  V30 16420 C 1528.46 1.92127 0.282981 0
M  V30 16421 O 1527.73 1.52666 1.20513 0
M  V30 16422 C 1528.01 3.01257 -1.97272 0
M  V30 16423 C 1527.87 2.82143 -3.50308 0
M  V30 16424 C 1529.19 4.01893 -1.7936 0
M  V30 16425 H 1526.31 0.602063 -0.425076 0
M  V30 16426 H 1528.95 1.05081 -1.58297 0
M  V30 16427 H 1527.1 3.53172 -1.61871 0
M  V30 16428 H 1528.77 2.37184 -3.95653 0
M  V30 16429 H 1527.01 2.17063 -3.75588 0
M  V30 16430 H 1527.68 3.78293 -4.01993 0
M  V30 16431 H 1530.16 3.59064 -2.10267 0
M  V30 16432 H 1529.04 4.9455 -2.38141 0
M  V30 16433 H 1529.3 4.35745 -0.746923 0
M  V30 16434 N 1528.36 1.11264 1.11616 0
M  V30 16435 C 1529.29 0.727118 2.17361 0
M  V30 16436 C 1530.3 -0.240356 1.61016 0
M  V30 16437 O 1531.49 -0.0235265 1.78484 0
M  V30 16438 C 1528.59 0.05361 3.38858 0
M  V30 16439 C 1527.76 1.04744 4.24673 0
M  V30 16440 C 1526.82 0.403827 5.24648 0
M  V30 16441 O 1525.85 1.0572 5.59296 0
M  V30 16442 N 1527.05 -0.834071 5.74477 0
M  V30 16443 H 1529.81 1.63696 2.51045 0
M  V30 16444 H 1527.38 1.00261 1.2712 0
M  V30 16445 H 1529.37 -0.388643 4.0283 0
M  V30 16446 H 1527.94 -0.758778 3.03251 0
M  V30 16447 H 1527.16 1.6677 3.57185 0
M  V30 16448 H 1528.45 1.71988 4.7885 0
M  V30 16449 H 1527.84 -1.3841 5.48506 0
M  V30 16450 H 1526.4 -1.21933 6.40293 0
M  V30 16451 N 1529.83 -1.29188 0.902679 0
M  V30 16452 C 1530.76 -2.3006 0.399357 0
M  V30 16453 C 1531.74 -1.61724 -0.527199 0
M  V30 16454 O 1532.93 -1.89213 -0.437293 0
M  V30 16455 C 1530.06 -3.45309 -0.371331 0
M  V30 16456 C 1529.01 -4.25466 0.465068 0
M  V30 16457 C 1528.34 -5.32941 -0.433295 0
M  V30 16458 C 1529.64 -4.93287 1.71655 0
M  V30 16459 H 1531.33 -2.72409 1.24233 0
M  V30 16460 H 1528.88 -1.30958 0.598822 0
M  V30 16461 H 1530.83 -4.14955 -0.734207 0
M  V30 16462 H 1529.56 -3.01811 -1.24811 0
M  V30 16463 H 1528.22 -3.57532 0.810315 0
M  V30 16464 H 1527.86 -4.85688 -1.3083 0
M  V30 16465 H 1527.56 -5.87472 0.122657 0
M  V30 16466 H 1529.09 -6.05438 -0.792298 0
M  V30 16467 H 1530.5 -5.55353 1.42323 0
M  V30 16468 H 1528.9 -5.57763 2.21405 0
M  V30 16469 H 1529.97 -4.18406 2.45081 0
M  V30 16470 N 1531.31 -0.665475 -1.42861 0
M  V30 16471 C 1532.56 -0.183884 -2.01663 0
M  V30 16472 C 1532.89 1.2064 -1.52566 0
M  V30 16473 O 1532.14 1.82191 -0.714479 0
M  V30 16474 C 1532.44 -0.156963 -3.57055 0
M  V30 16475 C 1532.11 -1.49065 -4.25547 0
M  V30 16476 C 1530.77 -1.85584 -4.43973 0
M  V30 16477 C 1533.12 -2.36942 -4.64228 0
M  V30 16478 C 1530.45 -3.09622 -4.98348 0
M  V30 16479 C 1532.8 -3.60284 -5.19979 0
M  V30 16480 C 1531.46 -3.96984 -5.36619 0
M  V30 16481 H 1530.73 -0.0672879 -0.737939 0
M  V30 16482 H 1533.38 -0.858614 -1.71173 0
M  V30 16483 H 1531.69 0.601253 -3.87159 0
M  V30 16484 H 1533.38 0.232721 -4.00324 0
M  V30 16485 H 1529.97 -1.19653 -4.11559 0
M  V30 16486 H 1534.16 -2.10015 -4.49675 0
M  V30 16487 H 1529.41 -3.3809 -5.09417 0
M  V30 16488 H 1533.59 -4.28586 -5.48896 0
M  V30 16489 H 1531.21 -4.93175 -5.78518 0
M  V30 16490 N 1532.79 1.52222 -0.408187 0
M  V30 16491 C 1533.74 2.26988 0.417767 0
M  V30 16492 C 1534.71 1.29362 1.04185 0
M  V30 16493 O 1535.89 1.58223 1.06631 0
M  V30 16494 C 1533.03 3.09379 1.52901 0
M  V30 16495 C 1532.14 4.2196 0.92593 0
M  V30 16496 C 1531.28 4.91712 2.00979 0
M  V30 16497 C 1530.32 5.96258 1.3836 0
M  V30 16498 N 1529.46 6.59531 2.40756 0
M  V30 16499 H 1534.3 2.9714 -0.226228 0
M  V30 16500 H 1531.83 1.46581 -0.123402 0
M  V30 16501 H 1533.79 3.55452 2.18425 0
M  V30 16502 H 1532.42 2.41399 2.14304 0
M  V30 16503 H 1531.47 3.80064 0.159765 0
M  V30 16504 H 1532.78 4.96956 0.428497 0
M  V30 16505 H 1531.94 5.41186 2.74231 0
M  V30 16506 H 1530.68 4.16282 2.54087 0
M  V30 16507 H 1529.68 5.46104 0.636402 0
M  V30 16508 H 1530.91 6.7363 0.860218 0
M  V30 16509 H 1528.85 5.86931 2.92999 0
M  V30 16510 H 1528.77 7.30198 1.95822 0
M  V30 16511 H 1530.04 7.13643 3.13581 0
M  V30 16512 N 1534.27 0.138579 1.5699 0
M  V30 16513 C 1535.52 -0.513611 1.95465 0
M  V30 16514 C 1535.84 -1.65952 1.02396 0
M  V30 16515 O 1535.11 -1.9572 0.0839001 0
M  V30 16516 H 1533.69 -0.192729 0.72171 0
M  V30 16517 H 1536.35 0.212107 1.93742 0
M  V30 16518 H 1535.44 -0.895313 2.98983 0
M  V30 16519 N 1535.75 -1.57019 -0.13521 0
M  V30 16520 C 1536.69 -1.99148 -1.16657 0
M  V30 16521 C 1537.66 -0.860947 -1.42045 0
M  V30 16522 O 1538.85 -1.12393 -1.54183 0
M  V30 16523 C 1535.99 -2.3872 -2.49212 0
M  V30 16524 C 1535.1 -3.65117 -2.30898 0
M  V30 16525 C 1534.24 -3.9374 -3.5657 0
M  V30 16526 C 1533.27 -5.1337 -3.33343 0
M  V30 16527 N 1532.41 -5.37945 -4.51176 0
M  V30 16528 H 1537.25 -2.87052 -0.800312 0
M  V30 16529 H 1534.79 -1.42007 -0.383705 0
M  V30 16530 H 1536.75 -2.59695 -3.26518 0
M  V30 16531 H 1535.38 -1.53879 -2.83762 0
M  V30 16532 H 1534.43 -3.5185 -1.44588 0
M  V30 16533 H 1535.74 -4.52578 -2.09701 0
M  V30 16534 H 1534.89 -4.15277 -4.423 0
M  V30 16535 H 1533.63 -3.04723 -3.80782 0
M  V30 16536 H 1532.64 -4.91694 -2.46002 0
M  V30 16537 H 1533.86 -6.0395 -3.10517 0
M  V30 16538 H 1531.81 -4.51884 -4.75539 0
M  V30 16539 H 1531.73 -6.19698 -4.33025 0
M  V30 16540 H 1532.99 -5.63989 -5.38086 0
M  V30 16541 N 1537.22 0.404919 -1.52309 0
M  V30 16542 C 1538.47 1.15148 -1.66575 0
M  V30 16543 C 1538.8 1.9039 -0.397754 0
M  V30 16544 O 1538.05 1.85639 0.619407 0
M  V30 16545 C 1538.35 2.16817 -2.84121 0
M  V30 16546 C 1538.02 1.58352 -4.22179 0
M  V30 16547 C 1536.68 1.42132 -4.5973 0
M  V30 16548 C 1539.03 1.15695 -5.08197 0
M  V30 16549 C 1536.36 0.817785 -5.80973 0
M  V30 16550 C 1538.71 0.56758 -6.30049 0
M  V30 16551 C 1537.38 0.392547 -6.66345 0
M  V30 16552 H 1536.65 0.421357 -0.60954 0
M  V30 16553 H 1539.29 0.438148 -1.8642 0
M  V30 16554 H 1537.6 2.94311 -2.58628 0
M  V30 16555 H 1539.3 2.74463 -2.92355 0
M  V30 16556 H 1535.89 1.71961 -3.92591 0
M  V30 16557 H 1540.07 1.27034 -4.79767 0
M  V30 16558 H 1535.33 0.670228 -6.07715 0
M  V30 16559 H 1539.5 0.228674 -6.96024 0
M  V30 16560 H 1537.13 -0.0772156 -7.60161 0
M  V30 16561 N 1538.7 1.43003 0.662408 0
M  V30 16562 C 1539.93 1.47341 1.44825 0
M  V30 16563 C 1540.34 0.0870204 1.89 0
M  V30 16564 O 1539.68 -0.911158 1.59511 0
M  V30 16565 C 1539.75 2.34882 2.7216 0
M  V30 16566 C 1539.41 3.82567 2.49983 0
M  V30 16567 C 1540.41 4.73909 2.13791 0
M  V30 16568 C 1538.09 4.26962 2.64592 0
M  V30 16569 C 1540.09 6.07639 1.92493 0
M  V30 16570 C 1537.77 5.60748 2.4291 0
M  V30 16571 C 1538.77 6.50903 2.06915 0
M  V30 16572 O 1538.46 7.82217 1.85451 0
M  V30 16573 H 1538.19 0.502932 0.451703 0
M  V30 16574 H 1540.74 1.88312 0.820224 0
M  V30 16575 H 1538.97 1.88782 3.37488 0
M  V30 16576 H 1540.66 2.3053 3.34082 0
M  V30 16577 H 1541.43 4.40892 2.02088 0
M  V30 16578 H 1537.31 3.5707 2.91586 0
M  V30 16579 H 1540.85 6.77971 1.64321 0
M  V30 16580 H 1536.75 5.93335 2.54212 0
M  V30 16581 H 1537.52 7.93702 1.9995 0
M  V30 16582 N 1540.18 -0.899904 1.29381 0
M  V30 16583 C 1541.6 -1.18067 1.07388 0
M  V30 16584 C 1541.8 -2.00739 -0.174951 0
M  V30 16585 O 1540.85 -2.36937 -0.872771 0
M  V30 16586 C 1542.17 -1.90182 2.32919 0
M  V30 16587 C 1543.71 -2.03009 2.38236 0
M  V30 16588 C 1544.19 -2.78533 3.6357 0
M  V30 16589 N 1545.68 -2.86088 3.64291 0
M  V30 16590 C 1546.41 -3.45062 4.57952 0
M  V30 16591 N 1545.91 -4.05204 5.61945 0
M  V30 16592 N 1547.7 -3.42734 4.45522 0
M  V30 16593 H 1539.85 -0.348306 2.09525 0
M  V30 16594 H 1542.12 -0.216796 0.922878 0
M  V30 16595 H 1541.82 -1.36871 3.23974 0
M  V30 16596 H 1541.7 -2.90658 2.40412 0
M  V30 16597 H 1544.08 -2.55495 1.47669 0
M  V30 16598 H 1544.17 -1.01666 2.34729 0
M  V30 16599 H 1543.81 -2.26723 4.54488 0
M  V30 16600 H 1543.74 -3.8022 3.64335 0
M  V30 16601 H 1546.23 -2.43372 2.891 0
M  V30 16602 H 1546.54 -4.48225 6.29535 0
M  V30 16603 H 1544.89 -4.03667 5.65755 0
M  V30 16604 H 1548.08 -2.94967 3.63472 0
M  V30 16605 H 1548.25 -3.884 5.187 0
M  V30 16606 N 1541.66 -1.11854 -1.11024 0
M  V30 16607 C 1542.9 -0.880082 -1.84483 0
M  V30 16608 C 1543.26 0.583659 -1.82914 0
M  V30 16609 O 1544.46 0.939053 -2.51864 0
M  V30 16610 C 1542.73 -1.43158 -3.27476 0
M  V30 16611 S 1544.29 -1.33075 -4.18135 0
M  V30 16612 H 1541.11 -0.317635 -0.636105 0
M  V30 16613 H 1543.71 -1.42688 -1.33642 0
M  V30 16614 H 1542.42 -2.49061 -3.26185 0
M  V30 16615 H 1541.95 -0.882005 -3.83385 0
M  V30 16616 H 1543.96 -0.298149 -4.95303 0
M  V30 16617 N 1543.14 1.28707 -0.909517 0
M  V30 16618 C 1544.36 1.99283 -0.556211 0
M  V30 16619 C 1544.78 1.68 0.861475 0
M  V30 16620 O 1544.14 0.930421 1.57001 0
M  V30 16621 C 1544.19 3.5362 -0.75068 0
M  V30 16622 O 1543.91 3.83799 -2.11258 0
M  V30 16623 C 1545.41 4.41459 -0.403637 0
M  V30 16624 H 1542.63 0.636476 -0.212462 0
M  V30 16625 H 1545.17 1.64007 -1.22156 0
M  V30 16626 H 1543.33 3.87174 -0.132384 0
M  V30 16627 H 1543.74 4.78448 -2.14913 0
M  V30 16628 H 1545.22 5.48833 -0.590496 0
M  V30 16629 H 1545.69 4.34214 0.659897 0
M  V30 16630 H 1546.3 4.13394 -0.999292 0
M  V30 16631 N 1544.61 0.673042 1.42506 0
M  V30 16632 C 1545.89 0.123606 1.95209 0
M  V30 16633 C 1546.27 -1.36118 1.61354 0
M  V30 16634 O 1545.62 -2.0965 0.908793 0
M  V30 16635 C 1545.83 0.39088 3.46804 0
M  V30 16636 C 1547.18 0.306445 4.23493 0
M  V30 16637 O 1548.2 0.32453 3.54719 0
M  V30 16638 O 1547.06 0.247127 5.45941 0
M  V30 16639 H 1544.15 0.00184868 0.826998 0
M  V30 16640 H 1546.7 0.74765 1.52343 0
M  V30 16641 H 1545.47 1.41951 3.64645 0
M  V30 16642 H 1545.1 -0.265259 3.96714 0
M  V30 16643 N 1546.09 -1.52004 0.416254 0
M  V30 16644 C 1547 -2.30947 -0.412403 0
M  V30 16645 C 1548.02 -1.38969 -1.04707 0
M  V30 16646 O 1549.19 -1.72044 -1.04703 0
M  V30 16647 C 1546.26 -3.12078 -1.51024 0
M  V30 16648 C 1545.32 -4.19805 -0.897892 0
M  V30 16649 C 1544.55 -4.97059 -1.94341 0
M  V30 16650 O 1544.78 -4.74695 -3.16261 0
M  V30 16651 O 1543.71 -5.81715 -1.54567 0
M  V30 16652 H 1547.54 -3.02817 0.231473 0
M  V30 16653 H 1545.12 -1.4832 0.179283 0
M  V30 16654 H 1547 -3.6258 -2.14741 0
M  V30 16655 H 1545.68 -2.42995 -2.13858 0
M  V30 16656 H 1544.59 -3.73433 -0.223236 0
M  V30 16657 H 1545.92 -4.91201 -0.31336 0
M  V30 16658 N 1547.57 -0.146903 -1.56914 0
M  V30 16659 C 1548.53 0.778709 -2.15566 0
M  V30 16660 C 1549.53 1.1753 -1.09742 0
M  V30 16661 O 1550.72 1.09624 -1.35382 0
M  V30 16662 C 1547.86 2.0567 -2.71869 0
M  V30 16663 H 1549.05 0.268506 -2.98696 0
M  V30 16664 H 1546.6 0.10254 -1.55963 0
M  V30 16665 H 1547.34 2.61057 -1.92405 0
M  V30 16666 H 1547.12 1.78154 -3.4929 0
M  V30 16667 H 1548.61 2.71779 -3.17059 0
M  V30 16668 N 1549.05 1.57088 0.126881 0
M  V30 16669 C 1550 1.99764 1.15599 0
M  V30 16670 C 1550.97 0.868468 1.41587 0
M  V30 16671 O 1552.15 1.13209 1.53585 0
M  V30 16672 C 1549.29 2.40038 2.47943 0
M  V30 16673 C 1548.4 3.66336 2.28958 0
M  V30 16674 C 1547.54 3.95626 3.54477 0
M  V30 16675 C 1546.58 5.15131 3.30616 0
M  V30 16676 N 1545.71 5.4033 4.48317 0
M  V30 16677 H 1550.55 2.87473 0.785078 0
M  V30 16678 H 1548.09 1.42209 0.376169 0
M  V30 16679 H 1550.05 2.61423 3.25136 0
M  V30 16680 H 1548.68 1.55382 2.82942 0
M  V30 16681 H 1547.73 3.52612 1.4272 0
M  V30 16682 H 1549.04 4.53684 2.07298 0
M  V30 16683 H 1548.2 4.17617 4.40092 0
M  V30 16684 H 1546.94 3.06738 3.79161 0
M  V30 16685 H 1545.94 4.92992 2.43391 0
M  V30 16686 H 1547.17 6.05588 3.0731 0
M  V30 16687 H 1545.11 4.54399 4.73136 0
M  V30 16688 H 1545.03 6.21985 4.29733 0
M  V30 16689 H 1546.3 5.66835 5.35088 0
M  V30 16690 N 1550.53 -0.396836 1.52522 0
M  V30 16691 C 1551.75 -1.16857 1.71345 0
M  V30 16692 C 1552.18 -1.83178 0.427465 0
M  V30 16693 O 1551.53 -1.7051 -0.616123 0
M  V30 16694 C 1551.58 -2.19817 2.85855 0
M  V30 16695 O 1550.69 -3.26233 2.52281 0
M  V30 16696 H 1550.03 -0.340554 0.570017 0
M  V30 16697 H 1552.56 -0.463532 1.9928 0
M  V30 16698 H 1552.57 -2.63944 3.11123 0
M  V30 16699 H 1551.24 -1.70931 3.79151 0
M  V30 16700 H 1549.82 -2.87299 2.37726 0
M  V30 16701 N 1552.01 -1.43353 -0.654814 0
M  V30 16702 C 1552.95 -1.48652 -1.789 0
M  V30 16703 C 1553.95 -0.360274 -1.65525 0
M  V30 16704 O 1555.15 -0.534194 -1.71891 0
M  V30 16705 H 1551.53 -0.465987 -0.590221 0
M  V30 16706 H 1553.5 -2.44158 -1.7155 0
M  V30 16707 C 1552.25 -1.42512 -3.17152 0
M  V30 16708 H 1551.57 -2.28479 -3.28081 0
M  V30 16709 H 1553.01 -1.50282 -3.96474 0
M  V30 16710 C 1551.47 -0.142511 -3.36598 0
M  V30 16711 O 1552 0.796821 -3.93718 0
M  V30 16712 N 1550.21 -0.0532157 -2.90551 0
M  V30 16713 H 1549.75 -0.818421 -2.44253 0
M  V30 16714 H 1549.71 0.80427 -3.03939 0
M  V30 16715 N 1553.48 0.89303 -1.29857 0
M  V30 16716 C 1554.89 1.45948 -1.16431 0
M  V30 16717 C 1555.25 1.94751 0.238051 0
M  V30 16718 O 1554.37 1.84302 1.1341 0
M  V30 16719 C 1554.97 2.6527 -2.10754 0
M  V30 16720 C 1553.52 3.1803 -2.0133 0
M  V30 16721 C 1552.67 1.90721 -2.01297 0
M  V30 16722 H 1555.62 0.70373 -1.42244 0
M  V30 16723 H 1555.64 3.41223 -1.68366 0
M  V30 16724 H 1555.16 2.2972 -3.1281 0
M  V30 16725 H 1553.26 3.58257 -1.02386 0
M  V30 16726 H 1553.37 3.81876 -2.89323 0
M  V30 16727 H 1551.73 2.0871 -1.45987 0
M  V30 16728 H 1552.52 1.5744 -3.0507 0
M  V30 16729 N 1554.96 1.12442 1.10429 0
M  V30 16730 C 1555.87 0.805377 2.20343 0
M  V30 16731 C 1556.89 -0.205836 1.72778 0
M  V30 16732 O 1558.06 -0.0394195 2.01361 0
M  V30 16733 C 1555.13 0.264711 3.45688 0
M  V30 16734 C 1554.19 1.33586 4.07987 0
M  V30 16735 C 1553.42 0.8209 5.27349 0
M  V30 16736 O 1553.65 -0.345303 5.69354 0
M  V30 16737 O 1552.58 1.59052 5.80505 0
M  V30 16738 H 1556.41 1.7234 2.50065 0
M  V30 16739 H 1553.99 0.901084 1.19167 0
M  V30 16740 H 1555.87 -0.0319164 4.21388 0
M  V30 16741 H 1554.55 -0.625869 3.17592 0
M  V30 16742 H 1553.45 1.68566 3.33971 0
M  V30 16743 H 1554.79 2.20021 4.40286 0
M  V30 16744 N 1556.44 -1.28223 0.91633 0
M  V30 16745 C 1557.35 -2.30956 0.411882 0
M  V30 16746 C 1558.37 -1.66609 -0.501753 0
M  V30 16747 O 1559.54 -1.97641 -0.387317 0
M  V30 16748 C 1556.61 -3.45053 -0.337558 0
M  V30 16749 C 1555.67 -4.2495 0.609609 0
M  V30 16750 C 1554.9 -5.33598 -0.104159 0
M  V30 16751 O 1555.12 -5.54786 -1.32546 0
M  V30 16752 O 1554.06 -5.99272 0.561851 0
M  V30 16753 H 1557.88 -2.76118 1.26461 0
M  V30 16754 H 1555.47 -1.32964 0.681246 0
M  V30 16755 H 1557.35 -4.14477 -0.760722 0
M  V30 16756 H 1556.03 -3.01968 -1.16607 0
M  V30 16757 H 1554.93 -3.58104 1.08222 0
M  V30 16758 H 1556.27 -4.7172 1.40502 0
M  V30 16759 N 1557.92 -0.68059 -1.42147 0
M  V30 16760 C 1559.16 -0.209222 -2.03326 0
M  V30 16761 C 1559.52 1.16419 -1.52678 0
M  V30 16762 O 1560.72 1.73055 -2.05683 0
M  V30 16763 C 1558.99 -0.248331 -3.56536 0
M  V30 16764 S 1560.55 0.151186 -4.38539 0
M  V30 16765 H 1557.37 -0.0854956 -0.705841 0
M  V30 16766 H 1559.97 -0.895033 -1.73809 0
M  V30 16767 H 1558.68 -1.25016 -3.90895 0
M  V30 16768 H 1558.21 0.457124 -3.90735 0
M  V30 16769 H 1560.22 1.38301 -4.76537 0
M  V30 16770 N 1559.4 1.51781 -0.424309 0
M  V30 16771 C 1560.81 1.59419 -0.0759329 0
M  V30 16772 C 1561.01 1.43616 1.41339 0
M  V30 16773 O 1560.07 1.27078 2.18191 0
M  V30 16774 C 1561.38 2.94966 -0.584411 0
M  V30 16775 C 1562.93 3.08241 -0.54371 0
M  V30 16776 C 1563.4 4.46292 -1.02895 0
M  V30 16777 N 1564.89 4.52575 -0.986392 0
M  V30 16778 C 1565.63 5.57694 -1.33286 0
M  V30 16779 N 1565.13 6.70293 -1.75154 0
M  V30 16780 N 1566.92 5.47983 -1.25186 0
M  V30 16781 H 1559.07 1.60299 -1.39349 0
M  V30 16782 H 1561.33 0.75492 -0.573411 0
M  V30 16783 H 1561.04 3.11859 -1.62593 0
M  V30 16784 H 1560.91 3.772 -0.00224435 0
M  V30 16785 H 1563.3 2.91024 0.488798 0
M  V30 16786 H 1563.38 2.27878 -1.16212 0
M  V30 16787 H 1563.02 4.64255 -2.05986 0
M  V30 16788 H 1562.95 5.25175 -0.387202 0
M  V30 16789 H 1565.45 3.71754 -0.678765 0
M  V30 16790 H 1565.76 7.46508 -1.99863 0
M  V30 16791 H 1564.1 6.71535 -1.79071 0
M  V30 16792 H 1567.29 4.58899 -0.923525 0
M  V30 16793 H 1567.47 6.29796 -1.52517 0
M  V30 16794 N 1560.87 0.155222 1.56834 0
M  V30 16795 C 1562.12 -0.49285 1.95998 0
M  V30 16796 C 1562.44 -1.64857 1.0415 0
M  V30 16797 O 1561.71 -1.9562 0.104654 0
M  V30 16798 H 1560.29 -0.185063 0.723713 0
M  V30 16799 H 1562.95 0.232644 1.93507 0
M  V30 16800 H 1562.05 -0.863552 2.99915 0
M  V30 16801 N 1562.35 -1.57153 -0.118549 0
M  V30 16802 C 1563.28 -2.03409 -1.1466 0
M  V30 16803 C 1564.26 -0.918636 -1.43161 0
M  V30 16804 O 1565.45 -1.18838 -1.53594 0
M  V30 16805 C 1562.58 -2.43879 -2.47265 0
M  V30 16806 C 1561.53 -3.58873 -2.33225 0
M  V30 16807 C 1560.86 -3.85244 -3.70798 0
M  V30 16808 C 1562.16 -4.90582 -1.79239 0
M  V30 16809 H 1563.85 -2.89545 -0.761862 0
M  V30 16810 H 1561.4 -1.39296 -0.365034 0
M  V30 16811 H 1563.35 -2.74844 -3.19435 0
M  V30 16812 H 1562.07 -1.54715 -2.8763 0
M  V30 16813 H 1560.73 -3.28119 -1.63504 0
M  V30 16814 H 1560.38 -2.93285 -4.08648 0
M  V30 16815 H 1560.08 -4.62649 -3.62257 0
M  V30 16816 H 1561.61 -4.18661 -4.44472 0
M  V30 16817 H 1563.02 -5.20079 -2.41227 0
M  V30 16818 H 1561.42 -5.71989 -1.81518 0
M  V30 16819 H 1562.49 -4.79065 -0.74999 0
M  V30 16820 N 1563.83 0.388742 -1.5273 0
M  V30 16821 C 1565.08 1.13375 -1.67787 0
M  V30 16822 C 1565.4 1.89957 -0.417925 0
M  V30 16823 O 1564.66 1.86286 0.599682 0
M  V30 16824 C 1564.96 2.13792 -2.86405 0
M  V30 16825 C 1564.62 1.53865 -4.23835 0
M  V30 16826 C 1563.29 1.37248 -4.61212 0
M  V30 16827 C 1565.64 1.10298 -5.09395 0
M  V30 16828 C 1562.97 0.756119 -5.81807 0
M  V30 16829 C 1565.32 0.500723 -6.30615 0
M  V30 16830 C 1563.98 0.321851 -6.66724 0
M  V30 16831 H 1563.25 0.414868 -0.613975 0
M  V30 16832 H 1565.9 0.418351 -1.86874 0
M  V30 16833 H 1564.2 2.91551 -2.61735 0
M  V30 16834 H 1565.9 2.71346 -2.95249 0
M  V30 16835 H 1562.49 1.67787 -3.94393 0
M  V30 16836 H 1566.68 1.21938 -4.81087 0
M  V30 16837 H 1561.93 0.605734 -6.08392 0
M  V30 16838 H 1566.11 0.154839 -6.96228 0
M  V30 16839 H 1563.73 -0.157836 -7.60036 0
M  V30 16840 N 1565.31 1.43698 0.647203 0
M  V30 16841 C 1566.56 1.44918 1.40292 0
M  V30 16842 C 1566.87 0.0794243 1.95439 0
M  V30 16843 O 1568.08 -0.0309052 2.71482 0
M  V30 16844 C 1566.53 2.55052 2.53923 0
M  V30 16845 C 1566.14 3.98161 2.05357 0
M  V30 16846 C 1567.88 2.65473 3.31246 0
M  V30 16847 C 1565.79 4.99749 3.16235 0
M  V30 16848 H 1564.72 0.539106 0.527144 0
M  V30 16849 H 1567.37 1.69708 0.697951 0
M  V30 16850 H 1565.75 2.23473 3.26919 0
M  V30 16851 H 1566.93 4.3923 1.39333 0
M  V30 16852 H 1565.24 3.91839 1.40896 0
M  V30 16853 H 1567.84 3.38546 4.13873 0
M  V30 16854 H 1568.18 1.70745 3.79673 0
M  V30 16855 H 1568.72 2.96383 2.65334 0
M  V30 16856 H 1565.45 5.96051 2.7277 0
M  V30 16857 H 1564.97 4.63288 3.80952 0
M  V30 16858 H 1566.65 5.22725 3.81271 0
M  V30 16859 N 1566.79 -0.886131 1.30328 0
M  V30 16860 C 1567.72 -2.00793 1.19183 0
M  V30 16861 C 1568.7 -1.69899 0.08276 0
M  V30 16862 O 1569.88 -1.92389 0.264593 0
M  V30 16863 C 1567.01 -3.35922 0.881669 0
M  V30 16864 C 1565.97 -3.81072 1.94855 0
M  V30 16865 C 1565.29 -5.1348 1.4914 0
M  V30 16866 C 1566.59 -3.99923 3.35944 0
M  V30 16867 H 1568.29 -2.10375 2.13032 0
M  V30 16868 H 1565.83 -1.0108 1.02561 0
M  V30 16869 H 1567.79 -4.13922 0.790359 0
M  V30 16870 H 1566.51 -3.26469 -0.0925037 0
M  V30 16871 H 1565.17 -3.053 2.02947 0
M  V30 16872 H 1564.82 -5.00453 0.50553 0
M  V30 16873 H 1564.52 -5.44659 2.205 0
M  V30 16874 H 1566.04 -5.94005 1.41386 0
M  V30 16875 H 1567.45 -4.68364 3.30617 0
M  V30 16876 H 1565.85 -4.42477 4.05381 0
M  V30 16877 H 1566.92 -3.03816 3.77921 0
M  V30 16878 N 1568.26 -1.13026 -1.09832 0
M  V30 16879 C 1569.49 -0.911137 -1.85423 0
M  V30 16880 C 1569.9 0.543325 -1.81231 0
M  V30 16881 O 1569.25 1.38768 -1.20371 0
M  V30 16882 C 1569.31 -1.31584 -3.34553 0
M  V30 16883 C 1568.97 -2.78288 -3.62498 0
M  V30 16884 C 1569.97 -3.7646 -3.58572 0
M  V30 16885 C 1567.65 -3.15346 -3.90976 0
M  V30 16886 C 1569.65 -5.09703 -3.82729 0
M  V30 16887 C 1567.33 -4.4877 -4.14788 0
M  V30 16888 C 1568.33 -5.45758 -4.10655 0
M  V30 16889 O 1568.02 -6.76775 -4.33856 0
M  V30 16890 H 1567.75 -0.325117 -0.592684 0
M  V30 16891 H 1570.31 -1.50559 -1.39718 0
M  V30 16892 H 1568.54 -0.664628 -3.80946 0
M  V30 16893 H 1570.23 -1.06986 -3.91547 0
M  V30 16894 H 1570.99 -3.49175 -3.36603 0
M  V30 16895 H 1566.87 -2.40459 -3.9332 0
M  V30 16896 H 1570.41 -5.85395 -3.79418 0
M  V30 16897 H 1566.31 -4.75781 -4.36237 0
M  V30 16898 H 1567.08 -6.82815 -4.51338 0
M  V30 16899 N 1569.74 1.27735 -0.923117 0
M  V30 16900 C 1570.69 2.26997 -0.417254 0
M  V30 16901 C 1571.66 1.57968 0.513364 0
M  V30 16902 O 1572.84 1.8581 0.433521 0
M  V30 16903 C 1569.98 3.43537 0.328089 0
M  V30 16904 C 1569.1 4.27291 -0.636112 0
M  V30 16905 C 1568.23 5.31044 0.128614 0
M  V30 16906 C 1567.27 6.06466 -0.828592 0
M  V30 16907 N 1566.41 7.02033 -0.0967858 0
M  V30 16908 H 1571.25 2.69643 -1.26872 0
M  V30 16909 H 1568.79 1.32597 -0.6369 0
M  V30 16910 H 1570.74 4.0991 0.776504 0
M  V30 16911 H 1569.37 3.01855 1.14383 0
M  V30 16912 H 1568.43 3.60875 -1.20306 0
M  V30 16913 H 1569.74 4.79679 -1.36784 0
M  V30 16914 H 1568.89 6.03345 0.637159 0
M  V30 16915 H 1567.63 4.79448 0.893341 0
M  V30 16916 H 1566.64 5.33008 -1.34843 0
M  V30 16917 H 1567.86 6.60151 -1.59303 0
M  V30 16918 H 1565.81 6.52774 0.649779 0
M  V30 16919 H 1565.72 7.52087 -0.768171 0
M  V30 16920 H 1566.99 7.78517 0.391257 0
M  V30 16921 N 1571.22 0.688118 1.41784 0
M  V30 16922 C 1572.5 0.144304 1.95067 0
M  V30 16923 C 1572.88 -1.34399 1.62789 0
M  V30 16924 O 1572.23 -2.08675 0.930978 0
M  V30 16925 C 1572.44 0.427641 3.4637 0
M  V30 16926 C 1573.78 0.351345 4.23144 0
M  V30 16927 O 1574.81 0.362134 3.54354 0
M  V30 16928 O 1573.67 0.305018 5.45648 0
M  V30 16929 H 1570.76 0.01062 0.826932 0
M  V30 16930 H 1573.31 0.763766 1.51541 0
M  V30 16931 H 1572.08 1.4581 3.63119 0
M  V30 16932 H 1571.7 -0.223167 3.96973 0
M  V30 16933 N 1572.7 -1.51554 0.432352 0
M  V30 16934 C 1573.95 -2.01645 -0.135511 0
M  V30 16935 C 1574.27 -1.31874 -1.43647 0
M  V30 16936 O 1573.54 -0.451746 -1.9062 0
M  V30 16937 H 1572.12 -0.745113 -0.0530683 0
M  V30 16938 H 1574.78 -1.86258 0.573917 0
M  V30 16939 H 1573.88 -3.10506 -0.315001 0
M  V30 16940 N 1574.18 -0.163538 -1.56749 0
M  V30 16941 C 1575.45 0.529349 -1.88301 0
M  V30 16942 C 1575.83 1.81844 -1.07219 0
M  V30 16943 O 1575.18 2.27912 -0.16381 0
M  V30 16944 C 1575.39 0.778796 -3.402 0
M  V30 16945 C 1576.74 1.11225 -4.09773 0
M  V30 16946 O 1577.76 0.867598 -3.45472 0
M  V30 16947 O 1576.62 1.57344 -5.2336 0
M  V30 16948 H 1573.72 0.271928 -0.781015 0
M  V30 16949 H 1576.26 -0.20139 -1.68501 0
M  V30 16950 H 1575.03 -0.132839 -3.91074 0
M  V30 16951 H 1574.66 1.56313 -3.65584 0
M  V30 16952 N 1575.65 1.57214 0.110213 0
M  V30 16953 C 1576.9 1.85586 0.817649 0
M  V30 16954 C 1577.23 0.750536 1.79111 0
M  V30 16955 O 1576.51 -0.242864 1.92978 0
M  V30 16956 C 1576.79 3.24565 1.55979 0
M  V30 16957 C 1576.64 4.45708 0.605339 0
M  V30 16958 C 1577.96 3.61233 2.51393 0
M  V30 16959 H 1575.08 0.675037 0.295794 0
M  V30 16960 H 1577.72 1.89824 0.0816541 0
M  V30 16961 H 1575.87 3.21083 2.18718 0
M  V30 16962 H 1577.55 4.61298 -0.0138894 0
M  V30 16963 H 1575.79 4.33722 -0.0824644 0
M  V30 16964 H 1576.46 5.39643 1.16143 0
M  V30 16965 H 1578.94 3.65563 1.98754 0
M  V30 16966 H 1577.81 4.59438 3.00346 0
M  V30 16967 H 1578.07 2.89116 3.34461 0
M  V30 16968 N 1577.13 -0.380637 1.52934 0
M  V30 16969 C 1578.41 -1.13958 1.58975 0
M  V30 16970 C 1578.79 -2.07503 0.388028 0
M  V30 16971 O 1578.14 -2.19844 -0.622984 0
M  V30 16972 C 1578.35 -1.89192 2.9327 0
M  V30 16973 C 1579.7 -2.44259 3.47308 0
M  V30 16974 O 1580.72 -1.99338 2.95199 0
M  V30 16975 O 1579.58 -3.26338 4.38367 0
M  V30 16976 H 1576.67 -0.521896 0.641525 0
M  V30 16977 H 1579.22 -0.385114 1.65272 0
M  V30 16978 H 1577.99 -1.20834 3.72176 0
M  V30 16979 H 1577.61 -2.71581 2.90395 0
M  V30 16980 N 1578.61 -1.44039 -0.639573 0
M  V30 16981 C 1579.84 -1.50063 -1.43164 0
M  V30 16982 C 1580.26 -0.123906 -1.87691 0
M  V30 16983 O 1579.62 0.885192 -1.58221 0
M  V30 16984 C 1579.67 -2.46305 -2.63375 0
M  V30 16985 O 1578.77 -1.95874 -3.62915 0
M  V30 16986 H 1578.11 -0.507052 -0.428713 0
M  V30 16987 H 1580.64 -1.8909 -0.781415 0
M  V30 16988 H 1580.65 -2.64062 -3.11023 0
M  V30 16989 H 1579.33 -3.46309 -2.3031 0
M  V30 16990 H 1577.9 -1.87844 -3.22132 0
M  V30 16991 N 1580.09 0.879207 -1.30796 0
M  V30 16992 C 1581.5 1.44705 -1.17972 0
M  V30 16993 C 1581.85 1.94992 0.217381 0
M  V30 16994 O 1580.98 1.85494 1.11449 0
M  V30 16995 C 1581.57 2.6302 -2.13555 0
M  V30 16996 C 1580.13 3.15877 -2.04692 0
M  V30 16997 C 1579.28 1.88576 -2.03309 0
M  V30 16998 H 1582.23 0.688604 -1.42982 0
M  V30 16999 H 1582.25 3.39418 -1.71976 0
M  V30 17000 H 1581.76 2.2639 -3.15229 0
M  V30 17001 H 1579.86 3.57151 -1.0618 0
M  V30 17002 H 1579.97 3.78786 -2.93357 0
M  V30 17003 H 1578.34 2.0715 -1.48192 0
M  V30 17004 H 1579.12 1.54195 -3.06723 0
M  V30 17005 N 1581.57 1.13606 1.09231 0
M  V30 17006 C 1582.81 0.900386 1.81717 0
M  V30 17007 C 1583.15 -0.571984 1.85586 0
M  V30 17008 O 1582.42 -1.42336 1.32554 0
M  V30 17009 C 1582.7 1.49143 3.27763 0
M  V30 17010 C 1582.56 3.03306 3.32153 0
M  V30 17011 C 1583.88 1.16129 4.24502 0
M  V30 17012 H 1581 0.328531 0.659724 0
M  V30 17013 H 1583.64 1.40467 1.27941 0
M  V30 17014 H 1581.79 1.06256 3.73687 0
M  V30 17015 H 1583.46 3.54963 2.94617 0
M  V30 17016 H 1581.7 3.38192 2.71677 0
M  V30 17017 H 1582.37 3.39761 4.35047 0
M  V30 17018 H 1584.85 1.53193 3.86874 0
M  V30 17019 H 1583.73 1.60129 5.25024 0
M  V30 17020 H 1583.99 0.0752973 4.42036 0
M  V30 17021 N 1583.05 -1.27244 0.929878 0
M  V30 17022 C 1584.29 -1.94557 0.572306 0
M  V30 17023 C 1584.62 -1.72886 -0.884542 0
M  V30 17024 O 1583.9 -1.0592 -1.63129 0
M  V30 17025 C 1584.18 -3.48629 0.901675 0
M  V30 17026 C 1584.04 -3.79633 2.41244 0
M  V30 17027 C 1585.35 -4.38195 0.409093 0
M  V30 17028 H 1582.47 -0.706627 0.209397 0
M  V30 17029 H 1585.12 -1.50321 1.16205 0
M  V30 17030 H 1583.27 -3.86437 0.399791 0
M  V30 17031 H 1584.94 -3.51604 2.98618 0
M  V30 17032 H 1583.18 -3.26108 2.8607 0
M  V30 17033 H 1583.85 -4.87284 2.59342 0
M  V30 17034 H 1586.33 -4.07548 0.839256 0
M  V30 17035 H 1585.2 -5.44814 0.668482 0
M  V30 17036 H 1585.46 -4.36669 -0.690861 0
M  V30 17037 N 1584.52 -0.695628 -1.41417 0
M  V30 17038 C 1585.94 -0.367185 -1.55319 0
M  V30 17039 C 1586.14 1.12584 -1.67114 0
M  V30 17040 O 1585.2 1.91166 -1.64959 0
M  V30 17041 C 1586.51 -1.11576 -2.79233 0
M  V30 17042 C 1588.06 -1.10011 -2.9303 0
M  V30 17043 C 1588.53 -1.83044 -4.19832 0
M  V30 17044 N 1590.02 -1.80014 -4.26789 0
M  V30 17045 C 1590.76 -2.33362 -5.23765 0
M  V30 17046 N 1590.25 -2.95182 -6.26769 0
M  V30 17047 N 1592.05 -2.23618 -5.15705 0
M  V30 17048 H 1584.2 -1.66398 -1.32006 0
M  V30 17049 H 1586.46 -0.702205 -0.636877 0
M  V30 17050 H 1586.17 -2.1706 -2.76727 0
M  V30 17051 H 1586.04 -0.694385 -3.70753 0
M  V30 17052 H 1588.43 -0.0535436 -2.95051 0
M  V30 17053 H 1588.51 -1.56055 -2.02683 0
M  V30 17054 H 1588.15 -2.8768 -4.18572 0
M  V30 17055 H 1588.08 -1.34434 -5.09151 0
M  V30 17056 H 1590.57 -1.34942 -3.52986 0
M  V30 17057 H 1590.89 -3.33456 -6.97156 0
M  V30 17058 H 1589.23 -2.99259 -6.27271 0
M  V30 17059 H 1592.42 -1.74994 -4.3416 0
M  V30 17060 H 1592.6 -2.65497 -5.91113 0
M  V30 17061 N 1586 1.51322 -0.440383 0
M  V30 17062 C 1586.91 2.31574 0.37561 0
M  V30 17063 C 1587.93 1.40617 1.02483 0
M  V30 17064 O 1589.1 1.73688 1.01953 0
M  V30 17065 C 1586.17 3.14441 1.4604 0
M  V30 17066 C 1585.23 4.21181 0.830991 0
M  V30 17067 C 1584.46 5.00087 1.86409 0
M  V30 17068 O 1584.69 4.79666 3.08669 0
M  V30 17069 O 1583.62 5.84101 1.45293 0
M  V30 17070 H 1587.45 3.0241 -0.27962 0
M  V30 17071 H 1585.03 1.48016 -0.202857 0
M  V30 17072 H 1586.91 3.6595 2.08946 0
M  V30 17073 H 1585.59 2.46366 2.09965 0
M  V30 17074 H 1584.49 3.73741 0.163798 0
M  V30 17075 H 1585.83 4.91638 0.235174 0
M  V30 17076 N 1587.48 0.171848 1.5666 0
M  V30 17077 C 1588.9 -0.184312 1.58532 0
M  V30 17078 C 1589.1 -1.62811 1.18721 0
M  V30 17079 O 1588.15 -2.35951 0.899066 0
M  V30 17080 C 1589.46 0.0969826 3.00544 0
M  V30 17081 C 1591.01 0.0352364 3.1298 0
M  V30 17082 C 1591.49 0.289528 4.57084 0
M  V30 17083 N 1592.98 0.237322 4.62592 0
M  V30 17084 C 1593.71 0.408247 5.71945 0
M  V30 17085 N 1593.21 0.638256 6.89854 0
M  V30 17086 N 1595 0.344115 5.61046 0
M  V30 17087 H 1587.15 1.11427 1.80825 0
M  V30 17088 H 1589.42 0.44302 0.838115 0
M  V30 17089 H 1589.12 1.09717 3.34148 0
M  V30 17090 H 1589 -0.611157 3.72216 0
M  V30 17091 H 1591.38 -0.955531 2.79202 0
M  V30 17092 H 1591.46 0.776095 2.43743 0
M  V30 17093 H 1591.11 1.27751 4.91571 0
M  V30 17094 H 1591.04 -0.471948 5.24481 0
M  V30 17095 H 1593.53 0.0652142 3.77844 0
M  V30 17096 H 1593.84 0.758116 7.69072 0
M  V30 17097 H 1592.19 0.674877 6.91716 0
M  V30 17098 H 1595.38 0.165008 4.67809 0
M  V30 17099 H 1595.55 0.480749 6.46214 0
M  V30 17100 N 1588.96 -1.5727 -0.101874 0
M  V30 17101 C 1590.21 -1.84928 -0.805263 0
M  V30 17102 C 1590.52 -0.760099 -1.80227 0
M  V30 17103 O 1591.73 -0.923594 -2.55308 0
M  V30 17104 C 1590.18 -3.27929 -1.48291 0
M  V30 17105 C 1589.79 -4.44901 -0.526016 0
M  V30 17106 C 1591.53 -3.64819 -2.17043 0
M  V30 17107 C 1589.44 -5.78934 -1.20787 0
M  V30 17108 H 1588.37 -0.689789 -0.304478 0
M  V30 17109 H 1591.02 -1.83408 -0.0581337 0
M  V30 17110 H 1589.4 -3.2397 -2.27726 0
M  V30 17111 H 1590.58 -4.60193 0.236352 0
M  V30 17112 H 1588.89 -4.16363 0.0554387 0
M  V30 17113 H 1591.49 -4.62236 -2.68778 0
M  V30 17114 H 1591.83 -2.93104 -2.95628 0
M  V30 17115 H 1592.37 -3.70637 -1.44476 0
M  V30 17116 H 1589.1 -6.53863 -0.46296 0
M  V30 17117 H 1588.62 -5.67497 -1.94183 0
M  V30 17118 H 1590.3 -6.23268 -1.73626 0
M  V30 17119 N 1590.44 0.372521 -1.53134 0
M  V30 17120 C 1591.68 1.11405 -1.70178 0
M  V30 17121 C 1592.04 1.87194 -0.444559 0
M  V30 17122 O 1591.33 1.83165 0.562249 0
M  V30 17123 C 1591.52 2.10742 -2.88656 0
M  V30 17124 C 1591.35 1.44713 -4.25779 0
M  V30 17125 C 1590.12 1.2042 -4.90741 0
M  V30 17126 C 1592.32 0.888496 -5.06567 0
M  V30 17127 N 1590.3 0.506685 -6.11805 0
M  V30 17128 C 1591.67 0.319961 -6.19174 0
M  V30 17129 C 1593.73 0.786508 -4.91649 0
M  V30 17130 C 1592.43 -0.340609 -7.18493 0
M  V30 17131 C 1594.46 0.139732 -5.91235 0
M  V30 17132 C 1593.82 -0.41796 -7.03159 0
M  V30 17133 H 1589.92 0.393051 -0.676044 0
M  V30 17134 H 1592.5 0.401356 -1.90518 0
M  V30 17135 H 1590.67 2.79332 -2.69867 0
M  V30 17136 H 1592.41 2.77522 -2.94557 0
M  V30 17137 H 1589.16 1.48362 -4.49762 0
M  V30 17138 H 1589.58 0.173493 -6.76778 0
M  V30 17139 H 1594.23 1.20345 -4.05311 0
M  V30 17140 H 1591.94 -0.769521 -8.04428 0
M  V30 17141 H 1595.53 0.0618412 -5.81767 0
M  V30 17142 H 1594.41 -0.910519 -7.78896 0
M  V30 17143 N 1591.91 1.44376 0.631925 0
M  V30 17144 C 1592.85 1.47167 1.75711 0
M  V30 17145 C 1593.86 0.365158 1.58652 0
M  V30 17146 O 1595.05 0.630852 1.66981 0
M  V30 17147 C 1592.15 1.28916 3.13423 0
M  V30 17148 C 1591.32 2.52798 3.56948 0
M  V30 17149 C 1590.38 2.29458 4.73535 0
M  V30 17150 O 1589.41 3.02941 4.81887 0
M  V30 17151 N 1590.61 1.32467 5.65184 0
M  V30 17152 H 1593.37 2.44168 1.73788 0
M  V30 17153 H 1590.93 1.39805 0.816465 0
M  V30 17154 H 1592.93 1.1115 3.89137 0
M  V30 17155 H 1591.5 0.402828 3.09994 0
M  V30 17156 H 1590.72 2.85846 2.71451 0
M  V30 17157 H 1592 3.35198 3.82779 0
M  V30 17158 H 1591.4 0.717762 5.61128 0
M  V30 17159 H 1589.96 1.2068 6.40531 0
M  V30 17160 N 1593.39 -0.872258 1.31261 0
M  V30 17161 C 1594.34 -2.00065 1.18645 0
M  V30 17162 C 1595.33 -1.69132 0.0952872 0
M  V30 17163 O 1596.54 -1.78156 0.257022 0
M  V30 17164 H 1592.91 -0.656201 0.367293 0
M  V30 17165 H 1594.89 -2.07837 2.14117 0
M  V30 17166 C 1593.63 -3.35628 0.908241 0
M  V30 17167 H 1592.96 -3.5995 1.74 0
M  V30 17168 H 1594.4 -4.15184 0.860134 0
M  V30 17169 C 1592.86 -3.34647 -0.388993 0
M  V30 17170 O 1593.39 -3.76271 -1.40651 0
M  V30 17171 N 1591.59 -2.87768 -0.404708 0
M  V30 17172 H 1591.14 -2.5409 0.423824 0
M  V30 17173 H 1591.1 -2.87494 -1.27258 0
M  V30 17174 N 1594.87 -1.14184 -1.08627 0
M  V30 17175 C 1596.09 -0.932504 -1.85254 0
M  V30 17176 C 1596.52 0.513792 -1.80947 0
M  V30 17177 O 1595.88 1.36525 -1.19292 0
M  V30 17178 C 1595.93 -1.43519 -3.30809 0
M  V30 17179 O 1595.03 -0.625806 -4.07624 0
M  V30 17180 H 1594.37 -0.333573 -0.57413 0
M  V30 17181 H 1596.9 -1.51853 -1.3712 0
M  V30 17182 H 1596.91 -1.44238 -3.81654 0
M  V30 17183 H 1595.59 -2.48819 -3.3326 0
M  V30 17184 H 1594.16 -0.687168 -3.66514 0
M  V30 17185 N 1596.35 1.26749 -0.936613 0
M  V30 17186 C 1597.63 1.89106 -0.49981 0
M  V30 17187 C 1598.01 1.84687 1.02244 0
M  V30 17188 O 1597.35 1.2981 1.88047 0
M  V30 17189 C 1597.56 3.32641 -1.05598 0
M  V30 17190 C 1598.91 4.09511 -1.12187 0
M  V30 17191 O 1599.94 3.41692 -1.00624 0
M  V30 17192 O 1598.79 5.30785 -1.30113 0
M  V30 17193 H 1595.89 0.810941 -0.162185 0
M  V30 17194 H 1598.43 1.34952 -1.02888 0
M  V30 17195 H 1597.21 3.30196 -2.09968 0
M  V30 17196 H 1596.83 3.94327 -0.509086 0
M  V30 17197 N 1597.83 0.703118 1.41046 0
M  V30 17198 C 1599.07 0.237287 2.01105 0
M  V30 17199 C 1599.4 -1.16552 1.55711 0
M  V30 17200 O 1598.66 -1.80233 0.762533 0
M  V30 17201 C 1598.96 0.251575 3.56513 0
M  V30 17202 C 1598.62 1.60295 4.21446 0
M  V30 17203 C 1597.28 1.9729 4.38897 0
M  V30 17204 C 1599.64 2.49167 4.57783 0
M  V30 17205 C 1596.96 3.22726 4.89964 0
M  V30 17206 C 1599.32 3.73943 5.10244 0
M  V30 17207 C 1597.98 4.11072 5.25905 0
M  V30 17208 H 1597.25 0.0868294 0.735895 0
M  V30 17209 H 1599.9 0.903695 1.68836 0
M  V30 17210 H 1598.2 -0.498393 3.88617 0
M  V30 17211 H 1599.9 -0.126501 4.008 0
M  V30 17212 H 1596.49 1.30523 4.08242 0
M  V30 17213 H 1600.67 2.21864 4.43948 0
M  V30 17214 H 1595.93 3.51477 5.00274 0
M  V30 17215 H 1600.1 4.42988 5.3734 0
M  V30 17216 H 1597.73 5.0834 5.65239 0
M  V30 17217 N 1599.3 -1.51086 0.448402 0
M  V30 17218 C 1600.25 -2.29611 -0.371711 0
M  V30 17219 C 1601.25 -1.35926 -1.01096 0
M  V30 17220 O 1602.45 -1.53219 -0.944663 0
M  V30 17221 H 1598.83 -0.739099 -0.138694 0
M  V30 17222 H 1600.8 -2.96772 0.311275 0
M  V30 17223 C 1599.55 -3.1583 -1.45418 0
M  V30 17224 H 1598.87 -3.87813 -0.971661 0
M  V30 17225 H 1600.31 -3.7381 -2.00105 0
M  V30 17226 C 1598.77 -2.31927 -2.44359 0
M  V30 17227 O 1599.3 -1.98655 -3.4914 0
M  V30 17228 N 1597.51 -1.94938 -2.15517 0
M  V30 17229 H 1597.05 -2.22195 -1.30335 0
M  V30 17230 H 1597.01 -1.39098 -2.81956 0
M  V30 17231 N 1600.78 -0.180154 -1.56567 0
M  V30 17232 C 1602.03 0.46252 -1.97147 0
M  V30 17233 C 1602.36 1.62654 -1.06649 0
M  V30 17234 O 1601.61 1.95432 -0.102417 0
M  V30 17235 C 1601.91 0.978895 -3.43733 0
M  V30 17236 C 1601.58 -0.0701623 -4.50845 0
M  V30 17237 C 1600.24 -0.358456 -4.79863 0
M  V30 17238 C 1602.59 -0.781763 -5.15304 0
M  V30 17239 C 1599.92 -1.36359 -5.70634 0
M  V30 17240 C 1602.27 -1.77594 -6.0716 0
M  V30 17241 C 1600.94 -2.07159 -6.3454 0
M  V30 17242 H 1600.21 0.169248 -0.721413 0
M  V30 17243 H 1602.85 -0.273976 -1.8953 0
M  V30 17244 H 1601.16 1.79338 -3.48346 0
M  V30 17245 H 1602.85 1.4853 -3.72478 0
M  V30 17246 H 1599.44 0.164708 -4.28283 0
M  V30 17247 H 1603.63 -0.572254 -4.9299 0
M  V30 17248 H 1598.88 -1.59872 -5.90128 0
M  V30 17249 H 1603.06 -2.33265 -6.56171 0
M  V30 17250 H 1600.69 -2.85191 -7.04677 0
M  V30 17251 N 1602.26 1.57322 0.0935319 0
M  V30 17252 C 1603.54 1.77187 0.828503 0
M  V30 17253 C 1603.92 0.762216 1.96859 0
M  V30 17254 O 1603.27 -0.208982 2.27542 0
M  V30 17255 C 1603.48 3.23007 1.32163 0
M  V30 17256 C 1604.82 3.86233 1.76379 0
M  V30 17257 O 1605.85 3.26766 1.41783 0
M  V30 17258 O 1604.71 4.90808 2.40354 0
M  V30 17259 H 1601.8 0.726401 0.395311 0
M  V30 17260 H 1604.35 1.69533 0.0752924 0
M  V30 17261 H 1603.12 3.88029 0.504863 0
M  V30 17262 H 1602.74 3.353 2.13681 0
M  V30 17263 N 1603.74 -0.364395 1.53329 0
M  V30 17264 C 1604.69 -1.46678 1.80523 0
M  V30 17265 C 1605.68 -1.55396 0.674421 0
M  V30 17266 O 1606.89 -1.58268 0.857385 0
M  V30 17267 H 1603.26 -0.488652 0.571597 0
M  V30 17268 H 1605.23 -1.20947 2.7279 0
M  V30 17269 C 1603.98 -2.83496 2.01309 0
M  V30 17270 H 1603.3 -2.77546 2.87764 0
M  V30 17271 H 1604.74 -3.59805 2.24313 0
M  V30 17272 C 1603.2 -3.27445 0.792539 0
M  V30 17273 O 1603.73 -4.01696 -0.0181965 0
M  V30 17274 N 1601.94 -2.84004 0.615643 0
M  V30 17275 H 1601.49 -2.23746 1.27654 0
M  V30 17276 H 1601.44 -3.13766 -0.199604 0
M  V30 17277 N 1605.22 -1.44709 -0.62426 0
M  V30 17278 C 1606.46 -1.48072 -1.38573 0
M  V30 17279 C 1606.8 -0.115532 -1.93856 0
M  V30 17280 O 1606.07 0.867787 -1.74068 0
M  V30 17281 C 1606.35 -2.54662 -2.54596 0
M  V30 17282 C 1606.21 -4.00564 -2.04618 0
M  V30 17283 C 1607.53 -2.57689 -3.56769 0
M  V30 17284 H 1604.64 -0.539119 -0.502513 0
M  V30 17285 H 1607.29 -1.76427 -0.705225 0
M  V30 17286 H 1605.44 -2.30614 -3.12649 0
M  V30 17287 H 1607.11 -4.35767 -1.51343 0
M  V30 17288 H 1605.35 -4.12014 -1.35746 0
M  V30 17289 H 1606.02 -4.70804 -2.8818 0
M  V30 17290 H 1608.5 -2.79194 -3.08529 0
M  V30 17291 H 1607.37 -3.34161 -4.35462 0
M  V30 17292 H 1607.64 -1.62146 -4.11292 0
M  V30 17293 N 1606.69 0.865285 -1.31722 0
M  V30 17294 C 1607.62 1.98871 -1.22362 0
M  V30 17295 C 1608.61 1.69745 -0.109779 0
M  V30 17296 O 1609.79 1.91944 -0.295167 0
M  V30 17297 C 1606.92 3.34477 -0.935 0
M  V30 17298 C 1605.87 3.77924 -2.00892 0
M  V30 17299 C 1605.2 5.11042 -1.57291 0
M  V30 17300 C 1606.5 3.94528 -3.42264 0
M  V30 17301 H 1608.19 2.06959 -2.16352 0
M  V30 17302 H 1605.74 0.994355 -1.04157 0
M  V30 17303 H 1607.69 4.12612 -0.856111 0
M  V30 17304 H 1606.42 3.26575 0.0405536 0
M  V30 17305 H 1605.08 3.02032 -2.07779 0
M  V30 17306 H 1604.72 4.99586 -0.585084 0
M  V30 17307 H 1604.42 5.41082 -2.29138 0
M  V30 17308 H 1605.95 5.91681 -1.50818 0
M  V30 17309 H 1607.36 4.63045 -3.38027 0
M  V30 17310 H 1605.76 4.35972 -4.12369 0
M  V30 17311 H 1606.83 2.97765 -3.82706 0
M  V30 17312 N 1608.17 1.14759 1.0802 0
M  V30 17313 C 1609.4 0.942316 1.84757 0
M  V30 17314 C 1609.82 -0.504188 1.81217 0
M  V30 17315 O 1609.18 -1.35891 1.20014 0
M  V30 17316 C 1609.23 1.45271 3.30043 0
M  V30 17317 O 1608.33 0.647414 4.07287 0
M  V30 17318 H 1607.67 0.336613 0.572353 0
M  V30 17319 H 1610.2 1.52578 1.36313 0
M  V30 17320 H 1610.21 1.4626 3.80883 0
M  V30 17321 H 1608.89 2.50583 3.31935 0
M  V30 17322 H 1607.47 0.706595 3.66144 0
M  V30 17323 N 1609.65 -1.26251 0.943322 0
M  V30 17324 C 1610.61 -2.24554 0.459158 0
M  V30 17325 C 1611.61 -1.54918 -0.430926 0
M  V30 17326 O 1612.8 -1.72678 -0.229803 0
M  V30 17327 C 1609.94 -3.39221 -0.337973 0
M  V30 17328 H 1611.13 -2.689 1.32789 0
M  V30 17329 H 1608.68 -1.38442 0.725495 0
M  V30 17330 H 1609.42 -3.00279 -1.22486 0
M  V30 17331 H 1609.2 -3.90947 0.300428 0
M  V30 17332 H 1610.69 -4.12246 -0.666568 0
M  V30 17333 N 1611.13 -0.710588 -1.40671 0
M  V30 17334 C 1612.06 -0.00399749 -2.282 0
M  V30 17335 C 1613.04 0.772757 -1.43064 0
M  V30 17336 O 1614.22 0.760441 -1.72481 0
M  V30 17337 C 1611.35 1.00173 -3.23548 0
M  V30 17338 C 1610.4 0.316378 -4.25325 0
M  V30 17339 S 1611.23 -0.952126 -5.26968 0
M  V30 17340 C 1612.39 0.0516252 -6.25879 0
M  V30 17341 H 1612.62 -0.746334 -2.8778 0
M  V30 17342 H 1610.15 -0.50142 -1.46031 0
M  V30 17343 H 1612.11 1.57679 -3.79009 0
M  V30 17344 H 1610.77 1.71674 -2.63034 0
M  V30 17345 H 1609.96 1.07649 -4.92369 0
M  V30 17346 H 1609.57 -0.185995 -3.73537 0
M  V30 17347 H 1611.86 0.900088 -6.71494 0
M  V30 17348 H 1612.8 -0.585297 -7.05677 0
M  V30 17349 H 1613.21 0.413117 -5.62986 0
M  V30 17350 N 1612.61 1.50847 -0.456408 0
M  V30 17351 C 1613.54 2.24825 0.391003 0
M  V30 17352 C 1614.52 1.27531 1.00869 0
M  V30 17353 O 1615.7 1.56717 1.04747 0
M  V30 17354 C 1612.83 3.01329 1.54657 0
M  V30 17355 C 1611.88 4.13431 1.0477 0
M  V30 17356 S 1612.71 5.35494 -0.0257471 0
M  V30 17357 C 1613.86 6.15541 1.13404 0
M  V30 17358 H 1614.1 2.96354 -0.237018 0
M  V30 17359 H 1611.63 1.52506 -0.241121 0
M  V30 17360 H 1613.59 3.46 2.20894 0
M  V30 17361 H 1612.25 2.29354 2.14606 0
M  V30 17362 H 1611.44 4.66309 1.91238 0
M  V30 17363 H 1611.04 3.71119 0.463285 0
M  V30 17364 H 1613.34 6.45784 2.04865 0
M  V30 17365 H 1614.28 7.05158 0.644835 0
M  V30 17366 H 1614.69 5.47341 1.38123 0
M  V30 17367 N 1614.09 0.188454 1.56469 0
M  V30 17368 C 1615.05 -0.721282 2.17555 0
M  V30 17369 C 1616.05 -1.14579 1.1282 0
M  V30 17370 O 1617.24 -1.05996 1.38241 0
M  V30 17371 C 1614.37 -1.9839 2.77226 0
M  V30 17372 H 1615.56 -0.189218 2.99302 0
M  V30 17373 H 1613.12 -0.0611533 1.5618 0
M  V30 17374 H 1613.85 -2.55864 1.99259 0
M  V30 17375 H 1613.64 -1.68831 3.53891 0
M  V30 17376 H 1615.13 -2.63277 3.24153 0
M  V30 17377 N 1615.56 -1.5737 -0.0851874 0
M  V30 17378 C 1616.49 -2.05796 -1.10319 0
M  V30 17379 C 1617.47 -0.948796 -1.4118 0
M  V30 17380 O 1618.66 -1.22069 -1.51039 0
M  V30 17381 C 1615.79 -2.49069 -2.42037 0
M  V30 17382 C 1614.74 -3.6374 -2.25561 0
M  V30 17383 C 1614.07 -3.93023 -3.62543 0
M  V30 17384 C 1615.37 -4.94274 -1.68793 0
M  V30 17385 H 1617.06 -2.91095 -0.700274 0
M  V30 17386 H 1614.61 -1.40039 -0.335405 0
M  V30 17387 H 1616.56 -2.81558 -3.13534 0
M  V30 17388 H 1615.29 -1.60781 -2.84283 0
M  V30 17389 H 1613.95 -3.31513 -1.56507 0
M  V30 17390 H 1613.59 -3.01887 -4.02335 0
M  V30 17391 H 1613.29 -4.70229 -3.52362 0
M  V30 17392 H 1614.82 -4.27995 -4.35491 0
M  V30 17393 H 1616.23 -5.25079 -2.30141 0
M  V30 17394 H 1614.63 -5.75711 -1.69344 0
M  V30 17395 H 1615.7 -4.80548 -0.648204 0
M  V30 17396 N 1617.04 0.356258 -1.53521 0
M  V30 17397 C 1618.29 1.0979 -1.70154 0
M  V30 17398 C 1618.62 1.89028 -0.458124 0
M  V30 17399 O 1617.87 1.87516 0.560033 0
M  V30 17400 C 1618.17 2.07669 -2.90875 0
M  V30 17401 C 1617.84 1.4484 -4.27004 0
M  V30 17402 C 1616.5 1.27434 -4.64019 0
M  V30 17403 C 1618.85 0.994684 -5.1162 0
M  V30 17404 C 1616.18 0.632539 -5.8328 0
M  V30 17405 C 1618.53 0.366847 -6.31535 0
M  V30 17406 C 1617.19 0.180356 -6.67256 0
M  V30 17407 H 1616.46 0.401751 -0.622637 0
M  V30 17408 H 1619.11 0.378618 -1.8772 0
M  V30 17409 H 1617.42 2.85934 -2.6786 0
M  V30 17410 H 1619.11 2.65023 -3.00939 0
M  V30 17411 H 1615.7 1.59384 -3.97863 0
M  V30 17412 H 1619.89 1.11706 -4.83565 0
M  V30 17413 H 1615.14 0.476548 -6.0954 0
M  V30 17414 H 1619.32 0.00712378 -6.964 0
M  V30 17415 H 1616.94 -0.319016 -7.5953 0
M  V30 17416 N 1618.52 1.45038 0.616577 0
M  V30 17417 C 1619.75 1.52094 1.40267 0
M  V30 17418 C 1620.16 0.150558 1.88199 0
M  V30 17419 O 1619.52 -0.846258 1.61693 0
M  V30 17420 C 1619.57 2.49786 2.61322 0
M  V30 17421 O 1619.29 3.81498 2.15385 0
M  V30 17422 C 1620.79 2.66451 3.54286 0
M  V30 17423 H 1618.01 0.515378 0.429681 0
M  V30 17424 H 1620.56 1.90141 0.752768 0
M  V30 17425 H 1618.71 2.14835 3.22373 0
M  V30 17426 H 1619.13 4.34374 2.93972 0
M  V30 17427 H 1620.6 3.38802 4.35795 0
M  V30 17428 H 1621.08 1.72177 4.04044 0
M  V30 17429 H 1621.68 3.02362 2.99095 0
M  V30 17430 N 1620 -0.858287 1.32179 0
M  V30 17431 C 1621.24 -1.6146 1.22713 0
M  V30 17432 C 1621.58 -1.93045 -0.211479 0
M  V30 17433 O 1620.85 -1.57034 -1.14764 0
M  V30 17434 C 1621.13 -2.93728 2.08317 0
M  V30 17435 C 1620.99 -2.68947 3.60538 0
M  V30 17436 C 1622.31 -3.94959 1.94153 0
M  V30 17437 H 1619.43 -0.585872 0.447128 0
M  V30 17438 H 1622.07 -0.99134 1.62088 0
M  V30 17439 H 1620.22 -3.4692 1.74867 0
M  V30 17440 H 1621.89 -2.22336 4.04183 0
M  V30 17441 H 1620.13 -2.02974 3.83385 0
M  V30 17442 H 1620.8 -3.63112 4.15756 0
M  V30 17443 H 1623.28 -3.51013 2.23449 0
M  V30 17444 H 1622.16 -4.85371 2.56332 0
M  V30 17445 H 1622.42 -4.32672 0.908132 0
M  V30 17446 N 1621.48 -1.1533 -1.07409 0
M  V30 17447 C 1622.7 -0.952101 -1.84255 0
M  V30 17448 C 1623.13 0.494571 -1.81482 0
M  V30 17449 O 1622.48 1.35253 -1.20733 0
M  V30 17450 C 1622.53 -1.47019 -3.29268 0
M  V30 17451 O 1621.64 -0.669005 -4.06937 0
M  V30 17452 H 1620.98 -0.339643 -0.57056 0
M  V30 17453 H 1623.51 -1.53298 -1.35502 0
M  V30 17454 H 1623.52 -1.48278 -3.80102 0
M  V30 17455 H 1622.19 -2.5234 -3.30602 0
M  V30 17456 H 1620.77 -0.726003 -3.65764 0
M  V30 17457 N 1622.95 1.25748 -0.950004 0
M  V30 17458 C 1624.18 1.97413 -0.61933 0
M  V30 17459 C 1624.6 1.70656 0.807591 0
M  V30 17460 O 1623.95 0.979899 1.53962 0
M  V30 17461 C 1624 3.51053 -0.862801 0
M  V30 17462 O 1623.73 3.76884 -2.23361 0
M  V30 17463 C 1625.23 4.39951 -0.543879 0
M  V30 17464 H 1622.45 0.629394 -0.232603 0
M  V30 17465 H 1624.99 1.60037 -1.27312 0
M  V30 17466 H 1623.15 3.86557 -0.255493 0
M  V30 17467 H 1623.56 4.71368 -2.30026 0
M  V30 17468 H 1625.03 5.46676 -0.764804 0
M  V30 17469 H 1625.51 4.36094 0.521421 0
M  V30 17470 H 1626.12 4.10005 -1.1303 0
M  V30 17471 N 1624.43 0.718038 1.40292 0
M  V30 17472 C 1625.68 0.258603 2.00842 0
M  V30 17473 C 1626.01 -1.14894 1.56938 0
M  V30 17474 O 1625.26 -1.79414 0.781606 0
M  V30 17475 C 1625.56 0.289374 3.56227 0
M  V30 17476 C 1625.23 1.64756 4.19722 0
M  V30 17477 C 1623.89 2.01934 4.36779 0
M  V30 17478 C 1626.24 2.54008 4.55115 0
M  V30 17479 C 1623.57 3.27905 4.86513 0
M  V30 17480 C 1625.92 3.79334 5.06249 0
M  V30 17481 C 1624.58 4.16626 5.21516 0
M  V30 17482 H 1623.85 0.0946296 0.734933 0
M  V30 17483 H 1626.5 0.921552 1.67868 0
M  V30 17484 H 1624.81 -0.457147 3.89124 0
M  V30 17485 H 1626.5 -0.0839832 4.00912 0
M  V30 17486 H 1623.09 1.34846 4.06835 0
M  V30 17487 H 1627.28 2.2656 4.4157 0
M  V30 17488 H 1622.53 3.56763 4.96518 0
M  V30 17489 H 1626.71 4.48663 5.32611 0
M  V30 17490 H 1624.33 5.14306 5.59815 0
M  V30 17491 N 1625.91 -1.50602 0.464402 0
M  V30 17492 C 1626.82 -2.32142 -0.338721 0
M  V30 17493 C 1627.84 -1.4223 -1.00233 0
M  V30 17494 O 1629.01 -1.75288 -0.99177 0
M  V30 17495 C 1626.08 -3.16725 -1.41019 0
M  V30 17496 C 1625.14 -4.22449 -0.76388 0
M  V30 17497 C 1624.37 -5.0299 -1.78429 0
M  V30 17498 O 1624.59 -4.84516 -3.00999 0
M  V30 17499 O 1623.53 -5.86338 -1.35982 0
M  V30 17500 H 1627.35 -3.01927 0.327695 0
M  V30 17501 H 1624.94 -1.47675 0.226379 0
M  V30 17502 H 1626.82 -3.69228 -2.03097 0
M  V30 17503 H 1625.5 -2.49675 -2.06019 0
M  V30 17504 H 1624.4 -3.73955 -0.104318 0
M  V30 17505 H 1625.74 -4.9195 -0.156929 0
M  V30 17506 N 1627.39 -0.19675 -1.56367 0
M  V30 17507 C 1628.64 0.440711 -1.97236 0
M  V30 17508 C 1628.96 1.62037 -1.08485 0
M  V30 17509 O 1628.23 1.95274 -0.156483 0
M  V30 17510 H 1626.81 0.16581 -0.728365 0
M  V30 17511 H 1629.47 -0.283867 -1.92822 0
M  V30 17512 H 1628.57 0.783731 -3.02099 0
M  V30 17513 N 1628.87 1.57413 0.0768405 0
M  V30 17514 C 1630.11 1.88144 0.772882 0
M  V30 17515 C 1630.47 0.789834 1.75441 0
M  V30 17516 O 1629.76 -0.206487 1.90484 0
M  V30 17517 C 1629.95 3.2324 1.52482 0
M  V30 17518 C 1629.78 4.45439 0.61762 0
M  V30 17519 C 1628.55 5.04649 0.256461 0
M  V30 17520 C 1630.75 5.14232 -0.0834364 0
M  V30 17521 N 1628.73 6.10374 -0.656988 0
M  V30 17522 C 1630.1 6.14087 -0.854262 0
M  V30 17523 C 1632.16 4.97657 -0.155439 0
M  V30 17524 C 1630.86 6.99155 -1.69039 0
M  V30 17525 C 1632.89 5.83248 -0.978528 0
M  V30 17526 C 1632.25 6.82637 -1.73742 0
M  V30 17527 H 1628.35 0.738071 0.258409 0
M  V30 17528 H 1630.93 1.94669 0.0346081 0
M  V30 17529 H 1629.1 3.17732 2.23385 0
M  V30 17530 H 1630.84 3.41637 2.16948 0
M  V30 17531 H 1627.59 4.69679 0.608199 0
M  V30 17532 H 1628.02 6.67891 -1.10681 0
M  V30 17533 H 1632.66 4.20739 0.416946 0
M  V30 17534 H 1630.38 7.75452 -2.27377 0
M  V30 17535 H 1633.96 5.72481 -1.03715 0
M  V30 17536 H 1632.84 7.47718 -2.36405 0
M  V30 17537 N 1630.34 -0.348112 1.53707 0
M  V30 17538 C 1631.76 -0.923978 1.62233 0
M  V30 17539 C 1632.11 -1.89702 0.500744 0
M  V30 17540 O 1631.23 -2.1321 -0.370212 0
M  V30 17541 C 1631.83 -1.68261 2.94064 0
M  V30 17542 C 1630.39 -2.20755 3.04867 0
M  V30 17543 C 1629.53 -1.02526 2.5765 0
M  V30 17544 H 1632.48 -0.126381 1.58196 0
M  V30 17545 H 1632.5 -2.54514 2.82848 0
M  V30 17546 H 1632.02 -0.974155 3.75675 0
M  V30 17547 H 1630.12 -2.9479 2.27881 0
M  V30 17548 H 1630.23 -2.47439 4.10257 0
M  V30 17549 H 1628.59 -1.39735 2.12947 0
M  V30 17550 H 1629.38 -0.331521 3.41696 0
M  V30 17551 N 1631.82 -1.45363 -0.608876 0
M  V30 17552 C 1632.79 -1.53551 -1.70161 0
M  V30 17553 C 1633.79 -0.415146 -1.55349 0
M  V30 17554 O 1634.98 -0.67858 -1.6044 0
M  V30 17555 C 1632.11 -1.43081 -3.0942 0
M  V30 17556 H 1633.3 -2.5091 -1.64268 0
M  V30 17557 H 1630.85 -1.32785 -0.824493 0
M  V30 17558 H 1631.59 -0.469016 -3.20891 0
M  V30 17559 H 1631.37 -2.24343 -3.21579 0
M  V30 17560 H 1632.86 -1.51841 -3.89017 0
M  V30 17561 N 1633.3 0.851265 -1.32632 0
M  V30 17562 C 1634.23 1.97562 -1.24465 0
M  V30 17563 C 1635.21 1.69619 -0.127777 0
M  V30 17564 O 1636.4 1.9162 -0.315509 0
M  V30 17565 C 1633.53 3.33467 -0.970423 0
M  V30 17566 C 1632.48 3.75772 -2.0489 0
M  V30 17567 C 1631.81 5.09345 -1.62702 0
M  V30 17568 C 1633.11 3.90876 -3.4643 0
M  V30 17569 H 1634.8 2.04653 -2.18535 0
M  V30 17570 H 1632.35 0.983252 -1.05205 0
M  V30 17571 H 1634.3 4.11681 -0.899825 0
M  V30 17572 H 1633.02 3.26599 0.00591373 0
M  V30 17573 H 1631.68 2.99812 -2.1097 0
M  V30 17574 H 1631.33 4.98937 -0.638039 0
M  V30 17575 H 1631.03 5.38621 -2.34864 0
M  V30 17576 H 1632.55 5.90048 -1.57085 0
M  V30 17577 H 1633.97 4.59434 -3.42919 0
M  V30 17578 H 1632.37 4.31574 -4.1697 0
M  V30 17579 H 1633.44 2.93689 -3.85843 0
M  V30 17580 N 1634.78 1.15898 1.06796 0
M  V30 17581 C 1635.71 0.88395 2.16122 0
M  V30 17582 C 1636.69 -0.167708 1.69271 0
M  V30 17583 O 1637.87 -0.0208846 1.94189 0
M  V30 17584 C 1635 0.378656 3.4523 0
M  V30 17585 C 1633.96 1.36764 4.05561 0
M  V30 17586 C 1633.28 0.720956 5.29817 0
M  V30 17587 C 1634.58 2.73554 4.44933 0
M  V30 17588 H 1636.28 1.79818 2.39386 0
M  V30 17589 H 1633.82 0.866008 1.15049 0
M  V30 17590 H 1635.78 0.17376 4.21042 0
M  V30 17591 H 1634.5 -0.571063 3.21569 0
M  V30 17592 H 1633.16 1.55899 3.318 0
M  V30 17593 H 1632.81 -0.235089 5.0245 0
M  V30 17594 H 1632.51 1.38101 5.71141 0
M  V30 17595 H 1634.03 0.525963 6.0833 0
M  V30 17596 H 1635.45 2.58231 5.11849 0
M  V30 17597 H 1633.84 3.35986 4.97226 0
M  V30 17598 H 1634.91 3.29192 3.56034 0
M  V30 17599 N 1636.26 -1.25243 0.956659 0
M  V30 17600 C 1637.49 -1.96796 0.628878 0
M  V30 17601 C 1637.89 -1.71284 -0.803648 0
M  V30 17602 O 1637.24 -0.986812 -1.54944 0
M  V30 17603 C 1637.3 -3.50253 0.810132 0
M  V30 17604 C 1636.96 -3.99445 2.2202 0
M  V30 17605 C 1637.96 -4.09982 3.19704 0
M  V30 17606 C 1635.65 -4.33057 2.54493 0
M  V30 17607 C 1637.64 -4.53449 4.47954 0
M  V30 17608 C 1635.33 -4.7621 3.82972 0
M  V30 17609 C 1636.32 -4.86369 4.79515 0
M  V30 17610 O 1636.01 -5.28563 6.05703 0
M  V30 17611 H 1635.74 -0.634013 0.234529 0
M  V30 17612 H 1638.3 -1.60318 1.28402 0
M  V30 17613 H 1636.53 -3.86576 0.0978322 0
M  V30 17614 H 1638.22 -4.03015 0.483099 0
M  V30 17615 H 1638.98 -3.84243 2.95943 0
M  V30 17616 H 1634.86 -4.24375 1.80075 0
M  V30 17617 H 1638.41 -4.61294 5.23311 0
M  V30 17618 H 1634.3 -5.01394 4.06539 0
M  V30 17619 H 1635.07 -5.46744 6.09109 0
M  V30 17620 N 1637.73 -0.725468 -1.3991 0
M  V30 17621 C 1638.68 -0.0792833 -2.30664 0
M  V30 17622 C 1639.65 0.73984 -1.48713 0
M  V30 17623 O 1640.84 0.701762 -1.77426 0
M  V30 17624 C 1637.98 0.829164 -3.34991 0
M  V30 17625 C 1637.09 -0.00154779 -4.32 0
M  V30 17626 C 1636.22 0.907291 -5.23394 0
M  V30 17627 C 1635.26 0.0712573 -6.12059 0
M  V30 17628 N 1634.4 0.935508 -6.9584 0
M  V30 17629 H 1639.24 -0.858869 -2.85355 0
M  V30 17630 H 1636.78 -0.435214 -1.40514 0
M  V30 17631 H 1638.74 1.37021 -3.94057 0
M  V30 17632 H 1637.37 1.57483 -2.81778 0
M  V30 17633 H 1636.42 -0.659903 -3.74632 0
M  V30 17634 H 1637.73 -0.648387 -4.94568 0
M  V30 17635 H 1636.88 1.51652 -5.87441 0
M  V30 17636 H 1635.62 1.58793 -4.61125 0
M  V30 17637 H 1634.63 -0.550844 -5.47034 0
M  V30 17638 H 1635.85 -0.606025 -6.76391 0
M  V30 17639 H 1633.8 1.60162 -6.36148 0
M  V30 17640 H 1633.72 0.344932 -7.55213 0
M  V30 17641 H 1634.98 1.53061 -7.64325 0
M  V30 17642 N 1639.21 1.50354 -0.472382 0
M  V30 17643 C 1640.18 2.27096 0.30981 0
M  V30 17644 C 1641.18 1.3193 0.919306 0
M  V30 17645 O 1642.37 1.55344 0.788284 0
M  V30 17646 C 1639.5 3.08924 1.44149 0
M  V30 17647 H 1640.69 2.97692 -0.363228 0
M  V30 17648 H 1638.24 1.5465 -0.226483 0
M  V30 17649 H 1638.98 2.42828 2.14954 0
M  V30 17650 H 1638.76 3.78862 1.01023 0
M  V30 17651 H 1640.25 3.66961 1.99323 0
M  V30 17652 N 1640.69 0.205039 1.56261 0
M  V30 17653 C 1641.94 -0.431364 1.97033 0
M  V30 17654 C 1642.25 -1.62066 1.09517 0
M  V30 17655 O 1643.46 -2.32551 1.40116 0
M  V30 17656 C 1641.92 -0.818841 3.50461 0
M  V30 17657 C 1641.52 0.346723 4.46656 0
M  V30 17658 C 1643.27 -1.42177 3.99982 0
M  V30 17659 C 1641.17 -0.0622677 5.91367 0
M  V30 17660 H 1640.1 -0.164934 0.73574 0
M  V30 17661 H 1642.76 0.298635 1.81054 0
M  V30 17662 H 1641.14 -1.60579 3.61981 0
M  V30 17663 H 1642.31 1.12427 4.46874 0
M  V30 17664 H 1640.63 0.861799 4.07384 0
M  V30 17665 H 1643.22 -1.74039 5.05583 0
M  V30 17666 H 1643.57 -2.33177 3.44868 0
M  V30 17667 H 1644.1 -0.698591 3.91618 0
M  V30 17668 H 1640.84 0.813802 6.50429 0
M  V30 17669 H 1640.36 -0.804474 5.94381 0
M  V30 17670 H 1642.04 -0.49466 6.45106 0
M  V30 17671 N 1642.17 -1.57451 -0.0684915 0
M  V30 17672 C 1643.45 -1.78483 -0.800209 0
M  V30 17673 C 1643.83 -0.793438 -1.95621 0
M  V30 17674 O 1643.17 0.172756 -2.27846 0
M  V30 17675 C 1643.38 -3.25069 -1.27008 0
M  V30 17676 C 1644.73 -3.8899 -1.70212 0
M  V30 17677 O 1645.76 -3.2898 -1.36566 0
M  V30 17678 O 1644.62 -4.94569 -2.32515 0
M  V30 17679 H 1641.71 -0.732598 -0.383704 0
M  V30 17680 H 1644.26 -1.69631 -0.0483117 0
M  V30 17681 H 1643.03 -3.88784 -0.443067 0
M  V30 17682 H 1642.65 -3.38657 -2.08319 0
M  V30 17683 N 1643.65 0.339955 -1.5389 0
M  V30 17684 C 1644.87 1.10417 -1.75564 0
M  V30 17685 C 1645.3 1.81466 -0.495156 0
M  V30 17686 O 1644.66 1.72679 0.552415 0
M  V30 17687 C 1644.7 2.09056 -2.93816 0
M  V30 17688 O 1643.81 3.16645 -2.64215 0
M  V30 17689 H 1643.15 0.319164 -0.582263 0
M  V30 17690 H 1645.68 0.389251 -2.00863 0
M  V30 17691 H 1645.69 2.52215 -3.20705 0
M  V30 17692 H 1644.36 1.56741 -3.85234 0
M  V30 17693 H 1642.94 2.78278 -2.48225 0
M  V30 17694 N 1645.13 1.45684 0.601159 0
M  V30 17695 C 1646.07 1.55189 1.7326 0
M  V30 17696 C 1647.07 0.421459 1.64073 0
M  V30 17697 O 1648.27 0.597622 1.6979 0
M  V30 17698 H 1644.65 0.487571 0.572519 0
M  V30 17699 H 1646.62 2.50357 1.6237 0
M  V30 17700 C 1645.37 1.54185 3.11644 0
M  V30 17701 H 1644.69 2.40498 3.19375 0
M  V30 17702 H 1646.13 1.64893 3.90623 0
M  V30 17703 C 1644.59 0.267339 3.35838 0
M  V30 17704 O 1645.12 -0.650146 3.96404 0
M  V30 17705 N 1643.33 0.161015 2.90154 0
M  V30 17706 H 1642.87 0.90851 2.41047 0
M  V30 17707 H 1642.83 -0.690911 3.06714 0
M  V30 17708 N 1646.6 -0.84422 1.33082 0
M  V30 17709 C 1647.85 -1.59596 1.2399 0
M  V30 17710 C 1648.17 -1.94016 -0.19566 0
M  V30 17711 O 1647.44 -1.60512 -1.12306 0
M  V30 17712 H 1646.02 -0.591727 0.455926 0
M  V30 17713 H 1648.68 -1.00924 1.66735 0
M  V30 17714 H 1647.78 -2.52829 1.82986 0
M  V30 17715 N 1648.08 -1.16463 -1.0618 0
M  V30 17716 C 1648.99 -0.886601 -2.17202 0
M  V30 17717 C 1650.01 0.141568 -1.73423 0
M  V30 17718 O 1651.18 -0.0353417 -2.01369 0
M  V30 17719 C 1648.25 -0.392829 -3.44467 0
M  V30 17720 C 1647.31 -1.48636 -4.02748 0
M  V30 17721 C 1646.54 -1.01606 -5.23939 0
M  V30 17722 O 1646.77 0.133753 -5.70243 0
M  V30 17723 O 1645.7 -1.80487 -5.74202 0
M  V30 17724 H 1649.53 -1.81502 -2.43497 0
M  V30 17725 H 1647.11 -0.944691 -1.15741 0
M  V30 17726 H 1648.99 -0.124501 -4.21216 0
M  V30 17727 H 1647.67 0.507566 -3.19696 0
M  V30 17728 H 1646.57 -1.80845 -3.27484 0
M  V30 17729 H 1647.91 -2.3621 -4.31817 0
M  V30 17730 N 1649.56 1.24734 -0.963288 0
M  V30 17731 C 1650.51 2.27557 -0.481704 0
M  V30 17732 C 1651.5 1.63245 0.452488 0
M  V30 17733 O 1652.71 1.76981 0.328263 0
M  V30 17734 H 1649.08 0.73936 -0.137297 0
M  V30 17735 H 1651.05 2.65555 -1.361 0
M  V30 17736 C 1649.8 3.47023 0.216806 0
M  V30 17737 H 1649.13 3.9675 -0.492916 0
M  V30 17738 H 1650.57 4.20828 0.517659 0
M  V30 17739 C 1649.02 3.04466 1.44229 0
M  V30 17740 O 1649.55 3.11238 2.53956 0
M  V30 17741 N 1647.76 2.59563 1.30674 0
M  V30 17742 H 1647.31 2.54252 0.41395 0
M  V30 17743 H 1647.27 2.31453 2.12783 0
M  V30 17744 N 1651.04 0.732878 1.39523 0
M  V30 17745 C 1652.29 0.276787 1.99792 0
M  V30 17746 C 1652.6 -1.14181 1.58814 0
M  V30 17747 O 1653.81 -1.69731 2.11905 0
M  V30 17748 C 1652.26 0.443924 3.57152 0
M  V30 17749 C 1651.87 1.87027 4.07093 0
M  V30 17750 C 1653.61 0.0495022 4.24471 0
M  V30 17751 C 1651.52 1.98708 5.57018 0
M  V30 17752 H 1650.45 0.0997337 0.747375 0
M  V30 17753 H 1653.1 0.906454 1.59548 0
M  V30 17754 H 1651.48 -0.254605 3.95181 0
M  V30 17755 H 1652.66 2.60059 3.80403 0
M  V30 17756 H 1650.97 2.21772 3.52429 0
M  V30 17757 H 1653.57 0.115815 5.34575 0
M  V30 17758 H 1653.91 -0.994967 4.04235 0
M  V30 17759 H 1654.45 0.69911 3.91609 0
M  V30 17760 H 1651.18 3.01336 5.82131 0
M  V30 17761 H 1650.7 1.30111 5.85518 0
M  V30 17762 H 1652.38 1.76725 6.22396 0
M  V30 17763 N 1652.52 -1.50101 0.480349 0
M  V30 17764 C 1653.76 -2.01974 -0.0712904 0
M  V30 17765 C 1654.08 -1.36377 -1.39378 0
M  V30 17766 O 1653.35 -0.512162 -1.89087 0
M  V30 17767 H 1651.93 -0.746424 -0.0293362 0
M  V30 17768 H 1654.6 -1.84338 0.632883 0
M  V30 17769 H 1653.69 -3.11351 -0.216057 0
M  V30 17770 N 1653.99 -0.213323 -1.5615 0
M  V30 17771 C 1655.4 0.29602 -1.84338 0
M  V30 17772 C 1655.76 1.60073 -1.13451 0
M  V30 17773 O 1654.88 2.12645 -0.4014 0
M  V30 17774 C 1655.48 0.54387 -3.34406 0
M  V30 17775 C 1654.03 0.997539 -3.62941 0
M  V30 17776 C 1653.18 0.0560823 -2.77243 0
M  V30 17777 H 1656.13 -0.436707 -1.52573 0
M  V30 17778 H 1656.15 1.39093 -3.54166 0
M  V30 17779 H 1655.67 -0.405885 -3.85972 0
M  V30 17780 H 1653.77 1.96094 -3.16825 0
M  V30 17781 H 1653.88 0.877642 -4.70993 0
M  V30 17782 H 1652.24 0.561362 -2.48437 0
M  V30 17783 H 1653.03 -0.888442 -3.31605 0
M  V30 17784 N 1655.47 1.57485 0.0601405 0
M  V30 17785 C 1656.72 1.86998 0.75595 0
M  V30 17786 C 1657.03 0.807616 1.78149 0
M  V30 17787 O 1658.24 0.99096 2.52769 0
M  V30 17788 C 1656.7 3.31746 1.39545 0
M  V30 17789 C 1656.3 4.46139 0.407874 0
M  V30 17790 C 1658.05 3.70445 2.07294 0
M  V30 17791 C 1655.96 5.81933 1.05395 0
M  V30 17792 H 1654.89 0.697619 0.286083 0
M  V30 17793 H 1657.54 1.83498 0.00948593 0
M  V30 17794 H 1655.92 3.29894 2.19057 0
M  V30 17795 H 1657.09 4.59405 -0.358281 0
M  V30 17796 H 1655.41 4.1607 -0.16581 0
M  V30 17797 H 1658 4.692 2.56428 0
M  V30 17798 H 1658.35 3.00839 2.87753 0
M  V30 17799 H 1658.88 3.74337 1.34598 0
M  V30 17800 H 1655.62 6.54861 0.289437 0
M  V30 17801 H 1655.14 5.72446 1.79068 0
M  V30 17802 H 1656.82 6.27652 1.5704 0
M  V30 17803 N 1656.95 -0.331789 1.54068 0
M  V30 17804 C 1658.18 -1.08886 1.75577 0
M  V30 17805 C 1658.59 -1.82462 0.50043 0
M  V30 17806 O 1657.93 -1.7564 -0.53816 0
M  V30 17807 C 1657.99 -2.13858 2.88972 0
M  V30 17808 C 1657.66 -1.59754 4.28168 0
M  V30 17809 C 1658.65 -1.04365 5.09317 0
M  V30 17810 C 1656.34 -1.64245 4.74688 0
M  V30 17811 C 1658.33 -0.541856 6.35093 0
M  V30 17812 C 1656.02 -1.13679 6.00433 0
M  V30 17813 C 1657.02 -0.587426 6.80469 0
M  V30 17814 O 1656.71 -0.0893367 8.0385 0
M  V30 17815 H 1656.44 -0.330075 0.589938 0
M  V30 17816 H 1658.99 -0.386127 2.01738 0
M  V30 17817 H 1657.22 -2.87724 2.58363 0
M  V30 17818 H 1658.91 -2.75223 2.98341 0
M  V30 17819 H 1659.68 -1.00208 4.74535 0
M  V30 17820 H 1655.56 -2.05945 4.12441 0
M  V30 17821 H 1659.1 -0.1124 6.97509 0
M  V30 17822 H 1655 -1.1754 6.34708 0
M  V30 17823 H 1655.77 -0.205529 8.18242 0
M  V30 17824 N 1658.43 -1.46001 -0.593424 0
M  V30 17825 C 1659.38 -1.56106 -1.72434 0
M  V30 17826 C 1660.37 -0.430155 -1.63848 0
M  V30 17827 O 1661.58 -0.606618 -1.6947 0
M  V30 17828 H 1657.95 -0.490601 -0.569925 0
M  V30 17829 H 1659.92 -2.51214 -1.6104 0
M  V30 17830 C 1658.67 -1.55836 -3.10822 0
M  V30 17831 H 1657.99 -2.42189 -3.18095 0
M  V30 17832 H 1659.43 -1.66962 -3.89743 0
M  V30 17833 C 1657.89 -0.285146 -3.35691 0
M  V30 17834 O 1658.42 0.629115 -3.96743 0
M  V30 17835 N 1656.63 -0.176401 -2.90064 0
M  V30 17836 H 1656.18 -0.921281 -2.40562 0
M  V30 17837 H 1656.13 0.674636 -3.07077 0
M  V30 17838 N 1659.91 0.83715 -1.33527 0
M  V30 17839 C 1660.86 1.93561 -1.20491 0
M  V30 17840 C 1661.84 1.60541 -0.107395 0
M  V30 17841 O 1663.03 1.73788 -0.335663 0
M  V30 17842 C 1660.16 3.2995 -0.948055 0
M  V30 17843 C 1659.25 3.69134 -2.08809 0
M  V30 17844 N 1659.64 3.79998 -3.33819 0
M  V30 17845 C 1657.94 3.98885 -1.99516 0
M  V30 17846 C 1658.64 4.14031 -4.08599 0
M  V30 17847 N 1657.61 4.26492 -3.37055 0
M  V30 17848 H 1661.42 2.00119 -2.15243 0
M  V30 17849 H 1658.93 1.02997 -1.2556 0
M  V30 17850 H 1660.93 4.0844 -0.835589 0
M  V30 17851 H 1659.59 3.24699 -0.00907808 0
M  V30 17852 H 1660.6 3.6386 -3.68546 0
M  V30 17853 H 1657.27 4.01836 -1.13289 0
M  V30 17854 H 1658.66 4.29759 -5.16485 0
M  V30 17855 N 1661.38 1.17024 1.05561 0
M  V30 17856 C 1662.8 0.916718 1.30646 0
M  V30 17857 C 1663 -0.426248 1.9694 0
M  V30 17858 O 1662.06 -1.16408 2.24065 0
M  V30 17859 C 1663.37 2.07126 2.17989 0
M  V30 17860 C 1664.92 2.10787 2.31383 0
M  V30 17861 C 1665.39 3.25616 3.22084 0
M  V30 17862 N 1666.88 3.25381 3.29669 0
M  V30 17863 C 1667.62 4.10873 3.99964 0
M  V30 17864 N 1667.11 5.06468 4.72718 0
M  V30 17865 N 1668.91 3.98835 3.9609 0
M  V30 17866 H 1661.06 2.03474 0.609284 0
M  V30 17867 H 1663.32 0.888247 0.331243 0
M  V30 17868 H 1663.03 3.04168 1.76564 0
M  V30 17869 H 1662.9 2.01912 3.18609 0
M  V30 17870 H 1665.29 1.14333 2.72051 0
M  V30 17871 H 1665.37 2.20064 1.30405 0
M  V30 17872 H 1665.01 4.22333 2.8213 0
M  V30 17873 H 1664.94 3.13575 4.23058 0
M  V30 17874 H 1667.43 2.56164 2.77828 0
M  V30 17875 H 1667.75 5.68105 5.23905 0
M  V30 17876 H 1666.09 5.10441 4.71673 0
M  V30 17877 H 1669.28 3.23451 3.38375 0
M  V30 17878 H 1669.46 4.65682 4.50604 0
M  V30 17879 N 1662.86 -1.24221 0.969889 0
M  V30 17880 C 1664.11 -1.92638 0.633913 0
M  V30 17881 C 1664.44 -1.75612 -0.829092 0
M  V30 17882 O 1663.72 -1.11057 -1.59677 0
M  V30 17883 C 1664 -3.45583 1.01213 0
M  V30 17884 C 1663.85 -3.71766 2.53199 0
M  V30 17885 C 1665.17 -4.36671 0.548294 0
M  V30 17886 H 1662.29 -0.699608 0.231772 0
M  V30 17887 H 1664.93 -1.46548 1.20929 0
M  V30 17888 H 1663.08 -3.8497 0.522531 0
M  V30 17889 H 1664.75 -3.41925 3.09653 0
M  V30 17890 H 1663 -3.16842 2.963 0
M  V30 17891 H 1663.67 -4.78787 2.74713 0
M  V30 17892 H 1666.14 -4.04672 0.968489 0
M  V30 17893 H 1665.02 -5.42412 0.841472 0
M  V30 17894 H 1665.28 -4.38646 -0.551588 0
M  V30 17895 N 1664.34 -0.740267 -1.39132 0
M  V30 17896 C 1665.25 -0.105452 -2.34363 0
M  V30 17897 C 1666.27 0.715908 -1.5859 0
M  V30 17898 O 1667.44 0.643155 -1.90855 0
M  V30 17899 C 1664.51 0.787141 -3.37646 0
M  V30 17900 C 1663.57 -0.047071 -4.29274 0
M  V30 17901 C 1662.8 0.803014 -5.27624 0
M  V30 17902 O 1663.02 2.04155 -5.32613 0
M  V30 17903 O 1661.96 0.228879 -6.01465 0
M  V30 17904 H 1665.78 -0.891588 -2.90318 0
M  V30 17905 H 1663.37 -0.500996 -1.40749 0
M  V30 17906 H 1665.25 1.29769 -4.00921 0
M  V30 17907 H 1663.93 1.552 -2.84068 0
M  V30 17908 H 1662.83 -0.603265 -3.69204 0
M  V30 17909 H 1664.17 -0.774273 -4.86072 0
M  V30 17910 N 1665.82 1.49844 -0.488302 0
M  V30 17911 C 1667.07 2.01603 0.0624744 0
M  V30 17912 C 1667.38 1.37397 1.39217 0
M  V30 17913 O 1668.59 1.8041 2.0289 0
M  V30 17914 C 1667.04 3.59536 0.161824 0
M  V30 17915 C 1666.65 4.32709 -1.16047 0
M  V30 17916 C 1668.39 4.1928 0.663642 0
M  V30 17917 C 1666.3 5.82468 -1.02397 0
M  V30 17918 H 1665.23 0.753512 0.0271222 0
M  V30 17919 H 1667.88 1.72499 -0.625805 0
M  V30 17920 H 1666.26 3.85301 0.914273 0
M  V30 17921 H 1667.44 4.18655 -1.92522 0
M  V30 17922 H 1665.75 3.84652 -1.59473 0
M  V30 17923 H 1668.35 5.28935 0.783069 0
M  V30 17924 H 1668.69 3.81801 1.65933 0
M  V30 17925 H 1669.23 3.97787 -0.0319078 0
M  V30 17926 H 1665.97 6.2445 -1.99355 0
M  V30 17927 H 1665.49 5.9905 -0.299902 0
M  V30 17928 H 1667.16 6.43229 -0.697538 0
M  V30 17929 N 1667.3 0.221601 1.56034 0
M  V30 17930 C 1668.52 -0.417979 2.03145 0
M  V30 17931 C 1668.95 -1.52556 1.10038 0
M  V30 17932 O 1668.3 -1.81084 0.0885729 0
M  V30 17933 C 1668.35 -0.926762 3.48487 0
M  V30 17934 O 1667.46 -2.03811 3.58518 0
M  V30 17935 H 1666.8 -0.0945778 0.65723 0
M  V30 17936 H 1669.33 0.340252 2.01751 0
M  V30 17937 H 1669.34 -1.23656 3.8881 0
M  V30 17938 H 1668.01 -0.116115 4.15738 0
M  V30 17939 H 1666.59 -1.73494 3.30082 0
M  V30 17940 N 1668.77 -1.57515 -0.0517878 0
M  V30 17941 C 1670.02 -1.87396 -0.746022 0
M  V30 17942 C 1670.34 -0.817053 -1.77718 0
M  V30 17943 O 1671.54 -1.00435 -2.5224 0
M  V30 17944 C 1670 -3.32481 -1.37783 0
M  V30 17945 C 1669.61 -4.46349 -0.384208 0
M  V30 17946 C 1671.35 -3.71539 -2.05327 0
M  V30 17947 C 1669.26 -5.82484 -1.02307 0
M  V30 17948 H 1668.19 -0.699127 -0.282379 0
M  V30 17949 H 1670.84 -1.835 0.000245524 0
M  V30 17950 H 1669.22 -3.31051 -2.17304 0
M  V30 17951 H 1670.39 -4.59209 0.382639 0
M  V30 17952 H 1668.71 -4.15976 0.187873 0
M  V30 17953 H 1671.31 -4.70553 -2.53936 0
M  V30 17954 H 1671.65 -3.02361 -2.86153 0
M  V30 17955 H 1672.18 -3.75046 -1.32611 0
M  V30 17956 H 1668.92 -6.55005 -0.254704 0
M  V30 17957 H 1668.44 -5.73388 -1.7603 0
M  V30 17958 H 1670.12 -6.28476 -1.5371 0
M  V30 17959 N 1670.25 0.323614 -1.54242 0
M  V30 17960 C 1671.5 1.06156 -1.72444 0
M  V30 17961 C 1671.83 1.88013 -0.498116 0
M  V30 17962 O 1671.08 1.88661 0.520133 0
M  V30 17963 C 1671.38 2.01452 -2.95215 0
M  V30 17964 C 1671.05 1.3575 -4.2998 0
M  V30 17965 C 1669.71 1.17563 -4.66618 0
M  V30 17966 C 1672.06 0.885938 -5.13615 0
M  V30 17967 C 1669.39 0.508674 -5.84491 0
M  V30 17968 C 1671.74 0.232807 -6.32171 0
M  V30 17969 C 1670.41 0.0387807 -6.67489 0
M  V30 17970 H 1669.68 0.388454 -0.631019 0
M  V30 17971 H 1672.32 0.338714 -1.88481 0
M  V30 17972 H 1670.63 2.80188 -2.73865 0
M  V30 17973 H 1672.33 2.5858 -3.06492 0
M  V30 17974 H 1668.92 1.50908 -4.01154 0
M  V30 17975 H 1673.1 1.01424 -4.85826 0
M  V30 17976 H 1668.36 0.347149 -6.10414 0
M  V30 17977 H 1672.53 -0.140594 -6.96258 0
M  V30 17978 H 1670.16 -0.480052 -7.58683 0
M  V30 17979 N 1671.73 1.46313 0.585673 0
M  V30 17980 C 1672.98 1.5147 1.34399 0
M  V30 17981 C 1673.31 0.165209 1.93797 0
M  V30 17982 O 1672.56 -0.838796 1.76813 0
M  V30 17983 C 1672.86 2.55895 2.49504 0
M  V30 17984 C 1672.53 3.99997 2.08118 0
M  V30 17985 C 1671.19 4.3923 1.96545 0
M  V30 17986 C 1673.54 4.90532 1.76147 0
M  V30 17987 C 1670.87 5.66867 1.51256 0
M  V30 17988 C 1673.22 6.18603 1.32338 0
M  V30 17989 C 1671.88 6.56745 1.1934 0
M  V30 17990 H 1671.15 0.554268 0.491801 0
M  V30 17991 H 1673.8 1.79774 0.659803 0
M  V30 17992 H 1672.11 2.21241 3.23357 0
M  V30 17993 H 1673.8 2.57116 3.07722 0
M  V30 17994 H 1670.39 3.68983 2.18058 0
M  V30 17995 H 1674.58 4.60942 1.83974 0
M  V30 17996 H 1669.83 5.95194 1.39834 0
M  V30 17997 H 1674.01 6.88185 1.06653 0
M  V30 17998 H 1671.63 7.55542 0.840228 0
M  V30 17999 N 1673.21 -0.830057 1.33969 0
M  V30 18000 C 1674.46 -1.58084 1.25269 0
M  V30 18001 C 1674.77 -1.94792 -0.177557 0
M  V30 18002 O 1675.98 -2.68733 -0.386657 0
M  V30 18003 C 1674.43 -2.85177 2.1955 0
M  V30 18004 C 1674.04 -2.55798 3.67792 0
M  V30 18005 C 1675.79 -3.632 2.19741 0
M  V30 18006 C 1673.69 -3.79041 4.53963 0
M  V30 18007 H 1672.62 -0.593289 0.465321 0
M  V30 18008 H 1675.27 -0.914476 1.5909 0
M  V30 18009 H 1673.66 -3.53401 1.78672 0
M  V30 18010 H 1674.83 -1.9573 4.17165 0
M  V30 18011 H 1673.14 -1.91064 3.69978 0
M  V30 18012 H 1675.74 -4.54695 2.81347 0
M  V30 18013 H 1676.08 -3.98786 1.1948 0
M  V30 18014 H 1676.62 -3.0191 2.59028 0
M  V30 18015 H 1673.36 -3.4858 5.55133 0
M  V30 18016 H 1672.88 -4.38417 4.09329 0
M  V30 18017 H 1674.56 -4.46527 4.68212 0
M  V30 18018 N 1674.69 -1.17582 -1.04939 0
M  V30 18019 C 1675.94 -0.960189 -1.77379 0
M  V30 18020 C 1676.25 0.512001 -1.8878 0
M  V30 18021 O 1677.46 0.845912 -2.57986 0
M  V30 18022 C 1675.91 -1.66882 -3.18871 0
M  V30 18023 C 1675.52 -3.17972 -3.15591 0
M  V30 18024 C 1677.26 -1.53567 -3.95749 0
M  V30 18025 C 1675.17 -3.81513 -4.51887 0
M  V30 18026 H 1674.1 -0.35562 -0.664869 0
M  V30 18027 H 1676.75 -1.40863 -1.17601 0
M  V30 18028 H 1675.13 -1.14813 -3.78991 0
M  V30 18029 H 1676.31 -3.76995 -2.64974 0
M  V30 18030 H 1674.62 -3.31328 -2.52212 0
M  V30 18031 H 1677.22 -1.98408 -4.96526 0
M  V30 18032 H 1677.56 -0.486603 -4.13446 0
M  V30 18033 H 1678.1 -2.02868 -3.42183 0
M  V30 18034 H 1674.83 -4.86428 -4.39395 0
M  V30 18035 H 1674.35 -3.27276 -5.02643 0
M  V30 18036 H 1676.03 -3.83867 -5.20822 0
M  V30 18037 N 1676.17 1.23705 -0.976463 0
M  V30 18038 C 1677.4 1.95771 -0.660107 0
M  V30 18039 C 1677.8 1.72541 0.776297 0
M  V30 18040 O 1677.15 1.01134 1.53355 0
M  V30 18041 C 1677.21 3.4892 -0.865752 0
M  V30 18042 C 1676.87 3.95862 -2.28347 0
M  V30 18043 C 1677.87 4.04844 -3.26186 0
M  V30 18044 C 1675.55 4.28953 -2.61351 0
M  V30 18045 C 1677.55 4.46265 -4.55111 0
M  V30 18046 C 1675.24 4.70057 -3.905 0
M  V30 18047 C 1676.23 4.78679 -4.87192 0
M  V30 18048 O 1675.92 5.1886 -6.14035 0
M  V30 18049 H 1675.65 0.630202 -0.244585 0
M  V30 18050 H 1678.21 1.58255 -1.30937 0
M  V30 18051 H 1676.44 3.86372 -0.159321 0
M  V30 18052 H 1678.13 4.02195 -0.547154 0
M  V30 18053 H 1678.89 3.79486 -3.02018 0
M  V30 18054 H 1674.77 4.21456 -1.86803 0
M  V30 18055 H 1678.32 4.5291 -5.30583 0
M  V30 18056 H 1674.21 4.94863 -4.14464 0
M  V30 18057 H 1674.98 5.36984 -6.1773 0
M  V30 18058 N 1677.64 0.747635 1.38738 0
M  V30 18059 C 1678.89 0.297962 1.99487 0
M  V30 18060 C 1679.21 -1.1249 1.60016 0
M  V30 18061 O 1680.41 -1.67474 2.13693 0
M  V30 18062 C 1678.87 0.48178 3.56661 0
M  V30 18063 C 1678.48 1.91335 4.05086 0
M  V30 18064 C 1680.22 0.0945202 4.24395 0
M  V30 18065 C 1678.13 2.04604 5.54879 0
M  V30 18066 H 1677.06 0.107655 0.746275 0
M  V30 18067 H 1679.71 0.923325 1.58578 0
M  V30 18068 H 1678.09 -0.212676 3.95428 0
M  V30 18069 H 1679.26 2.64079 3.77623 0
M  V30 18070 H 1677.58 2.25497 3.50057 0
M  V30 18071 H 1680.18 0.172508 5.34422 0
M  V30 18072 H 1680.52 -0.952037 4.05268 0
M  V30 18073 H 1681.05 0.740606 3.90845 0
M  V30 18074 H 1677.79 3.07493 5.78903 0
M  V30 18075 H 1677.31 1.36313 5.84105 0
M  V30 18076 H 1678.99 1.83317 6.20487 0
M  V30 18077 N 1679.12 -1.49583 0.496242 0
M  V30 18078 C 1680.37 -2.01634 -0.051782 0
M  V30 18079 C 1680.68 -1.38133 -1.38487 0
M  V30 18080 O 1681.89 -1.81484 -2.0193 0
M  V30 18081 C 1680.35 -3.59617 -0.142755 0
M  V30 18082 C 1679.95 -4.32088 1.1834 0
M  V30 18083 C 1681.7 -4.19626 -0.641397 0
M  V30 18084 C 1679.6 -5.81917 1.05485 0
M  V30 18085 H 1678.53 -0.753645 -0.0231258 0
M  V30 18086 H 1681.19 -1.72165 0.634944 0
M  V30 18087 H 1679.57 -3.85781 -0.893826 0
M  V30 18088 H 1680.74 -4.17628 1.94739 0
M  V30 18089 H 1679.06 -3.83801 1.61511 0
M  V30 18090 H 1681.65 -5.29343 -0.755008 0
M  V30 18091 H 1682 -3.82676 -1.63906 0
M  V30 18092 H 1682.53 -3.97765 0.053003 0
M  V30 18093 H 1679.27 -6.23384 2.02664 0
M  V30 18094 H 1678.79 -5.98882 0.331667 0
M  V30 18095 H 1680.47 -6.4285 0.731641 0
M  V30 18096 N 1680.6 -0.229873 -1.55915 0
M  V30 18097 C 1681.85 0.399963 -1.97695 0
M  V30 18098 C 1682.16 1.60303 -1.12081 0
M  V30 18099 O 1683.37 2.30292 -1.43797 0
M  V30 18100 C 1681.82 0.762982 -3.51719 0
M  V30 18101 C 1681.43 -0.417738 -4.46048 0
M  V30 18102 C 1683.18 1.35796 -4.02194 0
M  V30 18103 C 1681.08 -0.0318216 -5.91391 0
M  V30 18104 H 1680.01 0.153209 -0.73827 0
M  V30 18105 H 1682.66 -0.327401 -1.80556 0
M  V30 18106 H 1681.05 1.548 -3.6449 0
M  V30 18107 H 1682.22 -1.19523 -4.45029 0
M  V30 18108 H 1680.53 -0.926501 -4.05962 0
M  V30 18109 H 1683.13 1.65974 -5.08288 0
M  V30 18110 H 1683.47 2.27661 -3.48534 0
M  V30 18111 H 1684.01 0.6362 -3.9268 0
M  V30 18112 H 1680.75 -0.917176 -6.49052 0
M  V30 18113 H 1680.27 0.709811 -5.95585 0
M  V30 18114 H 1681.95 0.391966 -6.45812 0
M  V30 18115 N 1682.08 1.5754 0.0434337 0
M  V30 18116 C 1683.32 1.88887 0.7382 0
M  V30 18117 C 1683.66 0.825827 1.75766 0
M  V30 18118 O 1682.93 -0.160797 1.93834 0
M  V30 18119 C 1683.21 3.30889 1.42072 0
M  V30 18120 C 1683.07 4.47874 0.415754 0
M  V30 18121 C 1684.39 3.71571 2.35846 0
M  V30 18122 H 1681.51 0.686975 0.266897 0
M  V30 18123 H 1684.15 1.9 0.00106957 0
M  V30 18124 H 1682.3 3.30071 2.04903 0
M  V30 18125 H 1683.97 4.60824 -0.209529 0
M  V30 18126 H 1682.21 4.32982 -0.266346 0
M  V30 18127 H 1682.88 5.44084 0.931509 0
M  V30 18128 H 1685.36 3.73663 1.83071 0
M  V30 18129 H 1684.24 4.71763 2.80589 0
M  V30 18130 H 1684.5 3.03041 3.21898 0
M  V30 18131 N 1683.56 -0.31543 1.54411 0
M  V30 18132 C 1684.52 -1.37154 1.83634 0
M  V30 18133 C 1685.52 -1.44349 0.708518 0
M  V30 18134 O 1686.71 -1.44235 0.976824 0
M  V30 18135 C 1683.84 -2.758 2.00368 0
M  V30 18136 H 1685.03 -1.12493 2.78002 0
M  V30 18137 H 1682.59 -0.551346 1.46253 0
M  V30 18138 H 1683.32 -3.05704 1.08238 0
M  V30 18139 H 1683.11 -2.7197 2.82445 0
M  V30 18140 H 1684.6 -3.52187 2.24397 0
M  V30 18141 N 1685.03 -1.46622 -0.577906 0
M  V30 18142 C 1686.28 -1.52181 -1.33594 0
M  V30 18143 C 1686.61 -0.175484 -1.93707 0
M  V30 18144 O 1685.86 0.829407 -1.77255 0
M  V30 18145 C 1686.16 -2.57215 -2.48144 0
M  V30 18146 C 1685.83 -4.01095 -2.05993 0
M  V30 18147 C 1684.49 -4.40267 -1.94213 0
M  V30 18148 C 1686.84 -4.91459 -1.73543 0
M  V30 18149 C 1684.17 -5.67661 -1.48248 0
M  V30 18150 C 1686.52 -6.19296 -1.29055 0
M  V30 18151 C 1685.19 -6.57369 -1.15856 0
M  V30 18152 H 1684.46 -0.556868 -0.488855 0
M  V30 18153 H 1687.1 -1.80122 -0.65026 0
M  V30 18154 H 1685.41 -2.22952 -3.22179 0
M  V30 18155 H 1687.11 -2.58744 -3.06354 0
M  V30 18156 H 1683.7 -3.70134 -2.16098 0
M  V30 18157 H 1687.88 -4.61911 -1.81527 0
M  V30 18158 H 1683.14 -5.95928 -1.36676 0
M  V30 18159 H 1687.31 -6.88741 -1.03001 0
M  V30 18160 H 1684.94 -7.55977 -0.800148 0
M  V30 18161 N 1686.51 0.822941 -1.34408 0
M  V30 18162 C 1687.76 1.57916 -1.26763 0
M  V30 18163 C 1688.09 1.93821 0.162408 0
M  V30 18164 O 1687.34 1.60226 1.12366 0
M  V30 18165 C 1687.64 2.88915 -2.10388 0
M  V30 18166 C 1687.31 2.72302 -3.59392 0
M  V30 18167 C 1685.97 2.67479 -4.00011 0
M  V30 18168 C 1688.32 2.5598 -4.54008 0
M  V30 18169 C 1685.65 2.44255 -5.33438 0
M  V30 18170 C 1688 2.34288 -5.87615 0
M  V30 18171 C 1686.67 2.27877 -6.27398 0
M  V30 18172 H 1685.94 0.577854 -0.46386 0
M  V30 18173 H 1688.58 0.95218 -1.6615 0
M  V30 18174 H 1686.89 3.55903 -1.63829 0
M  V30 18175 H 1688.58 3.46511 -2.01819 0
M  V30 18176 H 1685.17 2.76896 -3.27149 0
M  V30 18177 H 1689.36 2.5873 -4.23524 0
M  V30 18178 H 1684.61 2.37749 -5.63281 0
M  V30 18179 H 1688.79 2.20646 -6.60521 0
M  V30 18180 H 1686.42 2.09643 -7.30722 0
M  V30 18181 N 1687.99 1.18137 1.04314 0
M  V30 18182 C 1688.92 0.849531 2.11798 0
M  V30 18183 C 1689.9 -0.187452 1.61516 0
M  V30 18184 O 1691.09 -0.0669812 1.88381 0
M  V30 18185 C 1688.21 0.268844 3.37631 0
M  V30 18186 C 1687.26 1.28262 4.06757 0
M  V30 18187 S 1688.09 2.83751 4.54143 0
M  V30 18188 C 1689.25 2.27186 5.83213 0
M  V30 18189 H 1689.48 1.75983 2.39619 0
M  V30 18190 H 1687.01 1.00697 1.17045 0
M  V30 18191 H 1688.97 -0.0596899 4.10457 0
M  V30 18192 H 1687.63 -0.619529 3.0793 0
M  V30 18193 H 1686.83 0.825141 4.972 0
M  V30 18194 H 1686.43 1.55726 3.40038 0
M  V30 18195 H 1688.72 1.6529 6.57028 0
M  V30 18196 H 1689.66 3.15919 6.3372 0
M  V30 18197 H 1690.07 1.70301 5.38199 0
M  V30 18198 N 1689.47 -1.23186 0.98301 0
M  V30 18199 C 1690.4 -2.23304 0.470158 0
M  V30 18200 C 1691.38 -1.55834 -0.464156 0
M  V30 18201 O 1692.56 -1.84379 -0.391997 0
M  V30 18202 C 1689.69 -3.37189 -0.319545 0
M  V30 18203 C 1688.74 -4.22817 0.559296 0
M  V30 18204 S 1689.57 -4.96398 2.00871 0
M  V30 18205 C 1690.73 -6.13731 1.22822 0
M  V30 18206 H 1690.96 -2.6646 1.31857 0
M  V30 18207 H 1688.49 -1.32706 0.789206 0
M  V30 18208 H 1690.45 -4.0323 -0.769158 0
M  V30 18209 H 1689.11 -2.92561 -1.14311 0
M  V30 18210 H 1688.3 -5.03977 -0.0478035 0
M  V30 18211 H 1687.91 -3.61857 0.945262 0
M  V30 18212 H 1690.2 -6.75719 0.490859 0
M  V30 18213 H 1691.14 -6.78832 2.01475 0
M  V30 18214 H 1691.55 -5.59551 0.74586 0
M  V30 18215 N 1690.95 -0.754982 -1.38339 0
M  V30 18216 C 1691.89 -0.117579 -2.32303 0
M  V30 18217 C 1692.89 0.703759 -1.5409 0
M  V30 18218 O 1694.09 0.602701 -1.6961 0
M  V30 18219 H 1690.47 -0.0192276 -0.751754 0
M  V30 18220 H 1692.44 -0.926113 -2.83665 0
M  V30 18221 C 1691.19 0.760239 -3.39287 0
M  V30 18222 H 1690.51 0.137619 -3.99563 0
M  V30 18223 H 1691.95 1.17349 -4.07437 0
M  V30 18224 C 1690.41 1.90347 -2.77974 0
M  V30 18225 O 1690.94 2.99773 -2.67393 0
M  V30 18226 N 1689.15 1.69895 -2.35763 0
M  V30 18227 H 1688.69 0.808926 -2.44569 0
M  V30 18228 H 1688.65 2.46557 -1.95082 0
M  V30 18229 N 1692.42 1.49318 -0.504168 0
M  V30 18230 C 1693.67 2.01658 0.0410881 0
M  V30 18231 C 1693.99 1.38866 1.37752 0
M  V30 18232 O 1695.19 1.82552 2.00965 0
M  V30 18233 C 1693.65 3.59687 0.123682 0
M  V30 18234 C 1693.26 4.31454 -1.2063 0
M  V30 18235 C 1695 4.19961 0.619134 0
M  V30 18236 C 1692.91 5.81349 -1.0857 0
M  V30 18237 H 1691.84 0.753757 0.0191287 0
M  V30 18238 H 1694.49 1.71826 -0.644066 0
M  V30 18239 H 1692.87 3.86249 0.873355 0
M  V30 18240 H 1694.04 4.1659 -1.96951 0
M  V30 18241 H 1692.36 3.82939 -1.63544 0
M  V30 18242 H 1694.96 5.29736 0.726925 0
M  V30 18243 H 1695.3 3.83539 1.61874 0
M  V30 18244 H 1695.83 3.97731 -0.0740966 0
M  V30 18245 H 1692.57 6.22301 -2.05967 0
M  V30 18246 H 1692.09 5.98698 -0.363422 0
M  V30 18247 H 1693.77 6.42453 -0.765722 0
M  V30 18248 N 1693.9 0.238138 1.5579 0
M  V30 18249 C 1695.15 -0.389031 1.98728 0
M  V30 18250 C 1695.48 -1.58584 1.12612 0
M  V30 18251 O 1694.73 -1.94917 0.174879 0
M  V30 18252 C 1695.03 -0.850646 3.47129 0
M  V30 18253 C 1694.7 0.237442 4.50274 0
M  V30 18254 C 1693.36 0.536307 4.78202 0
M  V30 18255 C 1695.71 0.972476 5.12047 0
M  V30 18256 C 1693.04 1.57443 5.6518 0
M  V30 18257 C 1695.39 2.00006 6.0015 0
M  V30 18258 C 1694.06 2.30566 6.26415 0
M  V30 18259 H 1693.33 -0.142357 0.727197 0
M  V30 18260 H 1695.97 0.34413 1.88383 0
M  V30 18261 H 1694.28 -1.66286 3.54762 0
M  V30 18262 H 1695.97 -1.34604 3.77734 0
M  V30 18263 H 1692.56 -0.00564033 4.286 0
M  V30 18264 H 1696.75 0.75483 4.90526 0
M  V30 18265 H 1692 1.81664 5.83788 0
M  V30 18266 H 1696.18 2.57458 6.47061 0
M  V30 18267 H 1693.81 3.11148 6.93607 0
M  V30 18268 N 1695.38 -1.57561 -0.0350783 0
M  V30 18269 C 1696.63 -1.89276 -0.728172 0
M  V30 18270 C 1696.96 -0.835137 -1.75326 0
M  V30 18271 O 1696.23 0.150516 -1.93917 0
M  V30 18272 C 1696.52 -3.31638 -1.40316 0
M  V30 18273 C 1696.37 -4.48089 -0.391996 0
M  V30 18274 C 1697.69 -3.72816 -2.33872 0
M  V30 18275 H 1694.81 -0.688381 -0.26325 0
M  V30 18276 H 1697.45 -1.89998 0.00900661 0
M  V30 18277 H 1695.6 -3.31153 -2.0315 0
M  V30 18278 H 1697.27 -4.60706 0.233965 0
M  V30 18279 H 1695.52 -4.32834 0.289305 0
M  V30 18280 H 1696.19 -5.4457 -0.902641 0
M  V30 18281 H 1698.66 -3.74629 -1.81086 0
M  V30 18282 H 1697.54 -4.73245 -2.78084 0
M  V30 18283 H 1697.8 -3.04744 -3.20287 0
M  V30 18284 N 1696.86 0.307236 -1.54576 0
M  V30 18285 C 1698.11 1.04115 -1.73218 0
M  V30 18286 C 1698.43 1.88008 -0.517482 0
M  V30 18287 O 1697.7 1.90219 0.468336 0
M  V30 18288 H 1696.28 0.387388 -0.638701 0
M  V30 18289 H 1698.94 0.339727 -1.91916 0
M  V30 18290 H 1698.04 1.69784 -2.61877 0
M  V30 18291 N 1698.34 1.46926 0.570122 0
M  V30 18292 C 1699.58 1.52887 1.32785 0
M  V30 18293 C 1699.91 0.185754 1.93611 0
M  V30 18294 O 1699.17 -0.819995 1.77692 0
M  V30 18295 C 1699.47 2.58527 2.46776 0
M  V30 18296 C 1699.13 4.02182 2.03863 0
M  V30 18297 C 1697.79 4.4129 1.91876 0
M  V30 18298 C 1700.15 4.92373 1.70935 0
M  V30 18299 C 1697.47 5.6844 1.45235 0
M  V30 18300 C 1699.83 6.19972 1.25769 0
M  V30 18301 C 1698.49 6.57974 1.12368 0
M  V30 18302 H 1697.76 0.559453 0.485895 0
M  V30 18303 H 1700.41 1.80464 0.640698 0
M  V30 18304 H 1698.71 2.24658 3.20992 0
M  V30 18305 H 1700.41 2.60365 3.04977 0
M  V30 18306 H 1697 3.71275 2.14132 0
M  V30 18307 H 1701.18 4.62867 1.79075 0
M  V30 18308 H 1696.44 5.96644 1.33513 0
M  V30 18309 H 1700.61 6.89277 0.993475 0
M  V30 18310 H 1698.24 7.56391 0.760046 0
M  V30 18311 N 1699.82 -0.815801 1.34842 0
M  V30 18312 C 1701.06 -1.57474 1.27788 0
M  V30 18313 C 1701.39 -1.9362 -0.149956 0
M  V30 18314 O 1700.67 -1.60605 -1.0971 0
M  V30 18315 C 1700.95 -2.86952 2.17556 0
M  V30 18316 C 1700.81 -2.5734 3.68912 0
M  V30 18317 C 1702.12 -3.88582 2.0662 0
M  V30 18318 H 1699.24 -0.57135 0.465541 0
M  V30 18319 H 1701.89 -0.939271 1.6516 0
M  V30 18320 H 1700.04 -3.41182 1.85815 0
M  V30 18321 H 1701.71 -2.09365 4.11052 0
M  V30 18322 H 1699.95 -1.90674 3.89648 0
M  V30 18323 H 1700.62 -3.49702 4.27098 0
M  V30 18324 H 1703.1 -3.43726 2.34503 0
M  V30 18325 H 1701.97 -4.7697 2.71644 0
M  V30 18326 H 1702.23 -4.29564 1.04532 0
M  V30 18327 N 1701.29 -1.18689 -1.03686 0
M  V30 18328 C 1702.54 -0.978948 -1.7635 0
M  V30 18329 C 1702.86 0.49195 -1.89312 0
M  V30 18330 O 1704.06 0.818501 -2.58868 0
M  V30 18331 C 1702.52 -1.70255 -3.17083 0
M  V30 18332 C 1702.13 -3.21301 -3.12201 0
M  V30 18333 C 1703.87 -1.57756 -3.94098 0
M  V30 18334 C 1701.78 -3.86284 -4.47815 0
M  V30 18335 H 1700.71 -0.362652 -0.661059 0
M  V30 18336 H 1703.36 -1.42102 -1.161 0
M  V30 18337 H 1701.74 -1.18826 -3.77752 0
M  V30 18338 H 1702.91 -3.79785 -2.6096 0
M  V30 18339 H 1701.23 -3.33984 -2.48684 0
M  V30 18340 H 1703.83 -2.03664 -4.94394 0
M  V30 18341 H 1704.17 -0.530427 -4.12907 0
M  V30 18342 H 1704.7 -2.06486 -3.40012 0
M  V30 18343 H 1701.44 -4.91061 -4.34211 0
M  V30 18344 H 1700.96 -3.32589 -4.99144 0
M  V30 18345 H 1702.64 -3.89369 -5.16721 0
M  V30 18346 N 1702.77 1.22662 -0.989529 0
M  V30 18347 C 1704.02 1.91605 -0.66448 0
M  V30 18348 C 1704.35 1.76909 0.801048 0
M  V30 18349 O 1703.63 1.13583 1.5789 0
M  V30 18350 C 1703.91 3.43929 -1.06698 0
M  V30 18351 C 1703.76 3.67691 -2.59082 0
M  V30 18352 C 1705.08 4.35744 -0.617695 0
M  V30 18353 H 1702.2 0.695832 -0.242872 0
M  V30 18354 H 1704.84 1.44605 -1.23245 0
M  V30 18355 H 1702.99 3.8409 -0.58371 0
M  V30 18356 H 1704.66 3.36956 -3.15053 0
M  V30 18357 H 1702.91 3.12088 -3.01303 0
M  V30 18358 H 1703.58 4.74356 -2.82295 0
M  V30 18359 H 1706.05 4.0308 -1.03275 0
M  V30 18360 H 1704.93 5.41004 -0.927659 0
M  V30 18361 H 1705.19 4.39468 0.481734 0
M  V30 18362 N 1704.25 0.762308 1.37937 0
M  V30 18363 C 1705.48 0.333458 2.04195 0
M  V30 18364 C 1705.89 -1.04118 1.57496 0
M  V30 18365 O 1705.25 -1.66289 0.751938 0
M  V30 18366 C 1705.3 0.35685 3.59734 0
M  V30 18367 O 1705.02 1.67725 4.04722 0
M  V30 18368 C 1706.52 -0.0847776 4.43219 0
M  V30 18369 H 1703.74 0.141107 0.655995 0
M  V30 18370 H 1706.29 1.03359 1.76457 0
M  V30 18371 H 1704.44 -0.294625 3.86278 0
M  V30 18372 H 1704.86 1.60939 4.99198 0
M  V30 18373 H 1706.33 -0.017252 5.51997 0
M  V30 18374 H 1706.81 -1.13387 4.24311 0
M  V30 18375 H 1707.41 0.538151 4.21882 0
M  V30 18376 N 1705.73 -1.49049 0.51208 0
M  V30 18377 C 1706.97 -2.0248 -0.0284889 0
M  V30 18378 C 1707.3 -1.39082 -1.35965 0
M  V30 18379 O 1706.56 -0.519593 -1.88676 0
M  V30 18380 C 1706.86 -3.56734 -0.218125 0
M  V30 18381 C 1706.52 -4.38827 1.03643 0
M  V30 18382 C 1705.18 -4.60979 1.38029 0
M  V30 18383 C 1707.54 -4.86505 1.86982 0
M  V30 18384 C 1704.86 -5.28055 2.55686 0
M  V30 18385 C 1707.22 -5.54876 3.03801 0
M  V30 18386 C 1705.88 -5.75271 3.38555 0
M  V30 18387 H 1705.15 -0.740927 -0.0104248 0
M  V30 18388 H 1707.8 -1.79229 0.674481 0
M  V30 18389 H 1706.1 -3.78725 -1.00372 0
M  V30 18390 H 1707.8 -3.9568 -0.651013 0
M  V30 18391 H 1704.39 -4.21833 0.758594 0
M  V30 18392 H 1708.57 -4.69209 1.61729 0
M  V30 18393 H 1703.83 -5.42046 2.82837 0
M  V30 18394 H 1708 -5.90793 3.68696 0
M  V30 18395 H 1705.63 -6.2702 4.29825 0
M  V30 18396 N 1707.21 -0.246397 -1.55662 0
M  V30 18397 C 1708.14 0.686113 -2.1869 0
M  V30 18398 C 1709.15 1.13915 -1.16306 0
M  V30 18399 O 1710.34 1.06601 -1.43173 0
M  V30 18400 C 1707.44 1.94426 -2.77582 0
M  V30 18401 C 1706.61 1.64275 -4.0538 0
M  V30 18402 C 1705.67 2.75044 -4.48595 0
M  V30 18403 O 1704.7 2.42451 -5.14982 0
M  V30 18404 N 1705.9 4.04528 -4.16338 0
M  V30 18405 H 1708.66 0.146832 -2.9934 0
M  V30 18406 H 1706.23 -0.0663398 -1.61764 0
M  V30 18407 H 1708.22 2.67768 -3.0345 0
M  V30 18408 H 1706.79 2.39334 -2.01091 0
M  V30 18409 H 1706.01 0.744531 -3.87105 0
M  V30 18410 H 1707.3 1.41594 -4.88701 0
M  V30 18411 H 1706.69 4.33841 -3.6304 0
M  V30 18412 H 1705.25 4.74337 -4.47043 0
M  V30 18413 N 1708.68 1.57577 0.026722 0
M  V30 18414 C 1709.59 2.10114 1.04351 0
M  V30 18415 C 1710.61 1.04029 1.39477 0
M  V30 18416 O 1711.79 1.35778 1.48749 0
M  V30 18417 C 1708.85 2.57203 2.32481 0
M  V30 18418 C 1707.91 3.77779 2.03915 0
M  V30 18419 C 1707.14 4.22613 3.25936 0
M  V30 18420 O 1707.37 3.66955 4.36692 0
M  V30 18421 O 1706.3 5.15026 3.11499 0
M  V30 18422 H 1710.13 2.97157 0.627021 0
M  V30 18423 H 1707.71 1.47396 0.243855 0
M  V30 18424 H 1709.59 2.87809 3.07805 0
M  V30 18425 H 1708.27 1.7327 2.73421 0
M  V30 18426 H 1707.18 3.52188 1.26152 0
M  V30 18427 H 1708.51 4.62703 1.67829 0
M  V30 18428 N 1710.16 -0.299034 1.54737 0
M  V30 18429 C 1711.09 -1.39055 1.82199 0
M  V30 18430 C 1712.11 -1.46741 0.705038 0
M  V30 18431 O 1713.3 -1.49025 0.982543 0
M  V30 18432 C 1710.4 -2.7741 1.94671 0
M  V30 18433 C 1709.57 -2.92633 3.25092 0
M  V30 18434 C 1708.63 -4.11499 3.27956 0
M  V30 18435 O 1707.65 -4.03491 4.01477 0
M  V30 18436 N 1708.86 -5.2223 2.53488 0
M  V30 18437 H 1711.62 -1.15852 2.76402 0
M  V30 18438 H 1709.18 -0.489108 1.54335 0
M  V30 18439 H 1711.17 -3.55178 1.93987 0
M  V30 18440 H 1709.74 -2.93552 1.07453 0
M  V30 18441 H 1708.96 -2.01962 3.38534 0
M  V30 18442 H 1710.25 -2.99716 4.11154 0
M  V30 18443 H 1709.65 -5.31617 1.93391 0
M  V30 18444 H 1708.21 -5.98325 2.58555 0
M  V30 18445 N 1711.64 -1.47227 -0.562322 0
M  V30 18446 C 1712.89 -1.53286 -1.31712 0
M  V30 18447 C 1713.21 -0.194583 -1.94027 0
M  V30 18448 O 1712.48 0.780961 -1.7966 0
M  V30 18449 H 1711.06 -0.564621 -0.489094 0
M  V30 18450 H 1713.72 -1.83492 -0.657024 0
M  V30 18451 H 1712.82 -2.29665 -2.1133 0
M  V30 18452 N 1713.12 0.808639 -1.35273 0
M  V30 18453 C 1714.03 1.95198 -1.30134 0
M  V30 18454 C 1715.04 1.72769 -0.206587 0
M  V30 18455 O 1716.22 1.96633 -0.4356 0
M  V30 18456 C 1713.28 3.29747 -1.07087 0
M  V30 18457 C 1712.35 3.65086 -2.25855 0
M  V30 18458 C 1711.58 4.93215 -2.03898 0
M  V30 18459 O 1711.8 5.61487 -1.00439 0
M  V30 18460 O 1710.74 5.26765 -2.91208 0
M  V30 18461 H 1714.56 2.0248 -2.26353 0
M  V30 18462 H 1712.15 0.946124 -1.15624 0
M  V30 18463 H 1714.03 4.10302 -0.960734 0
M  V30 18464 H 1712.7 3.23401 -0.139177 0
M  V30 18465 H 1711.61 2.84917 -2.42432 0
M  V30 18466 H 1712.94 3.76135 -3.17464 0
M  V30 18467 N 1714.6 1.19237 1.03055 0
M  V30 18468 C 1715.54 0.928588 2.11296 0
M  V30 18469 C 1716.51 -0.135941 1.65543 0
M  V30 18470 O 1717.7 0.00584847 1.90799 0
M  V30 18471 C 1714.84 0.471532 3.41863 0
M  V30 18472 C 1713.95 1.60264 4.01173 0
M  V30 18473 C 1713.09 1.09729 5.19743 0
M  V30 18474 C 1712.13 2.2024 5.71105 0
M  V30 18475 N 1711.26 1.71024 6.80952 0
M  V30 18476 H 1716.1 1.85536 2.33196 0
M  V30 18477 H 1713.64 0.925029 1.14375 0
M  V30 18478 H 1715.6 0.187949 4.16776 0
M  V30 18479 H 1714.23 -0.41825 3.20079 0
M  V30 18480 H 1713.28 2.00147 3.23489 0
M  V30 18481 H 1714.59 2.43531 4.35309 0
M  V30 18482 H 1713.75 0.768832 6.01809 0
M  V30 18483 H 1712.48 0.234324 4.87137 0
M  V30 18484 H 1711.49 2.53918 4.87653 0
M  V30 18485 H 1712.71 3.06989 6.05751 0
M  V30 18486 H 1710.66 0.870334 6.50201 0
M  V30 18487 H 1710.58 2.47882 7.14206 0
M  V30 18488 H 1711.85 1.41137 7.66616 0
M  V30 18489 N 1716.07 -1.22136 0.99602 0
M  V30 18490 C 1716.98 -2.27869 0.557927 0
M  V30 18491 C 1718 -1.69462 -0.394781 0
M  V30 18492 O 1719.18 -1.99704 -0.26084 0
M  V30 18493 C 1716.24 -3.46501 -0.117434 0
M  V30 18494 C 1715.3 -4.20213 0.878627 0
M  V30 18495 C 1714.54 -5.33181 0.2354 0
M  V30 18496 O 1714.76 -5.62093 -0.969954 0
M  V30 18497 O 1713.69 -5.94486 0.941828 0
M  V30 18498 H 1717.52 -2.67517 1.43765 0
M  V30 18499 H 1715.1 -1.28362 0.764428 0
M  V30 18500 H 1716.99 -4.18476 -0.49559 0
M  V30 18501 H 1715.66 -3.08772 -0.971674 0
M  V30 18502 H 1714.57 -3.50497 1.30777 0
M  V30 18503 H 1715.9 -4.6183 1.70217 0
M  V30 18504 N 1717.55 -0.769612 -1.37531 0
M  V30 18505 C 1718.78 -0.343783 -2.0372 0
M  V30 18506 C 1719.19 1.03816 -1.58173 0
M  V30 18507 O 1718.53 1.6736 -0.75739 0
M  V30 18508 C 1718.6 -0.305844 -3.58197 0
M  V30 18509 C 1718.26 -1.63202 -4.26866 0
M  V30 18510 C 1719.26 -2.58408 -4.51133 0
M  V30 18511 C 1716.94 -1.90587 -4.64739 0
M  V30 18512 C 1718.94 -3.79208 -5.12328 0
M  V30 18513 C 1716.62 -3.11657 -5.25655 0
M  V30 18514 C 1717.62 -4.05788 -5.49386 0
M  V30 18515 O 1717.31 -5.24727 -6.09029 0
M  V30 18516 H 1717.04 -0.142358 -0.66084 0
M  V30 18517 H 1719.59 -1.04399 -1.7689 0
M  V30 18518 H 1717.82 0.450724 -3.84064 0
M  V30 18519 H 1719.51 0.0926269 -4.05794 0
M  V30 18520 H 1720.28 -2.38532 -4.22288 0
M  V30 18521 H 1716.16 -1.18148 -4.45603 0
M  V30 18522 H 1719.7 -4.52694 -5.30767 0
M  V30 18523 H 1715.6 -3.3142 -5.53924 0
M  V30 18524 H 1716.37 -5.25523 -6.27509 0
M  V30 18525 N 1719.03 1.48775 -0.519977 0
M  V30 18526 C 1719.98 2.29461 0.248242 0
M  V30 18527 C 1720.95 1.36734 0.943027 0
M  V30 18528 O 1722.13 1.65697 0.946003 0
M  V30 18529 C 1719.27 3.19868 1.29531 0
M  V30 18530 C 1718.39 4.27666 0.610379 0
M  V30 18531 C 1717.52 5.05266 1.63951 0
M  V30 18532 C 1716.56 6.04878 0.937496 0
M  V30 18533 N 1715.7 6.75573 1.91171 0
M  V30 18534 H 1720.54 2.94643 -0.446016 0
M  V30 18535 H 1718.07 1.45262 -0.231792 0
M  V30 18536 H 1720.03 3.70675 1.91456 0
M  V30 18537 H 1718.66 2.5663 1.95808 0
M  V30 18538 H 1717.71 3.80202 -0.122598 0
M  V30 18539 H 1719.03 4.98765 0.0586864 0
M  V30 18540 H 1718.18 5.60037 2.33332 0
M  V30 18541 H 1716.92 4.33983 2.22509 0
M  V30 18542 H 1715.92 5.49321 0.229562 0
M  V30 18543 H 1717.15 6.78155 0.358166 0
M  V30 18544 H 1715.09 6.07048 2.48655 0
M  V30 18545 H 1715.01 7.42712 1.41118 0
M  V30 18546 H 1716.28 7.34938 2.59781 0
M  V30 18547 N 1720.51 0.254649 1.55529 0
M  V30 18548 C 1721.46 -0.657787 2.23105 0
M  V30 18549 C 1722.45 -1.17402 1.22119 0
M  V30 18550 O 1723.66 -1.13002 1.40109 0
M  V30 18551 H 1720.03 -0.230628 0.715762 0
M  V30 18552 H 1722 -0.0647759 2.9833 0
M  V30 18553 C 1720.75 -1.84018 2.95013 0
M  V30 18554 H 1720.07 -1.45211 3.72497 0
M  V30 18555 H 1721.51 -2.45568 3.45648 0
M  V30 18556 C 1719.97 -2.7161 1.99322 0
M  V30 18557 O 1720.5 -3.7137 1.53125 0
M  V30 18558 N 1718.71 -2.38342 1.66258 0
M  V30 18559 H 1718.26 -1.57268 2.04021 0
M  V30 18560 H 1718.21 -2.97222 1.025 0
M  V30 18561 N 1721.99 -1.57589 -0.0183649 0
M  V30 18562 C 1723.23 -1.91608 -0.711726 0
M  V30 18563 C 1723.59 -0.854347 -1.71945 0
M  V30 18564 O 1724.79 -1.07921 -2.46184 0
M  V30 18565 C 1723.06 -3.30745 -1.35434 0
M  V30 18566 S 1724.62 -3.86618 -2.07537 0
M  V30 18567 H 1721.44 -0.670853 -0.235536 0
M  V30 18568 H 1724.04 -1.95471 0.0339114 0
M  V30 18569 H 1722.75 -4.05874 -0.607828 0
M  V30 18570 H 1722.28 -3.30212 -2.1383 0
M  V30 18571 H 1724.29 -3.66209 -3.34821 0
M  V30 18572 N 1723.46 0.290824 -1.54893 0
M  V30 18573 C 1724.37 1.38137 -1.89619 0
M  V30 18574 C 1725.39 1.54959 -0.791432 0
M  V30 18575 O 1726.57 1.69428 -1.08885 0
M  V30 18576 C 1723.63 2.72353 -2.14534 0
M  V30 18577 C 1722.69 2.64429 -3.38195 0
M  V30 18578 C 1721.93 3.92244 -3.61912 0
M  V30 18579 O 1722.15 4.92088 -2.88454 0
M  V30 18580 O 1721.08 3.93523 -4.55438 0
M  V30 18581 H 1724.91 1.11688 -2.82417 0
M  V30 18582 H 1722.49 0.487789 -1.41213 0
M  V30 18583 H 1724.38 3.51745 -2.32064 0
M  V30 18584 H 1723.05 2.98624 -1.24921 0
M  V30 18585 H 1721.96 1.83474 -3.26018 0
M  V30 18586 H 1723.29 2.43109 -4.2797 0
M  V30 18587 N 1724.94 1.47523 0.554506 0
M  V30 18588 C 1725.87 1.63093 1.67102 0
M  V30 18589 C 1726.85 0.480298 1.63178 0
M  V30 18590 O 1728.04 0.709956 1.80757 0
M  V30 18591 C 1725.17 1.64751 3.05736 0
M  V30 18592 C 1724.12 2.79068 3.24507 0
M  V30 18593 C 1723.45 2.65801 4.63955 0
M  V30 18594 C 1724.75 4.20631 3.09623 0
M  V30 18595 H 1726.44 2.56561 1.54328 0
M  V30 18596 H 1723.99 1.2347 0.741023 0
M  V30 18597 H 1725.94 1.74234 3.83693 0
M  V30 18598 H 1724.67 0.678453 3.19475 0
M  V30 18599 H 1723.32 2.691 2.48959 0
M  V30 18600 H 1722.97 1.66917 4.74497 0
M  V30 18601 H 1722.67 3.42494 4.77464 0
M  V30 18602 H 1724.2 2.77216 5.44044 0
M  V30 18603 H 1725.61 4.31562 3.77396 0
M  V30 18604 H 1724.01 4.98133 3.3464 0
M  V30 18605 H 1725.08 4.38809 2.06336 0
M  V30 18606 N 1726.42 -0.801453 1.357 0
M  V30 18607 C 1727.7 -1.54605 1.19819 0
M  V30 18608 C 1728.08 -2.09944 -0.220593 0
M  V30 18609 O 1727.43 -1.92904 -1.22475 0
M  V30 18610 C 1727.64 -2.65052 2.27043 0
M  V30 18611 C 1728.98 -3.33255 2.63109 0
M  V30 18612 O 1730.01 -2.75326 2.25995 0
M  V30 18613 O 1728.87 -4.37917 3.26942 0
M  V30 18614 H 1725.96 -0.68334 0.465807 0
M  V30 18615 H 1728.51 -0.840972 1.47397 0
M  V30 18616 H 1727.28 -2.22068 3.22182 0
M  V30 18617 H 1726.9 -3.4319 2.00764 0
M  V30 18618 N 1727.9 -1.19782 -1.02421 0
M  V30 18619 C 1728.85 -0.93978 -2.108 0
M  V30 18620 C 1729.82 0.12716 -1.65613 0
M  V30 18621 O 1731 -0.0159669 -1.90793 0
M  V30 18622 C 1728.14 -0.489656 -3.41609 0
M  V30 18623 C 1727.25 -1.62389 -4.00317 0
M  V30 18624 C 1726.39 -1.12483 -5.19154 0
M  V30 18625 C 1725.43 -2.23266 -5.69929 0
M  V30 18626 N 1724.56 -1.74633 -6.80035 0
M  V30 18627 H 1729.4 -1.8677 -2.32209 0
M  V30 18628 H 1726.94 -0.931082 -1.13883 0
M  V30 18629 H 1728.9 -0.210049 -4.16671 0
M  V30 18630 H 1727.53 0.40127 -3.20296 0
M  V30 18631 H 1726.58 -2.0186 -3.22423 0
M  V30 18632 H 1727.89 -2.45836 -4.34011 0
M  V30 18633 H 1727.05 -0.800737 -6.01393 0
M  V30 18634 H 1725.79 -0.260155 -4.87006 0
M  V30 18635 H 1724.79 -2.56501 -4.863 0
M  V30 18636 H 1726.02 -3.10197 -6.04115 0
M  V30 18637 H 1723.96 -0.904804 -6.4973 0
M  V30 18638 H 1723.88 -2.51666 -7.12882 0
M  V30 18639 H 1725.15 -1.45201 -7.65857 0
M  V30 18640 N 1729.38 1.21606 -1.00248 0
M  V30 18641 C 1730.33 2.2591 -0.553856 0
M  V30 18642 C 1731.32 1.64602 0.400323 0
M  V30 18643 O 1732.53 1.77936 0.271792 0
M  V30 18644 H 1728.9 0.734618 -0.160749 0
M  V30 18645 H 1730.87 2.61091 -1.44479 0
M  V30 18646 C 1729.62 3.47537 0.106293 0
M  V30 18647 H 1728.94 3.94981 -0.61889 0
M  V30 18648 H 1730.38 4.22262 0.383514 0
M  V30 18649 C 1728.84 3.08901 1.34469 0
M  V30 18650 O 1729.37 3.1916 2.43926 0
M  V30 18651 N 1727.58 2.63588 1.2235 0
M  V30 18652 H 1727.13 2.55441 0.332852 0
M  V30 18653 H 1727.08 2.38106 2.05312 0
M  V30 18654 N 1730.86 0.776895 1.37121 0
M  V30 18655 C 1731.79 0.124809 2.2886 0
M  V30 18656 C 1732.8 -0.658655 1.48881 0
M  V30 18657 O 1733.99 -0.4959 1.71473 0
M  V30 18658 C 1731.09 -0.84672 3.28152 0
M  V30 18659 C 1730.26 -0.11598 4.37246 0
M  V30 18660 C 1729.32 -1.00162 5.16579 0
M  V30 18661 O 1728.35 -0.463491 5.6731 0
M  V30 18662 N 1729.55 -2.32733 5.31804 0
M  V30 18663 H 1732.31 0.91278 2.85462 0
M  V30 18664 H 1729.88 0.629695 1.49152 0
M  V30 18665 H 1731.87 -1.44275 3.78109 0
M  V30 18666 H 1730.44 -1.53563 2.72281 0
M  V30 18667 H 1729.66 0.661015 3.88618 0
M  V30 18668 H 1730.95 0.388757 5.07313 0
M  V30 18669 H 1730.34 -2.78882 4.9218 0
M  V30 18670 H 1728.9 -2.8733 5.85051 0
M  V30 18671 N 1732.33 -1.48497 0.527859 0
M  V30 18672 C 1733.75 -1.58517 0.185573 0
M  V30 18673 C 1733.95 -1.53012 -1.31109 0
M  V30 18674 O 1733.01 -1.41807 -2.08919 0
M  V30 18675 C 1734.32 -2.9024 0.786219 0
M  V30 18676 C 1735.87 -3.03764 0.75476 0
M  V30 18677 C 1736.34 -4.38144 1.33394 0
M  V30 18678 N 1737.83 -4.44705 1.29582 0
M  V30 18679 C 1738.57 -5.47187 1.71388 0
M  V30 18680 N 1738.06 -6.56635 2.20913 0
M  V30 18681 N 1739.86 -5.38057 1.62638 0
M  V30 18682 H 1732.01 -1.50319 1.5006 0
M  V30 18683 H 1734.27 -0.713625 0.624054 0
M  V30 18684 H 1733.98 -2.99918 1.8369 0
M  V30 18685 H 1733.85 -3.76288 0.262084 0
M  V30 18686 H 1736.24 -2.937 -0.287157 0
M  V30 18687 H 1736.32 -2.19331 1.31634 0
M  V30 18688 H 1735.96 -4.48962 2.37478 0
M  V30 18689 H 1735.89 -5.2126 0.748063 0
M  V30 18690 H 1738.38 -3.66195 0.933246 0
M  V30 18691 H 1738.7 -7.30967 2.50813 0
M  V30 18692 H 1737.04 -6.57604 2.24906 0
M  V30 18693 H 1740.23 -4.51447 1.23746 0
M  V30 18694 H 1740.41 -6.17793 1.9554 0
M  V30 18695 N 1733.81 -0.262893 -1.55392 0
M  V30 18696 C 1734.74 0.66288 -2.19405 0
M  V30 18697 C 1735.76 1.12675 -1.17508 0
M  V30 18698 O 1736.95 1.05077 -1.44295 0
M  V30 18699 C 1734.05 1.91471 -2.79628 0
M  V30 18700 C 1733.22 1.59966 -4.07099 0
M  V30 18701 C 1732.28 2.7027 -4.51487 0
M  V30 18702 O 1731.3 2.36976 -5.17524 0
M  V30 18703 N 1732.51 4.0009 -4.20605 0
M  V30 18704 H 1735.27 0.115075 -2.99479 0
M  V30 18705 H 1732.83 -0.0834933 -1.61685 0
M  V30 18706 H 1734.82 2.64535 -3.06273 0
M  V30 18707 H 1733.39 2.37188 -2.03619 0
M  V30 18708 H 1732.61 0.703431 -3.87873 0
M  V30 18709 H 1733.9 1.36402 -4.90175 0
M  V30 18710 H 1733.3 4.29966 -3.67621 0
M  V30 18711 H 1731.86 4.69569 -4.52049 0
M  V30 18712 N 1735.29 1.57597 0.0100073 0
M  V30 18713 C 1736.53 1.91983 0.701555 0
M  V30 18714 C 1736.89 0.863453 1.71489 0
M  V30 18715 O 1738.09 1.09225 2.45608 0
M  V30 18716 C 1736.37 3.31459 1.33678 0
M  V30 18717 S 1737.92 3.87714 2.05484 0
M  V30 18718 H 1734.74 0.672093 0.231975 0
M  V30 18719 H 1737.34 1.9545 -0.0442772 0
M  V30 18720 H 1736.05 4.06191 0.586295 0
M  V30 18721 H 1735.58 3.31342 2.12076 0
M  V30 18722 H 1737.59 3.6798 3.32874 0
M  V30 18723 N 1736.77 -0.282606 1.55045 0
M  V30 18724 C 1738.01 -1.01698 1.75458 0
M  V30 18725 C 1738.35 -1.86284 0.548808 0
M  V30 18726 O 1737.62 -1.89131 -0.45382 0
M  V30 18727 C 1737.9 -1.90759 3.05423 0
M  V30 18728 C 1737.76 -1.0923 4.36336 0
M  V30 18729 C 1739.08 -2.8963 3.31364 0
M  V30 18730 H 1736.2 -0.368305 0.638373 0
M  V30 18731 H 1738.84 -0.290118 1.87772 0
M  V30 18732 H 1736.99 -2.52734 2.95055 0
M  V30 18733 H 1738.66 -0.493996 4.58647 0
M  V30 18734 H 1736.9 -0.395481 4.31994 0
M  V30 18735 H 1737.57 -1.74842 5.23578 0
M  V30 18736 H 1740.05 -2.37788 3.41462 0
M  V30 18737 H 1738.93 -3.49096 4.23584 0
M  V30 18738 H 1739.19 -3.64255 2.50541 0
M  V30 18739 N 1738.25 -1.47815 -0.546675 0
M  V30 18740 C 1739.16 -1.63744 -1.68003 0
M  V30 18741 C 1740.17 -0.520118 -1.66044 0
M  V30 18742 O 1741.35 -0.789033 -1.853 0
M  V30 18743 C 1738.41 -1.65778 -3.04497 0
M  V30 18744 C 1737.47 -2.89015 -3.17441 0
M  V30 18745 C 1736.71 -2.90943 -4.47424 0
M  V30 18746 O 1736.93 -2.01769 -5.33522 0
M  V30 18747 O 1735.86 -3.82927 -4.64382 0
M  V30 18748 H 1739.69 -2.59665 -1.57505 0
M  V30 18749 H 1737.27 -1.31022 -0.717883 0
M  V30 18750 H 1739.16 -1.69734 -3.85705 0
M  V30 18751 H 1737.83 -0.730268 -3.15355 0
M  V30 18752 H 1736.74 -2.90599 -2.35591 0
M  V30 18753 H 1738.07 -3.81095 -3.11492 0
M  V30 18754 N 1739.72 0.794246 -1.36123 0
M  V30 18755 C 1740.95 1.58068 -1.33035 0
M  V30 18756 C 1741.36 1.88979 0.0915079 0
M  V30 18757 O 1740.7 1.50212 1.05745 0
M  V30 18758 C 1740.77 2.93087 -2.08184 0
M  V30 18759 C 1740.43 2.84929 -3.57302 0
M  V30 18760 C 1741.43 2.57507 -4.51648 0
M  V30 18761 C 1739.11 3.03657 -4.00122 0
M  V30 18762 C 1741.11 2.48908 -5.86791 0
M  V30 18763 C 1738.79 2.94681 -5.35356 0
M  V30 18764 C 1739.79 2.67344 -6.28503 0
M  V30 18765 O 1739.48 2.58353 -7.61255 0
M  V30 18766 H 1739.21 0.497096 -0.458118 0
M  V30 18767 H 1741.77 0.994066 -1.79743 0
M  V30 18768 H 1740 3.53779 -1.56131 0
M  V30 18769 H 1741.68 3.54323 -1.98015 0
M  V30 18770 H 1742.45 2.42744 -4.19881 0
M  V30 18771 H 1738.33 3.23943 -3.27997 0
M  V30 18772 H 1741.87 2.27491 -6.59465 0
M  V30 18773 H 1737.77 3.09005 -5.66733 0
M  V30 18774 H 1738.54 2.7387 -7.71322 0
M  V30 18775 N 1741.2 1.20323 1.01785 0
M  V30 18776 C 1742.16 0.9527 2.08462 0
M  V30 18777 C 1743.16 -0.0712564 1.60642 0
M  V30 18778 O 1744.35 0.164672 1.7342 0
M  V30 18779 C 1741.49 0.434052 3.38125 0
M  V30 18780 H 1742.68 1.89895 2.32121 0
M  V30 18781 H 1740.23 1.01843 1.18565 0
M  V30 18782 H 1740.97 -0.51772 3.20141 0
M  V30 18783 H 1740.75 1.17248 3.74159 0
M  V30 18784 H 1742.24 0.278215 4.16672 0
M  V30 18785 N 1742.68 -1.21073 1.00892 0
M  V30 18786 C 1743.61 -2.25847 0.592897 0
M  V30 18787 C 1744.59 -1.6561 -0.38824 0
M  V30 18788 O 1745.78 -1.92238 -0.275361 0
M  V30 18789 C 1742.91 -3.47214 -0.0773439 0
M  V30 18790 C 1741.86 -4.19994 0.82398 0
M  V30 18791 C 1741.19 -5.34696 0.0199341 0
M  V30 18792 C 1742.49 -4.76964 2.12844 0
M  V30 18793 H 1744.18 -2.609 1.46873 0
M  V30 18794 H 1741.73 -1.25412 0.707656 0
M  V30 18795 H 1743.68 -4.19684 -0.379889 0
M  V30 18796 H 1742.4 -3.11303 -0.987833 0
M  V30 18797 H 1741.06 -3.49379 1.11041 0
M  V30 18798 H 1740.71 -4.95028 -0.891966 0
M  V30 18799 H 1740.41 -5.84319 0.620102 0
M  V30 18800 H 1741.93 -6.09974 -0.276336 0
M  V30 18801 H 1743.35 -5.41293 1.88878 0
M  V30 18802 H 1741.74 -5.36992 2.67879 0
M  V30 18803 H 1742.81 -3.96129 2.79659 0
M  V30 18804 N 1744.16 -0.784156 -1.36707 0
M  V30 18805 C 1745.11 -0.177044 -2.3012 0
M  V30 18806 C 1746.08 0.6761 -1.51717 0
M  V30 18807 O 1747.26 0.625878 -1.80243 0
M  V30 18808 C 1744.4 0.686337 -3.38206 0
M  V30 18809 C 1743.51 -0.184772 -4.31605 0
M  V30 18810 C 1742.65 0.684485 -5.26772 0
M  V30 18811 C 1741.69 -0.188402 -6.1181 0
M  V30 18812 N 1740.82 0.639537 -6.99181 0
M  V30 18813 H 1745.66 -0.979125 -2.81455 0
M  V30 18814 H 1743.2 -0.494419 -1.38542 0
M  V30 18815 H 1745.16 1.20185 -3.99514 0
M  V30 18816 H 1743.79 1.4539 -2.88204 0
M  V30 18817 H 1742.84 -0.818204 -3.71496 0
M  V30 18818 H 1744.15 -0.857567 -4.91373 0
M  V30 18819 H 1743.31 1.26601 -5.93344 0
M  V30 18820 H 1742.05 1.39092 -4.67445 0
M  V30 18821 H 1741.05 -0.782364 -5.44205 0
M  V30 18822 H 1742.28 -0.89236 -6.73212 0
M  V30 18823 H 1740.22 1.33036 -6.42369 0
M  V30 18824 H 1740.14 0.0243097 -7.55996 0
M  V30 18825 H 1741.41 1.20505 -7.70129 0
M  V30 18826 N 1745.64 1.48215 -0.535727 0
M  V30 18827 C 1746.6 2.28206 0.213212 0
M  V30 18828 C 1747.6 1.3571 0.862522 0
M  V30 18829 O 1748.79 1.58547 0.721688 0
M  V30 18830 C 1745.92 3.1476 1.30917 0
M  V30 18831 H 1747.11 2.95884 -0.489163 0
M  V30 18832 H 1744.67 1.53551 -0.291872 0
M  V30 18833 H 1745.4 2.51726 2.04462 0
M  V30 18834 H 1745.19 3.82806 0.848633 0
M  V30 18835 H 1746.68 3.75085 1.83579 0
M  V30 18836 N 1747.11 0.27113 1.5525 0
M  V30 18837 C 1748.53 -0.0831186 1.59383 0
M  V30 18838 C 1748.73 -1.54931 1.28835 0
M  V30 18839 O 1747.79 -2.29756 1.0473 0
M  V30 18840 C 1749.1 0.287921 2.99318 0
M  V30 18841 C 1750.65 0.234209 3.12123 0
M  V30 18842 C 1751.12 0.57963 4.54317 0
M  V30 18843 N 1752.61 0.531033 4.60146 0
M  V30 18844 C 1753.35 0.771156 5.68191 0
M  V30 18845 N 1752.84 1.07569 6.84398 0
M  V30 18846 N 1754.64 0.700223 5.57722 0
M  V30 18847 H 1746.79 1.22702 1.73373 0
M  V30 18848 H 1749.05 0.495424 0.808244 0
M  V30 18849 H 1748.76 1.30746 3.26494 0
M  V30 18850 H 1748.63 -0.373205 3.75349 0
M  V30 18851 H 1751.02 -0.776035 2.84713 0
M  V30 18852 H 1751.1 0.929535 2.38313 0
M  V30 18853 H 1750.74 1.58754 4.82452 0
M  V30 18854 H 1750.67 -0.137442 5.26421 0
M  V30 18855 H 1753.16 0.305377 3.76664 0
M  V30 18856 H 1753.48 1.24568 7.62694 0
M  V30 18857 H 1751.82 1.11342 6.86023 0
M  V30 18858 H 1755.01 0.462183 4.65813 0
M  V30 18859 H 1755.19 0.890744 6.41849 0
M  V30 18860 N 1748.59 -1.576 -0.00164943 0
M  V30 18861 C 1750 -1.78578 -0.544681 0
M  V30 18862 C 1750.35 -0.905575 -1.74051 0
M  V30 18863 O 1749.48 -0.107614 -2.16132 0
M  V30 18864 C 1750.07 -3.23863 -0.994898 0
M  V30 18865 C 1748.63 -3.45943 -1.48325 0
M  V30 18866 C 1747.78 -2.73887 -0.433702 0
M  V30 18867 H 1750.73 -1.57104 0.224524 0
M  V30 18868 H 1750.75 -3.31885 -1.86099 0
M  V30 18869 H 1750.26 -3.87901 -0.124352 0
M  V30 18870 H 1748.37 -2.87118 -2.37474 0
M  V30 18871 H 1748.48 -4.54621 -1.51185 0
M  V30 18872 H 1746.84 -2.38458 -0.894969 0
M  V30 18873 H 1747.63 -3.40623 0.42785 0
M  V30 18874 N 1750.07 0.274379 -1.55193 0
M  V30 18875 C 1751 1.34336 -1.90987 0
M  V30 18876 C 1751.98 1.51594 -0.771582 0
M  V30 18877 O 1753.17 1.6466 -1.0296 0
M  V30 18878 C 1750.3 2.70312 -2.18057 0
M  V30 18879 C 1749.25 2.67787 -3.33878 0
M  V30 18880 C 1748.58 4.07301 -3.46425 0
M  V30 18881 C 1749.88 2.27178 -4.70306 0
M  V30 18882 H 1751.57 1.04627 -2.80524 0
M  V30 18883 H 1749.12 0.501867 -1.34971 0
M  V30 18884 H 1751.07 3.45205 -2.41685 0
M  V30 18885 H 1749.79 3.01601 -1.25318 0
M  V30 18886 H 1748.45 1.95351 -3.10216 0
M  V30 18887 H 1748.1 4.3581 -2.51155 0
M  V30 18888 H 1747.8 4.06507 -4.24295 0
M  V30 18889 H 1749.32 4.83935 -3.72343 0
M  V30 18890 H 1750.74 2.91794 -4.93487 0
M  V30 18891 H 1749.14 2.37548 -5.51082 0
M  V30 18892 H 1750.21 1.22309 -4.69221 0
M  V30 18893 N 1751.55 1.48103 0.538828 0
M  V30 18894 C 1752.96 1.34028 0.866532 0
M  V30 18895 C 1753.16 0.3446 1.98531 0
M  V30 18896 O 1752.22 -0.237347 2.51382 0
M  V30 18897 C 1753.53 2.73833 1.24241 0
M  V30 18898 C 1755.08 2.82256 1.35279 0
M  V30 18899 C 1755.56 4.22744 1.76214 0
M  V30 18900 N 1757.05 4.25374 1.83332 0
M  V30 18901 C 1757.78 5.31009 2.16373 0
M  V30 18902 N 1757.28 6.4693 2.47899 0
M  V30 18903 N 1759.07 5.18397 2.17304 0
M  V30 18904 H 1751.22 2.11461 -0.199502 0
M  V30 18905 H 1753.49 0.947627 -0.0266031 0
M  V30 18906 H 1753.19 3.48213 0.494025 0
M  V30 18907 H 1753.07 3.0679 2.19453 0
M  V30 18908 H 1755.45 2.08137 2.09196 0
M  V30 18909 H 1755.53 2.5293 0.382096 0
M  V30 18910 H 1755.18 4.97375 1.02862 0
M  V30 18911 H 1755.11 4.49507 2.74319 0
M  V30 18912 H 1757.6 3.41755 1.61282 0
M  V30 18913 H 1757.91 7.23279 2.7219 0
M  V30 18914 H 1756.26 6.50219 2.45438 0
M  V30 18915 H 1759.45 4.26855 1.92126 0
M  V30 18916 H 1759.62 6.00824 2.42722 0
M  V30 18917 N 1753.03 -0.787016 1.36542 0
M  V30 18918 C 1754.44 -1.08541 1.17008 0
M  V30 18919 C 1754.64 -2.015 -0.00419378 0
M  V30 18920 O 1753.7 -2.43481 -0.668826 0
M  V30 18921 C 1755.01 -1.69758 2.48199 0
M  V30 18922 C 1756.56 -1.82088 2.54584 0
M  V30 18923 C 1757.03 -2.46719 3.85868 0
M  V30 18924 N 1758.53 -2.54185 3.87227 0
M  V30 18925 C 1759.26 -3.05008 4.85549 0
M  V30 18926 N 1758.76 -3.56121 5.94264 0
M  V30 18927 N 1760.55 -3.03742 4.72966 0
M  V30 18928 H 1752.7 -0.16948 2.11723 0
M  V30 18929 H 1754.96 -0.137802 0.937931 0
M  V30 18930 H 1754.67 -1.08922 3.34408 0
M  V30 18931 H 1754.54 -2.69237 2.6418 0
M  V30 18932 H 1756.93 -2.42061 1.68792 0
M  V30 18933 H 1757.01 -0.814071 2.42501 0
M  V30 18934 H 1756.66 -1.87389 4.72068 0
M  V30 18935 H 1756.59 -3.47975 3.95248 0
M  V30 18936 H 1759.08 -2.17995 3.08685 0
M  V30 18937 H 1759.39 -3.93259 6.65257 0
M  V30 18938 H 1757.73 -3.54266 5.9793 0
M  V30 18939 H 1760.93 -2.63102 3.87163 0
M  V30 18940 H 1761.1 -3.43043 5.49751 0
M  V30 18941 N 1754.5 -1.20861 -1.01145 0
M  V30 18942 C 1755.73 -1.04617 -1.78154 0
M  V30 18943 C 1756.14 0.407396 -1.84762 0
M  V30 18944 O 1755.49 1.29457 -1.30333 0
M  V30 18945 C 1755.55 -1.56038 -3.23871 0
M  V30 18946 C 1755.21 -3.0441 -3.40857 0
M  V30 18947 C 1756.21 -4.02021 -3.29659 0
M  V30 18948 C 1753.89 -3.43479 -3.66507 0
M  V30 18949 C 1755.89 -5.36689 -3.43866 0
M  V30 18950 C 1753.57 -4.78301 -3.80356 0
M  V30 18951 C 1754.57 -5.74715 -3.69041 0
M  V30 18952 O 1754.26 -7.07093 -3.82459 0
M  V30 18953 H 1753.99 -0.368185 -0.566935 0
M  V30 18954 H 1756.55 -1.60508 -1.28165 0
M  V30 18955 H 1754.78 -0.945373 -3.74966 0
M  V30 18956 H 1756.47 -1.35735 -3.82532 0
M  V30 18957 H 1757.23 -3.73182 -3.09775 0
M  V30 18958 H 1753.11 -2.68972 -3.74399 0
M  V30 18959 H 1756.65 -6.11927 -3.3495 0
M  V30 18960 H 1752.55 -5.06829 -3.99743 0
M  V30 18961 H 1753.32 -7.14413 -3.99445 0
M  V30 18962 N 1755.98 1.20536 -1.01532 0
M  V30 18963 C 1757.23 1.89191 -0.699258 0
M  V30 18964 C 1757.54 1.79624 0.774238 0
M  V30 18965 O 1758.75 2.43402 1.20281 0
M  V30 18966 C 1757.21 3.39294 -1.20033 0
M  V30 18967 C 1756.81 3.57449 -2.70064 0
M  V30 18968 C 1758.56 4.13511 -0.959626 0
M  V30 18969 C 1756.47 5.01371 -3.13658 0
M  V30 18970 H 1755.4 0.708537 -0.257859 0
M  V30 18971 H 1758.05 1.36368 -1.22785 0
M  V30 18972 H 1756.43 3.91432 -0.599728 0
M  V30 18973 H 1757.6 3.15702 -3.35662 0
M  V30 18974 H 1755.92 2.966 -2.92262 0
M  V30 18975 H 1758.51 5.19624 -1.26077 0
M  V30 18976 H 1758.86 4.1617 0.103934 0
M  V30 18977 H 1759.39 3.67469 -1.52354 0
M  V30 18978 H 1756.13 5.03866 -4.19285 0
M  V30 18979 H 1755.65 5.43933 -2.52779 0
M  V30 18980 H 1757.33 5.69944 -3.06224 0
M  V30 18981 N 1757.46 0.791395 1.36289 0
M  V30 18982 C 1758.87 0.427611 1.81737 0
M  V30 18983 C 1759.22 -1.04868 1.65822 0
M  V30 18984 O 1758.35 -1.81379 1.18028 0
M  V30 18985 C 1758.94 0.769378 3.29949 0
M  V30 18986 C 1757.5 0.458397 3.73598 0
M  V30 18987 C 1756.65 1.00299 2.58526 0
M  V30 18988 H 1759.6 0.98437 1.24482 0
M  V30 18989 H 1759.62 0.061211 3.80451 0
M  V30 18990 H 1759.13 1.8439 3.415 0
M  V30 18991 H 1757.23 -0.608006 3.67606 0
M  V30 18992 H 1757.35 0.980392 4.68962 0
M  V30 18993 H 1755.71 0.426106 2.5111 0
M  V30 18994 H 1756.49 2.08331 2.72861 0
M  V30 18995 N 1758.94 -1.47929 0.54358 0
M  V30 18996 C 1759.89 -2.29827 -0.211706 0
M  V30 18997 C 1760.86 -1.38217 -0.921154 0
M  V30 18998 O 1762.04 -1.67181 -0.919522 0
M  V30 18999 C 1759.18 -3.21889 -1.24425 0
M  V30 19000 C 1758.29 -4.28583 -0.542264 0
M  V30 19001 C 1757.43 -5.0781 -1.55892 0
M  V30 19002 C 1756.47 -6.06293 -0.841146 0
M  V30 19003 N 1755.61 -6.78528 -1.80399 0
M  V30 19004 H 1760.45 -2.93896 0.492835 0
M  V30 19005 H 1757.98 -1.44875 0.254873 0
M  V30 19006 H 1759.94 -3.73674 -1.85535 0
M  V30 19007 H 1758.57 -2.59713 -1.917 0
M  V30 19008 H 1757.62 -3.79959 0.183069 0
M  V30 19009 H 1758.93 -4.98796 0.0206703 0
M  V30 19010 H 1758.09 -5.63678 -2.24393 0
M  V30 19011 H 1756.83 -4.37468 -2.15576 0
M  V30 19012 H 1755.83 -5.49616 -0.14214 0
M  V30 19013 H 1757.06 -6.78639 -0.250232 0
M  V30 19014 H 1755 -6.10927 -2.38965 0
M  V30 19015 H 1754.92 -7.44863 -1.29285 0
M  V30 19016 H 1756.19 -7.38978 -2.48056 0
M  V30 19017 N 1760.42 -0.27936 -1.55104 0
M  V30 19018 C 1761.37 0.62221 -2.24123 0
M  V30 19019 C 1762.36 1.15445 -1.23971 0
M  V30 19020 O 1763.57 1.10759 -1.41889 0
M  V30 19021 H 1759.94 0.219212 -0.71934 0
M  V30 19022 H 1761.91 0.0173061 -2.98395 0
M  V30 19023 C 1760.66 1.79301 -2.97903 0
M  V30 19024 H 1759.98 1.39266 -3.7476 0
M  V30 19025 H 1761.42 2.40038 -3.49511 0
M  V30 19026 C 1759.88 2.68405 -2.03618 0
M  V30 19027 O 1760.41 3.68887 -1.59014 0
M  V30 19028 N 1758.62 2.35666 -1.70028 0
M  V30 19029 H 1758.17 1.54003 -2.06497 0
M  V30 19030 H 1758.12 2.95554 -1.07215 0
M  V30 19031 N 1761.9 1.57599 -0.0067085 0
M  V30 19032 C 1763.31 1.78864 0.535202 0
M  V30 19033 C 1763.66 0.914793 1.73568 0
M  V30 19034 O 1762.78 0.119075 2.16072 0
M  V30 19035 C 1763.38 3.24386 0.977709 0
M  V30 19036 C 1761.94 3.46725 1.46488 0
M  V30 19037 C 1761.08 2.74114 0.419171 0
M  V30 19038 H 1764.03 1.56982 -0.232853 0
M  V30 19039 H 1764.06 3.32867 1.84336 0
M  V30 19040 H 1763.57 3.87961 0.103778 0
M  V30 19041 H 1761.67 2.88373 2.35948 0
M  V30 19042 H 1761.78 4.55416 1.48772 0
M  V30 19043 H 1760.15 2.3893 0.882311 0
M  V30 19044 H 1760.93 3.40392 -0.445908 0
M  V30 19045 N 1763.37 -0.266145 1.55336 0
M  V30 19046 C 1764.6 -1.01342 1.80037 0
M  V30 19047 C 1765.01 -1.80175 0.577368 0
M  V30 19048 O 1764.35 -1.77765 -0.46318 0
M  V30 19049 C 1764.42 -2.0141 2.97782 0
M  V30 19050 C 1764.08 -1.4145 4.34558 0
M  V30 19051 C 1765.08 -0.826689 5.13285 0
M  V30 19052 C 1762.76 -1.43964 4.81227 0
M  V30 19053 C 1764.76 -0.272004 6.36819 0
M  V30 19054 C 1762.44 -0.881101 6.04715 0
M  V30 19055 C 1763.44 -0.298287 6.82348 0
M  V30 19056 O 1763.13 0.251684 8.03506 0
M  V30 19057 H 1762.86 -0.304756 0.603407 0
M  V30 19058 H 1765.42 -0.300216 2.03194 0
M  V30 19059 H 1763.65 -2.76508 2.70334 0
M  V30 19060 H 1765.33 -2.62321 3.09746 0
M  V30 19061 H 1766.1 -0.79991 4.78358 0
M  V30 19062 H 1761.98 -1.88267 4.20805 0
M  V30 19063 H 1765.52 0.183538 6.97359 0
M  V30 19064 H 1761.42 -0.905142 6.39122 0
M  V30 19065 H 1762.19 0.1417 8.18377 0
M  V30 19066 N 1764.85 -1.48386 -0.530967 0
M  V30 19067 C 1765.78 -1.58922 -1.65156 0
M  V30 19068 C 1766.8 -0.473583 -1.5576 0
M  V30 19069 O 1767.99 -0.744383 -1.62238 0
M  V30 19070 C 1765.09 -1.50201 -3.03798 0
M  V30 19071 C 1764.26 -2.76787 -3.38685 0
M  V30 19072 C 1763.32 -2.61534 -4.56603 0
M  V30 19073 O 1762.34 -3.35417 -4.59874 0
M  V30 19074 N 1763.55 -1.71087 -5.54716 0
M  V30 19075 H 1766.31 -2.55559 -1.56555 0
M  V30 19076 H 1763.87 -1.45097 -0.718216 0
M  V30 19077 H 1765.86 -1.37693 -3.80556 0
M  V30 19078 H 1764.43 -0.615419 -3.06482 0
M  V30 19079 H 1763.65 -3.03867 -2.51115 0
M  V30 19080 H 1764.94 -3.6077 -3.58779 0
M  V30 19081 H 1764.34 -1.10261 -5.54851 0
M  V30 19082 H 1762.9 -1.64518 -6.30696 0
M  V30 19083 N 1766.33 0.779763 -1.36958 0
M  V30 19084 C 1767.56 1.56648 -1.34704 0
M  V30 19085 C 1767.97 1.89065 0.071459 0
M  V30 19086 O 1767.31 1.51325 1.04146 0
M  V30 19087 C 1767.37 2.90862 -2.11281 0
M  V30 19088 C 1767.04 2.81123 -3.60304 0
M  V30 19089 C 1768.03 2.52702 -4.54354 0
M  V30 19090 C 1765.72 2.99397 -4.0332 0
M  V30 19091 C 1767.71 2.42671 -5.89398 0
M  V30 19092 C 1765.4 2.88987 -5.38451 0
M  V30 19093 C 1766.4 2.60663 -6.31303 0
M  V30 19094 O 1766.09 2.50264 -7.63952 0
M  V30 19095 H 1765.82 0.492209 -0.463364 0
M  V30 19096 H 1768.37 0.974946 -1.80787 0
M  V30 19097 H 1766.6 3.52104 -1.59875 0
M  V30 19098 H 1768.29 3.52203 -2.01762 0
M  V30 19099 H 1769.06 2.38277 -4.22432 0
M  V30 19100 H 1764.94 3.20446 -3.31414 0
M  V30 19101 H 1768.48 2.20484 -6.6184 0
M  V30 19102 H 1764.38 3.02977 -5.69978 0
M  V30 19103 H 1765.14 2.65674 -7.74183 0
M  V30 19104 N 1767.81 1.21396 1.00503 0
M  V30 19105 C 1768.75 0.973198 2.09279 0
M  V30 19106 C 1769.72 -0.100797 1.65794 0
M  V30 19107 O 1770.91 0.0463185 1.90744 0
M  V30 19108 C 1768.05 0.543941 3.40786 0
M  V30 19109 C 1767.16 1.68737 3.97683 0
M  V30 19110 C 1766.3 1.20728 5.17299 0
M  V30 19111 C 1765.34 2.32305 5.66305 0
M  V30 19112 N 1764.47 1.8543 6.77171 0
M  V30 19113 H 1769.31 1.90441 2.29208 0
M  V30 19114 H 1766.85 0.949082 1.12387 0
M  V30 19115 H 1768.81 0.276311 4.16284 0
M  V30 19116 H 1767.44 -0.350263 3.20894 0
M  V30 19117 H 1766.49 2.06964 3.19171 0
M  V30 19118 H 1767.8 2.5271 4.30045 0
M  V30 19119 H 1766.96 0.896312 6.00043 0
M  V30 19120 H 1765.7 0.3376 4.8653 0
M  V30 19121 H 1764.7 2.64205 4.82158 0
M  V30 19122 H 1765.93 3.19769 5.99103 0
M  V30 19123 H 1763.87 1.00806 6.48208 0
M  V30 19124 H 1763.79 2.62976 7.08788 0
M  V30 19125 H 1765.06 1.57366 7.6345 0
M  V30 19126 N 1769.29 -1.19996 1.0217 0
M  V30 19127 C 1770.53 -1.89495 0.713989 0
M  V30 19128 C 1770.86 -1.79172 -0.756819 0
M  V30 19129 O 1770.12 -1.17362 -1.56603 0
M  V30 19130 C 1770.41 -3.39999 1.10162 0
M  V30 19131 C 1770.08 -3.70524 2.5695 0
M  V30 19132 C 1768.74 -3.78565 2.97056 0
M  V30 19133 C 1771.09 -3.8442 3.51952 0
M  V30 19134 C 1768.42 -3.97965 4.31092 0
M  V30 19135 C 1770.77 -4.05332 4.85684 0
M  V30 19136 C 1769.44 -4.11604 5.25489 0
M  V30 19137 H 1768.71 -0.693412 0.261267 0
M  V30 19138 H 1771.36 -1.42146 1.28323 0
M  V30 19139 H 1769.66 -3.89197 0.45088 0
M  V30 19140 H 1771.36 -3.92078 0.841158 0
M  V30 19141 H 1767.95 -3.64868 2.24876 0
M  V30 19142 H 1772.13 -3.77558 3.22123 0
M  V30 19143 H 1767.39 -4.01058 4.61479 0
M  V30 19144 H 1771.56 -4.15027 5.59219 0
M  V30 19145 H 1769.19 -4.26389 6.29362 0
M  V30 19146 N 1770.76 -0.798611 -1.35867 0
M  V30 19147 C 1772.01 -0.38492 -1.99725 0
M  V30 19148 C 1772.36 1.03438 -1.6223 0
M  V30 19149 O 1771.66 1.70634 -0.871464 0
M  V30 19150 C 1771.85 -0.496572 -3.53934 0
M  V30 19151 C 1771.68 -1.92517 -4.06408 0
M  V30 19152 C 1770.45 -2.5518 -4.36132 0
M  V30 19153 C 1772.65 -2.88862 -4.25515 0
M  V30 19154 N 1770.63 -3.89534 -4.74486 0
M  V30 19155 C 1772 -4.08068 -4.66777 0
M  V30 19156 C 1774.06 -2.85798 -4.07706 0
M  V30 19157 C 1772.76 -5.24631 -4.92092 0
M  V30 19158 C 1774.79 -4.01557 -4.34173 0
M  V30 19159 C 1774.15 -5.19509 -4.75699 0
M  V30 19160 H 1770.25 -0.188458 -0.758952 0
M  V30 19161 H 1772.83 -1.03816 -1.64713 0
M  V30 19162 H 1771 0.126631 -3.88194 0
M  V30 19163 H 1772.73 -0.0582382 -4.04658 0
M  V30 19164 H 1769.49 -2.06593 -4.26165 0
M  V30 19165 H 1769.91 -4.58684 -4.97934 0
M  V30 19166 H 1774.55 -1.95762 -3.7475 0
M  V30 19167 H 1772.27 -6.15246 -5.23926 0
M  V30 19168 H 1775.86 -4.00558 -4.21954 0
M  V30 19169 H 1774.74 -6.07594 -4.95781 0
M  V30 19170 N 1772.24 1.47639 -0.551417 0
M  V30 19171 C 1773.47 2.06578 -0.0298471 0
M  V30 19172 C 1773.88 1.40538 1.26672 0
M  V30 19173 O 1773.22 0.493957 1.76934 0
M  V30 19174 C 1773.28 3.5868 0.242667 0
M  V30 19175 C 1772.95 4.46726 -0.963597 0
M  V30 19176 C 1773.95 4.85195 -1.86766 0
M  V30 19177 C 1771.63 4.88324 -1.17664 0
M  V30 19178 C 1773.62 5.64056 -2.96849 0
M  V30 19179 C 1771.31 5.66951 -2.28058 0
M  V30 19180 C 1772.31 6.04727 -3.17482 0
M  V30 19181 O 1772 6.81771 -4.25963 0
M  V30 19182 H 1771.73 0.674806 -0.0401627 0
M  V30 19183 H 1774.28 1.90714 -0.762724 0
M  V30 19184 H 1772.51 3.72736 1.02978 0
M  V30 19185 H 1774.2 3.99661 0.708914 0
M  V30 19186 H 1774.97 4.53662 -1.7151 0
M  V30 19187 H 1770.85 4.58391 -0.489796 0
M  V30 19188 H 1774.39 5.93461 -3.66675 0
M  V30 19189 H 1770.29 5.97897 -2.43289 0
M  V30 19190 H 1771.06 7.00156 -4.23938 0
M  V30 19191 N 1773.72 0.287581 1.54954 0
M  V30 19192 C 1774.97 -0.326093 2.00161 0
M  V30 19193 C 1775.3 -1.54564 1.17574 0
M  V30 19194 O 1774.57 -1.92901 0.248859 0
M  V30 19195 C 1774.86 -0.695974 3.5331 0
M  V30 19196 C 1774.71 0.531783 4.46645 0
M  V30 19197 C 1776.03 -1.52767 4.12735 0
M  V30 19198 H 1773.15 -0.117051 0.727646 0
M  V30 19199 H 1775.79 0.39701 1.85806 0
M  V30 19200 H 1773.94 -1.31205 3.65674 0
M  V30 19201 H 1775.61 1.17032 4.46208 0
M  V30 19202 H 1773.86 1.16754 4.17793 0
M  V30 19203 H 1774.53 0.229034 5.51525 0
M  V30 19204 H 1777 -1.00724 4.03725 0
M  V30 19205 H 1775.88 -1.75527 5.20078 0
M  V30 19206 H 1776.14 -2.51267 3.63755 0
M  V30 19207 N 1775.2 -1.57593 0.0150662 0
M  V30 19208 C 1776.44 -1.91497 -0.667587 0
M  V30 19209 C 1776.78 -0.890493 -1.7258 0
M  V30 19210 O 1776.05 0.0887462 -1.94297 0
M  V30 19211 C 1776.34 -3.35934 -1.29694 0
M  V30 19212 C 1776.19 -4.49109 -0.249242 0
M  V30 19213 C 1777.51 -3.80068 -2.21893 0
M  V30 19214 H 1774.63 -0.696408 -0.241217 0
M  V30 19215 H 1777.27 -1.89873 0.0694484 0
M  V30 19216 H 1775.42 -3.37448 -1.92512 0
M  V30 19217 H 1777.09 -4.59729 0.380417 0
M  V30 19218 H 1775.33 -4.31695 0.426861 0
M  V30 19219 H 1776 -5.47166 -0.728934 0
M  V30 19220 H 1778.48 -3.80201 -1.69076 0
M  V30 19221 H 1777.36 -4.81852 -2.62887 0
M  V30 19222 H 1777.62 -3.1478 -3.10429 0
M  V30 19223 N 1776.68 0.257904 -1.55475 0
M  V30 19224 C 1777.62 1.33893 -1.90198 0
M  V30 19225 C 1778.62 1.50381 -0.779868 0
M  V30 19226 O 1779.82 1.51986 -0.964376 0
M  V30 19227 H 1776.2 0.448115 -0.603901 0
M  V30 19228 H 1778.17 1.01868 -2.80474 0
M  V30 19229 C 1776.92 2.68954 -2.20361 0
M  V30 19230 H 1776.24 2.57064 -3.062 0
M  V30 19231 H 1777.68 3.43498 -2.48567 0
M  V30 19232 C 1776.14 3.21208 -1.01623 0
M  V30 19233 O 1776.67 4.00867 -0.258567 0
M  V30 19234 N 1774.88 2.79088 -0.809825 0
M  V30 19235 H 1774.42 2.1442 -1.42764 0
M  V30 19236 H 1774.38 3.14395 -0.0170171 0
M  V30 19237 N 1778.15 1.48666 0.52309 0
M  V30 19238 C 1779.38 1.60965 1.30787 0
M  V30 19239 C 1779.8 0.272663 1.86113 0
M  V30 19240 O 1779.16 -0.756662 1.64755 0
M  V30 19241 C 1779.21 2.66455 2.42969 0
M  V30 19242 O 1778.31 2.24094 3.46202 0
M  V30 19243 H 1777.66 0.539516 0.387064 0
M  V30 19244 H 1780.19 1.94702 0.628683 0
M  V30 19245 H 1780.2 2.87942 2.89056 0
M  V30 19246 H 1778.87 3.63516 2.02062 0
M  V30 19247 H 1777.45 2.12848 3.06186 0
M  V30 19248 N 1779.63 -0.772489 1.37369 0
M  V30 19249 C 1780.86 -1.56671 1.35901 0
M  V30 19250 C 1781.28 -1.88024 -0.0535538 0
M  V30 19251 O 1780.64 -1.49174 -1.03038 0
M  V30 19252 C 1780.69 -2.85417 2.20384 0
M  V30 19253 O 1779.79 -3.79761 1.60796 0
M  V30 19254 H 1779.13 -0.474596 0.464386 0
M  V30 19255 H 1781.66 -0.956162 1.80883 0
M  V30 19256 H 1781.67 -3.34527 2.33571 0
M  V30 19257 H 1780.35 -2.61926 3.2306 0
M  V30 19258 H 1778.93 -3.38403 1.56645 0
M  V30 19259 N 1781.11 -1.21927 -0.998575 0
M  V30 19260 C 1782.52 -1.03808 -1.5518 0
M  V30 19261 C 1782.87 0.400202 -1.92075 0
M  V30 19262 O 1782 1.28436 -1.74164 0
M  V30 19263 C 1782.59 -1.87814 -2.81978 0
M  V30 19264 C 1781.15 -1.74008 -3.33764 0
M  V30 19265 C 1780.3 -1.8463 -2.06899 0
M  V30 19266 H 1783.25 -1.35855 -0.820305 0
M  V30 19267 H 1783.27 -1.39219 -3.54116 0
M  V30 19268 H 1782.78 -2.92487 -2.55094 0
M  V30 19269 H 1780.88 -0.720445 -3.65569 0
M  V30 19270 H 1781 -2.56348 -4.0475 0
M  V30 19271 H 1779.36 -1.28007 -2.20196 0
M  V30 19272 H 1780.14 -2.90824 -1.82419 0
M  V30 19273 N 1782.59 1.19452 -1.02805 0
M  V30 19274 C 1783.84 1.89114 -0.724029 0
M  V30 19275 C 1784.16 1.79571 0.747307 0
M  V30 19276 O 1783.42 1.18191 1.55979 0
M  V30 19277 C 1783.72 3.3941 -1.11964 0
M  V30 19278 C 1783.38 3.69156 -2.58911 0
M  V30 19279 C 1782.05 3.76984 -2.99059 0
M  V30 19280 C 1784.4 3.82549 -3.53986 0
M  V30 19281 C 1781.73 3.95673 -4.33197 0
M  V30 19282 C 1784.08 4.02751 -4.87826 0
M  V30 19283 C 1782.74 4.08812 -5.27664 0
M  V30 19284 H 1782.01 0.692017 -0.264941 0
M  V30 19285 H 1784.66 1.41463 -1.29075 0
M  V30 19286 H 1782.96 3.88952 -0.471514 0
M  V30 19287 H 1784.66 3.91627 -0.861939 0
M  V30 19288 H 1781.25 3.6367 -2.26808 0
M  V30 19289 H 1785.43 3.75845 -3.24121 0
M  V30 19290 H 1780.69 3.98605 -4.63599 0
M  V30 19291 H 1784.86 4.12056 -5.61412 0
M  V30 19292 H 1782.49 4.23046 -6.31614 0
M  V30 19293 N 1784.07 0.805805 1.35442 0
M  V30 19294 C 1784.98 0.217149 2.33593 0
M  V30 19295 C 1785.99 -0.639428 1.61825 0
M  V30 19296 O 1787.17 -0.551363 1.93706 0
M  V30 19297 C 1784.23 -0.625149 3.41017 0
M  V30 19298 C 1783.29 0.25183 4.28561 0
M  V30 19299 C 1782.53 -0.550363 5.30855 0
M  V30 19300 O 1782.75 -1.78511 5.41747 0
M  V30 19301 O 1781.68 0.0583487 6.01872 0
M  V30 19302 H 1785.51 1.02909 2.85733 0
M  V30 19303 H 1783.1 0.567579 1.38199 0
M  V30 19304 H 1784.98 -1.10493 4.06656 0
M  V30 19305 H 1783.65 -1.4147 2.91149 0
M  V30 19306 H 1782.56 0.77873 3.65905 0
M  V30 19307 H 1783.89 1.0053 4.81824 0
M  V30 19308 N 1785.54 -1.47344 0.559239 0
M  V30 19309 C 1786.77 -2.0656 0.040802 0
M  V30 19310 C 1787.18 -1.41208 -1.25925 0
M  V30 19311 O 1786.53 -0.503333 -1.7667 0
M  V30 19312 C 1786.59 -3.58804 -0.223642 0
M  V30 19313 C 1786.25 -4.46208 0.987275 0
M  V30 19314 C 1787.25 -4.84198 1.89336 0
M  V30 19315 C 1784.93 -4.87693 1.20252 0
M  V30 19316 C 1786.93 -5.62474 2.99837 0
M  V30 19317 C 1784.61 -5.65733 2.31061 0
M  V30 19318 C 1785.61 -6.03034 3.20684 0
M  V30 19319 O 1785.3 -6.79502 4.29572 0
M  V30 19320 H 1785.03 -0.674583 0.0437408 0
M  V30 19321 H 1787.59 -1.90306 0.772827 0
M  V30 19322 H 1785.82 -3.73277 -1.01 0
M  V30 19323 H 1787.51 -4.00032 -0.687709 0
M  V30 19324 H 1788.27 -4.52746 1.73913 0
M  V30 19325 H 1784.15 -4.58124 0.514098 0
M  V30 19326 H 1787.69 -5.91508 3.69817 0
M  V30 19327 H 1783.59 -5.96598 2.46456 0
M  V30 19328 H 1784.36 -6.97898 4.27645 0
M  V30 19329 N 1787.02 -0.295795 -1.54799 0
M  V30 19330 C 1787.96 0.624485 -2.19489 0
M  V30 19331 C 1788.93 1.1368 -1.16257 0
M  V30 19332 O 1790.12 1.20596 -1.44875 0
M  V30 19333 C 1787.24 1.85387 -2.8346 0
M  V30 19334 C 1786.29 1.47524 -4.00173 0
M  V30 19335 S 1787.12 0.535637 -5.32814 0
M  V30 19336 C 1788.28 1.77293 -6.00265 0
M  V30 19337 H 1788.51 0.0748912 -2.97206 0
M  V30 19338 H 1786.05 -0.0799541 -1.54193 0
M  V30 19339 H 1788 2.55941 -3.20943 0
M  V30 19340 H 1786.66 2.37462 -2.05598 0
M  V30 19341 H 1785.86 2.39058 -4.43697 0
M  V30 19342 H 1785.46 0.849697 -3.6422 0
M  V30 19343 H 1787.75 2.7142 -6.20756 0
M  V30 19344 H 1788.69 1.38035 -6.94516 0
M  V30 19345 H 1789.1 1.94728 -5.2985 0
M  V30 19346 N 1788.5 1.57583 -0.0234236 0
M  V30 19347 C 1789.43 2.05369 0.994927 0
M  V30 19348 C 1790.41 0.948279 1.32085 0
M  V30 19349 O 1791.6 1.21818 1.43849 0
M  V30 19350 C 1788.72 2.47098 2.31647 0
M  V30 19351 C 1787.77 3.68603 2.14555 0
M  V30 19352 S 1788.6 5.15504 1.44968 0
M  V30 19353 C 1789.76 5.60523 2.78504 0
M  V30 19354 H 1789.99 2.91425 0.588129 0
M  V30 19355 H 1787.52 1.5325 0.188111 0
M  V30 19356 H 1789.48 2.71805 3.07624 0
M  V30 19357 H 1788.14 1.61398 2.69461 0
M  V30 19358 H 1787.34 3.95629 3.1224 0
M  V30 19359 H 1786.94 3.44018 1.46722 0
M  V30 19360 H 1789.23 5.64414 3.74757 0
M  V30 19361 H 1790.17 6.60146 2.5615 0
M  V30 19362 H 1790.58 4.88153 2.8349 0
M  V30 19363 N 1789.98 -0.249655 1.5561 0
M  V30 19364 C 1791.23 -0.97808 1.77313 0
M  V30 19365 C 1791.55 -1.85423 0.587253 0
M  V30 19366 O 1790.81 -1.90928 -0.429527 0
M  V30 19367 C 1791.11 -1.87138 3.0449 0
M  V30 19368 C 1790.77 -1.15081 4.35967 0
M  V30 19369 C 1789.44 -0.95166 4.71696 0
M  V30 19370 C 1791.79 -0.639877 5.17257 0
M  V30 19371 C 1789.12 -0.229227 5.86252 0
M  V30 19372 C 1791.47 0.0690756 6.32562 0
M  V30 19373 C 1790.13 0.279731 6.66914 0
M  V30 19374 H 1789.4 -0.357905 0.648834 0
M  V30 19375 H 1792.05 -0.248402 1.89882 0
M  V30 19376 H 1790.35 -2.66802 2.86921 0
M  V30 19377 H 1792.05 -2.43662 3.18481 0
M  V30 19378 H 1788.64 -1.31597 4.07897 0
M  V30 19379 H 1792.83 -0.78129 4.90112 0
M  V30 19380 H 1788.08 -0.0555172 6.11375 0
M  V30 19381 H 1792.26 0.472628 6.94794 0
M  V30 19382 H 1789.88 0.841482 7.55528 0
M  V30 19383 N 1791.46 -1.48941 -0.515198 0
M  V30 19384 C 1792.7 -1.57943 -1.27207 0
M  V30 19385 C 1793.04 -0.259011 -1.92465 0
M  V30 19386 O 1792.31 0.736277 -1.80026 0
M  V30 19387 C 1792.59 -2.72846 -2.35005 0
M  V30 19388 C 1792.45 -4.14639 -1.74341 0
M  V30 19389 C 1793.77 -2.83444 -3.36672 0
M  V30 19390 H 1790.89 -0.574909 -0.461138 0
M  V30 19391 H 1793.53 -1.81172 -0.572413 0
M  V30 19392 H 1791.68 -2.5317 -2.94681 0
M  V30 19393 H 1793.35 -4.45793 -1.18602 0
M  V30 19394 H 1791.59 -4.20948 -1.0481 0
M  V30 19395 H 1792.26 -4.90883 -2.52463 0
M  V30 19396 H 1794.74 -3.01311 -2.86969 0
M  V30 19397 H 1793.62 -3.65542 -4.09475 0
M  V30 19398 H 1793.88 -1.92208 -3.98131 0
M  V30 19399 N 1792.94 0.765193 -1.37777 0
M  V30 19400 C 1793.87 1.89247 -1.36777 0
M  V30 19401 C 1794.85 1.68463 -0.235389 0
M  V30 19402 O 1796.03 1.89225 -0.436733 0
M  V30 19403 C 1793.16 3.2662 -1.18053 0
M  V30 19404 C 1792.12 3.61981 -2.28372 0
M  V30 19405 C 1791.44 4.97967 -1.94765 0
M  V30 19406 C 1792.74 3.68053 -3.70587 0
M  V30 19407 H 1794.44 1.90341 -2.31108 0
M  V30 19408 H 1791.98 0.914355 -1.11245 0
M  V30 19409 H 1793.93 4.05125 -1.15982 0
M  V30 19410 H 1792.66 3.25976 -0.201803 0
M  V30 19411 H 1791.32 2.85788 -2.2961 0
M  V30 19412 H 1790.97 4.93869 -0.954052 0
M  V30 19413 H 1790.67 5.22594 -2.68642 0
M  V30 19414 H 1792.19 5.78864 -1.94292 0
M  V30 19415 H 1793.6 4.36696 -3.71443 0
M  V30 19416 H 1792 4.04183 -4.43572 0
M  V30 19417 H 1793.07 2.68556 -4.03739 0
M  V30 19418 N 1794.41 1.22455 0.992094 0
M  V30 19419 C 1795.66 1.04373 1.72596 0
M  V30 19420 C 1795.98 -0.421349 1.91008 0
M  V30 19421 O 1797.18 -0.72186 2.61728 0
M  V30 19422 C 1795.64 1.81906 3.10545 0
M  V30 19423 C 1795.25 3.32667 3.00061 0
M  V30 19424 C 1796.99 1.72274 3.87972 0
M  V30 19425 C 1794.9 4.02638 4.3317 0
M  V30 19426 H 1793.83 0.386937 0.647144 0
M  V30 19427 H 1796.48 1.46313 1.10746 0
M  V30 19428 H 1794.86 1.32764 3.73081 0
M  V30 19429 H 1796.03 3.89208 2.46685 0
M  V30 19430 H 1794.35 3.42984 2.36117 0
M  V30 19431 H 1796.95 2.21872 4.86494 0
M  V30 19432 H 1797.29 0.68331 4.10654 0
M  V30 19433 H 1797.82 2.18963 3.32115 0
M  V30 19434 H 1794.56 5.06838 4.15687 0
M  V30 19435 H 1794.08 3.50885 4.86456 0
M  V30 19436 H 1795.76 4.08279 5.01914 0
M  V30 19437 N 1795.89 -1.18905 1.03437 0
M  V30 19438 C 1796.82 -2.21109 0.564446 0
M  V30 19439 C 1797.8 -1.57663 -0.397643 0
M  V30 19440 O 1798.99 -1.85876 -0.313443 0
M  V30 19441 C 1796.11 -3.38241 -0.176244 0
M  V30 19442 C 1795.16 -4.20064 0.738124 0
M  V30 19443 S 1795.99 -4.87432 2.21744 0
M  V30 19444 C 1797.15 -6.07969 1.48742 0
M  V30 19445 H 1797.38 -2.60628 1.43039 0
M  V30 19446 H 1794.91 -1.29239 0.844781 0
M  V30 19447 H 1796.87 -4.06129 -0.597442 0
M  V30 19448 H 1795.53 -2.97146 -1.01799 0
M  V30 19449 H 1794.73 -5.03727 0.165993 0
M  V30 19450 H 1794.33 -3.57523 1.09789 0
M  V30 19451 H 1796.62 -6.7303 0.777013 0
M  V30 19452 H 1797.56 -6.69676 2.30085 0
M  V30 19453 H 1797.97 -5.55884 0.982513 0
M  V30 19454 N 1797.37 -0.812977 -1.35013 0
M  V30 19455 C 1798.3 -0.242397 -2.32238 0
M  V30 19456 C 1799.28 0.635676 -1.57776 0
M  V30 19457 O 1800.47 0.564621 -1.85811 0
M  V30 19458 C 1797.6 0.604686 -3.41995 0
M  V30 19459 C 1796.55 -0.17542 -4.2764 0
M  V30 19460 C 1795.88 0.793772 -5.28775 0
M  V30 19461 C 1797.18 -1.37802 -5.03794 0
M  V30 19462 H 1798.87 -1.0547 -2.80208 0
M  V30 19463 H 1796.42 -0.508619 -1.34718 0
M  V30 19464 H 1798.37 1.01396 -4.09019 0
M  V30 19465 H 1797.09 1.44994 -2.9265 0
M  V30 19466 H 1795.75 -0.565948 -3.62205 0
M  V30 19467 H 1795.4 1.63471 -4.75696 0
M  V30 19468 H 1795.1 0.276085 -5.86951 0
M  V30 19469 H 1796.62 1.20112 -5.9867 0
M  V30 19470 H 1798.04 -1.04328 -5.63727 0
M  V30 19471 H 1796.43 -1.83064 -5.71496 0
M  V30 19472 H 1797.5 -2.16138 -4.34065 0
M  V30 19473 N 1798.85 1.47045 -0.567045 0
M  V30 19474 C 1799.8 2.31838 0.188075 0
M  V30 19475 C 1800.79 1.4353 0.899752 0
M  V30 19476 O 1802 1.60241 0.81992 0
M  V30 19477 H 1798.37 0.747783 0.0795226 0
M  V30 19478 H 1800.34 2.9336 -0.546121 0
M  V30 19479 C 1799.09 3.26387 1.19861 0
M  V30 19480 H 1798.41 3.94308 0.660412 0
M  V30 19481 H 1799.85 3.8853 1.69767 0
M  V30 19482 C 1798.31 2.50612 2.25157 0
M  V30 19483 O 1798.84 2.25771 3.3225 0
M  V30 19484 N 1797.05 2.11447 1.99345 0
M  V30 19485 H 1796.6 2.31849 1.12267 0
M  V30 19486 H 1796.55 1.61064 2.7001 0
M  V30 19487 N 1800.33 0.304 1.5464 0
M  V30 19488 C 1801.55 -0.306916 2.04611 0
M  V30 19489 C 1801.97 -1.4729 1.18114 0
M  V30 19490 O 1801.33 -1.81317 0.20743 0
M  V30 19491 C 1801.38 -0.760263 3.53415 0
M  V30 19492 O 1801.1 0.359321 4.36624 0
M  V30 19493 C 1802.6 -1.43602 4.19396 0
M  V30 19494 H 1799.82 -0.066247 0.667722 0
M  V30 19495 H 1802.36 0.444504 1.99611 0
M  V30 19496 H 1800.52 -1.4617 3.58766 0
M  V30 19497 H 1800.93 0.00582275 5.245 0
M  V30 19498 H 1802.41 -1.70436 5.25029 0
M  V30 19499 H 1802.88 -2.37705 3.69314 0
M  V30 19500 H 1803.49 -0.777683 4.18129 0
M  V30 19501 N 1801.8 -1.57568 0.0317802 0
M  V30 19502 C 1802.73 -2.13412 -0.947499 0
M  V30 19503 C 1803.71 -1.05091 -1.33753 0
M  V30 19504 O 1804.9 -1.32936 -1.41568 0
M  V30 19505 C 1802.03 -2.66337 -2.22895 0
M  V30 19506 C 1800.98 -3.79469 -1.97958 0
M  V30 19507 C 1800.31 -4.18833 -3.3239 0
M  V30 19508 C 1801.61 -5.05432 -1.31664 0
M  V30 19509 H 1803.3 -2.95488 -0.482417 0
M  V30 19510 H 1800.85 -1.42142 -0.230603 0
M  V30 19511 H 1802.8 -3.04039 -2.91784 0
M  V30 19512 H 1801.53 -1.81426 -2.71574 0
M  V30 19513 H 1800.19 -3.42209 -1.31485 0
M  V30 19514 H 1799.83 -3.30899 -3.78833 0
M  V30 19515 H 1799.53 -4.95071 -3.16511 0
M  V30 19516 H 1801.06 -4.5912 -4.02544 0
M  V30 19517 H 1802.47 -5.40704 -1.90558 0
M  V30 19518 H 1800.87 -5.86686 -1.26173 0
M  V30 19519 H 1801.94 -4.84032 -0.28996 0
M  V30 19520 N 1803.28 0.241399 -1.5574 0
M  V30 19521 C 1804.52 0.975956 -1.79595 0
M  V30 19522 C 1804.89 1.82312 -0.60218 0
M  V30 19523 O 1806.09 2.58988 -0.719614 0
M  V30 19524 C 1804.36 1.80917 -3.08227 0
M  V30 19525 S 1805.92 2.60208 -3.53323 0
M  V30 19526 H 1802.74 0.328184 -0.630727 0
M  V30 19527 H 1805.34 0.243307 -1.9398 0
M  V30 19528 H 1804.04 1.1766 -3.93172 0
M  V30 19529 H 1803.57 2.58447 -2.96595 0
M  V30 19530 H 1805.59 3.83317 -3.15091 0
M  V30 19531 N 1804.76 1.49212 0.507292 0
M  V30 19532 C 1805.69 1.68326 1.61829 0
M  V30 19533 C 1806.67 0.531969 1.61568 0
M  V30 19534 O 1807.86 0.767104 1.78407 0
M  V30 19535 C 1804.99 1.74394 3.0034 0
M  V30 19536 C 1803.94 2.89251 3.15465 0
M  V30 19537 C 1803.27 2.80426 4.55264 0
M  V30 19538 C 1804.57 4.30269 2.96085 0
M  V30 19539 H 1806.26 2.6134 1.46087 0
M  V30 19540 H 1803.81 1.25765 0.701367 0
M  V30 19541 H 1805.76 1.86353 3.77956 0
M  V30 19542 H 1804.48 0.779748 3.17155 0
M  V30 19543 H 1803.14 2.76884 2.40272 0
M  V30 19544 H 1802.79 1.81928 4.68947 0
M  V30 19545 H 1802.49 3.57511 4.66326 0
M  V30 19546 H 1804.01 2.94384 5.34949 0
M  V30 19547 H 1805.43 4.4335 3.63475 0
M  V30 19548 H 1803.83 5.08527 3.18623 0
M  V30 19549 H 1804.9 4.45151 1.92272 0
M  V30 19550 N 1806.24 -0.757876 1.38181 0
M  V30 19551 C 1807.2 -1.85317 1.34871 0
M  V30 19552 C 1808.2 -1.58844 0.250041 0
M  V30 19553 O 1809.39 -1.66668 0.506688 0
M  V30 19554 C 1806.52 -3.22712 1.09864 0
M  V30 19555 H 1807.72 -1.89661 2.32312 0
M  V30 19556 H 1805.27 -0.959122 1.23412 0
M  V30 19557 H 1806 -3.24039 0.130112 0
M  V30 19558 H 1805.79 -3.4332 1.89403 0
M  V30 19559 H 1807.28 -4.02789 1.10232 0
M  V30 19560 N 1807.72 -1.22979 -0.985586 0
M  V30 19561 C 1808.65 -0.949615 -2.07503 0
M  V30 19562 C 1809.63 0.110178 -1.62226 0
M  V30 19563 O 1810.81 -0.022974 -1.88486 0
M  V30 19564 C 1807.94 -0.429626 -3.35964 0
M  V30 19565 C 1806.98 -1.47522 -4.00174 0
M  V30 19566 S 1807.82 -3.05095 -4.40088 0
M  V30 19567 C 1808.97 -2.54753 -5.71709 0
M  V30 19568 H 1809.21 -1.87215 -2.3095 0
M  V30 19569 H 1806.74 -1.06167 -1.12107 0
M  V30 19570 H 1808.7 -0.136212 -4.10274 0
M  V30 19571 H 1807.36 0.471907 -3.10535 0
M  V30 19572 H 1806.55 -1.06142 -4.92697 0
M  V30 19573 H 1806.15 -1.71772 -3.3222 0
M  V30 19574 H 1808.45 -1.9645 -6.48393 0
M  V30 19575 H 1809.39 -3.45795 -6.17925 0
M  V30 19576 H 1809.8 -1.95785 -5.29461 0
M  V30 19577 N 1809.19 1.18355 -1.04066 0
M  V30 19578 C 1810.13 2.21482 -0.58977 0
M  V30 19579 C 1811.14 1.59198 0.340576 0
M  V30 19580 O 1812.33 1.77988 0.135094 0
M  V30 19581 C 1809.43 3.3853 0.158397 0
M  V30 19582 C 1808.6 4.30392 -0.779824 0
M  V30 19583 C 1807.66 5.26147 -0.0749517 0
M  V30 19584 O 1806.69 5.64812 -0.705381 0
M  V30 19585 N 1807.89 5.68137 1.19168 0
M  V30 19586 H 1810.65 2.60791 -1.47676 0
M  V30 19587 H 1808.21 1.33141 -0.921151 0
M  V30 19588 H 1810.21 3.99611 0.639788 0
M  V30 19589 H 1808.78 2.97913 0.946929 0
M  V30 19590 H 1808 3.66915 -1.44107 0
M  V30 19591 H 1809.28 4.88668 -1.41707 0
M  V30 19592 H 1808.68 5.38777 1.7244 0
M  V30 19593 H 1807.24 6.31415 1.61735 0
M  V30 19594 N 1810.67 0.820125 1.3458 0
M  V30 19595 C 1811.62 0.212417 2.27008 0
M  V30 19596 C 1812.61 -0.621679 1.48405 0
M  V30 19597 O 1813.8 -0.476717 1.70459 0
M  V30 19598 C 1810.93 -0.627099 3.37524 0
M  V30 19599 C 1810.01 0.217471 4.23542 0
M  V30 19600 N 1810.4 1.28711 4.89149 0
M  V30 19601 C 1808.7 0.00134142 4.46 0
M  V30 19602 C 1809.4 1.80387 5.53024 0
M  V30 19603 N 1808.38 1.10819 5.32184 0
M  V30 19604 H 1812.18 1.03066 2.75236 0
M  V30 19605 H 1809.7 0.662649 1.48266 0
M  V30 19606 H 1811.69 -1.07861 4.02705 0
M  V30 19607 H 1810.35 -1.44353 2.90847 0
M  V30 19608 H 1811.36 1.66989 4.9024 0
M  V30 19609 H 1808.04 -0.783152 4.10089 0
M  V30 19610 H 1809.43 2.69858 6.15326 0
M  V30 19611 N 1812.15 -1.46743 0.574835 0
M  V30 19612 C 1813.38 -2.06505 0.0627081 0
M  V30 19613 C 1813.79 -1.42535 -1.2442 0
M  V30 19614 O 1813.13 -0.522043 -1.76126 0
M  V30 19615 C 1813.19 -3.59021 -0.185574 0
M  V30 19616 C 1812.86 -4.45136 1.03455 0
M  V30 19617 C 1813.85 -4.82163 1.94461 0
M  V30 19618 C 1811.54 -4.8639 1.25418 0
M  V30 19619 C 1813.53 -5.59262 3.05786 0
M  V30 19620 C 1811.22 -5.63251 2.37049 0
M  V30 19621 C 1812.22 -5.99599 3.27062 0
M  V30 19622 O 1811.91 -6.74908 4.36755 0
M  V30 19623 H 1811.64 -0.674082 0.0508932 0
M  V30 19624 H 1814.19 -1.89476 0.792968 0
M  V30 19625 H 1812.42 -3.74327 -0.970354 0
M  V30 19626 H 1814.11 -4.00739 -0.645242 0
M  V30 19627 H 1814.88 -4.50876 1.78705 0
M  V30 19628 H 1810.76 -4.57553 0.56266 0
M  V30 19629 H 1814.3 -5.87552 3.7607 0
M  V30 19630 H 1810.2 -5.93951 2.5277 0
M  V30 19631 H 1810.97 -6.93323 4.35024 0
M  V30 19632 N 1813.63 -0.312197 -1.54477 0
M  V30 19633 C 1814.54 0.568096 -2.27618 0
M  V30 19634 C 1815.55 1.13892 -1.31547 0
M  V30 19635 O 1816.73 1.16131 -1.64546 0
M  V30 19636 C 1813.8 1.71843 -3.01116 0
M  V30 19637 C 1812.86 1.18056 -4.12748 0
M  V30 19638 C 1812.09 2.27607 -4.82733 0
M  V30 19639 O 1812.31 3.4773 -4.52151 0
M  V30 19640 O 1811.25 1.93667 -5.69892 0
M  V30 19641 H 1815.07 -0.0255513 -3.03689 0
M  V30 19642 H 1812.66 -0.0782698 -1.49195 0
M  V30 19643 H 1814.54 2.38839 -3.4718 0
M  V30 19644 H 1813.21 2.29847 -2.2793 0
M  V30 19645 H 1812.12 0.476007 -3.71059 0
M  V30 19646 H 1813.45 0.645802 -4.87945 0
M  V30 19647 N 1815.11 1.57549 -0.040136 0
M  V30 19648 C 1816.04 2.07803 0.966975 0
M  V30 19649 C 1817.05 1.00363 1.28184 0
M  V30 19650 O 1818.24 1.27957 1.24456 0
M  V30 19651 C 1815.34 2.49688 2.29149 0
M  V30 19652 C 1814.51 3.80336 2.16017 0
M  V30 19653 C 1813.57 4.08652 3.31497 0
M  V30 19654 O 1812.6 4.78739 3.07892 0
M  V30 19655 N 1813.8 3.59693 4.55633 0
M  V30 19656 H 1816.57 2.94829 0.538115 0
M  V30 19657 H 1814.13 1.61237 0.146368 0
M  V30 19658 H 1816.12 2.65715 3.0525 0
M  V30 19659 H 1814.69 1.67969 2.63638 0
M  V30 19660 H 1813.91 3.73998 1.24575 0
M  V30 19661 H 1815.2 4.65912 2.04458 0
M  V30 19662 H 1814.59 3.03012 4.77703 0
M  V30 19663 H 1813.15 3.80978 5.28866 0
M  V30 19664 N 1816.58 -0.233136 1.55866 0
M  V30 19665 C 1817.81 -0.980602 1.82754 0
M  V30 19666 C 1818.23 -1.77624 0.618988 0
M  V30 19667 O 1817.59 -1.76074 -0.432148 0
M  V30 19668 C 1817.64 -1.88319 3.07519 0
M  V30 19669 O 1816.74 -2.97692 2.85401 0
M  V30 19670 H 1816.09 -0.278295 0.602867 0
M  V30 19671 H 1818.62 -0.249956 2.03067 0
M  V30 19672 H 1818.63 -2.29523 3.37318 0
M  V30 19673 H 1817.3 -1.29831 3.95116 0
M  V30 19674 H 1815.88 -2.60517 2.66805 0
M  V30 19675 N 1818.06 -1.49479 -0.499372 0
M  V30 19676 C 1819.01 -1.66268 -1.60073 0
M  V30 19677 C 1819.98 -0.504137 -1.58265 0
M  V30 19678 O 1821.17 -0.731358 -1.76227 0
M  V30 19679 C 1818.31 -1.73678 -2.98211 0
M  V30 19680 C 1817.42 -3.00848 -3.10023 0
M  V30 19681 C 1816.55 -2.99227 -4.38904 0
M  V30 19682 C 1815.59 -4.20969 -4.44355 0
M  V30 19683 N 1814.73 -4.17249 -5.64666 0
M  V30 19684 H 1819.57 -2.60308 -1.45065 0
M  V30 19685 H 1817.11 -1.29063 -0.705774 0
M  V30 19686 H 1819.06 -1.75956 -3.7828 0
M  V30 19687 H 1817.69 -0.831037 -3.11919 0
M  V30 19688 H 1816.75 -3.08175 -2.23008 0
M  V30 19689 H 1818.06 -3.90841 -3.09911 0
M  V30 19690 H 1817.21 -3.00076 -5.27294 0
M  V30 19691 H 1815.95 -2.07015 -4.41584 0
M  V30 19692 H 1814.96 -4.20362 -3.54366 0
M  V30 19693 H 1816.18 -5.14376 -4.4339 0
M  V30 19694 H 1814.13 -3.27875 -5.68185 0
M  V30 19695 H 1814.04 -5.00979 -5.66177 0
M  V30 19696 H 1815.31 -4.22203 -6.55259 0
M  V30 19697 N 1819.54 0.750537 -1.38581 0
M  V30 19698 C 1820.47 1.87248 -1.30435 0
M  V30 19699 C 1821.45 1.61591 -0.180819 0
M  V30 19700 O 1822.64 1.85057 -0.358655 0
M  V30 19701 C 1819.76 3.22922 -1.02173 0
M  V30 19702 C 1818.81 3.67461 -2.16505 0
M  V30 19703 S 1819.64 3.78642 -3.7867 0
M  V30 19704 C 1820.8 5.1713 -3.52601 0
M  V30 19705 H 1821.03 1.93872 -2.25391 0
M  V30 19706 H 1818.56 0.913828 -1.24453 0
M  V30 19707 H 1820.52 4.01272 -0.865502 0
M  V30 19708 H 1819.18 3.13973 -0.0893025 0
M  V30 19709 H 1818.38 4.65879 -1.92284 0
M  V30 19710 H 1817.98 2.96273 -2.28251 0
M  V30 19711 H 1820.27 6.0298 -3.08904 0
M  V30 19712 H 1821.21 5.46374 -4.50423 0
M  V30 19713 H 1821.62 4.86071 -2.87045 0
M  V30 19714 N 1821.02 1.235 0.979051 0
M  V30 19715 C 1822.27 1.06791 1.72052 0
M  V30 19716 C 1822.59 -0.395002 1.90447 0
M  V30 19717 O 1821.85 -1.30872 1.45503 0
M  V30 19718 C 1822.15 1.74004 3.12182 0
M  V30 19719 C 1821.81 3.23924 3.13662 0
M  V30 19720 C 1820.48 3.64828 3.13774 0
M  V30 19721 C 1822.83 4.19818 3.08872 0
M  V30 19722 C 1820.16 5.00083 3.06813 0
M  V30 19723 C 1822.51 5.55066 3.03454 0
M  V30 19724 C 1821.17 5.95332 3.01888 0
M  V30 19725 H 1820.44 0.390774 0.629584 0
M  V30 19726 H 1823.09 1.53452 1.14563 0
M  V30 19727 H 1821.39 1.19705 3.73066 0
M  V30 19728 H 1823.09 1.58551 3.68324 0
M  V30 19729 H 1819.68 2.91363 3.14334 0
M  V30 19730 H 1823.87 3.89225 3.07925 0
M  V30 19731 H 1819.12 5.30492 3.03954 0
M  V30 19732 H 1823.3 6.29085 2.98705 0
M  V30 19733 H 1820.92 7.001 2.96249 0
M  V30 19734 N 1822.5 -1.17802 1.04693 0
M  V30 19735 C 1823.45 -2.23698 0.637319 0
M  V30 19736 C 1824.44 -1.65974 -0.338957 0
M  V30 19737 O 1825.65 -1.78822 -0.205565 0
M  V30 19738 H 1822.02 -0.728146 0.187903 0
M  V30 19739 H 1823.99 -2.55549 1.5407 0
M  V30 19740 C 1822.74 -3.47693 0.0227662 0
M  V30 19741 H 1822.06 -3.92412 0.765058 0
M  V30 19742 H 1823.5 -4.23394 -0.22653 0
M  V30 19743 C 1821.96 -3.13679 -1.22912 0
M  V30 19744 O 1822.49 -3.27993 -2.31913 0
M  V30 19745 N 1820.7 -2.67948 -1.12483 0
M  V30 19746 H 1820.25 -2.565 -0.237818 0
M  V30 19747 H 1820.2 -2.45562 -1.96333 0
M  V30 19748 N 1823.98 -0.827251 -1.34143 0
M  V30 19749 C 1825.25 -0.339793 -1.92626 0
M  V30 19750 C 1825.63 1.17342 -1.75482 0
M  V30 19751 O 1824.98 1.98251 -1.13616 0
M  V30 19752 C 1825.19 -0.773891 -3.40312 0
M  V30 19753 C 1826.54 -0.77521 -4.17463 0
M  V30 19754 O 1827.56 -0.716748 -3.48914 0
M  V30 19755 O 1826.42 -0.852347 -5.39812 0
M  V30 19756 H 1823.52 -0.0937486 -0.821669 0
M  V30 19757 H 1826.06 -0.91233 -1.4309 0
M  V30 19758 H 1824.83 -1.81597 -3.46609 0
M  V30 19759 H 1824.46 -0.177287 -3.97205 0
M  V30 19760 N 1825.45 1.46436 -0.582609 0
M  V30 19761 C 1826.42 2.28769 0.140502 0
M  V30 19762 C 1827.42 1.38385 0.818911 0
M  V30 19763 O 1828.61 1.60763 0.670882 0
M  V30 19764 C 1825.74 3.18765 1.20836 0
M  V30 19765 H 1826.93 2.94178 -0.583049 0
M  V30 19766 H 1824.48 1.52544 -0.340575 0
M  V30 19767 H 1825.22 2.58103 1.9635 0
M  V30 19768 H 1825 3.85312 0.726417 0
M  V30 19769 H 1826.49 3.80735 1.71553 0
M  V30 19770 N 1826.93 0.320385 1.54309 0
M  V30 19771 C 1827.86 -0.589487 2.20455 0
M  V30 19772 C 1828.84 -1.11816 1.1805 0
M  V30 19773 O 1830.03 -1.18276 1.46776 0
M  V30 19774 C 1827.15 -1.80854 2.86373 0
M  V30 19775 C 1826.2 -1.41139 4.0247 0
M  V30 19776 S 1827.03 -0.450803 5.33599 0
M  V30 19777 C 1828.19 -1.67721 6.03009 0
M  V30 19778 H 1828.42 -0.0275989 2.97287 0
M  V30 19779 H 1825.95 0.104475 1.54046 0
M  V30 19780 H 1827.91 -2.50803 3.24974 0
M  V30 19781 H 1826.57 -2.34161 2.0935 0
M  V30 19782 H 1825.77 -2.31969 4.47444 0
M  V30 19783 H 1825.37 -0.791646 3.65526 0
M  V30 19784 H 1827.66 -2.6151 6.24995 0
M  V30 19785 H 1828.6 -1.26968 6.96624 0
M  V30 19786 H 1829.01 -1.86274 5.32881 0
M  V30 19787 N 1828.41 -1.57525 0.0484906 0
M  V30 19788 C 1829.69 -1.83927 -0.66561 0
M  V30 19789 C 1830.07 -0.93636 -1.89197 0
M  V30 19790 O 1829.41 0.00326905 -2.285 0
M  V30 19791 C 1829.62 -3.33595 -1.02545 0
M  V30 19792 C 1830.97 -4.00544 -1.40889 0
M  V30 19793 O 1832 -3.38204 -1.11787 0
M  V30 19794 O 1830.86 -5.10454 -1.95189 0
M  V30 19795 H 1827.95 -0.759042 -0.328305 0
M  V30 19796 H 1830.5 -1.69522 0.0776497 0
M  V30 19797 H 1829.27 -3.90999 -0.153456 0
M  V30 19798 H 1828.89 -3.53177 -1.82625 0
M  V30 19799 N 1829.89 0.224867 -1.55988 0
M  V30 19800 C 1831.14 0.947776 -1.78045 0
M  V30 19801 C 1831.45 1.85632 -0.616454 0
M  V30 19802 O 1832.66 2.61763 -0.720579 0
M  V30 19803 C 1831.11 1.73546 -3.15293 0
M  V30 19804 C 1830.72 0.873219 -4.39407 0
M  V30 19805 C 1832.46 2.44978 -3.46679 0
M  V30 19806 C 1830.37 1.65806 -5.67682 0
M  V30 19807 H 1829.3 0.357623 -0.663793 0
M  V30 19808 H 1831.95 0.201754 -1.82388 0
M  V30 19809 H 1830.33 2.52426 -3.05118 0
M  V30 19810 H 1831.51 0.125187 -4.6063 0
M  V30 19811 H 1829.82 0.271179 -4.15516 0
M  V30 19812 H 1832.42 3.04192 -4.3974 0
M  V30 19813 H 1832.76 3.17699 -2.69023 0
M  V30 19814 H 1833.3 1.7309 -3.58168 0
M  V30 19815 H 1830.03 0.974191 -6.4822 0
M  V30 19816 H 1829.55 2.38079 -5.50526 0
M  V30 19817 H 1831.23 2.21959 -6.07736 0
M  V30 19818 N 1831.37 1.49742 0.491438 0
M  V30 19819 C 1832.3 1.70033 1.60034 0
M  V30 19820 C 1833.28 0.549076 1.60994 0
M  V30 19821 O 1834.46 0.785983 1.77584 0
M  V30 19822 C 1831.59 1.7757 2.98473 0
M  V30 19823 C 1830.55 2.9258 3.12379 0
M  V30 19824 C 1829.87 2.85239 4.52264 0
M  V30 19825 C 1831.17 4.33385 2.91504 0
M  V30 19826 H 1832.87 2.62875 1.43307 0
M  V30 19827 H 1830.41 1.26502 0.687989 0
M  V30 19828 H 1832.36 1.90351 3.75958 0
M  V30 19829 H 1831.09 0.813343 3.1631 0
M  V30 19830 H 1829.75 2.79417 2.37322 0
M  V30 19831 H 1829.4 1.86892 4.66991 0
M  V30 19832 H 1829.1 3.62437 4.62508 0
M  V30 19833 H 1830.62 3.00041 5.31797 0
M  V30 19834 H 1832.03 4.4718 3.58752 0
M  V30 19835 H 1830.43 5.11878 3.13211 0
M  V30 19836 H 1831.5 4.47166 1.87539 0
M  V30 19837 N 1832.84 -0.743177 1.38977 0
M  V30 19838 C 1833.79 -1.87846 1.37174 0
M  V30 19839 C 1834.79 -1.67454 0.256059 0
M  V30 19840 O 1835.99 -1.74895 0.425658 0
M  V30 19841 H 1832.37 -0.618206 0.428166 0
M  V30 19842 H 1834.34 -1.86483 2.32952 0
M  V30 19843 C 1833.09 -3.25443 1.22401 0
M  V30 19844 H 1832.41 -3.41727 2.07516 0
M  V30 19845 H 1833.85 -4.05095 1.25195 0
M  V30 19846 C 1832.31 -3.36831 -0.0682569 0
M  V30 19847 O 1832.84 -3.87964 -1.04147 0
M  V30 19848 N 1831.05 -2.90315 -0.128582 0
M  V30 19849 H 1830.59 -2.48893 0.664077 0
M  V30 19850 H 1830.55 -2.98315 -0.992762 0
M  V30 19851 N 1834.32 -1.24018 -0.972487 0
M  V30 19852 C 1835.26 -0.97157 -2.06484 0
M  V30 19853 C 1836.23 0.0929652 -1.62334 0
M  V30 19854 O 1837.42 -0.0429642 -1.88451 0
M  V30 19855 C 1834.54 -0.465235 -3.3549 0
M  V30 19856 C 1833.59 -1.51759 -3.98587 0
M  V30 19857 S 1834.42 -3.09746 -4.36827 0
M  V30 19858 C 1835.58 -2.60803 -5.68975 0
M  V30 19859 H 1835.81 -1.89654 -2.28951 0
M  V30 19860 H 1833.35 -1.0735 -1.10975 0
M  V30 19861 H 1835.3 -0.17972 -4.10106 0
M  V30 19862 H 1833.96 0.438944 -3.11018 0
M  V30 19863 H 1833.16 -1.11362 -4.91543 0
M  V30 19864 H 1832.76 -1.75286 -3.3038 0
M  V30 19865 H 1835.05 -2.03316 -6.46273 0
M  V30 19866 H 1835.99 -3.52329 -6.14223 0
M  V30 19867 H 1836.4 -2.0139 -5.27354 0
M  V30 19868 N 1835.8 1.17245 -1.05316 0
M  V30 19869 C 1837.05 1.87813 -0.765112 0
M  V30 19870 C 1837.38 1.80907 0.706147 0
M  V30 19871 O 1836.65 1.21793 1.51647 0
M  V30 19872 C 1836.94 3.3779 -1.24779 0
M  V30 19873 C 1836.79 3.53441 -2.78208 0
M  V30 19874 C 1838.11 4.31857 -0.847805 0
M  V30 19875 H 1835.23 0.681979 -0.279415 0
M  V30 19876 H 1837.87 1.37869 -1.30737 0
M  V30 19877 H 1836.02 3.80456 -0.786487 0
M  V30 19878 H 1837.69 3.19782 -3.32472 0
M  V30 19879 H 1835.94 2.95678 -3.17423 0
M  V30 19880 H 1836.61 4.58725 -3.07043 0
M  V30 19881 H 1839.08 3.97039 -1.24496 0
M  V30 19882 H 1837.96 5.35326 -1.21313 0
M  V30 19883 H 1838.22 4.41403 0.248104 0
M  V30 19884 N 1837.28 0.834353 1.33702 0
M  V30 19885 C 1838.53 0.427887 1.97928 0
M  V30 19886 C 1838.85 -1.0118 1.66111 0
M  V30 19887 O 1838.11 -1.72144 0.930848 0
M  V30 19888 C 1838.41 0.590236 3.52493 0
M  V30 19889 C 1838.07 1.99735 4.04249 0
M  V30 19890 C 1836.74 2.38224 4.18094 0
M  V30 19891 C 1839.09 2.91665 4.3195 0
M  V30 19892 C 1836.42 3.67957 4.56973 0
M  V30 19893 C 1838.77 4.20874 4.72279 0
M  V30 19894 C 1837.43 4.59326 4.8433 0
M  V30 19895 H 1836.7 0.156575 0.724269 0
M  V30 19896 H 1839.35 1.06051 1.59454 0
M  V30 19897 H 1837.65 -0.125718 3.91598 0
M  V30 19898 H 1839.35 0.256094 4.00181 0
M  V30 19899 H 1835.94 1.6884 3.93943 0
M  V30 19900 H 1840.12 2.63168 4.20781 0
M  V30 19901 H 1835.38 3.9756 4.64495 0
M  V30 19902 H 1839.55 4.92187 4.92671 0
M  V30 19903 H 1837.18 5.59901 5.14213 0
M  V30 19904 N 1838.76 -1.46125 0.590367 0
M  V30 19905 C 1839.98 -2.06726 0.0847301 0
M  V30 19906 C 1840.4 -1.43788 -1.22354 0
M  V30 19907 O 1839.76 -0.545876 -1.74145 0
M  V30 19908 C 1839.81 -3.61412 -0.079655 0
M  V30 19909 O 1839.53 -4.21998 1.17684 0
M  V30 19910 C 1841.03 -4.38961 -0.618754 0
M  V30 19911 H 1838.25 -0.668226 0.0609525 0
M  V30 19912 H 1840.79 -1.87636 0.813212 0
M  V30 19913 H 1838.95 -3.79904 -0.758389 0
M  V30 19914 H 1839.36 -5.14966 0.995528 0
M  V30 19915 H 1840.84 -5.47759 -0.682926 0
M  V30 19916 H 1841.31 -4.07537 -1.63739 0
M  V30 19917 H 1841.92 -4.25292 0.0253632 0
M  V30 19918 N 1840.23 -0.328564 -1.54137 0
M  V30 19919 C 1841.48 0.271967 -2.00262 0
M  V30 19920 C 1841.8 1.5226 -1.21827 0
M  V30 19921 O 1841.07 1.93245 -0.321415 0
M  V30 19922 H 1839.65 0.103484 -0.739797 0
M  V30 19923 H 1842.32 -0.446264 -1.89722 0
M  V30 19924 H 1841.41 0.52488 -3.07655 0
M  V30 19925 N 1841.71 1.57497 -0.0568439 0
M  V30 19926 C 1842.96 1.932 0.61658 0
M  V30 19927 C 1843.29 0.935936 1.70158 0
M  V30 19928 O 1842.57 -0.0372005 1.94464 0
M  V30 19929 C 1842.85 3.39254 1.20742 0
M  V30 19930 C 1842.7 4.49612 0.130081 0
M  V30 19931 C 1844.02 3.85817 2.11738 0
M  V30 19932 H 1841.14 0.702558 0.222668 0
M  V30 19933 H 1843.78 1.89622 -0.119765 0
M  V30 19934 H 1841.93 3.42434 1.83497 0
M  V30 19935 H 1843.6 4.58559 -0.502172 0
M  V30 19936 H 1841.85 4.30411 -0.541167 0
M  V30 19937 H 1842.52 5.48906 0.583606 0
M  V30 19938 H 1844.99 3.8455 1.58936 0
M  V30 19939 H 1843.87 4.88653 2.50019 0
M  V30 19940 H 1844.13 3.22899 3.01974 0
M  V30 19941 N 1843.19 -0.216591 1.56105 0
M  V30 19942 C 1844.44 -0.940249 1.79348 0
M  V30 19943 C 1844.77 -1.84135 0.626451 0
M  V30 19944 O 1844.02 -1.91796 -0.388932 0
M  V30 19945 C 1844.32 -1.80637 3.08391 0
M  V30 19946 C 1843.99 -1.05808 4.3831 0
M  V30 19947 C 1842.65 -0.851392 4.73608 0
M  V30 19948 C 1845 -0.530015 5.18498 0
M  V30 19949 C 1842.33 -0.104822 5.86606 0
M  V30 19950 C 1844.68 0.203236 6.32273 0
M  V30 19951 C 1843.34 0.42113 6.6617 0
M  V30 19952 H 1842.61 -0.344062 0.656279 0
M  V30 19953 H 1845.26 -0.208069 1.90366 0
M  V30 19954 H 1843.57 -2.60656 2.92516 0
M  V30 19955 H 1845.26 -2.36852 3.23577 0
M  V30 19956 H 1841.85 -1.22915 4.10597 0
M  V30 19957 H 1846.04 -0.677154 4.91659 0
M  V30 19958 H 1841.29 0.074177 6.11355 0
M  V30 19959 H 1845.47 0.619898 6.93636 0
M  V30 19960 H 1843.09 1.00155 7.53573 0
M  V30 19961 N 1844.67 -1.5 -0.48349 0
M  V30 19962 C 1845.9 -1.64105 -1.26004 0
M  V30 19963 C 1846.31 -0.319389 -1.86079 0
M  V30 19964 O 1845.67 0.697243 -1.68656 0
M  V30 19965 C 1845.72 -2.72299 -2.37772 0
M  V30 19966 O 1845.44 -3.99341 -1.80163 0
M  V30 19967 C 1846.94 -2.97266 -3.28858 0
M  V30 19968 H 1844.16 -0.551971 -0.381535 0
M  V30 19969 H 1846.71 -1.96146 -0.57852 0
M  V30 19970 H 1844.86 -2.42987 -3.01722 0
M  V30 19971 H 1845.27 -4.59077 -2.5367 0
M  V30 19972 H 1846.75 -3.76662 -4.03521 0
M  V30 19973 H 1847.23 -2.07855 -3.86902 0
M  V30 19974 H 1847.83 -3.28062 -2.70657 0
M  V30 19975 N 1846.15 0.735796 -1.39369 0
M  V30 19976 C 1847.39 1.49756 -1.36752 0
M  V30 19977 C 1847.73 1.94165 0.036815 0
M  V30 19978 O 1847 1.66728 1.00159 0
M  V30 19979 C 1847.28 2.73779 -2.33916 0
M  V30 19980 C 1847.14 2.35394 -3.83288 0
M  V30 19981 C 1848.46 3.75875 -2.28924 0
M  V30 19982 H 1845.57 0.543236 -0.49806 0
M  V30 19983 H 1848.22 0.841381 -1.70355 0
M  V30 19984 H 1846.37 3.29768 -2.05391 0
M  V30 19985 H 1848.04 1.85043 -4.2256 0
M  V30 19986 H 1846.28 1.67632 -4.00102 0
M  V30 19987 H 1846.95 3.24206 -4.4676 0
M  V30 19988 H 1849.43 3.29469 -2.54144 0
M  V30 19989 H 1848.3 4.60321 -2.98991 0
M  V30 19990 H 1848.57 4.22739 -1.29399 0
M  V30 19991 N 1847.63 1.24532 0.965897 0
M  V30 19992 C 1848.54 1.0564 2.09469 0
M  V30 19993 C 1849.55 -0.00330962 1.74 0
M  V30 19994 O 1850.73 0.195248 2.00451 0
M  V30 19995 C 1847.79 0.665318 3.40256 0
M  V30 19996 C 1846.85 1.80171 3.89663 0
M  V30 19997 C 1846.09 1.42919 5.14208 0
M  V30 19998 O 1846.31 0.319815 5.69503 0
M  V30 19999 O 1845.24 2.25546 5.58044 0
M  V30 20000 H 1849.07 2.00277 2.28304 0
M  V30 20001 H 1846.65 1.03368 1.07868 0
M  V30 20002 H 1848.54 0.458827 4.18895 0
M  V30 20003 H 1847.21 -0.251914 3.22718 0
M  V30 20004 H 1846.12 2.06296 3.12078 0
M  V30 20005 H 1847.45 2.69778 4.11681 0
M  V30 20006 N 1849.1 -1.16685 1.05936 0
M  V30 20007 C 1850.04 -2.19862 0.611219 0
M  V30 20008 C 1851.01 -1.58471 -0.364111 0
M  V30 20009 O 1852.2 -1.86499 -0.273946 0
M  V30 20010 C 1849.33 -3.38539 -0.104458 0
M  V30 20011 C 1848.37 -4.18404 0.82706 0
M  V30 20012 S 1849.2 -4.82619 2.32034 0
M  V30 20013 C 1850.36 -6.04677 1.61605 0
M  V30 20014 H 1850.59 -2.57535 1.48536 0
M  V30 20015 H 1848.13 -1.27418 0.872005 0
M  V30 20016 H 1850.08 -4.07305 -0.511162 0
M  V30 20017 H 1848.75 -2.99238 -0.954736 0
M  V30 20018 H 1847.94 -5.03261 0.272804 0
M  V30 20019 H 1847.54 -3.55113 1.17348 0
M  V30 20020 H 1849.83 -6.7123 0.919598 0
M  V30 20021 H 1850.78 -6.64645 2.44238 0
M  V30 20022 H 1851.18 -5.53675 1.1002 0
M  V30 20023 N 1850.58 -0.841432 -1.33258 0
M  V30 20024 C 1851.83 -0.439027 -1.97991 0
M  V30 20025 C 1852.16 0.999767 -1.66488 0
M  V30 20026 O 1851.44 1.69938 -0.94612 0
M  V30 20027 C 1851.72 -0.663137 -3.53941 0
M  V30 20028 C 1851.57 -2.14939 -3.95122 0
M  V30 20029 C 1852.89 -0.11094 -4.3996 0
M  V30 20030 H 1850.01 -0.160987 -0.719203 0
M  V30 20031 H 1852.65 -1.05742 -1.57856 0
M  V30 20032 H 1850.8 -0.136765 -3.88259 0
M  V30 20033 H 1852.47 -2.74082 -3.71048 0
M  V30 20034 H 1850.72 -2.63293 -3.4476 0
M  V30 20035 H 1851.39 -2.25694 -5.03752 0
M  V30 20036 H 1853.86 -0.560898 -4.12302 0
M  V30 20037 H 1852.74 -0.297416 -5.48094 0
M  V30 20038 H 1853 0.985446 -4.30977 0
M  V30 20039 N 1852.06 1.4581 -0.598108 0
M  V30 20040 C 1852.99 2.33223 0.113747 0
M  V30 20041 C 1853.97 1.46268 0.868312 0
M  V30 20042 O 1855.16 1.75058 0.840737 0
M  V30 20043 C 1852.29 3.28815 1.11795 0
M  V30 20044 C 1851.24 4.25331 0.477223 0
M  V30 20045 C 1850.57 5.10544 1.589 0
M  V30 20046 C 1851.87 5.18894 -0.595518 0
M  V30 20047 H 1853.56 2.92992 -0.616123 0
M  V30 20048 H 1851.11 1.40888 -0.297741 0
M  V30 20049 H 1853.06 3.88832 1.62443 0
M  V30 20050 H 1851.78 2.67185 1.87829 0
M  V30 20051 H 1850.44 3.66599 -0.00831044 0
M  V30 20052 H 1850.09 4.45288 2.33939 0
M  V30 20053 H 1849.79 5.75918 1.16584 0
M  V30 20054 H 1851.31 5.73427 2.09794 0
M  V30 20055 H 1852.73 5.73037 -0.173494 0
M  V30 20056 H 1851.12 5.92694 -0.939873 0
M  V30 20057 H 1852.19 4.61895 -1.47584 0
M  V30 20058 N 1853.54 0.336733 1.53961 0
M  V30 20059 C 1854.48 -0.523198 2.24792 0
M  V30 20060 C 1855.45 -1.10107 1.24361 0
M  V30 20061 O 1856.64 -1.13895 1.53077 0
M  V30 20062 C 1853.78 -1.67166 3.0191 0
M  V30 20063 C 1852.89 -1.12176 4.17182 0
M  V30 20064 C 1852.03 -2.23697 4.81802 0
M  V30 20065 C 1851.07 -1.66023 5.89154 0
M  V30 20066 N 1850.2 -2.7126 6.47582 0
M  V30 20067 H 1855.04 0.0873707 2.97872 0
M  V30 20068 H 1852.58 0.0548897 1.46998 0
M  V30 20069 H 1854.54 -2.34768 3.44876 0
M  V30 20070 H 1853.17 -2.25332 2.31139 0
M  V30 20071 H 1852.22 -0.336885 3.78905 0
M  V30 20072 H 1853.53 -0.659852 4.94416 0
M  V30 20073 H 1852.69 -2.99178 5.27804 0
M  V30 20074 H 1851.43 -2.7323 4.03976 0
M  V30 20075 H 1850.43 -0.890457 5.42541 0
M  V30 20076 H 1851.66 -1.17352 6.68884 0
M  V30 20077 H 1849.6 -3.20059 5.72624 0
M  V30 20078 H 1849.52 -2.29671 7.20269 0
M  V30 20079 H 1850.79 -3.4653 6.98239 0
M  V30 20080 N 1855.02 -1.57465 0.0651956 0
M  V30 20081 C 1856.26 -1.93524 -0.606325 0
M  V30 20082 C 1856.59 -0.944947 -1.6966 0
M  V30 20083 O 1855.87 0.0268871 -1.94481 0
M  V30 20084 C 1856.15 -3.3989 -1.18941 0
M  V30 20085 C 1856.01 -4.49675 -0.106235 0
M  V30 20086 C 1857.32 -3.86935 -2.09689 0
M  V30 20087 H 1854.44 -0.703729 -0.218939 0
M  V30 20088 H 1857.09 -1.89556 0.12982 0
M  V30 20089 H 1855.24 -3.43402 -1.81679 0
M  V30 20090 H 1856.91 -4.58286 0.526483 0
M  V30 20091 H 1855.15 -4.30118 0.563985 0
M  V30 20092 H 1855.82 -5.49208 -0.554488 0
M  V30 20093 H 1858.3 -3.85387 -1.56895 0
M  V30 20094 H 1857.17 -4.89972 -2.47424 0
M  V30 20095 H 1857.43 -3.24496 -3.00258 0
M  V30 20096 N 1856.49 0.20831 -1.56217 0
M  V30 20097 C 1857.74 0.928839 -1.7904 0
M  V30 20098 C 1858.06 1.84968 -0.636108 0
M  V30 20099 O 1859.26 2.60984 -0.748302 0
M  V30 20100 C 1857.72 1.70192 -3.17116 0
M  V30 20101 C 1857.33 0.826564 -4.40309 0
M  V30 20102 C 1859.07 2.41287 -3.49257 0
M  V30 20103 C 1856.98 1.59775 -5.69408 0
M  V30 20104 H 1855.91 0.350563 -0.667549 0
M  V30 20105 H 1858.56 0.182398 -1.82591 0
M  V30 20106 H 1856.94 2.49176 -3.07778 0
M  V30 20107 H 1858.11 0.076324 -4.60737 0
M  V30 20108 H 1856.43 0.227092 -4.1578 0
M  V30 20109 H 1859.03 2.99511 -4.42942 0
M  V30 20110 H 1859.37 3.14827 -2.72377 0
M  V30 20111 H 1859.9 1.69282 -3.59984 0
M  V30 20112 H 1856.64 0.905384 -6.49217 0
M  V30 20113 H 1856.16 2.32227 -5.5302 0
M  V30 20114 H 1857.84 2.155 -6.10056 0
M  V30 20115 N 1857.97 1.50255 0.475528 0
M  V30 20116 C 1858.93 1.68248 1.55645 0
M  V30 20117 C 1859.93 0.553326 1.5098 0
M  V30 20118 O 1861.12 0.820274 1.53679 0
M  V30 20119 C 1858.26 1.70358 2.95281 0
M  V30 20120 H 1859.45 2.64681 1.4101 0
M  V30 20121 H 1857 1.39669 0.701594 0
M  V30 20122 H 1857.74 0.75602 3.15365 0
M  V30 20123 H 1857.52 2.52384 3.00074 0
M  V30 20124 H 1859.01 1.86249 3.73766 0
M  V30 20125 N 1859.45 -0.728395 1.39758 0
M  V30 20126 C 1860.7 -1.48808 1.37341 0
M  V30 20127 C 1861.02 -1.94479 -0.0285032 0
M  V30 20128 O 1860.28 -1.67586 -1.01062 0
M  V30 20129 C 1860.58 -2.73735 2.29791 0
M  V30 20130 C 1860.24 -2.46897 3.77296 0
M  V30 20131 C 1858.91 -2.39287 4.17487 0
M  V30 20132 C 1861.26 -2.24097 4.70564 0
M  V30 20133 C 1858.59 -2.06927 5.48997 0
M  V30 20134 C 1860.94 -1.93252 6.02359 0
M  V30 20135 C 1859.6 -1.84115 6.41606 0
M  V30 20136 H 1858.87 -0.544527 0.502565 0
M  V30 20137 H 1861.52 -0.835461 1.72315 0
M  V30 20138 H 1859.82 -3.43772 1.87957 0
M  V30 20139 H 1861.52 -3.31785 2.2521 0
M  V30 20140 H 1858.11 -2.53701 3.45447 0
M  V30 20141 H 1862.3 -2.28939 4.40341 0
M  V30 20142 H 1857.55 -1.98381 5.78321 0
M  V30 20143 H 1861.73 -1.7462 6.74152 0
M  V30 20144 H 1859.35 -1.58807 7.43427 0
M  V30 20145 N 1860.93 -1.25042 -0.959279 0
M  V30 20146 C 1861.87 -1.0502 -2.05522 0
M  V30 20147 C 1862.84 0.039194 -1.66054 0
M  V30 20148 O 1864.03 -0.11708 -1.9044 0
M  V30 20149 C 1861.17 -0.670047 -3.38533 0
M  V30 20150 C 1860.28 -1.83381 -3.91146 0
M  V30 20151 C 1859.42 -1.39844 -5.12462 0
M  V30 20152 C 1858.46 -2.53163 -5.57293 0
M  V30 20153 N 1857.59 -2.10435 -6.69822 0
M  V30 20154 H 1862.43 -1.98816 -2.21982 0
M  V30 20155 H 1859.97 -0.990139 -1.08787 0
M  V30 20156 H 1861.93 -0.430621 -4.14972 0
M  V30 20157 H 1860.56 0.230924 -3.21973 0
M  V30 20158 H 1859.61 -2.18667 -3.1127 0
M  V30 20159 H 1860.92 -2.68497 -4.2037 0
M  V30 20160 H 1860.08 -1.1184 -5.96303 0
M  V30 20161 H 1858.82 -0.51794 -4.84942 0
M  V30 20162 H 1857.82 -2.81918 -4.7202 0
M  V30 20163 H 1859.05 -3.41784 -5.86822 0
M  V30 20164 H 1856.99 -1.24794 -6.44021 0
M  V30 20165 H 1856.91 -2.89101 -6.98539 0
M  V30 20166 H 1858.18 -1.85593 -7.57084 0
M  V30 20167 N 1862.41 1.16121 -1.06553 0
M  V30 20168 C 1863.82 1.68319 -0.807804 0
M  V30 20169 C 1864.17 1.8447 0.668234 0
M  V30 20170 O 1863.29 1.54215 1.51811 0
M  V30 20171 C 1863.89 3.05738 -1.45979 0
M  V30 20172 C 1862.45 3.55046 -1.24977 0
M  V30 20173 C 1861.59 2.30965 -1.53462 0
M  V30 20174 H 1864.55 1.00447 -1.22866 0
M  V30 20175 H 1864.57 3.70266 -0.876556 0
M  V30 20176 H 1864.08 2.93951 -2.53405 0
M  V30 20177 H 1862.18 3.72087 -0.195367 0
M  V30 20178 H 1862.29 4.36979 -1.96433 0
M  V30 20179 H 1860.66 2.36107 -0.955268 0
M  V30 20180 H 1861.44 2.21773 -2.62052 0
M  V30 20181 N 1863.88 0.848487 1.3281 0
M  V30 20182 C 1864.83 0.286636 2.29013 0
M  V30 20183 C 1865.8 -0.602944 1.5477 0
M  V30 20184 O 1866.99 -0.539169 1.83024 0
M  V30 20185 C 1864.13 -0.524193 3.41096 0
M  V30 20186 C 1863.24 0.390486 4.30232 0
M  V30 20187 C 1862.37 -0.432376 5.29437 0
M  V30 20188 C 1861.41 0.48009 6.10214 0
M  V30 20189 N 1860.55 -0.30522 7.01436 0
M  V30 20190 H 1865.39 1.1123 2.76463 0
M  V30 20191 H 1862.93 0.559956 1.36025 0
M  V30 20192 H 1864.89 -1.00987 4.04793 0
M  V30 20193 H 1863.52 -1.31474 2.94813 0
M  V30 20194 H 1862.57 0.994518 3.6717 0
M  V30 20195 H 1863.88 1.09103 4.86722 0
M  V30 20196 H 1863.03 -0.981471 5.98709 0
M  V30 20197 H 1861.77 -1.16631 4.73549 0
M  V30 20198 H 1860.78 1.04112 5.39853 0
M  V30 20199 H 1862 1.21254 6.68187 0
M  V30 20200 H 1859.95 -1.02236 6.47984 0
M  V30 20201 H 1859.87 0.336414 7.55251 0
M  V30 20202 H 1861.13 -0.836242 7.75001 0
M  V30 20203 N 1865.36 -1.4549 0.605832 0
M  V30 20204 C 1866.61 -2.01852 0.10014 0
M  V30 20205 C 1866.93 -1.47699 -1.27319 0
M  V30 20206 O 1866.2 -0.670571 -1.84066 0
M  V30 20207 H 1864.78 -0.746225 0.0340291 0
M  V30 20208 H 1867.44 -1.78311 0.786834 0
M  V30 20209 H 1866.54 -3.12062 0.0485925 0
M  V30 20210 N 1866.84 -0.344893 -1.5378 0
M  V30 20211 C 1868.07 0.252193 -2.05055 0
M  V30 20212 C 1868.48 1.44657 -1.21947 0
M  V30 20213 O 1867.82 1.82018 -0.248012 0
M  V30 20214 C 1867.88 0.729619 -3.52018 0
M  V30 20215 C 1867.55 -0.345284 -4.55694 0
M  V30 20216 C 1868.54 -1.18843 -5.06135 0
M  V30 20217 C 1866.23 -0.499596 -4.99809 0
M  V30 20218 C 1868.22 -2.17141 -5.99273 0
M  V30 20219 C 1865.91 -1.48598 -5.92758 0
M  V30 20220 C 1866.91 -2.32033 -6.42378 0
M  V30 20221 O 1866.6 -3.28992 -7.33498 0
M  V30 20222 H 1866.33 0.0522523 -0.673978 0
M  V30 20223 H 1868.88 -0.495473 -1.99334 0
M  V30 20224 H 1867.11 1.52855 -3.55207 0
M  V30 20225 H 1868.8 1.2474 -3.86257 0
M  V30 20226 H 1869.57 -1.0803 -4.72816 0
M  V30 20227 H 1865.45 0.14 -4.60787 0
M  V30 20228 H 1868.99 -2.82303 -6.37927 0
M  V30 20229 H 1864.89 -1.59466 -6.25493 0
M  V30 20230 H 1865.66 -3.24479 -7.51436 0
M  V30 20231 N 1868.32 1.57428 -0.0735454 0
M  V30 20232 C 1869.57 1.93556 0.595172 0
M  V30 20233 C 1869.89 0.95371 1.69513 0
M  V30 20234 O 1869.15 -0.0303731 1.95676 0
M  V30 20235 C 1869.45 3.36302 1.20978 0
M  V30 20236 C 1869.11 4.50283 0.235791 0
M  V30 20237 C 1867.78 4.81189 -0.0321575 0
M  V30 20238 C 1870.13 5.19419 -0.430452 0
M  V30 20239 C 1867.46 5.78569 -0.973406 0
M  V30 20240 C 1869.81 6.17807 -1.36003 0
M  V30 20241 C 1868.47 6.4713 -1.63643 0
M  V30 20242 H 1867.74 0.708272 0.217789 0
M  V30 20243 H 1870.39 1.90952 -0.144794 0
M  V30 20244 H 1868.69 3.3538 2.02552 0
M  V30 20245 H 1870.39 3.61546 1.73452 0
M  V30 20246 H 1866.98 4.2618 0.454817 0
M  V30 20247 H 1871.16 4.95736 -0.23656 0
M  V30 20248 H 1866.42 5.99612 -1.19478 0
M  V30 20249 H 1870.59 6.70481 -1.88222 0
M  V30 20250 H 1868.22 7.22398 -2.36738 0
M  V30 20251 N 1869.8 -0.200022 1.56326 0
M  V30 20252 C 1871.02 -0.941617 1.84793 0
M  V30 20253 C 1871.45 -1.76271 0.656525 0
M  V30 20254 O 1870.8 -1.76951 -0.394703 0
M  V30 20255 C 1870.85 -1.81754 3.11445 0
M  V30 20256 O 1869.96 -2.91571 2.91651 0
M  V30 20257 H 1869.3 -0.265444 0.608634 0
M  V30 20258 H 1871.83 -0.206826 2.03552 0
M  V30 20259 H 1871.84 -2.22316 3.4211 0
M  V30 20260 H 1870.51 -1.2142 3.97781 0
M  V30 20261 H 1869.09 -2.54799 2.72271 0
M  V30 20262 N 1871.27 -1.50505 -0.467553 0
M  V30 20263 C 1872.55 -1.52191 -1.22871 0
M  V30 20264 C 1872.93 -0.268616 -2.09384 0
M  V30 20265 O 1872.28 0.747802 -2.15917 0
M  V30 20266 C 1872.49 -2.8196 -2.05669 0
M  V30 20267 C 1873.84 -3.32757 -2.63739 0
M  V30 20268 O 1874.86 -2.83305 -2.15909 0
M  V30 20269 O 1873.72 -4.18969 -3.50895 0
M  V30 20270 H 1870.81 -0.610599 -0.557761 0
M  V30 20271 H 1873.36 -1.62797 -0.479085 0
M  V30 20272 H 1872.13 -3.64649 -1.41939 0
M  V30 20273 H 1871.76 -2.74374 -2.87758 0
M  V30 20274 N 1872.75 0.720973 -1.40142 0
M  V30 20275 C 1873.72 1.81676 -1.39737 0
M  V30 20276 C 1874.72 1.58125 -0.292068 0
M  V30 20277 O 1875.91 1.65266 -0.550699 0
M  V30 20278 C 1873.04 3.19685 -1.18381 0
M  V30 20279 H 1874.23 1.83435 -2.37259 0
M  V30 20280 H 1871.78 0.926064 -1.25912 0
M  V30 20281 H 1872.52 3.2358 -0.21598 0
M  V30 20282 H 1872.3 3.38178 -1.98439 0
M  V30 20283 H 1873.79 3.99724 -1.20873 0
M  V30 20284 N 1874.23 1.25549 0.952634 0
M  V30 20285 C 1875.48 1.11588 1.70058 0
M  V30 20286 C 1875.83 -0.339332 1.89384 0
M  V30 20287 O 1875.12 -1.24644 1.45515 0
M  V30 20288 C 1875.32 1.80586 3.08421 0
M  V30 20289 C 1875.15 3.32667 3.02593 0
M  V30 20290 C 1873.92 4.01927 3.0624 0
M  V30 20291 C 1876.12 4.29036 2.83607 0
M  V30 20292 N 1874.1 5.40768 2.90591 0
M  V30 20293 C 1875.47 5.54976 2.76409 0
M  V30 20294 C 1877.52 4.19426 2.68302 0
M  V30 20295 C 1876.23 6.72404 2.55471 0
M  V30 20296 C 1878.25 5.36549 2.48735 0
M  V30 20297 C 1877.61 6.6143 2.4226 0
M  V30 20298 H 1873.71 0.463049 0.630166 0
M  V30 20299 H 1876.3 1.58678 1.12825 0
M  V30 20300 H 1874.47 1.35989 3.63815 0
M  V30 20301 H 1876.2 1.59349 3.72008 0
M  V30 20302 H 1872.96 3.53201 3.15509 0
M  V30 20303 H 1873.38 6.13639 2.85965 0
M  V30 20304 H 1878.02 3.23622 2.72081 0
M  V30 20305 H 1875.74 7.68316 2.50433 0
M  V30 20306 H 1879.33 5.30976 2.37815 0
M  V30 20307 H 1878.21 7.50531 2.27317 0
M  V30 20308 N 1875.71 -1.15554 1.07168 0
M  V30 20309 C 1876.66 -2.22296 0.684626 0
M  V30 20310 C 1877.65 -1.66656 -0.303675 0
M  V30 20311 O 1878.86 -1.79218 -0.167588 0
M  V30 20312 H 1875.23 -0.723996 0.203306 0
M  V30 20313 H 1877.2 -2.52223 1.59456 0
M  V30 20314 C 1875.95 -3.47566 0.0965118 0
M  V30 20315 H 1875.27 -3.90701 0.848122 0
M  V30 20316 H 1876.71 -4.2378 -0.136671 0
M  V30 20317 C 1875.17 -3.16215 -1.16231 0
M  V30 20318 O 1875.7 -3.32838 -2.24903 0
M  V30 20319 N 1873.91 -2.70273 -1.06774 0
M  V30 20320 H 1873.46 -2.56947 -0.183357 0
M  V30 20321 H 1873.41 -2.49671 -1.9108 0
M  V30 20322 N 1877.19 -0.855519 -1.32358 0
M  V30 20323 C 1878.42 -0.473331 -2.01413 0
M  V30 20324 C 1878.83 0.930206 -1.64294 0
M  V30 20325 O 1878.19 1.60714 -0.864705 0
M  V30 20326 C 1878.24 -0.603815 -3.56422 0
M  V30 20327 O 1877.96 -1.95207 -3.92207 0
M  V30 20328 C 1879.46 -0.220748 -4.4275 0
M  V30 20329 H 1876.68 -0.185962 -0.644716 0
M  V30 20330 H 1879.22 -1.1527 -1.68918 0
M  V30 20331 H 1877.38 0.0278263 -3.8739 0
M  V30 20332 H 1877.79 -1.94946 -4.86925 0
M  V30 20333 H 1879.27 -0.363048 -5.50805 0
M  V30 20334 H 1879.74 0.838881 -4.31114 0
M  V30 20335 H 1880.35 -0.827498 -4.17172 0
M  V30 20336 N 1878.67 1.45167 -0.61354 0
M  V30 20337 C 1879.91 2.02195 -0.111063 0
M  V30 20338 C 1880.24 1.48117 1.26061 0
M  V30 20339 O 1879.5 0.648333 1.84649 0
M  V30 20340 C 1879.79 3.57389 -0.0281394 0
M  V30 20341 C 1879.46 4.30645 -1.33626 0
M  V30 20342 C 1878.12 4.50375 -1.69457 0
M  V30 20343 C 1880.47 4.72469 -2.20052 0
M  V30 20344 C 1877.8 5.09186 -2.91455 0
M  V30 20345 C 1880.15 5.3263 -3.41304 0
M  V30 20346 C 1878.82 5.50582 -3.7738 0
M  V30 20347 H 1878.09 0.739885 -0.0406408 0
M  V30 20348 H 1880.74 1.74157 -0.796346 0
M  V30 20349 H 1879.04 3.8474 0.740436 0
M  V30 20350 H 1880.74 3.99225 0.37689 0
M  V30 20351 H 1877.33 4.15605 -1.04738 0
M  V30 20352 H 1881.51 4.56954 -1.93668 0
M  V30 20353 H 1876.77 5.21274 -3.19505 0
M  V30 20354 H 1880.94 5.6399 -4.08519 0
M  V30 20355 H 1878.57 5.95921 -4.71998 0
M  V30 20356 N 1880.14 0.353044 1.53595 0
M  V30 20357 C 1881.42 -0.296304 1.93343 0
M  V30 20358 C 1881.8 -1.67448 1.28548 0
M  V30 20359 O 1881.15 -2.24226 0.4399 0
M  V30 20360 C 1881.36 -0.359079 3.47148 0
M  V30 20361 C 1882.71 -0.605406 4.20262 0
M  V30 20362 O 1883.73 -0.440805 3.53462 0
M  V30 20363 O 1882.59 -0.92496 5.38616 0
M  V30 20364 H 1879.68 -0.174879 0.808298 0
M  V30 20365 H 1882.23 0.404914 1.64798 0
M  V30 20366 H 1881 0.607684 3.86553 0
M  V30 20367 H 1880.62 -1.1067 3.81887 0
M  V30 20368 N 1881.62 -1.57387 0.0818932 0
M  V30 20369 C 1882.85 -1.9862 -0.597066 0
M  V30 20370 C 1883.27 -0.960277 -1.61741 0
M  V30 20371 O 1882.63 0.0728948 -1.81153 0
M  V30 20372 C 1882.68 -3.3886 -1.23315 0
M  V30 20373 O 1881.78 -3.38962 -2.34901 0
M  V30 20374 H 1881.12 -0.646208 -0.152679 0
M  V30 20375 H 1883.65 -2.03978 0.159398 0
M  V30 20376 H 1883.66 -3.76266 -1.5776 0
M  V30 20377 H 1882.34 -4.13056 -0.485551 0
M  V30 20378 H 1880.91 -3.13337 -2.02174 0
M  V30 20379 N 1883.1 0.191729 -1.56429 0
M  V30 20380 C 1884.03 1.24024 -1.97839 0
M  V30 20381 C 1885.01 1.47291 -0.850853 0
M  V30 20382 O 1886.2 1.58971 -1.11543 0
M  V30 20383 C 1883.33 2.58373 -2.32079 0
M  V30 20384 C 1882.28 2.49712 -3.47603 0
M  V30 20385 C 1881.61 3.88365 -3.67528 0
M  V30 20386 C 1882.91 2.01929 -4.81687 0
M  V30 20387 H 1884.6 0.8961 -2.85675 0
M  V30 20388 H 1882.15 0.429616 -1.37442 0
M  V30 20389 H 1884.1 3.31908 -2.59643 0
M  V30 20390 H 1882.82 2.94534 -1.41129 0
M  V30 20391 H 1881.48 1.78632 -3.20135 0
M  V30 20392 H 1881.13 4.21884 -2.73903 0
M  V30 20393 H 1880.83 3.83444 -4.45246 0
M  V30 20394 H 1882.35 4.63518 -3.97472 0
M  V30 20395 H 1883.77 2.65225 -5.0826 0
M  V30 20396 H 1882.16 2.08002 -5.62899 0
M  V30 20397 H 1883.23 0.972649 -4.75045 0
M  V30 20398 N 1884.58 1.50751 0.459565 0
M  V30 20399 C 1885.83 1.61553 1.20762 0
M  V30 20400 C 1886.14 0.326862 1.9285 0
M  V30 20401 O 1887.35 0.313951 2.69679 0
M  V30 20402 C 1885.8 2.8522 2.19494 0
M  V30 20403 C 1885.41 4.21008 1.53156 0
M  V30 20404 C 1887.15 3.05373 2.94869 0
M  V30 20405 C 1885.06 5.35848 2.50241 0
M  V30 20406 H 1883.99 0.601658 0.454448 0
M  V30 20407 H 1886.64 1.77195 0.476886 0
M  V30 20408 H 1885.02 2.63163 2.95908 0
M  V30 20409 H 1886.2 4.53363 0.824521 0
M  V30 20410 H 1884.51 4.06554 0.900178 0
M  V30 20411 H 1887.11 3.88342 3.67552 0
M  V30 20412 H 1887.45 2.17557 3.54929 0
M  V30 20413 H 1887.99 3.27665 2.25566 0
M  V30 20414 H 1884.72 6.25854 1.94904 0
M  V30 20415 H 1884.24 5.07896 3.19063 0
M  V30 20416 H 1885.92 5.66894 3.11834 0
M  V30 20417 N 1886.06 -0.713531 1.40522 0
M  V30 20418 C 1887.3 -1.47561 1.39117 0
M  V30 20419 C 1887.63 -1.94199 -0.00592038 0
M  V30 20420 O 1886.91 -1.68301 -0.974941 0
M  V30 20421 C 1887.19 -2.70023 2.38242 0
M  V30 20422 C 1887.05 -2.29266 3.86984 0
M  V30 20423 C 1888.36 -3.72185 2.34875 0
M  V30 20424 H 1885.48 -0.535243 0.50664 0
M  V30 20425 H 1888.13 -0.814172 1.71672 0
M  V30 20426 H 1886.28 -3.26458 2.10611 0
M  V30 20427 H 1887.95 -1.78297 4.2545 0
M  V30 20428 H 1886.19 -1.61246 4.02719 0
M  V30 20429 H 1886.86 -3.17057 4.51862 0
M  V30 20430 H 1889.34 -3.25384 2.59354 0
M  V30 20431 H 1888.21 -4.55507 3.06276 0
M  V30 20432 H 1888.47 -4.20627 1.36108 0
M  V30 20433 N 1887.53 -1.26053 -0.945962 0
M  V30 20434 C 1888.78 -1.10706 -1.68603 0
M  V30 20435 C 1889.1 0.350167 -1.9244 0
M  V30 20436 O 1890.3 0.624224 -2.64227 0
M  V30 20437 C 1888.76 -1.93306 -3.0358 0
M  V30 20438 C 1888.37 -3.43574 -2.87508 0
M  V30 20439 C 1890.11 -1.86555 -3.8131 0
M  V30 20440 C 1888.02 -4.18438 -4.17928 0
M  V30 20441 H 1886.95 -0.410689 -0.632337 0
M  V30 20442 H 1889.6 -1.50322 -1.0524 0
M  V30 20443 H 1887.98 -1.4652 -3.67897 0
M  V30 20444 H 1889.15 -3.98096 -2.3207 0
M  V30 20445 H 1887.47 -3.51511 -2.23224 0
M  V30 20446 H 1890.07 -2.39775 -4.77925 0
M  V30 20447 H 1890.41 -0.83525 -4.07835 0
M  V30 20448 H 1890.94 -2.31138 -3.23759 0
M  V30 20449 H 1887.68 -5.21917 -3.96589 0
M  V30 20450 H 1887.2 -3.68698 -4.73098 0
M  V30 20451 H 1888.88 -4.26626 -4.86415 0
M  V30 20452 N 1889.01 1.14984 -1.07779 0
M  V30 20453 C 1890.26 1.85506 -0.802 0
M  V30 20454 C 1890.58 1.82981 0.674026 0
M  V30 20455 O 1889.85 1.27376 1.48836 0
M  V30 20456 H 1888.43 0.686845 -0.293689 0
M  V30 20457 H 1891.09 1.39368 -1.36244 0
M  V30 20458 H 1890.19 2.90518 -1.14042 0
M  V30 20459 N 1890.49 0.862526 1.31902 0
M  V30 20460 C 1891.71 0.483159 2.01694 0
M  V30 20461 C 1892.14 -0.914778 1.64358 0
M  V30 20462 O 1891.5 -1.60229 0.848308 0
M  V30 20463 C 1891.55 0.638911 3.54895 0
M  V30 20464 O 1890.65 -0.324962 4.11118 0
M  V30 20465 H 1889.99 0.193128 0.635293 0
M  V30 20466 H 1892.52 1.16389 1.6827 0
M  V30 20467 H 1892.53 0.529394 4.04551 0
M  V30 20468 H 1891.21 1.65828 3.81411 0
M  V30 20469 H 1889.78 -0.171025 3.72508 0
M  V30 20470 N 1891.97 -1.4484 0.62123 0
M  V30 20471 C 1893.22 -2.01347 0.11929 0
M  V30 20472 C 1893.53 -1.49373 -1.26282 0
M  V30 20473 O 1894.74 -1.97945 -1.85823 0
M  V30 20474 C 1893.19 -3.59533 0.162536 0
M  V30 20475 C 1892.8 -4.20504 1.54534 0
M  V30 20476 C 1894.54 -4.23553 -0.283454 0
M  V30 20477 C 1892.45 -5.70883 1.54423 0
M  V30 20478 H 1891.38 -0.752894 0.0408293 0
M  V30 20479 H 1894.03 -1.66164 0.778571 0
M  V30 20480 H 1892.41 -3.91968 -0.563659 0
M  V30 20481 H 1893.59 -3.99621 2.29433 0
M  V30 20482 H 1891.9 -3.68732 1.93457 0
M  V30 20483 H 1894.5 -5.33837 -0.303671 0
M  V30 20484 H 1894.84 -3.9519 -1.30884 0
M  V30 20485 H 1895.38 -3.95884 0.38992 0
M  V30 20486 H 1892.12 -6.03965 2.54767 0
M  V30 20487 H 1891.64 -5.93917 0.838029 0
M  V30 20488 H 1893.31 -6.34336 1.27383 0
M  V30 20489 N 1893.45 -0.361184 -1.53405 0
M  V30 20490 C 1894.7 0.230977 -2.00373 0
M  V30 20491 C 1895.01 1.50228 -1.25264 0
M  V30 20492 O 1896.21 2.17277 -1.62798 0
M  V30 20493 C 1894.67 0.462153 -3.5692 0
M  V30 20494 C 1894.28 -0.794263 -4.40903 0
M  V30 20495 C 1896.02 1.01221 -4.12255 0
M  V30 20496 C 1893.93 -0.532914 -5.88994 0
M  V30 20497 H 1892.86 0.0900886 -0.748599 0
M  V30 20498 H 1895.51 -0.479245 -1.77131 0
M  V30 20499 H 1893.89 1.23352 -3.76298 0
M  V30 20500 H 1895.07 -1.56809 -4.33298 0
M  V30 20501 H 1893.38 -1.26722 -3.96649 0
M  V30 20502 H 1895.98 1.22299 -5.20526 0
M  V30 20503 H 1896.32 1.97304 -3.66575 0
M  V30 20504 H 1896.85 0.301113 -3.96659 0
M  V30 20505 H 1893.59 -1.46395 -6.38943 0
M  V30 20506 H 1893.11 0.202496 -5.99458 0
M  V30 20507 H 1894.79 -0.156772 -6.4681 0
M  V30 20508 N 1894.92 1.57341 -0.0902386 0
M  V30 20509 C 1896.2 1.85627 0.616611 0
M  V30 20510 C 1896.58 0.986193 1.86648 0
M  V30 20511 O 1895.93 0.0573148 2.28428 0
M  V30 20512 C 1896.14 3.36196 0.936645 0
M  V30 20513 C 1897.49 4.04139 1.30219 0
M  V30 20514 O 1898.51 3.41049 1.02781 0
M  V30 20515 O 1897.37 5.1545 1.81586 0
M  V30 20516 H 1894.46 0.76748 0.308065 0
M  V30 20517 H 1897.01 1.69257 -0.122568 0
M  V30 20518 H 1895.78 3.91268 0.0497354 0
M  V30 20519 H 1895.41 3.57895 1.73197 0
M  V30 20520 N 1896.4 -0.183431 1.56529 0
M  V30 20521 C 1897.65 -0.903332 1.8157 0
M  V30 20522 C 1897.98 -1.82417 0.666167 0
M  V30 20523 O 1897.26 -1.91635 -0.332621 0
M  V30 20524 C 1897.54 -1.70949 3.16936 0
M  V30 20525 C 1897.39 -0.812595 4.42399 0
M  V30 20526 C 1898.71 -2.6797 3.49113 0
M  V30 20527 H 1895.83 -0.326961 0.660504 0
M  V30 20528 H 1898.47 -0.170115 1.89237 0
M  V30 20529 H 1896.62 -2.33458 3.10531 0
M  V30 20530 H 1898.29 -0.201313 4.60861 0
M  V30 20531 H 1896.54 -0.119949 4.33634 0
M  V30 20532 H 1897.21 -1.4119 5.33638 0
M  V30 20533 H 1899.68 -2.15591 3.55893 0
M  V30 20534 H 1898.56 -3.21451 4.44927 0
M  V30 20535 H 1898.82 -3.47584 2.73199 0
M  V30 20536 N 1897.88 -1.50992 -0.451564 0
M  V30 20537 C 1898.84 -1.70703 -1.52949 0
M  V30 20538 C 1899.84 -0.577275 -1.50081 0
M  V30 20539 O 1901.03 -0.844619 -1.52354 0
M  V30 20540 C 1898.17 -1.75035 -2.92533 0
M  V30 20541 H 1899.36 -2.66891 -1.36782 0
M  V30 20542 H 1896.91 -1.40767 -0.679285 0
M  V30 20543 H 1897.65 -0.806096 -3.14122 0
M  V30 20544 H 1897.43 -2.57126 -2.96021 0
M  V30 20545 H 1898.92 -1.92171 -3.70756 0
M  V30 20546 N 1899.36 0.706069 -1.40899 0
M  V30 20547 C 1900.29 1.83275 -1.44681 0
M  V30 20548 C 1901.27 1.67313 -0.306629 0
M  V30 20549 O 1902.45 1.87203 -0.516597 0
M  V30 20550 C 1899.58 3.21319 -1.318 0
M  V30 20551 C 1898.54 3.51969 -2.4352 0
M  V30 20552 C 1897.86 4.89258 -2.1571 0
M  V30 20553 C 1899.16 3.52004 -3.85864 0
M  V30 20554 H 1900.86 1.80367 -2.38973 0
M  V30 20555 H 1898.4 0.866349 -1.15023 0
M  V30 20556 H 1900.36 3.99841 -1.3306 0
M  V30 20557 H 1899.08 3.24827 -0.339879 0
M  V30 20558 H 1897.74 2.75792 -2.41525 0
M  V30 20559 H 1897.39 4.89378 -1.16266 0
M  V30 20560 H 1897.09 5.1073 -2.90566 0
M  V30 20561 H 1898.61 5.70102 -2.18669 0
M  V30 20562 H 1900.03 4.20548 -3.8963 0
M  V30 20563 H 1898.42 3.85005 -4.60316 0
M  V30 20564 H 1899.49 2.51191 -4.14766 0
M  V30 20565 N 1900.84 1.26553 0.939264 0
M  V30 20566 C 1902.06 1.15098 1.72532 0
M  V30 20567 C 1902.49 -0.289811 1.85854 0
M  V30 20568 O 1901.84 -1.20997 1.35017 0
M  V30 20569 C 1901.89 1.82703 3.10889 0
M  V30 20570 O 1901 1.11712 3.96981 0
M  V30 20571 H 1900.34 0.40095 0.529278 0
M  V30 20572 H 1902.87 1.67408 1.17625 0
M  V30 20573 H 1902.88 1.89603 3.61268 0
M  V30 20574 H 1901.55 2.87519 3.00509 0
M  V30 20575 H 1900.13 1.12801 3.5543 0
M  V30 20576 N 1902.31 -1.14411 1.08387 0
M  V30 20577 C 1903.22 -2.23103 0.725418 0
M  V30 20578 C 1904.24 -1.71924 -0.26799 0
M  V30 20579 O 1905.42 -2.01088 -0.111986 0
M  V30 20580 C 1902.48 -3.46418 0.139915 0
M  V30 20581 C 1901.54 -4.12537 1.18791 0
M  V30 20582 C 1900.78 -5.29966 0.630252 0
M  V30 20583 O 1901 -5.67739 -0.550335 0
M  V30 20584 O 1899.93 -5.85862 1.38021 0
M  V30 20585 H 1903.76 -2.56116 1.63213 0
M  V30 20586 H 1901.34 -1.22338 0.857538 0
M  V30 20587 H 1903.23 -4.20999 -0.18381 0
M  V30 20588 H 1901.9 -3.15129 -0.739957 0
M  V30 20589 H 1900.81 -3.39831 1.56416 0
M  V30 20590 H 1902.14 -4.47932 2.04005 0
M  V30 20591 N 1903.79 -0.869509 -1.31443 0
M  V30 20592 C 1904.76 -0.329869 -2.26814 0
M  V30 20593 C 1905.76 0.518895 -1.52198 0
M  V30 20594 O 1906.95 0.328267 -1.71079 0
M  V30 20595 C 1904.08 0.53159 -3.3673 0
M  V30 20596 H 1905.27 -1.1718 -2.7606 0
M  V30 20597 H 1902.82 -0.645061 -1.42368 0
M  V30 20598 H 1903.56 1.39473 -2.92776 0
M  V30 20599 H 1903.34 -0.0761553 -3.92026 0
M  V30 20600 H 1904.83 0.901447 -4.07754 0
M  V30 20601 N 1905.27 1.44508 -0.628902 0
M  V30 20602 C 1906.55 1.95497 -0.0635197 0
M  V30 20603 C 1906.93 1.57092 1.41015 0
M  V30 20604 O 1906.28 0.843894 2.12346 0
M  V30 20605 C 1906.49 3.47842 -0.284051 0
M  V30 20606 C 1907.83 4.24235 -0.176073 0
M  V30 20607 O 1908.86 3.55549 -0.215298 0
M  V30 20608 O 1907.72 5.46443 -0.0791303 0
M  V30 20609 H 1904.81 0.826664 0.0235829 0
M  V30 20610 H 1907.36 1.5457 -0.70045 0
M  V30 20611 H 1906.13 3.68837 -1.30671 0
M  V30 20612 H 1905.75 3.95711 0.387125 0
M  V30 20613 N 1906.75 0.369315 1.53212 0
M  V30 20614 C 1908.16 -0.10909 1.86381 0
M  V30 20615 C 1908.51 -1.47849 1.28977 0
M  V30 20616 O 1907.64 -2.07528 0.613267 0
M  V30 20617 C 1908.23 -0.204726 3.38181 0
M  V30 20618 C 1906.79 -0.627391 3.71134 0
M  V30 20619 C 1905.94 0.223086 2.76401 0
M  V30 20620 H 1908.89 0.587967 1.47406 0
M  V30 20621 H 1908.91 -1.02761 3.66361 0
M  V30 20622 H 1908.42 0.792082 3.79931 0
M  V30 20623 H 1906.52 -1.63229 3.34943 0
M  V30 20624 H 1906.64 -0.39941 4.77432 0
M  V30 20625 H 1905 -0.308608 2.52823 0
M  V30 20626 H 1905.78 1.2175 3.20986 0
M  V30 20627 N 1908.23 -1.57291 0.0985816 0
M  V30 20628 C 1909.46 -1.98819 -0.57259 0
M  V30 20629 C 1909.87 -0.977787 -1.61508 0
M  V30 20630 O 1909.23 0.0321385 -1.82472 0
M  V30 20631 C 1909.28 -3.40393 -1.21716 0
M  V30 20632 O 1909 -4.37565 -0.216366 0
M  V30 20633 C 1910.5 -3.96943 -1.97361 0
M  V30 20634 H 1907.72 -0.653268 -0.153239 0
M  V30 20635 H 1910.26 -2.03716 0.178898 0
M  V30 20636 H 1908.42 -3.36499 -1.91956 0
M  V30 20637 H 1908.83 -5.20046 -0.68205 0
M  V30 20638 H 1910.31 -4.98144 -2.37816 0
M  V30 20639 H 1910.78 -3.34953 -2.84083 0
M  V30 20640 H 1911.39 -4.0432 -1.3193 0
M  V30 20641 N 1909.71 0.175127 -1.56624 0
M  V30 20642 C 1910.62 1.23691 -1.99343 0
M  V30 20643 C 1911.63 1.48662 -0.904197 0
M  V30 20644 O 1912.81 1.60885 -1.21153 0
M  V30 20645 C 1909.87 2.55689 -2.34145 0
M  V30 20646 C 1908.93 2.38614 -3.56878 0
M  V30 20647 C 1908.17 3.64318 -3.9001 0
M  V30 20648 O 1908.39 4.69335 -3.24162 0
M  V30 20649 O 1907.32 3.58655 -4.83373 0
M  V30 20650 H 1911.15 0.904314 -2.89924 0
M  V30 20651 H 1908.73 0.381697 -1.44442 0
M  V30 20652 H 1910.62 3.33562 -2.57516 0
M  V30 20653 H 1909.29 2.88535 -1.46728 0
M  V30 20654 H 1908.2 1.58786 -3.3873 0
M  V30 20655 H 1909.53 2.10694 -4.44825 0
M  V30 20656 N 1911.18 1.5123 0.44355 0
M  V30 20657 C 1912.41 1.67671 1.2207 0
M  V30 20658 C 1912.83 0.370934 1.84406 0
M  V30 20659 O 1912.19 -0.668265 1.68535 0
M  V30 20660 C 1912.24 2.7896 2.28503 0
M  V30 20661 O 1911.34 2.4213 3.33837 0
M  V30 20662 H 1910.68 0.559275 0.357921 0
M  V30 20663 H 1913.21 1.9776 0.524592 0
M  V30 20664 H 1913.22 3.0286 2.73386 0
M  V30 20665 H 1911.9 3.73716 1.82509 0
M  V30 20666 H 1910.48 2.28779 2.94473 0
M  V30 20667 N 1912.66 -0.698586 1.41271 0
M  V30 20668 C 1913.57 -1.8424 1.45234 0
M  V30 20669 C 1914.59 -1.70581 0.343225 0
M  V30 20670 O 1915.76 -1.9255 0.590477 0
M  V30 20671 C 1912.83 -3.20195 1.32951 0
M  V30 20672 C 1911.89 -3.45984 2.54152 0
M  V30 20673 C 1911.12 -4.75453 2.42446 0
M  V30 20674 O 1911.35 -5.5173 1.44741 0
M  V30 20675 O 1910.28 -5.01958 3.32147 0
M  V30 20676 H 1914.11 -1.83853 2.41727 0
M  V30 20677 H 1911.69 -0.851252 1.22776 0
M  V30 20678 H 1913.57 -4.0137 1.28374 0
M  V30 20679 H 1912.25 -3.21272 0.395728 0
M  V30 20680 H 1911.15 -2.64751 2.64306 0
M  V30 20681 H 1912.49 -3.49718 3.46349 0
M  V30 20682 N 1914.14 -1.27049 -0.93254 0
M  V30 20683 C 1915.09 -1.09183 -2.05382 0
M  V30 20684 C 1916.08 -0.0162863 -1.69392 0
M  V30 20685 O 1917.29 -0.173635 -1.79161 0
M  V30 20686 H 1913.66 -0.336282 -0.67262 0
M  V30 20687 H 1915.63 -2.04189 -2.17599 0
M  V30 20688 C 1914.38 -0.750687 -3.395 0
M  V30 20689 H 1913.71 -1.57019 -3.67675 0
M  V30 20690 H 1915.15 -0.665521 -4.18744 0
M  V30 20691 C 1913.6 0.544676 -3.32468 0
M  V30 20692 O 1914.13 1.58051 -3.69301 0
M  V30 20693 N 1912.34 0.538506 -2.85567 0
M  V30 20694 H 1911.89 -0.304834 -2.5579 0
M  V30 20695 H 1911.85 1.4053 -2.81245 0
M  V30 20696 N 1915.62 1.13835 -1.08993 0
M  V30 20697 C 1916.86 1.85284 -0.824476 0
M  V30 20698 C 1917.2 1.83062 0.648235 0
M  V30 20699 O 1916.47 1.26555 1.47696 0
M  V30 20700 C 1916.75 3.33649 -1.35463 0
M  V30 20701 C 1916.61 3.44411 -2.89312 0
M  V30 20702 C 1917.93 4.28941 -0.984768 0
M  V30 20703 H 1915.05 0.672745 -0.300971 0
M  V30 20704 H 1917.69 1.3364 -1.35057 0
M  V30 20705 H 1915.84 3.77761 -0.907128 0
M  V30 20706 H 1917.51 3.09043 -3.42477 0
M  V30 20707 H 1915.75 2.85429 -3.26669 0
M  V30 20708 H 1916.42 4.48724 -3.21481 0
M  V30 20709 H 1918.9 3.92877 -1.37064 0
M  V30 20710 H 1917.78 5.31196 -1.38283 0
M  V30 20711 H 1918.04 4.41969 0.10755 0
M  V30 20712 N 1917.1 0.876467 1.3098 0
M  V30 20713 C 1918.51 0.542323 1.7865 0
M  V30 20714 C 1918.86 -0.941103 1.72156 0
M  V30 20715 O 1917.98 -1.73506 1.29324 0
M  V30 20716 C 1918.58 0.977656 3.24388 0
M  V30 20717 C 1917.14 0.695064 3.69927 0
M  V30 20718 C 1916.28 1.16537 2.51624 0
M  V30 20719 H 1919.23 1.06154 1.1797 0
M  V30 20720 H 1919.26 0.30304 3.79291 0
M  V30 20721 H 1918.77 2.05735 3.29082 0
M  V30 20722 H 1916.87 -0.372992 3.70728 0
M  V30 20723 H 1916.98 1.27665 4.61778 0
M  V30 20724 H 1915.35 0.584941 2.47892 0
M  V30 20725 H 1916.13 2.25262 2.5906 0
M  V30 20726 N 1918.57 -1.44173 0.636557 0
M  V30 20727 C 1919.82 -2.02292 0.143429 0
M  V30 20728 C 1920.15 -1.49996 -1.23348 0
M  V30 20729 O 1919.43 -0.686228 -1.81992 0
M  V30 20730 C 1919.71 -3.59843 0.136025 0
M  V30 20731 C 1919.56 -4.22409 1.54566 0
M  V30 20732 C 1920.88 -4.36817 -0.536538 0
M  V30 20733 H 1918 -0.735049 0.0535939 0
M  V30 20734 H 1920.64 -1.71677 0.814066 0
M  V30 20735 H 1918.79 -3.86056 -0.435048 0
M  V30 20736 H 1920.47 -4.07284 2.16604 0
M  V30 20737 H 1918.71 -3.79696 2.09793 0
M  V30 20738 H 1919.38 -5.31441 1.49247 0
M  V30 20739 H 1921.86 -4.16069 -0.0508327 0
M  V30 20740 H 1920.73 -5.46517 -0.510926 0
M  V30 20741 H 1920.99 -4.11827 -1.60783 0
M  V30 20742 N 1920.05 -0.377435 -1.53014 0
M  V30 20743 C 1921.46 0.0992038 -1.86436 0
M  V30 20744 C 1921.81 1.47163 -1.2976 0
M  V30 20745 O 1920.94 2.072 -0.624264 0
M  V30 20746 C 1921.53 0.186789 -3.38285 0
M  V30 20747 C 1920.09 0.6077 -3.71462 0
M  V30 20748 C 1919.24 -0.237741 -2.76279 0
M  V30 20749 H 1922.19 -0.595776 -1.47092 0
M  V30 20750 H 1922.21 1.00817 -3.66901 0
M  V30 20751 H 1921.72 -0.812219 -3.79506 0
M  V30 20752 H 1919.82 1.61451 -3.35804 0
M  V30 20753 H 1919.94 0.374085 -4.77637 0
M  V30 20754 H 1918.3 0.295196 -2.52984 0
M  V30 20755 H 1919.08 -1.23451 -3.20335 0
M  V30 20756 N 1921.53 1.57237 -0.106922 0
M  V30 20757 C 1922.76 1.9912 0.562038 0
M  V30 20758 C 1923.17 0.986338 1.60987 0
M  V30 20759 O 1922.53 -0.0224611 1.82486 0
M  V30 20760 C 1922.58 3.41034 1.19909 0
M  V30 20761 O 1922.3 4.37674 0.193157 0
M  V30 20762 C 1923.8 3.97984 1.95253 0
M  V30 20763 H 1921.02 0.654071 0.149772 0
M  V30 20764 H 1923.57 2.03618 -0.189699 0
M  V30 20765 H 1921.72 3.37513 1.90168 0
M  V30 20766 H 1922.14 5.20401 0.654461 0
M  V30 20767 H 1923.61 4.99398 2.35171 0
M  V30 20768 H 1924.09 3.36455 2.82303 0
M  V30 20769 H 1924.69 4.05014 1.29784 0
M  V30 20770 N 1923.01 -0.166818 1.56715 0
M  V30 20771 C 1923.97 -1.19027 1.95871 0
M  V30 20772 C 1924.97 -1.36939 0.842877 0
M  V30 20773 O 1926.16 -1.34268 1.10985 0
M  V30 20774 C 1923.29 -2.55446 2.25743 0
M  V30 20775 H 1924.49 -0.854834 2.87459 0
M  V30 20776 H 1922.04 -0.409436 1.50842 0
M  V30 20777 H 1922.77 -2.93996 1.36884 0
M  V30 20778 H 1922.56 -2.4381 3.07081 0
M  V30 20779 H 1924.05 -3.29196 2.56943 0
M  V30 20780 N 1924.49 -1.51463 -0.435524 0
M  V30 20781 C 1925.71 -1.68031 -1.20719 0
M  V30 20782 C 1926.13 -0.378427 -1.84969 0
M  V30 20783 O 1925.49 0.643234 -1.70789 0
M  V30 20784 C 1925.54 -2.79726 -2.28989 0
M  V30 20785 O 1925.26 -4.0487 -1.67367 0
M  V30 20786 C 1926.76 -3.07578 -3.19234 0
M  V30 20787 H 1923.98 -0.56383 -0.363781 0
M  V30 20788 H 1926.52 -1.97888 -0.515825 0
M  V30 20789 H 1924.68 -2.52463 -2.93839 0
M  V30 20790 H 1925.09 -4.66915 -2.38937 0
M  V30 20791 H 1926.57 -3.89309 -3.91334 0
M  V30 20792 H 1927.04 -2.20059 -3.80093 0
M  V30 20793 H 1927.65 -3.36507 -2.60083 0
M  V30 20794 N 1925.96 0.691085 -1.4164 0
M  V30 20795 C 1927.38 1.27116 -1.36742 0
M  V30 20796 C 1927.73 1.96129 -0.0526953 0
M  V30 20797 O 1926.85 1.99052 0.848953 0
M  V30 20798 C 1927.45 2.31171 -2.4768 0
M  V30 20799 C 1926.01 2.84744 -2.46166 0
M  V30 20800 C 1925.15 1.58841 -2.27299 0
M  V30 20801 H 1928.1 0.485541 -1.5109 0
M  V30 20802 H 1928.12 3.12559 -2.16996 0
M  V30 20803 H 1927.64 1.80913 -3.43354 0
M  V30 20804 H 1925.74 3.39167 -1.54262 0
M  V30 20805 H 1925.85 3.34869 -3.42636 0
M  V30 20806 H 1924.21 1.84815 -1.75258 0
M  V30 20807 H 1925 1.10573 -3.25005 0
M  V30 20808 N 1927.44 1.27542 0.925789 0
M  V30 20809 C 1928.69 1.13767 1.67038 0
M  V30 20810 C 1929.01 -0.316603 1.92413 0
M  V30 20811 O 1928.28 -1.22124 1.53175 0
M  V30 20812 H 1926.86 0.41803 0.61908 0
M  V30 20813 H 1929.52 1.60097 1.11153 0
M  V30 20814 H 1928.62 1.66818 2.63777 0
M  V30 20815 N 1928.92 -1.13255 1.09595 0
M  V30 20816 C 1929.87 -2.20794 0.731624 0
M  V30 20817 C 1930.86 -1.67263 -0.268256 0
M  V30 20818 O 1932.07 -1.79533 -0.129535 0
M  V30 20819 H 1928.44 -0.719521 0.218618 0
M  V30 20820 H 1930.41 -2.48784 1.6477 0
M  V30 20821 C 1929.16 -3.47283 0.170214 0
M  V30 20822 H 1928.49 -3.88814 0.930805 0
M  V30 20823 H 1929.93 -4.23974 -0.0467499 0
M  V30 20824 C 1928.39 -3.18609 -1.09497 0
M  V30 20825 O 1928.92 -3.37534 -2.17793 0
M  V30 20826 N 1927.12 -2.72477 -1.01017 0
M  V30 20827 H 1926.67 -2.57278 -0.128814 0
M  V30 20828 H 1926.63 -2.53668 -1.85741 0
M  V30 20829 N 1930.4 -0.883401 -1.30514 0
M  V30 20830 C 1931.62 -0.515186 -2.00899 0
M  V30 20831 C 1932.05 0.888515 -1.65792 0
M  V30 20832 O 1931.41 1.58859 -0.873692 0
M  V30 20833 C 1931.45 -0.695291 -3.53833 0
M  V30 20834 O 1930.56 0.259516 -4.11583 0
M  V30 20835 H 1929.9 -0.20321 -0.63214 0
M  V30 20836 H 1932.43 -1.19051 -1.66397 0
M  V30 20837 H 1932.44 -0.593688 -4.03657 0
M  V30 20838 H 1931.11 -1.71874 -3.78724 0
M  V30 20839 H 1929.69 0.111741 -3.72733 0
M  V30 20840 N 1931.88 1.43833 -0.644194 0
M  V30 20841 C 1932.79 2.34538 0.0537504 0
M  V30 20842 C 1933.8 1.53369 0.821825 0
M  V30 20843 O 1934.98 1.86053 0.771123 0
M  V30 20844 C 1932.04 3.3153 1.01434 0
M  V30 20845 C 1931.1 4.28605 0.244198 0
M  V30 20846 C 1930.34 5.20963 1.15903 0
M  V30 20847 O 1930.56 5.1754 2.3981 0
M  V30 20848 O 1929.49 5.98527 0.636302 0
M  V30 20849 H 1933.32 2.95696 -0.692624 0
M  V30 20850 H 1930.91 1.43823 -0.404377 0
M  V30 20851 H 1932.79 3.91196 1.56663 0
M  V30 20852 H 1931.46 2.72887 1.7411 0
M  V30 20853 H 1930.37 3.72445 -0.351459 0
M  V30 20854 H 1931.7 4.90204 -0.442806 0
M  V30 20855 N 1933.35 0.385544 1.52811 0
M  V30 20856 C 1934.26 -0.45885 2.30069 0
M  V30 20857 C 1935.28 -1.07486 1.36831 0
M  V30 20858 O 1936.46 -1.08148 1.699 0
M  V30 20859 C 1933.52 -1.57281 3.08972 0
M  V30 20860 C 1932.58 -0.98229 4.17911 0
M  V30 20861 C 1931.82 -2.04316 4.93042 0
M  V30 20862 O 1932.04 -3.25761 4.68226 0
M  V30 20863 O 1930.97 -1.66256 5.78483 0
M  V30 20864 H 1934.8 0.170416 3.03221 0
M  V30 20865 H 1932.38 0.149363 1.48651 0
M  V30 20866 H 1934.27 -2.22003 3.5818 0
M  V30 20867 H 1932.94 -2.18711 2.38637 0
M  V30 20868 H 1931.85 -0.298428 3.72908 0
M  V30 20869 H 1933.18 -0.412261 4.9047 0
M  V30 20870 N 1934.83 -1.57178 0.115259 0
M  V30 20871 C 1936.06 -1.99842 -0.554802 0
M  V30 20872 C 1936.48 -0.994368 -1.59668 0
M  V30 20873 O 1935.84 0.0344531 -1.81267 0
M  V30 20874 C 1935.89 -3.41399 -1.16099 0
M  V30 20875 O 1934.99 -3.43868 -2.27659 0
M  V30 20876 H 1934.33 -0.649301 -0.138937 0
M  V30 20877 H 1936.86 -2.03594 0.202629 0
M  V30 20878 H 1936.87 -3.79527 -1.49743 0
M  V30 20879 H 1935.55 -4.13993 -0.397827 0
M  V30 20880 H 1934.13 -3.17555 -1.95482 0
M  V30 20881 N 1936.31 0.158505 -1.56801 0
M  V30 20882 C 1937.26 1.21526 -1.98328 0
M  V30 20883 C 1938.25 1.45117 -0.873926 0
M  V30 20884 O 1939.46 1.45545 -1.05908 0
M  V30 20885 H 1935.83 0.408803 -0.631177 0
M  V30 20886 H 1937.81 0.838242 -2.86384 0
M  V30 20887 C 1936.55 2.54396 -2.37019 0
M  V30 20888 H 1935.88 2.3707 -3.21928 0
M  V30 20889 H 1937.32 3.26994 -2.69909 0
M  V30 20890 C 1935.78 3.14095 -1.21845 0
M  V30 20891 O 1936.31 3.98411 -0.51298 0
M  V30 20892 N 1934.51 2.73373 -0.985675 0
M  V30 20893 H 1934.06 2.04907 -1.56112 0
M  V30 20894 H 1934.02 3.13651 -0.216926 0
M  V30 20895 N 1937.79 1.51692 0.427485 0
M  V30 20896 C 1939.21 1.40086 0.764726 0
M  V30 20897 C 1939.41 0.490917 1.95428 0
M  V30 20898 O 1938.46 -0.0502236 2.5245 0
M  V30 20899 C 1939.77 2.82295 1.03586 0
M  V30 20900 C 1941.32 2.91513 1.1397 0
M  V30 20901 C 1941.8 4.34651 1.44371 0
M  V30 20902 N 1943.29 4.37802 1.51274 0
M  V30 20903 C 1944.02 5.45596 1.76388 0
M  V30 20904 N 1943.52 6.63536 1.99228 0
M  V30 20905 N 1945.31 5.33088 1.78252 0
M  V30 20906 H 1937.46 2.09399 -0.355809 0
M  V30 20907 H 1939.73 0.943043 -0.0968225 0
M  V30 20908 H 1939.43 3.50918 0.234369 0
M  V30 20909 H 1939.31 3.22223 1.96092 0
M  V30 20910 H 1941.69 2.23082 1.9318 0
M  V30 20911 H 1941.77 2.55068 0.193426 0
M  V30 20912 H 1941.42 5.03635 0.656841 0
M  V30 20913 H 1941.35 4.68617 2.4022 0
M  V30 20914 H 1943.84 3.52777 1.35487 0
M  V30 20915 H 1944.15 7.41477 2.17789 0
M  V30 20916 H 1942.5 6.66634 1.9653 0
M  V30 20917 H 1945.69 4.39931 1.59933 0
M  V30 20918 H 1945.86 6.17174 1.97486 0
M  V30 20919 N 1939.27 -0.683564 1.42004 0
M  V30 20920 C 1940.52 -1.43934 1.413 0
M  V30 20921 C 1940.83 -1.95578 0.0296606 0
M  V30 20922 O 1942.04 -2.71316 -0.0999859 0
M  V30 20923 C 1940.49 -2.60331 2.48507 0
M  V30 20924 C 1940.1 -2.15424 3.92806 0
M  V30 20925 C 1941.84 -3.37895 2.56957 0
M  V30 20926 C 1939.75 -3.28851 4.91539 0
M  V30 20927 H 1938.68 -0.540693 0.525516 0
M  V30 20928 H 1941.33 -0.740914 1.67877 0
M  V30 20929 H 1939.71 -3.325 2.15081 0
M  V30 20930 H 1940.89 -1.50466 4.35542 0
M  V30 20931 H 1939.2 -1.50822 3.88126 0
M  V30 20932 H 1941.8 -4.22355 3.27903 0
M  V30 20933 H 1942.14 -3.83896 1.61027 0
M  V30 20934 H 1942.68 -2.72791 2.89534 0
M  V30 20935 H 1939.41 -2.87851 5.88916 0
M  V30 20936 H 1938.93 -3.92619 4.53443 0
M  V30 20937 H 1940.61 -3.9445 5.12853 0
M  V30 20938 N 1940.75 -1.28031 -0.919012 0
M  V30 20939 C 1941.97 -1.17828 -1.70679 0
M  V30 20940 C 1942.4 0.260207 -1.86292 0
M  V30 20941 O 1941.75 1.18833 -1.36925 0
M  V30 20942 C 1941.8 -1.87626 -3.07943 0
M  V30 20943 O 1940.91 -1.18014 -3.95154 0
M  V30 20944 H 1940.25 -0.40932 -0.522832 0
M  V30 20945 H 1942.78 -1.69258 -1.14947 0
M  V30 20946 H 1942.79 -1.95327 -3.58206 0
M  V30 20947 H 1941.46 -2.92263 -2.95897 0
M  V30 20948 H 1940.04 -1.18441 -3.5359 0
M  V30 20949 N 1942.22 1.12672 -1.10194 0
M  V30 20950 C 1943.47 1.83483 -0.837668 0
M  V30 20951 C 1943.79 1.84873 0.638864 0
M  V30 20952 O 1944.99 2.51654 1.01895 0
M  V30 20953 C 1943.45 3.29455 -1.4487 0
M  V30 20954 C 1943.06 3.36431 -2.95834 0
M  V30 20955 C 1944.8 4.05254 -1.26371 0
M  V30 20956 C 1942.71 4.76723 -3.49984 0
M  V30 20957 H 1941.64 0.687458 -0.309706 0
M  V30 20958 H 1944.29 1.26884 -1.32562 0
M  V30 20959 H 1942.67 3.85905 -0.88843 0
M  V30 20960 H 1943.84 2.89934 -3.58155 0
M  V30 20961 H 1942.16 2.74104 -3.13458 0
M  V30 20962 H 1944.76 5.0884 -1.64274 0
M  V30 20963 H 1945.1 4.15795 -0.205058 0
M  V30 20964 H 1945.63 3.55155 -1.79192 0
M  V30 20965 H 1942.37 4.71376 -4.55505 0
M  V30 20966 H 1941.89 5.23684 -2.9243 0
M  V30 20967 H 1943.57 5.45659 -3.47657 0
M  V30 20968 N 1943.7 0.89031 1.30043 0
M  V30 20969 C 1944.93 0.526566 2.00087 0
M  V30 20970 C 1945.34 -0.88632 1.66703 0
M  V30 20971 O 1944.7 -1.58365 0.907012 0
M  V30 20972 C 1944.75 0.698102 3.54695 0
M  V30 20973 O 1944.47 2.05537 3.86893 0
M  V30 20974 C 1945.97 0.338058 4.42009 0
M  V30 20975 H 1943.19 0.20299 0.639559 0
M  V30 20976 H 1945.74 1.19708 1.65802 0
M  V30 20977 H 1943.89 0.0748931 3.87328 0
M  V30 20978 H 1944.31 2.07787 4.81586 0
M  V30 20979 H 1945.78 0.508957 5.49649 0
M  V30 20980 H 1946.26 -0.724284 4.33187 0
M  V30 20981 H 1946.86 0.937813 4.14831 0
M  V30 20982 N 1945.18 -1.43489 0.651812 0
M  V30 20983 C 1946.43 -2.0183 0.164632 0
M  V30 20984 C 1946.75 -1.51408 -1.2209 0
M  V30 20985 O 1946.01 -0.697062 -1.82865 0
M  V30 20986 C 1946.31 -3.57189 0.122885 0
M  V30 20987 C 1945.97 -4.2695 1.44997 0
M  V30 20988 C 1944.64 -4.45724 1.81339 0
M  V30 20989 C 1946.99 -4.66468 2.32501 0
M  V30 20990 C 1944.32 -5.0128 3.04853 0
M  V30 20991 C 1946.67 -5.23393 3.55306 0
M  V30 20992 C 1945.33 -5.40383 3.91845 0
M  V30 20993 H 1944.6 -0.738547 0.0602433 0
M  V30 20994 H 1947.25 -1.71984 0.842241 0
M  V30 20995 H 1945.55 -3.86568 -0.638169 0
M  V30 20996 H 1947.25 -4.00084 -0.270911 0
M  V30 20997 H 1943.84 -4.12682 1.15721 0
M  V30 20998 H 1948.03 -4.51658 2.05715 0
M  V30 20999 H 1943.28 -5.1262 3.33213 0
M  V30 21000 H 1947.46 -5.52961 4.23329 0
M  V30 21001 H 1945.08 -5.83197 4.87632 0
M  V30 21002 N 1946.66 -0.393643 -1.52605 0
M  V30 21003 C 1947.9 0.187154 -2.01633 0
M  V30 21004 C 1948.23 1.46451 -1.27993 0
M  V30 21005 O 1947.49 1.92169 -0.370063 0
M  V30 21006 C 1947.79 0.497148 -3.53925 0
M  V30 21007 C 1947.45 -0.689176 -4.45602 0
M  V30 21008 C 1946.11 -1.01462 -4.70382 0
M  V30 21009 C 1948.47 -1.48262 -4.99668 0
M  V30 21010 C 1945.79 -2.13497 -5.46476 0
M  V30 21011 C 1948.15 -2.59361 -5.76987 0
M  V30 21012 C 1946.81 -2.92409 -6.00044 0
M  V30 21013 H 1946.08 0.0684846 -0.737828 0
M  V30 21014 H 1948.73 -0.531882 -1.83965 0
M  V30 21015 H 1947.03 1.29756 -3.6969 0
M  V30 21016 H 1948.73 0.959239 -3.89358 0
M  V30 21017 H 1945.32 -0.425524 -4.26482 0
M  V30 21018 H 1949.5 -1.24443 -4.80445 0
M  V30 21019 H 1944.76 -2.39467 -5.62553 0
M  V30 21020 H 1948.93 -3.21241 -6.17881 0
M  V30 21021 H 1946.56 -3.79341 -6.5879 0
M  V30 21022 N 1948.14 1.57115 -0.123593 0
M  V30 21023 C 1949.55 1.5789 0.232975 0
M  V30 21024 C 1949.75 1.13659 1.66385 0
M  V30 21025 O 1948.81 0.826084 2.38604 0
M  V30 21026 C 1950.12 3.007 -0.0045178 0
M  V30 21027 C 1951.67 3.12941 0.0610235 0
M  V30 21028 C 1952.14 4.57758 -0.148835 0
M  V30 21029 N 1953.63 4.63103 -0.0949606 0
M  V30 21030 C 1954.37 5.7293 -0.232177 0
M  V30 21031 N 1953.87 6.9149 -0.42582 0
M  V30 21032 N 1955.66 5.61839 -0.171428 0
M  V30 21033 H 1947.81 1.84166 -1.05814 0
M  V30 21034 H 1950.07 0.851342 -0.417038 0
M  V30 21035 H 1949.78 3.37364 -0.993901 0
M  V30 21036 H 1949.65 3.70161 0.725327 0
M  V30 21037 H 1952.04 2.76131 1.04094 0
M  V30 21038 H 1952.12 2.46014 -0.700776 0
M  V30 21039 H 1951.76 4.95267 -1.12574 0
M  V30 21040 H 1951.69 5.22782 0.633006 0
M  V30 21041 H 1954.19 3.77866 0.0510058 0
M  V30 21042 H 1954.5 7.7104 -0.521263 0
M  V30 21043 H 1952.84 6.93464 -0.461851 0
M  V30 21044 H 1956.03 4.68095 -0.0210758 0
M  V30 21045 H 1956.21 6.47387 -0.281807 0
M  V30 21046 N 1949.61 -0.150187 1.56883 0
M  V30 21047 C 1950.54 -1.18735 2.01058 0
M  V30 21048 C 1951.52 -1.44983 0.889606 0
M  V30 21049 O 1952.71 -1.55958 1.15719 0
M  V30 21050 C 1949.84 -2.52129 2.38848 0
M  V30 21051 C 1948.79 -2.40408 3.54101 0
M  V30 21052 C 1948.12 -3.78484 3.77695 0
M  V30 21053 C 1949.42 -1.89087 4.86871 0
M  V30 21054 H 1951.11 -0.820044 2.87951 0
M  V30 21055 H 1948.66 -0.393025 1.38533 0
M  V30 21056 H 1950.61 -3.24908 2.68352 0
M  V30 21057 H 1949.34 -2.90688 1.48889 0
M  V30 21058 H 1948 -1.70082 3.24758 0
M  V30 21059 H 1947.64 -4.14474 2.84992 0
M  V30 21060 H 1947.34 -3.71504 4.55256 0
M  V30 21061 H 1948.87 -4.52816 4.09621 0
M  V30 21062 H 1950.28 -2.51656 5.15114 0
M  V30 21063 H 1948.68 -1.93005 5.68216 0
M  V30 21064 H 1949.75 -0.846357 4.77457 0
M  V30 21065 N 1951.09 -1.51916 -0.419434 0
M  V30 21066 C 1952.34 -1.65468 -1.16732 0
M  V30 21067 C 1952.67 -0.379569 -1.9076 0
M  V30 21068 O 1951.92 0.637093 -1.8504 0
M  V30 21069 C 1952.22 -2.82039 -2.19519 0
M  V30 21070 C 1951.89 -4.20649 -1.62373 0
M  V30 21071 C 1950.55 -4.58353 -1.46512 0
M  V30 21072 C 1952.9 -5.0707 -1.20539 0
M  V30 21073 C 1950.23 -5.80166 -0.873185 0
M  V30 21074 C 1952.58 -6.29478 -0.627675 0
M  V30 21075 C 1951.25 -6.6594 -0.456114 0
M  V30 21076 H 1950.52 -0.605492 -0.427154 0
M  V30 21077 H 1953.16 -1.85994 -0.455916 0
M  V30 21078 H 1951.47 -2.55808 -2.96765 0
M  V30 21079 H 1953.16 -2.89722 -2.7724 0
M  V30 21080 H 1949.75 -3.90932 -1.75699 0
M  V30 21081 H 1953.94 -4.78533 -1.31606 0
M  V30 21082 H 1949.19 -6.07048 -0.728187 0
M  V30 21083 H 1953.37 -6.95775 -0.29508 0
M  V30 21084 H 1951 -7.602 0.00467585 0
M  V30 21085 N 1952.57 0.676023 -1.42365 0
M  V30 21086 C 1953.99 0.989001 -1.25263 0
M  V30 21087 C 1954.19 2.00896 -0.155941 0
M  V30 21088 O 1953.24 2.48026 0.473229 0
M  V30 21089 C 1954.56 1.49498 -2.60904 0
M  V30 21090 C 1956.1 1.61281 -2.68249 0
M  V30 21091 C 1956.58 2.15275 -4.04253 0
M  V30 21092 N 1958.07 2.2261 -4.06201 0
M  V30 21093 C 1958.8 2.6546 -5.08251 0
M  V30 21094 N 1958.3 3.07771 -6.20684 0
M  V30 21095 N 1960.09 2.65198 -4.95607 0
M  V30 21096 H 1952.24 0.000697929 -2.124 0
M  V30 21097 H 1954.51 0.0628334 -0.945915 0
M  V30 21098 H 1954.21 0.820033 -3.42006 0
M  V30 21099 H 1954.09 2.47392 -2.8474 0
M  V30 21100 H 1956.47 2.27882 -1.87493 0
M  V30 21101 H 1956.56 0.618793 -2.48203 0
M  V30 21102 H 1956.2 1.49284 -4.85466 0
M  V30 21103 H 1956.13 3.15466 -4.2165 0
M  V30 21104 H 1958.62 1.92776 -3.25032 0
M  V30 21105 H 1958.93 3.3915 -6.94404 0
M  V30 21106 H 1957.28 3.05631 -6.24191 0
M  V30 21107 H 1960.47 2.31504 -4.06846 0
M  V30 21108 H 1960.64 2.98272 -5.75272 0
M  V30 21109 N 1954.05 1.28517 0.912209 0
M  V30 21110 C 1955.29 1.15932 1.66396 0
M  V30 21111 C 1955.63 -0.291123 1.92006 0
M  V30 21112 O 1954.9 -1.21159 1.52154 0
M  V30 21113 C 1955.19 1.95993 3.0209 0
M  V30 21114 C 1955.04 3.49109 2.83625 0
M  V30 21115 C 1956.36 1.77655 4.0265 0
M  V30 21116 H 1953.48 0.42252 0.603859 0
M  V30 21117 H 1956.12 1.5785 1.05752 0
M  V30 21118 H 1954.27 1.60372 3.53855 0
M  V30 21119 H 1955.94 3.94644 2.38859 0
M  V30 21120 H 1954.18 3.74664 2.18653 0
M  V30 21121 H 1954.85 4.00386 3.79993 0
M  V30 21122 H 1957.33 2.08743 3.59952 0
M  V30 21123 H 1956.21 2.36043 4.95555 0
M  V30 21124 H 1956.47 0.728445 4.36057 0
M  V30 21125 N 1955.53 -1.12086 1.1079 0
M  V30 21126 C 1956.46 -2.17072 0.70392 0
M  V30 21127 C 1957.44 -1.59873 -0.296571 0
M  V30 21128 O 1958.62 -1.87493 -0.194599 0
M  V30 21129 C 1955.75 -3.38677 0.0392219 0
M  V30 21130 C 1954.79 -4.1452 1.00377 0
M  V30 21131 S 1955.63 -4.72343 2.52294 0
M  V30 21132 C 1956.78 -5.97279 1.87106 0
M  V30 21133 H 1957.02 -2.51004 1.59325 0
M  V30 21134 H 1954.55 -1.23605 0.925262 0
M  V30 21135 H 1956.51 -4.09107 -0.33795 0
M  V30 21136 H 1955.17 -3.03018 -0.82696 0
M  V30 21137 H 1954.36 -5.01651 0.486009 0
M  V30 21138 H 1953.96 -3.49817 1.32304 0
M  V30 21139 H 1956.26 -6.66726 1.20346 0
M  V30 21140 H 1957.2 -6.53688 2.72208 0
M  V30 21141 H 1957.61 -5.4851 1.33405 0
M  V30 21142 N 1957 -0.897194 -1.29569 0
M  V30 21143 C 1958.42 -0.592933 -1.48177 0
M  V30 21144 C 1958.62 0.866214 -1.81931 0
M  V30 21145 O 1957.68 1.64658 -1.91427 0
M  V30 21146 C 1958.99 -1.5166 -2.59653 0
M  V30 21147 C 1960.54 -1.52153 -2.73529 0
M  V30 21148 C 1961.01 -2.43142 -3.88131 0
M  V30 21149 N 1962.5 -2.41175 -3.9546 0
M  V30 21150 C 1963.24 -3.08283 -4.83476 0
M  V30 21151 N 1962.73 -3.84662 -5.76201 0
M  V30 21152 N 1964.53 -2.97453 -4.76946 0
M  V30 21153 H 1956.68 -1.84096 -1.05935 0
M  V30 21154 H 1958.94 -0.788701 -0.52598 0
M  V30 21155 H 1958.65 -2.55612 -2.41569 0
M  V30 21156 H 1958.52 -1.23526 -3.564 0
M  V30 21157 H 1960.91 -0.489472 -2.91012 0
M  V30 21158 H 1960.99 -1.84324 -1.77365 0
M  V30 21159 H 1960.63 -3.46441 -3.71404 0
M  V30 21160 H 1960.56 -2.08282 -4.83659 0
M  V30 21161 H 1963.05 -1.8568 -3.29137 0
M  V30 21162 H 1963.37 -4.32929 -6.4015 0
M  V30 21163 H 1961.71 -3.88769 -5.76094 0
M  V30 21164 H 1964.9 -2.37301 -4.03492 0
M  V30 21165 H 1965.08 -3.50029 -5.45329 0
M  V30 21166 N 1958.48 1.43142 -0.659413 0
M  V30 21167 C 1959.41 2.33495 0.0147266 0
M  V30 21168 C 1960.39 1.49819 0.805493 0
M  V30 21169 O 1961.58 1.78466 0.765732 0
M  V30 21170 C 1958.71 3.33261 0.977483 0
M  V30 21171 C 1957.66 4.26972 0.296396 0
M  V30 21172 C 1956.99 5.16824 1.37103 0
M  V30 21173 C 1958.29 5.15901 -0.815063 0
M  V30 21174 H 1959.98 2.90115 -0.739837 0
M  V30 21175 H 1957.53 1.39499 -0.357229 0
M  V30 21176 H 1959.48 3.95372 1.45805 0
M  V30 21177 H 1958.21 2.74911 1.76328 0
M  V30 21178 H 1956.86 3.66234 -0.16379 0
M  V30 21179 H 1956.51 4.5481 2.14842 0
M  V30 21180 H 1956.21 5.80345 0.920528 0
M  V30 21181 H 1957.74 5.81809 1.85284 0
M  V30 21182 H 1959.15 5.71786 -0.416382 0
M  V30 21183 H 1957.55 5.88175 -1.19041 0
M  V30 21184 H 1958.62 4.5522 -1.67042 0
M  V30 21185 N 1959.96 0.40173 1.52394 0
M  V30 21186 C 1961.21 -0.17672 2.02029 0
M  V30 21187 C 1961.54 -1.45417 1.28715 0
M  V30 21188 O 1960.81 -1.90524 0.391263 0
M  V30 21189 C 1961.1 -0.43198 3.575 0
M  V30 21190 C 1960.95 0.861628 4.4147 0
M  V30 21191 C 1962.27 -1.2173 4.2293 0
M  V30 21192 H 1959.39 -0.0627536 0.734323 0
M  V30 21193 H 1962.03 0.533742 1.82349 0
M  V30 21194 H 1960.18 -1.03719 3.74399 0
M  V30 21195 H 1961.85 1.49808 4.36297 0
M  V30 21196 H 1960.1 1.47424 4.07981 0
M  V30 21197 H 1960.77 0.637511 5.48306 0
M  V30 21198 H 1963.24 -0.704996 4.10084 0
M  V30 21199 H 1962.12 -1.36465 5.31666 0
M  V30 21200 H 1962.38 -2.23592 3.81391 0
M  V30 21201 N 1961.44 -1.57047 0.131923 0
M  V30 21202 C 1962.39 -2.15989 -0.813469 0
M  V30 21203 C 1963.36 -1.08848 -1.25464 0
M  V30 21204 O 1964.54 -1.36819 -1.32986 0
M  V30 21205 C 1961.68 -2.7738 -2.05315 0
M  V30 21206 C 1960.79 -3.98868 -1.65916 0
M  V30 21207 C 1959.93 -4.48305 -2.84948 0
M  V30 21208 C 1958.97 -5.62294 -2.41851 0
M  V30 21209 N 1958.1 -6.06417 -3.53841 0
M  V30 21210 H 1962.94 -2.96445 -0.304009 0
M  V30 21211 H 1960.48 -1.46448 -0.138355 0
M  V30 21212 H 1962.44 -3.11111 -2.77967 0
M  V30 21213 H 1961.07 -1.99593 -2.53697 0
M  V30 21214 H 1960.12 -3.71215 -0.830867 0
M  V30 21215 H 1961.43 -4.81493 -1.30252 0
M  V30 21216 H 1960.59 -4.84012 -3.6581 0
M  V30 21217 H 1959.33 -3.64657 -3.23847 0
M  V30 21218 H 1958.33 -5.26178 -1.59425 0
M  V30 21219 H 1959.56 -6.47718 -2.04055 0
M  V30 21220 H 1957.5 -5.25707 -3.92388 0
M  V30 21221 H 1957.42 -6.8393 -3.22143 0
M  V30 21222 H 1958.69 -6.46765 -4.35104 0
M  V30 21223 N 1962.92 0.141865 -1.5696 0
M  V30 21224 C 1963.85 1.17667 -2.01685 0
M  V30 21225 C 1964.83 1.44509 -0.897282 0
M  V30 21226 O 1966.01 1.55342 -1.16544 0
M  V30 21227 C 1963.14 2.50859 -2.40182 0
M  V30 21228 C 1962.1 2.38527 -3.55371 0
M  V30 21229 C 1961.42 3.76476 -3.79697 0
M  V30 21230 C 1962.72 1.86502 -4.87867 0
M  V30 21231 H 1964.42 0.804761 -2.88382 0
M  V30 21232 H 1961.96 0.385672 -1.38739 0
M  V30 21233 H 1963.92 3.2348 -2.70071 0
M  V30 21234 H 1962.64 2.89895 -1.50428 0
M  V30 21235 H 1961.3 1.68357 -3.25656 0
M  V30 21236 H 1960.95 4.12957 -2.87186 0
M  V30 21237 H 1960.65 3.69085 -4.5722 0
M  V30 21238 H 1962.17 4.50638 -4.12017 0
M  V30 21239 H 1963.58 2.48921 -5.16441 0
M  V30 21240 H 1961.98 1.89989 -5.69231 0
M  V30 21241 H 1963.05 0.821025 -4.77899 0
M  V30 21242 N 1964.39 1.52136 0.411372 0
M  V30 21243 C 1965.32 1.78277 1.50796 0
M  V30 21244 C 1966.31 0.633643 1.57857 0
M  V30 21245 O 1967.49 0.879011 1.73168 0
M  V30 21246 C 1964.62 1.93142 2.88641 0
M  V30 21247 C 1963.57 3.08727 2.96431 0
M  V30 21248 C 1962.9 3.08812 4.36508 0
M  V30 21249 C 1964.2 4.48228 2.68122 0
M  V30 21250 H 1965.89 2.70102 1.29171 0
M  V30 21251 H 1963.44 1.29971 0.619965 0
M  V30 21252 H 1965.39 2.10012 3.65339 0
M  V30 21253 H 1964.12 0.979869 3.11554 0
M  V30 21254 H 1962.78 2.91604 2.22177 0
M  V30 21255 H 1962.42 2.11383 4.56428 0
M  V30 21256 H 1962.12 3.86444 4.42645 0
M  V30 21257 H 1963.65 3.27809 5.15144 0
M  V30 21258 H 1965.06 4.65568 3.34544 0
M  V30 21259 H 1963.46 5.27761 2.85638 0
M  V30 21260 H 1964.53 4.56478 1.63572 0
M  V30 21261 N 1965.87 -0.668464 1.42721 0
M  V30 21262 C 1967.1 -1.46158 1.47148 0
M  V30 21263 C 1967.52 -1.87903 0.0860652 0
M  V30 21264 O 1966.88 -1.56406 -0.91689 0
M  V30 21265 C 1966.93 -2.68284 2.40949 0
M  V30 21266 O 1966.03 -3.66787 1.88522 0
M  V30 21267 H 1965.37 -0.438842 0.498311 0
M  V30 21268 H 1967.9 -0.819353 1.87477 0
M  V30 21269 H 1967.91 -3.1628 2.57742 0
M  V30 21270 H 1966.59 -2.3724 3.41599 0
M  V30 21271 H 1965.17 -3.25851 1.81315 0
M  V30 21272 N 1967.35 -1.28999 -0.905381 0
M  V30 21273 C 1968.77 -1.06887 -1.18522 0
M  V30 21274 C 1968.97 0.183459 -2.00663 0
M  V30 21275 O 1968.02 0.882808 -2.36564 0
M  V30 21276 C 1969.34 -2.32111 -1.91168 0
M  V30 21277 C 1970.88 -2.37374 -2.04017 0
M  V30 21278 C 1971.36 -3.62386 -2.80072 0
M  V30 21279 N 1972.85 -3.63075 -2.87629 0
M  V30 21280 C 1973.59 -4.56485 -3.47 0
M  V30 21281 N 1973.08 -5.60222 -4.07582 0
M  V30 21282 N 1974.87 -4.44065 -3.44619 0
M  V30 21283 H 1967.03 -2.09375 -0.357185 0
M  V30 21284 H 1969.29 -0.92195 -0.220707 0
M  V30 21285 H 1968.99 -3.23391 -1.38243 0
M  V30 21286 H 1968.87 -2.39178 -2.91674 0
M  V30 21287 H 1971.26 -1.46585 -2.56119 0
M  V30 21288 H 1971.34 -2.34296 -1.0266 0
M  V30 21289 H 1970.98 -4.53523 -2.28647 0
M  V30 21290 H 1970.91 -3.6272 -3.81761 0
M  V30 21291 H 1973.4 -2.88065 -2.44595 0
M  V30 21292 H 1973.71 -6.27629 -4.50889 0
M  V30 21293 H 1972.06 -5.64038 -4.06061 0
M  V30 21294 H 1975.25 -3.62218 -2.96505 0
M  V30 21295 H 1975.42 -5.17049 -3.90595 0
M  V30 21296 N 1968.83 1.11497 -1.11383 0
M  V30 21297 C 1970.08 1.8286 -0.860611 0
M  V30 21298 C 1970.4 1.85032 0.615471 0
M  V30 21299 O 1969.67 1.32047 1.44708 0
M  V30 21300 H 1968.25 0.677153 -0.315392 0
M  V30 21301 H 1970.91 1.34963 -1.40609 0
M  V30 21302 H 1970.01 2.86743 -1.23227 0
M  V30 21303 N 1970.31 0.904053 1.29092 0
M  V30 21304 C 1971.22 0.389825 2.31339 0
M  V30 21305 C 1972.23 -0.517628 1.66122 0
M  V30 21306 O 1973.41 -0.406158 1.97262 0
M  V30 21307 C 1970.47 -0.370468 3.44715 0
M  V30 21308 C 1969.54 0.569032 4.25512 0
M  V30 21309 C 1968.77 -0.155071 5.33475 0
M  V30 21310 O 1968.99 -1.37834 5.53496 0
M  V30 21311 O 1967.93 0.504642 5.99781 0
M  V30 21312 H 1971.75 1.2382 2.77313 0
M  V30 21313 H 1969.34 0.668528 1.33608 0
M  V30 21314 H 1971.22 -0.800237 4.13732 0
M  V30 21315 H 1969.89 -1.19484 3.00841 0
M  V30 21316 H 1968.8 1.048 3.59121 0
M  V30 21317 H 1970.13 1.35994 4.7304 0
M  V30 21318 N 1971.79 -1.4279 0.666995 0
M  V30 21319 C 1973.03 -2.01245 0.185662 0
M  V30 21320 C 1973.35 -1.52966 -1.2094 0
M  V30 21321 O 1972.62 -0.748036 -1.81056 0
M  V30 21322 H 1971.2 -0.74411 0.0656484 0
M  V30 21323 H 1973.87 -1.74814 0.861754 0
M  V30 21324 H 1972.96 -3.11575 0.180905 0
M  V30 21325 N 1973.26 -0.409806 -1.52179 0
M  V30 21326 C 1974.51 0.167113 -2.01007 0
M  V30 21327 C 1974.83 1.46166 -1.2998 0
M  V30 21328 O 1976.03 2.11988 -1.69628 0
M  V30 21329 C 1974.49 0.348367 -3.5821 0
M  V30 21330 C 1974.1 -0.934131 -4.38153 0
M  V30 21331 C 1975.84 0.880542 -4.15267 0
M  V30 21332 C 1973.75 -0.720028 -5.87 0
M  V30 21333 H 1972.68 0.0662269 -0.751086 0
M  V30 21334 H 1975.33 -0.535355 -1.75517 0
M  V30 21335 H 1973.71 1.11318 -3.80032 0
M  V30 21336 H 1974.88 -1.70515 -4.2809 0
M  V30 21337 H 1973.2 -1.39277 -3.92417 0
M  V30 21338 H 1975.8 1.05677 -5.24153 0
M  V30 21339 H 1976.14 1.85542 -3.72666 0
M  V30 21340 H 1976.67 0.174766 -3.97416 0
M  V30 21341 H 1973.41 -1.66649 -6.33963 0
M  V30 21342 H 1972.93 0.0116803 -5.99799 0
M  V30 21343 H 1974.61 -0.362471 -6.45984 0
M  V30 21344 N 1974.74 1.56975 -0.14025 0
M  V30 21345 C 1976.16 1.58129 0.216215 0
M  V30 21346 C 1976.36 1.15417 1.6517 0
M  V30 21347 O 1975.41 0.851345 2.37715 0
M  V30 21348 C 1976.73 3.00678 -0.0364108 0
M  V30 21349 C 1978.27 3.12988 0.0278286 0
M  V30 21350 C 1978.75 4.57574 -0.197378 0
M  V30 21351 N 1980.24 4.62976 -0.144073 0
M  V30 21352 C 1980.98 5.72651 -0.292931 0
M  V30 21353 N 1980.47 6.91 -0.499138 0
M  V30 21354 N 1982.26 5.61625 -0.231008 0
M  V30 21355 H 1974.42 1.83033 -1.07762 0
M  V30 21356 H 1976.68 0.846871 -0.426044 0
M  V30 21357 H 1976.38 3.36291 -1.02963 0
M  V30 21358 H 1976.26 3.70909 0.686026 0
M  V30 21359 H 1978.65 2.7722 1.01159 0
M  V30 21360 H 1978.73 2.45257 -0.726829 0
M  V30 21361 H 1978.37 4.94045 -1.17821 0
M  V30 21362 H 1978.3 5.23424 0.577522 0
M  V30 21363 H 1980.79 3.77898 0.0109252 0
M  V30 21364 H 1981.1 7.70444 -0.603012 0
M  V30 21365 H 1979.45 6.92935 -0.535376 0
M  V30 21366 H 1982.64 4.68047 -0.0707224 0
M  V30 21367 H 1982.81 6.47052 -0.350455 0
M  V30 21368 N 1976.22 -0.133539 1.57033 0
M  V30 21369 C 1977.45 -0.858432 1.88251 0
M  V30 21370 C 1977.86 -1.74119 0.729935 0
M  V30 21371 O 1977.22 -1.8002 -0.29983 0
M  V30 21372 C 1977.27 -1.70397 3.18821 0
M  V30 21373 O 1976.99 -0.856775 4.29641 0
M  V30 21374 C 1978.49 -2.53529 3.63646 0
M  V30 21375 H 1975.71 -0.247538 0.623671 0
M  V30 21376 H 1978.26 -0.122289 2.04134 0
M  V30 21377 H 1976.41 -2.39303 3.04652 0
M  V30 21378 H 1976.83 -1.43857 5.04386 0
M  V30 21379 H 1978.3 -3.0841 4.57807 0
M  V30 21380 H 1978.78 -3.30204 2.89589 0
M  V30 21381 H 1979.38 -1.89891 3.80554 0
M  V30 21382 N 1977.7 -1.52352 -0.403298 0
M  V30 21383 C 1978.63 -1.79074 -1.49849 0
M  V30 21384 C 1979.61 -0.642006 -1.57519 0
M  V30 21385 O 1980.79 -0.888182 -1.72699 0
M  V30 21386 C 1977.92 -1.9467 -2.87612 0
M  V30 21387 C 1976.88 -3.10295 -2.9479 0
M  V30 21388 C 1976.2 -3.11122 -4.34864 0
M  V30 21389 C 1977.5 -4.49643 -2.65741 0
M  V30 21390 H 1979.2 -2.70783 -1.27737 0
M  V30 21391 H 1976.74 -1.30298 -0.613064 0
M  V30 21392 H 1978.7 -2.11947 -3.64221 0
M  V30 21393 H 1977.42 -0.996377 -3.1103 0
M  V30 21394 H 1976.08 -2.92778 -2.20627 0
M  V30 21395 H 1975.73 -2.13801 -4.553 0
M  V30 21396 H 1975.43 -3.88786 -4.4059 0
M  V30 21397 H 1976.95 -3.30536 -5.13399 0
M  V30 21398 H 1978.37 -4.67335 -3.3207 0
M  V30 21399 H 1976.76 -5.29268 -2.82835 0
M  V30 21400 H 1977.83 -4.57339 -1.61149 0
M  V30 21401 N 1979.18 0.660885 -1.43074 0
M  V30 21402 C 1980.11 1.78579 -1.50438 0
M  V30 21403 C 1981.09 1.66253 -0.359703 0
M  V30 21404 O 1982.27 1.85465 -0.575893 0
M  V30 21405 C 1979.4 3.16963 -1.41956 0
M  V30 21406 C 1978.36 3.44043 -2.54594 0
M  V30 21407 C 1977.68 4.82147 -2.31166 0
M  V30 21408 C 1978.98 3.3955 -3.96867 0
M  V30 21409 H 1980.68 1.72673 -2.4459 0
M  V30 21410 H 1978.22 0.829317 -1.17721 0
M  V30 21411 H 1980.17 3.95406 -1.45713 0
M  V30 21412 H 1978.9 3.23581 -0.443048 0
M  V30 21413 H 1977.56 2.67969 -2.50177 0
M  V30 21414 H 1977.21 4.85432 -1.31776 0
M  V30 21415 H 1976.91 5.01228 -3.06667 0
M  V30 21416 H 1978.43 5.62857 -2.36695 0
M  V30 21417 H 1979.84 4.0794 -4.02813 0
M  V30 21418 H 1978.24 3.70166 -4.72332 0
M  V30 21419 H 1979.31 2.37868 -4.22548 0
M  V30 21420 N 1980.65 1.29477 0.898527 0
M  V30 21421 C 1981.9 1.187 1.65172 0
M  V30 21422 C 1982.26 -0.258703 1.90653 0
M  V30 21423 O 1981.55 -1.1836 1.5067 0
M  V30 21424 C 1981.74 1.93505 3.00484 0
M  V30 21425 C 1981.57 3.45202 2.88211 0
M  V30 21426 C 1980.34 4.14554 2.88917 0
M  V30 21427 C 1982.54 4.40679 2.65155 0
M  V30 21428 N 1980.52 5.52607 2.67393 0
M  V30 21429 C 1981.89 5.662 2.52622 0
M  V30 21430 C 1983.95 4.30429 2.50271 0
M  V30 21431 C 1982.65 6.82634 2.26722 0
M  V30 21432 C 1984.68 5.46616 2.25754 0
M  V30 21433 C 1984.04 6.7111 2.13988 0
M  V30 21434 H 1980.14 0.48936 0.60996 0
M  V30 21435 H 1982.72 1.6332 1.05993 0
M  V30 21436 H 1980.89 1.51297 3.5772 0
M  V30 21437 H 1982.62 1.74984 3.64915 0
M  V30 21438 H 1979.38 3.66265 3.00244 0
M  V30 21439 H 1979.8 6.25216 2.59681 0
M  V30 21440 H 1984.45 3.34871 2.58111 0
M  V30 21441 H 1982.16 7.78246 2.17621 0
M  V30 21442 H 1985.75 5.40585 2.1508 0
M  V30 21443 H 1984.63 7.59497 1.9528 0
M  V30 21444 N 1982.13 -1.10905 1.11972 0
M  V30 21445 C 1983.36 -1.86555 0.894699 0
M  V30 21446 C 1983.78 -1.80434 -0.555801 0
M  V30 21447 O 1983.13 -1.18957 -1.38403 0
M  V30 21448 C 1983.18 -3.35148 1.35492 0
M  V30 21449 O 1982.9 -3.41154 2.74856 0
M  V30 21450 C 1984.41 -4.27687 1.16612 0
M  V30 21451 H 1981.63 -0.589761 0.320037 0
M  V30 21452 H 1984.17 -1.40232 1.48846 0
M  V30 21453 H 1982.32 -3.78955 0.804493 0
M  V30 21454 H 1982.74 -4.3372 2.94936 0
M  V30 21455 H 1984.21 -5.30168 1.53708 0
M  V30 21456 H 1984.69 -4.39072 0.106219 0
M  V30 21457 H 1985.3 -3.8968 1.70381 0
M  V30 21458 N 1983.61 -0.910886 -1.2861 0
M  V30 21459 C 1984.86 -0.542557 -1.95096 0
M  V30 21460 C 1985.19 0.913233 -1.71727 0
M  V30 21461 O 1984.44 1.66424 -1.02963 0
M  V30 21462 C 1984.74 -0.794745 -3.48452 0
M  V30 21463 C 1984.41 -2.22964 -3.91916 0
M  V30 21464 C 1983.07 -2.62195 -4.03494 0
M  V30 21465 C 1985.42 -3.16353 -4.1421 0
M  V30 21466 C 1982.75 -3.93974 -4.34743 0
M  V30 21467 C 1985.1 -4.47694 -4.46938 0
M  V30 21468 C 1983.76 -4.86783 -4.56726 0
M  V30 21469 H 1983.03 -0.198536 -0.713908 0
M  V30 21470 H 1985.68 -1.15167 -1.53 0
M  V30 21471 H 1983.99 -0.102809 -3.91665 0
M  V30 21472 H 1985.68 -0.488975 -3.98008 0
M  V30 21473 H 1982.27 -1.91521 -3.83429 0
M  V30 21474 H 1986.46 -2.87253 -4.04721 0
M  V30 21475 H 1981.71 -4.23965 -4.40526 0
M  V30 21476 H 1985.89 -5.20074 -4.63137 0
M  V30 21477 H 1983.51 -5.88928 -4.80695 0
M  V30 21478 N 1985.09 1.42434 -0.674558 0
M  V30 21479 C 1986.34 2.00765 -0.193936 0
M  V30 21480 C 1986.65 1.53957 1.20651 0
M  V30 21481 O 1987.86 2.04705 1.78348 0
M  V30 21482 C 1986.31 3.58682 -0.295862 0
M  V30 21483 C 1985.92 4.14478 -1.70034 0
M  V30 21484 C 1987.66 4.24313 0.12606 0
M  V30 21485 C 1985.57 5.64758 -1.75505 0
M  V30 21486 H 1984.5 0.75086 -0.0687443 0
M  V30 21487 H 1987.15 1.6316 -0.839705 0
M  V30 21488 H 1985.53 3.9379 0.417795 0
M  V30 21489 H 1986.71 3.90831 -2.44106 0
M  V30 21490 H 1985.02 3.61298 -2.07009 0
M  V30 21491 H 1987.62 5.34596 0.105331 0
M  V30 21492 H 1987.96 3.99775 1.16127 0
M  V30 21493 H 1988.5 3.94164 -0.536581 0
M  V30 21494 H 1985.24 5.94094 -2.77007 0
M  V30 21495 H 1984.76 5.90397 -1.05788 0
M  V30 21496 H 1986.43 6.29172 -1.50838 0
M  V30 21497 N 1986.57 0.417871 1.51959 0
M  V30 21498 C 1987.51 -0.403305 2.27249 0
M  V30 21499 C 1988.48 -1.0336 1.30023 0
M  V30 21500 O 1989.67 -1.05621 1.58899 0
M  V30 21501 C 1986.81 -1.50928 3.10346 0
M  V30 21502 C 1985.92 -0.899043 4.22541 0
M  V30 21503 C 1985.06 -1.97844 4.92982 0
M  V30 21504 C 1984.1 -1.3456 5.97126 0
M  V30 21505 N 1983.23 -2.36552 6.6105 0
M  V30 21506 H 1988.07 0.245143 2.9699 0
M  V30 21507 H 1985.61 0.132733 1.465 0
M  V30 21508 H 1987.57 -2.16157 3.56836 0
M  V30 21509 H 1986.2 -2.12763 2.42759 0
M  V30 21510 H 1985.25 -0.135561 3.80158 0
M  V30 21511 H 1986.56 -0.396845 4.97219 0
M  V30 21512 H 1985.72 -2.7078 5.42921 0
M  V30 21513 H 1984.45 -2.51432 4.17892 0
M  V30 21514 H 1983.46 -0.601616 5.46499 0
M  V30 21515 H 1984.68 -0.817308 6.74164 0
M  V30 21516 H 1982.63 -2.89256 5.88784 0
M  V30 21517 H 1982.55 -1.91169 7.3143 0
M  V30 21518 H 1983.82 -3.09031 7.15626 0
M  V30 21519 N 1988.04 -1.56898 0.148573 0
M  V30 21520 C 1989.27 -2.00974 -0.512287 0
M  V30 21521 C 1989.69 -1.02801 -1.57523 0
M  V30 21522 O 1989.05 -0.00400411 -1.813 0
M  V30 21523 C 1989.1 -3.43785 -1.08832 0
M  V30 21524 O 1988.2 -3.4862 -2.20313 0
M  V30 21525 H 1987.55 -0.652102 -0.125133 0
M  V30 21526 H 1990.08 -2.03119 0.245769 0
M  V30 21527 H 1990.09 -3.82618 -1.41659 0
M  V30 21528 H 1988.76 -4.14744 -0.309923 0
M  V30 21529 H 1987.34 -3.2163 -1.88702 0
M  V30 21530 N 1989.52 0.125209 -1.57102 0
M  V30 21531 C 1990.77 0.834085 -1.84524 0
M  V30 21532 C 1991.1 1.8017 -0.732742 0
M  V30 21533 O 1990.35 1.93738 0.276448 0
M  V30 21534 C 1990.65 1.62349 -3.18398 0
M  V30 21535 C 1990.32 0.800729 -4.43733 0
M  V30 21536 C 1988.98 0.573817 -4.77766 0
M  V30 21537 C 1991.33 0.226814 -5.20706 0
M  V30 21538 C 1988.66 -0.237364 -5.8622 0
M  V30 21539 C 1991.01 -0.571524 -6.30013 0
M  V30 21540 C 1989.68 -0.80881 -6.62582 0
M  V30 21541 H 1988.95 0.305213 -0.675223 0
M  V30 21542 H 1991.59 0.0967265 -1.91256 0
M  V30 21543 H 1989.9 2.43158 -3.07215 0
M  V30 21544 H 1991.59 2.17583 -3.36836 0
M  V30 21545 H 1988.18 0.987673 -4.17065 0
M  V30 21546 H 1992.37 0.389351 -4.9477 0
M  V30 21547 H 1987.62 -0.430488 -6.09883 0
M  V30 21548 H 1991.8 -1.02325 -6.88841 0
M  V30 21549 H 1989.43 -1.4392 -7.46452 0
M  V30 21550 N 1991 1.52564 0.395213 0
M  V30 21551 C 1991.93 1.73146 1.50177 0
M  V30 21552 C 1992.95 0.611895 1.50863 0
M  V30 21553 O 1994.13 0.887429 1.54877 0
M  V30 21554 C 1991.23 1.76943 2.89041 0
M  V30 21555 C 1990.41 3.06156 3.12389 0
M  V30 21556 C 1989.47 3.01581 4.31202 0
M  V30 21557 O 1988.49 3.75459 4.27807 0
M  V30 21558 N 1989.69 2.20335 5.37059 0
M  V30 21559 H 1992.46 2.68617 1.3291 0
M  V30 21560 H 1990.02 1.50975 0.584663 0
M  V30 21561 H 1992.01 1.71396 3.66613 0
M  V30 21562 H 1990.58 0.888857 2.99697 0
M  V30 21563 H 1989.8 3.25242 2.22737 0
M  V30 21564 H 1991.09 3.91607 3.2484 0
M  V30 21565 H 1990.49 1.59768 5.4267 0
M  V30 21566 H 1989.05 2.20634 6.13322 0
M  V30 21567 N 1992.48 -0.653289 1.43422 0
M  V30 21568 C 1993.44 -1.74802 1.48246 0
M  V30 21569 C 1994.44 -1.56552 0.367179 0
M  V30 21570 O 1995.63 -1.62451 0.628923 0
M  V30 21571 C 1992.76 -3.13673 1.33499 0
M  V30 21572 H 1993.96 -1.71906 2.4574 0
M  V30 21573 H 1991.51 -0.864936 1.30187 0
M  V30 21574 H 1992.24 -3.22181 0.370118 0
M  V30 21575 H 1992.03 -3.28325 2.14348 0
M  V30 21576 H 1993.52 -3.93502 1.39806 0
M  V30 21577 N 1993.96 -1.29952 -0.891648 0
M  V30 21578 C 1994.89 -1.18331 -2.01296 0
M  V30 21579 C 1995.87 -0.0755571 -1.69932 0
M  V30 21580 O 1997.05 -0.256435 -1.92499 0
M  V30 21581 C 1994.18 -0.867421 -3.36293 0
M  V30 21582 C 1993.14 -1.93237 -3.81894 0
M  V30 21583 C 1992.46 -1.46962 -5.14107 0
M  V30 21584 C 1993.76 -3.34246 -4.01344 0
M  V30 21585 H 1995.46 -2.12138 -2.11276 0
M  V30 21586 H 1993 -1.02132 -1.01514 0
M  V30 21587 H 1994.96 -0.772806 -4.14253 0
M  V30 21588 H 1993.68 0.106342 -3.26427 0
M  V30 21589 H 1992.34 -2.01651 -3.06157 0
M  V30 21590 H 1991.99 -0.484311 -5.00663 0
M  V30 21591 H 1991.69 -2.1819 -5.45589 0
M  V30 21592 H 1993.21 -1.38866 -5.94599 0
M  V30 21593 H 1994.62 -3.28629 -4.69762 0
M  V30 21594 H 1993.02 -4.03502 -4.44192 0
M  V30 21595 H 1994.09 -3.76629 -3.05415 0
M  V30 21596 N 1995.44 1.1031 -1.12559 0
M  V30 21597 C 1996.85 1.63801 -0.895891 0
M  V30 21598 C 1997.2 1.87753 0.569511 0
M  V30 21599 O 1996.32 1.62046 1.43423 0
M  V30 21600 C 1996.92 2.9757 -1.6198 0
M  V30 21601 C 1995.48 3.47922 -1.43622 0
M  V30 21602 C 1994.62 2.22506 -1.65489 0
M  V30 21603 H 1997.57 0.937927 -1.28018 0
M  V30 21604 H 1997.6 3.65099 -1.07159 0
M  V30 21605 H 1997.11 2.80105 -2.68631 0
M  V30 21606 H 1995.21 3.70529 -0.392328 0
M  V30 21607 H 1995.32 4.25953 -2.1932 0
M  V30 21608 H 1993.69 2.30712 -1.07908 0
M  V30 21609 H 1994.47 2.07571 -2.7344 0
M  V30 21610 N 1996.91 0.917694 1.28125 0
M  V30 21611 C 1998.14 0.568064 1.98637 0
M  V30 21612 C 1998.55 -0.855939 1.68732 0
M  V30 21613 O 1997.89 -1.57905 0.938699 0
M  V30 21614 C 1997.96 0.702044 3.52578 0
M  V30 21615 C 1997.62 2.09632 4.06083 0
M  V30 21616 C 1998.62 3.06946 4.19619 0
M  V30 21617 C 1996.3 2.41056 4.40678 0
M  V30 21618 C 1998.3 4.33798 4.67009 0
M  V30 21619 C 1995.98 3.68147 4.87761 0
M  V30 21620 C 1996.98 4.64332 5.00884 0
M  V30 21621 O 1996.67 5.89163 5.46939 0
M  V30 21622 H 1996.4 0.214921 0.640925 0
M  V30 21623 H 1998.96 1.23412 1.64191 0
M  V30 21624 H 1997.19 -0.0210885 3.86694 0
M  V30 21625 H 1998.87 0.358941 4.0431 0
M  V30 21626 H 1999.64 2.83987 3.93162 0
M  V30 21627 H 1995.52 1.6694 4.29712 0
M  V30 21628 H 1999.06 5.08878 4.77167 0
M  V30 21629 H 1994.96 3.90929 5.13659 0
M  V30 21630 H 1995.73 5.92008 5.65216 0
M  V30 21631 N 1998.39 -1.42074 0.682102 0
M  V30 21632 C 1999.64 -2.01733 0.207714 0
M  V30 21633 C 1999.97 -1.53844 -1.18514 0
M  V30 21634 O 1999.25 -0.74378 -1.79717 0
M  V30 21635 C 1999.53 -3.59228 0.250438 0
M  V30 21636 C 1999.38 -4.17278 1.67927 0
M  V30 21637 C 2000.7 -4.38303 -0.397296 0
M  V30 21638 H 1997.82 -0.732972 0.0769518 0
M  V30 21639 H 2000.46 -1.69 0.868272 0
M  V30 21640 H 1998.61 -3.87245 -0.312007 0
M  V30 21641 H 2000.28 -4.00187 2.29452 0
M  V30 21642 H 1998.53 -3.7283 2.21767 0
M  V30 21643 H 1999.2 -5.26423 1.66079 0
M  V30 21644 H 2001.67 -4.1602 0.0815622 0
M  V30 21645 H 2000.55 -5.47866 -0.336797 0
M  V30 21646 H 2000.81 -4.16733 -1.476 0
M  V30 21647 N 1999.87 -0.425924 -1.51735 0
M  V30 21648 C 2000.83 0.379497 -2.26036 0
M  V30 21649 C 2001.83 0.95944 -1.2904 0
M  V30 21650 O 2003.02 0.83568 -1.52846 0
M  V30 21651 C 2000.15 1.5358 -3.04345 0
M  V30 21652 H 2001.35 -0.271515 -2.98668 0
M  V30 21653 H 1998.9 -0.17882 -1.55274 0
M  V30 21654 H 1999.64 2.2232 -2.36103 0
M  V30 21655 H 1999.42 1.12626 -3.75577 0
M  V30 21656 H 2000.91 2.10513 -3.60658 0
M  V30 21657 N 2001.35 1.56817 -0.156891 0
M  V30 21658 C 2002.28 2.20266 0.774915 0
M  V30 21659 C 2003.26 1.15387 1.24979 0
M  V30 21660 O 2004.44 1.43766 1.30557 0
M  V30 21661 C 2001.57 2.83207 2.01025 0
M  V30 21662 C 2000.53 3.94 1.67177 0
M  V30 21663 C 1999.85 4.43921 2.98057 0
M  V30 21664 C 2001.15 5.14297 0.91083 0
M  V30 21665 H 2002.85 2.98387 0.246082 0
M  V30 21666 H 2000.39 1.43525 0.116921 0
M  V30 21667 H 2002.35 3.26264 2.66701 0
M  V30 21668 H 2001.07 2.02433 2.56298 0
M  V30 21669 H 1999.73 3.51576 1.03876 0
M  V30 21670 H 1999.38 3.59957 3.5134 0
M  V30 21671 H 1999.08 5.18657 2.76169 0
M  V30 21672 H 2000.6 4.89656 3.64787 0
M  V30 21673 H 2002.02 5.54137 1.46988 0
M  V30 21674 H 2000.41 5.94857 0.791526 0
M  V30 21675 H 2001.48 4.84806 -0.0955943 0
M  V30 21676 N 2002.83 -0.116876 1.57166 0
M  V30 21677 C 2003.76 -1.14443 2.03531 0
M  V30 21678 C 2004.74 -1.43063 0.920159 0
M  V30 21679 O 2005.92 -1.53468 1.19001 0
M  V30 21680 C 2003.05 -2.47006 2.44142 0
M  V30 21681 C 2002.01 -2.32843 3.59121 0
M  V30 21682 C 2001.33 -3.70388 3.85639 0
M  V30 21683 C 2002.63 -1.78717 4.90772 0
M  V30 21684 H 2004.33 -0.75878 2.89625 0
M  V30 21685 H 2001.87 -0.363551 1.39335 0
M  V30 21686 H 2003.82 -3.19143 2.75184 0
M  V30 21687 H 2002.55 -2.87465 1.55021 0
M  V30 21688 H 2001.21 -1.63155 3.28293 0
M  V30 21689 H 2000.86 -4.08335 2.9372 0
M  V30 21690 H 2000.56 -3.61764 4.63034 0
M  V30 21691 H 2002.08 -4.44026 4.19134 0
M  V30 21692 H 2003.49 -2.40673 5.20336 0
M  V30 21693 H 2001.89 -1.80909 5.72182 0
M  V30 21694 H 2002.96 -0.744891 4.79144 0
M  V30 21695 N 2004.3 -1.52772 -0.387116 0
M  V30 21696 C 2005.55 -1.67131 -1.12916 0
M  V30 21697 C 2005.87 -0.418501 -1.9107 0
M  V30 21698 O 2007.07 -0.442261 -2.67874 0
M  V30 21699 C 2005.53 -2.95368 -2.05635 0
M  V30 21700 C 2005.14 -4.27835 -1.32895 0
M  V30 21701 C 2006.88 -3.19093 -2.79964 0
M  V30 21702 C 2004.79 -5.47177 -2.2439 0
M  V30 21703 H 2003.72 -0.622655 -0.425225 0
M  V30 21704 H 2006.37 -1.79268 -0.391801 0
M  V30 21705 H 2004.75 -2.76981 -2.83015 0
M  V30 21706 H 2005.92 -4.56781 -0.607276 0
M  V30 21707 H 2004.24 -4.10385 -0.705181 0
M  V30 21708 H 2006.84 -4.05436 -3.48605 0
M  V30 21709 H 2007.18 -2.34244 -3.44145 0
M  V30 21710 H 2007.71 -3.38054 -2.09676 0
M  V30 21711 H 2004.45 -6.3444 -1.64822 0
M  V30 21712 H 2003.97 -5.22541 -2.94468 0
M  V30 21713 H 2005.65 -5.81126 -2.84432 0
M  V30 21714 N 2005.78 0.645673 -1.43767 0
M  V30 21715 C 2006.74 1.74013 -1.49171 0
M  V30 21716 C 2007.74 1.56355 -0.375476 0
M  V30 21717 O 2008.93 1.62115 -0.637529 0
M  V30 21718 C 2006.07 3.12961 -1.3516 0
M  V30 21719 H 2007.26 1.706 -2.46649 0
M  V30 21720 H 2004.81 0.858019 -1.30643 0
M  V30 21721 H 2005.55 3.2198 -0.387199 0
M  V30 21722 H 2005.33 3.27184 -2.16086 0
M  V30 21723 H 2006.82 3.92755 -1.41891 0
M  V30 21724 N 2007.26 1.30423 0.884744 0
M  V30 21725 C 2008.19 1.1115 1.99301 0
M  V30 21726 C 2009.17 0.0190841 1.62589 0
M  V30 21727 O 2010.35 0.172682 1.87707 0
M  V30 21728 C 2007.48 0.695241 3.31488 0
M  V30 21729 C 2006.53 1.78856 3.87186 0
M  V30 21730 S 2007.36 3.39102 4.14452 0
M  V30 21731 C 2008.52 2.99379 5.49657 0
M  V30 21732 H 2008.75 2.04975 2.15343 0
M  V30 21733 H 2006.28 1.14739 1.03316 0
M  V30 21734 H 2008.24 0.461806 4.07894 0
M  V30 21735 H 2006.9 -0.223647 3.13303 0
M  V30 21736 H 2006.09 1.44959 4.82704 0
M  V30 21737 H 2005.7 1.97629 3.1752 0
M  V30 21738 H 2007.99 2.47353 6.30732 0
M  V30 21739 H 2008.93 3.93805 5.88493 0
M  V30 21740 H 2009.34 2.37239 5.12228 0
M  V30 21741 N 2008.74 -1.09711 1.13142 0
M  V30 21742 C 2009.67 -2.18301 0.828662 0
M  V30 21743 C 2010.65 -1.6879 -0.210733 0
M  V30 21744 O 2011.83 -1.94073 -0.0702977 0
M  V30 21745 C 2008.96 -3.46081 0.290674 0
M  V30 21746 C 2007.92 -4.0891 1.26398 0
M  V30 21747 C 2007.24 -5.3148 0.585887 0
M  V30 21748 C 2008.54 -4.51751 2.62142 0
M  V30 21749 H 2010.24 -2.43885 1.73668 0
M  V30 21750 H 2007.78 -1.17216 0.836449 0
M  V30 21751 H 2009.74 -4.21347 0.0665509 0
M  V30 21752 H 2008.46 -3.20011 -0.652716 0
M  V30 21753 H 2007.12 -3.3566 1.47405 0
M  V30 21754 H 2006.77 -5.01689 -0.362883 0
M  V30 21755 H 2006.47 -5.7447 1.23522 0
M  V30 21756 H 2007.99 -6.09472 0.370976 0
M  V30 21757 H 2009.41 -5.18255 2.45121 0
M  V30 21758 H 2007.8 -5.05615 3.23223 0
M  V30 21759 H 2008.87 -3.64297 3.20025 0
M  V30 21760 N 2010.22 -0.924476 -1.27637 0
M  V30 21761 C 2011.46 -0.563219 -1.9451 0
M  V30 21762 C 2011.79 0.894968 -1.72686 0
M  V30 21763 O 2011.05 1.65323 -1.04722 0
M  V30 21764 C 2011.35 -0.831659 -3.47589 0
M  V30 21765 C 2011.01 -2.27108 -3.89529 0
M  V30 21766 C 2009.67 -2.6646 -4.0069 0
M  V30 21767 C 2012.03 -3.20729 -4.10832 0
M  V30 21768 C 2009.35 -3.98563 -4.3054 0
M  V30 21769 C 2011.71 -4.52409 -4.42164 0
M  V30 21770 C 2010.37 -4.91599 -4.51538 0
M  V30 21771 H 2009.64 -0.206096 -0.711762 0
M  V30 21772 H 2012.29 -1.16783 -1.51769 0
M  V30 21773 H 2010.59 -0.144345 -3.91534 0
M  V30 21774 H 2012.29 -0.531162 -3.97467 0
M  V30 21775 H 2008.88 -1.95577 -3.81376 0
M  V30 21776 H 2013.06 -2.9153 -4.01652 0
M  V30 21777 H 2008.32 -4.28614 -4.36005 0
M  V30 21778 H 2012.49 -5.24957 -4.57595 0
M  V30 21779 H 2010.12 -5.93994 -4.74421 0
M  V30 21780 N 2011.69 1.41711 -0.689627 0
M  V30 21781 C 2012.94 2.01322 -0.218086 0
M  V30 21782 C 2013.27 1.54591 1.18033 0
M  V30 21783 O 2012.52 0.7453 1.80952 0
M  V30 21784 C 2012.82 3.56737 -0.217544 0
M  V30 21785 C 2012.49 4.22956 -1.56266 0
M  V30 21786 C 2011.15 4.40759 -1.93093 0
M  V30 21787 C 2013.5 4.6014 -2.44787 0
M  V30 21788 C 2010.83 4.93021 -3.18036 0
M  V30 21789 C 2013.18 5.13789 -3.69058 0
M  V30 21790 C 2011.85 5.29804 -4.06034 0
M  V30 21791 H 2011.12 0.73669 -0.0798034 0
M  V30 21792 H 2013.76 1.69691 -0.887543 0
M  V30 21793 H 2012.07 3.88124 0.535453 0
M  V30 21794 H 2013.77 4.00661 0.16474 0
M  V30 21795 H 2010.36 4.09469 -1.26622 0
M  V30 21796 H 2014.54 4.46045 -2.17617 0
M  V30 21797 H 2009.8 5.03605 -3.46687 0
M  V30 21798 H 2013.97 5.41543 -4.37841 0
M  V30 21799 H 2011.6 5.70064 -5.02923 0
M  V30 21800 N 2013.17 0.433965 1.51507 0
M  V30 21801 C 2014.42 -0.135114 2.01247 0
M  V30 21802 C 2014.73 -1.4408 1.32289 0
M  V30 21803 O 2015.94 -2.09262 1.72979 0
M  V30 21804 C 2014.4 -0.291335 3.58719 0
M  V30 21805 C 2014 1.00372 4.36611 0
M  V30 21806 C 2015.75 -0.814365 4.16615 0
M  V30 21807 C 2013.66 0.813324 5.85781 0
M  V30 21808 H 2012.59 -0.0542694 0.752044 0
M  V30 21809 H 2015.24 0.563211 1.74643 0
M  V30 21810 H 2013.62 -1.05258 3.81755 0
M  V30 21811 H 2014.79 1.77304 4.25323 0
M  V30 21812 H 2013.11 1.45503 3.90151 0
M  V30 21813 H 2015.7 -0.973246 5.25768 0
M  V30 21814 H 2016.05 -1.79589 3.75571 0
M  V30 21815 H 2016.58 -0.111519 3.97644 0
M  V30 21816 H 2013.32 1.76713 6.31231 0
M  V30 21817 H 2012.84 0.083744 5.99742 0
M  V30 21818 H 2014.52 0.465195 6.45325 0
M  V30 21819 N 2014.65 -1.56732 0.165206 0
M  V30 21820 C 2015.88 -2.00777 -0.487041 0
M  V30 21821 C 2016.29 -1.04447 -1.57758 0
M  V30 21822 O 2015.63 -0.0363979 -1.83664 0
M  V30 21823 C 2015.69 -3.41252 -1.1308 0
M  V30 21824 C 2015.36 -4.56635 -0.182666 0
M  V30 21825 C 2016.35 -5.16465 0.596665 0
M  V30 21826 C 2014.04 -5.02236 -0.0802703 0
M  V30 21827 C 2016.03 -6.2032 1.46565 0
M  V30 21828 C 2013.72 -6.05942 0.792308 0
M  V30 21829 C 2014.72 -6.64855 1.56386 0
M  V30 21830 O 2014.41 -7.66551 2.42187 0
M  V30 21831 H 2014.14 -0.663451 -0.129647 0
M  V30 21832 H 2016.69 -2.03719 0.262233 0
M  V30 21833 H 2014.92 -3.35204 -1.92808 0
M  V30 21834 H 2016.61 -3.6929 -1.68463 0
M  V30 21835 H 2017.38 -4.82121 0.527694 0
M  V30 21836 H 2013.26 -4.56097 -0.670586 0
M  V30 21837 H 2016.8 -6.66232 2.06834 0
M  V30 21838 H 2012.7 -6.39712 0.862504 0
M  V30 21839 H 2013.47 -7.83849 2.35635 0
M  V30 21840 N 2016.13 0.10854 -1.57226 0
M  V30 21841 C 2017.09 1.11675 -2.00153 0
M  V30 21842 C 2018.09 1.33716 -0.89312 0
M  V30 21843 O 2019.28 1.30056 -1.15892 0
M  V30 21844 C 2016.41 2.46892 -2.35069 0
M  V30 21845 H 2017.61 0.747556 -2.90433 0
M  V30 21846 H 2015.16 0.35317 -1.52258 0
M  V30 21847 H 2015.89 2.88713 -1.47701 0
M  V30 21848 H 2015.68 2.32245 -3.15918 0
M  V30 21849 H 2017.17 3.19433 -2.68984 0
M  V30 21850 N 2017.61 1.52975 0.379009 0
M  V30 21851 C 2018.85 1.68755 1.12471 0
M  V30 21852 C 2019.19 0.431242 1.89351 0
M  V30 21853 O 2018.46 -0.571204 1.85923 0
M  V30 21854 C 2018.74 2.92896 2.09485 0
M  V30 21855 C 2018.6 4.28651 1.36302 0
M  V30 21856 C 2019.92 3.12604 3.09785 0
M  V30 21857 H 2017.03 0.614092 0.407504 0
M  V30 21858 H 2019.68 1.8559 0.406972 0
M  V30 21859 H 2017.83 2.78673 2.70691 0
M  V30 21860 H 2019.5 4.54661 0.779841 0
M  V30 21861 H 2017.74 4.28675 0.664851 0
M  V30 21862 H 2018.41 5.1162 2.07241 0
M  V30 21863 H 2020.89 3.25924 2.58675 0
M  V30 21864 H 2019.76 4.00924 3.74901 0
M  V30 21865 H 2020.03 2.27272 3.79209 0
M  V30 21866 N 2019.08 -0.63804 1.44107 0
M  V30 21867 C 2020.33 -1.39366 1.45808 0
M  V30 21868 C 2020.65 -1.95384 0.091867 0
M  V30 21869 O 2021.85 -2.71497 -0.0136182 0
M  V30 21870 C 2020.31 -2.52293 2.56663 0
M  V30 21871 C 2019.92 -2.02818 3.99461 0
M  V30 21872 C 2021.66 -3.29549 2.67577 0
M  V30 21873 C 2019.57 -3.13047 5.01753 0
M  V30 21874 H 2018.5 -0.5237 0.542452 0
M  V30 21875 H 2021.15 -0.687131 1.70149 0
M  V30 21876 H 2019.53 -3.25489 2.2555 0
M  V30 21877 H 2020.7 -1.36533 4.40108 0
M  V30 21878 H 2019.02 -1.38398 3.92728 0
M  V30 21879 H 2021.62 -4.11709 3.41174 0
M  V30 21880 H 2021.96 -3.78579 1.73159 0
M  V30 21881 H 2022.49 -2.63441 2.98066 0
M  V30 21882 H 2019.23 -2.68969 5.97776 0
M  V30 21883 H 2018.75 -3.77995 4.65704 0
M  V30 21884 H 2020.43 -3.77934 5.25142 0
M  V30 21885 N 2020.56 -1.3089 -0.877815 0
M  V30 21886 C 2021.81 -1.19888 -1.627 0
M  V30 21887 C 2022.13 0.244972 -1.93455 0
M  V30 21888 O 2021.4 1.16355 -1.57602 0
M  V30 21889 H 2019.98 -0.440719 -0.603138 0
M  V30 21890 H 2022.64 -1.64112 -1.05134 0
M  V30 21891 H 2021.74 -1.76493 -2.57404 0
M  V30 21892 N 2022.04 1.0911 -1.13723 0
M  V30 21893 C 2022.97 2.15129 -0.761226 0
M  V30 21894 C 2023.95 1.60603 0.254079 0
M  V30 21895 O 2025.14 1.87943 0.14482 0
M  V30 21896 C 2022.26 3.38454 -0.129002 0
M  V30 21897 C 2021.31 4.11713 -1.11332 0
M  V30 21898 S 2022.14 4.65488 -2.64729 0
M  V30 21899 C 2023.3 5.92108 -2.02876 0
M  V30 21900 H 2023.53 2.46691 -1.65924 0
M  V30 21901 H 2021.06 1.21109 -0.957709 0
M  V30 21902 H 2023.02 4.09859 0.229363 0
M  V30 21903 H 2021.68 3.05104 0.746329 0
M  V30 21904 H 2020.88 5.00186 -0.618842 0
M  V30 21905 H 2020.48 3.46186 -1.41532 0
M  V30 21906 H 2022.77 6.633 -1.37981 0
M  V30 21907 H 2023.71 6.46241 -2.89444 0
M  V30 21908 H 2024.12 5.4478 -1.479 0
M  V30 21909 N 2023.52 0.931232 1.27145 0
M  V30 21910 C 2024.45 0.39037 2.25851 0
M  V30 21911 C 2025.46 -0.480869 1.55536 0
M  V30 21912 O 2026.65 -0.292921 1.7608 0
M  V30 21913 C 2023.75 -0.458971 3.35778 0
M  V30 21914 C 2022.93 0.393796 4.35624 0
M  V30 21915 C 2021.98 -0.393477 5.24727 0
M  V30 21916 O 2021.01 0.20005 5.68848 0
M  V30 21917 N 2022.21 -1.69245 5.55281 0
M  V30 21918 H 2024.98 1.23887 2.72896 0
M  V30 21919 H 2022.54 0.799038 1.40808 0
M  V30 21920 H 2024.53 -0.992799 3.92334 0
M  V30 21921 H 2023.1 -1.20824 2.88306 0
M  V30 21922 H 2022.32 1.1089 3.78282 0
M  V30 21923 H 2023.61 0.976663 4.99338 0
M  V30 21924 H 2023.01 -2.19693 5.21298 0
M  V30 21925 H 2021.56 -2.17273 6.14521 0
M  V30 21926 N 2025 -1.41343 0.697132 0
M  V30 21927 C 2025.93 -2.28193 -0.017778 0
M  V30 21928 C 2026.91 -1.4232 -0.786373 0
M  V30 21929 O 2028.09 -1.71747 -0.776865 0
M  V30 21930 C 2025.22 -3.22577 -1.03256 0
M  V30 21931 C 2024.27 -4.25004 -0.356949 0
M  V30 21932 S 2025.1 -5.27852 0.901798 0
M  V30 21933 C 2026.25 -6.25801 -0.111346 0
M  V30 21934 H 2026.49 -2.88479 0.718839 0
M  V30 21935 H 2024.02 -1.46503 0.487463 0
M  V30 21936 H 2025.98 -3.77487 -1.61288 0
M  V30 21937 H 2024.64 -2.61384 -1.74176 0
M  V30 21938 H 2023.83 -4.9132 -1.12343 0
M  V30 21939 H 2023.43 -3.73698 0.150343 0
M  V30 21940 H 2025.73 -6.70605 -0.964122 0
M  V30 21941 H 2026.67 -7.06203 0.517933 0
M  V30 21942 H 2027.08 -5.62566 -0.466819 0
M  V30 21943 N 2026.48 -0.441993 -1.51275 0
M  V30 21944 C 2027.72 0.122911 -2.02127 0
M  V30 21945 C 2028.05 1.42305 -1.32588 0
M  V30 21946 O 2027.31 1.90895 -0.431013 0
M  V30 21947 C 2027.6 0.384298 -3.55328 0
M  V30 21948 C 2027.27 -0.830593 -4.43184 0
M  V30 21949 C 2025.93 -1.16375 -4.66916 0
M  V30 21950 C 2028.28 -1.64084 -4.94698 0
M  V30 21951 C 2025.61 -2.30775 -5.39407 0
M  V30 21952 C 2027.96 -2.77587 -5.68444 0
M  V30 21953 C 2026.63 -3.11351 -5.90438 0
M  V30 21954 H 2025.9 0.0449764 -0.739634 0
M  V30 21955 H 2028.55 -0.59014 -1.8218 0
M  V30 21956 H 2026.85 1.17929 -3.73631 0
M  V30 21957 H 2028.55 0.834882 -3.92213 0
M  V30 21958 H 2025.14 -0.560991 -4.24913 0
M  V30 21959 H 2029.32 -1.39665 -4.76243 0
M  V30 21960 H 2024.58 -2.57243 -5.54649 0
M  V30 21961 H 2028.75 -3.40736 -6.07348 0
M  V30 21962 H 2026.38 -4.00108 -6.46388 0
M  V30 21963 N 2027.95 1.56642 -0.173515 0
M  V30 21964 C 2029.2 1.9656 0.469943 0
M  V30 21965 C 2029.52 1.06067 1.6363 0
M  V30 21966 O 2028.79 0.127477 1.95485 0
M  V30 21967 H 2027.37 0.725824 0.176604 0
M  V30 21968 H 2030.03 1.93222 -0.255212 0
M  V30 21969 H 2029.13 3.00903 0.828491 0
M  V30 21970 N 2029.43 -0.1002 1.57281 0
M  V30 21971 C 2030.38 -1.12192 2.01697 0
M  V30 21972 C 2031.35 -1.40092 0.892374 0
M  V30 21973 O 2032.53 -1.51641 1.158 0
M  V30 21974 C 2029.67 -2.43833 2.44212 0
M  V30 21975 C 2028.79 -2.22707 3.70169 0
M  V30 21976 C 2027.92 -3.47711 4.01585 0
M  V30 21977 C 2026.96 -3.21825 5.20668 0
M  V30 21978 N 2026.1 -4.39081 5.47862 0
M  V30 21979 H 2030.94 -0.736171 2.88764 0
M  V30 21980 H 2028.47 -0.351977 1.42827 0
M  V30 21981 H 2030.43 -3.20652 2.66904 0
M  V30 21982 H 2029.06 -2.80264 1.60162 0
M  V30 21983 H 2028.11 -1.36715 3.54983 0
M  V30 21984 H 2029.43 -1.99568 4.57137 0
M  V30 21985 H 2028.58 -4.3294 4.25027 0
M  V30 21986 H 2027.32 -3.739 3.1313 0
M  V30 21987 H 2026.32 -2.34988 4.97052 0
M  V30 21988 H 2027.55 -2.96987 6.10717 0
M  V30 21989 H 2025.5 -4.65355 4.62364 0
M  V30 21990 H 2025.41 -4.19114 6.2919 0
M  V30 21991 H 2026.68 -5.2539 5.75835 0
M  V30 21992 N 2030.91 -1.53174 -0.370891 0
M  V30 21993 C 2032.16 -1.69349 -1.11574 0
M  V30 21994 C 2032.49 -0.441278 -1.8912 0
M  V30 21995 O 2031.76 0.561336 -1.86224 0
M  V30 21996 C 2032.05 -2.94003 -2.07929 0
M  V30 21997 C 2031.9 -4.29368 -1.34027 0
M  V30 21998 C 2033.22 -3.14243 -3.08123 0
M  V30 21999 H 2030.34 -0.616245 -0.404242 0
M  V30 22000 H 2032.98 -1.85803 -0.397124 0
M  V30 22001 H 2031.13 -2.80105 -2.69209 0
M  V30 22002 H 2032.8 -4.55068 -0.755718 0
M  V30 22003 H 2031.04 -4.29021 -0.642108 0
M  V30 22004 H 2031.72 -5.12712 -2.04525 0
M  V30 22005 H 2034.19 -3.27291 -2.56943 0
M  V30 22006 H 2033.07 -4.02907 -3.7277 0
M  V30 22007 H 2033.33 -2.2928 -3.77999 0
M  V30 22008 N 2032.39 0.630389 -1.44443 0
M  V30 22009 C 2033.35 1.72422 -1.51008 0
M  V30 22010 C 2034.35 1.55948 -0.392038 0
M  V30 22011 O 2035.54 1.61429 -0.654688 0
M  V30 22012 C 2032.67 3.1151 -1.38472 0
M  V30 22013 H 2033.87 1.67975 -2.48444 0
M  V30 22014 H 2031.42 0.844115 -1.31546 0
M  V30 22015 H 2032.15 3.21551 -0.421327 0
M  V30 22016 H 2031.94 3.24874 -2.19544 0
M  V30 22017 H 2033.43 3.91228 -1.46049 0
M  V30 22018 N 2033.87 1.31354 0.870861 0
M  V30 22019 C 2034.8 1.13258 1.98111 0
M  V30 22020 C 2035.78 0.0363278 1.62559 0
M  V30 22021 O 2036.96 0.192581 1.87514 0
M  V30 22022 C 2034.09 0.730361 3.30732 0
M  V30 22023 C 2033.13 1.82952 3.85267 0
M  V30 22024 S 2033.97 3.43479 4.10832 0
M  V30 22025 C 2035.12 3.05192 5.46451 0
M  V30 22026 H 2035.36 2.07248 2.13157 0
M  V30 22027 H 2032.89 1.15829 1.02093 0
M  V30 22028 H 2034.85 0.505043 4.07381 0
M  V30 22029 H 2033.51 -0.190405 3.13522 0
M  V30 22030 H 2032.7 1.5007 4.81139 0
M  V30 22031 H 2032.3 2.00985 3.15406 0
M  V30 22032 H 2034.59 2.54029 6.28073 0
M  V30 22033 H 2035.54 4.00024 5.84283 0
M  V30 22034 H 2035.95 2.42659 5.09683 0
M  V30 22035 N 2035.34 -1.08505 1.143 0
M  V30 22036 C 2036.76 -1.32937 0.883172 0
M  V30 22037 C 2036.96 -1.95791 -0.47623 0
M  V30 22038 O 2036.02 -2.2103 -1.22073 0
M  V30 22039 C 2037.33 -2.23189 2.01512 0
M  V30 22040 C 2038.88 -2.36672 2.0483 0
M  V30 22041 C 2039.35 -3.30266 3.17314 0
M  V30 22042 N 2040.84 -3.37843 3.16886 0
M  V30 22043 C 2041.58 -4.1029 4.00561 0
M  V30 22044 N 2041.07 -4.85454 4.94274 0
M  V30 22045 N 2042.87 -4.06111 3.88626 0
M  V30 22046 H 2035.02 -0.660869 2.01857 0
M  V30 22047 H 2037.28 -0.353741 0.879529 0
M  V30 22048 H 2036.99 -1.84248 2.99576 0
M  V30 22049 H 2036.86 -3.23644 1.93738 0
M  V30 22050 H 2039.25 -2.74873 1.07373 0
M  V30 22051 H 2039.33 -1.35963 2.16674 0
M  V30 22052 H 2038.97 -2.92787 4.15016 0
M  V30 22053 H 2038.9 -4.30901 3.02707 0
M  V30 22054 H 2041.39 -2.84257 2.49011 0
M  V30 22055 H 2041.71 -5.38193 5.54588 0
M  V30 22056 H 2040.05 -4.8451 4.98272 0
M  V30 22057 H 2043.24 -3.46497 3.14734 0
M  V30 22058 H 2043.42 -4.6231 4.54064 0
M  V30 22059 N 2036.82 -0.937962 -1.26649 0
M  V30 22060 C 2038.1 -0.501822 -1.89053 0
M  V30 22061 C 2038.48 1.02047 -1.84796 0
M  V30 22062 O 2037.83 1.87909 -1.3001 0
M  V30 22063 C 2038.04 -1.05952 -3.32528 0
M  V30 22064 C 2039.38 -1.12622 -4.09391 0
M  V30 22065 O 2040.41 -1.00988 -3.41584 0
M  V30 22066 O 2039.27 -1.30677 -5.30646 0
M  V30 22067 H 2036.36 -0.163048 -0.810768 0
M  V30 22068 H 2038.91 -1.03032 -1.34843 0
M  V30 22069 H 2037.68 -2.10319 -3.29972 0
M  V30 22070 H 2037.3 -0.513282 -3.94273 0
M  V30 22071 N 2038.3 1.40971 -0.704618 0
M  V30 22072 C 2039.25 2.32576 -0.0337552 0
M  V30 22073 C 2040.24 1.51452 0.758852 0
M  V30 22074 O 2041.45 1.67327 0.663455 0
M  V30 22075 H 2037.82 0.751959 0.00788634 0
M  V30 22076 H 2039.79 2.86819 -0.823248 0
M  V30 22077 C 2038.54 3.36326 0.882061 0
M  V30 22078 H 2037.87 3.98807 0.281575 0
M  V30 22079 H 2039.31 4.02942 1.31962 0
M  V30 22080 C 2037.76 2.70931 2.00245 0
M  V30 22081 O 2038.29 2.56412 3.09218 0
M  V30 22082 N 2036.5 2.29485 1.78284 0
M  V30 22083 H 2036.05 2.41494 0.89657 0
M  V30 22084 H 2036.01 1.86067 2.5343 0
M  V30 22085 N 2039.78 0.45001 1.51039 0
M  V30 22086 C 2040.73 -0.369268 2.2965 0
M  V30 22087 C 2041.72 -1.00952 1.36034 0
M  V30 22088 O 2042.93 -0.943032 1.5332 0
M  V30 22089 H 2039.3 -0.137907 0.739247 0
M  V30 22090 H 2041.27 0.314433 2.96739 0
M  V30 22091 C 2040.02 -1.45082 3.15985 0
M  V30 22092 H 2039.34 -0.967533 3.87916 0
M  V30 22093 H 2040.78 -1.99707 3.74023 0
M  V30 22094 C 2039.24 -2.44112 2.32187 0
M  V30 22095 O 2039.77 -3.48929 1.99027 0
M  V30 22096 N 2037.98 -2.1531 1.95167 0
M  V30 22097 H 2037.53 -1.30099 2.22333 0
M  V30 22098 H 2037.48 -2.81807 1.39398 0
M  V30 22099 N 2041.26 -1.56548 0.18182 0
M  V30 22100 C 2042.19 -2.15665 -0.775955 0
M  V30 22101 C 2043.2 -1.11496 -1.18627 0
M  V30 22102 O 2044.39 -1.38642 -1.1243 0
M  V30 22103 C 2041.49 -2.69305 -2.05738 0
M  V30 22104 C 2040.66 -3.9824 -1.80897 0
M  V30 22105 C 2039.72 -4.36838 -2.93358 0
M  V30 22106 O 2038.75 -5.04516 -2.63539 0
M  V30 22107 N 2039.95 -3.99254 -4.21398 0
M  V30 22108 H 2042.72 -2.98477 -0.270484 0
M  V30 22109 H 2040.28 -1.619 -0.000606634 0
M  V30 22110 H 2042.27 -2.92119 -2.80087 0
M  V30 22111 H 2040.84 -1.91023 -2.47445 0
M  V30 22112 H 2040.06 -3.83695 -0.903963 0
M  V30 22113 H 2041.35 -4.82428 -1.6168 0
M  V30 22114 H 2040.74 -3.44791 -4.48482 0
M  V30 22115 H 2039.3 -4.27047 -4.92417 0
M  V30 22116 N 2042.73 0.0918577 -1.57332 0
M  V30 22117 C 2043.98 0.793472 -1.85437 0
M  V30 22118 C 2044.3 1.7974 -0.77156 0
M  V30 22119 O 2045.5 2.54714 -0.939832 0
M  V30 22120 C 2043.96 1.462 -3.28867 0
M  V30 22121 C 2043.57 0.497677 -4.45227 0
M  V30 22122 C 2045.31 2.14715 -3.66193 0
M  V30 22123 C 2043.22 1.17098 -5.79691 0
M  V30 22124 H 2042.15 0.30008 -0.691714 0
M  V30 22125 H 2044.8 0.0464542 -1.83441 0
M  V30 22126 H 2043.18 2.25659 -3.25414 0
M  V30 22127 H 2044.35 -0.26565 -4.60034 0
M  V30 22128 H 2042.67 -0.081949 -4.16319 0
M  V30 22129 H 2045.27 2.6583 -4.63938 0
M  V30 22130 H 2045.61 2.93756 -2.9498 0
M  V30 22131 H 2046.14 1.42113 -3.71549 0
M  V30 22132 H 2042.88 0.421316 -6.54145 0
M  V30 22133 H 2042.4 1.90565 -5.68722 0
M  V30 22134 H 2044.08 1.69654 -6.24361 0
M  V30 22135 N 2044.21 1.53368 0.362763 0
M  V30 22136 C 2045.16 1.80679 1.46485 0
M  V30 22137 C 2046.15 0.676074 1.55324 0
M  V30 22138 O 2047.36 0.859068 1.58177 0
M  V30 22139 H 2043.74 0.572116 0.488044 0
M  V30 22140 H 2045.71 2.72919 1.20656 0
M  V30 22141 C 2044.46 2.01611 2.83281 0
M  V30 22142 H 2043.78 2.88059 2.7724 0
M  V30 22143 H 2045.22 2.24696 3.59566 0
M  V30 22144 C 2043.68 0.796023 3.27361 0
M  V30 22145 O 2044.21 -0.0139218 4.01698 0
M  V30 22146 N 2042.41 0.618665 2.83938 0
M  V30 22147 H 2041.96 1.27892 2.2361 0
M  V30 22148 H 2041.92 -0.196265 3.13787 0
M  V30 22149 N 2045.69 -0.62272 1.44776 0
M  V30 22150 C 2047.11 -0.941829 1.28848 0
M  V30 22151 C 2047.31 -2.00178 0.230395 0
M  V30 22152 O 2046.36 -2.49611 -0.38085 0
M  V30 22153 C 2047.68 -1.39711 2.66273 0
M  V30 22154 C 2049.22 -1.51214 2.7405 0
M  V30 22155 C 2049.7 -2.00123 4.11964 0
M  V30 22156 N 2051.19 -2.07381 4.14183 0
M  V30 22157 C 2051.92 -2.46413 5.17753 0
M  V30 22158 N 2051.42 -2.84523 6.31679 0
M  V30 22159 N 2053.21 -2.46621 5.05109 0
M  V30 22160 H 2045.36 0.0781334 2.12256 0
M  V30 22161 H 2047.63 -0.0276831 0.947596 0
M  V30 22162 H 2047.33 -0.692534 3.44814 0
M  V30 22163 H 2047.21 -2.36654 2.93726 0
M  V30 22164 H 2049.59 -2.20767 1.95822 0
M  V30 22165 H 2049.68 -0.526248 2.50328 0
M  V30 22166 H 2049.32 -1.31163 4.90672 0
M  V30 22167 H 2049.25 -2.99599 4.33068 0
M  V30 22168 H 2051.74 -1.8058 3.31963 0
M  V30 22169 H 2052.05 -3.13144 7.06513 0
M  V30 22170 H 2050.4 -2.82254 6.35104 0
M  V30 22171 H 2053.59 -2.16244 4.15158 0
M  V30 22172 H 2053.76 -2.76715 5.85946 0
M  V30 22173 N 2047.17 -1.31814 -0.863883 0
M  V30 22174 C 2048.12 -1.19916 -1.99306 0
M  V30 22175 C 2049.11 -0.106055 -1.69068 0
M  V30 22176 O 2050.32 -0.26836 -1.77988 0
M  V30 22177 H 2046.69 -0.371464 -0.653849 0
M  V30 22178 H 2048.66 -2.15436 -2.0647 0
M  V30 22179 C 2047.41 -0.929593 -3.35043 0
M  V30 22180 H 2046.73 -1.76288 -3.58835 0
M  V30 22181 H 2048.17 -0.886553 -4.14628 0
M  V30 22182 C 2046.63 0.367677 -3.34888 0
M  V30 22183 O 2047.16 1.38252 -3.77159 0
M  V30 22184 N 2045.37 0.386376 -2.8802 0
M  V30 22185 H 2044.92 -0.439994 -2.53815 0
M  V30 22186 H 2044.87 1.25425 -2.88299 0
M  V30 22187 N 2048.65 1.07897 -1.14873 0
M  V30 22188 C 2049.59 2.17052 -0.836135 0
M  V30 22189 C 2050.59 1.68352 0.188148 0
M  V30 22190 O 2051.79 1.79947 0.0437298 0
M  V30 22191 H 2048.17 0.708271 -0.252698 0
M  V30 22192 H 2050.14 2.40639 -1.76452 0
M  V30 22193 C 2048.89 3.46076 -0.335713 0
M  V30 22194 H 2048.21 3.8393 -1.11525 0
M  V30 22195 H 2049.65 4.23714 -0.155587 0
M  V30 22196 C 2048.11 3.23471 0.941711 0
M  V30 22197 O 2048.64 3.47541 2.0144 0
M  V30 22198 N 2046.85 2.76987 0.879016 0
M  V30 22199 H 2046.39 2.57599 0.00591639 0
M  V30 22200 H 2046.35 2.62241 1.73427 0
M  V30 22201 N 2050.12 0.944665 1.2615 0
M  V30 22202 C 2051.07 0.44787 2.28247 0
M  V30 22203 C 2052.07 -0.476672 1.62555 0
M  V30 22204 O 2053.27 -0.3545 1.76475 0
M  V30 22205 H 2049.65 0.126306 0.741317 0
M  V30 22206 H 2051.62 1.32142 2.67546 0
M  V30 22207 C 2050.37 -0.268298 3.46663 0
M  V30 22208 H 2049.69 0.433964 3.97438 0
M  V30 22209 H 2051.13 -0.580074 4.20013 0
M  V30 22210 C 2049.59 -1.48732 3.02292 0
M  V30 22211 O 2050.12 -2.58549 3.07434 0
M  V30 22212 N 2048.33 -1.34513 2.57594 0
M  V30 22213 H 2047.87 -0.451649 2.5361 0
M  V30 22214 H 2047.83 -2.16196 2.28269 0
M  V30 22215 N 2051.6 -1.40596 0.712085 0
M  V30 22216 C 2052.85 -2.0095 0.250087 0
M  V30 22217 C 2053.18 -1.5645 -1.15558 0
M  V30 22218 O 2052.43 -0.773994 -1.79744 0
M  V30 22219 C 2052.73 -3.56346 0.27427 0
M  V30 22220 C 2052.4 -4.20416 1.62975 0
M  V30 22221 C 2051.06 -4.37632 2.0008 0
M  V30 22222 C 2053.41 -4.56187 2.52076 0
M  V30 22223 C 2050.74 -4.87899 3.2584 0
M  V30 22224 C 2053.09 -5.07853 3.77185 0
M  V30 22225 C 2051.76 -5.23277 4.14412 0
M  V30 22226 H 2051.03 -0.735327 0.0915134 0
M  V30 22227 H 2053.67 -1.68257 0.914427 0
M  V30 22228 H 2051.98 -3.88927 -0.473638 0
M  V30 22229 H 2053.67 -4.00873 -0.100977 0
M  V30 22230 H 2050.26 -4.07403 1.3312 0
M  V30 22231 H 2054.45 -4.42527 2.24686 0
M  V30 22232 H 2049.7 -4.98026 3.54655 0
M  V30 22233 H 2053.88 -5.34509 4.46401 0
M  V30 22234 H 2051.51 -5.6199 5.11929 0
M  V30 22235 N 2053.08 -0.458013 -1.50798 0
M  V30 22236 C 2054.01 0.379016 -2.26044 0
M  V30 22237 C 2055.03 0.96848 -1.3086 0
M  V30 22238 O 2056.21 0.859106 -1.56466 0
M  V30 22239 C 2053.31 1.54427 -3.01671 0
M  V30 22240 C 2052.49 1.06997 -4.24111 0
M  V30 22241 C 2051.55 2.10775 -4.82142 0
M  V30 22242 O 2050.57 1.69367 -5.43418 0
M  V30 22243 N 2051.77 3.43464 -4.67988 0
M  V30 22244 H 2054.54 -0.266 -2.98517 0
M  V30 22245 H 2052.1 -0.288052 -1.59317 0
M  V30 22246 H 2054.09 2.23518 -3.37375 0
M  V30 22247 H 2052.66 2.09423 -2.32079 0
M  V30 22248 H 2051.88 0.205395 -3.93665 0
M  V30 22249 H 2053.17 0.730786 -5.03525 0
M  V30 22250 H 2052.57 3.79824 -4.19226 0
M  V30 22251 H 2051.13 4.0839 -5.07997 0
M  V30 22252 N 2054.56 1.56449 -0.190119 0
M  V30 22253 C 2055.79 2.01819 0.455699 0
M  V30 22254 C 2056.2 1.07029 1.55532 0
M  V30 22255 O 2055.56 0.0743024 1.82349 0
M  V30 22256 C 2055.61 3.4691 1.01663 0
M  V30 22257 O 2055.33 4.38083 -0.0391156 0
M  V30 22258 C 2056.83 4.07774 1.73882 0
M  V30 22259 H 2054.05 0.661091 0.114891 0
M  V30 22260 H 2056.6 2.02326 -0.297366 0
M  V30 22261 H 2054.75 3.47118 1.7201 0
M  V30 22262 H 2055.17 5.23138 0.377687 0
M  V30 22263 H 2056.64 5.11162 2.08368 0
M  V30 22264 H 2057.12 3.50946 2.64071 0
M  V30 22265 H 2057.72 4.11324 1.08132 0
M  V30 22266 N 2056.04 -0.0835127 1.57379 0
M  V30 22267 C 2057.28 -0.784868 1.86671 0
M  V30 22268 C 2057.61 -1.78164 0.780253 0
M  V30 22269 O 2056.87 -1.94402 -0.224985 0
M  V30 22270 C 2057.17 -1.53851 3.22591 0
M  V30 22271 C 2056.83 -0.682799 4.457 0
M  V30 22272 C 2055.49 -0.446944 4.7912 0
M  V30 22273 C 2057.85 -0.0886784 5.21125 0
M  V30 22274 C 2055.17 0.392707 5.85384 0
M  V30 22275 C 2057.53 0.73836 6.28276 0
M  V30 22276 C 2056.19 0.984198 6.60204 0
M  V30 22277 H 2055.46 -0.287204 0.683078 0
M  V30 22278 H 2058.11 -0.0459845 1.91445 0
M  V30 22279 H 2056.41 -2.34928 3.13554 0
M  V30 22280 H 2058.11 -2.08576 3.42486 0
M  V30 22281 H 2054.7 -0.876748 4.19537 0
M  V30 22282 H 2058.88 -0.258035 4.95629 0
M  V30 22283 H 2054.14 0.592037 6.08527 0
M  V30 22284 H 2058.31 1.20553 6.85886 0
M  V30 22285 H 2055.94 1.63661 7.42374 0
M  V30 22286 N 2057.52 -1.53558 -0.354624 0
M  V30 22287 C 2058.93 -1.6184 -0.930847 0
M  V30 22288 C 2059.28 -0.492698 -1.89913 0
M  V30 22289 O 2058.4 0.379247 -2.13051 0
M  V30 22290 C 2059 -2.93348 -1.69506 0
M  V30 22291 C 2057.56 -3.03929 -2.22046 0
M  V30 22292 C 2056.7 -2.57213 -1.03618 0
M  V30 22293 H 2059.65 -1.58141 -0.133086 0
M  V30 22294 H 2059.68 -2.81766 -2.55711 0
M  V30 22295 H 2059.19 -3.75259 -0.990072 0
M  V30 22296 H 2057.29 -2.26629 -2.95753 0
M  V30 22297 H 2057.4 -4.09204 -2.49176 0
M  V30 22298 H 2055.77 -2.12352 -1.40636 0
M  V30 22299 H 2056.55 -3.41552 -0.346003 0
M  V30 22300 N 2058.99 0.615033 -1.45104 0
M  V30 22301 C 2059.93 1.73982 -1.49208 0
M  V30 22302 C 2060.94 1.58215 -0.383649 0
M  V30 22303 O 2062.13 1.66233 -0.650297 0
M  V30 22304 C 2059.23 3.11897 -1.32565 0
M  V30 22305 C 2058.4 3.53973 -2.56947 0
M  V30 22306 C 2057.46 4.70825 -2.34969 0
M  V30 22307 O 2056.49 4.78319 -3.08544 0
M  V30 22308 N 2057.69 5.63599 -1.39054 0
M  V30 22309 H 2060.45 1.70927 -2.46179 0
M  V30 22310 H 2058.01 0.800093 -1.40748 0
M  V30 22311 H 2060.01 3.87814 -1.15684 0
M  V30 22312 H 2058.58 3.09502 -0.438979 0
M  V30 22313 H 2057.8 2.68096 -2.88995 0
M  V30 22314 H 2059.08 3.78841 -3.39642 0
M  V30 22315 H 2058.48 5.60252 -0.783199 0
M  V30 22316 H 2057.04 6.39079 -1.28147 0
M  V30 22317 N 2060.47 1.3227 0.85688 0
M  V30 22318 C 2061.43 1.2096 1.94682 0
M  V30 22319 C 2062.43 0.133231 1.60247 0
M  V30 22320 O 2063.62 0.383471 1.69927 0
M  V30 22321 C 2060.76 0.85974 3.29881 0
M  V30 22322 H 2061.95 2.17823 2.06139 0
M  V30 22323 H 2059.5 1.16069 1.04679 0
M  V30 22324 H 2060.24 -0.107161 3.24123 0
M  V30 22325 H 2060.02 1.63794 3.5625 0
M  V30 22326 H 2061.51 0.804868 4.0977 0
M  V30 22327 N 2061.95 -1.07287 1.15444 0
M  V30 22328 C 2063.2 -1.80162 0.931099 0
M  V30 22329 C 2063.53 -1.8653 -0.540402 0
M  V30 22330 O 2062.8 -1.34951 -1.40066 0
M  V30 22331 C 2063.09 -3.25184 1.54685 0
M  V30 22332 C 2062.94 -3.26957 3.089 0
M  V30 22333 C 2064.26 -4.2247 1.23318 0
M  V30 22334 H 2061.38 -0.654053 0.339682 0
M  V30 22335 H 2064.02 -1.25539 1.42619 0
M  V30 22336 H 2062.17 -3.7183 1.12583 0
M  V30 22337 H 2063.84 -2.88549 3.59912 0
M  V30 22338 H 2062.08 -2.65898 3.42755 0
M  V30 22339 H 2062.76 -4.29218 3.47097 0
M  V30 22340 H 2065.23 -3.84218 1.59737 0
M  V30 22341 H 2064.11 -5.2223 1.69018 0
M  V30 22342 H 2064.37 -4.41844 0.150314 0
M  V30 22343 N 2063.43 -0.951342 -1.25647 0
M  V30 22344 C 2064.36 -0.486897 -2.28367 0
M  V30 22345 C 2065.34 0.465072 -1.63619 0
M  V30 22346 O 2066.52 0.364737 -1.90744 0
M  V30 22347 C 2063.65 0.239229 -3.46475 0
M  V30 22348 C 2062.61 -0.627163 -4.2338 0
M  V30 22349 C 2061.93 0.229514 -5.34207 0
M  V30 22350 C 2063.23 -1.90362 -4.86374 0
M  V30 22351 H 2064.93 -1.34542 -2.67467 0
M  V30 22352 H 2062.47 -0.648383 -1.28577 0
M  V30 22353 H 2064.43 0.575251 -4.17455 0
M  V30 22354 H 2063.15 1.13197 -3.06356 0
M  V30 22355 H 2061.81 -0.946222 -3.54178 0
M  V30 22356 H 2061.46 1.12192 -4.90328 0
M  V30 22357 H 2061.16 -0.346852 -5.86575 0
M  V30 22358 H 2062.68 0.560578 -6.08021 0
M  V30 22359 H 2064.1 -1.63422 -5.49515 0
M  V30 22360 H 2062.49 -2.42538 -5.48904 0
M  V30 22361 H 2063.56 -2.60876 -4.08744 0
M  V30 22362 N 2064.91 1.40216 -0.719531 0
M  V30 22363 C 2065.84 2.33348 -0.08432 0
M  V30 22364 C 2066.82 1.53101 0.741225 0
M  V30 22365 O 2068 1.81553 0.68935 0
M  V30 22366 C 2065.13 3.37106 0.835256 0
M  V30 22367 C 2064.09 4.27845 0.115036 0
M  V30 22368 C 2063.41 5.22174 1.15059 0
M  V30 22369 C 2064.71 5.1198 -1.03314 0
M  V30 22370 H 2066.41 2.86716 -0.862219 0
M  V30 22371 H 2063.95 1.37858 -0.416073 0
M  V30 22372 H 2065.9 4.012 1.28905 0
M  V30 22373 H 2064.63 2.82142 1.6451 0
M  V30 22374 H 2063.29 3.6521 -0.318975 0
M  V30 22375 H 2062.94 4.63513 1.95359 0
M  V30 22376 H 2062.64 5.83727 0.673556 0
M  V30 22377 H 2064.16 5.89144 1.60441 0
M  V30 22378 H 2065.57 5.69505 -0.658522 0
M  V30 22379 H 2063.97 5.82596 -1.4388 0
M  V30 22380 H 2065.04 4.47725 -1.86199 0
M  V30 22381 N 2066.38 0.466004 1.50553 0
M  V30 22382 C 2067.31 -0.320802 2.31286 0
M  V30 22383 C 2068.29 -0.995008 1.37962 0
M  V30 22384 O 2069.48 -0.993158 1.66883 0
M  V30 22385 C 2066.61 -1.40607 3.17564 0
M  V30 22386 C 2065.56 -0.853763 4.19398 0
M  V30 22387 C 2064.89 -2.03694 4.94381 0
M  V30 22388 C 2066.19 0.131478 5.22134 0
M  V30 22389 H 2067.88 0.352995 2.97312 0
M  V30 22390 H 2065.43 0.171207 1.42979 0
M  V30 22391 H 2067.38 -1.96395 3.72836 0
M  V30 22392 H 2066.11 -2.10857 2.49413 0
M  V30 22393 H 2064.77 -0.317899 3.65219 0
M  V30 22394 H 2064.41 -2.7263 4.22708 0
M  V30 22395 H 2064.11 -1.67364 5.63261 0
M  V30 22396 H 2065.64 -2.59982 5.52487 0
M  V30 22397 H 2067.05 -0.337046 5.72308 0
M  V30 22398 H 2065.45 0.408804 5.98706 0
M  V30 22399 H 2066.52 1.05903 4.73194 0
M  V30 22400 N 2067.86 -1.56346 0.198413 0
M  V30 22401 C 2069.11 -1.97674 -0.43948 0
M  V30 22402 C 2069.44 -1.0854 -1.61398 0
M  V30 22403 O 2068.69 -0.125218 -1.95299 0
M  V30 22404 C 2068.99 -3.44852 -0.938713 0
M  V30 22405 C 2068.66 -4.50733 0.122773 0
M  V30 22406 C 2067.32 -4.79412 0.414434 0
M  V30 22407 C 2069.67 -5.14356 0.841848 0
M  V30 22408 C 2067 -5.69004 1.43009 0
M  V30 22409 C 2069.35 -6.05046 1.84667 0
M  V30 22410 C 2068.01 -6.3208 2.1455 0
M  V30 22411 H 2067.28 -0.723339 -0.160817 0
M  V30 22412 H 2069.93 -1.89197 0.296077 0
M  V30 22413 H 2068.24 -3.50415 -1.75261 0
M  V30 22414 H 2069.93 -3.74186 -1.44173 0
M  V30 22415 H 2066.52 -4.28446 -0.114715 0
M  V30 22416 H 2070.71 -4.92288 0.629749 0
M  V30 22417 H 2065.96 -5.88222 1.66749 0
M  V30 22418 H 2070.14 -6.53404 2.40907 0
M  V30 22419 H 2067.76 -7.01301 2.93395 0
M  V30 22420 N 2069.34 0.0751653 -1.57421 0
M  V30 22421 C 2070.76 0.429873 -1.53702 0
M  V30 22422 C 2070.96 1.79369 -0.918103 0
M  V30 22423 O 2070.01 2.47105 -0.519159 0
M  V30 22424 C 2071.33 0.374037 -2.98365 0
M  V30 22425 C 2072.87 0.454466 -3.09683 0
M  V30 22426 C 2073.35 0.428572 -4.5599 0
M  V30 22427 N 2074.84 0.488746 -4.60614 0
M  V30 22428 C 2075.57 0.49087 -5.71295 0
M  V30 22429 N 2075.07 0.448011 -6.9135 0
M  V30 22430 N 2076.86 0.537175 -5.59527 0
M  V30 22431 H 2069.01 -0.817897 -1.96021 0
M  V30 22432 H 2071.28 -0.306554 -0.897067 0
M  V30 22433 H 2070.98 -0.561323 -3.47192 0
M  V30 22434 H 2070.86 1.18551 -3.58086 0
M  V30 22435 H 2073.24 1.38025 -2.60832 0
M  V30 22436 H 2073.33 -0.385521 -2.52878 0
M  V30 22437 H 2072.97 -0.493347 -5.05498 0
M  V30 22438 H 2072.9 1.28605 -5.10655 0
M  V30 22439 H 2075.39 0.526255 -3.74218 0
M  V30 22440 H 2075.7 0.453464 -7.71468 0
M  V30 22441 H 2074.05 0.414751 -6.93761 0
M  V30 22442 H 2077.24 0.568327 -4.64637 0
M  V30 22443 H 2077.41 0.535362 -6.45785 0
M  V30 22444 N 2070.82 1.53744 0.346476 0
M  V30 22445 C 2072.06 1.72562 1.09552 0
M  V30 22446 C 2072.42 0.477138 1.85977 0
M  V30 22447 O 2073.62 0.542295 2.63273 0
M  V30 22448 C 2071.89 2.95246 2.01406 0
M  V30 22449 S 2073.45 3.34861 2.83573 0
M  V30 22450 H 2070.27 0.607015 0.370208 0
M  V30 22451 H 2072.87 1.91883 0.374316 0
M  V30 22452 H 2071.58 3.84286 1.44057 0
M  V30 22453 H 2071.11 2.78382 2.77969 0
M  V30 22454 H 2073.12 2.88367 4.03806 0
M  V30 22455 N 2072.3 -0.607329 1.45428 0
M  V30 22456 C 2073.26 -1.69997 1.53732 0
M  V30 22457 C 2074.26 -1.55304 0.416799 0
M  V30 22458 O 2075.45 -1.60367 0.680287 0
M  V30 22459 C 2072.58 -3.09267 1.43411 0
M  V30 22460 H 2073.77 -1.64001 2.51085 0
M  V30 22461 H 2071.33 -0.82308 1.32872 0
M  V30 22462 H 2072.06 -3.2084 0.47243 0
M  V30 22463 H 2071.85 -3.2134 2.24685 0
M  V30 22464 H 2073.34 -3.88855 1.52255 0
M  V30 22465 N 2073.77 -1.32722 -0.849853 0
M  V30 22466 C 2075 -1.26568 -1.63671 0
M  V30 22467 C 2075.42 0.165453 -1.88074 0
M  V30 22468 O 2074.77 1.1041 -1.45313 0
M  V30 22469 C 2074.83 -2.027 -2.99324 0
M  V30 22470 O 2074.55 -3.40229 -2.75999 0
M  V30 22471 C 2076.05 -2.03626 -3.93766 0
M  V30 22472 H 2073.27 -0.436491 -0.509624 0
M  V30 22473 H 2075.81 -1.74922 -1.05937 0
M  V30 22474 H 2073.97 -1.58056 -3.53691 0
M  V30 22475 H 2074.38 -3.79256 -3.62305 0
M  V30 22476 H 2075.85 -2.61369 -4.862 0
M  V30 22477 H 2076.33 -1.02373 -4.27102 0
M  V30 22478 H 2076.94 -2.48239 -3.45337 0
M  V30 22479 N 2075.25 1.06673 -1.16011 0
M  V30 22480 C 2076.5 1.79046 -0.937394 0
M  V30 22481 C 2076.82 1.87476 0.536438 0
M  V30 22482 O 2076.09 1.38065 1.38977 0
M  V30 22483 H 2074.67 0.663167 -0.343829 0
M  V30 22484 H 2077.33 1.28878 -1.46207 0
M  V30 22485 H 2076.43 2.81259 -1.35278 0
M  V30 22486 N 2076.73 0.957992 1.25141 0
M  V30 22487 C 2077.64 0.487592 2.29477 0
M  V30 22488 C 2078.66 -0.446704 1.68168 0
M  V30 22489 O 2079.83 -0.322127 1.98807 0
M  V30 22490 C 2076.9 -0.22393 3.45976 0
M  V30 22491 C 2075.96 0.748994 4.22716 0
M  V30 22492 C 2075.19 0.0713329 5.33652 0
M  V30 22493 O 2075.41 -1.14234 5.58844 0
M  V30 22494 O 2074.35 0.758575 5.97101 0
M  V30 22495 H 2078.17 1.35471 2.71811 0
M  V30 22496 H 2075.76 0.724594 1.30652 0
M  V30 22497 H 2077.64 -0.624039 4.16754 0
M  V30 22498 H 2076.32 -1.06616 3.05638 0
M  V30 22499 H 2075.22 1.19938 3.54353 0
M  V30 22500 H 2076.56 1.55935 4.66846 0
M  V30 22501 N 2078.21 -1.39832 0.726957 0
M  V30 22502 C 2079.17 -2.29022 0.0903329 0
M  V30 22503 C 2080.17 -1.45921 -0.675553 0
M  V30 22504 O 2081.36 -1.66696 -0.505765 0
M  V30 22505 C 2078.49 -3.29304 -0.881584 0
M  V30 22506 H 2079.69 -2.86821 0.87601 0
M  V30 22507 H 2077.24 -1.48345 0.492294 0
M  V30 22508 H 2077.97 -2.76545 -1.69391 0
M  V30 22509 H 2077.76 -3.90665 -0.33514 0
M  V30 22510 H 2079.25 -3.96061 -1.32384 0
M  V30 22511 N 2079.69 -0.473982 -1.50304 0
M  V30 22512 C 2080.93 0.072235 -2.03272 0
M  V30 22513 C 2081.29 1.37148 -1.34938 0
M  V30 22514 O 2080.58 1.85819 -0.467108 0
M  V30 22515 C 2080.77 0.308841 -3.56063 0
M  V30 22516 C 2080.6 -0.965919 -4.39204 0
M  V30 22517 C 2079.37 -1.51005 -4.82209 0
M  V30 22518 C 2081.57 -1.86208 -4.79407 0
M  V30 22519 N 2079.55 -2.73353 -5.49683 0
M  V30 22520 C 2080.92 -2.93143 -5.46321 0
M  V30 22521 C 2082.98 -1.87212 -4.61363 0
M  V30 22522 C 2081.68 -4.01074 -5.97103 0
M  V30 22523 C 2083.71 -2.94101 -5.13088 0
M  V30 22524 C 2083.07 -3.99754 -5.79979 0
M  V30 22525 H 2079.17 -0.0136677 -0.781881 0
M  V30 22526 H 2081.75 -0.642832 -1.83782 0
M  V30 22527 H 2079.92 0.992949 -3.75493 0
M  V30 22528 H 2081.66 0.849657 -3.9568 0
M  V30 22529 H 2078.41 -1.05884 -4.61612 0
M  V30 22530 H 2078.84 -3.35494 -5.88025 0
M  V30 22531 H 2083.48 -1.06845 -4.09077 0
M  V30 22532 H 2081.2 -4.82256 -6.48425 0
M  V30 22533 H 2084.78 -2.95864 -5.00955 0
M  V30 22534 H 2083.66 -4.81103 -6.19282 0
M  V30 22535 N 2081.16 1.56239 -0.206702 0
M  V30 22536 C 2082.1 2.16873 0.741546 0
M  V30 22537 C 2083.11 1.1337 1.16838 0
M  V30 22538 O 2084.3 1.40413 1.1021 0
M  V30 22539 C 2081.4 2.72544 2.01427 0
M  V30 22540 C 2080.57 4.01068 1.74538 0
M  V30 22541 C 2079.63 4.4145 2.86371 0
M  V30 22542 O 2078.66 5.08645 2.55479 0
M  V30 22543 N 2079.86 4.05908 4.14993 0
M  V30 22544 H 2082.62 2.98869 0.222965 0
M  V30 22545 H 2080.18 1.6188 -0.0251503 0
M  V30 22546 H 2082.18 2.96538 2.75404 0
M  V30 22547 H 2080.75 1.94935 2.44375 0
M  V30 22548 H 2079.97 3.85085 0.842806 0
M  V30 22549 H 2081.25 4.84939 1.53985 0
M  V30 22550 H 2080.65 3.51882 4.4294 0
M  V30 22551 H 2079.21 4.34827 4.85561 0
M  V30 22552 N 2082.64 -0.0668159 1.57458 0
M  V30 22553 C 2083.55 -1.09665 2.0739 0
M  V30 22554 C 2084.57 -1.4208 1.00446 0
M  V30 22555 O 2085.74 -1.52157 1.31948 0
M  V30 22556 C 2082.81 -2.38952 2.51203 0
M  V30 22557 C 2081.87 -2.13463 3.72468 0
M  V30 22558 C 2081.1 -3.36585 4.14181 0
M  V30 22559 O 2081.33 -4.45889 3.55723 0
M  V30 22560 O 2080.26 -3.24505 5.06932 0
M  V30 22561 H 2084.09 -0.702443 2.95465 0
M  V30 22562 H 2081.67 -0.281287 1.46728 0
M  V30 22563 H 2083.55 -3.1503 2.79883 0
M  V30 22564 H 2082.23 -2.77742 1.66256 0
M  V30 22565 H 2081.14 -1.35074 3.48864 0
M  V30 22566 H 2082.47 -1.7955 4.58282 0
M  V30 22567 N 2084.12 -1.53926 -0.338317 0
M  V30 22568 C 2085.37 -1.70639 -1.07542 0
M  V30 22569 C 2085.68 -0.479077 -1.89642 0
M  V30 22570 O 2086.89 -0.527259 -2.66331 0
M  V30 22571 C 2085.35 -3.0176 -1.96134 0
M  V30 22572 C 2084.95 -4.31847 -1.19216 0
M  V30 22573 C 2086.7 -3.27839 -2.6967 0
M  V30 22574 C 2084.6 -5.54039 -2.06869 0
M  V30 22575 H 2083.53 -0.635868 -0.4052 0
M  V30 22576 H 2086.19 -1.80424 -0.334569 0
M  V30 22577 H 2084.57 -2.85845 -2.7406 0
M  V30 22578 H 2085.74 -4.58482 -0.461647 0
M  V30 22579 H 2084.06 -4.12421 -0.574263 0
M  V30 22580 H 2086.65 -4.16322 -3.3553 0
M  V30 22581 H 2087 -2.45074 -3.36518 0
M  V30 22582 H 2087.53 -3.44554 -1.98815 0
M  V30 22583 H 2084.27 -6.39363 -1.44554 0
M  V30 22584 H 2083.79 -5.31645 -2.77694 0
M  V30 22585 H 2085.47 -5.89881 -2.658 0
M  V30 22586 N 2085.6 0.599608 -1.45748 0
M  V30 22587 C 2086.53 1.72387 -1.49526 0
M  V30 22588 C 2087.51 1.58769 -0.350874 0
M  V30 22589 O 2088.69 1.8022 -0.552553 0
M  V30 22590 C 2085.82 3.1029 -1.35785 0
M  V30 22591 C 2084.87 3.42475 -2.54191 0
M  V30 22592 S 2085.7 3.36425 -4.16627 0
M  V30 22593 C 2086.86 4.76895 -4.05366 0
M  V30 22594 H 2087.09 1.68921 -2.44649 0
M  V30 22595 H 2084.62 0.776938 -1.33428 0
M  V30 22596 H 2086.58 3.89854 -1.28545 0
M  V30 22597 H 2085.24 3.11263 -0.421193 0
M  V30 22598 H 2084.43 4.42904 -2.40524 0
M  V30 22599 H 2084.04 2.70444 -2.58334 0
M  V30 22600 H 2086.33 5.66889 -3.71003 0
M  V30 22601 H 2087.27 4.95619 -5.05735 0
M  V30 22602 H 2087.68 4.52951 -3.36891 0
M  V30 22603 N 2087.08 1.33171 0.842803 0
M  V30 22604 C 2088.01 1.2572 1.96766 0
M  V30 22605 C 2088.99 0.138574 1.69535 0
M  V30 22606 O 2090.17 0.327704 1.91415 0
M  V30 22607 C 2087.3 0.991637 3.32842 0
M  V30 22608 C 2086.26 2.07278 3.74459 0
M  V30 22609 C 2085.58 1.65942 5.08299 0
M  V30 22610 C 2086.88 3.48911 3.88662 0
M  V30 22611 H 2088.58 2.19834 2.03257 0
M  V30 22612 H 2086.12 1.05829 0.976533 0
M  V30 22613 H 2088.08 0.926021 4.111 0
M  V30 22614 H 2086.8 0.0148823 3.26597 0
M  V30 22615 H 2085.46 2.12875 2.98462 0
M  V30 22616 H 2085.11 0.669795 4.98521 0
M  V30 22617 H 2084.81 2.38288 5.37115 0
M  V30 22618 H 2086.33 1.60839 5.89036 0
M  V30 22619 H 2087.75 3.45837 4.57241 0
M  V30 22620 H 2086.14 4.1971 4.2891 0
M  V30 22621 H 2087.21 3.87705 2.91226 0
M  V30 22622 N 2088.56 -1.06056 1.16576 0
M  V30 22623 C 2089.52 -2.11761 0.876928 0
M  V30 22624 C 2090.52 -1.60281 -0.129123 0
M  V30 22625 O 2091.71 -1.73901 0.102046 0
M  V30 22626 C 2088.84 -3.3947 0.311872 0
M  V30 22627 H 2090.03 -2.38816 1.81403 0
M  V30 22628 H 2087.59 -1.2216 0.975021 0
M  V30 22629 H 2088.32 -3.18066 -0.632797 0
M  V30 22630 H 2088.11 -3.78143 1.03683 0
M  V30 22631 H 2089.6 -4.17404 0.12782 0
M  V30 22632 N 2090.03 -0.964615 -1.24631 0
M  V30 22633 C 2091.27 -0.632622 -1.94364 0
M  V30 22634 C 2091.64 0.816641 -1.73767 0
M  V30 22635 O 2092.84 1.25871 -2.37508 0
M  V30 22636 C 2091.11 -0.993428 -3.43316 0
M  V30 22637 S 2092.67 -0.775518 -4.31893 0
M  V30 22638 H 2089.49 -0.232189 -0.672019 0
M  V30 22639 H 2092.09 -1.24091 -1.51068 0
M  V30 22640 H 2090.79 -2.04514 -3.55812 0
M  V30 22641 H 2090.32 -0.37579 -3.91601 0
M  V30 22642 H 2092.34 0.348693 -4.94973 0
M  V30 22643 N 2091.51 1.39445 -0.734362 0
M  V30 22644 C 2092.44 2.33245 -0.109065 0
M  V30 22645 C 2093.42 1.53878 0.724945 0
M  V30 22646 O 2094.61 1.82274 0.670055 0
M  V30 22647 C 2091.74 3.37973 0.799454 0
M  V30 22648 C 2090.69 4.27943 0.0696508 0
M  V30 22649 C 2090.02 5.23365 1.09514 0
M  V30 22650 C 2091.32 5.10855 -1.08738 0
M  V30 22651 H 2093.01 2.85786 -0.892581 0
M  V30 22652 H 2090.56 1.37409 -0.430672 0
M  V30 22653 H 2092.51 4.02545 1.24643 0
M  V30 22654 H 2091.23 2.83871 1.61508 0
M  V30 22655 H 2089.89 3.64851 -0.357693 0
M  V30 22656 H 2089.54 4.65559 1.90432 0
M  V30 22657 H 2089.24 5.84408 0.611606 0
M  V30 22658 H 2090.77 5.90813 1.54183 0
M  V30 22659 H 2092.18 5.68775 -0.718888 0
M  V30 22660 H 2090.58 5.81038 -1.50051 0
M  V30 22661 H 2091.65 4.45725 -1.90937 0
M  V30 22662 N 2092.99 0.481946 1.5005 0
M  V30 22663 C 2094.4 0.0294639 1.86677 0
M  V30 22664 C 2094.75 -1.37874 1.39589 0
M  V30 22665 O 2093.88 -2.02407 0.765517 0
M  V30 22666 C 2094.47 0.0466921 3.38768 0
M  V30 22667 C 2093.03 -0.350364 3.74766 0
M  V30 22668 C 2092.18 0.427499 2.73985 0
M  V30 22669 H 2095.13 0.69569 1.42639 0
M  V30 22670 H 2095.15 -0.75302 3.72974 0
M  V30 22671 H 2094.66 1.07172 3.73009 0
M  V30 22672 H 2092.76 -1.37934 3.46128 0
M  V30 22673 H 2092.88 -0.0441626 4.7908 0
M  V30 22674 H 2091.24 -0.120219 2.54416 0
M  V30 22675 H 2092.02 1.45225 3.1107 0
M  V30 22676 N 2094.47 -1.56127 0.214985 0
M  V30 22677 C 2095.72 -1.97737 -0.417663 0
M  V30 22678 C 2096.04 -1.10368 -1.6076 0
M  V30 22679 O 2095.31 -0.179261 -1.95078 0
M  V30 22680 H 2093.89 -0.730251 -0.157298 0
M  V30 22681 H 2096.55 -1.92477 0.306351 0
M  V30 22682 H 2095.64 -3.02994 -0.748421 0
M  V30 22683 N 2095.95 0.0584645 -1.57492 0
M  V30 22684 C 2096.89 1.06805 -2.04601 0
M  V30 22685 C 2097.86 1.37677 -0.929204 0
M  V30 22686 O 2099.05 1.48518 -1.19779 0
M  V30 22687 C 2096.19 2.37272 -2.50591 0
M  V30 22688 C 2095.3 2.12815 -3.75944 0
M  V30 22689 C 2094.44 3.36941 -4.10663 0
M  V30 22690 C 2093.47 3.07907 -5.29018 0
M  V30 22691 N 2092.61 4.24401 -5.5931 0
M  V30 22692 H 2097.45 0.659352 -2.90614 0
M  V30 22693 H 2094.99 0.313985 -1.4371 0
M  V30 22694 H 2096.95 3.13463 -2.75312 0
M  V30 22695 H 2095.58 2.75919 -1.67536 0
M  V30 22696 H 2094.63 1.27255 -3.58483 0
M  V30 22697 H 2095.94 1.87378 -4.62267 0
M  V30 22698 H 2095.09 4.21519 -4.36356 0
M  V30 22699 H 2093.83 3.65466 -3.22933 0
M  V30 22700 H 2092.84 2.21727 -5.03108 0
M  V30 22701 H 2094.06 2.80691 -6.18377 0
M  V30 22702 H 2092.01 4.52933 -4.7454 0
M  V30 22703 H 2091.93 4.02284 -6.40081 0
M  V30 22704 H 2093.19 5.09938 -5.89562 0
M  V30 22705 N 2097.42 1.54103 0.330149 0
M  V30 22706 C 2098.35 1.8602 1.41134 0
M  V30 22707 C 2099.33 0.716429 1.54277 0
M  V30 22708 O 2100.52 0.969568 1.68265 0
M  V30 22709 C 2097.65 2.08171 2.77997 0
M  V30 22710 C 2096.6 3.24007 2.79649 0
M  V30 22711 C 2095.93 3.31516 4.19525 0
M  V30 22712 C 2097.23 4.6181 2.43985 0
M  V30 22713 H 2098.92 2.76569 1.14672 0
M  V30 22714 H 2096.47 1.33074 0.550199 0
M  V30 22715 H 2098.42 2.29083 3.53694 0
M  V30 22716 H 2097.15 1.14364 3.05922 0
M  V30 22717 H 2095.81 3.02971 2.06407 0
M  V30 22718 H 2095.45 2.3528 4.44581 0
M  V30 22719 H 2095.15 4.09364 4.21538 0
M  V30 22720 H 2096.68 3.54655 4.97044 0
M  V30 22721 H 2098.09 4.82647 3.09395 0
M  V30 22722 H 2096.49 5.4216 2.5726 0
M  V30 22723 H 2097.56 4.64507 1.39146 0
M  V30 22724 N 2098.9 -0.59187 1.46064 0
M  V30 22725 C 2100.14 -1.36155 1.52451 0
M  V30 22726 C 2100.51 -1.9126 0.168367 0
M  V30 22727 O 2101.71 -2.68587 0.106964 0
M  V30 22728 C 2099.98 -2.46736 2.58565 0
M  V30 22729 S 2101.54 -3.34251 2.84292 0
M  V30 22730 H 2098.36 -0.463989 0.538735 0
M  V30 22731 H 2100.96 -0.681358 1.83242 0
M  V30 22732 H 2099.66 -2.04629 3.55746 0
M  V30 22733 H 2099.19 -3.19538 2.29476 0
M  V30 22734 H 2101.21 -4.45323 2.18865 0
M  V30 22735 N 2100.38 -1.33616 -0.835729 0
M  V30 22736 C 2101.66 -1.15846 -1.57604 0
M  V30 22737 C 2102.04 0.273951 -2.09315 0
M  V30 22738 O 2101.39 1.27345 -1.89725 0
M  V30 22739 C 2101.6 -2.20224 -2.70744 0
M  V30 22740 C 2102.94 -2.54542 -3.39843 0
M  V30 22741 O 2103.97 -2.18915 -2.80989 0
M  V30 22742 O 2102.83 -3.15692 -4.46095 0
M  V30 22743 H 2099.92 -0.448265 -0.694973 0
M  V30 22744 H 2102.47 -1.45209 -0.878211 0
M  V30 22745 H 2101.24 -3.16426 -2.30196 0
M  V30 22746 H 2100.86 -1.91965 -3.48188 0
M  V30 22747 N 2101.86 1.05436 -1.17136 0
M  V30 22748 C 2103.27 1.59854 -0.964558 0
M  V30 22749 C 2103.62 1.89999 0.489367 0
M  V30 22750 O 2102.75 1.67983 1.36421 0
M  V30 22751 C 2103.34 2.90432 -1.74455 0
M  V30 22752 C 2101.9 3.41518 -1.58249 0
M  V30 22753 C 2101.05 2.15286 -1.74777 0
M  V30 22754 H 2104 0.882787 -1.31881 0
M  V30 22755 H 2104.02 3.60225 -1.22548 0
M  V30 22756 H 2103.53 2.6846 -2.80269 0
M  V30 22757 H 2101.63 3.68531 -0.549129 0
M  V30 22758 H 2101.74 4.16267 -2.37188 0
M  V30 22759 H 2100.11 2.25927 -1.17596 0
M  V30 22760 H 2100.89 1.95787 -2.81997 0
M  V30 22761 N 2103.34 0.971211 1.24118 0
M  V30 22762 C 2104.25 0.511904 2.28947 0
M  V30 22763 C 2105.26 -0.428843 1.68633 0
M  V30 22764 O 2106.44 -0.301023 1.99138 0
M  V30 22765 C 2103.5 -0.187222 3.46194 0
M  V30 22766 C 2102.56 0.793786 4.21898 0
M  V30 22767 C 2101.8 0.12793 5.33547 0
M  V30 22768 O 2102.02 -1.08301 5.60024 0
M  V30 22769 O 2100.95 0.821863 5.96263 0
M  V30 22770 H 2104.78 1.38346 2.70359 0
M  V30 22771 H 2102.37 0.738411 1.29876 0
M  V30 22772 H 2104.25 -0.579802 4.17392 0
M  V30 22773 H 2102.92 -1.03369 3.06752 0
M  V30 22774 H 2101.83 1.23689 3.53061 0
M  V30 22775 H 2103.16 1.60877 4.65166 0
M  V30 22776 N 2104.81 -1.39054 0.741747 0
M  V30 22777 C 2106.04 -2.05193 0.301789 0
M  V30 22778 C 2106.46 -1.55567 -1.05739 0
M  V30 22779 O 2105.82 -0.702382 -1.67141 0
M  V30 22780 C 2105.87 -3.59172 0.320615 0
M  V30 22781 O 2104.97 -4.06596 -0.68946 0
M  V30 22782 H 2104.32 -0.649957 0.135837 0
M  V30 22783 H 2106.85 -1.77958 1.00956 0
M  V30 22784 H 2106.86 -4.07657 0.167351 0
M  V30 22785 H 2105.53 -3.94652 1.31234 0
M  V30 22786 H 2104.11 -3.69509 -0.50178 0
M  V30 22787 N 2106.29 -0.489897 -1.49792 0
M  V30 22788 C 2107.57 0.121028 -1.95225 0
M  V30 22789 C 2107.95 1.55194 -1.43101 0
M  V30 22790 O 2107.3 2.19354 -0.639992 0
M  V30 22791 C 2107.51 0.045071 -3.48971 0
M  V30 22792 C 2108.86 0.224571 -4.24006 0
M  V30 22793 O 2109.88 0.120781 -3.55995 0
M  V30 22794 O 2108.74 0.436269 -5.44756 0
M  V30 22795 H 2105.83 0.101395 -0.820761 0
M  V30 22796 H 2108.38 -0.551643 -1.60484 0
M  V30 22797 H 2107.15 -0.953242 -3.79512 0
M  V30 22798 H 2106.77 0.758377 -3.903 0
M  V30 22799 N 2107.77 1.56011 -0.223262 0
M  V30 22800 C 2109 2.02446 0.412189 0
M  V30 22801 C 2109.41 1.1023 1.53772 0
M  V30 22802 O 2108.75 0.104539 1.83402 0
M  V30 22803 C 2108.81 3.45214 1.00337 0
M  V30 22804 C 2108.48 4.56998 0.0130627 0
M  V30 22805 C 2109.47 5.13895 -0.787936 0
M  V30 22806 C 2107.16 5.02188 -0.106187 0
M  V30 22807 C 2109.15 6.14453 -1.69487 0
M  V30 22808 C 2106.84 6.02584 -1.01665 0
M  V30 22809 C 2107.84 6.58593 -1.80954 0
M  V30 22810 O 2107.53 7.57034 -2.7047 0
M  V30 22811 H 2107.26 0.667806 0.104934 0
M  V30 22812 H 2109.81 2.02606 -0.337661 0
M  V30 22813 H 2108.04 3.42129 1.80234 0
M  V30 22814 H 2109.73 3.75288 1.54641 0
M  V30 22815 H 2110.5 4.7983 -0.706267 0
M  V30 22816 H 2106.38 4.58271 0.500846 0
M  V30 22817 H 2109.92 6.58097 -2.31418 0
M  V30 22818 H 2105.82 6.3607 -1.09933 0
M  V30 22819 H 2106.59 7.74563 -2.64564 0
M  V30 22820 N 2109.25 -0.0501116 1.5752 0
M  V30 22821 C 2110.2 -1.07575 2.06229 0
M  V30 22822 C 2111.19 -1.38752 0.971818 0
M  V30 22823 O 2112.4 -1.37904 1.15683 0
M  V30 22824 H 2108.77 -0.364351 0.657839 0
M  V30 22825 H 2110.74 -0.638967 2.91479 0
M  V30 22826 C 2109.49 -2.37464 2.53981 0
M  V30 22827 H 2108.81 -2.1433 3.37495 0
M  V30 22828 H 2110.25 -3.07624 2.91793 0
M  V30 22829 C 2108.71 -3.04955 1.43192 0
M  V30 22830 O 2109.24 -3.93931 0.786218 0
M  V30 22831 N 2107.45 -2.65933 1.17165 0
M  V30 22832 H 2107 -1.93666 1.69856 0
M  V30 22833 H 2106.95 -3.11411 0.432478 0
M  V30 22834 N 2110.73 -1.54276 -0.321972 0
M  V30 22835 C 2112.14 -1.63778 -0.896309 0
M  V30 22836 C 2112.49 -0.532871 -1.88825 0
M  V30 22837 O 2111.61 0.33397 -2.13807 0
M  V30 22838 C 2112.21 -2.96878 -1.63245 0
M  V30 22839 C 2110.77 -3.0857 -2.15549 0
M  V30 22840 C 2109.91 -2.59353 -0.981385 0
M  V30 22841 H 2112.87 -1.58388 -0.0995121 0
M  V30 22842 H 2112.89 -2.87127 -2.49677 0
M  V30 22843 H 2112.4 -3.77274 -0.910251 0
M  V30 22844 H 2110.5 -2.32851 -2.9088 0
M  V30 22845 H 2110.61 -4.14398 -2.4044 0
M  V30 22846 H 2108.98 -2.15288 -1.361 0
M  V30 22847 H 2109.76 -3.42209 -0.273477 0
M  V30 22848 N 2112.2 0.584116 -1.46376 0
M  V30 22849 C 2113.45 1.33973 -1.51313 0
M  V30 22850 C 2113.77 1.94294 -0.165758 0
M  V30 22851 O 2113.04 1.78481 0.807546 0
M  V30 22852 H 2111.62 0.497422 -0.557298 0
M  V30 22853 H 2114.29 0.684191 -1.82496 0
M  V30 22854 H 2113.38 2.14716 -2.26503 0
M  V30 22855 N 2113.68 1.34058 0.828631 0
M  V30 22856 C 2114.59 1.27222 1.97109 0
M  V30 22857 C 2115.61 0.180917 1.73057 0
M  V30 22858 O 2116.79 0.406362 1.97258 0
M  V30 22859 C 2113.85 1.0218 3.31301 0
M  V30 22860 C 2112.91 2.2041 3.68399 0
M  V30 22861 C 2112.14 1.96553 4.96188 0
M  V30 22862 O 2112.37 0.920931 5.62917 0
M  V30 22863 O 2111.3 2.83356 5.3103 0
M  V30 22864 H 2115.13 2.23322 2.05818 0
M  V30 22865 H 2112.71 1.14206 0.963184 0
M  V30 22866 H 2114.59 0.899718 4.11683 0
M  V30 22867 H 2113.27 0.0911525 3.23572 0
M  V30 22868 H 2112.18 2.38176 2.88484 0
M  V30 22869 H 2113.51 3.11845 3.80807 0
M  V30 22870 N 2115.16 -1.04814 1.17694 0
M  V30 22871 C 2116.07 -2.16152 0.911889 0
M  V30 22872 C 2117.09 -1.73577 -0.121319 0
M  V30 22873 O 2118.26 -2.01314 0.0588399 0
M  V30 22874 C 2115.33 -3.43985 0.433003 0
M  V30 22875 C 2114.39 -4.00986 1.53326 0
M  V30 22876 C 2113.62 -5.22717 1.07713 0
M  V30 22877 O 2113.85 -5.7036 -0.0671938 0
M  V30 22878 O 2112.78 -5.72056 1.87176 0
M  V30 22879 H 2116.61 -2.41362 1.84331 0
M  V30 22880 H 2114.19 -1.1463 0.958135 0
M  V30 22881 H 2116.07 -4.21042 0.17365 0
M  V30 22882 H 2114.75 -3.20266 -0.470221 0
M  V30 22883 H 2113.65 -3.25352 1.84654 0
M  V30 22884 H 2114.99 -4.2903 2.41234 0
M  V30 22885 N 2116.64 -0.977779 -1.23601 0
M  V30 22886 C 2117.87 -0.662189 -1.957 0
M  V30 22887 C 2118.28 0.77446 -1.72623 0
M  V30 22888 O 2117.62 1.53247 -1.01297 0
M  V30 22889 C 2117.68 -0.869464 -3.48827 0
M  V30 22890 C 2117.35 -2.28768 -3.95619 0
M  V30 22891 C 2118.34 -3.26617 -4.04497 0
M  V30 22892 C 2116.03 -2.61807 -4.28675 0
M  V30 22893 C 2118.02 -4.55586 -4.45781 0
M  V30 22894 C 2115.71 -3.91 -4.69641 0
M  V30 22895 C 2116.71 -4.87701 -4.7816 0
M  V30 22896 O 2116.4 -6.14587 -5.18206 0
M  V30 22897 H 2116.13 -0.245256 -0.629941 0
M  V30 22898 H 2118.68 -1.31105 -1.58116 0
M  V30 22899 H 2116.91 -0.163432 -3.86354 0
M  V30 22900 H 2118.6 -0.551434 -4.02137 0
M  V30 22901 H 2119.37 -3.02422 -3.79165 0
M  V30 22902 H 2115.25 -1.87252 -4.21257 0
M  V30 22903 H 2118.79 -5.31065 -4.52345 0
M  V30 22904 H 2114.69 -4.14991 -4.94422 0
M  V30 22905 H 2115.45 -6.18301 -5.36326 0
M  V30 22906 N 2118.12 1.38658 -0.749111 0
M  V30 22907 C 2119.35 2.04504 -0.313958 0
M  V30 22908 C 2119.76 1.56495 1.05616 0
M  V30 22909 O 2119.12 0.736036 1.66999 0
M  V30 22910 C 2119.17 3.60059 -0.322507 0
M  V30 22911 O 2118.89 4.06304 -1.63855 0
M  V30 22912 C 2120.39 4.43118 0.127067 0
M  V30 22913 H 2117.61 0.657312 -0.134841 0
M  V30 22914 H 2120.15 1.77435 -1.01671 0
M  V30 22915 H 2118.31 3.85979 0.331471 0
M  V30 22916 H 2118.72 5.00711 -1.56169 0
M  V30 22917 H 2120.2 5.51956 0.0699241 0
M  V30 22918 H 2120.67 4.2321 1.17431 0
M  V30 22919 H 2121.28 4.22376 -0.49787 0
M  V30 22920 N 2119.6 0.497834 1.49531 0
M  V30 22921 C 2120.84 -0.0462138 2.04348 0
M  V30 22922 C 2121.2 -1.34566 1.36952 0
M  V30 22923 O 2122.4 -1.97376 1.82473 0
M  V30 22924 C 2120.67 -0.198653 3.56847 0
M  V30 22925 S 2122.23 -0.697405 4.33222 0
M  V30 22926 H 2119.05 -0.00327871 0.710992 0
M  V30 22927 H 2121.65 0.671079 1.83621 0
M  V30 22928 H 2120.35 0.75245 4.03443 0
M  V30 22929 H 2119.89 -0.941279 3.81973 0
M  V30 22930 H 2121.9 -1.96702 4.55546 0
M  V30 22931 N 2121.07 -1.5589 0.231532 0
M  V30 22932 C 2122.32 -1.98169 -0.396667 0
M  V30 22933 C 2122.64 -1.12067 -1.59581 0
M  V30 22934 O 2121.91 -0.199942 -1.94877 0
M  V30 22935 H 2120.49 -0.731878 -0.149544 0
M  V30 22936 H 2123.15 -1.92142 0.326749 0
M  V30 22937 H 2122.25 -3.0377 -0.716243 0
M  V30 22938 N 2122.55 0.0417572 -1.57545 0
M  V30 22939 C 2123.78 0.750955 -1.93327 0
M  V30 22940 C 2124.2 1.68773 -0.830508 0
M  V30 22941 O 2123.56 1.80024 0.214702 0
M  V30 22942 C 2123.61 1.49503 -3.28148 0
M  V30 22943 O 2122.71 2.60754 -3.19501 0
M  V30 22944 H 2122.05 0.202874 -0.632248 0
M  V30 22945 H 2124.58 0.00102047 -2.046 0
M  V30 22946 H 2124.59 1.86775 -3.62738 0
M  V30 22947 H 2123.27 0.80791 -4.07977 0
M  V30 22948 H 2121.84 2.26119 -2.96521 0
M  V30 22949 N 2124.03 1.54445 0.313786 0
M  V30 22950 C 2124.98 1.85248 1.40663 0
M  V30 22951 C 2125.97 0.725147 1.53095 0
M  V30 22952 O 2127.18 0.908956 1.55364 0
M  V30 22953 H 2123.55 0.587354 0.469595 0
M  V30 22954 H 2125.52 2.76619 1.11913 0
M  V30 22955 C 2124.27 2.10521 2.76724 0
M  V30 22956 H 2123.6 2.96733 2.67935 0
M  V30 22957 H 2125.04 2.36022 3.52235 0
M  V30 22958 C 2123.49 0.899767 3.24663 0
M  V30 22959 O 2124.02 0.113882 4.01539 0
M  V30 22960 N 2122.23 0.708685 2.81826 0
M  V30 22961 H 2121.78 1.34941 2.19428 0
M  V30 22962 H 2121.74 -0.0963363 3.14252 0
M  V30 22963 N 2125.51 -0.576345 1.46683 0
M  V30 22964 C 2126.75 -1.33432 1.52323 0
M  V30 22965 C 2127.08 -1.93688 0.177545 0
M  V30 22966 O 2126.34 -1.77343 -0.827521 0
M  V30 22967 C 2126.64 -2.4787 2.57479 0
M  V30 22968 C 2126.3 -2.05566 4.01314 0
M  V30 22969 C 2124.96 -1.93745 4.40473 0
M  V30 22970 C 2127.32 -1.7302 4.91644 0
M  V30 22971 C 2124.64 -1.47644 5.67819 0
M  V30 22972 C 2127 -1.28396 6.19433 0
M  V30 22973 C 2125.66 -1.15156 6.57492 0
M  V30 22974 H 2124.93 -0.488262 0.557388 0
M  V30 22975 H 2127.58 -0.648342 1.80191 0
M  V30 22976 H 2125.88 -3.21942 2.23295 0
M  V30 22977 H 2127.58 -3.06078 2.5907 0
M  V30 22978 H 2124.17 -2.15704 3.70364 0
M  V30 22979 H 2128.35 -1.81036 4.62104 0
M  V30 22980 H 2123.61 -1.36041 5.96073 0
M  V30 22981 H 2127.78 -1.02268 6.8885 0
M  V30 22982 H 2125.41 -0.792103 7.56062 0
M  V30 22983 N 2126.99 -1.34495 -0.82151 0
M  V30 22984 C 2127.95 -1.2608 -1.91407 0
M  V30 22985 C 2128.95 -0.175671 -1.59838 0
M  V30 22986 O 2130.14 -0.428389 -1.6885 0
M  V30 22987 C 2127.27 -0.9469 -3.27485 0
M  V30 22988 H 2128.46 -2.23212 -2.00291 0
M  V30 22989 H 2126.02 -1.18804 -1.01565 0
M  V30 22990 H 2126.75 0.0211878 -3.24293 0
M  V30 22991 H 2126.54 -1.73181 -3.51782 0
M  V30 22992 H 2128.03 -0.913228 -4.07492 0
M  V30 22993 N 2128.46 1.04188 -1.18248 0
M  V30 22994 C 2129.71 1.76764 -0.971464 0
M  V30 22995 C 2130.03 1.89102 0.49997 0
M  V30 22996 O 2131.23 2.58519 0.829468 0
M  V30 22997 C 2129.69 3.17801 -1.68909 0
M  V30 22998 C 2129.3 3.1356 -3.19975 0
M  V30 22999 C 2131.04 3.94763 -1.56084 0
M  V30 23000 C 2128.95 4.49449 -3.84382 0
M  V30 23001 H 2127.88 0.662591 -0.359847 0
M  V30 23002 H 2130.53 1.16702 -1.41608 0
M  V30 23003 H 2128.91 3.78252 -1.17224 0
M  V30 23004 H 2130.08 2.62568 -3.78675 0
M  V30 23005 H 2128.4 2.50097 -3.32927 0
M  V30 23006 H 2131 4.95253 -2.01566 0
M  V30 23007 H 2131.34 4.13128 -0.512919 0
M  V30 23008 H 2131.87 3.40885 -2.05043 0
M  V30 23009 H 2128.61 4.36289 -4.89216 0
M  V30 23010 H 2128.13 5.00549 -3.3047 0
M  V30 23011 H 2129.81 5.18367 -3.87175 0
M  V30 23012 N 2129.94 0.98432 1.23081 0
M  V30 23013 C 2131.19 0.656352 1.91885 0
M  V30 23014 C 2131.52 -0.808541 1.76568 0
M  V30 23015 O 2130.8 -1.5837 1.12912 0
M  V30 23016 C 2131.08 1.05239 3.44379 0
M  V30 23017 C 2130.93 2.57521 3.68786 0
M  V30 23018 C 2132.25 0.599218 4.36002 0
M  V30 23019 H 2129.37 0.23992 0.696855 0
M  V30 23020 H 2132.01 1.22631 1.45127 0
M  V30 23021 H 2130.16 0.567423 3.84334 0
M  V30 23022 H 2131.83 3.13622 3.38288 0
M  V30 23023 H 2130.08 2.99978 3.13362 0
M  V30 23024 H 2130.75 2.80282 4.75548 0
M  V30 23025 H 2133.22 1.01565 4.03514 0
M  V30 23026 H 2132.1 0.904717 5.41393 0
M  V30 23027 H 2132.36 -0.500359 4.39259 0
M  V30 23028 N 2131.42 -1.38259 0.756453 0
M  V30 23029 C 2132.65 -2.04038 0.324328 0
M  V30 23030 C 2133.06 -1.57176 -1.05321 0
M  V30 23031 O 2132.4 -0.741386 -1.68075 0
M  V30 23032 C 2132.46 -3.58472 0.271651 0
M  V30 23033 C 2132.13 -4.28403 1.59121 0
M  V30 23034 C 2133.12 -4.53578 2.54092 0
M  V30 23035 C 2130.81 -4.66536 1.86143 0
M  V30 23036 C 2132.8 -5.15923 3.74302 0
M  V30 23037 C 2130.49 -5.28605 3.06627 0
M  V30 23038 C 2131.49 -5.53233 4.00527 0
M  V30 23039 O 2131.18 -6.14009 5.18892 0
M  V30 23040 H 2130.91 -0.662169 0.136046 0
M  V30 23041 H 2133.46 -1.77878 1.02707 0
M  V30 23042 H 2131.69 -3.83617 -0.487352 0
M  V30 23043 H 2133.38 -4.05687 -0.131344 0
M  V30 23044 H 2134.15 -4.24545 2.34492 0
M  V30 23045 H 2130.03 -4.4671 1.1389 0
M  V30 23046 H 2133.57 -5.35063 4.47609 0
M  V30 23047 H 2129.47 -5.57061 3.26119 0
M  V30 23048 H 2130.24 -6.32495 5.19512 0
M  V30 23049 N 2132.9 -0.505757 -1.49264 0
M  V30 23050 C 2134.15 0.0370719 -2.02466 0
M  V30 23051 C 2134.47 1.36554 -1.38504 0
M  V30 23052 O 2133.73 1.88895 -0.51159 0
M  V30 23053 C 2134.03 0.233245 -3.56638 0
M  V30 23054 C 2133.69 -1.01781 -4.39262 0
M  V30 23055 C 2132.36 -1.36074 -4.6156 0
M  V30 23056 C 2134.71 -1.84918 -4.87293 0
M  V30 23057 C 2132.04 -2.53445 -5.29134 0
M  V30 23058 C 2134.39 -3.01446 -5.56159 0
M  V30 23059 C 2133.05 -3.36113 -5.76701 0
M  V30 23060 H 2132.32 0.0135656 -0.740876 0
M  V30 23061 H 2134.97 -0.666878 -1.79513 0
M  V30 23062 H 2133.27 1.01976 -3.78296 0
M  V30 23063 H 2134.97 0.66778 -3.95401 0
M  V30 23064 H 2131.56 -0.740706 -4.22151 0
M  V30 23065 H 2135.74 -1.59738 -4.69891 0
M  V30 23066 H 2131 -2.80536 -5.4324 0
M  V30 23067 H 2135.17 -3.66189 -5.9235 0
M  V30 23068 H 2132.8 -4.27163 -6.28837 0
M  V30 23069 N 2134.38 1.55765 -0.239796 0
M  V30 23070 C 2135.63 1.97945 0.387367 0
M  V30 23071 C 2135.94 1.131 1.59586 0
M  V30 23072 O 2137.14 1.45261 2.29372 0
M  V30 23073 C 2135.6 3.52198 0.740571 0
M  V30 23074 C 2135.21 4.45773 -0.446131 0
M  V30 23075 C 2136.95 4.0305 1.33232 0
M  V30 23076 C 2134.86 5.91359 -0.0694771 0
M  V30 23077 H 2133.79 0.739231 0.148505 0
M  V30 23078 H 2136.44 1.80343 -0.338891 0
M  V30 23079 H 2134.82 3.65468 1.52476 0
M  V30 23080 H 2136 4.44259 -1.22354 0
M  V30 23081 H 2134.31 4.05364 -0.952332 0
M  V30 23082 H 2136.91 5.09335 1.62734 0
M  V30 23083 H 2137.25 3.49977 2.25437 0
M  V30 23084 H 2137.78 3.93077 0.611183 0
M  V30 23085 H 2134.52 6.48455 -0.958485 0
M  V30 23086 H 2134.04 5.96025 0.671873 0
M  V30 23087 H 2135.72 6.46048 0.350837 0
M  V30 23088 N 2135.85 -0.0334016 1.57565 0
M  V30 23089 C 2137.08 -0.740692 1.93723 0
M  V30 23090 C 2137.5 -1.6833 0.839447 0
M  V30 23091 O 2136.86 -1.80136 -0.205152 0
M  V30 23092 C 2136.91 -1.47761 3.28936 0
M  V30 23093 O 2136.01 -2.59056 3.2088 0
M  V30 23094 H 2135.36 -0.199518 0.633315 0
M  V30 23095 H 2137.89 0.00982998 2.04598 0
M  V30 23096 H 2137.9 -1.84849 3.63724 0
M  V30 23097 H 2136.57 -0.786263 4.084 0
M  V30 23098 H 2135.15 -2.24543 2.97716 0
M  V30 23099 N 2137.33 -1.54609 -0.305591 0
M  V30 23100 C 2138.58 -1.73672 -1.04137 0
M  V30 23101 C 2138.91 -0.520024 -1.87419 0
M  V30 23102 O 2138.16 0.49808 -1.89256 0
M  V30 23103 C 2138.46 -2.97546 -1.97993 0
M  V30 23104 C 2138.13 -4.31535 -1.30723 0
M  V30 23105 C 2136.79 -4.67958 -1.12109 0
M  V30 23106 C 2139.14 -5.14614 -0.825937 0
M  V30 23107 C 2136.47 -5.85045 -0.440427 0
M  V30 23108 C 2138.82 -6.324 -0.159014 0
M  V30 23109 C 2137.49 -6.67489 0.0391208 0
M  V30 23110 H 2136.76 -0.635509 -0.381063 0
M  V30 23111 H 2139.4 -1.88863 -0.316695 0
M  V30 23112 H 2137.71 -2.77116 -2.76973 0
M  V30 23113 H 2139.4 -3.09489 -2.54985 0
M  V30 23114 H 2135.99 -4.02888 -1.46217 0
M  V30 23115 H 2140.18 -4.86977 -0.957472 0
M  V30 23116 H 2135.43 -6.10777 -0.275887 0
M  V30 23117 H 2139.61 -6.96047 0.221841 0
M  V30 23118 H 2137.24 -7.58071 0.568561 0
M  V30 23119 N 2138.81 0.568558 -1.46987 0
M  V30 23120 C 2140.04 1.34995 -1.56397 0
M  V30 23121 C 2140.45 1.88042 -0.209042 0
M  V30 23122 O 2139.79 1.65068 0.806115 0
M  V30 23123 C 2139.85 2.56403 -2.51988 0
M  V30 23124 C 2139.52 2.24724 -3.9793 0
M  V30 23125 C 2140.51 1.82701 -4.86741 0
M  V30 23126 C 2138.2 2.36432 -4.43176 0
M  V30 23127 C 2140.19 1.52801 -6.18814 0
M  V30 23128 C 2137.88 2.06144 -5.75281 0
M  V30 23129 C 2138.88 1.64395 -6.6292 0
M  V30 23130 O 2138.57 1.34486 -7.92571 0
M  V30 23131 H 2138.3 0.418239 -0.531086 0
M  V30 23132 H 2140.85 0.696749 -1.93222 0
M  V30 23133 H 2139.08 3.24576 -2.10208 0
M  V30 23134 H 2140.77 3.18477 -2.51649 0
M  V30 23135 H 2141.54 1.73158 -4.53036 0
M  V30 23136 H 2137.42 2.67888 -3.75176 0
M  V30 23137 H 2140.96 1.20141 -6.87177 0
M  V30 23138 H 2136.86 2.15316 -6.0853 0
M  V30 23139 H 2137.63 1.48213 -8.04969 0
M  V30 23140 N 2140.29 1.34929 0.814366 0
M  V30 23141 C 2141.22 1.21559 1.93129 0
M  V30 23142 C 2142.2 0.105242 1.62259 0
M  V30 23143 O 2143.38 0.271939 1.86528 0
M  V30 23144 C 2140.51 0.869978 3.27336 0
M  V30 23145 C 2139.56 1.99128 3.77161 0
M  V30 23146 S 2140.39 3.60594 3.95894 0
M  V30 23147 C 2141.55 3.28094 5.33015 0
M  V30 23148 H 2141.78 2.16102 2.04175 0
M  V30 23149 H 2139.31 1.20055 0.970888 0
M  V30 23150 H 2141.27 0.677373 4.04873 0
M  V30 23151 H 2139.93 -0.0572578 3.14048 0
M  V30 23152 H 2139.12 1.70342 4.74341 0
M  V30 23153 H 2138.73 2.14182 3.06598 0
M  V30 23154 H 2141.02 2.80439 6.16733 0
M  V30 23155 H 2141.96 4.24446 5.66791 0
M  V30 23156 H 2142.37 2.64058 4.98932 0
M  V30 23157 N 2141.77 -1.0356 1.18799 0
M  V30 23158 C 2142.7 -2.13602 0.943213 0
M  V30 23159 C 2143.68 -1.69669 -0.120965 0
M  V30 23160 O 2144.86 -1.94173 0.0326748 0
M  V30 23161 C 2141.99 -3.44054 0.473716 0
M  V30 23162 C 2140.95 -4.01635 1.47896 0
M  V30 23163 C 2140.27 -5.27628 0.866789 0
M  V30 23164 C 2141.57 -4.3722 2.8572 0
M  V30 23165 H 2143.27 -2.34336 1.86351 0
M  V30 23166 H 2140.81 -1.12617 0.897406 0
M  V30 23167 H 2142.77 -4.20402 0.289804 0
M  V30 23168 H 2141.49 -3.23021 -0.482167 0
M  V30 23169 H 2140.15 -3.27374 1.6499 0
M  V30 23170 H 2139.8 -5.02908 -0.0964386 0
M  V30 23171 H 2139.5 -5.67115 1.53799 0
M  V30 23172 H 2141.02 -6.06649 0.693523 0
M  V30 23173 H 2142.43 -5.04533 2.72248 0
M  V30 23174 H 2140.83 -4.87771 3.49571 0
M  V30 23175 H 2141.9 -3.46821 3.38885 0
M  V30 23176 N 2143.25 -0.990834 -1.22557 0
M  V30 23177 C 2144.49 -0.673707 -1.92978 0
M  V30 23178 C 2144.85 0.779598 -1.7546 0
M  V30 23179 O 2146.05 1.20804 -2.40124 0
M  V30 23180 C 2144.32 -1.06603 -3.41131 0
M  V30 23181 S 2145.88 -0.866954 -4.3015 0
M  V30 23182 H 2142.7 -0.246392 -0.666942 0
M  V30 23183 H 2145.3 -1.27268 -1.48402 0
M  V30 23184 H 2144 -2.12015 -3.51394 0
M  V30 23185 H 2143.54 -0.458769 -3.90716 0
M  V30 23186 H 2145.55 0.243623 -4.95602 0
M  V30 23187 N 2144.72 1.37856 -0.763775 0
M  V30 23188 C 2145.69 2.28702 -0.151022 0
M  V30 23189 C 2146.69 1.47661 0.636627 0
M  V30 23190 O 2147.88 1.67979 0.46139 0
M  V30 23191 C 2145.01 3.31525 0.793965 0
M  V30 23192 H 2146.2 2.84397 -0.951747 0
M  V30 23193 H 2143.75 1.46987 -0.531452 0
M  V30 23194 H 2144.49 2.80939 1.61999 0
M  V30 23195 H 2144.27 3.91416 0.231444 0
M  V30 23196 H 2145.76 3.99432 1.21837 0
M  V30 23197 N 2146.2 0.513665 1.48994 0
M  V30 23198 C 2147.45 -0.0263341 2.02483 0
M  V30 23199 C 2147.78 -1.35817 1.39226 0
M  V30 23200 O 2147.03 -1.88621 0.5216 0
M  V30 23201 C 2147.33 -0.214329 3.56757 0
M  V30 23202 C 2147 1.0411 4.38716 0
M  V30 23203 C 2145.66 1.3852 4.60832 0
M  V30 23204 C 2148.01 1.87499 4.86306 0
M  V30 23205 C 2145.34 2.56248 5.27782 0
M  V30 23206 C 2147.69 3.04392 5.54553 0
M  V30 23207 C 2146.35 3.39167 5.7491 0
M  V30 23208 H 2145.62 -0.00963634 0.740937 0
M  V30 23209 H 2148.27 0.676388 1.79157 0
M  V30 23210 H 2146.58 -0.999685 3.78832 0
M  V30 23211 H 2148.27 -0.646802 3.95749 0
M  V30 23212 H 2144.86 0.763083 4.21752 0
M  V30 23213 H 2149.05 1.62228 4.69037 0
M  V30 23214 H 2144.3 2.83413 5.41744 0
M  V30 23215 H 2148.48 3.69325 5.904 0
M  V30 23216 H 2146.1 4.30492 6.26562 0
M  V30 23217 N 2147.68 -1.55636 0.248053 0
M  V30 23218 C 2148.61 -2.2441 -0.645175 0
M  V30 23219 C 2149.59 -1.22477 -1.18039 0
M  V30 23220 O 2150.78 -1.51133 -1.21953 0
M  V30 23221 C 2147.91 -2.94446 -1.84171 0
M  V30 23222 C 2146.86 -4.03076 -1.43922 0
M  V30 23223 C 2146.19 -4.60544 -2.71668 0
M  V30 23224 C 2147.49 -5.18732 -0.609431 0
M  V30 23225 H 2149.18 -2.99314 -0.0716951 0
M  V30 23226 H 2146.73 -1.43962 -0.033043 0
M  V30 23227 H 2148.68 -3.41259 -2.47225 0
M  V30 23228 H 2147.4 -2.17031 -2.44059 0
M  V30 23229 H 2146.06 -3.57034 -0.832012 0
M  V30 23230 H 2145.71 -3.79829 -3.29756 0
M  V30 23231 H 2145.41 -5.33876 -2.4546 0
M  V30 23232 H 2146.93 -5.10091 -3.35618 0
M  V30 23233 H 2148.35 -5.61764 -1.1443 0
M  V30 23234 H 2146.74 -5.9846 -0.443361 0
M  V30 23235 H 2147.81 -4.83424 0.378087 0
M  V30 23236 N 2149.16 0.0250451 -1.5758 0
M  V30 23237 C 2150.41 0.714108 -1.88636 0
M  V30 23238 C 2150.72 1.76305 -0.847099 0
M  V30 23239 O 2151.93 2.50499 -1.04702 0
M  V30 23240 C 2150.38 1.3212 -3.34772 0
M  V30 23241 C 2149.99 0.308393 -4.46937 0
M  V30 23242 C 2151.73 1.98991 -3.74971 0
M  V30 23243 C 2149.64 0.924059 -5.84136 0
M  V30 23244 H 2148.57 0.270472 -0.703819 0
M  V30 23245 H 2151.22 -0.0313912 -1.83473 0
M  V30 23246 H 2149.6 2.11654 -3.34692 0
M  V30 23247 H 2150.78 -0.460527 -4.58493 0
M  V30 23248 H 2149.09 -0.258451 -4.15597 0
M  V30 23249 H 2151.69 2.45913 -4.74796 0
M  V30 23250 H 2152.03 2.8098 -3.07174 0
M  V30 23251 H 2152.57 1.26226 -3.77242 0
M  V30 23252 H 2149.3 0.143492 -6.55343 0
M  V30 23253 H 2148.82 1.66272 -5.76293 0
M  V30 23254 H 2150.5 1.4302 -6.30995 0
M  V30 23255 N 2150.64 1.54769 0.297388 0
M  V30 23256 C 2151.88 1.7343 1.0298 0
M  V30 23257 C 2152.2 0.529189 1.88305 0
M  V30 23258 O 2153.4 0.597687 2.64839 0
M  V30 23259 C 2151.86 3.06854 1.88065 0
M  V30 23260 C 2151.47 4.34856 1.07724 0
M  V30 23261 C 2153.21 3.34873 2.60883 0
M  V30 23262 C 2151.12 5.59329 1.92107 0
M  V30 23263 H 2150.05 0.646388 0.388199 0
M  V30 23264 H 2152.7 1.81248 0.286615 0
M  V30 23265 H 2151.08 2.93011 2.66385 0
M  V30 23266 H 2152.26 4.59544 0.339927 0
M  V30 23267 H 2150.57 4.13799 0.464715 0
M  V30 23268 H 2153.17 4.25071 3.24374 0
M  V30 23269 H 2153.51 2.5391 3.29902 0
M  V30 23270 H 2154.04 3.49704 1.8961 0
M  V30 23271 H 2150.78 6.4297 1.27551 0
M  V30 23272 H 2150.3 5.3882 2.63501 0
M  V30 23273 H 2151.98 5.96721 2.50067 0
M  V30 23274 N 2152.11 -0.560755 1.47286 0
M  V30 23275 C 2153.06 -1.68914 1.59908 0
M  V30 23276 C 2154.06 -1.62849 0.466545 0
M  V30 23277 O 2155.26 -1.68077 0.644218 0
M  V30 23278 H 2151.64 -0.558856 0.503174 0
M  V30 23279 H 2153.61 -1.55405 2.54739 0
M  V30 23280 C 2152.36 -3.07274 1.62721 0
M  V30 23281 H 2151.68 -3.12622 2.49214 0
M  V30 23282 H 2153.12 -3.85927 1.75603 0
M  V30 23283 C 2151.58 -3.34973 0.359852 0
M  V30 23284 O 2152.11 -3.98046 -0.540583 0
M  V30 23285 N 2150.31 -2.89599 0.24097 0
M  V30 23286 H 2149.86 -2.3845 0.974638 0
M  V30 23287 H 2149.82 -3.08503 -0.606066 0
M  V30 23288 N 2153.59 -1.35359 -0.807199 0
M  V30 23289 C 2154.52 -1.30893 -1.93363 0
M  V30 23290 C 2155.5 -0.183475 -1.69108 0
M  V30 23291 O 2156.69 -0.378339 -1.90479 0
M  V30 23292 C 2153.82 -1.07954 -3.30096 0
M  V30 23293 C 2152.77 -2.17133 -3.68832 0
M  V30 23294 C 2152.1 -1.7936 -5.0372 0
M  V30 23295 C 2153.4 -3.59094 -3.79274 0
M  V30 23296 H 2155.09 -2.25145 -1.97357 0
M  V30 23297 H 2152.64 -1.08381 -0.948131 0
M  V30 23298 H 2154.59 -1.03469 -4.085 0
M  V30 23299 H 2153.31 -0.101468 -3.26442 0
M  V30 23300 H 2151.97 -2.20714 -2.92713 0
M  V30 23301 H 2151.62 -0.801733 -4.96569 0
M  V30 23302 H 2151.32 -2.52445 -5.30608 0
M  V30 23303 H 2152.85 -1.764 -5.84564 0
M  V30 23304 H 2154.26 -3.57839 -4.47911 0
M  V30 23305 H 2152.66 -4.30934 -4.17632 0
M  V30 23306 H 2153.73 -3.9529 -2.80845 0
M  V30 23307 N 2155.07 1.02928 -1.19346 0
M  V30 23308 C 2156.32 1.76321 -0.995848 0
M  V30 23309 C 2156.64 1.88651 0.473415 0
M  V30 23310 O 2155.9 1.39967 1.36776 0
M  V30 23311 C 2156.2 3.1911 -1.60946 0
M  V30 23312 C 2155.86 3.26788 -3.10677 0
M  V30 23313 C 2154.53 3.28591 -3.51541 0
M  V30 23314 C 2156.88 3.25968 -4.06687 0
M  V30 23315 C 2154.21 3.27229 -4.86968 0
M  V30 23316 C 2156.56 3.26146 -5.42044 0
M  V30 23317 C 2155.22 3.26247 -5.8234 0
M  V30 23318 H 2154.49 0.645204 -0.364407 0
M  V30 23319 H 2157.14 1.20811 -1.48584 0
M  V30 23320 H 2155.44 3.77696 -1.04177 0
M  V30 23321 H 2157.14 3.74565 -1.43185 0
M  V30 23322 H 2153.73 3.26113 -2.78116 0
M  V30 23323 H 2157.92 3.23756 -3.76159 0
M  V30 23324 H 2153.17 3.2563 -5.1747 0
M  V30 23325 H 2157.35 3.24462 -6.16196 0
M  V30 23326 H 2154.97 3.24945 -6.87252 0
M  V30 23327 N 2156.55 0.997319 1.2203 0
M  V30 23328 C 2157.79 0.676667 1.91178 0
M  V30 23329 C 2158.13 -0.789768 1.77416 0
M  V30 23330 O 2157.4 -1.57163 1.14586 0
M  V30 23331 C 2157.68 1.08886 3.43243 0
M  V30 23332 C 2157.54 2.61418 3.66034 0
M  V30 23333 C 2158.86 0.645428 4.35342 0
M  V30 23334 H 2155.98 0.247298 0.694271 0
M  V30 23335 H 2158.62 1.24163 1.43818 0
M  V30 23336 H 2156.77 0.608155 3.8371 0
M  V30 23337 H 2158.44 3.17192 3.34943 0
M  V30 23338 H 2156.68 3.03284 3.10163 0
M  V30 23339 H 2157.35 2.8531 4.72549 0
M  V30 23340 H 2159.83 1.05839 4.02414 0
M  V30 23341 H 2158.71 0.962088 5.40403 0
M  V30 23342 H 2158.97 -0.453741 4.39765 0
M  V30 23343 N 2158.03 -1.37449 0.771075 0
M  V30 23344 C 2158.99 -2.28619 0.163149 0
M  V30 23345 C 2159.99 -1.47996 -0.628787 0
M  V30 23346 O 2161.18 -1.68221 -0.452475 0
M  V30 23347 C 2158.31 -3.31942 -0.776372 0
M  V30 23348 H 2159.5 -2.83888 0.966816 0
M  V30 23349 H 2157.06 -1.46703 0.53924 0
M  V30 23350 H 2157.79 -2.81794 -1.60507 0
M  V30 23351 H 2157.58 -3.91534 -0.210683 0
M  V30 23352 H 2159.07 -4.00072 -1.19717 0
M  V30 23353 N 2159.5 -0.52156 -1.4872 0
M  V30 23354 C 2160.75 0.0156187 -2.02794 0
M  V30 23355 C 2161.08 1.34729 -1.39863 0
M  V30 23356 O 2160.36 1.86812 -0.541426 0
M  V30 23357 C 2160.64 0.146526 -3.59802 0
M  V30 23358 C 2160.49 -1.20972 -4.33227 0
M  V30 23359 C 2161.81 0.87737 -4.31266 0
M  V30 23360 H 2158.93 0.00420207 -0.736988 0
M  V30 23361 H 2161.57 -0.676958 -1.77531 0
M  V30 23362 H 2159.72 0.736393 -3.81457 0
M  V30 23363 H 2161.4 -1.84005 -4.23013 0
M  V30 23364 H 2159.64 -1.79378 -3.94976 0
M  V30 23365 H 2160.31 -1.07121 -5.41506 0
M  V30 23366 H 2162.79 0.376892 -4.1439 0
M  V30 23367 H 2161.66 0.937846 -5.40829 0
M  V30 23368 H 2161.92 1.92578 -3.97953 0
M  V30 23369 N 2160.98 1.55502 -0.256304 0
M  V30 23370 C 2162.23 1.98345 0.366351 0
M  V30 23371 C 2162.54 1.14786 1.58378 0
M  V30 23372 O 2163.75 1.47686 2.27818 0
M  V30 23373 C 2162.21 3.52964 0.703174 0
M  V30 23374 C 2161.81 4.45275 -0.493386 0
M  V30 23375 C 2163.56 4.04441 1.2895 0
M  V30 23376 C 2161.47 5.91252 -0.132195 0
M  V30 23377 H 2160.4 0.740764 0.140656 0
M  V30 23378 H 2163.05 1.79974 -0.358 0
M  V30 23379 H 2161.43 3.67065 1.48591 0
M  V30 23380 H 2162.6 4.42936 -1.27059 0
M  V30 23381 H 2160.92 4.04331 -0.995272 0
M  V30 23382 H 2163.51 5.11032 1.57322 0
M  V30 23383 H 2163.86 3.52348 2.21713 0
M  V30 23384 H 2164.39 3.93703 0.569458 0
M  V30 23385 H 2161.13 6.47401 -1.02721 0
M  V30 23386 H 2160.65 5.96704 0.608619 0
M  V30 23387 H 2162.33 6.46384 0.282295 0
M  V30 23388 N 2162.46 -0.0166879 1.57591 0
M  V30 23389 C 2163.39 -1.04687 2.02771 0
M  V30 23390 C 2164.37 -1.34455 0.914357 0
M  V30 23391 O 2165.56 -1.46903 1.18118 0
M  V30 23392 C 2162.68 -2.37861 2.41122 0
M  V30 23393 C 2161.73 -2.23867 3.63023 0
M  V30 23394 S 2162.56 -1.58041 5.11648 0
M  V30 23395 C 2163.72 -2.92679 5.53254 0
M  V30 23396 H 2163.95 -0.662104 2.89834 0
M  V30 23397 H 2161.48 -0.227051 1.52721 0
M  V30 23398 H 2163.44 -3.14441 2.63888 0
M  V30 23399 H 2162.1 -2.73481 1.54488 0
M  V30 23400 H 2161.3 -3.22208 3.87554 0
M  V30 23401 H 2160.9 -1.5543 3.40173 0
M  V30 23402 H 2163.19 -3.89 5.54694 0
M  V30 23403 H 2164.13 -2.72868 6.53413 0
M  V30 23404 H 2164.54 -2.95821 4.80781 0
M  V30 23405 N 2163.94 -1.54924 -0.289176 0
M  V30 23406 C 2165.22 -1.65459 -1.04319 0
M  V30 23407 C 2165.6 -0.510528 -2.04834 0
M  V30 23408 O 2164.94 0.491374 -2.23154 0
M  V30 23409 C 2165.15 -3.03984 -1.71449 0
M  V30 23410 C 2166.5 -3.61196 -2.2321 0
M  V30 23411 O 2167.53 -3.06513 -1.81462 0
M  V30 23412 O 2166.38 -4.56967 -2.99739 0
M  V30 23413 H 2163.48 -0.671376 -0.482891 0
M  V30 23414 H 2166.02 -1.67267 -0.286321 0
M  V30 23415 H 2164.8 -3.78693 -0.985267 0
M  V30 23416 H 2164.42 -3.06005 -2.53863 0
M  V30 23417 N 2165.42 0.552936 -1.47582 0
M  V30 23418 C 2166.36 1.68064 -1.60802 0
M  V30 23419 C 2167.36 1.62599 -0.475175 0
M  V30 23420 O 2168.56 1.67733 -0.653122 0
M  V30 23421 H 2164.94 0.556179 -0.506131 0
M  V30 23422 H 2166.91 1.54051 -2.5556 0
M  V30 23423 C 2165.66 3.06407 -1.64348 0
M  V30 23424 H 2164.98 3.11295 -2.50869 0
M  V30 23425 H 2166.42 3.8499 -1.77647 0
M  V30 23426 C 2164.88 3.34777 -0.377611 0
M  V30 23427 O 2165.41 3.98327 0.519466 0
M  V30 23428 N 2163.62 2.89467 -0.256324 0
M  V30 23429 H 2163.16 2.3793 -0.98727 0
M  V30 23430 H 2163.12 3.0882 0.589696 0
M  V30 23431 N 2166.89 1.35785 0.800009 0
M  V30 23432 C 2168.14 1.29425 1.55741 0
M  V30 23433 C 2168.47 -0.129487 1.94068 0
M  V30 23434 O 2167.72 -1.09631 1.6211 0
M  V30 23435 C 2168.02 2.15261 2.85302 0
M  V30 23436 C 2167.69 3.63962 2.66162 0
M  V30 23437 C 2166.35 4.04493 2.60651 0
M  V30 23438 C 2168.7 4.58288 2.48238 0
M  V30 23439 C 2166.03 5.37507 2.35166 0
M  V30 23440 C 2168.38 5.91507 2.24281 0
M  V30 23441 C 2167.05 6.31175 2.17195 0
M  V30 23442 H 2166.32 0.473601 0.569898 0
M  V30 23443 H 2168.96 1.67742 0.923842 0
M  V30 23444 H 2167.27 1.69846 3.53071 0
M  V30 23445 H 2168.97 2.07672 3.43036 0
M  V30 23446 H 2165.56 3.31802 2.71303 0
M  V30 23447 H 2169.74 4.27854 2.51504 0
M  V30 23448 H 2165 5.67235 2.28154 0
M  V30 23449 H 2169.17 6.64171 2.09403 0
M  V30 23450 H 2166.8 7.34175 1.9721 0
M  V30 23451 N 2168.37 -1.02294 1.19891 0
M  V30 23452 C 2169.65 -1.72912 0.914382 0
M  V30 23453 C 2170.03 -2.0302 -0.57845 0
M  V30 23454 O 2169.38 -1.68961 -1.53833 0
M  V30 23455 C 2169.59 -3.00157 1.78064 0
M  V30 23456 C 2170.94 -3.73547 2.0186 0
M  V30 23457 O 2171.96 -3.10098 1.75265 0
M  V30 23458 O 2170.82 -4.87629 2.46738 0
M  V30 23459 H 2167.91 -0.753281 0.341315 0
M  V30 23460 H 2170.46 -1.08199 1.30733 0
M  V30 23461 H 2169.23 -2.7418 2.79179 0
M  V30 23462 H 2168.85 -3.7261 1.38736 0
M  V30 23463 N 2169.85 -1.00378 -1.21499 0
M  V30 23464 C 2171.08 -0.703551 -1.94252 0
M  V30 23465 C 2171.49 0.73767 -1.74227 0
M  V30 23466 O 2170.83 1.51064 -1.04525 0
M  V30 23467 C 2170.89 -0.94326 -3.46905 0
M  V30 23468 C 2170.56 -2.37108 -3.90677 0
M  V30 23469 C 2171.55 -3.35123 -3.97478 0
M  V30 23470 C 2169.24 -2.70841 -4.23025 0
M  V30 23471 C 2171.23 -4.64939 -4.36017 0
M  V30 23472 C 2168.92 -4.00873 -4.61242 0
M  V30 23473 C 2169.92 -4.97734 -4.67708 0
M  V30 23474 O 2169.61 -6.25441 -5.05054 0
M  V30 23475 H 2169.34 -0.258563 -0.624597 0
M  V30 23476 H 2171.89 -1.34429 -1.55299 0
M  V30 23477 H 2170.12 -0.245347 -3.85921 0
M  V30 23478 H 2171.81 -0.636609 -4.00877 0
M  V30 23479 H 2172.58 -3.10397 -3.72665 0
M  V30 23480 H 2168.46 -1.96145 -4.17191 0
M  V30 23481 H 2172 -5.4054 -4.40978 0
M  V30 23482 H 2167.9 -4.25385 -4.85508 0
M  V30 23483 H 2168.67 -6.29538 -5.23091 0
M  V30 23484 N 2171.33 1.37038 -0.778354 0
M  V30 23485 C 2172.26 2.3278 -0.183215 0
M  V30 23486 C 2173.24 1.56107 0.675623 0
M  V30 23487 O 2174.42 1.84314 0.611726 0
M  V30 23488 C 2171.55 3.40346 0.691526 0
M  V30 23489 C 2170.51 4.27948 -0.0665313 0
M  V30 23490 C 2169.83 5.26584 0.928085 0
M  V30 23491 C 2171.13 5.07137 -1.24936 0
M  V30 23492 H 2172.83 2.82801 -0.983049 0
M  V30 23493 H 2170.37 1.35969 -0.474169 0
M  V30 23494 H 2172.33 4.06306 1.11773 0
M  V30 23495 H 2171.05 2.88866 1.52395 0
M  V30 23496 H 2169.71 3.63528 -0.473586 0
M  V30 23497 H 2169.36 4.71381 1.75524 0
M  V30 23498 H 2169.06 5.86058 0.425371 0
M  V30 23499 H 2170.58 5.95419 1.35309 0
M  V30 23500 H 2172 5.662 -0.899476 0
M  V30 23501 H 2170.39 5.7597 -1.68461 0
M  V30 23502 H 2171.46 4.39425 -2.05021 0
M  V30 23503 N 2172.81 0.529439 1.48441 0
M  V30 23504 C 2174.04 -0.000824174 2.069 0
M  V30 23505 C 2174.45 -1.28195 1.38605 0
M  V30 23506 O 2173.81 -1.76253 0.4734 0
M  V30 23507 C 2173.86 -0.229032 3.60774 0
M  V30 23508 O 2173.58 1.00134 4.26503 0
M  V30 23509 C 2175.08 -0.799736 4.36027 0
M  V30 23510 H 2172.3 0.0332691 0.670175 0
M  V30 23511 H 2174.84 0.734929 1.90838 0
M  V30 23512 H 2173 -0.914832 3.76443 0
M  V30 23513 H 2173.41 0.781737 5.18642 0
M  V30 23514 H 2174.89 -0.908842 5.44467 0
M  V30 23515 H 2175.36 -1.8045 4.00418 0
M  V30 23516 H 2175.97 -0.150518 4.25034 0
M  V30 23517 N 2174.29 -1.55364 0.264547 0
M  V30 23518 C 2175.7 -1.59347 -0.0898743 0
M  V30 23519 C 2175.9 -1.28177 -1.55476 0
M  V30 23520 O 2174.96 -1.03755 -2.30198 0
M  V30 23521 C 2176.27 -2.99438 0.27523 0
M  V30 23522 C 2177.82 -3.12219 0.220976 0
M  V30 23523 C 2178.29 -4.54559 0.560366 0
M  V30 23524 N 2179.78 -4.60367 0.511522 0
M  V30 23525 C 2180.52 -5.68513 0.747063 0
M  V30 23526 N 2180.02 -6.84848 1.04666 0
M  V30 23527 N 2181.81 -5.58013 0.676574 0
M  V30 23528 H 2173.96 -1.73891 1.21966 0
M  V30 23529 H 2176.22 -0.810337 0.491994 0
M  V30 23530 H 2175.93 -3.27046 1.2936 0
M  V30 23531 H 2175.8 -3.75188 -0.389113 0
M  V30 23532 H 2178.19 -2.84382 -0.788097 0
M  V30 23533 H 2178.27 -2.38705 0.919424 0
M  V30 23534 H 2177.91 -4.8312 1.56708 0
M  V30 23535 H 2177.84 -5.26358 -0.159757 0
M  V30 23536 H 2180.34 -3.7679 0.289407 0
M  V30 23537 H 2180.65 -7.63216 1.21334 0
M  V30 23538 H 2178.99 -6.86489 1.08433 0
M  V30 23539 H 2182.18 -4.66004 0.442433 0
M  V30 23540 H 2182.36 -6.42221 0.863527 0
M  V30 23541 N 2175.76 0.00833021 -1.57598 0
M  V30 23542 C 2177.04 0.731485 -1.81407 0
M  V30 23543 C 2177.42 1.9245 -0.867544 0
M  V30 23544 O 2176.77 2.28339 0.0856431 0
M  V30 23545 C 2176.98 1.14505 -3.29681 0
M  V30 23546 C 2178.33 1.55237 -3.95205 0
M  V30 23547 O 2179.35 1.23907 -3.33954 0
M  V30 23548 O 2178.21 2.13464 -5.03086 0
M  V30 23549 H 2175.3 0.355455 -0.746713 0
M  V30 23550 H 2177.85 -0.0164849 -1.69692 0
M  V30 23551 H 2176.62 0.294315 -3.90192 0
M  V30 23552 H 2176.24 1.95238 -3.46364 0
M  V30 23553 N 2177.24 1.55075 0.280956 0
M  V30 23554 C 2178.49 1.76491 1.01106 0
M  V30 23555 C 2178.84 0.554903 1.84224 0
M  V30 23556 O 2178.14 -0.452521 1.86179 0
M  V30 23557 C 2178.33 3.00658 1.93234 0
M  V30 23558 C 2178.16 4.33619 1.19182 0
M  V30 23559 C 2176.93 4.97025 0.910747 0
M  V30 23560 C 2179.13 5.10948 0.586205 0
M  V30 23561 N 2177.11 6.13734 0.142592 0
M  V30 23562 C 2178.48 6.19981 -0.0481775 0
M  V30 23563 C 2180.53 4.95451 0.493253 0
M  V30 23564 C 2179.24 7.15204 -0.766543 0
M  V30 23565 C 2181.26 5.91022 -0.211502 0
M  V30 23566 C 2180.63 6.99438 -0.834655 0
M  V30 23567 H 2176.72 0.698185 0.352224 0
M  V30 23568 H 2179.31 1.92565 0.287547 0
M  V30 23569 H 2177.48 2.85974 2.62818 0
M  V30 23570 H 2179.21 3.10512 2.59546 0
M  V30 23571 H 2175.97 4.57776 1.21401 0
M  V30 23572 H 2176.39 6.76614 -0.228584 0
M  V30 23573 H 2181.03 4.1174 0.960716 0
M  V30 23574 H 2178.75 7.98441 -1.24571 0
M  V30 23575 H 2182.34 5.81108 -0.283635 0
M  V30 23576 H 2181.22 7.72117 -1.37131 0
M  V30 23577 N 2178.72 -0.545102 1.47873 0
M  V30 23578 C 2179.94 -1.33162 1.59005 0
M  V30 23579 C 2180.37 -1.86498 0.245004 0
M  V30 23580 O 2179.73 -1.63614 -0.781037 0
M  V30 23581 C 2179.78 -2.46898 2.62819 0
M  V30 23582 O 2178.88 -3.49491 2.1893 0
M  V30 23583 H 2178.22 -0.395031 0.53371 0
M  V30 23584 H 2180.75 -0.657518 1.93747 0
M  V30 23585 H 2180.76 -2.93298 2.8362 0
M  V30 23586 H 2179.44 -2.07436 3.60476 0
M  V30 23587 H 2178.01 -3.09312 2.08279 0
M  V30 23588 N 2180.2 -1.36208 -0.792797 0
M  V30 23589 C 2181.45 -1.2958 -1.5457 0
M  V30 23590 C 2181.76 0.123772 -1.95208 0
M  V30 23591 O 2182.97 0.312401 -2.69697 0
M  V30 23592 C 2181.42 -2.27331 -2.79014 0
M  V30 23593 C 2181.03 -3.74707 -2.45558 0
M  V30 23594 C 2182.77 -2.29674 -3.57002 0
M  V30 23595 C 2180.68 -4.64243 -3.66377 0
M  V30 23596 H 2179.61 -0.481506 -0.580231 0
M  V30 23597 H 2182.26 -1.61551 -0.870256 0
M  V30 23598 H 2180.64 -1.88349 -3.4834 0
M  V30 23599 H 2181.82 -4.22404 -1.84151 0
M  V30 23600 H 2180.13 -3.75106 -1.80788 0
M  V30 23601 H 2182.73 -2.93779 -4.46764 0
M  V30 23602 H 2183.07 -1.30432 -3.95339 0
M  V30 23603 H 2183.61 -2.67255 -2.94652 0
M  V30 23604 H 2180.34 -5.64534 -3.33138 0
M  V30 23605 H 2179.86 -4.21264 -4.26963 0
M  V30 23606 H 2181.54 -4.80348 -4.33446 0
M  V30 23607 N 2181.68 1.01656 -1.20431 0
M  V30 23608 C 2182.61 2.12074 -0.977076 0
M  V30 23609 C 2183.59 1.6984 0.0939563 0
M  V30 23610 O 2184.77 1.94096 -0.0635618 0
M  V30 23611 C 2181.9 3.43257 -0.528392 0
M  V30 23612 C 2180.86 3.99231 -1.54267 0
M  V30 23613 C 2180.18 5.26182 -0.950621 0
M  V30 23614 C 2181.48 4.32619 -2.92639 0
M  V30 23615 H 2183.18 2.31342 -1.90056 0
M  V30 23616 H 2180.72 1.11175 -0.915209 0
M  V30 23617 H 2182.67 4.19888 -0.35665 0
M  V30 23618 H 2181.4 3.23747 0.430716 0
M  V30 23619 H 2180.06 3.24708 -1.70177 0
M  V30 23620 H 2179.71 5.02997 0.0164182 0
M  V30 23621 H 2179.41 5.64597 -1.62802 0
M  V30 23622 H 2180.93 6.05469 -0.789947 0
M  V30 23623 H 2182.34 5.00138 -2.8024 0
M  V30 23624 H 2180.74 4.82148 -3.57286 0
M  V30 23625 H 2181.81 3.41386 -3.4436 0
M  V30 23626 N 2183.15 1.01021 1.20965 0
M  V30 23627 C 2184.4 0.6945 1.89792 0
M  V30 23628 C 2184.72 -0.77766 1.78822 0
M  V30 23629 O 2183.99 -1.55883 1.18648 0
M  V30 23630 H 2182.57 0.253892 0.702529 0
M  V30 23631 H 2185.23 1.28043 1.46938 0
M  V30 23632 H 2184.33 0.972254 2.9657 0
M  V30 23633 N 2184.63 -1.36623 0.78561 0
M  V30 23634 C 2186.04 -1.81917 0.419903 0
M  V30 23635 C 2186.39 -1.65376 -1.0557 0
M  V30 23636 O 2185.52 -1.17258 -1.81878 0
M  V30 23637 C 2186.11 -3.30272 0.755384 0
M  V30 23638 C 2184.67 -3.73789 0.442556 0
M  V30 23639 C 2183.82 -2.58948 0.992018 0
M  V30 23640 H 2186.77 -1.24899 0.979084 0
M  V30 23641 H 2186.79 -3.80473 0.0450829 0
M  V30 23642 H 2186.3 -3.42278 1.8294 0
M  V30 23643 H 2184.4 -3.67345 -0.623584 0
M  V30 23644 H 2184.52 -4.69373 0.960503 0
M  V30 23645 H 2182.88 -2.51289 0.415458 0
M  V30 23646 H 2183.66 -2.73742 2.07172 0
M  V30 23647 N 2186.11 -0.537304 -1.48158 0
M  V30 23648 C 2187.06 0.241443 -2.26718 0
M  V30 23649 C 2188.04 0.903317 -1.3315 0
M  V30 23650 O 2189.24 0.804913 -1.57639 0
M  V30 23651 C 2186.36 1.28323 -3.18415 0
M  V30 23652 C 2185.45 0.625778 -4.19458 0
M  V30 23653 N 2185.84 -0.292719 -5.04952 0
M  V30 23654 C 2184.14 0.882109 -4.3719 0
M  V30 23655 C 2184.84 -0.67271 -5.77797 0
M  V30 23656 N 2183.82 -0.032099 -5.43591 0
M  V30 23657 H 2187.62 -0.465059 -2.90197 0
M  V30 23658 H 2185.13 -0.355839 -1.58454 0
M  V30 23659 H 2187.13 1.85491 -3.73361 0
M  V30 23660 H 2185.79 1.99103 -2.56492 0
M  V30 23661 H 2186.8 -0.665751 -5.13603 0
M  V30 23662 H 2183.48 1.57993 -3.86451 0
M  V30 23663 H 2184.87 -1.42629 -6.56587 0
M  V30 23664 N 2187.59 1.55221 -0.272782 0
M  V30 23665 C 2188.54 2.19118 0.630176 0
M  V30 23666 C 2189.52 1.15507 1.12013 0
M  V30 23667 O 2190.71 1.4133 1.06559 0
M  V30 23668 C 2187.84 2.91401 1.81494 0
M  V30 23669 C 2186.93 4.02298 1.34228 0
M  V30 23670 N 2187.32 5.02399 0.585608 0
M  V30 23671 C 2185.62 4.15326 1.62543 0
M  V30 23672 C 2186.32 5.80721 0.337422 0
M  V30 23673 N 2185.3 5.35943 0.909166 0
M  V30 23674 H 2189.1 2.93867 0.0441972 0
M  V30 23675 H 2186.61 1.62221 -0.076237 0
M  V30 23676 H 2188.61 3.35625 2.47309 0
M  V30 23677 H 2187.27 2.18163 2.40489 0
M  V30 23678 H 2188.28 5.17375 0.233177 0
M  V30 23679 H 2184.96 3.53276 2.22491 0
M  V30 23680 H 2186.35 6.71364 -0.268428 0
M  V30 23681 N 2189.07 2.77022e-05 1.576 0
M  V30 23682 C 2190 -0.990304 2.1146 0
M  V30 23683 C 2190.98 -1.35844 1.02374 0
M  V30 23684 O 2192.16 -1.44218 1.30057 0
M  V30 23685 C 2189.29 -2.28215 2.61792 0
M  V30 23686 C 2188.25 -2.05563 3.75404 0
M  V30 23687 C 2187.57 -3.40761 4.12051 0
M  V30 23688 C 2188.87 -1.4182 5.02677 0
M  V30 23689 H 2190.57 -0.541853 2.94456 0
M  V30 23690 H 2188.11 -0.259194 1.41648 0
M  V30 23691 H 2190.07 -2.97851 2.98099 0
M  V30 23692 H 2188.79 -2.75174 1.75918 0
M  V30 23693 H 2187.45 -1.38353 3.39491 0
M  V30 23694 H 2187.1 -3.85423 3.232 0
M  V30 23695 H 2186.8 -3.26421 4.88593 0
M  V30 23696 H 2188.32 -4.11712 4.50916 0
M  V30 23697 H 2189.73 -2.01413 5.36755 0
M  V30 23698 H 2188.13 -1.37967 5.84025 0
M  V30 23699 H 2189.2 -0.387421 4.8335 0
M  V30 23700 N 2190.54 -1.55222 -0.272728 0
M  V30 23701 C 2191.82 -1.66557 -1.02559 0
M  V30 23702 C 2192.2 -0.532225 -2.04281 0
M  V30 23703 O 2191.55 0.467678 -2.23663 0
M  V30 23704 C 2191.76 -3.05785 -1.68215 0
M  V30 23705 C 2193.11 -3.63543 -2.19367 0
M  V30 23706 O 2194.13 -3.0842 -1.78201 0
M  V30 23707 O 2192.99 -4.60121 -2.94875 0
M  V30 23708 H 2190.08 -0.67646 -0.475743 0
M  V30 23709 H 2192.63 -1.67561 -0.268564 0
M  V30 23710 H 2191.4 -3.79716 -0.945046 0
M  V30 23711 H 2191.03 -3.08681 -2.50603 0
M  V30 23712 N 2192.02 0.537252 -1.4816 0
M  V30 23713 C 2192.93 1.66957 -1.6481 0
M  V30 23714 C 2193.95 1.6571 -0.53068 0
M  V30 23715 O 2195.12 1.84794 -0.800816 0
M  V30 23716 C 2192.19 3.03435 -1.67714 0
M  V30 23717 C 2191.25 3.15595 -2.9103 0
M  V30 23718 C 2190.48 4.45562 -2.93786 0
M  V30 23719 O 2190.71 5.32226 -2.05162 0
M  V30 23720 O 2189.64 4.61934 -3.85876 0
M  V30 23721 H 2193.47 1.55849 -2.60662 0
M  V30 23722 H 2191.05 0.709526 -1.31477 0
M  V30 23723 H 2192.93 3.84616 -1.72187 0
M  V30 23724 H 2191.61 3.14884 -0.750333 0
M  V30 23725 H 2190.52 2.33736 -2.92093 0
M  V30 23726 H 2191.85 3.09059 -3.83071 0
M  V30 23727 N 2193.5 1.36626 0.785562 0
M  V30 23728 C 2194.75 1.3107 1.5436 0
M  V30 23729 C 2195.08 -0.108896 1.94195 0
M  V30 23730 O 2194.33 -1.07905 1.63264 0
M  V30 23731 C 2194.63 2.18275 2.83003 0
M  V30 23732 C 2194.3 3.66765 2.62287 0
M  V30 23733 C 2192.96 4.07235 2.56346 0
M  V30 23734 C 2195.31 4.60895 2.43363 0
M  V30 23735 C 2192.64 5.39971 2.29451 0
M  V30 23736 C 2194.99 5.93853 2.17994 0
M  V30 23737 C 2193.65 6.33444 2.10489 0
M  V30 23738 H 2192.92 0.479619 0.564842 0
M  V30 23739 H 2195.57 1.68713 0.905999 0
M  V30 23740 H 2193.88 1.73582 3.5125 0
M  V30 23741 H 2195.57 2.11298 3.40814 0
M  V30 23742 H 2192.16 3.34661 2.67769 0
M  V30 23743 H 2196.35 4.30498 2.46952 0
M  V30 23744 H 2191.6 5.69623 2.22125 0
M  V30 23745 H 2195.78 6.66355 2.02347 0
M  V30 23746 H 2193.4 7.36225 1.89412 0
M  V30 23747 N 2194.98 -1.01016 1.20969 0
M  V30 23748 C 2195.93 -2.09689 0.964317 0
M  V30 23749 C 2196.9 -1.6575 -0.107824 0
M  V30 23750 O 2198.08 -1.90762 0.0382323 0
M  V30 23751 C 2195.22 -3.41014 0.52949 0
M  V30 23752 C 2194.33 -3.98395 1.6705 0
M  V30 23753 C 2193.47 -5.17806 1.18534 0
M  V30 23754 C 2192.51 -5.67284 2.29902 0
M  V30 23755 N 2191.64 -6.77951 1.82558 0
M  V30 23756 H 2196.48 -2.30013 1.89467 0
M  V30 23757 H 2194.02 -1.12788 0.944309 0
M  V30 23758 H 2195.98 -4.16397 0.258662 0
M  V30 23759 H 2194.61 -3.20743 -0.363862 0
M  V30 23760 H 2193.66 -3.20046 2.05609 0
M  V30 23761 H 2194.97 -4.31113 2.50885 0
M  V30 23762 H 2194.13 -6.00417 0.870867 0
M  V30 23763 H 2192.87 -4.86669 0.316973 0
M  V30 23764 H 2191.87 -4.83273 2.62158 0
M  V30 23765 H 2193.1 -6.00453 3.17226 0
M  V30 23766 H 2191.04 -6.4863 0.980568 0
M  V30 23767 H 2190.96 -7.09896 2.59969 0
M  V30 23768 H 2192.23 -7.6411 1.54129 0
M  V30 23769 N 2196.46 -1.01661 -1.20428 0
M  V30 23770 C 2197.87 -0.731467 -1.41851 0
M  V30 23771 C 2198.07 0.688865 -1.89359 0
M  V30 23772 O 2197.13 1.45662 -2.06249 0
M  V30 23773 C 2198.44 -1.75718 -2.44016 0
M  V30 23774 C 2199.99 -1.77532 -2.57782 0
M  V30 23775 C 2200.46 -2.7903 -3.63189 0
M  V30 23776 N 2201.96 -2.7777 -3.70673 0
M  V30 23777 C 2202.69 -3.52962 -4.51891 0
M  V30 23778 N 2202.19 -4.3783 -5.36914 0
M  V30 23779 N 2203.98 -3.41559 -4.46424 0
M  V30 23780 H 2196.13 -1.93355 -0.879059 0
M  V30 23781 H 2198.39 -0.835244 -0.448411 0
M  V30 23782 H 2198.1 -2.77473 -2.16105 0
M  V30 23783 H 2197.97 -1.56933 -3.43004 0
M  V30 23784 H 2200.36 -0.764619 -2.85022 0
M  V30 23785 H 2200.44 -2.0039 -1.58989 0
M  V30 23786 H 2200.09 -3.80264 -3.36693 0
M  V30 23787 H 2200.02 -2.53433 -4.61605 0
M  V30 23788 H 2202.51 -2.16206 -3.09941 0
M  V30 23789 H 2202.82 -4.91973 -5.95972 0
M  V30 23790 H 2201.16 -4.41908 -5.36416 0
M  V30 23791 H 2204.36 -2.74679 -3.79037 0
M  V30 23792 H 2204.53 -4.00413 -5.09484 0
M  V30 23793 N 2197.93 1.36205 -0.792844 0
M  V30 23794 C 2199.18 1.984 -0.363388 0
M  V30 23795 C 2199.5 1.63628 1.07169 0
M  V30 23796 O 2200.7 2.19083 1.60358 0
M  V30 23797 C 2199.16 3.54884 -0.598782 0
M  V30 23798 C 2198.77 3.98577 -2.0455 0
M  V30 23799 C 2200.51 4.23855 -0.234001 0
M  V30 23800 C 2198.42 5.47852 -2.22737 0
M  V30 23801 H 2197.35 0.742332 -0.132133 0
M  V30 23802 H 2200 1.55457 -0.974963 0
M  V30 23803 H 2198.38 3.95914 0.0825526 0
M  V30 23804 H 2199.55 3.68737 -2.76351 0
M  V30 23805 H 2197.87 3.42454 -2.36885 0
M  V30 23806 H 2200.47 5.33566 -0.348121 0
M  V30 23807 H 2200.81 4.08179 0.818279 0
M  V30 23808 H 2201.34 3.88199 -0.868707 0
M  V30 23809 H 2198.08 5.6848 -3.2636 0
M  V30 23810 H 2197.6 5.79308 -1.55444 0
M  V30 23811 H 2199.28 6.14124 -2.03618 0
M  V30 23812 N 2199.41 0.545154 1.47871 0
M  V30 23813 C 2200.66 0.0248308 2.03385 0
M  V30 23814 C 2201.01 -1.30554 1.41328 0
M  V30 23815 O 2200.31 -1.83379 0.555232 0
M  V30 23816 C 2200.5 -0.138607 3.57131 0
M  V30 23817 C 2200.33 1.17437 4.34095 0
M  V30 23818 C 2199.1 1.7384 4.74455 0
M  V30 23819 C 2201.3 2.08869 4.69977 0
M  V30 23820 N 2199.28 2.99268 5.36015 0
M  V30 23821 C 2200.65 3.18875 5.31713 0
M  V30 23822 C 2202.71 2.09011 4.51906 0
M  V30 23823 C 2201.41 4.29106 5.77287 0
M  V30 23824 C 2203.43 3.18246 4.98471 0
M  V30 23825 C 2202.8 4.26971 5.60246 0
M  V30 23826 H 2198.9 0.0509567 0.780338 0
M  V30 23827 H 2201.48 0.729785 1.80505 0
M  V30 23828 H 2199.65 -0.812666 3.79803 0
M  V30 23829 H 2201.38 -0.659906 3.99284 0
M  V30 23830 H 2198.14 1.27788 4.56034 0
M  V30 23831 H 2198.56 3.63167 5.71348 0
M  V30 23832 H 2203.2 1.26241 4.03513 0
M  V30 23833 H 2200.92 5.12644 6.24678 0
M  V30 23834 H 2204.51 3.19428 4.86268 0
M  V30 23835 H 2203.39 5.10102 5.95622 0
M  V30 23836 N 2200.89 -1.55074 0.28101 0
M  V30 23837 C 2202.12 -2.04592 -0.340118 0
M  V30 23838 C 2202.54 -1.15782 -1.48244 0
M  V30 23839 O 2201.9 -0.157642 -1.80613 0
M  V30 23840 C 2201.95 -3.51772 -0.793042 0
M  V30 23841 O 2201.05 -3.66037 -1.89975 0
M  V30 23842 H 2200.39 -0.660361 -0.0694173 0
M  V30 23843 H 2202.92 -2.00305 0.417028 0
M  V30 23844 H 2202.93 -3.93247 -1.08722 0
M  V30 23845 H 2201.61 -4.15878 0.0426894 0
M  V30 23846 H 2200.18 -3.36465 -1.60765 0
M  V30 23847 N 2202.37 -0.00838561 -1.57598 0
M  V30 23848 C 2203.28 0.99645 -2.12387 0
M  V30 23849 C 2204.3 1.37125 -1.0711 0
M  V30 23850 O 2205.47 1.45688 -1.39058 0
M  V30 23851 C 2202.54 2.26694 -2.62318 0
M  V30 23852 C 2201.6 1.95449 -3.82228 0
M  V30 23853 C 2200.83 3.16441 -4.29768 0
M  V30 23854 O 2201.05 4.2841 -3.76592 0
M  V30 23855 O 2199.99 2.99949 -5.21837 0
M  V30 23856 H 2203.81 0.560673 -2.9848 0
M  V30 23857 H 2201.4 0.210961 -1.47903 0
M  V30 23858 H 2203.28 3.01317 -2.94594 0
M  V30 23859 H 2201.96 2.69494 -1.79318 0
M  V30 23860 H 2200.86 1.18275 -3.54911 0
M  V30 23861 H 2202.2 1.57481 -4.66327 0
M  V30 23862 N 2203.85 1.55365 0.264492 0
M  V30 23863 C 2205.08 1.80145 1.0115 0
M  V30 23864 C 2205.49 0.579285 1.80114 0
M  V30 23865 O 2204.83 -0.461288 1.77814 0
M  V30 23866 C 2204.89 2.97997 2.01093 0
M  V30 23867 C 2204.55 4.34709 1.40988 0
M  V30 23868 C 2205.55 5.13373 0.821226 0
M  V30 23869 C 2203.24 4.8138 1.43452 0
M  V30 23870 C 2205.23 6.36848 0.265227 0
M  V30 23871 C 2202.92 6.04808 0.874665 0
M  V30 23872 C 2203.92 6.8238 0.291026 0
M  V30 23873 O 2203.6 8.03479 -0.260235 0
M  V30 23874 H 2203.34 0.603731 0.304114 0
M  V30 23875 H 2205.89 2.03226 0.298053 0
M  V30 23876 H 2204.12 2.70628 2.7622 0
M  V30 23877 H 2205.81 3.10025 2.61991 0
M  V30 23878 H 2206.57 4.78443 0.794819 0
M  V30 23879 H 2202.45 4.21005 1.87819 0
M  V30 23880 H 2206 6.97339 -0.190959 0
M  V30 23881 H 2201.89 6.39218 0.89834 0
M  V30 23882 H 2202.66 8.18362 -0.150409 0
M  V30 23883 N 2205.33 -0.529387 1.48443 0
M  V30 23884 C 2206.6 -1.29059 1.4698 0
M  V30 23885 C 2206.98 -2.10316 0.181806 0
M  V30 23886 O 2206.33 -2.1264 -0.836444 0
M  V30 23887 C 2206.54 -2.17152 2.73214 0
M  V30 23888 C 2207.89 -2.77273 3.21566 0
M  V30 23889 O 2208.91 -2.27439 2.74135 0
M  V30 23890 O 2207.77 -3.67919 4.04101 0
M  V30 23891 H 2204.87 -0.582532 0.587014 0
M  V30 23892 H 2207.41 -0.545993 1.60677 0
M  V30 23893 H 2206.18 -1.56896 3.58468 0
M  V30 23894 H 2205.81 -2.98858 2.6224 0
M  V30 23895 N 2206.8 -1.37041 -0.778305 0
M  V30 23896 C 2208.21 -1.28525 -1.35419 0
M  V30 23897 C 2208.57 0.0700557 -1.96075 0
M  V30 23898 O 2207.69 0.971767 -1.93354 0
M  V30 23899 C 2208.29 -2.32739 -2.46207 0
M  V30 23900 C 2206.84 -2.27878 -2.99581 0
M  V30 23901 C 2205.99 -2.16921 -1.72744 0
M  V30 23902 H 2208.94 -1.47758 -0.579074 0
M  V30 23903 H 2208.96 -1.97026 -3.25517 0
M  V30 23904 H 2208.48 -3.31369 -2.0203 0
M  V30 23905 H 2206.58 -1.32751 -3.48149 0
M  V30 23906 H 2206.69 -3.21025 -3.5564 0
M  V30 23907 H 2205.05 -1.63358 -1.95413 0
M  V30 23908 H 2205.84 -3.17455 -1.30681 0
M  V30 23909 N 2208.28 1.00373 -1.21503 0
M  V30 23910 C 2209.19 2.12619 -0.991484 0
M  V30 23911 C 2210.21 1.73907 0.056814 0
M  V30 23912 O 2211.38 2.00957 -0.133516 0
M  V30 23913 C 2208.45 3.42141 -0.560372 0
M  V30 23914 C 2207.51 3.95019 -1.68103 0
M  V30 23915 C 2206.74 5.1836 -1.27039 0
M  V30 23916 O 2206.97 5.70217 -0.144538 0
M  V30 23917 O 2205.9 5.64715 -2.08279 0
M  V30 23918 H 2209.73 2.34354 -1.93162 0
M  V30 23919 H 2207.31 1.10995 -1.00002 0
M  V30 23920 H 2209.19 4.20107 -0.329798 0
M  V30 23921 H 2207.87 3.21791 0.351033 0
M  V30 23922 H 2206.77 3.18274 -1.96602 0
M  V30 23923 H 2208.11 4.19782 -2.56991 0
M  V30 23924 N 2209.76 1.02298 1.19887 0
M  V30 23925 C 2210.72 0.60339 2.21115 0
M  V30 23926 C 2211.72 -0.329856 1.5738 0
M  V30 23927 O 2212.91 -0.117672 1.73802 0
M  V30 23928 C 2210.04 -0.117932 3.40696 0
M  V30 23929 H 2211.24 1.49898 2.59751 0
M  V30 23930 H 2208.79 0.813491 1.33462 0
M  V30 23931 H 2209.53 -1.02814 3.07571 0
M  V30 23932 H 2209.31 0.552579 3.88187 0
M  V30 23933 H 2210.8 -0.398623 4.15693 0
M  V30 23934 N 2211.24 -1.35782 0.800057 0
M  V30 23935 C 2212.18 -2.29898 0.203888 0
M  V30 23936 C 2213.15 -1.52496 -0.658348 0
M  V30 23937 O 2214.34 -1.80961 -0.6048 0
M  V30 23938 C 2211.48 -3.38984 -0.64682 0
M  V30 23939 C 2210.59 -4.3136 0.23513 0
M  V30 23940 C 2209.73 -5.27534 -0.622961 0
M  V30 23941 C 2208.77 -6.11548 0.25979 0
M  V30 23942 N 2207.9 -6.9988 -0.557896 0
M  V30 23943 H 2212.74 -2.80294 1.01191 0
M  V30 23944 H 2210.28 -1.37956 0.510554 0
M  V30 23945 H 2212.24 -4.00889 -1.15514 0
M  V30 23946 H 2210.87 -2.89881 -1.42016 0
M  V30 23947 H 2209.92 -3.70516 0.861504 0
M  V30 23948 H 2211.23 -4.90339 0.914854 0
M  V30 23949 H 2210.39 -5.94781 -1.19667 0
M  V30 23950 H 2209.13 -4.69036 -1.33628 0
M  V30 23951 H 2208.13 -5.43255 0.845822 0
M  V30 23952 H 2209.36 -6.72124 0.970866 0
M  V30 23953 H 2207.3 -6.43877 -1.2553 0
M  V30 23954 H 2207.22 -7.55973 0.06392 0
M  V30 23955 H 2208.49 -7.71483 -1.11509 0
M  V30 23956 N 2212.72 -0.552988 -1.4758 0
M  V30 23957 C 2213.96 -0.0273058 -2.02082 0
M  V30 23958 C 2214.28 1.32561 -1.43013 0
M  V30 23959 O 2213.55 1.86363 -0.603778 0
M  V30 23960 H 2212.13 -0.00710495 -0.746966 0
M  V30 23961 H 2214.8 -0.72204 -1.81032 0
M  V30 23962 H 2213.89 0.0639403 -3.12034 0
M  V30 23963 N 2214.19 1.54923 -0.28923 0
M  V30 23964 C 2215.61 1.5947 0.0645122 0
M  V30 23965 C 2215.81 1.30635 1.53417 0
M  V30 23966 O 2214.87 1.07404 2.28518 0
M  V30 23967 C 2216.18 2.98962 -0.322833 0
M  V30 23968 C 2217.73 3.11828 -0.270619 0
M  V30 23969 C 2218.2 4.5361 -0.632611 0
M  V30 23970 N 2219.69 4.59495 -0.584698 0
M  V30 23971 C 2220.43 5.67252 -0.837414 0
M  V30 23972 N 2219.92 6.83096 -1.15548 0
M  V30 23973 N 2221.72 5.56866 -0.765264 0
M  V30 23974 H 2213.87 1.71929 -1.24717 0
M  V30 23975 H 2216.13 0.802407 -0.504823 0
M  V30 23976 H 2215.84 3.24946 -1.34547 0
M  V30 23977 H 2215.71 3.75759 0.329374 0
M  V30 23978 H 2218.1 2.856 0.742755 0
M  V30 23979 H 2218.18 2.37212 -0.957284 0
M  V30 23980 H 2217.82 4.80566 -1.64374 0
M  V30 23981 H 2217.75 5.26545 0.0759974 0
M  V30 23982 H 2220.24 3.76282 -0.349314 0
M  V30 23983 H 2220.56 7.61189 -1.33461 0
M  V30 23984 H 2218.9 6.84677 -1.1934 0
M  V30 23985 H 2222.09 4.65242 -0.516514 0
M  V30 23986 H 2222.27 6.40765 -0.96559 0
M  V30 23987 N 2215.67 0.0167433 1.57591 0
M  V30 23988 C 2216.92 -0.663843 1.90463 0
M  V30 23989 C 2217.23 -1.73997 0.893546 0
M  V30 23990 O 2218.44 -2.47635 1.11307 0
M  V30 23991 C 2216.9 -1.23198 3.38157 0
M  V30 23992 C 2216.5 -0.189787 4.47598 0
M  V30 23993 C 2218.25 -1.88979 3.80115 0
M  V30 23994 C 2216.15 -0.768861 5.86381 0
M  V30 23995 H 2215.08 -0.251716 0.710742 0
M  V30 23996 H 2217.74 0.0800249 1.83325 0
M  V30 23997 H 2216.12 -2.02706 3.40186 0
M  V30 23998 H 2217.29 0.581926 4.57111 0
M  V30 23999 H 2215.61 0.368548 4.14766 0
M  V30 24000 H 2218.2 -2.33238 4.81149 0
M  V30 24001 H 2218.55 -2.72737 3.14516 0
M  V30 24002 H 2219.08 -1.1618 3.80456 0
M  V30 24003 H 2215.82 0.030311 6.55493 0
M  V30 24004 H 2215.34 -1.50935 5.80499 0
M  V30 24005 H 2217.02 -1.2624 6.34565 0
M  V30 24006 N 2217.15 -1.55503 -0.256249 0
M  V30 24007 C 2218.1 -1.89528 -1.3171 0
M  V30 24008 C 2219.07 -0.748505 -1.48279 0
M  V30 24009 O 2220.25 -1.00131 -1.62414 0
M  V30 24010 C 2217.39 -2.1873 -2.66929 0
M  V30 24011 C 2216.51 -3.46165 -2.58445 0
M  V30 24012 C 2215.64 -3.64982 -3.85955 0
M  V30 24013 C 2214.68 -4.86051 -3.7205 0
M  V30 24014 N 2213.82 -5.01438 -4.91431 0
M  V30 24015 H 2218.66 -2.80003 -1.01993 0
M  V30 24016 H 2216.19 -1.38614 -0.492389 0
M  V30 24017 H 2218.15 -2.33663 -3.45626 0
M  V30 24018 H 2216.78 -1.31471 -2.94814 0
M  V30 24019 H 2215.83 -3.39613 -1.71368 0
M  V30 24020 H 2217.15 -4.35003 -2.44077 0
M  V30 24021 H 2216.3 -3.79824 -4.73095 0
M  V30 24022 H 2215.04 -2.7436 -4.0321 0
M  V30 24023 H 2214.04 -4.71195 -2.83294 0
M  V30 24024 H 2215.27 -5.78125 -3.56299 0
M  V30 24025 H 2213.21 -4.1375 -5.09065 0
M  V30 24026 H 2213.13 -5.8435 -4.79658 0
M  V30 24027 H 2214.4 -5.20682 -5.80095 0
M  V30 24028 N 2218.63 0.521507 -1.48721 0
M  V30 24029 C 2219.58 1.62163 -1.60272 0
M  V30 24030 C 2220.56 1.54203 -0.459377 0
M  V30 24031 O 2221.75 1.6208 -0.711269 0
M  V30 24032 C 2218.88 3.00856 -1.65349 0
M  V30 24033 C 2217.97 3.13889 -2.85192 0
M  V30 24034 N 2218.36 2.9687 -4.09514 0
M  V30 24035 C 2216.66 3.44958 -2.82701 0
M  V30 24036 C 2217.36 3.13543 -4.89965 0
M  V30 24037 N 2216.34 3.415 -4.2294 0
M  V30 24038 H 2220.14 1.47628 -2.54132 0
M  V30 24039 H 2217.65 0.727169 -1.4521 0
M  V30 24040 H 2219.65 3.79892 -1.71719 0
M  V30 24041 H 2218.31 3.16477 -0.726114 0
M  V30 24042 H 2219.32 2.7346 -4.39818 0
M  V30 24043 H 2216 3.66883 -1.99256 0
M  V30 24044 H 2217.39 3.05051 -5.9866 0
M  V30 24045 N 2220.11 1.37452 0.771027 0
M  V30 24046 C 2221.04 1.35974 1.89825 0
M  V30 24047 C 2222.02 0.228246 1.68562 0
M  V30 24048 O 2223.2 0.428708 1.89409 0
M  V30 24049 C 2220.33 1.16668 3.27118 0
M  V30 24050 C 2219.29 2.26836 3.62946 0
M  V30 24051 C 2218.61 1.92652 4.98788 0
M  V30 24052 C 2219.91 3.69023 3.6962 0
M  V30 24053 H 2221.61 2.30299 1.91319 0
M  V30 24054 H 2219.15 1.10857 0.919062 0
M  V30 24055 H 2221.11 1.14263 4.05613 0
M  V30 24056 H 2219.83 0.187983 3.26059 0
M  V30 24057 H 2218.49 2.28397 2.86759 0
M  V30 24058 H 2218.14 0.933108 4.94269 0
M  V30 24059 H 2217.84 2.66425 5.23729 0
M  V30 24060 H 2219.36 1.91836 5.79682 0
M  V30 24061 H 2220.77 3.69588 4.38266 0
M  V30 24062 H 2219.17 4.41855 4.06059 0
M  V30 24063 H 2220.24 4.02597 2.70266 0
M  V30 24064 N 2221.58 -0.997276 1.22033 0
M  V30 24065 C 2222.86 -1.70933 0.950853 0
M  V30 24066 C 2223.24 -2.04201 -0.535256 0
M  V30 24067 O 2222.59 -1.72186 -1.50214 0
M  V30 24068 C 2222.8 -2.96312 1.84391 0
M  V30 24069 C 2224.15 -3.69182 2.09738 0
M  V30 24070 O 2225.17 -3.0631 1.81803 0
M  V30 24071 O 2224.03 -4.82286 2.57026 0
M  V30 24072 H 2221.12 -0.745872 0.357217 0
M  V30 24073 H 2223.67 -1.05401 1.32999 0
M  V30 24074 H 2222.44 -2.68196 2.84932 0
M  V30 24075 H 2222.07 -3.69583 1.46608 0
M  V30 24076 N 2223.06 -1.02932 -1.19343 0
M  V30 24077 C 2224.31 -0.727117 -1.89317 0
M  V30 24078 C 2224.64 0.742451 -1.79447 0
M  V30 24079 O 2223.92 1.5407 -1.18712 0
M  V30 24080 C 2224.2 -1.17948 -3.40236 0
M  V30 24081 C 2224.05 -2.7103 -3.58974 0
M  V30 24082 C 2225.37 -0.760624 -4.33477 0
M  V30 24083 H 2222.49 -0.265619 -0.687471 0
M  V30 24084 H 2225.13 -1.27932 -1.40475 0
M  V30 24085 H 2223.28 -0.709675 -3.81963 0
M  V30 24086 H 2224.95 -3.25961 -3.26415 0
M  V30 24087 H 2223.2 -3.11401 -3.02013 0
M  V30 24088 H 2223.87 -2.97738 -4.64818 0
M  V30 24089 H 2226.34 -1.16471 -3.99467 0
M  V30 24090 H 2225.22 -1.10503 -5.37662 0
M  V30 24091 H 2225.48 0.336986 -4.40814 0
M  V30 24092 N 2224.54 1.35356 -0.807246 0
M  V30 24093 C 2225.79 1.99044 -0.388498 0
M  V30 24094 C 2226.12 1.6389 1.04181 0
M  V30 24095 O 2225.39 0.902565 1.7229 0
M  V30 24096 C 2225.68 3.55514 -0.572846 0
M  V30 24097 C 2225.53 4.00464 -2.04814 0
M  V30 24098 C 2226.85 4.401 0.00106328 0
M  V30 24099 H 2223.97 0.723067 -0.142631 0
M  V30 24100 H 2226.61 1.60496 -1.0169 0
M  V30 24101 H 2224.76 3.88482 -0.0379108 0
M  V30 24102 H 2226.43 3.77903 -2.6455 0
M  V30 24103 H 2224.68 3.51349 -2.54433 0
M  V30 24104 H 2225.35 5.09333 -2.128 0
M  V30 24105 H 2227.82 4.13596 -0.455788 0
M  V30 24106 H 2226.7 5.48673 -0.157833 0
M  V30 24107 H 2226.96 4.2833 1.09481 0
M  V30 24108 N 2226.02 0.560807 1.47284 0
M  V30 24109 C 2227.25 0.0430626 2.06855 0
M  V30 24110 C 2227.66 -1.25226 1.41293 0
M  V30 24111 O 2227.02 -1.75209 0.510679 0
M  V30 24112 C 2227.07 -0.152455 3.61178 0
M  V30 24113 O 2226.79 1.09158 4.24283 0
M  V30 24114 C 2228.29 -0.707068 4.37625 0
M  V30 24115 H 2225.51 0.047477 0.669318 0
M  V30 24116 H 2228.06 0.775243 1.89236 0
M  V30 24117 H 2226.21 -0.834777 3.78299 0
M  V30 24118 H 2226.62 0.891573 5.16867 0
M  V30 24119 H 2228.1 -0.793148 5.46272 0
M  V30 24120 H 2228.58 -1.71916 4.04155 0
M  V30 24121 H 2229.18 -0.0603279 4.25257 0
M  V30 24122 N 2227.5 -1.54768 0.297442 0
M  V30 24123 C 2228.43 -2.26349 -0.573454 0
M  V30 24124 C 2229.41 -1.26171 -1.14083 0
M  V30 24125 O 2230.59 -1.54936 -1.17083 0
M  V30 24126 C 2227.72 -3.00156 -1.74711 0
M  V30 24127 C 2226.68 -4.07451 -1.31025 0
M  V30 24128 C 2226 -4.68954 -2.56878 0
M  V30 24129 C 2227.3 -5.20409 -0.444092 0
M  V30 24130 H 2229 -2.99391 0.0235657 0
M  V30 24131 H 2226.54 -1.43994 0.0127742 0
M  V30 24132 H 2228.5 -3.48951 -2.36243 0
M  V30 24133 H 2227.22 -2.24686 -2.37031 0
M  V30 24134 H 2225.88 -3.595 -0.718003 0
M  V30 24135 H 2225.53 -3.90128 -3.17505 0
M  V30 24136 H 2225.23 -5.41415 -2.28351 0
M  V30 24137 H 2226.75 -5.2051 -3.1922 0
M  V30 24138 H 2228.16 -5.6512 -0.965 0
M  V30 24139 H 2226.56 -5.99568 -0.252741 0
M  V30 24140 H 2227.63 -4.81976 0.531693 0
M  V30 24141 N 2228.97 -0.0251005 -1.5758 0
M  V30 24142 C 2229.9 0.956538 -2.13008 0
M  V30 24143 C 2230.89 1.34198 -1.04523 0
M  V30 24144 O 2232.07 1.42131 -1.32335 0
M  V30 24145 C 2229.2 2.24022 -2.6539 0
M  V30 24146 C 2228.15 1.99565 -3.78626 0
M  V30 24147 C 2227.48 3.34163 -4.1742 0
M  V30 24148 C 2228.78 1.33805 -5.0487 0
M  V30 24149 H 2230.47 0.494939 -2.95281 0
M  V30 24150 H 2228.02 0.236627 -1.42043 0
M  V30 24151 H 2229.97 2.93071 -3.02799 0
M  V30 24152 H 2228.7 2.7234 -1.80273 0
M  V30 24153 H 2227.36 1.32935 -3.41649 0
M  V30 24154 H 2227 3.80232 -3.29291 0
M  V30 24155 H 2226.7 3.18606 -4.93724 0
M  V30 24156 H 2228.23 4.04486 -4.57409 0
M  V30 24157 H 2229.64 1.92848 -5.39891 0
M  V30 24158 H 2228.04 1.28659 -5.86146 0
M  V30 24159 H 2229.11 0.310476 -4.83905 0
M  V30 24160 N 2230.45 1.55637 0.247999 0
M  V30 24161 C 2231.87 1.48036 0.596457 0
M  V30 24162 C 2232.07 0.715073 1.88385 0
M  V30 24163 O 2231.12 0.243988 2.51318 0
M  V30 24164 C 2232.44 2.92434 0.700207 0
M  V30 24165 C 2233.99 3.02798 0.792606 0
M  V30 24166 C 2234.46 4.48501 0.927926 0
M  V30 24167 N 2235.95 4.52435 0.992824 0
M  V30 24168 C 2236.69 5.6242 1.11677 0
M  V30 24169 N 2236.18 6.82217 1.20633 0
M  V30 24170 N 2237.98 5.50214 1.14984 0
M  V30 24171 H 2230.13 2.03833 -0.597145 0
M  V30 24172 H 2232.39 0.925361 -0.205941 0
M  V30 24173 H 2232.1 3.51261 -0.17572 0
M  V30 24174 H 2231.97 3.42859 1.57249 0
M  V30 24175 H 2234.36 2.44053 1.65899 0
M  V30 24176 H 2234.44 2.55585 -0.104807 0
M  V30 24177 H 2234.08 5.07857 0.0661079 0
M  V30 24178 H 2234.01 4.93395 1.84036 0
M  V30 24179 H 2236.5 3.6615 0.934999 0
M  V30 24180 H 2236.82 7.61788 1.29995 0
M  V30 24181 H 2235.16 6.84979 1.17593 0
M  V30 24182 H 2238.35 4.55557 1.07635 0
M  V30 24183 H 2238.52 6.35967 1.24299 0
M  V30 24184 N 2231.93 -0.513613 1.48996 0
M  V30 24185 C 2233.35 -0.843658 1.35479 0
M  V30 24186 C 2233.55 -1.97918 0.378248 0
M  V30 24187 O 2232.6 -2.51749 -0.194645 0
M  V30 24188 C 2233.92 -1.19575 2.75903 0
M  V30 24189 C 2235.46 -1.30469 2.84512 0
M  V30 24190 C 2235.94 -1.69014 4.25674 0
M  V30 24191 N 2237.43 -1.76086 4.28425 0
M  V30 24192 C 2238.17 -2.07329 5.34605 0
M  V30 24193 N 2237.66 -2.36883 6.51044 0
M  V30 24194 N 2239.45 -2.08473 5.22011 0
M  V30 24195 H 2231.61 0.235365 2.11092 0
M  V30 24196 H 2233.87 0.0426835 0.947039 0
M  V30 24197 H 2233.57 -0.434852 3.49001 0
M  V30 24198 H 2233.45 -2.14214 3.10471 0
M  V30 24199 H 2235.84 -2.05633 2.11658 0
M  V30 24200 H 2235.92 -0.33911 2.53542 0
M  V30 24201 H 2235.56 -0.944047 4.99049 0
M  V30 24202 H 2235.49 -2.6665 4.54098 0
M  V30 24203 H 2237.98 -1.55458 3.44443 0
M  V30 24204 H 2238.29 -2.59874 7.27795 0
M  V30 24205 H 2236.64 -2.34366 6.54292 0
M  V30 24206 H 2239.83 -1.84853 4.30055 0
M  V30 24207 H 2240 -2.32489 6.04858 0
M  V30 24208 N 2233.41 -1.37859 -0.763727 0
M  V30 24209 C 2234.66 -1.3283 -1.51786 0
M  V30 24210 C 2234.97 0.0823376 -1.95427 0
M  V30 24211 O 2236.18 0.255124 -2.70299 0
M  V30 24212 C 2234.63 -2.33198 -2.74129 0
M  V30 24213 C 2234.24 -3.79831 -2.37555 0
M  V30 24214 C 2235.99 -2.37195 -3.5205 0
M  V30 24215 C 2233.89 -4.7191 -3.56448 0
M  V30 24216 H 2232.82 -0.493705 -0.569887 0
M  V30 24217 H 2235.47 -1.63361 -0.835793 0
M  V30 24218 H 2233.86 -1.95696 -3.44266 0
M  V30 24219 H 2235.03 -4.26215 -1.7515 0
M  V30 24220 H 2233.34 -3.78856 -1.72791 0
M  V30 24221 H 2235.94 -3.0319 -4.40432 0
M  V30 24222 H 2236.28 -1.38789 -3.92484 0
M  V30 24223 H 2236.82 -2.73445 -2.88917 0
M  V30 24224 H 2233.56 -5.71474 -3.21089 0
M  V30 24225 H 2233.08 -4.30225 -4.17931 0
M  V30 24226 H 2234.76 -4.89433 -4.23159 0
M  V30 24227 N 2234.89 0.990791 -1.22561 0
M  V30 24228 C 2235.82 2.0834 -0.955362 0
M  V30 24229 C 2236.83 1.62663 0.0668122 0
M  V30 24230 O 2238.02 1.77713 -0.167452 0
M  V30 24231 C 2235.12 3.36342 -0.415625 0
M  V30 24232 C 2234.29 4.11039 -1.49552 0
M  V30 24233 C 2233.35 5.17322 -0.96249 0
M  V30 24234 O 2232.38 5.44785 -1.64917 0
M  V30 24235 N 2233.58 5.80102 0.215032 0
M  V30 24236 H 2236.35 2.32103 -1.896 0
M  V30 24237 H 2233.91 1.15671 -1.13278 0
M  V30 24238 H 2235.9 4.04676 -0.0443098 0
M  V30 24239 H 2234.47 3.09626 0.430178 0
M  V30 24240 H 2233.69 3.37306 -2.04006 0
M  V30 24241 H 2234.98 4.57715 -2.22203 0
M  V30 24242 H 2234.38 5.60161 0.789681 0
M  V30 24243 H 2232.93 6.4966 0.527712 0
M  V30 24244 N 2236.37 1.03564 1.18795 0
M  V30 24245 C 2237.78 0.764706 1.70321 0
M  V30 24246 C 2238.13 -0.714964 1.82709 0
M  V30 24247 O 2237.25 -1.55687 1.50302 0
M  V30 24248 C 2237.85 1.38151 3.09354 0
M  V30 24249 C 2236.41 1.15901 3.58112 0
M  V30 24250 C 2235.55 1.47534 2.34796 0
M  V30 24251 H 2238.5 1.2027 1.03541 0
M  V30 24252 H 2238.53 0.782042 3.72377 0
M  V30 24253 H 2238.04 2.45842 3.00305 0
M  V30 24254 H 2236.14 0.10061 3.72464 0
M  V30 24255 H 2236.25 1.85248 4.41837 0
M  V30 24256 H 2234.62 0.894871 2.38462 0
M  V30 24257 H 2235.4 2.56323 2.28371 0
M  V30 24258 N 2237.84 -1.34926 0.814413 0
M  V30 24259 C 2239.25 -1.80985 0.458396 0
M  V30 24260 C 2239.61 -1.67579 -1.02039 0
M  V30 24261 O 2238.73 -1.21089 -1.7935 0
M  V30 24262 C 2239.33 -3.28595 0.82527 0
M  V30 24263 C 2237.88 -3.72766 0.521743 0
M  V30 24264 C 2237.03 -2.56786 1.04672 0
M  V30 24265 H 2239.98 -1.22794 1.00536 0
M  V30 24266 H 2240 -3.80292 0.125777 0
M  V30 24267 H 2239.52 -3.38321 1.90159 0
M  V30 24268 H 2237.62 -3.68585 -0.545524 0
M  V30 24269 H 2237.73 -4.6723 1.05985 0
M  V30 24270 H 2236.09 -2.50351 0.468666 0
M  V30 24271 H 2236.88 -2.69286 2.12932 0
M  V30 24272 N 2239.32 -0.56861 -1.46985 0
M  V30 24273 C 2240.25 0.160712 -2.32946 0
M  V30 24274 C 2241.23 0.897605 -1.44489 0
M  V30 24275 O 2242.42 0.875836 -1.73328 0
M  V30 24276 C 2239.55 1.18397 -3.26496 0
M  V30 24277 C 2238.5 0.56282 -4.24283 0
M  V30 24278 C 2237.83 1.69154 -5.07239 0
M  V30 24279 C 2239.13 -0.490853 -5.19988 0
M  V30 24280 H 2240.82 -0.556968 -2.94174 0
M  V30 24281 H 2238.37 -0.269295 -1.4146 0
M  V30 24282 H 2240.32 1.70244 -3.8548 0
M  V30 24283 H 2239.04 1.93174 -2.63346 0
M  V30 24284 H 2237.7 0.0655519 -3.66541 0
M  V30 24285 H 2237.35 2.42863 -4.40485 0
M  V30 24286 H 2237.05 1.28164 -5.73452 0
M  V30 24287 H 2238.58 2.21304 -5.69084 0
M  V30 24288 H 2239.99 -0.0580055 -5.73271 0
M  V30 24289 H 2238.39 -0.820269 -5.94467 0
M  V30 24290 H 2239.46 -1.38248 -4.64775 0
M  V30 24291 N 2240.8 1.54608 -0.305646 0
M  V30 24292 C 2242.05 1.99836 0.301666 0
M  V30 24293 C 2242.37 1.19553 1.54052 0
M  V30 24294 O 2241.64 0.292692 1.93701 0
M  V30 24295 H 2240.22 0.73818 0.114455 0
M  V30 24296 H 2242.88 1.90364 -0.41805 0
M  V30 24297 H 2241.98 3.06842 0.570494 0
M  V30 24298 N 2242.28 0.033457 1.57564 0
M  V30 24299 C 2243.52 -0.644238 1.91979 0
M  V30 24300 C 2243.85 -1.71885 0.910261 0
M  V30 24301 O 2243.11 -1.95536 -0.0801618 0
M  V30 24302 C 2243.41 -1.29498 3.33114 0
M  V30 24303 C 2243.07 -0.350309 4.49537 0
M  V30 24304 C 2241.73 -0.0903128 4.81115 0
M  V30 24305 C 2244.09 0.298123 5.20347 0
M  V30 24306 C 2241.41 0.825848 5.80859 0
M  V30 24307 C 2243.77 1.20237 6.21068 0
M  V30 24308 C 2242.43 1.47121 6.51085 0
M  V30 24309 H 2241.7 -0.235743 0.7025 0
M  V30 24310 H 2244.35 0.0961512 1.91258 0
M  V30 24311 H 2242.65 -2.11022 3.30117 0
M  V30 24312 H 2244.35 -1.82597 3.57015 0
M  V30 24313 H 2240.94 -0.563131 4.24884 0
M  V30 24314 H 2245.12 0.110322 4.96177 0
M  V30 24315 H 2240.38 1.0418 6.02459 0
M  V30 24316 H 2244.55 1.71098 6.75054 0
M  V30 24317 H 2242.18 2.18277 7.28189 0
M  V30 24318 N 2243.76 -1.55766 -0.239741 0
M  V30 24319 C 2245 -1.77581 -0.96486 0
M  V30 24320 C 2245.32 -0.598732 -1.85581 0
M  V30 24321 O 2244.59 0.385193 -1.92076 0
M  V30 24322 H 2243.17 -0.65494 -0.359253 0
M  V30 24323 H 2245.84 -1.93212 -0.255967 0
M  V30 24324 H 2244.93 -2.69011 -1.58238 0
M  V30 24325 N 2245.23 0.505704 -1.49266 0
M  V30 24326 C 2246.18 1.60777 -1.65588 0
M  V30 24327 C 2247.15 1.58477 -0.497424 0
M  V30 24328 O 2248.34 1.76535 -0.723881 0
M  V30 24329 C 2245.48 2.98945 -1.72413 0
M  V30 24330 C 2244.59 3.11296 -2.99531 0
M  V30 24331 C 2243.72 4.40168 -2.97364 0
M  V30 24332 C 2242.76 4.46136 -4.19082 0
M  V30 24333 N 2241.9 5.6643 -4.14851 0
M  V30 24334 H 2246.74 1.46167 -2.5969 0
M  V30 24335 H 2244.28 0.711239 -1.28763 0
M  V30 24336 H 2246.23 3.79022 -1.74351 0
M  V30 24337 H 2244.86 3.12269 -0.817807 0
M  V30 24338 H 2243.92 2.24312 -3.07226 0
M  V30 24339 H 2245.23 3.11565 -3.89524 0
M  V30 24340 H 2244.38 5.28562 -2.97838 0
M  V30 24341 H 2243.12 4.42457 -2.05141 0
M  V30 24342 H 2242.13 3.56145 -4.18856 0
M  V30 24343 H 2243.35 4.45566 -5.12491 0
M  V30 24344 H 2241.3 5.6957 -3.25463 0
M  V30 24345 H 2241.21 5.68296 -4.98574 0
M  V30 24346 H 2242.48 6.57043 -4.19422 0
M  V30 24347 N 2246.71 1.38262 0.756405 0
M  V30 24348 C 2247.64 1.37979 1.88372 0
M  V30 24349 C 2248.62 0.246111 1.6831 0
M  V30 24350 O 2249.81 0.448773 1.88944 0
M  V30 24351 C 2246.94 1.2013 3.25862 0
M  V30 24352 C 2245.89 2.30673 3.60519 0
M  V30 24353 C 2245.22 1.97932 4.96716 0
M  V30 24354 C 2246.52 3.72923 3.65686 0
M  V30 24355 H 2248.21 2.32315 1.88865 0
M  V30 24356 H 2245.76 1.11825 0.907253 0
M  V30 24357 H 2247.71 1.18559 4.04378 0
M  V30 24358 H 2246.44 0.222555 3.25841 0
M  V30 24359 H 2245.09 2.31425 2.8432 0
M  V30 24360 H 2244.74 0.98548 4.93252 0
M  V30 24361 H 2244.44 2.71965 5.20873 0
M  V30 24362 H 2245.97 1.97974 5.77615 0
M  V30 24363 H 2247.38 3.74216 4.34322 0
M  V30 24364 H 2245.78 4.46137 4.0135 0
M  V30 24365 H 2246.85 4.05441 2.6598 0
M  V30 24366 N 2248.19 -0.984277 1.23084 0
M  V30 24367 C 2249.43 -1.74015 1.07229 0
M  V30 24368 C 2249.79 -1.88106 -0.384733 0
M  V30 24369 O 2251 -2.6046 -0.664365 0
M  V30 24370 C 2249.27 -3.10291 1.77353 0
M  V30 24371 S 2250.83 -4.01508 1.77021 0
M  V30 24372 H 2247.64 -0.598495 0.383829 0
M  V30 24373 H 2250.25 -1.17619 1.5616 0
M  V30 24374 H 2248.95 -2.97684 2.82511 0
M  V30 24375 H 2248.48 -3.71756 1.28688 0
M  V30 24376 H 2250.5 -4.89276 0.826042 0
M  V30 24377 N 2249.67 -1.04192 -1.18244 0
M  V30 24378 C 2251.08 -0.773728 -1.69913 0
M  V30 24379 C 2251.43 0.705265 -1.83086 0
M  V30 24380 O 2250.56 1.54887 -1.51125 0
M  V30 24381 C 2251.15 -1.3979 -3.08617 0
M  V30 24382 C 2249.71 -1.17798 -3.57492 0
M  V30 24383 C 2248.86 -1.48777 -2.3401 0
M  V30 24384 H 2251.81 -1.20818 -1.02902 0
M  V30 24385 H 2251.83 -0.801779 -3.71957 0
M  V30 24386 H 2251.34 -2.47432 -2.98997 0
M  V30 24387 H 2249.44 -0.120361 -3.72406 0
M  V30 24388 H 2249.55 -1.87589 -4.40848 0
M  V30 24389 H 2247.92 -0.907505 -2.37984 0
M  V30 24390 H 2248.7 -2.57531 -2.27008 0
M  V30 24391 N 2251.15 1.34492 -0.821557 0
M  V30 24392 C 2252.1 2.26986 -0.214833 0
M  V30 24393 C 2253.08 1.48471 0.620099 0
M  V30 24394 O 2254.27 1.7051 0.474903 0
M  V30 24395 C 2251.4 3.3759 0.623506 0
M  V30 24396 C 2250.49 4.23519 -0.221978 0
M  V30 24397 N 2250.88 4.89012 -1.29232 0
M  V30 24398 C 2249.18 4.46 -0.00608762 0
M  V30 24399 C 2249.88 5.52832 -1.80975 0
M  V30 24400 N 2248.85 5.32066 -1.11385 0
M  V30 24401 H 2252.66 2.75126 -1.03359 0
M  V30 24402 H 2250.17 1.48195 -0.664226 0
M  V30 24403 H 2252.17 4.0282 1.07433 0
M  V30 24404 H 2250.83 2.91001 1.44044 0
M  V30 24405 H 2251.84 4.90062 -1.67511 0
M  V30 24406 H 2248.51 4.10172 0.778788 0
M  V30 24407 H 2249.9 6.15039 -2.70513 0
M  V30 24408 N 2252.62 0.576397 1.46681 0
M  V30 24409 C 2254.04 0.23759 1.57822 0
M  V30 24410 C 2254.24 -1.26008 1.5724 0
M  V30 24411 O 2253.3 -2.04143 1.48599 0
M  V30 24412 C 2254.61 0.881218 2.87498 0
M  V30 24413 C 2256.16 0.854222 3.01118 0
M  V30 24414 C 2256.63 1.47727 4.33521 0
M  V30 24415 N 2258.12 1.44133 4.40204 0
M  V30 24416 C 2258.86 1.89286 5.41256 0
M  V30 24417 N 2258.35 2.42383 6.49017 0
M  V30 24418 N 2260.15 1.8024 5.32419 0
M  V30 24419 H 2252.3 1.54921 1.45304 0
M  V30 24420 H 2254.56 0.647179 0.692722 0
M  V30 24421 H 2254.27 1.93452 2.93716 0
M  V30 24422 H 2254.14 0.385658 3.75223 0
M  V30 24423 H 2256.53 -0.190439 2.94485 0
M  V30 24424 H 2256.61 1.38774 2.14885 0
M  V30 24425 H 2256.25 2.5211 4.40911 0
M  V30 24426 H 2256.18 0.919038 5.18518 0
M  V30 24427 H 2258.67 1.05314 3.62929 0
M  V30 24428 H 2258.99 2.7471 7.22325 0
M  V30 24429 H 2257.33 2.46405 6.49854 0
M  V30 24430 H 2260.52 1.38521 4.47135 0
M  V30 24431 H 2260.7 2.15746 6.1103 0
M  V30 24432 N 2254.1 -1.54444 0.313841 0
M  V30 24433 C 2255.35 -2.00686 -0.292072 0
M  V30 24434 C 2255.68 -1.2018 -1.52546 0
M  V30 24435 O 2254.96 -0.281565 -1.92451 0
M  V30 24436 C 2255.24 -3.54441 -0.635906 0
M  V30 24437 C 2255.09 -4.45678 0.607516 0
M  V30 24438 C 2256.41 -4.15269 -1.45739 0
M  V30 24439 H 2253.53 -0.729527 -0.104684 0
M  V30 24440 H 2256.17 -1.85105 0.42849 0
M  V30 24441 H 2254.32 -3.67848 -1.2498 0
M  V30 24442 H 2255.99 -4.44157 1.24589 0
M  V30 24443 H 2254.24 -4.15751 1.23829 0
M  V30 24444 H 2254.91 -5.51056 0.322612 0
M  V30 24445 H 2257.38 -4.05376 -0.938574 0
M  V30 24446 H 2256.26 -5.22983 -1.66674 0
M  V30 24447 H 2256.52 -3.67967 -2.45056 0
M  V30 24448 N 2255.58 -0.0418125 -1.57545 0
M  V30 24449 C 2256.54 0.920893 -2.09886 0
M  V30 24450 C 2257.54 1.24595 -1.0165 0
M  V30 24451 O 2258.73 1.18418 -1.27761 0
M  V30 24452 C 2255.87 2.23363 -2.57531 0
M  V30 24453 H 2257.06 0.467329 -2.96236 0
M  V30 24454 H 2254.61 0.20644 -1.54931 0
M  V30 24455 H 2255.35 2.7332 -1.74547 0
M  V30 24456 H 2255.13 2.01077 -3.36616 0
M  V30 24457 H 2256.62 2.9234 -2.98206 0
M  V30 24458 N 2257.06 1.55891 0.231477 0
M  V30 24459 C 2258.3 1.80213 0.964501 0
M  V30 24460 C 2258.66 0.613776 1.81925 0
M  V30 24461 O 2259.86 0.73609 2.58525 0
M  V30 24462 C 2258.13 3.09372 1.78951 0
M  V30 24463 S 2259.69 3.54973 2.57953 0
M  V30 24464 H 2256.51 0.632803 0.324162 0
M  V30 24465 H 2259.11 1.94131 0.230951 0
M  V30 24466 H 2257.82 3.93913 1.15155 0
M  V30 24467 H 2257.35 2.98234 2.56554 0
M  V30 24468 H 2259.36 3.17525 3.81303 0
M  V30 24469 N 2258.54 -0.497781 1.49532 0
M  V30 24470 C 2259.48 -1.59896 1.66439 0
M  V30 24471 C 2260.45 -1.58211 0.505821 0
M  V30 24472 O 2261.64 -1.76149 0.733233 0
M  V30 24473 C 2258.78 -2.98026 1.73996 0
M  V30 24474 C 2257.89 -3.09703 3.01178 0
M  V30 24475 C 2257.03 -4.38585 2.99694 0
M  V30 24476 C 2256.07 -4.43907 4.21442 0
M  V30 24477 N 2255.2 -5.64222 4.1785 0
M  V30 24478 H 2260.04 -1.44788 2.60462 0
M  V30 24479 H 2257.58 -0.7044 1.29138 0
M  V30 24480 H 2259.54 -3.78092 1.76358 0
M  V30 24481 H 2258.17 -3.11831 0.834356 0
M  V30 24482 H 2257.22 -2.2268 3.08412 0
M  V30 24483 H 2258.53 -3.09495 3.9117 0
M  V30 24484 H 2257.69 -5.26975 3.00637 0
M  V30 24485 H 2256.42 -4.41363 2.07485 0
M  V30 24486 H 2255.43 -3.53919 4.20739 0
M  V30 24487 H 2256.65 -4.42842 5.14847 0
M  V30 24488 H 2254.6 -5.67836 3.28479 0
M  V30 24489 H 2254.52 -5.65643 5.01581 0
M  V30 24490 H 2255.79 -6.5481 4.229 0
M  V30 24491 N 2260.01 -1.38661 -0.749062 0
M  V30 24492 C 2261.43 -1.19957 -1.05273 0
M  V30 24493 C 2261.63 -0.0513754 -2.01434 0
M  V30 24494 O 2260.69 0.601427 -2.45233 0
M  V30 24495 C 2262 -2.52786 -1.62848 0
M  V30 24496 C 2263.55 -2.59509 -1.74998 0
M  V30 24497 C 2264.02 -3.92525 -2.35984 0
M  V30 24498 N 2265.51 -3.94089 -2.43409 0
M  V30 24499 C 2266.25 -4.93775 -2.91502 0
M  V30 24500 N 2265.74 -6.03859 -3.39597 0
M  V30 24501 N 2267.54 -4.81163 -2.90584 0
M  V30 24502 H 2259.69 -2.1211 -0.111028 0
M  V30 24503 H 2261.95 -0.941374 -0.111884 0
M  V30 24504 H 2261.66 -3.37285 -0.996581 0
M  V30 24505 H 2261.53 -2.71505 -2.61849 0
M  V30 24506 H 2263.92 -1.75403 -2.37314 0
M  V30 24507 H 2264 -2.44653 -0.746887 0
M  V30 24508 H 2263.64 -4.77056 -1.743 0
M  V30 24509 H 2263.57 -4.04694 -3.36943 0
M  V30 24510 H 2266.06 -3.1458 -2.09399 0
M  V30 24511 H 2266.38 -6.75849 -3.74763 0
M  V30 24512 H 2264.72 -6.07472 -3.37642 0
M  V30 24513 H 2267.91 -3.94271 -2.52325 0
M  V30 24514 H 2268.09 -5.59002 -3.27752 0
M  V30 24515 N 2261.49 0.977736 -1.23605 0
M  V30 24516 C 2262.42 2.08858 -1.04405 0
M  V30 24517 C 2263.4 1.70053 0.0398754 0
M  V30 24518 O 2264.59 1.93795 -0.12528 0
M  V30 24519 C 2261.72 3.41402 -0.637329 0
M  V30 24520 C 2260.67 3.94121 -1.6689 0
M  V30 24521 C 2260 5.22891 -1.11754 0
M  V30 24522 C 2261.3 4.2309 -3.06255 0
M  V30 24523 H 2262.99 2.25178 -1.9732 0
M  V30 24524 H 2260.54 1.08207 -0.950115 0
M  V30 24525 H 2262.49 4.18541 -0.490054 0
M  V30 24526 H 2261.22 3.24954 0.3275 0
M  V30 24527 H 2259.88 3.1913 -1.80421 0
M  V30 24528 H 2259.52 5.02795 -0.143615 0
M  V30 24529 H 2259.22 5.59131 -1.80682 0
M  V30 24530 H 2260.75 6.02649 -0.982173 0
M  V30 24531 H 2262.16 4.9097 -2.9601 0
M  V30 24532 H 2260.56 4.70537 -3.72445 0
M  V30 24533 H 2261.63 3.30257 -3.55047 0
M  V30 24534 N 2262.97 1.04818 1.1769 0
M  V30 24535 C 2264.22 0.757143 1.88136 0
M  V30 24536 C 2264.55 -0.713809 1.80606 0
M  V30 24537 O 2263.83 -1.52162 1.21149 0
M  V30 24538 C 2264.11 1.23346 3.38316 0
M  V30 24539 C 2263.96 2.76707 3.54617 0
M  V30 24540 C 2265.28 0.829491 4.32212 0
M  V30 24541 H 2262.4 0.276522 0.683158 0
M  V30 24542 H 2265.04 1.30151 1.38422 0
M  V30 24543 H 2263.19 0.770352 3.80786 0
M  V30 24544 H 2264.86 3.31113 3.21188 0
M  V30 24545 H 2263.11 3.16167 2.9702 0
M  V30 24546 H 2263.78 3.05096 4.60022 0
M  V30 24547 H 2266.25 1.22812 3.97563 0
M  V30 24548 H 2265.13 1.19043 5.35836 0
M  V30 24549 H 2265.39 -0.266814 4.41294 0
M  V30 24550 N 2264.45 -1.34055 0.828678 0
M  V30 24551 C 2265.41 -2.27721 0.259967 0
M  V30 24552 C 2266.41 -1.5053 -0.565451 0
M  V30 24553 O 2267.6 -1.69989 -0.38072 0
M  V30 24554 C 2264.73 -3.34936 -0.634885 0
M  V30 24555 H 2265.93 -2.79532 1.08635 0
M  V30 24556 H 2263.48 -1.44284 0.600977 0
M  V30 24557 H 2264.22 -2.88348 -1.48411 0
M  V30 24558 H 2264 -3.92075 -0.044431 0
M  V30 24559 H 2265.49 -4.0479 -1.02641 0
M  V30 24560 N 2265.93 -0.584167 -1.46374 0
M  V30 24561 C 2266.86 0.196636 -2.27351 0
M  V30 24562 C 2267.84 0.895537 -1.35716 0
M  V30 24563 O 2269.02 0.909131 -1.65127 0
M  V30 24564 C 2266.15 1.28229 -3.13488 0
M  V30 24565 C 2265.2 0.689071 -4.20897 0
M  V30 24566 S 2266.03 -0.485164 -5.33298 0
M  V30 24567 C 2267.18 0.601658 -6.23002 0
M  V30 24568 H 2267.42 -0.490447 -2.93227 0
M  V30 24569 H 2264.95 -0.371098 -1.49874 0
M  V30 24570 H 2266.91 1.90388 -3.63679 0
M  V30 24571 H 2265.57 1.94133 -2.46923 0
M  V30 24572 H 2264.76 1.50518 -4.80999 0
M  V30 24573 H 2264.36 0.143115 -3.73726 0
M  V30 24574 H 2266.66 1.48694 -6.60981 0
M  V30 24575 H 2267.6 0.0373554 -7.0809 0
M  V30 24576 H 2268.01 0.906459 -5.57175 0
M  V30 24577 N 2267.41 1.54275 -0.322027 0
M  V30 24578 C 2268.35 2.25754 0.560167 0
M  V30 24579 C 2269.35 1.27108 1.11982 0
M  V30 24580 O 2270.55 1.4489 1.06804 0
M  V30 24581 H 2266.93 0.725112 0.199291 0
M  V30 24582 H 2268.9 2.98329 -0.0649889 0
M  V30 24583 C 2267.65 3.02734 1.71018 0
M  V30 24584 H 2266.97 3.78458 1.28879 0
M  V30 24585 H 2268.41 3.55997 2.30308 0
M  V30 24586 C 2266.87 2.10942 2.62688 0
M  V30 24587 O 2267.4 1.69127 3.64361 0
M  V30 24588 N 2265.61 1.76463 2.30888 0
M  V30 24589 H 2265.15 2.10665 1.4825 0
M  V30 24590 H 2265.11 1.15325 2.92485 0
M  V30 24591 N 2268.88 0.0501669 1.5752 0
M  V30 24592 C 2269.82 -0.959926 2.07028 0
M  V30 24593 C 2270.79 -1.30456 0.970562 0
M  V30 24594 O 2271.98 -1.41761 1.24242 0
M  V30 24595 C 2269.11 -2.2742 2.50994 0
M  V30 24596 C 2268.15 -2.08268 3.72192 0
M  V30 24597 S 2268.98 -1.36198 5.1789 0
M  V30 24598 C 2270.14 -2.68951 5.65169 0
M  V30 24599 H 2270.37 -0.53858 2.92381 0
M  V30 24600 H 2267.91 -0.162072 1.53547 0
M  V30 24601 H 2269.86 -3.02966 2.76987 0
M  V30 24602 H 2268.53 -2.66683 1.65949 0
M  V30 24603 H 2267.72 -3.0548 4.00871 0
M  V30 24604 H 2267.32 -1.40862 3.46459 0
M  V30 24605 H 2269.61 -3.65123 5.70694 0
M  V30 24606 H 2270.56 -2.44909 6.64399 0
M  V30 24607 H 2270.96 -2.75164 4.92895 0
M  V30 24608 N 2270.36 -1.56011 -0.223207 0
M  V30 24609 C 2271.77 -1.69147 -0.790338 0
M  V30 24610 C 2272.12 -0.651878 -1.85054 0
M  V30 24611 O 2271.25 0.197321 -2.15499 0
M  V30 24612 C 2271.84 -3.06659 -1.44034 0
M  V30 24613 C 2270.4 -3.21654 -1.95489 0
M  V30 24614 C 2269.55 -2.6507 -0.81446 0
M  V30 24615 H 2272.5 -1.587 0.001418 0
M  V30 24616 H 2272.52 -3.02424 -2.30911 0
M  V30 24617 H 2272.03 -3.823 -0.668476 0
M  V30 24618 H 2270.13 -2.50879 -2.75482 0
M  V30 24619 H 2270.25 -4.2885 -2.13599 0
M  V30 24620 H 2268.61 -2.23507 -1.22133 0
M  V30 24621 H 2269.39 -3.43255 -0.0552912 0
M  V30 24622 N 2271.84 0.489844 -1.49794 0
M  V30 24623 C 2272.77 1.59853 -1.70203 0
M  V30 24624 C 2273.75 1.60936 -0.550789 0
M  V30 24625 O 2274.94 1.775 -0.787872 0
M  V30 24626 C 2272.07 2.98284 -1.77888 0
M  V30 24627 C 2271.02 3.12068 -2.92912 0
M  V30 24628 C 2270.35 4.5196 -2.8572 0
M  V30 24629 C 2271.65 2.91043 -4.33695 0
M  V30 24630 H 2273.34 1.43027 -2.63028 0
M  V30 24631 H 2270.89 0.686642 -1.26575 0
M  V30 24632 H 2272.84 3.75755 -1.90751 0
M  V30 24633 H 2271.56 3.16224 -0.816708 0
M  V30 24634 H 2270.22 2.37024 -2.79669 0
M  V30 24635 H 2269.87 4.66792 -1.87388 0
M  V30 24636 H 2269.57 4.62122 -3.62929 0
M  V30 24637 H 2271.09 5.31477 -3.00607 0
M  V30 24638 H 2272.51 3.58276 -4.47561 0
M  V30 24639 H 2270.9 3.12666 -5.12211 0
M  V30 24640 H 2271.97 1.87063 -4.47365 0
M  V30 24641 N 2273.32 1.39056 0.741698 0
M  V30 24642 C 2274.27 1.37374 1.877 0
M  V30 24643 C 2275.26 0.257841 1.67426 0
M  V30 24644 O 2276.47 0.427519 1.74849 0
M  V30 24645 H 2272.84 0.428823 0.61775 0
M  V30 24646 H 2274.81 2.3315 1.86235 0
M  V30 24647 C 2273.56 1.22747 3.25313 0
M  V30 24648 H 2272.88 2.07879 3.41506 0
M  V30 24649 H 2274.32 1.25626 4.04962 0
M  V30 24650 C 2272.78 -0.0646724 3.36838 0
M  V30 24651 O 2273.31 -1.03734 3.88075 0
M  V30 24652 N 2271.52 -0.125493 2.90329 0
M  V30 24653 H 2271.07 0.666726 2.48822 0
M  V30 24654 H 2271.02 -0.989587 2.9842 0
M  V30 24655 N 2274.8 -0.971167 1.24121 0
M  V30 24656 C 2276.02 -1.75405 1.1067 0
M  V30 24657 C 2276.45 -1.85056 -0.337016 0
M  V30 24658 O 2275.8 -1.31894 -1.24393 0
M  V30 24659 C 2275.85 -3.15438 1.74732 0
M  V30 24660 O 2274.96 -3.99696 1.01573 0
M  V30 24661 H 2274.3 -0.53931 0.387351 0
M  V30 24662 H 2276.83 -1.21847 1.6436 0
M  V30 24663 H 2276.84 -3.65976 1.80348 0
M  V30 24664 H 2275.51 -3.07729 2.79778 0
M  V30 24665 H 2274.09 -3.58185 1.03719 0
M  V30 24666 N 2276.27 -1.05441 -1.17133 0
M  V30 24667 C 2277.55 -0.679731 -1.83409 0
M  V30 24668 C 2277.93 0.839692 -1.93681 0
M  V30 24669 O 2277.28 1.74662 -1.47328 0
M  V30 24670 C 2277.49 -1.37164 -3.20916 0
M  V30 24671 C 2278.84 -1.5113 -3.96793 0
M  V30 24672 O 2279.86 -1.33086 -3.30404 0
M  V30 24673 O 2278.72 -1.8066 -5.15775 0
M  V30 24674 H 2275.81 -0.239583 -0.791536 0
M  V30 24675 H 2278.36 -1.15415 -1.24408 0
M  V30 24676 H 2277.13 -2.40813 -3.08423 0
M  V30 24677 H 2276.76 -0.886742 -3.87586 0
M  V30 24678 N 2277.75 1.33613 -0.835776 0
M  V30 24679 C 2279 1.97491 -0.429144 0
M  V30 24680 C 2279.32 1.66544 1.0143 0
M  V30 24681 O 2278.59 0.962774 1.70609 0
M  V30 24682 H 2277.17 0.730594 -0.155699 0
M  V30 24683 H 2279.83 1.6303 -1.06805 0
M  V30 24684 H 2278.93 3.07059 -0.558664 0
M  V30 24685 N 2279.23 0.591922 1.46062 0
M  V30 24686 C 2280.46 0.0869299 2.06717 0
M  V30 24687 C 2280.87 -1.22201 1.43918 0
M  V30 24688 O 2280.23 -1.74087 0.547729 0
M  V30 24689 C 2280.28 -0.0758089 3.61421 0
M  V30 24690 O 2280 1.18133 4.21872 0
M  V30 24691 C 2281.5 -0.614083 4.39026 0
M  V30 24692 H 2278.72 0.0616635 0.668161 0
M  V30 24693 H 2281.27 0.815208 1.87549 0
M  V30 24694 H 2279.42 -0.754346 3.79985 0
M  V30 24695 H 2279.84 1.00101 5.14859 0
M  V30 24696 H 2281.31 -0.677097 5.47832 0
M  V30 24697 H 2281.79 -1.63305 4.07711 0
M  V30 24698 H 2282.39 0.029889 4.25289 0
M  V30 24699 N 2280.71 -1.54102 0.330204 0
M  V30 24700 C 2281.95 -2.00984 -0.27077 0
M  V30 24701 C 2282.29 -1.21791 -1.51263 0
M  V30 24702 O 2281.56 -0.301961 -1.92142 0
M  V30 24703 C 2281.85 -3.55095 -0.598277 0
M  V30 24704 C 2281.7 -4.45009 0.654752 0
M  V30 24705 C 2283.02 -4.16791 -1.41327 0
M  V30 24706 H 2280.14 -0.730597 -0.0969403 0
M  V30 24707 H 2282.78 -1.8464 0.448098 0
M  V30 24708 H 2280.93 -3.69153 -1.21071 0
M  V30 24709 H 2282.6 -4.42811 1.29292 0
M  V30 24710 H 2280.84 -4.14414 1.28232 0
M  V30 24711 H 2281.51 -5.50683 0.381041 0
M  V30 24712 H 2283.99 -4.06349 -0.895525 0
M  V30 24713 H 2282.87 -5.24721 -1.61118 0
M  V30 24714 H 2283.13 -3.70546 -2.4114 0
M  V30 24715 N 2282.19 -0.0585199 -1.57491 0
M  V30 24716 C 2283.12 0.948933 -2.07534 0
M  V30 24717 C 2284.1 1.2994 -0.977467 0
M  V30 24718 O 2285.28 1.411 -1.24992 0
M  V30 24719 C 2282.41 2.26086 -2.52196 0
M  V30 24720 C 2281.45 2.06291 -3.73291 0
M  V30 24721 S 2282.29 1.33449 -5.18605 0
M  V30 24722 C 2283.44 2.6595 -5.66588 0
M  V30 24723 H 2283.68 0.523067 -2.92662 0
M  V30 24724 H 2281.21 0.153927 -1.53631 0
M  V30 24725 H 2283.17 3.01493 -2.7859 0
M  V30 24726 H 2281.83 2.65799 -1.67361 0
M  V30 24727 H 2281.02 3.0335 -4.02486 0
M  V30 24728 H 2280.62 1.39023 -3.47201 0
M  V30 24729 H 2282.92 3.62091 -5.72622 0
M  V30 24730 H 2283.86 2.41382 -6.65688 0
M  V30 24731 H 2284.27 2.72546 -4.94347 0
M  V30 24732 N 2283.66 1.56128 0.21493 0
M  V30 24733 C 2284.91 1.79448 0.93834 0
M  V30 24734 C 2285.24 0.628411 1.84069 0
M  V30 24735 O 2284.49 -0.386891 1.91838 0
M  V30 24736 C 2284.79 3.08583 1.80308 0
M  V30 24737 C 2284.46 4.38422 1.05341 0
M  V30 24738 C 2283.12 4.73699 0.846352 0
M  V30 24739 C 2285.47 5.18554 0.524497 0
M  V30 24740 C 2282.8 5.86617 0.0985799 0
M  V30 24741 C 2285.15 6.32251 -0.209964 0
M  V30 24742 C 2283.82 6.66125 -0.428219 0
M  V30 24743 H 2283.09 0.656645 0.343363 0
M  V30 24744 H 2285.73 1.90388 0.206044 0
M  V30 24745 H 2284.04 2.92793 2.60345 0
M  V30 24746 H 2285.74 3.23829 2.36507 0
M  V30 24747 H 2282.33 4.10727 1.22478 0
M  V30 24748 H 2286.51 4.91731 0.671922 0
M  V30 24749 H 2281.77 6.11347 -0.0806828 0
M  V30 24750 H 2285.94 6.93569 -0.627279 0
M  V30 24751 H 2283.57 7.53466 -1.00957 0
M  V30 24752 N 2285.14 -0.481893 1.50052 0
M  V30 24753 C 2286.09 -1.602 1.68637 0
M  V30 24754 C 2287.08 -1.60147 0.552212 0
M  V30 24755 O 2288.29 -1.64426 0.732406 0
M  V30 24756 H 2284.67 -0.531398 0.53209 0
M  V30 24757 H 2286.64 -1.41683 2.62619 0
M  V30 24758 C 2285.39 -2.98216 1.7878 0
M  V30 24759 H 2284.71 -2.98972 2.65435 0
M  V30 24760 H 2286.15 -3.76076 1.95813 0
M  V30 24761 C 2284.61 -3.32594 0.536907 0
M  V30 24762 O 2285.14 -4.00352 -0.328827 0
M  V30 24763 N 2283.34 -2.87915 0.394141 0
M  V30 24764 H 2282.89 -2.32949 1.09967 0
M  V30 24765 H 2282.85 -3.11282 -0.441683 0
M  V30 24766 N 2286.62 -1.39448 -0.734313 0
M  V30 24767 C 2287.58 -1.37997 -1.83001 0
M  V30 24768 C 2288.58 -0.276966 -1.58397 0
M  V30 24769 O 2289.77 -0.534904 -1.65784 0
M  V30 24770 C 2286.91 -1.15325 -3.208 0
M  V30 24771 H 2288.1 -2.35498 -1.8569 0
M  V30 24772 H 2285.65 -1.25022 -0.938037 0
M  V30 24773 H 2286.39 -0.185093 -3.23771 0
M  V30 24774 H 2286.17 -1.95203 -3.40056 0
M  V30 24775 H 2287.66 -1.17053 -4.0086 0
M  V30 24776 N 2288.1 0.964571 -1.24635 0
M  V30 24777 C 2289.33 1.74283 -1.11504 0
M  V30 24778 C 2289.74 1.85856 0.332133 0
M  V30 24779 O 2289.1 1.34913 1.22901 0
M  V30 24780 C 2289.15 3.16172 -1.75264 0
M  V30 24781 O 2288.87 3.05176 -3.14323 0
M  V30 24782 C 2290.37 4.10321 -1.67784 0
M  V30 24783 H 2287.59 0.546439 -0.389417 0
M  V30 24784 H 2290.14 1.2108 -1.64803 0
M  V30 24785 H 2288.29 3.66351 -1.2596 0
M  V30 24786 H 2288.7 3.94612 -3.45517 0
M  V30 24787 H 2290.18 5.07527 -2.17073 0
M  V30 24788 H 2290.66 4.34517 -0.639661 0
M  V30 24789 H 2291.26 3.66054 -2.16529 0
M  V30 24790 N 2289.58 1.0606 1.16572 0
M  V30 24791 C 2290.51 0.690527 2.23056 0
M  V30 24792 C 2291.49 -0.315871 1.67141 0
M  V30 24793 O 2292.67 -0.191522 1.93253 0
M  V30 24794 C 2289.8 0.073686 3.47222 0
M  V30 24795 C 2288.76 1.0058 4.16014 0
M  V30 24796 C 2288.08 0.252383 5.34104 0
M  V30 24797 C 2289.38 2.33379 4.6726 0
M  V30 24798 H 2291.08 1.58077 2.54268 0
M  V30 24799 H 2288.62 0.761512 1.22217 0
M  V30 24800 H 2290.58 -0.197066 4.20939 0
M  V30 24801 H 2289.3 -0.851555 3.15303 0
M  V30 24802 H 2287.96 1.26126 3.44221 0
M  V30 24803 H 2287.61 -0.675901 4.98438 0
M  V30 24804 H 2287.31 0.873557 5.8107 0
M  V30 24805 H 2288.83 -0.0108784 6.10599 0
M  V30 24806 H 2290.24 2.12233 5.32569 0
M  V30 24807 H 2288.64 2.90973 5.24838 0
M  V30 24808 H 2289.71 2.96617 3.83596 0
M  V30 24809 N 2291.06 -1.33168 0.84285 0
M  V30 24810 C 2292.3 -1.97651 0.440482 0
M  V30 24811 C 2292.63 -1.66752 -1.0012 0
M  V30 24812 O 2291.89 -0.941791 -1.71548 0
M  V30 24813 C 2292.18 -3.5211 0.612669 0
M  V30 24814 C 2291.85 -4.02969 2.02305 0
M  V30 24815 C 2290.51 -4.16569 2.40882 0
M  V30 24816 C 2292.86 -4.30084 2.9441 0
M  V30 24817 C 2290.19 -4.54621 3.7086 0
M  V30 24818 C 2292.54 -4.6959 4.23873 0
M  V30 24819 C 2291.21 -4.81396 4.62401 0
M  V30 24820 H 2290.48 -0.723257 0.161184 0
M  V30 24821 H 2293.13 -1.58775 1.07064 0
M  V30 24822 H 2291.43 -3.9167 -0.10078 0
M  V30 24823 H 2293.13 -4.0001 0.28157 0
M  V30 24824 H 2289.72 -3.9286 1.71345 0
M  V30 24825 H 2293.9 -4.19096 2.65842 0
M  V30 24826 H 2289.16 -4.61955 4.0051 0
M  V30 24827 H 2293.33 -4.89527 4.95314 0
M  V30 24828 H 2290.96 -5.10638 5.63163 0
M  V30 24829 N 2292.53 -0.599659 -1.45746 0
M  V30 24830 C 2293.5 0.113794 -2.28917 0
M  V30 24831 C 2294.5 0.802705 -1.39332 0
M  V30 24832 O 2295.69 0.652074 -1.61535 0
M  V30 24833 C 2292.82 1.17108 -3.20154 0
M  V30 24834 H 2294.01 -0.617341 -2.93477 0
M  V30 24835 H 2291.56 -0.358354 -1.52136 0
M  V30 24836 H 2292.3 1.93324 -2.60377 0
M  V30 24837 H 2292.08 0.6814 -3.86134 0
M  V30 24838 H 2293.57 1.67098 -3.82711 0
M  V30 24839 N 2294.01 1.53925 -0.338371 0
M  V30 24840 C 2294.94 2.2779 0.51324 0
M  V30 24841 C 2295.92 1.29151 1.10698 0
M  V30 24842 O 2297.11 1.57986 1.12934 0
M  V30 24843 C 2294.24 3.04682 1.66691 0
M  V30 24844 C 2293.19 4.10782 1.20176 0
M  V30 24845 C 2292.52 4.756 2.44355 0
M  V30 24846 C 2293.82 5.21403 0.305958 0
M  V30 24847 H 2295.51 2.99223 -0.102936 0
M  V30 24848 H 2293.06 1.4391 -0.0509472 0
M  V30 24849 H 2295.01 3.55092 2.26909 0
M  V30 24850 H 2293.73 2.30892 2.30991 0
M  V30 24851 H 2292.39 3.61277 0.622436 0
M  V30 24852 H 2292.04 3.98408 3.0705 0
M  V30 24853 H 2291.74 5.47279 2.13916 0
M  V30 24854 H 2293.27 5.28791 3.05307 0
M  V30 24855 H 2294.68 5.6748 0.814829 0
M  V30 24856 H 2293.08 6.00027 0.0936874 0
M  V30 24857 H 2294.15 4.80397 -0.659294 0
M  V30 24858 N 2295.49 0.0668712 1.57458 0
M  V30 24859 C 2296.74 -0.604266 1.93588 0
M  V30 24860 C 2297.07 -1.69559 0.946752 0
M  V30 24861 O 2296.34 -1.94484 -0.0248174 0
M  V30 24862 C 2296.63 -1.18579 3.40016 0
M  V30 24863 C 2296.48 -0.10145 4.49686 0
M  V30 24864 C 2297.8 -2.09277 3.87158 0
M  V30 24865 H 2294.92 -0.21819 0.703962 0
M  V30 24866 H 2297.56 0.131837 1.89542 0
M  V30 24867 H 2295.71 -1.81313 3.43595 0
M  V30 24868 H 2297.38 0.53136 4.58229 0
M  V30 24869 H 2295.62 0.568562 4.30058 0
M  V30 24870 H 2296.3 -0.548643 5.49267 0
M  V30 24871 H 2298.77 -1.56485 3.85554 0
M  V30 24872 H 2297.65 -2.46903 4.90235 0
M  V30 24873 H 2297.91 -2.99912 3.24816 0
M  V30 24874 N 2296.97 -1.56239 -0.206647 0
M  V30 24875 C 2298.38 -1.49565 -0.556998 0
M  V30 24876 C 2298.58 -0.764768 -1.86423 0
M  V30 24877 O 2297.64 -0.310535 -2.50583 0
M  V30 24878 C 2298.95 -2.94188 -0.622427 0
M  V30 24879 C 2300.5 -3.04793 -0.712046 0
M  V30 24880 C 2300.98 -4.50804 -0.808688 0
M  V30 24881 N 2302.47 -4.54908 -0.87252 0
M  V30 24882 C 2303.2 -5.65183 -0.967266 0
M  V30 24883 N 2302.7 -6.85175 -1.02503 0
M  V30 24884 N 2304.49 -5.53069 -1.00356 0
M  V30 24885 H 2296.64 -2.02178 0.650978 0
M  V30 24886 H 2298.9 -0.919575 0.230403 0
M  V30 24887 H 2298.61 -3.50671 0.268788 0
M  V30 24888 H 2298.48 -3.46908 -1.48104 0
M  V30 24889 H 2300.87 -2.48365 -1.5937 0
M  V30 24890 H 2300.95 -2.55217 0.172534 0
M  V30 24891 H 2300.6 -5.07854 0.0685647 0
M  V30 24892 H 2300.53 -4.98101 -1.7089 0
M  V30 24893 H 2303.02 -3.68501 -0.837592 0
M  V30 24894 H 2303.33 -7.64967 -1.09752 0
M  V30 24895 H 2301.68 -6.87856 -0.993905 0
M  V30 24896 H 2304.87 -4.58251 -0.955189 0
M  V30 24897 H 2305.04 -6.39039 -1.07394 0
M  V30 24898 N 2298.45 0.473929 -1.50305 0
M  V30 24899 C 2299.67 1.24957 -1.64904 0
M  V30 24900 C 2300.09 1.85872 -0.331231 0
M  V30 24901 O 2299.45 1.69096 0.68649 0
M  V30 24902 C 2299.5 2.36033 -2.73807 0
M  V30 24903 O 2299.22 1.77617 -4.0048 0
M  V30 24904 C 2300.72 3.26958 -2.99354 0
M  V30 24905 H 2297.94 0.378013 -0.554389 0
M  V30 24906 H 2300.48 0.566019 -1.96511 0
M  V30 24907 H 2298.64 3.00169 -2.44903 0
M  V30 24908 H 2299.05 2.50742 -4.60683 0
M  V30 24909 H 2300.53 4.01115 -3.79224 0
M  V30 24910 H 2301 3.8557 -2.10314 0
M  V30 24911 H 2301.61 2.68563 -3.29779 0
M  V30 24912 N 2299.92 1.39835 0.726907 0
M  V30 24913 C 2300.89 1.38966 1.82267 0
M  V30 24914 C 2301.89 0.285362 1.58248 0
M  V30 24915 O 2303.08 0.543689 1.65498 0
M  V30 24916 C 2300.21 1.17025 3.20184 0
M  V30 24917 H 2301.4 2.36479 1.84439 0
M  V30 24918 H 2298.95 1.25518 0.931393 0
M  V30 24919 H 2299.69 0.202261 3.23669 0
M  V30 24920 H 2299.47 1.97003 3.39016 0
M  V30 24921 H 2300.96 1.19177 4.00233 0
M  V30 24922 N 2301.4 -0.957948 1.25144 0
M  V30 24923 C 2302.33 -2.07171 1.07715 0
M  V30 24924 C 2303.31 -1.70095 -0.0128163 0
M  V30 24925 O 2304.5 -1.93572 0.156095 0
M  V30 24926 C 2301.63 -3.40345 0.691562 0
M  V30 24927 C 2300.58 -3.91416 1.73139 0
M  V30 24928 C 2299.91 -5.21047 1.20059 0
M  V30 24929 C 2301.21 -4.18164 3.12947 0
M  V30 24930 H 2302.9 -2.22011 2.00877 0
M  V30 24931 H 2300.45 -1.06682 0.96721 0
M  V30 24932 H 2302.4 -4.17708 0.556578 0
M  V30 24933 H 2301.12 -3.25434 -0.275761 0
M  V30 24934 H 2299.78 -3.16219 1.85476 0
M  V30 24935 H 2299.43 -5.02503 0.223587 0
M  V30 24936 H 2299.13 -5.56186 1.89554 0
M  V30 24937 H 2300.66 -6.0101 1.07792 0
M  V30 24938 H 2302.07 -4.86198 3.03783 0
M  V30 24939 H 2300.47 -4.64552 3.79883 0
M  V30 24940 H 2301.54 -3.24567 3.60256 0
M  V30 24941 N 2302.88 -1.06677 -1.16008 0
M  V30 24942 C 2303.83 -0.681006 -2.20524 0
M  V30 24943 C 2304.8 0.324255 -1.62904 0
M  V30 24944 O 2305.98 0.21226 -1.89616 0
M  V30 24945 C 2303.12 -0.0777158 -3.45012 0
M  V30 24946 C 2302.23 -1.13362 -4.16861 0
M  V30 24947 C 2301.37 -0.496063 -5.28879 0
M  V30 24948 C 2300.41 -1.53524 -5.92534 0
M  V30 24949 N 2299.55 -0.920754 -6.96036 0
M  V30 24950 H 2304.39 -1.57667 -2.52874 0
M  V30 24951 H 2301.92 -0.788245 -1.24198 0
M  V30 24952 H 2303.88 0.28963 -4.16193 0
M  V30 24953 H 2302.51 0.781338 -3.13201 0
M  V30 24954 H 2301.56 -1.61863 -3.44245 0
M  V30 24955 H 2302.87 -1.92182 -4.6029 0
M  V30 24956 H 2302.03 -0.0759671 -6.06652 0
M  V30 24957 H 2300.77 0.323976 -4.86623 0
M  V30 24958 H 2299.77 -1.96519 -5.13479 0
M  V30 24959 H 2301 -2.35744 -6.36869 0
M  V30 24960 H 2298.94 -0.121495 -6.55887 0
M  V30 24961 H 2298.86 -1.64629 -7.37857 0
M  V30 24962 H 2300.13 -0.525932 -7.77724 0
M  V30 24963 N 2304.36 1.32719 -0.8499 0
M  V30 24964 C 2305.61 1.9668 -0.447209 0
M  V30 24965 C 2305.92 1.68027 1.00132 0
M  V30 24966 O 2307.13 2.25688 1.50922 0
M  V30 24967 C 2305.58 3.52025 -0.748762 0
M  V30 24968 C 2305.19 3.89542 -2.21271 0
M  V30 24969 C 2306.93 4.22481 -0.413562 0
M  V30 24970 C 2304.84 5.37912 -2.45773 0
M  V30 24971 H 2303.77 0.73606 -0.163499 0
M  V30 24972 H 2306.42 1.51181 -1.04002 0
M  V30 24973 H 2304.8 3.95908 -0.0854423 0
M  V30 24974 H 2305.98 3.56684 -2.91742 0
M  V30 24975 H 2304.29 3.32099 -2.51196 0
M  V30 24976 H 2306.89 5.31609 -0.574111 0
M  V30 24977 H 2307.23 4.11282 0.64442 0
M  V30 24978 H 2307.77 3.84165 -1.03257 0
M  V30 24979 H 2304.5 5.54126 -3.50177 0
M  V30 24980 H 2304.02 5.72193 -1.79874 0
M  V30 24981 H 2305.7 6.04936 -2.29482 0
M  V30 24982 N 2305.84 0.60738 1.45426 0
M  V30 24983 C 2306.78 -0.111584 2.3053 0
M  V30 24984 C 2307.75 -0.860191 1.42091 0
M  V30 24985 O 2308.94 -0.845968 1.71021 0
M  V30 24986 C 2306.08 -1.10313 3.26994 0
M  V30 24987 C 2305.19 -0.355417 4.30535 0
M  V30 24988 C 2304.33 -1.33667 5.14108 0
M  V30 24989 C 2303.37 -0.576755 6.09377 0
M  V30 24990 N 2302.5 -1.50728 6.8573 0
M  V30 24991 H 2307.34 0.620145 2.91476 0
M  V30 24992 H 2304.88 0.317619 1.4363 0
M  V30 24993 H 2306.84 -1.69114 3.81388 0
M  V30 24994 H 2305.47 -1.80227 2.67802 0
M  V30 24995 H 2304.52 0.348089 3.78804 0
M  V30 24996 H 2305.83 0.23751 4.98234 0
M  V30 24997 H 2304.99 -1.99674 5.72901 0
M  V30 24998 H 2303.72 -1.96353 4.46427 0
M  V30 24999 H 2302.73 0.0969486 5.49715 0
M  V30 25000 H 2303.95 0.0450534 6.79085 0
M  V30 25001 H 2301.9 -2.12179 6.20738 0
M  V30 25002 H 2301.82 -0.967781 7.4978 0
M  V30 25003 H 2303.09 -2.15693 7.49064 0
M  V30 25004 N 2307.31 -1.53743 0.34653 0
M  V30 25005 C 2308.54 -2.0538 -0.250374 0
M  V30 25006 C 2308.96 -1.22131 -1.43977 0
M  V30 25007 O 2308.31 -0.257353 -1.80676 0
M  V30 25008 C 2308.37 -3.55377 -0.662512 0
M  V30 25009 O 2308.09 -4.35467 0.479592 0
M  V30 25010 C 2309.59 -4.23197 -1.31982 0
M  V30 25011 H 2306.81 -0.669295 -0.047808 0
M  V30 25012 H 2309.35 -1.98309 0.499381 0
M  V30 25013 H 2307.51 -3.62661 -1.36221 0
M  V30 25014 H 2307.92 -5.24284 0.150462 0
M  V30 25015 H 2309.39 -5.2953 -1.55892 0
M  V30 25016 H 2309.87 -3.75729 -2.2743 0
M  V30 25017 H 2310.48 -4.20115 -0.66208 0
M  V30 25018 N 2308.79 -0.0752207 -1.5742 0
M  V30 25019 C 2309.7 0.905473 -2.16422 0
M  V30 25020 C 2310.72 1.32459 -1.1283 0
M  V30 25021 O 2311.89 1.39659 -1.45112 0
M  V30 25022 C 2308.96 2.15365 -2.71696 0
M  V30 25023 C 2308.02 1.79061 -3.90174 0
M  V30 25024 C 2307.25 2.97928 -4.42803 0
M  V30 25025 O 2307.48 4.12051 -3.94423 0
M  V30 25026 O 2306.41 2.77546 -5.3409 0
M  V30 25027 H 2310.24 0.433573 -3.00589 0
M  V30 25028 H 2307.82 0.148041 -1.48665 0
M  V30 25029 H 2309.7 2.88551 -3.07109 0
M  V30 25030 H 2308.38 2.61646 -1.90587 0
M  V30 25031 H 2307.29 1.03116 -3.59608 0
M  V30 25032 H 2308.62 1.3756 -4.72587 0
M  V30 25033 N 2310.27 1.56347 0.198358 0
M  V30 25034 C 2311.52 1.80076 0.917439 0
M  V30 25035 C 2311.84 0.647725 1.83928 0
M  V30 25036 O 2311.11 -0.334132 1.93029 0
M  V30 25037 H 2309.69 0.664234 0.341762 0
M  V30 25038 H 2312.35 1.93823 0.20465 0
M  V30 25039 H 2311.45 2.73112 1.5105 0
M  V30 25040 N 2311.75 -0.465951 1.50554 0
M  V30 25041 C 2312.7 -1.58403 1.70327 0
M  V30 25042 C 2313.69 -1.59552 0.569167 0
M  V30 25043 O 2314.9 -1.6364 0.749805 0
M  V30 25044 H 2311.27 -0.525724 0.537697 0
M  V30 25045 H 2313.24 -1.3889 2.64106 0
M  V30 25046 C 2311.99 -2.96303 1.81933 0
M  V30 25047 H 2311.31 -2.9614 2.68592 0
M  V30 25048 H 2312.75 -3.73978 1.99791 0
M  V30 25049 C 2311.21 -3.32006 0.572153 0
M  V30 25050 O 2311.74 -4.00678 -0.286346 0
M  V30 25051 N 2309.95 -2.8748 0.424656 0
M  V30 25052 H 2309.5 -2.31769 1.12431 0
M  V30 25053 H 2309.45 -3.11733 -0.408642 0
M  V30 25054 N 2313.23 -1.40218 -0.719481 0
M  V30 25055 C 2314.16 -1.42925 -1.84647 0
M  V30 25056 C 2315.14 -0.290649 -1.67598 0
M  V30 25057 O 2316.32 -0.49871 -1.87687 0
M  V30 25058 C 2313.45 -1.28728 -3.22562 0
M  V30 25059 C 2312.41 -2.4015 -3.54277 0
M  V30 25060 C 2311.73 -2.11032 -4.91294 0
M  V30 25061 C 2313.03 -3.82487 -3.5567 0
M  V30 25062 H 2314.73 -2.37241 -1.8264 0
M  V30 25063 H 2312.27 -1.14192 -0.877285 0
M  V30 25064 H 2314.23 -1.29239 -4.01093 0
M  V30 25065 H 2312.95 -0.308868 -3.25136 0
M  V30 25066 H 2311.61 -2.38882 -2.78084 0
M  V30 25067 H 2311.26 -1.11591 -4.90466 0
M  V30 25068 H 2310.96 -2.85679 -5.1348 0
M  V30 25069 H 2312.48 -2.13219 -5.72163 0
M  V30 25070 H 2313.89 -3.856 -4.24247 0
M  V30 25071 H 2312.29 -4.56621 -3.8938 0
M  V30 25072 H 2313.36 -4.12351 -2.55137 0
M  V30 25073 N 2314.7 0.951297 -1.25651 0
M  V30 25074 C 2315.61 2.08222 -1.08077 0
M  V30 25075 C 2316.63 1.73992 -0.0169971 0
M  V30 25076 O 2317.81 2.0021 -0.218628 0
M  V30 25077 C 2314.87 3.39457 -0.704982 0
M  V30 25078 C 2313.93 3.87534 -1.84706 0
M  V30 25079 C 2313.17 5.12505 -1.48911 0
M  V30 25080 O 2313.39 5.69091 -0.386256 0
M  V30 25081 O 2312.32 5.55373 -2.32043 0
M  V30 25082 H 2316.15 2.25951 -2.02928 0
M  V30 25083 H 2313.73 1.06654 -1.0462 0
M  V30 25084 H 2315.62 4.18331 -0.507683 0
M  V30 25085 H 2314.29 3.2299 0.214234 0
M  V30 25086 H 2313.2 3.09649 -2.09924 0
M  V30 25087 H 2314.53 4.08504 -2.74564 0
M  V30 25088 N 2316.18 1.07291 1.1544 0
M  V30 25089 C 2317.11 0.650624 2.19772 0
M  V30 25090 C 2318.13 -0.296544 1.60076 0
M  V30 25091 O 2319.32 -0.0859592 1.78293 0
M  V30 25092 C 2316.42 -0.0649803 3.38838 0
M  V30 25093 C 2315.59 0.898216 4.28078 0
M  V30 25094 C 2314.65 0.220019 5.2574 0
M  V30 25095 O 2313.67 0.860871 5.62652 0
M  V30 25096 N 2314.88 -1.03455 5.71207 0
M  V30 25097 H 2317.64 1.54812 2.56619 0
M  V30 25098 H 2315.2 0.957517 1.3055 0
M  V30 25099 H 2317.19 -0.529344 4.01223 0
M  V30 25100 H 2315.76 -0.864414 3.00411 0
M  V30 25101 H 2314.98 1.54171 3.62801 0
M  V30 25102 H 2316.27 1.55129 4.84574 0
M  V30 25103 H 2315.67 -1.57517 5.43328 0
M  V30 25104 H 2314.23 -1.44261 6.35635 0
M  V30 25105 N 2317.66 -1.32267 0.856927 0
M  V30 25106 C 2318.62 -2.27118 0.308211 0
M  V30 25107 C 2319.62 -1.51696 -0.533394 0
M  V30 25108 O 2320.81 -1.70758 -0.344577 0
M  V30 25109 C 2317.95 -3.36207 -0.563698 0
M  V30 25110 H 2319.14 -2.77165 1.1454 0
M  V30 25111 H 2316.69 -1.42977 0.631446 0
M  V30 25112 H 2317.43 -2.91432 -1.42261 0
M  V30 25113 H 2317.21 -3.92081 0.0387439 0
M  V30 25114 H 2318.7 -4.06876 -0.940315 0
M  V30 25115 N 2319.14 -0.615084 -1.45102 0
M  V30 25116 C 2320.09 0.11175 -2.32331 0
M  V30 25117 C 2321.08 0.852076 -1.4641 0
M  V30 25118 O 2322.29 0.766793 -1.62851 0
M  V30 25119 H 2318.66 0.0548941 -0.749994 0
M  V30 25120 H 2320.63 -0.642276 -2.91406 0
M  V30 25121 C 2319.38 1.09065 -3.30152 0
M  V30 25122 H 2318.7 0.530415 -3.96266 0
M  V30 25123 H 2320.14 1.56901 -3.93901 0
M  V30 25124 C 2318.6 2.16795 -2.57879 0
M  V30 25125 O 2319.13 3.24648 -2.36573 0
M  V30 25126 N 2317.34 1.92285 -2.17887 0
M  V30 25127 H 2316.89 1.04583 -2.35415 0
M  V30 25128 H 2316.84 2.64569 -1.69855 0
M  V30 25129 N 2320.62 1.53557 -0.354678 0
M  V30 25130 C 2321.53 2.29098 0.50511 0
M  V30 25131 C 2322.54 1.34638 1.10221 0
M  V30 25132 O 2323.72 1.67686 1.1155 0
M  V30 25133 C 2320.78 3.0574 1.63474 0
M  V30 25134 C 2319.85 4.15847 1.06629 0
M  V30 25135 C 2319.08 4.88826 2.14208 0
M  V30 25136 O 2319.3 4.61568 3.35129 0
M  V30 25137 O 2318.24 5.75016 1.77877 0
M  V30 25138 H 2322.06 3.03503 -0.10929 0
M  V30 25139 H 2319.65 1.48922 -0.119384 0
M  V30 25140 H 2321.53 3.53634 2.29174 0
M  V30 25141 H 2320.2 2.34182 2.23474 0
M  V30 25142 H 2319.11 3.72231 0.373499 0
M  V30 25143 H 2320.44 4.8954 0.510995 0
M  V30 25144 N 2322.1 0.083568 1.57378 0
M  V30 25145 C 2323.01 -0.893982 2.16899 0
M  V30 25146 C 2324.02 -1.31859 1.13531 0
M  V30 25147 O 2325.2 -1.38887 1.4585 0
M  V30 25148 C 2322.26 -2.13921 2.72835 0
M  V30 25149 C 2321.32 -1.7699 3.91118 0
M  V30 25150 C 2320.56 -2.95576 4.44377 0
M  V30 25151 O 2320.78 -4.09954 3.96603 0
M  V30 25152 O 2319.71 -2.7471 5.35554 0
M  V30 25153 H 2323.54 -0.417626 3.00815 0
M  V30 25154 H 2321.12 -0.140155 1.48741 0
M  V30 25155 H 2323.01 -2.86919 3.08635 0
M  V30 25156 H 2321.68 -2.60631 1.91972 0
M  V30 25157 H 2320.59 -1.01208 3.6015 0
M  V30 25158 H 2321.92 -1.35052 4.73309 0
M  V30 25159 N 2323.57 -1.5645 -0.190064 0
M  V30 25160 C 2324.5 -1.97971 -1.23813 0
M  V30 25161 C 2325.48 -0.85242 -1.472 0
M  V30 25162 O 2326.67 -1.11712 -1.58852 0
M  V30 25163 C 2323.8 -2.32354 -2.58126 0
M  V30 25164 C 2322.75 -3.47868 -2.49342 0
M  V30 25165 C 2322.08 -3.67941 -3.87974 0
M  V30 25166 C 2323.38 -4.81901 -2.01416 0
M  V30 25167 H 2325.07 -2.85771 -0.89306 0
M  V30 25168 H 2322.62 -1.37488 -0.428153 0
M  V30 25169 H 2324.57 -2.59997 -3.31632 0
M  V30 25170 H 2323.3 -1.41443 -2.94383 0
M  V30 25171 H 2321.96 -3.20324 -1.78291 0
M  V30 25172 H 2321.6 -2.74352 -4.21592 0
M  V30 25173 H 2321.3 -4.45654 -3.8297 0
M  V30 25174 H 2322.83 -3.97965 -4.63094 0
M  V30 25175 H 2324.24 -5.08542 -2.64684 0
M  V30 25176 H 2322.64 -5.6312 -2.07403 0
M  V30 25177 H 2323.71 -4.75148 -0.967593 0
M  V30 25178 N 2325.05 0.45796 -1.50799 0
M  V30 25179 C 2326.47 0.792795 -1.38517 0
M  V30 25180 C 2326.67 1.96378 -0.451443 0
M  V30 25181 O 2325.72 2.52298 0.101076 0
M  V30 25182 C 2327.04 1.09253 -2.80151 0
M  V30 25183 C 2328.58 1.1982 -2.89158 0
M  V30 25184 C 2329.06 1.53098 -4.31654 0
M  V30 25185 N 2330.55 1.60064 -4.34665 0
M  V30 25186 C 2331.29 1.87345 -5.41931 0
M  V30 25187 N 2330.78 2.12556 -6.59387 0
M  V30 25188 N 2332.57 1.88956 -5.29388 0
M  V30 25189 H 2324.73 -0.313548 -2.10073 0
M  V30 25190 H 2326.99 -0.0778028 -0.944802 0
M  V30 25191 H 2326.69 0.305022 -3.50375 0
M  V30 25192 H 2326.57 2.02544 -3.18207 0
M  V30 25193 H 2328.96 1.97636 -2.19144 0
M  V30 25194 H 2329.04 0.244776 -2.54626 0
M  V30 25195 H 2328.68 0.758178 -5.02209 0
M  V30 25196 H 2328.61 2.49613 -4.63682 0
M  V30 25197 H 2331.1 1.42567 -3.49976 0
M  V30 25198 H 2331.41 2.32684 -7.36938 0
M  V30 25199 H 2329.76 2.09921 -6.62539 0
M  V30 25200 H 2332.95 1.68765 -4.36619 0
M  V30 25201 H 2333.12 2.0988 -6.1307 0
M  V30 25202 N 2326.53 1.40598 0.712035 0
M  V30 25203 C 2327.49 1.40891 1.80783 0
M  V30 25204 C 2328.49 0.30213 1.57936 0
M  V30 25205 O 2329.68 0.561211 1.64912 0
M  V30 25206 C 2326.81 1.20414 3.18925 0
M  V30 25207 H 2328.01 2.38422 1.8192 0
M  V30 25208 H 2325.56 1.26499 0.918028 0
M  V30 25209 H 2326.3 0.236579 3.23436 0
M  V30 25210 H 2326.08 2.00588 3.36908 0
M  V30 25211 H 2327.57 1.23415 3.98947 0
M  V30 25212 N 2328.01 -0.94462 1.26153 0
M  V30 25213 C 2329.25 -1.69292 1.1166 0
M  V30 25214 C 2329.59 -1.91202 -0.339893 0
M  V30 25215 O 2328.86 -1.49021 -1.24992 0
M  V30 25216 C 2329.14 -3.06981 1.88242 0
M  V30 25217 C 2329 -2.92418 3.41777 0
M  V30 25218 C 2330.32 -4.0704 1.6735 0
M  V30 25219 H 2327.44 -0.614417 0.407015 0
M  V30 25220 H 2330.08 -1.09735 1.55108 0
M  V30 25221 H 2328.23 -3.57821 1.51315 0
M  V30 25222 H 2329.9 -2.48825 3.88438 0
M  V30 25223 H 2328.14 -2.28118 3.68978 0
M  V30 25224 H 2328.81 -3.9006 3.90586 0
M  V30 25225 H 2331.29 -3.65148 1.99515 0
M  V30 25226 H 2330.17 -5.01402 2.23354 0
M  V30 25227 H 2330.43 -4.3777 0.617235 0
M  V30 25228 N 2329.49 -1.07901 -1.1487 0
M  V30 25229 C 2330.73 -0.800531 -1.85133 0
M  V30 25230 C 2331.05 0.675982 -1.83548 0
M  V30 25231 O 2332.25 1.06944 -2.4955 0
M  V30 25232 C 2330.71 -1.38203 -3.32307 0
M  V30 25233 C 2330.32 -2.88996 -3.42323 0
M  V30 25234 C 2332.06 -1.18181 -4.07717 0
M  V30 25235 C 2329.97 -3.40309 -4.83678 0
M  V30 25236 H 2328.9 -0.295792 -0.693558 0
M  V30 25237 H 2331.55 -1.29978 -1.29529 0
M  V30 25238 H 2329.93 -0.8105 -3.87617 0
M  V30 25239 H 2331.11 -3.52241 -2.97091 0
M  V30 25240 H 2329.42 -3.07872 -2.80364 0
M  V30 25241 H 2332.02 -1.53989 -5.12046 0
M  V30 25242 H 2332.36 -0.121244 -4.16123 0
M  V30 25243 H 2332.89 -1.72 -3.58693 0
M  V30 25244 H 2329.63 -4.45916 -4.80458 0
M  V30 25245 H 2329.15 -2.8182 -5.29469 0
M  V30 25246 H 2330.83 -3.36593 -5.52552 0
M  V30 25247 N 2330.96 1.31811 -0.863929 0
M  V30 25248 C 2331.91 2.28663 -0.313343 0
M  V30 25249 C 2332.88 1.55463 0.584841 0
M  V30 25250 O 2334.07 1.8364 0.517773 0
M  V30 25251 C 2331.21 3.41684 0.48435 0
M  V30 25252 C 2330.32 4.29747 -0.440669 0
M  V30 25253 C 2329.45 5.29906 0.370558 0
M  V30 25254 C 2328.49 6.09613 -0.551272 0
M  V30 25255 N 2327.63 7.01745 0.223339 0
M  V30 25256 H 2332.47 2.75146 -1.14449 0
M  V30 25257 H 2330.01 1.35363 -0.575793 0
M  V30 25258 H 2331.96 4.05944 0.962555 0
M  V30 25259 H 2330.59 2.96327 1.28024 0
M  V30 25260 H 2329.65 3.65984 -1.0373 0
M  V30 25261 H 2330.96 4.85415 -1.14776 0
M  V30 25262 H 2330.11 5.99813 0.911533 0
M  V30 25263 H 2328.85 4.74878 1.11097 0
M  V30 25264 H 2327.86 5.38601 -1.10405 0
M  V30 25265 H 2329.08 6.66727 -1.29044 0
M  V30 25266 H 2327.03 6.49133 0.946672 0
M  V30 25267 H 2326.94 7.54807 -0.424532 0
M  V30 25268 H 2328.21 7.75925 0.745739 0
M  V30 25269 N 2332.44 0.62277 1.44773 0
M  V30 25270 C 2333.39 -0.0871274 2.30635 0
M  V30 25271 C 2334.36 -0.845072 1.42996 0
M  V30 25272 O 2335.54 -0.827782 1.71908 0
M  V30 25273 C 2332.68 -1.06839 3.28146 0
M  V30 25274 C 2331.8 -0.309733 4.30888 0
M  V30 25275 C 2330.93 -1.28206 5.15496 0
M  V30 25276 C 2329.97 -0.51209 6.09954 0
M  V30 25277 N 2329.11 -1.43446 6.8729 0
M  V30 25278 H 2333.95 0.651025 2.90802 0
M  V30 25279 H 2331.48 0.332835 1.43285 0
M  V30 25280 H 2333.44 -1.65059 3.8316 0
M  V30 25281 H 2332.07 -1.77377 2.69699 0
M  V30 25282 H 2331.12 0.388247 3.78414 0
M  V30 25283 H 2332.44 0.290341 4.97954 0
M  V30 25284 H 2331.59 -1.93586 5.74986 0
M  V30 25285 H 2330.33 -1.91607 4.48484 0
M  V30 25286 H 2329.33 0.155248 5.49581 0
M  V30 25287 H 2330.56 0.117077 6.78999 0
M  V30 25288 H 2328.51 -2.05583 6.22954 0
M  V30 25289 H 2328.42 -0.888203 7.50764 0
M  V30 25290 H 2329.69 -2.07736 7.51309 0
M  V30 25291 N 2333.92 -1.53367 0.362817 0
M  V30 25292 C 2335.17 -2.00398 -0.228845 0
M  V30 25293 C 2335.48 -1.25424 -1.50094 0
M  V30 25294 O 2336.69 -1.63029 -2.17103 0
M  V30 25295 C 2335.14 -3.56969 -0.458354 0
M  V30 25296 C 2334.75 -4.40818 0.798955 0
M  V30 25297 C 2336.5 -4.12363 -1.00782 0
M  V30 25298 C 2334.4 -5.88937 0.539182 0
M  V30 25299 H 2333.33 -0.748694 -0.0892919 0
M  V30 25300 H 2335.98 -1.7708 0.48113 0
M  V30 25301 H 2334.37 -3.76429 -1.22952 0
M  V30 25302 H 2335.54 -4.33131 1.5727 0
M  V30 25303 H 2333.85 -3.96514 1.27144 0
M  V30 25304 H 2336.45 -5.20656 -1.21745 0
M  V30 25305 H 2336.79 -3.66784 -1.96914 0
M  V30 25306 H 2337.33 -3.96691 -0.296891 0
M  V30 25307 H 2334.07 -6.38787 1.47075 0
M  V30 25308 H 2333.59 -5.99479 -0.196116 0
M  V30 25309 H 2335.27 -6.46793 0.163655 0
M  V30 25310 N 2335.4 -0.091913 -1.57332 0
M  V30 25311 C 2336.64 0.567279 -1.95329 0
M  V30 25312 C 2337 1.6599 -0.972895 0
M  V30 25313 O 2336.29 1.916 0.00162888 0
M  V30 25314 C 2336.49 1.17045 -3.37691 0
M  V30 25315 C 2336.32 0.137796 -4.49489 0
M  V30 25316 C 2335.09 -0.284604 -5.04498 0
M  V30 25317 C 2337.28 -0.6328 -5.10392 0
M  V30 25318 N 2335.27 -1.30586 -5.9985 0
M  V30 25319 C 2336.64 -1.50598 -6.01432 0
M  V30 25320 C 2338.69 -0.686667 -4.93142 0
M  V30 25321 C 2337.39 -2.42827 -6.77073 0
M  V30 25322 C 2339.42 -1.59656 -5.69442 0
M  V30 25323 C 2338.78 -2.45736 -6.60146 0
M  V30 25324 H 2334.88 0.178009 -0.76147 0
M  V30 25325 H 2337.47 -0.17374 -1.93923 0
M  V30 25326 H 2335.64 1.88131 -3.39796 0
M  V30 25327 H 2337.37 1.79175 -3.62875 0
M  V30 25328 H 2334.12 0.10251 -4.73489 0
M  V30 25329 H 2334.55 -1.8146 -6.52228 0
M  V30 25330 H 2339.19 -0.0353183 -4.22785 0
M  V30 25331 H 2336.91 -3.08988 -7.46694 0
M  V30 25332 H 2340.49 -1.64333 -5.58109 0
M  V30 25333 H 2339.37 -3.15 -7.18154 0
M  V30 25334 N 2336.88 1.56548 0.181765 0
M  V30 25335 C 2337.82 1.95597 1.22518 0
M  V30 25336 C 2338.79 0.818398 1.44539 0
M  V30 25337 O 2339.98 1.07766 1.57452 0
M  V30 25338 C 2337.12 2.31216 2.56189 0
M  V30 25339 C 2336.23 3.58101 2.41635 0
M  V30 25340 C 2335.37 3.82981 3.68102 0
M  V30 25341 C 2334.41 5.03248 3.48436 0
M  V30 25342 N 2333.54 5.24314 4.66947 0
M  V30 25343 H 2338.38 2.8455 0.885176 0
M  V30 25344 H 2335.92 1.40806 0.425694 0
M  V30 25345 H 2337.88 2.49888 3.34084 0
M  V30 25346 H 2336.51 1.45387 2.88206 0
M  V30 25347 H 2335.56 3.47403 1.5497 0
M  V30 25348 H 2336.87 4.46153 2.23045 0
M  V30 25349 H 2336.03 4.01964 4.54434 0
M  V30 25350 H 2334.76 2.93285 3.8966 0
M  V30 25351 H 2333.77 4.84175 2.6049 0
M  V30 25352 H 2334.99 5.94466 3.2831 0
M  V30 25353 H 2332.94 4.37567 4.88744 0
M  V30 25354 H 2332.86 6.06569 4.51231 0
M  V30 25355 H 2334.13 5.47766 5.54592 0
M  V30 25356 N 2338.35 -0.449957 1.5104 0
M  V30 25357 C 2339.3 -1.5452 1.71441 0
M  V30 25358 C 2340.27 -1.56521 0.555899 0
M  V30 25359 O 2341.46 -1.73727 0.788902 0
M  V30 25360 C 2338.6 -2.9234 1.83389 0
M  V30 25361 C 2337.71 -2.99965 3.10878 0
M  V30 25362 C 2336.84 -4.28829 3.13495 0
M  V30 25363 C 2335.88 -4.30274 4.35351 0
M  V30 25364 N 2335.02 -5.50643 4.35588 0
M  V30 25365 H 2339.86 -1.36428 2.64936 0
M  V30 25366 H 2337.4 -0.662959 1.31314 0
M  V30 25367 H 2339.36 -3.7229 1.88298 0
M  V30 25368 H 2337.99 -3.09018 0.93314 0
M  V30 25369 H 2337.04 -2.12755 3.1534 0
M  V30 25370 H 2338.35 -2.96893 4.00819 0
M  V30 25371 H 2337.5 -5.17143 3.1725 0
M  V30 25372 H 2336.24 -4.34539 2.21421 0
M  V30 25373 H 2335.25 -3.40354 4.31786 0
M  V30 25374 H 2336.47 -4.26239 5.28675 0
M  V30 25375 H 2334.42 -5.57098 3.46378 0
M  V30 25376 H 2334.34 -5.494 5.19323 0
M  V30 25377 H 2335.6 -6.41024 4.43518 0
M  V30 25378 N 2339.83 -1.40974 -0.704569 0
M  V30 25379 C 2341.06 -1.43184 -1.49352 0
M  V30 25380 C 2341.48 -0.034584 -1.88768 0
M  V30 25381 O 2340.83 0.944054 -1.56185 0
M  V30 25382 C 2340.88 -2.33249 -2.76183 0
M  V30 25383 O 2340.6 -3.67536 -2.3843 0
M  V30 25384 C 2342.11 -2.44168 -3.69996 0
M  V30 25385 H 2339.33 -0.48799 -0.46055 0
M  V30 25386 H 2341.87 -1.85154 -0.868228 0
M  V30 25387 H 2340.02 -1.94612 -3.3497 0
M  V30 25388 H 2340.44 -4.15481 -3.20118 0
M  V30 25389 H 2341.91 -3.11372 -4.55797 0
M  V30 25390 H 2342.39 -1.47013 -4.13864 0
M  V30 25391 H 2343 -2.83404 -3.17116 0
M  V30 25392 N 2341.31 0.937917 -1.26653 0
M  V30 25393 C 2342.54 1.72409 -1.15282 0
M  V30 25394 C 2342.96 1.85885 0.287833 0
M  V30 25395 O 2342.32 1.35145 1.20853 0
M  V30 25396 C 2342.37 3.10694 -1.83034 0
M  V30 25397 O 2341.47 3.96862 -1.12135 0
M  V30 25398 H 2340.81 0.528851 -0.401513 0
M  V30 25399 H 2343.34 1.17447 -1.67533 0
M  V30 25400 H 2343.35 3.61066 -1.89987 0
M  V30 25401 H 2342.03 3.00203 -2.87839 0
M  V30 25402 H 2340.6 3.5531 -1.13179 0
M  V30 25403 N 2342.79 1.08509 1.14296 0
M  V30 25404 C 2343.72 0.660043 2.18446 0
M  V30 25405 C 2344.7 -0.328721 1.59243 0
M  V30 25406 O 2345.88 -0.232334 1.87063 0
M  V30 25407 C 2343.01 -0.0290212 3.38688 0
M  V30 25408 C 2342.06 0.920056 4.16458 0
M  V30 25409 S 2342.89 2.42727 4.7733 0
M  V30 25410 C 2344.05 1.75034 6.00928 0
M  V30 25411 H 2344.28 1.54235 2.54163 0
M  V30 25412 H 2341.81 0.900171 1.25444 0
M  V30 25413 H 2343.77 -0.420306 4.08343 0
M  V30 25414 H 2342.43 -0.887842 3.01291 0
M  V30 25415 H 2341.62 0.38484 5.02529 0
M  V30 25416 H 2341.23 1.25229 3.52411 0
M  V30 25417 H 2343.52 1.06889 6.69015 0
M  V30 25418 H 2344.46 2.58983 6.5904 0
M  V30 25419 H 2344.87 1.22326 5.51087 0
M  V30 25420 N 2344.27 -1.31351 0.870907 0
M  V30 25421 C 2345.21 -2.28494 0.325465 0
M  V30 25422 C 2346.18 -1.55771 -0.576588 0
M  V30 25423 O 2347.37 -1.83912 -0.508026 0
M  V30 25424 C 2344.51 -3.41936 -0.466223 0
M  V30 25425 C 2343.62 -4.29507 0.463454 0
M  V30 25426 C 2342.76 -5.30095 -0.342451 0
M  V30 25427 C 2341.8 -6.09312 0.583593 0
M  V30 25428 N 2340.93 -7.01853 -0.18612 0
M  V30 25429 H 2345.77 -2.74536 1.15906 0
M  V30 25430 H 2343.31 -1.35055 0.582963 0
M  V30 25431 H 2345.27 -4.06449 -0.941013 0
M  V30 25432 H 2343.9 -2.97002 -1.26451 0
M  V30 25433 H 2342.95 -3.65429 1.05669 0
M  V30 25434 H 2344.26 -4.848 1.17349 0
M  V30 25435 H 2343.42 -6.00288 -0.87971 0
M  V30 25436 H 2342.15 -4.7546 -1.08577 0
M  V30 25437 H 2341.16 -5.38008 1.1326 0
M  V30 25438 H 2342.38 -6.66033 1.32578 0
M  V30 25439 H 2340.33 -6.49626 -0.912234 0
M  V30 25440 H 2340.25 -7.54571 0.464555 0
M  V30 25441 H 2341.52 -7.76309 -0.70458 0
M  V30 25442 N 2345.74 -0.630439 -1.44441 0
M  V30 25443 C 2346.67 0.0617672 -2.33418 0
M  V30 25444 C 2347.66 0.835515 -1.48166 0
M  V30 25445 O 2348.84 0.801533 -1.76887 0
M  V30 25446 C 2345.97 1.04443 -3.31223 0
M  V30 25447 C 2344.92 0.382361 -4.26289 0
M  V30 25448 C 2344.25 1.47488 -5.13957 0
M  V30 25449 C 2345.55 -0.710956 -5.17439 0
M  V30 25450 H 2347.24 -0.681236 -2.91547 0
M  V30 25451 H 2344.79 -0.329051 -1.4019 0
M  V30 25452 H 2346.74 1.53742 -3.92354 0
M  V30 25453 H 2345.47 1.81831 -2.71302 0
M  V30 25454 H 2344.13 -0.0899698 -3.6649 0
M  V30 25455 H 2343.77 2.23962 -4.50389 0
M  V30 25456 H 2343.47 1.03727 -5.78372 0
M  V30 25457 H 2345 1.96968 -5.77958 0
M  V30 25458 H 2346.41 -0.301097 -5.72509 0
M  V30 25459 H 2344.81 -1.07166 -5.90454 0
M  V30 25460 H 2345.88 -1.57837 -4.58493 0
M  V30 25461 N 2347.22 1.53172 -0.370945 0
M  V30 25462 C 2348.15 2.28827 0.464807 0
M  V30 25463 C 2349.13 1.3147 1.07933 0
M  V30 25464 O 2350.32 1.60346 1.09557 0
M  V30 25465 C 2347.45 3.0815 1.60191 0
M  V30 25466 C 2346.4 4.13238 1.11436 0
M  V30 25467 C 2345.73 4.80676 2.34211 0
M  V30 25468 C 2347.03 5.21935 0.195292 0
M  V30 25469 H 2348.72 2.98937 -0.166382 0
M  V30 25470 H 2346.27 1.43769 -0.0814612 0
M  V30 25471 H 2348.22 3.59825 2.19325 0
M  V30 25472 H 2346.95 2.35739 2.26041 0
M  V30 25473 H 2345.6 3.62516 0.545664 0
M  V30 25474 H 2345.25 4.04832 2.9853 0
M  V30 25475 H 2344.95 5.51693 2.02259 0
M  V30 25476 H 2346.48 5.35148 2.94022 0
M  V30 25477 H 2347.89 5.69081 0.694275 0
M  V30 25478 H 2346.29 6.00091 -0.0336082 0
M  V30 25479 H 2347.36 4.78891 -0.761045 0
M  V30 25480 N 2348.7 0.100255 1.57281 0
M  V30 25481 C 2349.98 -0.604779 1.86016 0
M  V30 25482 C 2350.36 -1.86016 0.998057 0
M  V30 25483 O 2349.71 -2.28387 0.0718585 0
M  V30 25484 C 2349.92 -0.915219 3.36786 0
M  V30 25485 C 2351.26 -1.27643 4.0496 0
M  V30 25486 O 2352.29 -1.00607 3.41697 0
M  V30 25487 O 2351.15 -1.783 5.16596 0
M  V30 25488 H 2348.24 -0.303171 0.769426 0
M  V30 25489 H 2350.79 0.133343 1.69175 0
M  V30 25490 H 2349.56 -0.0248208 3.91292 0
M  V30 25491 H 2349.18 -1.70914 3.5899 0
M  V30 25492 N 2350.18 -1.56643 -0.17346 0
M  V30 25493 C 2351.11 -1.92804 -1.23932 0
M  V30 25494 C 2352.12 -0.820914 -1.40588 0
M  V30 25495 O 2353.31 -1.09936 -1.40629 0
M  V30 25496 C 2350.41 -2.16378 -2.60833 0
M  V30 25497 C 2349.59 -3.47601 -2.65504 0
M  V30 25498 C 2348.65 -3.60027 -3.83754 0
M  V30 25499 O 2347.67 -4.32665 -3.69851 0
M  V30 25500 N 2348.87 -2.94718 -5.00122 0
M  V30 25501 H 2351.64 -2.84834 -0.932186 0
M  V30 25502 H 2349.2 -1.57773 -0.36324 0
M  V30 25503 H 2351.19 -2.21958 -3.38403 0
M  V30 25504 H 2349.76 -1.30743 -2.83946 0
M  V30 25505 H 2348.98 -3.53697 -1.74045 0
M  V30 25506 H 2350.27 -4.33954 -2.65634 0
M  V30 25507 H 2349.67 -2.35572 -5.14318 0
M  V30 25508 H 2348.22 -3.05896 -5.75561 0
M  V30 25509 N 2351.66 0.44194 -1.51277 0
M  V30 25510 C 2352.9 1.19352 -1.6396 0
M  V30 25511 C 2353.24 1.90973 -0.352577 0
M  V30 25512 O 2352.51 1.83402 0.647595 0
M  V30 25513 C 2352.79 2.21417 -2.83983 0
M  V30 25514 C 2352.65 1.5391 -4.22648 0
M  V30 25515 C 2353.97 3.22446 -2.99527 0
M  V30 25516 H 2351.09 0.432549 -0.596716 0
M  V30 25517 H 2353.73 0.483366 -1.83749 0
M  V30 25518 H 2351.88 2.81982 -2.67242 0
M  V30 25519 H 2353.55 0.967177 -4.51047 0
M  V30 25520 H 2351.79 0.84154 -4.25559 0
M  V30 25521 H 2352.46 2.2822 -5.02613 0
M  V30 25522 H 2354.94 2.71931 -3.14949 0
M  V30 25523 H 2353.82 3.91159 -3.85079 0
M  V30 25524 H 2354.08 3.88283 -2.11397 0
M  V30 25525 N 2353.14 1.41345 0.697083 0
M  V30 25526 C 2354.38 1.4083 1.45928 0
M  V30 25527 C 2354.71 0.0167439 1.94193 0
M  V30 25528 O 2353.99 -0.955233 1.69427 0
M  V30 25529 C 2354.27 2.41377 2.67224 0
M  V30 25530 C 2354.13 3.89634 2.24735 0
M  V30 25531 C 2355.44 2.39202 3.69419 0
M  V30 25532 H 2352.56 0.512852 0.529294 0
M  V30 25533 H 2355.21 1.7261 0.794082 0
M  V30 25534 H 2353.36 2.14407 3.23978 0
M  V30 25535 H 2355.03 4.27502 1.7332 0
M  V30 25536 H 2353.27 4.04573 1.56535 0
M  V30 25537 H 2353.94 4.55531 3.11762 0
M  V30 25538 H 2356.42 2.63133 3.22335 0
M  V30 25539 H 2355.29 3.11571 4.51901 0
M  V30 25540 H 2355.55 1.41008 4.1901 0
M  V30 25541 N 2354.61 -0.931187 1.27148 0
M  V30 25542 C 2356.02 -1.4934 1.12046 0
M  V30 25543 C 2356.38 -1.93958 -0.295761 0
M  V30 25544 O 2355.5 -1.80854 -1.18831 0
M  V30 25545 C 2356.1 -2.7141 2.02786 0
M  V30 25546 C 2354.65 -3.23867 1.918 0
M  V30 25547 C 2353.8 -1.96613 1.95547 0
M  V30 25548 H 2356.75 -0.745648 1.40092 0
M  V30 25549 H 2356.77 -3.46071 1.58162 0
M  V30 25550 H 2356.29 -2.38905 3.05853 0
M  V30 25551 H 2354.39 -3.61138 0.917055 0
M  V30 25552 H 2354.5 -3.90297 2.77858 0
M  V30 25553 H 2352.86 -2.12952 1.39726 0
M  V30 25554 H 2353.65 -1.66427 3.00262 0
M  V30 25555 N 2356.09 -1.09114 -1.13719 0
M  V30 25556 C 2357.5 -0.845097 -1.66478 0
M  V30 25557 C 2357.85 0.626977 -1.85912 0
M  V30 25558 O 2356.98 1.48338 -1.57559 0
M  V30 25559 C 2357.57 -1.52753 -3.0241 0
M  V30 25560 C 2356.13 -1.32855 -3.52174 0
M  V30 25561 C 2355.28 -1.58568 -2.27489 0
M  V30 25562 H 2358.23 -1.25073 -0.97685 0
M  V30 25563 H 2358.25 -0.958817 -3.68221 0
M  V30 25564 H 2357.76 -2.5989 -2.88234 0
M  V30 25565 H 2355.86 -0.278203 -3.7156 0
M  V30 25566 H 2355.98 -2.06118 -4.32495 0
M  V30 25567 H 2354.34 -1.00763 -2.33921 0
M  V30 25568 H 2355.12 -2.66927 -2.15881 0
M  V30 25569 N 2357.57 1.30887 -0.877861 0
M  V30 25570 C 2358.53 2.26599 -0.344305 0
M  V30 25571 C 2359.53 1.52525 0.509193 0
M  V30 25572 O 2360.72 1.71285 0.317368 0
M  V30 25573 C 2357.85 3.37061 0.510139 0
M  V30 25574 H 2359.05 2.75308 -1.18935 0
M  V30 25575 H 2356.6 1.41954 -0.654113 0
M  V30 25576 H 2357.34 2.93658 1.37606 0
M  V30 25577 H 2357.12 3.9197 -0.101116 0
M  V30 25578 H 2358.61 4.0832 0.875465 0
M  V30 25579 N 2359.05 0.638091 1.44105 0
M  V30 25580 C 2360.3 0.145079 2.01579 0
M  V30 25581 C 2360.62 -1.23997 1.50498 0
M  V30 25582 O 2359.89 -1.82526 0.711406 0
M  V30 25583 H 2358.47 0.0506431 0.745281 0
M  V30 25584 H 2361.13 0.826358 1.76514 0
M  V30 25585 H 2360.22 0.118094 3.11876 0
M  V30 25586 N 2360.53 -1.52973 0.379063 0
M  V30 25587 C 2361.8 -1.93818 -0.263445 0
M  V30 25588 C 2362.18 -1.31371 -1.65242 0
M  V30 25589 O 2361.53 -0.477895 -2.23447 0
M  V30 25590 C 2361.74 -3.47707 -0.300105 0
M  V30 25591 C 2363.09 -4.21229 -0.533987 0
M  V30 25592 O 2364.11 -3.54159 -0.380748 0
M  V30 25593 O 2362.97 -5.40108 -0.833407 0
M  V30 25594 H 2360.07 -0.81115 -0.161134 0
M  V30 25595 H 2362.61 -1.64087 0.432827 0
M  V30 25596 H 2361.38 -3.85465 0.673206 0
M  V30 25597 H 2361.01 -3.83711 -1.04172 0
M  V30 25598 N 2362 -0.108595 -1.57225 0
M  V30 25599 C 2363.28 0.594906 -1.86334 0
M  V30 25600 C 2363.66 1.85484 -1.00791 0
M  V30 25601 O 2363.01 2.28346 -0.0839694 0
M  V30 25602 C 2363.22 0.897346 -3.37267 0
M  V30 25603 C 2364.57 1.25494 -4.05631 0
M  V30 25604 O 2365.59 0.987938 -3.42225 0
M  V30 25605 O 2364.45 1.75558 -5.17534 0
M  V30 25606 H 2361.54 0.299087 -0.771023 0
M  V30 25607 H 2364.09 -0.142313 -1.69102 0
M  V30 25608 H 2362.86 0.00406928 -3.913 0
M  V30 25609 H 2362.48 1.69008 -3.59892 0
M  V30 25610 N 2363.48 1.56732 0.16515 0
M  V30 25611 C 2364.39 2.00127 1.22419 0
M  V30 25612 C 2365.41 0.913645 1.48083 0
M  V30 25613 O 2366.58 1.22175 1.6011 0
M  V30 25614 C 2363.65 2.35769 2.54193 0
M  V30 25615 C 2362.71 3.5839 2.36337 0
M  V30 25616 C 2361.94 3.92322 3.61827 0
M  V30 25617 O 2362.17 3.27143 4.67262 0
M  V30 25618 O 2361.1 4.85647 3.5557 0
M  V30 25619 H 2364.93 2.90494 0.885835 0
M  V30 25620 H 2362.51 1.44682 0.372492 0
M  V30 25621 H 2364.39 2.59635 3.31915 0
M  V30 25622 H 2363.07 1.48562 2.87595 0
M  V30 25623 H 2361.97 3.39734 1.56626 0
M  V30 25624 H 2363.31 4.46157 2.07857 0
M  V30 25625 N 2364.96 -0.433911 1.51509 0
M  V30 25626 C 2366.21 -1.18481 1.64591 0
M  V30 25627 C 2366.54 -1.90783 0.362699 0
M  V30 25628 O 2365.81 -1.83743 -0.637859 0
M  V30 25629 C 2366.1 -2.19908 2.85153 0
M  V30 25630 C 2365.95 -1.51667 4.23459 0
M  V30 25631 C 2367.27 -3.20853 3.01233 0
M  V30 25632 H 2364.39 -0.429378 0.599002 0
M  V30 25633 H 2367.03 -0.473615 1.84002 0
M  V30 25634 H 2365.18 -2.80561 2.68733 0
M  V30 25635 H 2366.85 -0.943243 4.51554 0
M  V30 25636 H 2365.1 -0.81896 4.25999 0
M  V30 25637 H 2365.77 -2.25551 5.03816 0
M  V30 25638 H 2368.24 -2.70257 3.16386 0
M  V30 25639 H 2367.12 -3.89111 3.87148 0
M  V30 25640 H 2367.38 -3.87156 2.13454 0
M  V30 25641 N 2366.44 -1.41713 -0.689577 0
M  V30 25642 C 2367.67 -1.4476 -1.47825 0
M  V30 25643 C 2368.08 -0.0546035 -1.88721 0
M  V30 25644 O 2367.44 0.927435 -1.57178 0
M  V30 25645 C 2367.49 -2.36165 -2.73694 0
M  V30 25646 O 2367.21 -3.70045 -2.34518 0
M  V30 25647 C 2368.71 -2.48079 -3.67385 0
M  V30 25648 H 2365.93 -0.492848 -0.455349 0
M  V30 25649 H 2368.48 -1.86065 -0.848541 0
M  V30 25650 H 2366.63 -1.98154 -3.32887 0
M  V30 25651 H 2367.04 -4.18853 -3.15694 0
M  V30 25652 H 2368.52 -3.16189 -4.52469 0
M  V30 25653 H 2369 -1.51395 -4.12282 0
M  V30 25654 H 2369.6 -2.86751 -3.14092 0
M  V30 25655 N 2367.92 0.924431 -1.2764 0
M  V30 25656 C 2369.16 1.67495 -1.14339 0
M  V30 25657 C 2369.5 1.91719 0.309431 0
M  V30 25658 O 2368.77 1.50991 1.22605 0
M  V30 25659 C 2369.05 3.03947 -1.93102 0
M  V30 25660 C 2368.91 2.86943 -3.46386 0
M  V30 25661 C 2370.23 4.04327 -1.73805 0
M  V30 25662 H 2367.34 0.607864 -0.416738 0
M  V30 25663 H 2369.99 1.07253 -1.56834 0
M  V30 25664 H 2368.14 3.55369 -1.56988 0
M  V30 25665 H 2369.81 2.42614 -3.92347 0
M  V30 25666 H 2368.05 2.22219 -3.72561 0
M  V30 25667 H 2368.72 3.83797 -3.96742 0
M  V30 25668 H 2371.2 3.61927 -2.05299 0
M  V30 25669 H 2370.07 4.97785 -2.31303 0
M  V30 25670 H 2370.34 4.36733 -0.686802 0
M  V30 25671 N 2369.39 1.09715 1.13139 0
M  V30 25672 C 2370.64 0.83337 1.84118 0
M  V30 25673 C 2370.96 -0.642871 1.84098 0
M  V30 25674 O 2370.23 -1.46653 1.29884 0
M  V30 25675 H 2368.81 0.305305 0.681761 0
M  V30 25676 H 2371.48 1.3859 1.37036 0
M  V30 25677 H 2370.57 1.18956 2.88541 0
M  V30 25678 N 2370.87 -1.30419 0.88479 0
M  V30 25679 C 2371.82 -2.28136 0.349682 0
M  V30 25680 C 2372.79 -1.56374 -0.560034 0
M  V30 25681 O 2373.97 -1.84441 -0.488492 0
M  V30 25682 C 2371.11 -3.42411 -0.429929 0
M  V30 25683 C 2370.23 -4.28991 0.508983 0
M  V30 25684 C 2369.36 -5.30428 -0.286208 0
M  V30 25685 C 2368.4 -6.08658 0.648186 0
M  V30 25686 N 2367.54 -7.02011 -0.111669 0
M  V30 25687 H 2372.38 -2.73291 1.18811 0
M  V30 25688 H 2369.92 -1.34429 0.597255 0
M  V30 25689 H 2371.87 -4.07424 -0.897851 0
M  V30 25690 H 2370.5 -2.98326 -1.23294 0
M  V30 25691 H 2369.56 -3.64287 1.09539 0
M  V30 25692 H 2370.87 -4.83528 1.22484 0
M  V30 25693 H 2370.02 -6.01188 -0.815992 0
M  V30 25694 H 2368.76 -4.76585 -1.03528 0
M  V30 25695 H 2367.77 -5.36776 1.1896 0
M  V30 25696 H 2368.99 -6.64589 1.39635 0
M  V30 25697 H 2366.94 -6.50557 -0.843281 0
M  V30 25698 H 2366.85 -7.54036 0.544561 0
M  V30 25699 H 2368.12 -7.77013 -0.622202 0
M  V30 25700 N 2372.35 -0.645724 -1.43764 0
M  V30 25701 C 2373.6 -0.156075 -2.01898 0
M  V30 25702 C 2373.93 1.22731 -1.50889 0
M  V30 25703 O 2373.18 1.83159 -0.689304 0
M  V30 25704 C 2373.48 -0.107742 -3.57238 0
M  V30 25705 C 2373.15 -1.43186 -4.27561 0
M  V30 25706 C 2371.81 -1.79448 -4.46489 0
M  V30 25707 C 2374.16 -2.30522 -4.6745 0
M  V30 25708 C 2371.49 -3.02725 -5.02568 0
M  V30 25709 C 2373.84 -3.53084 -5.24895 0
M  V30 25710 C 2372.5 -3.89551 -5.42039 0
M  V30 25711 H 2371.77 -0.057112 -0.738796 0
M  V30 25712 H 2374.42 -0.834943 -1.7234 0
M  V30 25713 H 2372.73 0.65455 -3.86294 0
M  V30 25714 H 2374.42 0.287868 -3.99965 0
M  V30 25715 H 2371.01 -1.1397 -4.13169 0
M  V30 25716 H 2375.2 -2.03798 -4.52526 0
M  V30 25717 H 2370.45 -3.31037 -5.14027 0
M  V30 25718 H 2374.63 -4.20981 -5.54751 0
M  V30 25719 H 2372.25 -4.85155 -5.85259 0
M  V30 25720 N 2373.83 1.5277 -0.38717 0
M  V30 25721 C 2375.06 2.05672 0.195549 0
M  V30 25722 C 2375.47 1.2589 1.41239 0
M  V30 25723 O 2374.81 0.298113 1.81265 0
M  V30 25724 C 2374.87 3.53896 0.632265 0
M  V30 25725 C 2374.54 4.54568 -0.470819 0
M  V30 25726 C 2375.53 5.02665 -1.32755 0
M  V30 25727 C 2373.22 4.98241 -0.637239 0
M  V30 25728 C 2375.21 5.93057 -2.33585 0
M  V30 25729 C 2372.9 5.88435 -1.64888 0
M  V30 25730 C 2373.9 6.35735 -2.4966 0
M  V30 25731 O 2373.58 7.24146 -3.49095 0
M  V30 25732 H 2373.32 0.675162 0.0336462 0
M  V30 25733 H 2375.87 1.97892 -0.550255 0
M  V30 25734 H 2374.1 3.59287 1.43001 0
M  V30 25735 H 2375.79 3.8955 1.14041 0
M  V30 25736 H 2376.56 4.69657 -1.21028 0
M  V30 25737 H 2372.43 4.60998 0.0128757 0
M  V30 25738 H 2375.98 6.29899 -2.99788 0
M  V30 25739 H 2371.88 6.20857 -1.76654 0
M  V30 25740 H 2372.64 7.42202 -3.45078 0
M  V30 25741 N 2375.31 0.116931 1.57166 0
M  V30 25742 C 2376.27 -0.819705 2.14041 0
M  V30 25743 C 2377.27 -1.19603 1.07479 0
M  V30 25744 O 2378.46 -1.12188 1.33265 0
M  V30 25745 C 2375.59 -2.10821 2.67894 0
M  V30 25746 H 2376.78 -0.325459 2.98129 0
M  V30 25747 H 2374.34 -0.132285 1.55739 0
M  V30 25748 H 2375.07 -2.64681 1.87388 0
M  V30 25749 H 2374.86 -1.84787 3.45827 0
M  V30 25750 H 2376.35 -2.7778 3.11814 0
M  V30 25751 N 2376.78 -1.56818 -0.156836 0
M  V30 25752 C 2378.01 -1.86956 -0.886283 0
M  V30 25753 C 2378.43 -0.704006 -1.75183 0
M  V30 25754 O 2377.78 0.326521 -1.79555 0
M  V30 25755 C 2377.84 -3.16257 -1.75112 0
M  V30 25756 O 2377.56 -4.28321 -0.920461 0
M  V30 25757 C 2379.06 -3.59842 -2.58899 0
M  V30 25758 H 2376.28 -0.619928 -0.256769 0
M  V30 25759 H 2378.82 -2.0393 -0.152579 0
M  V30 25760 H 2376.98 -3.01066 -2.43799 0
M  V30 25761 H 2377.39 -5.02195 -1.51329 0
M  V30 25762 H 2378.86 -4.53178 -3.15172 0
M  V30 25763 H 2379.34 -2.84655 -3.34467 0
M  V30 25764 H 2379.95 -3.77693 -1.95519 0
M  V30 25765 N 2378.26 0.425871 -1.51737 0
M  V30 25766 C 2379.51 1.17433 -1.64972 0
M  V30 25767 C 2379.84 1.9092 -0.371479 0
M  V30 25768 O 2379.09 1.84768 0.644931 0
M  V30 25769 C 2379.39 2.20712 -2.81106 0
M  V30 25770 C 2379.06 1.64155 -4.19957 0
M  V30 25771 C 2377.72 1.48454 -4.57728 0
M  V30 25772 C 2380.07 1.22687 -5.06554 0
M  V30 25773 C 2377.4 0.897771 -5.7979 0
M  V30 25774 C 2379.75 0.654353 -6.29207 0
M  V30 25775 C 2378.42 0.484339 -6.6574 0
M  V30 25776 H 2377.69 0.429717 -0.603676 0
M  V30 25777 H 2380.33 0.463797 -1.85799 0
M  V30 25778 H 2378.64 2.97847 -2.54547 0
M  V30 25779 H 2380.33 2.78465 -2.88545 0
M  V30 25780 H 2376.92 1.77355 -3.90184 0
M  V30 25781 H 2381.11 1.33633 -4.7797 0
M  V30 25782 H 2376.36 0.753913 -6.06734 0
M  V30 25783 H 2380.54 0.324572 -6.95643 0
M  V30 25784 H 2378.17 0.0275497 -7.60195 0
M  V30 25785 N 2379.74 1.42077 0.682052 0
M  V30 25786 C 2380.67 1.4777 1.80793 0
M  V30 25787 C 2381.65 0.334983 1.66769 0
M  V30 25788 O 2382.84 0.548297 1.86299 0
M  V30 25789 C 2379.97 1.37235 3.19036 0
M  V30 25790 C 2378.92 2.49459 3.47785 0
M  V30 25791 C 2378.25 2.23983 4.85526 0
M  V30 25792 C 2379.55 3.91783 3.45404 0
M  V30 25793 H 2381.24 2.42 1.76285 0
M  V30 25794 H 2378.79 1.16477 0.846701 0
M  V30 25795 H 2380.74 1.39828 3.97525 0
M  V30 25796 H 2379.46 0.394964 3.24203 0
M  V30 25797 H 2378.12 2.46171 2.71653 0
M  V30 25798 H 2377.77 1.24556 4.87334 0
M  V30 25799 H 2377.47 2.99193 5.05725 0
M  V30 25800 H 2378.99 2.28314 5.66308 0
M  V30 25801 H 2380.41 3.96712 4.13875 0
M  V30 25802 H 2378.81 4.66784 3.77137 0
M  V30 25803 H 2379.88 4.1897 2.44115 0
M  V30 25804 N 2381.22 -0.917649 1.28129 0
M  V30 25805 C 2382.47 -1.66095 1.14435 0
M  V30 25806 C 2382.78 -1.93172 -0.307213 0
M  V30 25807 O 2383.99 -2.65552 -0.565212 0
M  V30 25808 C 2382.44 -2.99199 2.0002 0
M  V30 25809 C 2382.05 -2.79783 3.49893 0
M  V30 25810 C 2383.8 -3.7706 1.95002 0
M  V30 25811 C 2381.7 -4.08503 4.27643 0
M  V30 25812 H 2380.63 -0.623032 0.424673 0
M  V30 25813 H 2383.28 -1.01865 1.52629 0
M  V30 25814 H 2381.67 -3.64542 1.54678 0
M  V30 25815 H 2382.84 -2.23145 4.03166 0
M  V30 25816 H 2381.15 -2.15339 3.56396 0
M  V30 25817 H 2383.75 -4.72465 2.50362 0
M  V30 25818 H 2384.09 -4.05873 0.92589 0
M  V30 25819 H 2384.63 -3.1853 2.38293 0
M  V30 25820 H 2381.37 -3.84865 5.30621 0
M  V30 25821 H 2380.89 -4.64768 3.79145 0
M  V30 25822 H 2382.57 -4.76791 4.37355 0
M  V30 25823 N 2382.7 -1.10314 -1.12555 0
M  V30 25824 C 2383.63 -0.708664 -2.17969 0
M  V30 25825 C 2384.64 0.253998 -1.60806 0
M  V30 25826 O 2385.83 0.0386578 -1.78458 0
M  V30 25827 C 2382.93 -0.0248794 -3.38891 0
M  V30 25828 C 2382.1 -1.0114 -4.25546 0
M  V30 25829 C 2381.16 -0.359332 -5.24972 0
M  V30 25830 O 2380.19 -1.00975 -5.60172 0
M  V30 25831 N 2381.39 0.882746 -5.73749 0
M  V30 25832 H 2384.16 -1.61561 -2.52424 0
M  V30 25833 H 2381.72 -0.991793 -1.27965 0
M  V30 25834 H 2383.71 0.422781 -4.02486 0
M  V30 25835 H 2382.28 0.784461 -3.02597 0
M  V30 25836 H 2381.5 -1.63736 -3.58586 0
M  V30 25837 H 2382.79 -1.67922 -4.80291 0
M  V30 25838 H 2382.19 1.43056 -5.47313 0
M  V30 25839 H 2380.74 1.27358 -6.39237 0
M  V30 25840 N 2384.18 1.29948 -0.891694 0
M  V30 25841 C 2385.45 1.90739 -0.43334 0
M  V30 25842 C 2385.83 1.80997 1.08643 0
M  V30 25843 O 2385.18 1.23151 1.92474 0
M  V30 25844 C 2385.39 3.36132 -0.938955 0
M  V30 25845 C 2386.74 4.13185 -0.977902 0
M  V30 25846 O 2387.76 3.45003 -0.886076 0
M  V30 25847 O 2386.62 5.35013 -1.11462 0
M  V30 25848 H 2383.72 0.816119 -0.133713 0
M  V30 25849 H 2386.26 1.38469 -0.981035 0
M  V30 25850 H 2385.03 3.3734 -1.98287 0
M  V30 25851 H 2384.66 3.95867 -0.370809 0
M  V30 25852 N 2385.65 0.653339 1.4342 0
M  V30 25853 C 2386.88 0.174275 2.05864 0
M  V30 25854 C 2387.29 -1.16531 1.49054 0
M  V30 25855 O 2386.63 -1.73046 0.616511 0
M  V30 25856 C 2386.7 0.00882192 3.59499 0
M  V30 25857 C 2386.36 1.27372 4.38891 0
M  V30 25858 C 2387.36 2.20248 4.70943 0
M  V30 25859 C 2385.04 1.51534 4.78898 0
M  V30 25860 C 2387.04 3.35578 5.4191 0
M  V30 25861 C 2384.72 2.67157 5.49609 0
M  V30 25862 C 2385.72 3.59004 5.81038 0
M  V30 25863 O 2385.41 4.72609 6.50305 0
M  V30 25864 H 2385.14 0.0872666 0.670344 0
M  V30 25865 H 2387.7 0.894259 1.84911 0
M  V30 25866 H 2385.93 -0.766534 3.79027 0
M  V30 25867 H 2387.61 -0.427616 4.03641 0
M  V30 25868 H 2388.38 2.02823 4.40554 0
M  V30 25869 H 2384.26 0.809238 4.53842 0
M  V30 25870 H 2387.8 4.07289 5.66358 0
M  V30 25871 H 2383.7 2.84516 5.79414 0
M  V30 25872 H 2384.47 4.71875 6.68787 0
M  V30 25873 N 2387.13 -1.52563 0.395266 0
M  V30 25874 C 2388.38 -2.01653 -0.185008 0
M  V30 25875 C 2388.71 -1.28149 -1.46315 0
M  V30 25876 O 2387.96 -0.372108 -1.9213 0
M  V30 25877 C 2388.26 -3.53978 -0.493382 0
M  V30 25878 C 2387.93 -4.45528 0.693918 0
M  V30 25879 C 2386.59 -4.70273 1.01962 0
M  V30 25880 C 2388.94 -4.9951 1.48794 0
M  V30 25881 C 2386.27 -5.46248 2.14079 0
M  V30 25882 C 2388.62 -5.76711 2.59975 0
M  V30 25883 C 2387.28 -5.99733 2.93047 0
M  V30 25884 H 2386.55 -0.737901 -0.0676994 0
M  V30 25885 H 2389.2 -1.83909 0.533839 0
M  V30 25886 H 2387.51 -3.69828 -1.29363 0
M  V30 25887 H 2389.2 -3.8946 -0.955095 0
M  V30 25888 H 2385.79 -4.26437 0.430062 0
M  V30 25889 H 2389.98 -4.80313 1.24954 0
M  V30 25890 H 2385.23 -5.62297 2.40066 0
M  V30 25891 H 2389.41 -6.17539 3.21898 0
M  V30 25892 H 2387.03 -6.58386 3.80042 0
M  V30 25893 N 2388.61 -0.125265 -1.57101 0
M  V30 25894 C 2390.03 0.231294 -1.57915 0
M  V30 25895 C 2390.23 1.66264 -1.13836 0
M  V30 25896 O 2389.28 2.38516 -0.828623 0
M  V30 25897 C 2390.59 -0.00771775 -3.00699 0
M  V30 25898 C 2392.14 0.0576933 -3.12947 0
M  V30 25899 C 2392.62 -0.153706 -4.57742 0
M  V30 25900 N 2394.11 -0.0998887 -4.63092 0
M  V30 25901 C 2394.84 -0.238274 -5.72905 0
M  V30 25902 N 2394.34 -0.433179 -6.91444 0
M  V30 25903 N 2396.13 -0.177406 -5.6182 0
M  V30 25904 H 2388.28 -1.0601 -1.84053 0
M  V30 25905 H 2390.55 -0.417944 -0.850898 0
M  V30 25906 H 2390.25 -0.99749 -3.37258 0
M  V30 25907 H 2390.13 0.721387 -3.70238 0
M  V30 25908 H 2392.51 1.038 -2.76242 0
M  V30 25909 H 2392.59 -0.703393 -2.45939 0
M  V30 25910 H 2392.24 -1.13101 -4.95147 0
M  V30 25911 H 2392.17 0.627442 -5.22849 0
M  V30 25912 H 2394.66 0.0469846 -3.77871 0
M  V30 25913 H 2394.97 -0.529468 -7.70984 0
M  V30 25914 H 2393.32 -0.469231 -6.93414 0
M  V30 25915 H 2396.51 -0.0260571 -4.68093 0
M  V30 25916 H 2396.68 -0.288696 -6.47357 0
M  V30 25917 N 2390.09 1.56899 0.148518 0
M  V30 25918 C 2391.03 1.98151 1.18341 0
M  V30 25919 C 2392 0.848873 1.4277 0
M  V30 25920 O 2393.19 1.11082 1.55131 0
M  V30 25921 C 2390.33 2.36598 2.51227 0
M  V30 25922 C 2389.44 3.63146 2.33985 0
M  V30 25923 C 2388.58 3.90703 3.59895 0
M  V30 25924 C 2387.62 5.10526 3.37683 0
M  V30 25925 N 2386.75 5.341 4.5572 0
M  V30 25926 H 2391.59 2.86363 0.82462 0
M  V30 25927 H 2389.13 1.41677 0.395731 0
M  V30 25928 H 2391.09 2.56918 3.28708 0
M  V30 25929 H 2389.72 1.51468 2.85057 0
M  V30 25930 H 2388.77 3.50612 1.47566 0
M  V30 25931 H 2390.08 4.50784 2.13531 0
M  V30 25932 H 2389.24 4.11512 4.45805 0
M  V30 25933 H 2387.98 3.01484 3.83352 0
M  V30 25934 H 2386.98 4.89591 2.50161 0
M  V30 25935 H 2388.21 6.01296 3.15627 0
M  V30 25936 H 2386.15 4.47836 4.79353 0
M  V30 25937 H 2386.07 6.16004 4.38263 0
M  V30 25938 H 2387.34 5.59407 5.42848 0
M  V30 25939 N 2391.57 -0.417818 1.51961 0
M  V30 25940 C 2392.81 -1.16556 1.65593 0
M  V30 25941 C 2393.14 -1.9072 0.381598 0
M  V30 25942 O 2392.4 -1.85107 -0.635123 0
M  V30 25943 C 2392.69 -2.19219 2.82273 0
M  V30 25944 C 2392.36 -1.61925 4.20822 0
M  V30 25945 C 2391.02 -1.46024 4.58509 0
M  V30 25946 C 2393.37 -1.19999 5.07198 0
M  V30 25947 C 2390.7 -0.867011 5.80258 0
M  V30 25948 C 2393.05 -0.620975 6.29545 0
M  V30 25949 C 2391.72 -0.449027 6.65988 0
M  V30 25950 H 2390.99 -0.426509 0.605946 0
M  V30 25951 H 2393.64 -0.453937 1.86042 0
M  V30 25952 H 2391.94 -2.96493 2.56123 0
M  V30 25953 H 2393.64 -2.76931 2.90017 0
M  V30 25954 H 2390.23 -1.75283 3.91119 0
M  V30 25955 H 2394.41 -1.31097 4.78672 0
M  V30 25956 H 2389.67 -0.721726 6.07125 0
M  V30 25957 H 2393.84 -0.287676 6.95806 0
M  V30 25958 H 2391.47 0.0127657 7.60199 0
M  V30 25959 N 2393.04 -1.42436 -0.674508 0
M  V30 25960 C 2393.99 -1.45937 -1.78804 0
M  V30 25961 C 2394.96 -0.3113 -1.63157 0
M  V30 25962 O 2396.15 -0.515415 -1.83707 0
M  V30 25963 C 2393.29 -1.36779 -3.16837 0
M  V30 25964 C 2392.4 -2.61623 -3.43769 0
M  V30 25965 C 2391.53 -2.44605 -4.71531 0
M  V30 25966 C 2390.57 -3.64822 -4.91499 0
M  V30 25967 N 2389.71 -3.46744 -6.10502 0
M  V30 25968 H 2394.55 -2.41097 -1.75147 0
M  V30 25969 H 2392.09 -1.19699 -0.855019 0
M  V30 25970 H 2394.04 -1.29466 -3.96603 0
M  V30 25971 H 2392.67 -0.452145 -3.19618 0
M  V30 25972 H 2391.73 -2.79301 -2.58254 0
M  V30 25973 H 2393.04 -3.50984 -3.54417 0
M  V30 25974 H 2392.19 -2.3488 -5.59389 0
M  V30 25975 H 2390.93 -1.52734 -4.63167 0
M  V30 25976 H 2389.94 -3.74979 -4.02083 0
M  V30 25977 H 2391.16 -4.57674 -5.01708 0
M  V30 25978 H 2389.11 -2.57591 -6.0331 0
M  V30 25979 H 2389.02 -4.29693 -6.22013 0
M  V30 25980 H 2390.29 -3.40832 -7.01038 0
M  V30 25981 N 2394.52 0.910841 -1.28614 0
M  V30 25982 C 2395.47 2.01363 -1.1279 0
M  V30 25983 C 2396.44 1.66082 -0.0242302 0
M  V30 25984 O 2397.62 1.89855 -0.1897 0
M  V30 25985 C 2394.76 3.35728 -0.798802 0
M  V30 25986 C 2393.88 3.8386 -1.9818 0
M  V30 25987 C 2393.01 5.06749 -1.59307 0
M  V30 25988 C 2392.05 5.47221 -2.74254 0
M  V30 25989 N 2391.19 6.613 -2.35854 0
M  V30 25990 H 2396.03 2.1423 -2.07146 0
M  V30 25991 H 2393.56 1.04928 -1.03095 0
M  V30 25992 H 2395.52 4.13025 -0.588734 0
M  V30 25993 H 2394.15 3.2262 0.107833 0
M  V30 25994 H 2393.2 3.02695 -2.30391 0
M  V30 25995 H 2394.52 4.09813 -2.8435 0
M  V30 25996 H 2393.67 5.91598 -1.34524 0
M  V30 25997 H 2392.41 4.82611 -0.702702 0
M  V30 25998 H 2391.41 4.60912 -2.99733 0
M  V30 25999 H 2392.64 5.73346 -3.63938 0
M  V30 26000 H 2390.59 6.38787 -1.4929 0
M  V30 26001 H 2390.5 6.86993 -3.15558 0
M  V30 26002 H 2391.77 7.49446 -2.14361 0
M  V30 26003 N 2396 1.10909 1.11969 0
M  V30 26004 C 2397.42 0.841876 1.3559 0
M  V30 26005 C 2397.62 -0.536212 1.94234 0
M  V30 26006 O 2396.67 -1.28812 2.17172 0
M  V30 26007 C 2397.99 1.94553 2.29281 0
M  V30 26008 C 2399.53 1.97455 2.42859 0
M  V30 26009 C 2400.01 3.07008 3.39868 0
M  V30 26010 N 2401.5 3.06347 3.47427 0
M  V30 26011 C 2402.23 3.87755 4.22414 0
M  V30 26012 N 2401.73 4.79112 5.00424 0
M  V30 26013 N 2403.52 3.75954 4.1787 0
M  V30 26014 H 2395.67 1.99729 0.722629 0
M  V30 26015 H 2397.94 0.868235 0.38062 0
M  V30 26016 H 2397.64 2.93769 1.93373 0
M  V30 26017 H 2397.52 1.83694 3.29449 0
M  V30 26018 H 2399.9 0.988694 2.78045 0
M  V30 26019 H 2399.99 2.12391 1.42562 0
M  V30 26020 H 2399.63 4.05816 3.0541 0
M  V30 26021 H 2399.56 2.89313 4.40006 0
M  V30 26022 H 2402.05 2.40152 2.9178 0
M  V30 26023 H 2402.36 5.37776 5.54993 0
M  V30 26024 H 2400.71 4.83137 4.99603 0
M  V30 26025 H 2403.9 3.03931 3.56011 0
M  V30 26026 H 2404.07 4.39633 4.76054 0
M  V30 26027 N 2397.48 -1.29474 0.898573 0
M  V30 26028 C 2398.43 -2.27752 0.373859 0
M  V30 26029 C 2399.4 -1.56959 -0.543417 0
M  V30 26030 O 2400.58 -1.84949 -0.468902 0
M  V30 26031 C 2397.72 -3.42848 -0.393588 0
M  V30 26032 C 2396.83 -4.28427 0.554454 0
M  V30 26033 C 2395.97 -5.30702 -0.229933 0
M  V30 26034 C 2395.01 -6.07937 0.712706 0
M  V30 26035 N 2394.14 -7.0209 -0.0372049 0
M  V30 26036 H 2398.98 -2.72015 1.21703 0
M  V30 26037 H 2396.52 -1.33788 0.611479 0
M  V30 26038 H 2398.48 -4.08354 -0.854588 0
M  V30 26039 H 2397.11 -2.99617 -1.20122 0
M  V30 26040 H 2396.16 -3.63105 1.13397 0
M  V30 26041 H 2397.47 -4.82202 1.27605 0
M  V30 26042 H 2396.63 -6.02019 -0.752182 0
M  V30 26043 H 2395.37 -4.77656 -0.984674 0
M  V30 26044 H 2394.37 -5.35484 1.24646 0
M  V30 26045 H 2395.6 -6.63071 1.46676 0
M  V30 26046 H 2393.54 -6.51415 -0.774233 0
M  V30 26047 H 2393.46 -7.53416 0.624506 0
M  V30 26048 H 2394.73 -7.77629 -0.539754 0
M  V30 26049 N 2398.96 -0.660936 -1.43071 0
M  V30 26050 C 2399.87 0.026375 -2.34585 0
M  V30 26051 C 2400.88 0.80387 -1.54318 0
M  V30 26052 O 2402.06 0.749358 -1.8694 0
M  V30 26053 C 2399.12 0.975581 -3.32691 0
M  V30 26054 C 2398.18 0.194161 -4.28861 0
M  V30 26055 C 2397.42 1.09815 -5.2228 0
M  V30 26056 O 2397.64 2.33754 -5.20303 0
M  V30 26057 O 2396.57 0.566408 -5.99229 0
M  V30 26058 H 2400.4 -0.727085 -2.94868 0
M  V30 26059 H 2397.99 -0.421135 -1.43342 0
M  V30 26060 H 2399.87 1.52087 -3.92998 0
M  V30 26061 H 2398.54 1.70913 -2.74901 0
M  V30 26062 H 2397.45 -0.394901 -3.7201 0
M  V30 26063 H 2398.78 -0.499985 -4.89654 0
M  V30 26064 N 2400.43 1.52351 -0.403352 0
M  V30 26065 C 2401.37 2.24531 0.46026 0
M  V30 26066 C 2402.38 1.27283 1.01503 0
M  V30 26067 O 2403.57 1.53267 0.914955 0
M  V30 26068 C 2400.67 2.95908 1.65203 0
M  V30 26069 C 2399.84 4.19978 1.22217 0
M  V30 26070 C 2398.9 4.7423 2.28019 0
M  V30 26071 O 2397.93 5.36959 1.88847 0
M  V30 26072 N 2399.13 4.55302 3.60112 0
M  V30 26073 H 2401.89 2.99282 -0.158209 0
M  V30 26074 H 2399.45 1.60252 -0.23043 0
M  V30 26075 H 2401.45 3.29097 2.35536 0
M  V30 26076 H 2400.02 2.24378 2.17654 0
M  V30 26077 H 2399.24 3.92668 0.347181 0
M  V30 26078 H 2400.52 5.00563 0.911836 0
M  V30 26079 H 2399.92 4.0526 3.94691 0
M  V30 26080 H 2398.48 4.92944 4.26438 0
M  V30 26081 N 2401.91 0.133594 1.57033 0
M  V30 26082 C 2403.16 -0.519814 1.95301 0
M  V30 26083 C 2403.48 -1.66276 1.01869 0
M  V30 26084 O 2402.75 -1.95746 0.0776857 0
M  V30 26085 H 2401.33 -0.195019 0.721094 0
M  V30 26086 H 2403.99 0.205955 1.93809 0
M  V30 26087 H 2403.09 -0.904801 2.98697 0
M  V30 26088 N 2403.39 -1.56975 -0.140195 0
M  V30 26089 C 2404.32 -2.0181 -1.17452 0
M  V30 26090 C 2405.3 -0.898819 -1.44413 0
M  V30 26091 O 2406.49 -1.1671 -1.55218 0
M  V30 26092 C 2403.62 -2.40449 -2.50603 0
M  V30 26093 C 2402.57 -3.55625 -2.38149 0
M  V30 26094 C 2401.9 -3.80098 -3.76072 0
M  V30 26095 C 2403.2 -4.88065 -1.85983 0
M  V30 26096 H 2404.89 -2.88467 -0.801692 0
M  V30 26097 H 2402.44 -1.3878 -0.384196 0
M  V30 26098 H 2404.39 -2.70416 -3.23193 0
M  V30 26099 H 2403.11 -1.50737 -2.89734 0
M  V30 26100 H 2401.77 -3.25834 -1.6801 0
M  V30 26101 H 2401.42 -2.87625 -4.12651 0
M  V30 26102 H 2401.12 -4.57613 -3.68598 0
M  V30 26103 H 2402.64 -4.12496 -4.50199 0
M  V30 26104 H 2404.06 -5.16706 -2.48371 0
M  V30 26105 H 2402.46 -5.69433 -1.89383 0
M  V30 26106 H 2403.53 -4.77986 -0.815938 0
M  V30 26107 N 2404.87 0.409753 -1.5218 0
M  V30 26108 C 2406.11 1.15848 -1.66455 0
M  V30 26109 C 2406.45 1.90182 -0.393005 0
M  V30 26110 O 2405.72 1.84735 0.608547 0
M  V30 26111 C 2406.01 2.15344 -2.88616 0
M  V30 26112 C 2405.86 1.44911 -4.25818 0
M  V30 26113 C 2407.18 3.1602 -3.06299 0
M  V30 26114 H 2404.3 0.419794 -0.605757 0
M  V30 26115 H 2406.94 0.444282 -1.84733 0
M  V30 26116 H 2405.09 2.7625 -2.73163 0
M  V30 26117 H 2406.76 0.871285 -4.52997 0
M  V30 26118 H 2405 0.751084 -4.27248 0
M  V30 26119 H 2405.67 2.17507 -5.07341 0
M  V30 26120 H 2408.15 2.6519 -3.20646 0
M  V30 26121 H 2407.03 3.82903 -3.93289 0
M  V30 26122 H 2407.29 3.83711 -2.19586 0
M  V30 26123 N 2406.35 1.42792 0.666944 0
M  V30 26124 C 2407.59 1.43397 1.42414 0
M  V30 26125 C 2407.92 0.0542716 1.94924 0
M  V30 26126 O 2407.19 -0.908385 1.73566 0
M  V30 26127 H 2405.77 0.527911 0.528506 0
M  V30 26128 H 2408.43 1.78281 0.787531 0
M  V30 26129 H 2407.52 2.13841 2.27329 0
M  V30 26130 N 2407.82 -0.904008 1.29095 0
M  V30 26131 C 2408.77 -2.00762 1.13856 0
M  V30 26132 C 2409.74 -1.66067 0.0330376 0
M  V30 26133 O 2410.93 -1.89751 0.199766 0
M  V30 26134 C 2408.07 -3.35299 0.816595 0
M  V30 26135 C 2407.18 -3.82804 2.00213 0
M  V30 26136 C 2406.31 -5.05897 1.61992 0
M  V30 26137 C 2405.35 -5.45759 2.77152 0
M  V30 26138 N 2404.49 -6.6004 2.39357 0
M  V30 26139 H 2409.33 -2.13128 2.08279 0
M  V30 26140 H 2406.87 -1.0438 1.0365 0
M  V30 26141 H 2408.83 -4.12707 0.61063 0
M  V30 26142 H 2407.46 -3.22672 -0.0907223 0
M  V30 26143 H 2406.51 -3.01469 2.31993 0
M  V30 26144 H 2407.82 -4.08299 2.86519 0
M  V30 26145 H 2406.97 -5.90876 1.37659 0
M  V30 26146 H 2405.71 -4.82232 0.728287 0
M  V30 26147 H 2404.72 -4.59316 3.02173 0
M  V30 26148 H 2405.94 -5.71408 3.66974 0
M  V30 26149 H 2403.89 -6.37986 1.52676 0
M  V30 26150 H 2403.81 -6.85309 3.19197 0
M  V30 26151 H 2405.07 -7.48299 2.18333 0
M  V30 26152 N 2409.3 -1.11501 -1.11379 0
M  V30 26153 C 2410.53 -0.885497 -1.86661 0
M  V30 26154 C 2410.94 0.568249 -1.80465 0
M  V30 26155 O 2410.28 1.40413 -1.18447 0
M  V30 26156 C 2410.35 -1.26961 -3.36335 0
M  V30 26157 C 2410.01 -2.73266 -3.66299 0
M  V30 26158 C 2411.01 -3.71483 -3.63726 0
M  V30 26159 C 2408.69 -3.09928 -3.95284 0
M  V30 26160 C 2410.69 -5.04381 -3.89716 0
M  V30 26161 C 2408.37 -4.43011 -4.20933 0
M  V30 26162 C 2409.37 -5.40047 -4.18137 0
M  V30 26163 O 2409.06 -6.70732 -4.43141 0
M  V30 26164 H 2408.79 -0.316918 -0.597109 0
M  V30 26165 H 2411.34 -1.48619 -1.41779 0
M  V30 26166 H 2409.57 -0.612066 -3.81825 0
M  V30 26167 H 2411.26 -1.0158 -3.92984 0
M  V30 26168 H 2412.03 -3.44504 -3.41383 0
M  V30 26169 H 2407.91 -2.35016 -3.96596 0
M  V30 26170 H 2411.45 -5.80111 -3.8745 0
M  V30 26171 H 2407.35 -4.69724 -4.42753 0
M  V30 26172 H 2408.12 -6.7653 -4.60705 0
M  V30 26173 N 2410.78 1.28995 -0.905426 0
M  V30 26174 C 2412.19 1.77397 -0.581984 0
M  V30 26175 C 2412.54 1.7421 0.902521 0
M  V30 26176 O 2411.67 1.33157 1.70582 0
M  V30 26177 C 2412.26 3.22129 -1.04967 0
M  V30 26178 C 2410.82 3.68287 -0.777294 0
M  V30 26179 C 2409.97 2.48965 -1.22113 0
M  V30 26180 H 2412.92 1.15576 -1.08756 0
M  V30 26181 H 2412.94 3.78522 -0.387453 0
M  V30 26182 H 2412.45 3.24417 -2.13014 0
M  V30 26183 H 2410.55 3.71467 0.290318 0
M  V30 26184 H 2410.67 4.58819 -1.3792 0
M  V30 26185 H 2409.03 2.46528 -0.640014 0
M  V30 26186 H 2409.81 2.53978 -2.30977 0
M  V30 26187 N 2412.26 0.668514 1.42719 0
M  V30 26188 C 2413.22 -0.00444538 2.292 0
M  V30 26189 C 2414.22 -0.735314 1.43003 0
M  V30 26190 O 2415.41 -0.574261 1.64462 0
M  V30 26191 C 2412.54 -1.017 3.25377 0
M  V30 26192 H 2413.74 0.756659 2.90198 0
M  V30 26193 H 2411.29 0.430532 1.50253 0
M  V30 26194 H 2412.03 -1.80681 2.69304 0
M  V30 26195 H 2411.81 -0.496394 3.88945 0
M  V30 26196 H 2413.3 -1.48648 3.90248 0
M  V30 26197 N 2413.74 -1.52135 0.411426 0
M  V30 26198 C 2414.68 -2.27076 -0.412935 0
M  V30 26199 C 2415.65 -1.29584 -1.0391 0
M  V30 26200 O 2416.84 -1.5845 -1.06294 0
M  V30 26201 C 2413.98 -3.09704 -1.52242 0
M  V30 26202 C 2413.09 -4.22156 -0.916947 0
M  V30 26203 C 2412.23 -4.92139 -1.99932 0
M  V30 26204 C 2411.27 -5.96551 -1.3709 0
M  V30 26205 N 2410.4 -6.60042 -2.39352 0
M  V30 26206 H 2415.24 -2.97091 0.232551 0
M  V30 26207 H 2412.78 -1.46555 0.126521 0
M  V30 26208 H 2414.74 -3.55917 -2.17668 0
M  V30 26209 H 2413.37 -2.41855 -2.1379 0
M  V30 26210 H 2412.42 -3.80097 -0.151675 0
M  V30 26211 H 2413.73 -4.97046 -0.417919 0
M  V30 26212 H 2412.89 -5.41768 -2.73079 0
M  V30 26213 H 2411.63 -4.16822 -2.53201 0
M  V30 26214 H 2410.63 -5.46239 -0.624777 0
M  V30 26215 H 2411.86 -6.73811 -0.845879 0
M  V30 26216 H 2409.8 -5.87553 -2.91749 0
M  V30 26217 H 2409.72 -7.30614 -1.94268 0
M  V30 26218 H 2410.99 -7.14309 -3.12062 0
M  V30 26219 N 2415.22 -0.14192 -1.5696 0
M  V30 26220 C 2416.16 0.816836 -2.17786 0
M  V30 26221 C 2417.16 1.25897 -1.13342 0
M  V30 26222 O 2418.36 1.22804 -1.31602 0
M  V30 26223 H 2414.74 0.281603 -0.697283 0
M  V30 26224 H 2416.71 0.279569 -2.97087 0
M  V30 26225 C 2415.46 2.04797 -2.80987 0
M  V30 26226 H 2414.78 1.71674 -3.61065 0
M  V30 26227 H 2416.22 2.69835 -3.27055 0
M  V30 26228 C 2414.68 2.85267 -1.79233 0
M  V30 26229 O 2415.21 3.81438 -1.25968 0
M  V30 26230 N 2413.42 2.49702 -1.48652 0
M  V30 26231 H 2412.96 1.7156 -1.92158 0
M  V30 26232 H 2412.92 3.03835 -0.808168 0
M  V30 26233 N 2416.69 1.57047 0.131868 0
M  V30 26234 C 2417.92 1.88343 0.856428 0
M  V30 26235 C 2418.34 0.731787 1.74041 0
M  V30 26236 O 2417.69 -0.297914 1.80052 0
M  V30 26237 C 2417.74 3.19002 1.70058 0
M  V30 26238 O 2417.47 4.29731 0.852203 0
M  V30 26239 C 2418.97 3.63915 2.53141 0
M  V30 26240 H 2416.19 0.623934 0.246874 0
M  V30 26241 H 2418.73 2.04147 0.120117 0
M  V30 26242 H 2416.89 3.04906 2.38979 0
M  V30 26243 H 2417.3 5.04539 1.4332 0
M  V30 26244 H 2418.77 4.58135 3.07923 0
M  V30 26245 H 2419.25 2.8994 3.29896 0
M  V30 26246 H 2419.86 3.80756 1.89486 0
M  V30 26247 N 2418.17 -0.401677 1.52395 0
M  V30 26248 C 2419.4 -1.16946 1.70678 0
M  V30 26249 C 2419.81 -1.8408 0.419535 0
M  V30 26250 O 2419.17 -1.72179 -0.60503 0
M  V30 26251 C 2419.22 -2.22701 2.84757 0
M  V30 26252 O 2418.94 -1.58307 4.08498 0
M  V30 26253 C 2420.44 -3.12304 3.14613 0
M  V30 26254 H 2417.66 -0.351132 0.571793 0
M  V30 26255 H 2420.21 -0.471617 1.98988 0
M  V30 26256 H 2418.36 -2.88142 2.58946 0
M  V30 26257 H 2418.78 -2.28477 4.72121 0
M  V30 26258 H 2420.25 -3.82565 3.9793 0
M  V30 26259 H 2420.73 -3.75097 2.28471 0
M  V30 26260 H 2421.33 -2.52523 3.42217 0
M  V30 26261 N 2419.65 -1.43144 -0.659362 0
M  V30 26262 C 2420.9 -1.43723 -1.41515 0
M  V30 26263 C 2421.21 -0.062852 -1.95499 0
M  V30 26264 O 2422.42 0.0539206 -2.71446 0
M  V30 26265 C 2420.87 -2.5289 -2.56076 0
M  V30 26266 C 2420.48 -3.96406 -2.08726 0
M  V30 26267 C 2422.23 -2.62655 -3.33485 0
M  V30 26268 C 2420.13 -4.9705 -3.20461 0
M  V30 26269 H 2419.06 -0.534618 -0.531696 0
M  V30 26270 H 2421.71 -1.6911 -0.712314 0
M  V30 26271 H 2420.1 -2.20693 -3.28801 0
M  V30 26272 H 2421.27 -4.38033 -1.43052 0
M  V30 26273 H 2419.58 -3.9063 -1.44212 0
M  V30 26274 H 2422.18 -3.35025 -4.16729 0
M  V30 26275 H 2422.52 -1.6752 -3.81107 0
M  V30 26276 H 2423.06 -2.94123 -2.67837 0
M  V30 26277 H 2419.8 -5.93717 -2.77814 0
M  V30 26278 H 2419.32 -4.60041 -3.84866 0
M  V30 26279 H 2421 -5.19474 -3.85689 0
M  V30 26280 N 2421.13 0.897149 -1.29572 0
M  V30 26281 C 2422.09 1.9831 -1.14917 0
M  V30 26282 C 2423.09 1.60581 -0.0838911 0
M  V30 26283 O 2424.28 1.71026 -0.331036 0
M  V30 26284 C 2421.41 3.32368 -0.757893 0
M  V30 26285 H 2422.61 2.1274 -2.11381 0
M  V30 26286 H 2420.16 1.08199 -1.12795 0
M  V30 26287 H 2420.89 3.2364 0.20678 0
M  V30 26288 H 2420.68 3.61118 -1.52761 0
M  V30 26289 H 2422.17 4.12051 -0.67848 0
M  V30 26290 N 2422.61 1.1209 1.10786 0
M  V30 26291 C 2423.54 0.807793 2.19082 0
M  V30 26292 C 2424.52 -0.226829 1.68581 0
M  V30 26293 O 2425.7 -0.0888134 1.93997 0
M  V30 26294 C 2422.83 0.257637 3.46343 0
M  V30 26295 C 2421.79 1.22491 4.10098 0
M  V30 26296 C 2421.11 0.535145 5.32015 0
M  V30 26297 C 2422.41 2.57819 4.54232 0
M  V30 26298 H 2424.11 1.71333 2.45531 0
M  V30 26299 H 2421.65 0.825225 1.18009 0
M  V30 26300 H 2423.6 0.0263419 4.21392 0
M  V30 26301 H 2422.33 -0.683222 3.19374 0
M  V30 26302 H 2420.99 1.44195 3.37051 0
M  V30 26303 H 2420.64 -0.410739 5.0132 0
M  V30 26304 H 2420.34 1.18034 5.75623 0
M  V30 26305 H 2421.86 0.312802 6.09798 0
M  V30 26306 H 2423.27 2.40164 5.20571 0
M  V30 26307 H 2421.67 3.18384 5.08676 0
M  V30 26308 H 2422.74 3.16534 3.67334 0
M  V30 26309 N 2424.08 -1.28513 0.912254 0
M  V30 26310 C 2425.02 -2.26406 0.3568 0
M  V30 26311 C 2426.03 -1.54805 -0.503905 0
M  V30 26312 O 2427.22 -1.75626 -0.319028 0
M  V30 26313 C 2424.32 -3.35059 -0.508767 0
M  V30 26314 C 2423.49 -4.3616 0.329083 0
M  V30 26315 C 2422.55 -5.24085 -0.47133 0
M  V30 26316 O 2421.58 -5.69083 0.115582 0
M  V30 26317 N 2422.78 -5.52707 -1.77469 0
M  V30 26318 H 2425.54 -2.74705 1.19822 0
M  V30 26319 H 2423.1 -1.41979 0.778047 0
M  V30 26320 H 2425.1 -3.90816 -1.05093 0
M  V30 26321 H 2423.67 -2.86481 -1.2509 0
M  V30 26322 H 2422.89 -3.79886 1.05262 0
M  V30 26323 H 2424.17 -5.00733 0.902428 0
M  V30 26324 H 2423.57 -5.17979 -2.27408 0
M  V30 26325 H 2422.13 -6.11228 -2.26372 0
M  V30 26326 N 2425.56 -0.676073 -1.42362 0
M  V30 26327 C 2426.53 -0.00770969 -2.29199 0
M  V30 26328 C 2427.53 0.72772 -1.43391 0
M  V30 26329 O 2428.72 0.565531 -1.64765 0
M  V30 26330 C 2425.85 0.999727 -3.25911 0
M  V30 26331 H 2427.04 -0.772039 -2.89792 0
M  V30 26332 H 2424.59 -0.438495 -1.50023 0
M  V30 26333 H 2425.33 1.7925 -2.70259 0
M  V30 26334 H 2425.11 0.475761 -3.89203 0
M  V30 26335 H 2426.6 1.46577 -3.91031 0
M  V30 26336 N 2427.04 1.51915 -0.419488 0
M  V30 26337 C 2428.29 2.01523 0.152602 0
M  V30 26338 C 2428.61 1.30651 1.44759 0
M  V30 26339 O 2427.88 0.435569 1.90996 0
M  V30 26340 H 2426.46 0.744636 0.0593835 0
M  V30 26341 H 2429.12 1.86738 -0.558105 0
M  V30 26342 H 2428.22 3.10228 0.341315 0
M  V30 26343 N 2428.52 0.150242 1.56882 0
M  V30 26344 C 2429.45 -0.784245 2.19936 0
M  V30 26345 C 2430.43 -1.25467 1.14856 0
M  V30 26346 O 2431.61 -1.31165 1.43211 0
M  V30 26347 C 2428.74 -2.02224 2.82352 0
M  V30 26348 C 2427.7 -1.68846 3.93287 0
M  V30 26349 C 2427.02 -2.99936 4.42654 0
M  V30 26350 C 2428.32 -0.932623 5.13906 0
M  V30 26351 H 2430.02 -0.258729 2.9828 0
M  V30 26352 H 2427.56 -0.123004 1.43474 0
M  V30 26353 H 2429.52 -2.68082 3.25131 0
M  V30 26354 H 2428.24 -2.57154 2.01345 0
M  V30 26355 H 2426.9 -1.05365 3.51132 0
M  V30 26356 H 2426.55 -3.52863 3.58464 0
M  V30 26357 H 2426.25 -2.78365 5.17481 0
M  V30 26358 H 2427.77 -3.66859 4.88105 0
M  V30 26359 H 2429.19 -1.49336 5.53509 0
M  V30 26360 H 2427.58 -0.816735 5.94516 0
M  V30 26361 H 2428.65 0.0750421 4.84842 0
M  V30 26362 N 2430 -1.57115 -0.123538 0
M  V30 26363 C 2431.41 -1.52307 -0.476934 0
M  V30 26364 C 2431.61 -0.862512 -1.82107 0
M  V30 26365 O 2430.67 -0.442927 -2.48585 0
M  V30 26366 C 2431.98 -2.97073 -0.465609 0
M  V30 26367 C 2433.53 -3.08139 -0.54948 0
M  V30 26368 C 2434 -4.54457 -0.568589 0
M  V30 26369 N 2435.5 -4.58894 -0.630156 0
M  V30 26370 C 2436.23 -5.69515 -0.666315 0
M  V30 26371 N 2435.73 -6.89645 -0.660393 0
M  V30 26372 N 2437.52 -5.57611 -0.708979 0
M  V30 26373 H 2429.67 -1.98443 0.757233 0
M  V30 26374 H 2431.93 -0.906069 0.278824 0
M  V30 26375 H 2431.64 -3.48754 0.454294 0
M  V30 26376 H 2431.51 -3.54271 -1.29507 0
M  V30 26377 H 2433.9 -2.56464 -1.4598 0
M  V30 26378 H 2433.98 -2.53944 0.307577 0
M  V30 26379 H 2433.63 -5.06776 0.33767 0
M  V30 26380 H 2433.56 -5.06459 -1.44247 0
M  V30 26381 H 2436.05 -3.72423 -0.64108 0
M  V30 26382 H 2436.36 -7.69709 -0.690481 0
M  V30 26383 H 2434.7 -6.92158 -0.62789 0
M  V30 26384 H 2437.9 -4.6267 -0.710937 0
M  V30 26385 H 2438.07 -6.43833 -0.733691 0
M  V30 26386 N 2431.47 0.393589 -1.52606 0
M  V30 26387 C 2432.7 1.1604 -1.71296 0
M  V30 26388 C 2433.12 1.83855 -0.429292 0
M  V30 26389 O 2432.47 1.72498 0.595891 0
M  V30 26390 C 2432.53 2.21188 -2.85934 0
M  V30 26391 O 2432.25 1.56138 -4.09332 0
M  V30 26392 C 2433.75 3.10631 -3.16265 0
M  V30 26393 H 2430.97 0.348094 -0.573647 0
M  V30 26394 H 2433.51 0.461057 -1.99235 0
M  V30 26395 H 2431.67 2.86765 -2.6047 0
M  V30 26396 H 2432.08 2.2597 -4.73326 0
M  V30 26397 H 2433.55 3.80449 -3.99953 0
M  V30 26398 H 2434.03 3.7388 -2.30457 0
M  V30 26399 H 2434.64 2.50704 -3.43551 0
M  V30 26400 N 2432.95 1.43492 0.651762 0
M  V30 26401 C 2433.88 1.51572 1.77618 0
M  V30 26402 C 2434.86 0.370282 1.66021 0
M  V30 26403 O 2436.05 0.587691 1.85094 0
M  V30 26404 C 2433.18 1.43971 3.16053 0
M  V30 26405 C 2432.13 2.5678 3.42415 0
M  V30 26406 C 2431.46 2.34232 4.80666 0
M  V30 26407 C 2432.76 3.99021 3.37016 0
M  V30 26408 H 2434.45 2.45684 1.71113 0
M  V30 26409 H 2432 1.18247 0.821804 0
M  V30 26410 H 2433.95 1.48228 3.9447 0
M  V30 26411 H 2432.68 0.463643 3.23292 0
M  V30 26412 H 2431.33 2.51878 2.6637 0
M  V30 26413 H 2430.98 1.34865 4.84583 0
M  V30 26414 H 2430.68 3.09852 4.99265 0
M  V30 26415 H 2432.21 2.40275 5.61338 0
M  V30 26416 H 2433.62 4.05402 4.05367 0
M  V30 26417 H 2432.02 4.74679 3.67151 0
M  V30 26418 H 2433.09 4.24054 2.35173 0
M  V30 26419 N 2434.43 -0.890264 1.30046 0
M  V30 26420 C 2435.38 -1.98258 1.12595 0
M  V30 26421 C 2436.36 -1.60844 0.0426303 0
M  V30 26422 O 2437.56 -1.74999 0.265377 0
M  V30 26423 C 2434.69 -3.33501 0.814359 0
M  V30 26424 C 2433.77 -3.77246 1.93768 0
M  V30 26425 N 2434.16 -3.93138 3.18239 0
M  V30 26426 C 2432.46 -4.06599 1.83285 0
M  V30 26427 C 2433.16 -4.30156 3.91588 0
M  V30 26428 N 2432.14 -4.39724 3.19599 0
M  V30 26429 H 2435.94 -2.08628 2.07007 0
M  V30 26430 H 2433.45 -1.07972 1.21308 0
M  V30 26431 H 2435.45 -4.11475 0.670362 0
M  V30 26432 H 2434.11 -3.24472 -0.12174 0
M  V30 26433 H 2435.12 -3.78412 3.53588 0
M  V30 26434 H 2431.8 -4.06073 0.970081 0
M  V30 26435 H 2433.19 -4.50218 4.98752 0
M  V30 26436 N 2435.91 -1.12676 -1.1019 0
M  V30 26437 C 2437.19 -0.794997 -1.78715 0
M  V30 26438 C 2437.57 0.714818 -1.98629 0
M  V30 26439 O 2436.91 1.64939 -1.58138 0
M  V30 26440 C 2437.12 -1.57296 -3.11543 0
M  V30 26441 C 2438.47 -1.76059 -3.86379 0
M  V30 26442 O 2439.5 -1.53829 -3.21271 0
M  V30 26443 O 2438.35 -2.13096 -5.03242 0
M  V30 26444 H 2435.45 -0.289437 -0.774697 0
M  V30 26445 H 2437.99 -1.23093 -1.16817 0
M  V30 26446 H 2436.77 -2.5994 -2.92484 0
M  V30 26447 H 2436.39 -1.13144 -3.81162 0
M  V30 26448 N 2437.39 1.28028 -0.919057 0
M  V30 26449 C 2438.64 1.94033 -0.550836 0
M  V30 26450 C 2438.95 1.73098 0.910847 0
M  V30 26451 O 2440.15 2.3337 1.38746 0
M  V30 26452 C 2438.61 3.47561 -0.93431 0
M  V30 26453 C 2438.22 3.77266 -2.41608 0
M  V30 26454 C 2439.96 4.19695 -0.636928 0
M  V30 26455 C 2437.87 5.24128 -2.73941 0
M  V30 26456 H 2436.8 0.726358 -0.202286 0
M  V30 26457 H 2439.45 1.45456 -1.1187 0
M  V30 26458 H 2437.83 3.94898 -0.295184 0
M  V30 26459 H 2439.01 3.40718 -3.10239 0
M  V30 26460 H 2437.32 3.18316 -2.68447 0
M  V30 26461 H 2439.92 5.27818 -0.855098 0
M  V30 26462 H 2440.26 4.1412 0.425502 0
M  V30 26463 H 2440.79 3.78151 -1.23476 0
M  V30 26464 H 2437.53 5.34785 -3.79058 0
M  V30 26465 H 2437.05 5.61854 -2.09952 0
M  V30 26466 H 2438.73 5.91921 -2.61225 0
M  V30 26467 N 2438.86 0.683613 1.42002 0
M  V30 26468 C 2440.11 0.209136 2.01015 0
M  V30 26469 C 2440.43 -1.19147 1.54367 0
M  V30 26470 O 2439.7 -1.80171 0.769115 0
M  V30 26471 H 2438.28 0.0743281 0.743293 0
M  V30 26472 H 2440.95 0.882097 1.73796 0
M  V30 26473 H 2440.04 0.217255 3.11343 0
M  V30 26474 N 2440.34 -1.5169 0.427538 0
M  V30 26475 C 2441.75 -1.86662 -0.0378539 0
M  V30 26476 C 2442.11 -1.34528 -1.42817 0
M  V30 26477 O 2441.23 -0.69205 -2.05036 0
M  V30 26478 C 2441.83 -3.38716 -0.0754671 0
M  V30 26479 C 2440.38 -3.73259 -0.485243 0
M  V30 26480 C 2439.53 -2.75348 0.328447 0
M  V30 26481 H 2442.48 -1.45054 0.643815 0
M  V30 26482 H 2442.5 -3.70017 -0.886991 0
M  V30 26483 H 2442.02 -3.7663 0.936554 0
M  V30 26484 H 2440.12 -3.40931 -1.50323 0
M  V30 26485 H 2440.23 -4.78609 -0.216846 0
M  V30 26486 H 2438.59 -2.53817 -0.211861 0
M  V30 26487 H 2439.38 -3.16103 1.33916 0
M  V30 26488 N 2441.82 -0.15856 -1.568 0
M  V30 26489 C 2442.73 0.789479 -2.20917 0
M  V30 26490 C 2443.75 1.26292 -1.19693 0
M  V30 26491 O 2444.92 1.3177 -1.52311 0
M  V30 26492 C 2441.99 2.0066 -2.82731 0
M  V30 26493 C 2441.05 1.58127 -3.99117 0
M  V30 26494 C 2440.28 2.74037 -4.57973 0
M  V30 26495 O 2440.51 3.90565 -4.15711 0
M  V30 26496 O 2439.44 2.48845 -5.48051 0
M  V30 26497 H 2443.27 0.273628 -3.02465 0
M  V30 26498 H 2440.85 0.0690286 -1.4924 0
M  V30 26499 H 2442.73 2.71866 -3.21973 0
M  V30 26500 H 2441.41 2.51175 -2.04188 0
M  V30 26501 H 2440.31 0.83909 -3.64568 0
M  V30 26502 H 2441.65 1.12316 -4.79214 0
M  V30 26503 N 2443.3 1.57178 0.115204 0
M  V30 26504 C 2444.55 1.84239 0.820913 0
M  V30 26505 C 2444.86 0.744792 1.80865 0
M  V30 26506 O 2446.07 0.901916 2.56081 0
M  V30 26507 C 2444.52 3.2666 1.51066 0
M  V30 26508 C 2444.13 4.44439 0.563716 0
M  V30 26509 C 2445.88 3.62965 2.20128 0
M  V30 26510 C 2443.78 5.77889 1.25691 0
M  V30 26511 H 2442.71 0.687183 0.310315 0
M  V30 26512 H 2445.36 1.83352 0.0736811 0
M  V30 26513 H 2443.75 3.22028 2.30465 0
M  V30 26514 H 2444.92 4.60377 -0.197328 0
M  V30 26515 H 2443.23 4.16395 -0.020137 0
M  V30 26516 H 2445.83 4.59941 2.72687 0
M  V30 26517 H 2446.17 2.90587 2.98102 0
M  V30 26518 H 2446.71 3.69399 1.47613 0
M  V30 26519 H 2443.45 6.53447 0.518378 0
M  V30 26520 H 2442.97 5.65831 1.98987 0
M  V30 26521 H 2444.65 6.21774 1.78904 0
M  V30 26522 N 2444.78 -0.38549 1.52813 0
M  V30 26523 C 2446.19 -0.725804 1.42142 0
M  V30 26524 C 2446.39 -1.94 0.544624 0
M  V30 26525 O 2445.45 -2.52493 0.0194136 0
M  V30 26526 C 2446.76 -0.957618 2.85044 0
M  V30 26527 C 2448.31 -1.05887 2.94545 0
M  V30 26528 C 2448.79 -1.32329 4.38467 0
M  V30 26529 N 2450.28 -1.39143 4.41807 0
M  V30 26530 C 2451.01 -1.61275 5.50253 0
M  V30 26531 N 2450.51 -1.80854 6.68778 0
M  V30 26532 N 2452.3 -1.63483 5.37801 0
M  V30 26533 H 2444.45 0.413419 2.08338 0
M  V30 26534 H 2446.71 0.122792 0.940014 0
M  V30 26535 H 2446.42 -0.137507 3.51431 0
M  V30 26536 H 2446.29 -1.87131 3.27509 0
M  V30 26537 H 2448.68 -1.86955 2.28324 0
M  V30 26538 H 2448.76 -0.123012 2.55504 0
M  V30 26539 H 2448.41 -0.517704 5.05255 0
M  V30 26540 H 2448.34 -2.27205 4.75063 0
M  V30 26541 H 2450.83 -1.25707 3.56379 0
M  V30 26542 H 2451.14 -1.97258 7.47201 0
M  V30 26543 H 2449.49 -1.78072 6.718 0
M  V30 26544 H 2452.68 -1.47741 4.44174 0
M  V30 26545 H 2452.85 -1.80391 6.22385 0
M  V30 26546 N 2446.26 -1.43835 -0.644143 0
M  V30 26547 C 2447.67 -1.27435 -0.960853 0
M  V30 26548 C 2447.87 -0.200653 -2.00498 0
M  V30 26549 O 2446.93 0.417863 -2.49018 0
M  V30 26550 C 2448.24 -2.64169 -1.43649 0
M  V30 26551 C 2449.79 -2.71775 -1.55266 0
M  V30 26552 C 2450.26 -4.08948 -2.06217 0
M  V30 26553 N 2451.75 -4.11059 -2.13506 0
M  V30 26554 C 2452.49 -5.14038 -2.54072 0
M  V30 26555 N 2451.99 -6.27386 -2.93869 0
M  V30 26556 N 2453.78 -5.01392 -2.54092 0
M  V30 26557 H 2445.93 -2.12349 0.0466152 0
M  V30 26558 H 2448.19 -0.94708 -0.0417472 0
M  V30 26559 H 2447.9 -3.43748 -0.743646 0
M  V30 26560 H 2447.77 -2.9018 -2.40988 0
M  V30 26561 H 2450.16 -1.92523 -2.23649 0
M  V30 26562 H 2450.24 -2.4952 -0.563351 0
M  V30 26563 H 2449.88 -4.8867 -1.38433 0
M  V30 26564 H 2449.81 -4.28573 -3.05995 0
M  V30 26565 H 2452.31 -3.29246 -1.85488 0
M  V30 26566 H 2452.62 -7.01786 -3.23598 0
M  V30 26567 H 2450.96 -6.30844 -2.91651 0
M  V30 26568 H 2454.15 -4.11902 -2.22383 0
M  V30 26569 H 2454.33 -5.81773 -2.85383 0
M  V30 26570 N 2447.73 0.883355 -1.30517 0
M  V30 26571 C 2448.7 1.9708 -1.17014 0
M  V30 26572 C 2449.7 1.60483 -0.100918 0
M  V30 26573 O 2450.89 1.70665 -0.349157 0
M  V30 26574 C 2448.02 3.31546 -0.793103 0
M  V30 26575 H 2449.21 2.10486 -2.13625 0
M  V30 26576 H 2446.76 1.06996 -1.13936 0
M  V30 26577 H 2447.5 3.23841 0.172442 0
M  V30 26578 H 2447.28 3.59478 -1.56583 0
M  V30 26579 H 2448.77 4.11309 -0.722146 0
M  V30 26580 N 2449.21 1.13259 1.09591 0
M  V30 26581 C 2450.46 0.887949 1.81103 0
M  V30 26582 C 2450.77 -0.587639 1.86564 0
M  V30 26583 O 2451.98 -0.94916 2.54368 0
M  V30 26584 C 2450.44 1.539 3.25335 0
M  V30 26585 C 2450.04 3.05 3.28145 0
M  V30 26586 C 2451.79 1.37499 4.01615 0
M  V30 26587 C 2449.69 3.62998 4.6689 0
M  V30 26588 H 2448.62 0.328546 0.678656 0
M  V30 26589 H 2451.28 1.3601 1.2318 0
M  V30 26590 H 2449.66 0.994514 3.83309 0
M  V30 26591 H 2450.83 3.66014 2.79947 0
M  V30 26592 H 2449.15 3.20898 2.65355 0
M  V30 26593 H 2451.74 1.78244 5.04116 0
M  V30 26594 H 2452.09 0.319643 4.15071 0
M  V30 26595 H 2452.62 1.88918 3.50078 0
M  V30 26596 H 2449.36 4.68331 4.58635 0
M  V30 26597 H 2448.88 3.06761 5.1542 0
M  V30 26598 H 2450.56 3.62573 5.35864 0
M  V30 26599 N 2450.69 -1.27539 0.925834 0
M  V30 26600 C 2451.91 -1.99097 0.580959 0
M  V30 26601 C 2452.34 -1.68624 -0.833526 0
M  V30 26602 O 2451.7 -0.925449 -1.55901 0
M  V30 26603 C 2451.75 -3.51356 0.811248 0
M  V30 26604 O 2450.85 -4.12213 -0.124056 0
M  V30 26605 H 2450.19 -0.625118 0.223884 0
M  V30 26606 H 2452.72 -1.62393 1.24458 0
M  V30 26607 H 2452.73 -4.01487 0.726081 0
M  V30 26608 H 2451.41 -3.72869 1.84233 0
M  V30 26609 H 2449.98 -3.72898 0.0108661 0
M  V30 26610 N 2452.17 -0.691135 -1.41637 0
M  V30 26611 C 2453.41 -0.224326 -2.03165 0
M  V30 26612 C 2453.77 1.15281 -1.53539 0
M  V30 26613 O 2454.97 1.71522 -2.06963 0
M  V30 26614 C 2453.24 -0.27482 -3.56342 0
M  V30 26615 S 2454.8 0.118592 -4.3864 0
M  V30 26616 H 2451.62 -0.0907387 -0.705186 0
M  V30 26617 H 2454.22 -0.907925 -1.73139 0
M  V30 26618 H 2452.93 -1.27917 -3.89956 0
M  V30 26619 H 2452.46 0.428074 -3.91064 0
M  V30 26620 H 2454.47 1.34756 -4.77551 0
M  V30 26621 N 2453.65 1.51461 -0.435577 0
M  V30 26622 C 2454.92 1.94662 0.19133 0
M  V30 26623 C 2455.3 1.37414 1.60252 0
M  V30 26624 O 2454.65 0.560497 2.21519 0
M  V30 26625 C 2454.86 3.48582 0.170849 0
M  V30 26626 C 2456.21 4.2292 0.377283 0
M  V30 26627 O 2457.23 3.55328 0.249042 0
M  V30 26628 O 2456.09 5.42829 0.632375 0
M  V30 26629 H 2453.19 0.816572 0.130918 0
M  V30 26630 H 2455.73 1.62368 -0.493429 0
M  V30 26631 H 2454.5 3.82701 -0.815805 0
M  V30 26632 H 2454.13 3.87313 0.898591 0
M  V30 26633 N 2455.12 0.166873 1.56714 0
M  V30 26634 C 2456.05 -0.760874 2.20755 0
M  V30 26635 C 2457.04 -1.24242 1.1618 0
M  V30 26636 O 2458.22 -1.29639 1.44594 0
M  V30 26637 C 2455.35 -1.99218 2.84481 0
M  V30 26638 C 2454.3 -1.64665 3.95056 0
M  V30 26639 C 2453.63 -2.95224 4.4581 0
M  V30 26640 C 2454.93 -0.878064 5.14866 0
M  V30 26641 H 2456.62 -0.227077 2.98538 0
M  V30 26642 H 2454.17 -0.10778 1.43596 0
M  V30 26643 H 2456.12 -2.64618 3.27956 0
M  V30 26644 H 2454.85 -2.55004 2.04061 0
M  V30 26645 H 2453.51 -1.01635 3.5223 0
M  V30 26646 H 2453.15 -3.49041 3.62187 0
M  V30 26647 H 2452.85 -2.72861 5.20404 0
M  V30 26648 H 2454.38 -3.61662 4.91969 0
M  V30 26649 H 2455.79 -1.43456 5.55061 0
M  V30 26650 H 2454.19 -0.753633 5.95349 0
M  V30 26651 H 2455.26 0.126462 4.84735 0
M  V30 26652 N 2456.6 -1.57237 -0.106866 0
M  V30 26653 C 2457.53 -1.97887 -1.15643 0
M  V30 26654 C 2458.55 -0.879803 -1.36979 0
M  V30 26655 O 2459.74 -1.15801 -1.35839 0
M  V30 26656 C 2456.84 -2.27246 -2.51421 0
M  V30 26657 C 2456.01 -3.58549 -2.50522 0
M  V30 26658 C 2455.07 -3.7598 -3.68138 0
M  V30 26659 O 2454.09 -4.47962 -3.51168 0
M  V30 26660 N 2455.3 -3.15665 -4.87171 0
M  V30 26661 H 2458.06 -2.88531 -0.81054 0
M  V30 26662 H 2455.62 -1.59171 -0.295996 0
M  V30 26663 H 2457.61 -2.36111 -3.28685 0
M  V30 26664 H 2456.18 -1.42668 -2.78145 0
M  V30 26665 H 2455.4 -3.60761 -1.58887 0
M  V30 26666 H 2456.69 -4.4483 -2.46989 0
M  V30 26667 H 2456.09 -2.57174 -5.03863 0
M  V30 26668 H 2454.65 -3.30033 -5.62069 0
M  V30 26669 N 2458.08 0.377381 -1.53015 0
M  V30 26670 C 2459.36 1.13619 -1.59217 0
M  V30 26671 C 2459.74 2.0742 -0.392444 0
M  V30 26672 O 2459.09 2.19976 0.618303 0
M  V30 26673 C 2459.3 1.88568 -2.93672 0
M  V30 26674 C 2460.64 2.43519 -3.47827 0
M  V30 26675 O 2461.67 1.9871 -2.95623 0
M  V30 26676 O 2460.53 3.25404 -4.39061 0
M  V30 26677 H 2457.62 0.520529 -0.642634 0
M  V30 26678 H 2460.17 0.381596 -1.65354 0
M  V30 26679 H 2458.94 1.20042 -3.72432 0
M  V30 26680 H 2458.56 2.70963 -2.90972 0
M  V30 26681 N 2459.56 1.44175 0.636506 0
M  V30 26682 C 2460.84 1.3715 1.3946 0
M  V30 26683 C 2461.22 0.0275441 2.11082 0
M  V30 26684 O 2460.56 -0.98968 2.05955 0
M  V30 26685 C 2460.77 2.56605 2.36548 0
M  V30 26686 C 2462.12 3.00433 3.00042 0
M  V30 26687 O 2463.15 2.56772 2.46874 0
M  V30 26688 O 2462 3.76118 3.96481 0
M  V30 26689 H 2459.1 0.54285 0.623893 0
M  V30 26690 H 2461.64 1.56255 0.662012 0
M  V30 26691 H 2460.42 3.46037 1.82686 0
M  V30 26692 H 2460.04 2.39687 3.17232 0
M  V30 26693 N 2461.04 -0.876421 1.30983 0
M  V30 26694 C 2461.95 -2.01567 1.20033 0
M  V30 26695 C 2462.96 -1.73597 0.11841 0
M  V30 26696 O 2464.14 -1.98595 0.334984 0
M  V30 26697 C 2461.2 -3.34769 0.901696 0
M  V30 26698 C 2460.26 -3.76105 2.06986 0
M  V30 26699 C 2459.5 -5.02951 1.78538 0
M  V30 26700 O 2459.72 -5.65871 0.717396 0
M  V30 26701 O 2458.65 -5.409 2.64028 0
M  V30 26702 H 2462.48 -2.13735 2.15757 0
M  V30 26703 H 2460.07 -1.00373 1.1066 0
M  V30 26704 H 2461.95 -4.14659 0.750718 0
M  V30 26705 H 2460.62 -3.2369 -0.0255572 0
M  V30 26706 H 2459.53 -2.96883 2.27621 0
M  V30 26707 H 2460.86 -3.91801 2.97914 0
M  V30 26708 N 2462.51 -1.13839 -1.08989 0
M  V30 26709 C 2463.93 -0.914946 -1.62744 0
M  V30 26710 C 2464.28 0.547561 -1.88404 0
M  V30 26711 O 2463.4 1.41522 -1.63708 0
M  V30 26712 C 2464 -1.65442 -2.95659 0
M  V30 26713 C 2462.56 -1.47672 -3.46222 0
M  V30 26714 C 2461.7 -1.68074 -2.20559 0
M  V30 26715 H 2464.65 -1.29104 -0.922923 0
M  V30 26716 H 2464.67 -1.11413 -3.63823 0
M  V30 26717 H 2464.19 -2.71882 -2.76951 0
M  V30 26718 H 2462.29 -0.435543 -3.70046 0
M  V30 26719 H 2462.4 -2.24276 -4.23364 0
M  V30 26720 H 2460.76 -1.10593 -2.29437 0
M  V30 26721 H 2461.55 -2.75843 -2.04366 0
M  V30 26722 N 2463.99 1.27046 -0.932584 0
M  V30 26723 C 2464.9 2.30413 -0.441259 0
M  V30 26724 C 2465.92 1.67234 0.480496 0
M  V30 26725 O 2467.09 1.98118 0.362116 0
M  V30 26726 C 2464.16 3.45455 0.29359 0
M  V30 26727 C 2463.22 4.24139 -0.663675 0
M  V30 26728 C 2462.45 5.33688 0.0361994 0
M  V30 26729 O 2462.68 5.56429 1.2547 0
M  V30 26730 O 2461.61 5.98508 -0.63812 0
M  V30 26731 H 2465.44 2.74486 -1.29967 0
M  V30 26732 H 2463.02 1.32086 -0.698124 0
M  V30 26733 H 2464.9 4.15412 0.707878 0
M  V30 26734 H 2463.58 3.03428 1.12753 0
M  V30 26735 H 2462.49 3.56697 -1.12774 0
M  V30 26736 H 2463.82 4.69893 -1.46497 0
M  V30 26737 N 2465.47 0.698636 1.41269 0
M  V30 26738 C 2466.38 0.0358304 2.34573 0
M  V30 26739 C 2467.4 -0.762673 1.56395 0
M  V30 26740 O 2468.57 -0.69953 1.88861 0
M  V30 26741 C 2465.64 -0.887031 3.35161 0
M  V30 26742 C 2464.7 -0.0803879 4.29225 0
M  V30 26743 C 2463.93 -0.959295 5.25008 0
M  V30 26744 O 2464.15 -2.19877 5.26318 0
M  V30 26745 O 2463.09 -0.407334 6.0052 0
M  V30 26746 H 2466.91 0.805009 2.92837 0
M  V30 26747 H 2464.5 0.458991 1.42175 0
M  V30 26748 H 2466.38 -1.41614 3.96892 0
M  V30 26749 H 2465.06 -1.63565 2.79335 0
M  V30 26750 H 2463.96 0.493394 3.70832 0
M  V30 26751 H 2465.3 0.629632 4.88156 0
M  V30 26752 N 2466.95 -1.51228 0.443603 0
M  V30 26753 C 2468.18 -2.06556 -0.119253 0
M  V30 26754 C 2468.59 -1.3104 -1.35919 0
M  V30 26755 O 2467.95 -0.371736 -1.78674 0
M  V30 26756 C 2468 -3.58871 -0.435165 0
M  V30 26757 O 2467.72 -4.31535 0.755562 0
M  V30 26758 C 2469.22 -4.30734 -1.04801 0
M  V30 26759 H 2466.44 -0.67098 -0.0051466 0
M  V30 26760 H 2468.99 -1.94732 0.624487 0
M  V30 26761 H 2467.14 -3.7059 -1.12881 0
M  V30 26762 H 2467.55 -5.22266 0.483582 0
M  V30 26763 H 2469.03 -5.38372 -1.21901 0
M  V30 26764 H 2469.51 -3.89432 -2.03074 0
M  V30 26765 H 2470.11 -4.23475 -0.393562 0
M  V30 26766 N 2468.43 -0.175182 -1.56623 0
M  V30 26767 C 2469.37 0.753596 -2.1815 0
M  V30 26768 C 2470.34 1.22415 -1.12267 0
M  V30 26769 O 2471.53 1.29162 -1.40434 0
M  V30 26770 C 2468.67 1.97587 -2.82937 0
M  V30 26771 C 2467.78 1.54853 -4.03292 0
M  V30 26772 C 2466.92 2.72477 -4.55993 0
M  V30 26773 C 2465.96 2.26252 -5.6875 0
M  V30 26774 N 2465.09 3.36983 -6.15944 0
M  V30 26775 H 2469.93 0.222143 -2.97171 0
M  V30 26776 H 2467.47 0.0979164 -1.46774 0
M  V30 26777 H 2469.43 2.69282 -3.18658 0
M  V30 26778 H 2468.06 2.48097 -2.06514 0
M  V30 26779 H 2467.11 0.728181 -3.73365 0
M  V30 26780 H 2468.42 1.16925 -4.84902 0
M  V30 26781 H 2467.58 3.52323 -4.93916 0
M  V30 26782 H 2466.31 3.13668 -3.73449 0
M  V30 26783 H 2465.32 1.44854 -5.30375 0
M  V30 26784 H 2466.54 1.86115 -6.53099 0
M  V30 26785 H 2464.49 3.77742 -5.36328 0
M  V30 26786 H 2464.41 3.0316 -6.92553 0
M  V30 26787 H 2465.68 4.17102 -6.58518 0
M  V30 26788 N 2469.91 1.57292 0.0985263 0
M  V30 26789 C 2471.32 1.53047 0.452643 0
M  V30 26790 C 2471.52 0.891374 1.80712 0
M  V30 26791 O 2470.58 0.482419 2.47849 0
M  V30 26792 C 2471.89 2.97776 0.418288 0
M  V30 26793 C 2473.44 3.08974 0.500388 0
M  V30 26794 C 2473.91 4.55304 0.496217 0
M  V30 26795 N 2475.4 4.59838 0.55707 0
M  V30 26796 C 2476.14 5.70503 0.575625 0
M  V30 26797 N 2475.64 6.90609 0.550593 0
M  V30 26798 N 2477.43 5.58668 0.620178 0
M  V30 26799 H 2469.58 1.97213 -0.788708 0
M  V30 26800 H 2471.84 0.901519 -0.293203 0
M  V30 26801 H 2471.55 3.47987 -0.50972 0
M  V30 26802 H 2471.42 3.56286 1.23854 0
M  V30 26803 H 2473.81 2.58754 1.41882 0
M  V30 26804 H 2473.89 2.53423 -0.347938 0
M  V30 26805 H 2473.53 5.06175 -0.418251 0
M  V30 26806 H 2473.46 5.08689 1.36171 0
M  V30 26807 H 2475.96 3.73395 0.58175 0
M  V30 26808 H 2476.27 7.7071 0.56794 0
M  V30 26809 H 2474.61 6.93069 0.517694 0
M  V30 26810 H 2477.8 4.63742 0.637241 0
M  V30 26811 H 2477.98 6.44919 0.63117 0
M  V30 26812 N 2471.38 -0.369261 1.53213 0
M  V30 26813 C 2472.29 -1.47606 1.82345 0
M  V30 26814 C 2473.31 -1.58785 0.71156 0
M  V30 26815 O 2474.49 -1.74749 1.00123 0
M  V30 26816 C 2471.55 -2.82916 2.00398 0
M  V30 26817 C 2470.61 -2.81295 3.24302 0
M  V30 26818 C 2469.84 -4.10151 3.41485 0
M  V30 26819 O 2470.07 -5.06127 2.63042 0
M  V30 26820 O 2469 -4.16187 4.34824 0
M  V30 26821 H 2472.83 -1.25913 2.76368 0
M  V30 26822 H 2470.41 -0.559009 1.38548 0
M  V30 26823 H 2472.29 -3.63097 2.13866 0
M  V30 26824 H 2470.97 -3.04594 1.09564 0
M  V30 26825 H 2469.88 -1.99825 3.1626 0
M  V30 26826 H 2471.21 -2.64571 4.15046 0
M  V30 26827 N 2472.86 -1.4451 -0.628851 0
M  V30 26828 C 2473.77 -1.54047 -1.76937 0
M  V30 26829 C 2474.79 -0.426016 -1.68704 0
M  V30 26830 O 2475.96 -0.683689 -1.8944 0
M  V30 26831 C 2473.03 -1.4841 -3.13329 0
M  V30 26832 C 2472.09 -2.70725 -3.33176 0
M  V30 26833 C 2471.32 -2.65348 -4.63062 0
M  V30 26834 O 2471.55 -1.71478 -5.44014 0
M  V30 26835 O 2470.48 -3.56234 -4.85161 0
M  V30 26836 H 2474.31 -2.50406 -1.71844 0
M  V30 26837 H 2471.89 -1.26782 -0.790355 0
M  V30 26838 H 2473.77 -1.47798 -3.94631 0
M  V30 26839 H 2472.45 -0.551955 -3.18959 0
M  V30 26840 H 2471.35 -2.76905 -2.51544 0
M  V30 26841 H 2472.69 -3.62994 -3.32409 0
M  V30 26842 N 2474.34 0.869463 -1.31446 0
M  V30 26843 C 2475.25 2.00927 -1.211 0
M  V30 26844 C 2476.27 1.73531 -0.127615 0
M  V30 26845 O 2477.44 1.98414 -0.345512 0
M  V30 26846 C 2474.51 3.34286 -0.919437 0
M  V30 26847 C 2473.57 3.75002 -2.08978 0
M  V30 26848 C 2472.8 5.01997 -1.81202 0
M  V30 26849 O 2473.02 5.65482 -0.747395 0
M  V30 26850 O 2471.96 5.39492 -2.66893 0
M  V30 26851 H 2475.78 2.12588 -2.16887 0
M  V30 26852 H 2473.37 0.997848 -1.11191 0
M  V30 26853 H 2475.25 4.14255 -0.772698 0
M  V30 26854 H 2473.93 3.23699 0.00839082 0
M  V30 26855 H 2472.83 2.95672 -2.29192 0
M  V30 26856 H 2474.17 3.90216 -2.99987 0
M  V30 26857 N 2475.82 1.14415 1.08383 0
M  V30 26858 C 2477.09 0.823328 1.77428 0
M  V30 26859 C 2477.47 -0.683128 1.99741 0
M  V30 26860 O 2476.82 -1.62402 1.60742 0
M  V30 26861 C 2477.03 1.62232 3.09001 0
M  V30 26862 C 2478.38 1.82184 3.83529 0
M  V30 26863 O 2479.4 1.5892 3.18783 0
M  V30 26864 O 2478.26 2.21075 4.99788 0
M  V30 26865 H 2475.36 0.301725 0.769994 0
M  V30 26866 H 2477.9 1.24936 1.14844 0
M  V30 26867 H 2476.68 2.6456 2.88312 0
M  V30 26868 H 2476.3 1.19193 3.79313 0
M  V30 26869 N 2477.3 -1.26549 0.939309 0
M  V30 26870 C 2478.57 -1.89 0.503833 0
M  V30 26871 C 2478.95 -1.84904 -1.01851 0
M  V30 26872 O 2478.3 -1.3021 -1.8777 0
M  V30 26873 C 2478.51 -3.32415 1.06306 0
M  V30 26874 C 2479.86 -4.09271 1.13058 0
M  V30 26875 O 2480.88 -3.41477 1.01351 0
M  V30 26876 O 2479.74 -5.30507 1.31242 0
M  V30 26877 H 2476.84 -0.810594 0.163911 0
M  V30 26878 H 2479.38 -1.34733 1.03175 0
M  V30 26879 H 2478.15 -3.29748 2.1067 0
M  V30 26880 H 2477.78 -3.94218 0.517477 0
M  V30 26881 N 2478.77 -0.706118 -1.40896 0
M  V30 26882 C 2480.02 -0.241924 -2.01352 0
M  V30 26883 C 2480.35 1.15885 -1.55834 0
M  V30 26884 O 2479.63 1.78429 -0.774177 0
M  V30 26885 C 2479.91 -0.311374 -3.58751 0
M  V30 26886 C 2479.76 -1.74985 -4.14367 0
M  V30 26887 C 2481.08 0.322845 -4.38914 0
M  V30 26888 H 2478.2 -0.0893815 -0.73156 0
M  V30 26889 H 2480.84 -0.896832 -1.67502 0
M  V30 26890 H 2478.99 0.246234 -3.87719 0
M  V30 26891 H 2480.67 -2.36211 -3.96235 0
M  V30 26892 H 2478.91 -2.28063 -3.69012 0
M  V30 26893 H 2479.58 -1.7499 -5.23529 0
M  V30 26894 H 2482.06 -0.152162 -4.15822 0
M  V30 26895 H 2480.93 0.243759 -5.48358 0
M  V30 26896 H 2481.19 1.40506 -4.19178 0
M  V30 26897 N 2480.25 1.50991 -0.451617 0
M  V30 26898 C 2481.5 2.02201 0.110039 0
M  V30 26899 C 2481.83 1.33491 1.41458 0
M  V30 26900 O 2481.08 0.443159 1.90616 0
M  V30 26901 C 2481.38 3.55565 0.361665 0
M  V30 26902 C 2481.05 4.42646 -0.858795 0
M  V30 26903 C 2479.71 4.66165 -1.19346 0
M  V30 26904 C 2482.06 4.93643 -1.6723 0
M  V30 26905 C 2479.39 5.37927 -2.34205 0
M  V30 26906 C 2481.74 5.66665 -2.812 0
M  V30 26907 C 2480.4 5.88443 -3.15104 0
M  V30 26908 H 2479.67 0.739905 0.040266 0
M  V30 26909 H 2482.32 1.81801 -0.601728 0
M  V30 26910 H 2480.63 3.74374 1.15548 0
M  V30 26911 H 2482.32 3.92736 0.809891 0
M  V30 26912 H 2478.91 4.24547 -0.588035 0
M  V30 26913 H 2483.1 4.75344 -1.42695 0
M  V30 26914 H 2478.35 5.53 -2.6077 0
M  V30 26915 H 2482.53 6.05167 -3.44596 0
M  V30 26916 H 2480.15 6.43828 -4.04215 0
M  V30 26917 N 2481.73 0.183486 1.56528 0
M  V30 26918 C 2482.68 -0.742016 2.18547 0
M  V30 26919 C 2483.65 -1.21818 1.12914 0
M  V30 26920 O 2484.83 -1.28416 1.41117 0
M  V30 26921 C 2481.97 -1.96084 2.83981 0
M  V30 26922 C 2481.08 -1.52712 4.04108 0
M  V30 26923 C 2480.22 -2.70055 4.57432 0
M  V30 26924 C 2479.26 -2.23233 5.69942 0
M  V30 26925 N 2478.4 -3.33712 6.17722 0
M  V30 26926 H 2483.24 -0.20638 2.97284 0
M  V30 26927 H 2480.77 -0.0901313 1.46824 0
M  V30 26928 H 2482.73 -2.67589 3.20082 0
M  V30 26929 H 2481.36 -2.46998 2.07826 0
M  V30 26930 H 2480.41 -0.70837 3.73746 0
M  V30 26931 H 2481.72 -1.14352 4.85515 0
M  V30 26932 H 2480.88 -3.49699 4.95778 0
M  V30 26933 H 2479.62 -3.11683 3.75107 0
M  V30 26934 H 2478.62 -1.42039 5.31136 0
M  V30 26935 H 2479.85 -1.82649 6.54077 0
M  V30 26936 H 2477.79 -3.74892 5.38323 0
M  V30 26937 H 2477.71 -2.99483 6.94151 0
M  V30 26938 H 2478.98 -4.13604 6.60721 0
M  V30 26939 N 2483.21 -1.57342 -0.0901833 0
M  V30 26940 C 2484.62 -1.53285 -0.44452 0
M  V30 26941 C 2484.82 -0.900945 -1.80237 0
M  V30 26942 O 2483.88 -0.495556 -2.47589 0
M  V30 26943 C 2485.19 -2.97994 -0.402491 0
M  V30 26944 C 2486.74 -3.09235 -0.483996 0
M  V30 26945 C 2487.22 -4.55561 -0.472064 0
M  V30 26946 N 2488.71 -4.60127 -0.532676 0
M  V30 26947 C 2489.44 -5.70801 -0.545362 0
M  V30 26948 N 2488.94 -6.90891 -0.51396 0
M  V30 26949 N 2490.73 -5.58989 -0.590542 0
M  V30 26950 H 2482.88 -1.96792 0.799156 0
M  V30 26951 H 2485.14 -0.899951 0.29798 0
M  V30 26952 H 2484.85 -3.47711 0.528167 0
M  V30 26953 H 2484.72 -3.56938 -1.21963 0
M  V30 26954 H 2487.11 -2.59503 -1.40507 0
M  V30 26955 H 2487.19 -2.53235 0.361373 0
M  V30 26956 H 2486.84 -5.05946 0.445089 0
M  V30 26957 H 2486.77 -5.09404 -1.33471 0
M  V30 26958 H 2489.26 -3.73699 -0.56194 0
M  V30 26959 H 2489.57 -7.71001 -0.527059 0
M  V30 26960 H 2487.92 -6.93334 -0.480932 0
M  V30 26961 H 2491.11 -4.64074 -0.612638 0
M  V30 26962 H 2491.28 -6.45244 -0.59696 0
M  V30 26963 N 2484.69 0.36113 -1.53407 0
M  V30 26964 C 2485.63 1.46293 -1.80834 0
M  V30 26965 C 2486.63 1.55252 -0.677727 0
M  V30 26966 O 2487.83 1.58086 -0.860751 0
M  V30 26967 H 2484.21 0.487435 -0.572635 0
M  V30 26968 H 2486.18 1.20366 -2.73047 0
M  V30 26969 C 2484.93 2.83067 -2.01912 0
M  V30 26970 H 2484.25 2.76933 -2.88354 0
M  V30 26971 H 2485.69 3.59327 -2.25079 0
M  V30 26972 C 2484.15 3.27276 -0.799506 0
M  V30 26973 O 2484.68 4.01699 0.00964701 0
M  V30 26974 N 2482.89 2.83872 -0.621687 0
M  V30 26975 H 2482.43 2.23474 -1.2813 0
M  V30 26976 H 2482.39 3.13808 0.192925 0
M  V30 26977 N 2486.16 1.44842 0.621179 0
M  V30 26978 C 2487.41 1.47855 1.3778 0
M  V30 26979 C 2487.73 0.116258 1.94653 0
M  V30 26980 O 2487 -0.852706 1.76368 0
M  V30 26981 H 2485.58 0.544458 0.511443 0
M  V30 26982 H 2488.25 1.80696 0.730414 0
M  V30 26983 H 2487.34 2.20965 2.20411 0
M  V30 26984 N 2487.64 -0.862479 1.31905 0
M  V30 26985 C 2488.61 -1.95193 1.20134 0
M  V30 26986 C 2489.61 -1.60302 0.126437 0
M  V30 26987 O 2490.8 -1.70088 0.376264 0
M  V30 26988 C 2487.93 -3.30242 0.845749 0
M  V30 26989 H 2489.12 -2.0706 2.16947 0
M  V30 26990 H 2486.67 -1.0517 1.15624 0
M  V30 26991 H 2487.41 -3.24075 -0.1209 0
M  V30 26992 H 2487.19 -3.56941 1.62282 0
M  V30 26993 H 2488.68 -4.10108 0.78749 0
M  V30 26994 N 2489.12 -1.14988 -1.07775 0
M  V30 26995 C 2490.05 -0.865595 -2.16863 0
M  V30 26996 C 2491.03 0.182053 -1.69123 0
M  V30 26997 O 2492.22 0.0373473 -1.94164 0
M  V30 26998 C 2489.35 -0.349373 -3.45538 0
M  V30 26999 C 2488.3 -1.3332 -4.06706 0
M  V30 27000 C 2487.63 -0.676011 -5.30409 0
M  V30 27001 C 2488.93 -2.69772 -4.47236 0
M  V30 27002 H 2490.62 -1.77782 -2.40902 0
M  V30 27003 H 2488.17 -0.856223 -1.15779 0
M  V30 27004 H 2490.12 -0.138057 -4.21174 0
M  V30 27005 H 2488.84 0.598306 -3.21073 0
M  V30 27006 H 2487.5 -1.53081 -3.33109 0
M  V30 27007 H 2487.15 0.277679 -5.02233 0
M  V30 27008 H 2486.85 -1.33254 -5.72291 0
M  V30 27009 H 2488.37 -0.474369 -6.08755 0
M  V30 27010 H 2489.79 -2.53882 -5.1402 0
M  V30 27011 H 2488.19 -3.31759 -5.00056 0
M  V30 27012 H 2489.26 -3.26162 -3.58812 0
M  V30 27013 N 2490.6 1.26049 -0.946007 0
M  V30 27014 C 2491.53 2.28572 -0.477212 0
M  V30 27015 C 2492.51 1.6342 0.472003 0
M  V30 27016 O 2493.69 1.90588 0.372819 0
M  V30 27017 C 2490.82 3.46371 0.253914 0
M  V30 27018 C 2489.78 4.23642 -0.60921 0
M  V30 27019 C 2489.1 5.34105 0.252158 0
M  V30 27020 C 2490.4 4.87176 -1.88299 0
M  V30 27021 H 2492.1 2.68035 -1.33407 0
M  V30 27022 H 2489.64 1.28851 -0.642926 0
M  V30 27023 H 2491.6 4.17208 0.592942 0
M  V30 27024 H 2490.32 3.05873 1.14495 0
M  V30 27025 H 2488.98 3.54576 -0.9312 0
M  V30 27026 H 2488.63 4.89848 1.14269 0
M  V30 27027 H 2488.33 5.86717 -0.321983 0
M  V30 27028 H 2489.85 6.07778 0.586347 0
M  V30 27029 H 2491.27 5.50202 -1.61091 0
M  V30 27030 H 2489.66 5.49927 -2.40209 0
M  V30 27031 H 2490.73 4.09846 -2.59141 0
M  V30 27032 N 2492.08 0.71358 1.4052 0
M  V30 27033 C 2493.32 0.251727 2.00526 0
M  V30 27034 C 2493.65 -1.15845 1.56859 0
M  V30 27035 O 2492.92 -1.78499 0.807159 0
M  V30 27036 H 2491.5 0.0900777 0.741549 0
M  V30 27037 H 2494.16 0.918763 1.71886 0
M  V30 27038 H 2493.25 0.283246 3.10812 0
M  V30 27039 N 2493.55 -1.50749 0.459618 0
M  V30 27040 C 2494.5 -2.29881 -0.354637 0
M  V30 27041 C 2495.5 -1.36674 -1.00083 0
M  V30 27042 O 2496.7 -1.53917 -0.93325 0
M  V30 27043 H 2493.08 -0.74011 -0.133197 0
M  V30 27044 H 2495.05 -2.96533 0.333321 0
M  V30 27045 C 2493.8 -3.16902 -1.43067 0
M  V30 27046 H 2493.12 -3.88524 -0.942813 0
M  V30 27047 H 2494.56 -3.75287 -1.97321 0
M  V30 27048 C 2493.02 -2.33736 -2.42629 0
M  V30 27049 O 2493.55 -2.01244 -3.47654 0
M  V30 27050 N 2491.76 -1.96534 -2.14063 0
M  V30 27051 H 2491.3 -2.23157 -1.28681 0
M  V30 27052 H 2491.26 -1.4119 -2.80914 0
M  V30 27053 N 2495.03 -0.191784 -1.56429 0
M  V30 27054 C 2495.98 0.743146 -2.15549 0
M  V30 27055 C 2496.97 1.17861 -1.09533 0
M  V30 27056 O 2498.16 1.13757 -1.35604 0
M  V30 27057 C 2495.29 1.96386 -2.8158 0
M  V30 27058 C 2494.37 1.54944 -3.94782 0
M  V30 27059 N 2494.76 0.845789 -4.98678 0
M  V30 27060 C 2493.06 1.83898 -4.06322 0
M  V30 27061 C 2493.76 0.638622 -5.78184 0
M  V30 27062 N 2492.74 1.18633 -5.30497 0
M  V30 27063 H 2496.54 0.196787 -2.9324 0
M  V30 27064 H 2494.06 0.00813176 -1.62398 0
M  V30 27065 H 2496.05 2.64409 -3.22325 0
M  V30 27066 H 2494.71 2.51497 -2.05376 0
M  V30 27067 H 2495.72 0.501613 -5.15465 0
M  V30 27068 H 2492.4 2.40542 -3.41242 0
M  V30 27069 H 2493.79 0.0806748 -6.71852 0
M  V30 27070 N 2496.51 1.57387 0.0818378 0
M  V30 27071 C 2497.76 1.87031 0.784041 0
M  V30 27072 C 2498.09 0.78272 1.77728 0
M  V30 27073 O 2497.36 -0.208017 1.93384 0
M  V30 27074 C 2497.65 3.27326 1.50099 0
M  V30 27075 C 2497.5 4.46727 0.524847 0
M  V30 27076 C 2498.82 3.65709 2.44837 0
M  V30 27077 H 2495.94 0.680262 0.28357 0
M  V30 27078 H 2498.58 1.89941 0.0474019 0
M  V30 27079 H 2496.73 3.24976 2.12891 0
M  V30 27080 H 2498.4 4.61198 -0.0970922 0
M  V30 27081 H 2496.65 4.33502 -0.160682 0
M  V30 27082 H 2497.32 5.4165 1.06391 0
M  V30 27083 H 2499.79 3.69088 1.92128 0
M  V30 27084 H 2498.67 4.64781 2.9201 0
M  V30 27085 H 2498.93 2.95101 3.29192 0
M  V30 27086 N 2497.99 -0.35299 1.53596 0
M  V30 27087 C 2498.94 -1.45332 1.81608 0
M  V30 27088 C 2499.93 -1.54891 0.685951 0
M  V30 27089 O 2501.14 -1.57627 0.869123 0
M  V30 27090 H 2497.51 -0.484391 0.575212 0
M  V30 27091 H 2499.48 -1.18916 2.73681 0
M  V30 27092 C 2498.23 -2.81992 2.03411 0
M  V30 27093 H 2497.55 -2.754 2.89818 0
M  V30 27094 H 2498.99 -3.58128 2.26981 0
M  V30 27095 C 2497.45 -3.26847 0.816851 0
M  V30 27096 O 2497.98 -4.01698 0.0116562 0
M  V30 27097 N 2496.19 -2.83538 0.636732 0
M  V30 27098 H 2495.74 -2.22791 1.29313 0
M  V30 27099 H 2495.69 -3.13905 -0.17628 0
M  V30 27100 N 2499.47 -1.45169 -0.613489 0
M  V30 27101 C 2500.42 -1.49818 -1.71868 0
M  V30 27102 C 2501.4 -0.362049 -1.56774 0
M  V30 27103 O 2502.59 -0.608522 -1.66211 0
M  V30 27104 C 2499.72 -1.46212 -3.10607 0
M  V30 27105 C 2498.81 -2.65005 -3.31109 0
M  V30 27106 N 2499.2 -3.90148 -3.21897 0
M  V30 27107 C 2497.5 -2.60576 -3.61961 0
M  V30 27108 C 2498.2 -4.69399 -3.43569 0
M  V30 27109 N 2497.17 -4.00757 -3.6728 0
M  V30 27110 H 2500.98 -2.44403 -1.63231 0
M  V30 27111 H 2498.49 -1.40379 -0.816552 0
M  V30 27112 H 2500.49 -1.47627 -3.89887 0
M  V30 27113 H 2499.15 -0.526786 -3.20398 0
M  V30 27114 H 2500.16 -4.21857 -3.00428 0
M  V30 27115 H 2496.84 -1.75923 -3.78626 0
M  V30 27116 H 2498.23 -5.78412 -3.4189 0
M  V30 27117 N 2500.95 0.855472 -1.32361 0
M  V30 27118 C 2502.19 1.61198 -1.23057 0
M  V30 27119 C 2502.52 1.9309 0.20737 0
M  V30 27120 O 2501.8 1.57278 1.14429 0
M  V30 27121 C 2502.08 2.93284 -2.08942 0
M  V30 27122 C 2501.94 2.68179 -3.6111 0
M  V30 27123 C 2503.25 3.94545 -1.94993 0
M  V30 27124 H 2500.37 0.584919 -0.448374 0
M  V30 27125 H 2503.02 0.987888 -1.62298 0
M  V30 27126 H 2501.17 3.46548 -1.75605 0
M  V30 27127 H 2502.84 2.21475 -4.04656 0
M  V30 27128 H 2501.08 2.02158 -3.83816 0
M  V30 27129 H 2501.75 3.62227 -4.16528 0
M  V30 27130 H 2504.23 3.50536 -2.24196 0
M  V30 27131 H 2503.1 4.84824 -2.57364 0
M  V30 27132 H 2503.36 4.32478 -0.917339 0
M  V30 27133 N 2502.42 1.15558 1.07164 0
M  V30 27134 C 2503.37 0.849938 2.16515 0
M  V30 27135 C 2504.37 -0.177424 1.68468 0
M  V30 27136 O 2505.57 -0.032271 1.79971 0
M  V30 27137 H 2501.95 0.257203 0.706648 0
M  V30 27138 H 2503.92 1.77981 2.39511 0
M  V30 27139 C 2502.67 0.357743 3.45855 0
M  V30 27140 H 2501.99 1.13968 3.83212 0
M  V30 27141 H 2503.43 0.182563 4.23607 0
M  V30 27142 C 2501.89 -0.921096 3.24064 0
M  V30 27143 O 2502.42 -1.99223 3.48816 0
M  V30 27144 N 2500.62 -0.861361 2.77541 0
M  V30 27145 H 2500.17 0.0104861 2.57598 0
M  V30 27146 H 2500.13 -1.71754 2.6334 0
M  V30 27147 N 2503.9 -1.25546 0.952678 0
M  V30 27148 C 2505.13 -1.9782 0.623059 0
M  V30 27149 C 2505.55 -1.70354 -0.79757 0
M  V30 27150 O 2504.91 -0.95831 -1.53903 0
M  V30 27151 C 2504.96 -3.49556 0.885593 0
M  V30 27152 O 2504.06 -4.12384 -0.0365917 0
M  V30 27153 H 2503.4 -0.620228 0.237093 0
M  V30 27154 H 2505.93 -1.59716 1.27874 0
M  V30 27155 H 2505.94 -3.99857 0.811079 0
M  V30 27156 H 2504.62 -3.68877 1.92101 0
M  V30 27157 H 2503.19 -3.72791 0.089961 0
M  V30 27158 N 2505.38 -0.721022 -1.40139 0
M  V30 27159 C 2506.66 -0.189792 -1.94677 0
M  V30 27160 C 2507.04 1.30563 -1.65881 0
M  V30 27161 O 2506.38 2.06445 -0.979427 0
M  V30 27162 C 2506.59 -0.508365 -3.45278 0
M  V30 27163 C 2507.94 -0.450008 -4.22209 0
M  V30 27164 O 2508.97 -0.444739 -3.53413 0
M  V30 27165 O 2507.83 -0.432285 -5.44788 0
M  V30 27166 H 2504.92 -0.0299171 -0.826459 0
M  V30 27167 H 2507.47 -0.798927 -1.49717 0
M  V30 27168 H 2506.24 -1.54245 -3.59616 0
M  V30 27169 H 2505.86 0.130456 -3.97386 0
M  V30 27170 N 2506.86 1.50503 -0.467606 0
M  V30 27171 C 2508.27 1.59136 -0.121561 0
M  V30 27172 C 2508.47 1.47605 1.37167 0
M  V30 27173 O 2507.53 1.33275 2.14462 0
M  V30 27174 C 2508.84 2.93172 -0.668652 0
M  V30 27175 C 2510.39 3.06558 -0.63177 0
M  V30 27176 C 2510.87 4.43162 -1.15635 0
M  V30 27177 N 2512.36 4.49565 -1.11561 0
M  V30 27178 C 2513.09 5.53648 -1.49204 0
M  V30 27179 N 2512.59 6.65002 -1.9428 0
M  V30 27180 N 2514.38 5.44172 -1.40829 0
M  V30 27181 H 2506.53 1.56242 -1.43882 0
M  V30 27182 H 2508.79 0.738187 -0.594797 0
M  V30 27183 H 2508.5 3.07075 -1.71459 0
M  V30 27184 H 2508.37 3.77039 -0.110276 0
M  V30 27185 H 2510.76 2.92304 0.405246 0
M  V30 27186 H 2510.84 2.24456 -1.22691 0
M  V30 27187 H 2510.49 4.58165 -2.19198 0
M  V30 27188 H 2510.42 5.2385 -0.537457 0
M  V30 27189 H 2512.91 3.69658 -0.78496 0
M  V30 27190 H 2513.22 7.40478 -2.21161 0
M  V30 27191 H 2511.57 6.6613 -1.9823 0
M  V30 27192 H 2514.76 4.56066 -1.05458 0
M  V30 27193 H 2514.93 6.25169 -1.70492 0
M  V30 27194 N 2508.34 0.200077 1.56325 0
M  V30 27195 C 2509.75 -0.155688 1.58839 0
M  V30 27196 C 2509.95 -1.60643 1.21639 0
M  V30 27197 O 2509.01 -2.34291 0.941478 0
M  V30 27198 C 2510.32 0.151176 3.0032 0
M  V30 27199 C 2511.87 0.0916834 3.12866 0
M  V30 27200 C 2512.34 0.371926 4.56487 0
M  V30 27201 N 2513.83 0.320722 4.62088 0
M  V30 27202 C 2514.57 0.511343 5.71115 0
M  V30 27203 N 2514.07 0.762582 6.8859 0
M  V30 27204 N 2515.86 0.445256 5.60334 0
M  V30 27205 H 2508.01 1.14671 1.78786 0
M  V30 27206 H 2510.27 0.458065 0.829988 0
M  V30 27207 H 2509.98 1.15726 3.32115 0
M  V30 27208 H 2509.85 -0.543921 3.73258 0
M  V30 27209 H 2512.24 -0.905016 2.8088 0
M  V30 27210 H 2512.32 0.819933 2.42303 0
M  V30 27211 H 2511.96 1.36596 4.89187 0
M  V30 27212 H 2511.89 -0.37727 5.25247 0
M  V30 27213 H 2514.39 0.133356 3.77665 0
M  V30 27214 H 2514.7 0.896711 7.6758 0
M  V30 27215 H 2513.04 0.799533 6.90386 0
M  V30 27216 H 2516.23 0.249361 4.67435 0
M  V30 27217 H 2516.41 0.597229 6.45242 0
M  V30 27218 N 2509.81 -1.57429 -0.0734901 0
M  V30 27219 C 2511.09 -1.78228 -0.805872 0
M  V30 27220 C 2511.47 -0.787224 -1.95872 0
M  V30 27221 O 2510.82 0.179989 -2.2779 0
M  V30 27222 C 2511.03 -3.24664 -1.28039 0
M  V30 27223 C 2512.38 -3.88447 -1.71446 0
M  V30 27224 O 2513.4 -3.28545 -1.3761 0
M  V30 27225 O 2512.26 -4.93829 -2.34084 0
M  V30 27226 H 2509.35 -0.731376 -0.386028 0
M  V30 27227 H 2511.9 -1.69615 -0.0536971 0
M  V30 27228 H 2510.67 -3.88641 -0.455408 0
M  V30 27229 H 2510.29 -3.37994 -2.09394 0
M  V30 27230 N 2511.29 0.344839 -1.53781 0
M  V30 27231 C 2512.52 1.10974 -1.75213 0
M  V30 27232 C 2512.94 1.81622 -0.489392 0
M  V30 27233 O 2512.3 1.72503 0.557895 0
M  V30 27234 C 2512.35 2.09988 -2.93151 0
M  V30 27235 O 2511.45 3.17482 -2.63209 0
M  V30 27236 H 2510.79 0.321011 -0.581247 0
M  V30 27237 H 2513.32 0.395626 -2.00739 0
M  V30 27238 H 2513.33 2.53232 -3.19903 0
M  V30 27239 H 2512.01 1.57963 -3.84734 0
M  V30 27240 H 2510.58 2.79065 -2.4734 0
M  V30 27241 N 2512.77 1.45492 0.605781 0
M  V30 27242 C 2513.7 1.57146 1.72706 0
M  V30 27243 C 2514.68 0.422913 1.64759 0
M  V30 27244 O 2515.87 0.646279 1.83131 0
M  V30 27245 C 2513 1.53953 3.11313 0
M  V30 27246 C 2511.95 2.67543 3.34073 0
M  V30 27247 C 2511.28 2.49405 4.72971 0
M  V30 27248 C 2512.58 4.09541 3.24151 0
M  V30 27249 H 2514.27 2.51004 1.6321 0
M  V30 27250 H 2511.82 1.20802 0.783769 0
M  V30 27251 H 2513.77 1.60703 3.89554 0
M  V30 27252 H 2512.49 0.566261 3.21654 0
M  V30 27253 H 2511.15 2.60225 2.58222 0
M  V30 27254 H 2510.8 1.50213 4.80047 0
M  V30 27255 H 2510.5 3.25579 4.89154 0
M  V30 27256 H 2512.02 2.58011 5.5341 0
M  V30 27257 H 2513.44 4.18093 3.92264 0
M  V30 27258 H 2511.83 4.86119 3.51863 0
M  V30 27259 H 2512.9 4.31321 2.21563 0
M  V30 27260 N 2514.25 -0.848441 1.32813 0
M  V30 27261 C 2515.18 -1.96431 1.18099 0
M  V30 27262 C 2516.19 -1.62398 0.114383 0
M  V30 27263 O 2517.38 -1.74751 0.363922 0
M  V30 27264 C 2514.48 -3.29639 0.786856 0
M  V30 27265 C 2513.66 -3.91872 1.94307 0
M  V30 27266 C 2512.71 -5.03421 1.53147 0
M  V30 27267 O 2511.74 -5.23082 2.24442 0
M  V30 27268 N 2512.94 -5.78898 0.431017 0
M  V30 27269 H 2515.71 -2.09593 2.14221 0
M  V30 27270 H 2513.27 -1.02364 1.25432 0
M  V30 27271 H 2515.26 -4.01676 0.493786 0
M  V30 27272 H 2513.83 -3.12489 -0.0833992 0
M  V30 27273 H 2513.05 -3.12543 2.4023 0
M  V30 27274 H 2514.34 -4.30184 2.71696 0
M  V30 27275 H 2513.74 -5.65467 -0.162234 0
M  V30 27276 H 2512.29 -6.515 0.19758 0
M  V30 27277 N 2515.73 -1.16125 -1.06549 0
M  V30 27278 C 2516.66 -0.823208 -2.13906 0
M  V30 27279 C 2517.67 0.168401 -1.61927 0
M  V30 27280 O 2518.86 -0.0559933 -1.78412 0
M  V30 27281 C 2515.96 -0.204483 -3.38283 0
M  V30 27282 C 2515.13 -1.23555 -4.19587 0
M  V30 27283 C 2514.19 -0.637103 -5.22329 0
M  V30 27284 O 2513.22 -1.30526 -5.54032 0
M  V30 27285 N 2514.42 0.577373 -5.77622 0
M  V30 27286 H 2517.19 -1.74715 -2.43505 0
M  V30 27287 H 2514.75 -1.05823 -1.22528 0
M  V30 27288 H 2516.74 0.208838 -4.04161 0
M  V30 27289 H 2515.31 0.622958 -3.0633 0
M  V30 27290 H 2514.53 -1.82514 -3.49403 0
M  V30 27291 H 2515.82 -1.93145 -4.70715 0
M  V30 27292 H 2515.21 1.13843 -5.54127 0
M  V30 27293 H 2513.77 0.932939 -6.45089 0
M  V30 27294 N 2517.2 1.25039 -0.959323 0
M  V30 27295 C 2518.43 1.96947 -0.633984 0
M  V30 27296 C 2518.85 1.71251 0.794886 0
M  V30 27297 O 2518.2 0.991314 1.53229 0
M  V30 27298 C 2518.26 3.50402 -0.888866 0
M  V30 27299 O 2517.98 3.75214 -2.26156 0
M  V30 27300 C 2519.48 4.39535 -0.57656 0
M  V30 27301 H 2516.7 0.627648 -0.237274 0
M  V30 27302 H 2519.24 1.59087 -1.28498 0
M  V30 27303 H 2517.4 3.86356 -0.284213 0
M  V30 27304 H 2517.81 4.69646 -2.33523 0
M  V30 27305 H 2519.28 5.46093 -0.80541 0
M  V30 27306 H 2519.76 4.36469 0.488998 0
M  V30 27307 H 2520.37 4.09154 -1.16074 0
M  V30 27308 N 2518.68 0.728444 1.39755 0
M  V30 27309 C 2519.63 0.0732258 2.32485 0
M  V30 27310 C 2520.62 -0.733036 1.52718 0
M  V30 27311 O 2521.83 -0.634958 1.68429 0
M  V30 27312 H 2518.21 0.00487791 0.751984 0
M  V30 27313 H 2520.18 0.871811 2.8538 0
M  V30 27314 C 2518.93 -0.824848 3.37774 0
M  V30 27315 H 2518.25 -0.213844 3.99228 0
M  V30 27316 H 2519.69 -1.25103 4.05124 0
M  V30 27317 C 2518.15 -1.95617 2.74291 0
M  V30 27318 O 2518.68 -3.04822 2.61623 0
M  V30 27319 N 2516.88 -1.74363 2.32478 0
M  V30 27320 H 2516.43 -0.855451 2.42981 0
M  V30 27321 H 2516.39 -2.50235 1.90341 0
M  V30 27322 N 2520.16 -1.50253 0.475581 0
M  V30 27323 C 2521.39 -2.06763 -0.0754129 0
M  V30 27324 C 2521.8 -1.33894 -1.33109 0
M  V30 27325 O 2521.16 -0.409551 -1.77845 0
M  V30 27326 C 2521.21 -3.59714 -0.358945 0
M  V30 27327 O 2520.93 -4.29836 0.846927 0
M  V30 27328 C 2522.43 -4.3286 -0.956408 0
M  V30 27329 H 2519.65 -0.670938 0.00908704 0
M  V30 27330 H 2522.2 -1.93363 0.665652 0
M  V30 27331 H 2520.35 -3.72901 -1.04995 0
M  V30 27332 H 2520.77 -5.21123 0.594254 0
M  V30 27333 H 2522.24 -5.40836 -1.10454 0
M  V30 27334 H 2522.72 -3.93652 -1.94768 0
M  V30 27335 H 2523.32 -4.24215 -0.303648 0
M  V30 27336 N 2521.64 -0.208365 -1.56217 0
M  V30 27337 C 2522.87 0.432114 -2.02337 0
M  V30 27338 C 2523.28 1.54273 -1.08837 0
M  V30 27339 O 2522.64 1.8225 -0.0955782 0
M  V30 27340 C 2522.69 0.976077 -3.48073 0
M  V30 27341 O 2522.41 -0.090239 -4.38007 0
M  V30 27342 C 2523.91 1.69112 -4.09776 0
M  V30 27343 H 2521.13 0.107168 -0.662387 0
M  V30 27344 H 2523.68 -0.320958 -2.01966 0
M  V30 27345 H 2521.83 1.67948 -3.49102 0
M  V30 27346 H 2522.24 0.316609 -5.23544 0
M  V30 27347 H 2523.72 2.02388 -5.13559 0
M  V30 27348 H 2524.2 2.59958 -3.54004 0
M  V30 27349 H 2524.8 1.03325 -4.12558 0
M  V30 27350 N 2523.12 1.57465 0.0651402 0
M  V30 27351 C 2524.07 2.00596 1.08376 0
M  V30 27352 C 2525.05 0.889095 1.34104 0
M  V30 27353 O 2526.24 1.15301 1.34293 0
M  V30 27354 C 2523.37 2.45898 2.3956 0
M  V30 27355 C 2522.46 3.64332 2.17078 0
M  V30 27356 N 2522.85 4.78287 1.64544 0
M  V30 27357 C 2521.15 3.7101 2.47523 0
M  V30 27358 C 2521.85 5.60103 1.57032 0
M  V30 27359 N 2520.82 5.04145 2.0332 0
M  V30 27360 H 2524.63 2.86137 0.671011 0
M  V30 27361 H 2522.14 1.60104 0.272102 0
M  V30 27362 H 2524.14 2.75039 3.13304 0
M  V30 27363 H 2522.8 1.61746 2.81546 0
M  V30 27364 H 2523.81 5.00447 1.33314 0
M  V30 27365 H 2520.48 2.97585 2.9283 0
M  V30 27366 H 2521.87 6.61597 1.17211 0
M  V30 27367 N 2524.59 -0.336679 1.53962 0
M  V30 27368 C 2526.01 -0.680215 1.44379 0
M  V30 27369 C 2526.21 -1.92169 0.606068 0
M  V30 27370 O 2525.27 -2.52303 0.0997324 0
M  V30 27371 C 2526.58 -0.866449 2.87946 0
M  V30 27372 C 2528.13 -0.964629 2.97765 0
M  V30 27373 C 2528.6 -1.18313 4.42455 0
M  V30 27374 N 2530.09 -1.25017 4.4601 0
M  V30 27375 C 2530.83 -1.43687 5.55105 0
M  V30 27376 N 2530.32 -1.59486 6.74193 0
M  V30 27377 N 2532.12 -1.4629 5.4273 0
M  V30 27378 H 2524.27 0.479491 2.06917 0
M  V30 27379 H 2526.53 0.152636 0.935632 0
M  V30 27380 H 2526.24 -0.0256319 3.51691 0
M  V30 27381 H 2526.11 -1.76617 3.33296 0
M  V30 27382 H 2528.5 -1.79596 2.34156 0
M  V30 27383 H 2528.58 -0.041663 2.55766 0
M  V30 27384 H 2528.22 -0.356699 5.06646 0
M  V30 27385 H 2528.15 -2.11977 4.82051 0
M  V30 27386 H 2530.64 -1.14305 3.60198 0
M  V30 27387 H 2530.96 -1.73387 7.53098 0
M  V30 27388 H 2529.3 -1.56609 6.77125 0
M  V30 27389 H 2532.49 -1.33535 4.48649 0
M  V30 27390 H 2532.67 -1.60499 6.27809 0
M  V30 27391 N 2526.07 -1.45812 -0.598057 0
M  V30 27392 C 2527.48 -1.44675 -1.18009 0
M  V30 27393 C 2527.83 -0.179399 -1.95378 0
M  V30 27394 O 2526.96 0.718473 -2.04125 0
M  V30 27395 C 2527.55 -2.62109 -2.14673 0
M  V30 27396 C 2526.11 -2.64062 -2.68232 0
M  V30 27397 C 2525.26 -2.37093 -1.43812 0
M  V30 27398 H 2528.21 -1.53913 -0.386833 0
M  V30 27399 H 2528.23 -2.36752 -2.97874 0
M  V30 27400 H 2527.74 -3.54333 -1.58334 0
M  V30 27401 H 2525.85 -1.75869 -3.28482 0
M  V30 27402 H 2525.96 -3.63571 -3.12014 0
M  V30 27403 H 2524.32 -1.86841 -1.73097 0
M  V30 27404 H 2525.11 -3.31475 -0.893275 0
M  V30 27405 N 2527.55 0.841385 -1.33261 0
M  V30 27406 C 2528.48 1.96632 -1.2593 0
M  V30 27407 C 2529.46 1.6952 -0.140378 0
M  V30 27408 O 2530.65 1.9138 -0.32974 0
M  V30 27409 C 2527.78 3.32736 -0.995178 0
M  V30 27410 C 2526.73 3.74239 -2.07676 0
M  V30 27411 C 2526.06 5.08122 -1.66483 0
M  V30 27412 C 2527.36 3.8829 -3.49325 0
M  V30 27413 H 2529.05 2.03023 -2.2005 0
M  V30 27414 H 2526.6 0.975406 -1.05933 0
M  V30 27415 H 2528.55 4.11001 -0.930395 0
M  V30 27416 H 2527.27 3.26595 -0.0183578 0
M  V30 27417 H 2525.93 2.98236 -2.13193 0
M  V30 27418 H 2525.58 4.98449 -0.6751 0
M  V30 27419 H 2525.28 5.36861 -2.3886 0
M  V30 27420 H 2526.8 5.88864 -1.61466 0
M  V30 27421 H 2528.22 4.56873 -3.46324 0
M  V30 27422 H 2526.62 4.28463 -4.20166 0
M  V30 27423 H 2527.69 2.90814 -3.88015 0
M  V30 27424 N 2529.03 1.16688 1.05932 0
M  V30 27425 C 2529.98 0.845015 2.11763 0
M  V30 27426 C 2530.96 -0.177149 1.59922 0
M  V30 27427 O 2532.16 0.024208 1.76983 0
M  V30 27428 C 2529.28 0.351872 3.41492 0
M  V30 27429 C 2528.37 1.40503 4.0015 0
M  V30 27430 N 2528.76 2.61644 4.3287 0
M  V30 27431 C 2527.06 1.26114 4.27798 0
M  V30 27432 C 2527.76 3.29257 4.79546 0
M  V30 27433 N 2526.74 2.56636 4.79206 0
M  V30 27434 H 2530.54 1.76616 2.34912 0
M  V30 27435 H 2528.05 1.05448 1.23509 0
M  V30 27436 H 2530.05 0.102869 4.16773 0
M  V30 27437 H 2528.71 -0.563164 3.19779 0
M  V30 27438 H 2529.72 2.9867 4.23103 0
M  V30 27439 H 2526.4 0.407154 4.1551 0
M  V30 27440 H 2527.79 4.32684 5.14037 0
M  V30 27441 N 2530.51 -1.24529 0.96594 0
M  V30 27442 C 2531.75 -1.92838 0.627794 0
M  V30 27443 C 2532.09 -1.75348 -0.834663 0
M  V30 27444 O 2531.36 -1.10549 -1.60029 0
M  V30 27445 C 2531.64 -3.45903 1.00115 0
M  V30 27446 C 2531.5 -3.72568 2.52018 0
M  V30 27447 C 2532.82 -4.36843 0.534427 0
M  V30 27448 H 2529.94 -0.70034 0.229549 0
M  V30 27449 H 2532.58 -1.46931 1.20463 0
M  V30 27450 H 2530.73 -3.85134 0.510306 0
M  V30 27451 H 2532.4 -3.42907 3.08565 0
M  V30 27452 H 2530.64 -3.17781 2.95293 0
M  V30 27453 H 2531.31 -4.79657 2.73191 0
M  V30 27454 H 2533.79 -4.04978 0.955636 0
M  V30 27455 H 2532.67 -5.42676 0.824247 0
M  V30 27456 H 2532.93 -4.38468 -0.565512 0
M  V30 27457 N 2531.99 -0.735845 -1.39367 0
M  V30 27458 C 2532.92 -0.0568126 -2.2913 0
M  V30 27459 C 2533.93 0.702563 -1.4686 0
M  V30 27460 O 2535.12 0.546586 -1.69926 0
M  V30 27461 C 2532.22 0.943765 -3.25494 0
M  V30 27462 C 2531.39 0.245734 -4.36709 0
M  V30 27463 C 2530.45 1.15454 -5.13378 0
M  V30 27464 O 2529.48 0.631704 -5.65684 0
M  V30 27465 N 2530.68 2.48418 -5.24661 0
M  V30 27466 H 2533.44 -0.827633 -2.88046 0
M  V30 27467 H 2531.01 -0.585138 -1.50956 0
M  V30 27468 H 2533 1.55437 -3.7366 0
M  V30 27469 H 2531.57 1.61579 -2.67602 0
M  V30 27470 H 2530.79 -0.545355 -3.90409 0
M  V30 27471 H 2532.08 -0.23798 -5.08243 0
M  V30 27472 H 2531.47 2.93371 -4.83684 0
M  V30 27473 H 2530.03 3.04572 -5.76263 0
M  V30 27474 N 2533.46 1.49999 -0.483543 0
M  V30 27475 C 2534.88 1.58999 -0.138432 0
M  V30 27476 C 2535.08 1.49052 1.35594 0
M  V30 27477 O 2534.14 1.35543 2.13036 0
M  V30 27478 C 2535.45 2.92446 -0.699709 0
M  V30 27479 C 2537 3.0587 -0.664249 0
M  V30 27480 C 2537.47 4.41911 -1.20328 0
M  V30 27481 N 2538.96 4.48356 -1.16323 0
M  V30 27482 C 2539.7 5.52034 -1.55068 0
M  V30 27483 N 2539.19 6.62903 -2.01323 0
M  V30 27484 N 2540.99 5.42648 -1.46593 0
M  V30 27485 H 2533.14 1.54707 -1.45532 0
M  V30 27486 H 2535.4 0.731837 -0.602593 0
M  V30 27487 H 2535.11 3.05239 -1.74706 0
M  V30 27488 H 2534.98 3.76901 -0.15026 0
M  V30 27489 H 2537.37 2.92718 0.374221 0
M  V30 27490 H 2537.45 2.23142 -1.25065 0
M  V30 27491 H 2537.09 4.55814 -2.24045 0
M  V30 27492 H 2537.02 5.23251 -0.592988 0
M  V30 27493 H 2539.51 3.68804 -0.824123 0
M  V30 27494 H 2539.83 7.38091 -2.29003 0
M  V30 27495 H 2538.17 6.6399 -2.05284 0
M  V30 27496 H 2541.36 4.54922 -1.10289 0
M  V30 27497 H 2541.54 6.23326 -1.77114 0
M  V30 27498 N 2534.94 0.216646 1.56104 0
M  V30 27499 C 2536.35 -0.292096 1.84401 0
M  V30 27500 C 2536.7 -1.59831 1.13791 0
M  V30 27501 O 2535.83 -2.12559 0.405925 0
M  V30 27502 C 2536.42 -0.536751 3.34521 0
M  V30 27503 C 2534.98 -0.989813 3.63152 0
M  V30 27504 C 2534.13 -0.0501815 2.77255 0
M  V30 27505 H 2537.08 0.439953 1.5248 0
M  V30 27506 H 2537.1 -1.38338 3.54461 0
M  V30 27507 H 2536.61 0.414099 3.85884 0
M  V30 27508 H 2534.71 -1.95419 3.17241 0
M  V30 27509 H 2534.83 -0.867615 4.71179 0
M  V30 27510 H 2533.19 -0.556073 2.48556 0
M  V30 27511 H 2533.97 0.895498 3.31415 0
M  V30 27512 N 2536.42 -1.57498 -0.0567885 0
M  V30 27513 C 2537.64 -1.92602 -0.769368 0
M  V30 27514 C 2538.07 -0.814366 -1.69557 0
M  V30 27515 O 2537.43 0.231871 -1.79811 0
M  V30 27516 C 2537.48 -3.26706 -1.52628 0
M  V30 27517 O 2536.58 -3.16998 -2.63791 0
M  V30 27518 H 2535.92 -0.630284 -0.208898 0
M  V30 27519 H 2538.45 -2.0459 -0.0205438 0
M  V30 27520 H 2538.46 -3.6094 -1.90228 0
M  V30 27521 H 2537.14 -4.07188 -0.846803 0
M  V30 27522 H 2535.71 -2.9435 -2.28938 0
M  V30 27523 N 2537.9 0.328509 -1.54138 0
M  V30 27524 C 2539.15 1.06453 -1.7132 0
M  V30 27525 C 2539.46 1.89333 -0.491142 0
M  V30 27526 O 2540.67 2.6599 -0.544207 0
M  V30 27527 C 2539.12 1.94209 -3.03003 0
M  V30 27528 C 2538.73 1.16464 -4.32597 0
M  V30 27529 C 2540.47 2.67577 -3.29549 0
M  V30 27530 C 2538.38 2.03337 -5.55345 0
M  V30 27531 H 2537.31 0.401143 -0.638436 0
M  V30 27532 H 2539.96 0.323074 -1.80634 0
M  V30 27533 H 2538.34 2.72234 -2.87584 0
M  V30 27534 H 2539.52 0.432445 -4.58766 0
M  V30 27535 H 2537.83 0.54799 -4.12778 0
M  V30 27536 H 2540.43 3.32872 -4.1845 0
M  V30 27537 H 2540.77 3.34951 -2.47212 0
M  V30 27538 H 2541.31 1.96617 -3.45813 0
M  V30 27539 H 2538.04 1.4048 -6.4027 0
M  V30 27540 H 2537.56 2.74303 -5.33402 0
M  V30 27541 H 2539.24 2.62039 -5.91561 0
M  V30 27542 N 2539.38 1.46127 0.590316 0
M  V30 27543 C 2540.79 1.45299 1.1724 0
M  V30 27544 C 2541.14 0.189758 1.9528 0
M  V30 27545 O 2540.26 -0.707638 2.04503 0
M  V30 27546 C 2540.86 2.63244 2.1328 0
M  V30 27547 C 2539.42 2.65481 2.66828 0
M  V30 27548 C 2538.56 2.37853 1.42553 0
M  V30 27549 H 2541.51 1.54116 0.378665 0
M  V30 27550 H 2541.54 2.38328 2.96614 0
M  V30 27551 H 2541.05 3.55168 1.56453 0
M  V30 27552 H 2539.15 1.77609 3.27545 0
M  V30 27553 H 2539.26 3.65221 3.10082 0
M  V30 27554 H 2537.63 1.87756 1.72104 0
M  V30 27555 H 2538.41 3.31944 0.875683 0
M  V30 27556 N 2540.85 -0.834306 1.33705 0
M  V30 27557 C 2542.26 -1.40617 1.22815 0
M  V30 27558 C 2542.62 -1.95618 -0.151073 0
M  V30 27559 O 2541.74 -1.8917 -1.05089 0
M  V30 27560 C 2542.34 -2.5562 2.2236 0
M  V30 27561 C 2540.89 -3.08747 2.15295 0
M  V30 27562 C 2540.04 -1.81566 2.09592 0
M  V30 27563 H 2542.99 -0.639677 1.45237 0
M  V30 27564 H 2543.01 -3.33385 1.83397 0
M  V30 27565 H 2542.53 -2.1556 3.22731 0
M  V30 27566 H 2540.63 -3.53341 1.18241 0
M  V30 27567 H 2540.74 -3.68611 3.06044 0
M  V30 27568 H 2539.1 -2.02001 1.55138 0
M  V30 27569 H 2539.89 -1.43696 3.11779 0
M  V30 27570 N 2542.33 -1.17248 -1.05312 0
M  V30 27571 C 2543.29 -0.890394 -2.11198 0
M  V30 27572 C 2544.29 0.118915 -1.6036 0
M  V30 27573 O 2545.48 -0.113116 -1.73832 0
M  V30 27574 C 2542.62 -0.333481 -3.39265 0
M  V30 27575 H 2543.81 -1.8292 -2.37656 0
M  V30 27576 H 2541.36 -0.98278 -1.21537 0
M  V30 27577 H 2542.1 0.612531 -3.18463 0
M  V30 27578 H 2541.88 -1.06089 -3.77475 0
M  V30 27579 H 2543.37 -0.154395 -4.17314 0
M  V30 27580 N 2543.81 1.24015 -0.972531 0
M  V30 27581 C 2545.04 1.96804 -0.654452 0
M  V30 27582 C 2545.46 1.71601 0.770368 0
M  V30 27583 O 2544.82 0.982673 1.52359 0
M  V30 27584 C 2544.87 3.48103 -0.941092 0
M  V30 27585 O 2543.97 4.1239 -0.0290197 0
M  V30 27586 H 2543.31 0.616378 -0.24693 0
M  V30 27587 H 2545.84 1.57662 -1.30399 0
M  V30 27588 H 2545.85 3.98516 -0.87459 0
M  V30 27589 H 2544.53 3.65774 -1.97945 0
M  V30 27590 H 2543.1 3.72601 -0.149257 0
M  V30 27591 N 2545.29 0.743226 1.38974 0
M  V30 27592 C 2546.57 0.220739 1.9435 0
M  V30 27593 C 2546.95 -1.27907 1.67937 0
M  V30 27594 O 2546.29 -2.04861 1.01215 0
M  V30 27595 C 2546.5 0.563231 3.44425 0
M  V30 27596 C 2547.85 0.517121 4.21439 0
M  V30 27597 O 2548.88 0.500908 3.5266 0
M  V30 27598 O 2547.73 0.518901 5.44031 0
M  V30 27599 H 2544.83 0.0430616 0.825878 0
M  V30 27600 H 2547.37 0.822644 1.48427 0
M  V30 27601 H 2546.15 1.59947 3.57117 0
M  V30 27602 H 2545.77 -0.0672184 3.97543 0
M  V30 27603 N 2546.77 -1.4974 0.491491 0
M  V30 27604 C 2547.99 -2.06831 -0.0534788 0
M  V30 27605 C 2548.41 -1.35298 -1.31681 0
M  V30 27606 O 2547.77 -0.428391 -1.77401 0
M  V30 27607 C 2547.82 -3.60074 -0.320772 0
M  V30 27608 O 2547.54 -4.28913 0.892469 0
M  V30 27609 C 2549.04 -4.3385 -0.910443 0
M  V30 27610 H 2546.26 -0.670804 0.0162027 0
M  V30 27611 H 2548.8 -1.92646 0.686124 0
M  V30 27612 H 2546.96 -3.73993 -1.01034 0
M  V30 27613 H 2547.37 -5.20463 0.649493 0
M  V30 27614 H 2548.85 -5.41977 -1.04711 0
M  V30 27615 H 2549.32 -3.95696 -1.90582 0
M  V30 27616 H 2549.93 -4.24513 -0.258638 0
M  V30 27617 N 2548.24 -0.224922 -1.55987 0
M  V30 27618 C 2549.15 0.69507 -2.24067 0
M  V30 27619 C 2550.17 1.21102 -1.24941 0
M  V30 27620 O 2551.35 1.25192 -1.57762 0
M  V30 27621 C 2548.41 1.88488 -2.90987 0
M  V30 27622 C 2547.47 1.41057 -4.05464 0
M  V30 27623 C 2546.71 2.54367 -4.69184 0
M  V30 27624 O 2546.93 3.72581 -4.31902 0
M  V30 27625 O 2545.86 2.25376 -5.58112 0
M  V30 27626 H 2549.69 0.145096 -3.03353 0
M  V30 27627 H 2547.27 0.0056685 -1.49399 0
M  V30 27628 H 2549.16 2.57966 -3.33214 0
M  V30 27629 H 2547.83 2.42289 -2.14657 0
M  V30 27630 H 2546.74 0.68371 -3.67799 0
M  V30 27631 H 2548.07 0.9189 -4.83546 0
M  V30 27632 N 2549.72 1.57526 0.0484352 0
M  V30 27633 C 2550.67 2.05276 1.055 0
M  V30 27634 C 2551.64 0.937951 1.37083 0
M  V30 27635 O 2552.82 1.20723 1.47752 0
M  V30 27636 C 2549.96 2.52097 2.35672 0
M  V30 27637 C 2549.08 3.77292 2.10417 0
M  V30 27638 C 2548.21 4.128 3.3432 0
M  V30 27639 C 2547.25 5.30968 3.04532 0
M  V30 27640 N 2546.39 5.62001 4.20831 0
M  V30 27641 H 2551.23 2.91028 0.640834 0
M  V30 27642 H 2548.77 1.43907 0.304828 0
M  V30 27643 H 2550.72 2.77302 3.11704 0
M  V30 27644 H 2549.35 1.6929 2.74847 0
M  V30 27645 H 2548.41 3.59286 1.2497 0
M  V30 27646 H 2549.72 4.63451 1.8443 0
M  V30 27647 H 2548.87 4.39031 4.18732 0
M  V30 27648 H 2547.61 3.25254 3.63403 0
M  V30 27649 H 2546.62 5.04509 2.18519 0
M  V30 27650 H 2547.84 6.20151 2.76748 0
M  V30 27651 H 2545.79 4.77414 4.49902 0
M  V30 27652 H 2545.7 6.42629 3.98201 0
M  V30 27653 H 2546.97 5.92797 5.06173 0
M  V30 27654 N 2551.2 -0.32033 1.5431 0
M  V30 27655 C 2552.61 -0.894566 1.63873 0
M  V30 27656 C 2552.96 -1.88768 0.53488 0
M  V30 27657 O 2552.09 -2.13843 -0.331695 0
M  V30 27658 C 2552.68 -1.62929 2.97051 0
M  V30 27659 C 2551.24 -2.1522 3.088 0
M  V30 27660 C 2550.39 -0.978625 2.59458 0
M  V30 27661 H 2553.34 -0.0978265 1.58398 0
M  V30 27662 H 2553.36 -2.49371 2.87392 0
M  V30 27663 H 2552.87 -0.906236 3.77371 0
M  V30 27664 H 2550.97 -2.90632 2.33161 0
M  V30 27665 H 2551.09 -2.39999 4.14653 0
M  V30 27666 H 2549.45 -1.35871 2.15432 0
M  V30 27667 H 2550.23 -0.269835 3.42238 0
M  V30 27668 N 2552.68 -1.46438 -0.582558 0
M  V30 27669 C 2553.61 -1.59874 -1.70184 0
M  V30 27670 C 2554.59 -0.449071 -1.64065 0
M  V30 27671 O 2555.77 -0.675332 -1.82079 0
M  V30 27672 C 2552.9 -1.58886 -3.08824 0
M  V30 27673 C 2551.86 -2.72824 -3.29774 0
M  V30 27674 C 2551.18 -2.56898 -4.68943 0
M  V30 27675 C 2552.48 -4.14646 -3.17594 0
M  V30 27676 H 2554.18 -2.53569 -1.59196 0
M  V30 27677 H 2551.72 -1.22033 -0.764451 0
M  V30 27678 H 2553.68 -1.6688 -3.86948 0
M  V30 27679 H 2552.4 -0.617362 -3.20712 0
M  V30 27680 H 2551.06 -2.643 -2.54049 0
M  V30 27681 H 2550.71 -1.57831 -4.77596 0
M  V30 27682 H 2550.41 -3.3332 -4.83913 0
M  V30 27683 H 2551.93 -2.66783 -5.49235 0
M  V30 27684 H 2553.35 -4.24281 -3.85563 0
M  V30 27685 H 2551.74 -4.91656 -3.44085 0
M  V30 27686 H 2552.81 -4.34791 -2.14673 0
M  V30 27687 N 2554.16 0.827204 -1.34146 0
M  V30 27688 C 2555.4 1.58317 -1.26261 0
M  V30 27689 C 2555.73 1.93768 0.168561 0
M  V30 27690 O 2554.99 1.59868 1.12874 0
M  V30 27691 C 2555.29 2.89581 -2.09469 0
M  V30 27692 C 2554.95 2.73441 -3.58526 0
M  V30 27693 C 2553.61 2.68747 -3.9916 0
M  V30 27694 C 2555.97 2.5742 -4.53193 0
M  V30 27695 C 2553.29 2.45947 -5.3266 0
M  V30 27696 C 2555.65 2.36153 -5.86869 0
M  V30 27697 C 2554.31 2.29868 -6.26671 0
M  V30 27698 H 2553.58 0.579324 -0.462023 0
M  V30 27699 H 2556.23 0.95745 -1.65847 0
M  V30 27700 H 2554.53 3.56422 -1.62698 0
M  V30 27701 H 2556.23 3.4715 -2.00718 0
M  V30 27702 H 2552.82 2.77933 -3.26269 0
M  V30 27703 H 2557 2.60073 -4.227 0
M  V30 27704 H 2552.26 2.39536 -5.62523 0
M  V30 27705 H 2556.43 2.22742 -6.59817 0
M  V30 27706 H 2554.06 2.11962 -7.30052 0
M  V30 27707 N 2555.63 1.17805 1.04688 0
M  V30 27708 C 2557.05 0.974717 1.59236 0
M  V30 27709 C 2557.4 -0.477259 1.90307 0
M  V30 27710 O 2556.52 -1.35349 1.68848 0
M  V30 27711 C 2557.12 1.76301 2.89315 0
M  V30 27712 C 2555.68 1.6042 3.40503 0
M  V30 27713 C 2554.82 1.76144 2.14169 0
M  V30 27714 H 2557.77 1.3244 0.874371 0
M  V30 27715 H 2557.79 1.24839 3.59438 0
M  V30 27716 H 2557.31 2.81973 2.6667 0
M  V30 27717 H 2555.41 0.572583 3.68174 0
M  V30 27718 H 2555.52 2.39834 4.14749 0
M  V30 27719 H 2553.88 1.19032 2.25174 0
M  V30 27720 H 2554.67 2.83238 1.93987 0
M  V30 27721 N 2557.11 -1.23497 0.979094 0
M  V30 27722 C 2558.52 -1.73703 0.684422 0
M  V30 27723 C 2558.87 -1.79175 -0.799417 0
M  V30 27724 O 2558 -1.42876 -1.62528 0
M  V30 27725 C 2558.59 -3.15462 1.2357 0
M  V30 27726 C 2557.15 -3.63128 0.990694 0
M  V30 27727 C 2556.3 -2.41422 1.36421 0
M  V30 27728 H 2559.25 -1.09039 1.15309 0
M  V30 27729 H 2559.27 -3.75619 0.607483 0
M  V30 27730 H 2558.78 -3.11446 2.31566 0
M  V30 27731 H 2556.89 -3.72528 -0.0732481 0
M  V30 27732 H 2557 -4.49998 1.64435 0
M  V30 27733 H 2555.36 -2.42377 0.782658 0
M  V30 27734 H 2556.15 -2.40079 2.45391 0
M  V30 27735 N 2558.59 -0.750586 -1.38578 0
M  V30 27736 C 2559.55 -0.129192 -2.28836 0
M  V30 27737 C 2560.55 0.650688 -1.47047 0
M  V30 27738 O 2561.74 0.477398 -1.67531 0
M  V30 27739 C 2558.88 0.825563 -3.30753 0
M  V30 27740 H 2560.07 -0.924566 -2.85292 0
M  V30 27741 H 2557.62 -0.517402 -1.47488 0
M  V30 27742 H 2558.36 1.64672 -2.79381 0
M  V30 27743 H 2558.14 0.268784 -3.91178 0
M  V30 27744 H 2559.63 1.25643 -3.98251 0
M  V30 27745 N 2560.07 1.49477 -0.499425 0
M  V30 27746 C 2561.32 2.02049 0.0455641 0
M  V30 27747 C 2561.64 1.38141 1.3763 0
M  V30 27748 O 2560.91 0.536199 1.88419 0
M  V30 27749 H 2559.49 0.746737 0.0198285 0
M  V30 27750 H 2562.15 1.83517 -0.656307 0
M  V30 27751 H 2561.25 3.11601 0.17639 0
M  V30 27752 N 2561.55 0.233191 1.55865 0
M  V30 27753 C 2562.5 -0.688471 2.22177 0
M  V30 27754 C 2563.49 -1.19074 1.20489 0
M  V30 27755 O 2564.7 -1.14922 1.38538 0
M  V30 27756 H 2561.07 -0.24047 0.712515 0
M  V30 27757 H 2563.04 -0.105883 2.98212 0
M  V30 27758 C 2561.79 -1.88066 2.92449 0
M  V30 27759 H 2561.11 -1.5033 3.7046 0
M  V30 27760 H 2562.55 -2.50308 3.42231 0
M  V30 27761 C 2561.01 -2.74332 1.9556 0
M  V30 27762 O 2561.54 -3.73445 1.47993 0
M  V30 27763 N 2559.75 -2.4061 1.62957 0
M  V30 27764 H 2559.3 -1.60065 2.01834 0
M  V30 27765 H 2559.25 -2.98607 0.983939 0
M  V30 27766 N 2563.03 -1.57549 -0.0400806 0
M  V30 27767 C 2564.25 -1.93407 -0.748897 0
M  V30 27768 C 2564.68 -0.832304 -1.68684 0
M  V30 27769 O 2564.03 0.212787 -1.80047 0
M  V30 27770 C 2564.08 -3.28307 -1.49154 0
M  V30 27771 O 2563.19 -3.19778 -2.60414 0
M  V30 27772 H 2562.53 -0.632464 -0.202201 0
M  V30 27773 H 2565.06 -2.046 0.00115682 0
M  V30 27774 H 2565.07 -3.62937 -1.86389 0
M  V30 27775 H 2563.74 -4.08063 -0.803568 0
M  V30 27776 H 2562.32 -2.96762 -2.25803 0
M  V30 27777 N 2564.5 0.312142 -1.54478 0
M  V30 27778 C 2565.75 1.05027 -1.73485 0
M  V30 27779 C 2566.08 1.87297 -0.513158 0
M  V30 27780 O 2565.36 1.88231 0.48983 0
M  V30 27781 C 2565.64 1.96553 -3.01727 0
M  V30 27782 C 2565.49 1.17537 -4.34172 0
M  V30 27783 C 2566.81 2.95901 -3.25777 0
M  V30 27784 H 2563.93 0.380421 -0.631228 0
M  V30 27785 H 2566.57 0.325899 -1.87184 0
M  V30 27786 H 2564.72 2.58319 -2.90178 0
M  V30 27787 H 2566.4 0.581432 -4.57621 0
M  V30 27788 H 2564.64 0.477849 -4.3116 0
M  V30 27789 H 2565.31 1.84802 -5.20146 0
M  V30 27790 H 2567.79 2.44261 -3.36862 0
M  V30 27791 H 2566.66 3.57116 -4.16845 0
M  V30 27792 H 2566.92 3.6897 -2.43544 0
M  V30 27793 N 2565.98 1.46745 0.574784 0
M  V30 27794 C 2567.22 1.54029 1.34366 0
M  V30 27795 C 2567.59 0.190676 1.91051 0
M  V30 27796 O 2568.79 0.138302 2.68444 0
M  V30 27797 C 2567.06 2.61427 2.43702 0
M  V30 27798 S 2568.62 2.88173 3.3091 0
M  V30 27799 H 2565.43 0.544113 0.45767 0
M  V30 27800 H 2568.04 1.84025 0.659927 0
M  V30 27801 H 2566.74 3.5811 2.00463 0
M  V30 27802 H 2566.27 2.3319 3.16838 0
M  V30 27803 H 2568.29 2.24047 4.42739 0
M  V30 27804 N 2567.46 -0.820078 1.34583 0
M  V30 27805 C 2568.41 -1.92011 1.22946 0
M  V30 27806 C 2569.39 -1.60391 0.12783 0
M  V30 27807 O 2570.59 -1.73347 0.357767 0
M  V30 27808 C 2567.71 -3.28716 0.989996 0
M  V30 27809 C 2566.8 -3.66445 2.13492 0
M  V30 27810 N 2567.19 -3.75716 3.38631 0
M  V30 27811 C 2565.49 -3.96312 2.0458 0
M  V30 27812 C 2566.19 -4.08794 4.13839 0
M  V30 27813 N 2565.17 -4.22165 3.42459 0
M  V30 27814 H 2568.97 -1.97361 2.17774 0
M  V30 27815 H 2566.48 -1.0139 1.26861 0
M  V30 27816 H 2568.48 -4.07343 0.887534 0
M  V30 27817 H 2567.14 -3.24661 0.0504262 0
M  V30 27818 H 2568.15 -3.59137 3.7315 0
M  V30 27819 H 2564.83 -4.0036 1.18397 0
M  V30 27820 H 2566.22 -4.23147 5.21916 0
M  V30 27821 N 2568.94 -1.18359 -1.04062 0
M  V30 27822 C 2569.89 -0.907045 -2.14186 0
M  V30 27823 C 2570.88 0.132695 -1.68879 0
M  V30 27824 O 2572.09 -0.0154565 -1.79993 0
M  V30 27825 H 2568.46 -0.275848 -0.69958 0
M  V30 27826 H 2570.43 -1.84268 -2.34708 0
M  V30 27827 C 2569.18 -0.449314 -3.44785 0
M  V30 27828 H 2568.5 -1.24088 -3.80056 0
M  V30 27829 H 2569.94 -0.294811 -4.22974 0
M  V30 27830 C 2568.4 0.834852 -3.26392 0
M  V30 27831 O 2568.93 1.89905 -3.53976 0
M  V30 27832 N 2567.14 0.787473 -2.79727 0
M  V30 27833 H 2566.69 -0.0787799 -2.5748 0
M  V30 27834 H 2566.64 1.64711 -2.67801 0
M  V30 27835 N 2570.42 1.22976 -0.98563 0
M  V30 27836 C 2571.37 2.22423 -0.501219 0
M  V30 27837 C 2572.35 1.55141 0.426622 0
M  V30 27838 O 2573.54 1.75159 0.254625 0
M  V30 27839 C 2570.67 3.42774 0.189942 0
M  V30 27840 C 2569.76 4.17275 -0.757776 0
M  V30 27841 N 2570.15 4.68652 -1.90259 0
M  V30 27842 C 2568.45 4.42315 -0.572168 0
M  V30 27843 C 2569.15 5.25388 -2.49685 0
M  V30 27844 N 2568.12 5.13623 -1.78022 0
M  V30 27845 H 2571.92 2.5978 -1.37446 0
M  V30 27846 H 2569.44 1.38565 -0.846965 0
M  V30 27847 H 2571.44 4.13198 0.554317 0
M  V30 27848 H 2570.1 3.06931 1.0594 0
M  V30 27849 H 2571.11 4.64835 -2.28362 0
M  V30 27850 H 2567.78 4.1674 0.251836 0
M  V30 27851 H 2569.17 5.75726 -3.46395 0
M  V30 27852 N 2571.89 0.757924 1.38178 0
M  V30 27853 C 2572.84 0.108714 2.27741 0
M  V30 27854 C 2573.83 -0.688683 1.45417 0
M  V30 27855 O 2575.02 -0.553926 1.68109 0
M  V30 27856 C 2572.15 -0.780308 3.34314 0
M  V30 27857 C 2571.23 0.0241723 4.24093 0
M  V30 27858 N 2571.63 1.0628 4.94508 0
M  V30 27859 C 2569.92 -0.20197 4.45542 0
M  V30 27860 C 2570.62 1.54989 5.60672 0
M  V30 27861 N 2569.6 0.864442 5.36683 0
M  V30 27862 H 2573.4 0.90412 2.79648 0
M  V30 27863 H 2570.92 0.594373 1.51132 0
M  V30 27864 H 2572.91 -1.26107 3.9737 0
M  V30 27865 H 2571.57 -1.57462 2.83965 0
M  V30 27866 H 2572.58 1.44468 4.97342 0
M  V30 27867 H 2569.26 -0.969278 4.06093 0
M  V30 27868 H 2570.65 2.41528 6.26988 0
M  V30 27869 N 2573.37 -1.4921 0.507345 0
M  V30 27870 C 2574.32 -2.30892 -0.281323 0
M  V30 27871 C 2575.31 -1.39789 -0.956845 0
M  V30 27872 O 2576.52 -1.56808 -0.883811 0
M  V30 27873 H 2572.9 -0.743973 -0.109584 0
M  V30 27874 H 2574.87 -2.95322 0.427492 0
M  V30 27875 C 2573.62 -3.21293 -1.32913 0
M  V30 27876 H 2572.94 -3.91327 -0.81873 0
M  V30 27877 H 2574.38 -3.81375 -1.85282 0
M  V30 27878 C 2572.84 -2.41337 -2.3507 0
M  V30 27879 O 2573.37 -2.12203 -3.41076 0
M  V30 27880 N 2571.57 -2.03245 -2.07702 0
M  V30 27881 H 2571.12 -2.27138 -1.21516 0
M  V30 27882 H 2571.08 -1.50056 -2.7628 0
M  V30 27883 N 2574.85 -0.241454 -1.55739 0
M  V30 27884 C 2575.8 0.674195 -2.17804 0
M  V30 27885 C 2576.78 1.14317 -1.13227 0
M  V30 27886 O 2577.98 1.09385 -1.39154 0
M  V30 27887 C 2575.11 1.87328 -2.87686 0
M  V30 27888 C 2574.19 1.42306 -3.99512 0
M  V30 27889 N 2574.58 0.68671 -5.01117 0
M  V30 27890 C 2572.88 1.70878 -4.11967 0
M  V30 27891 C 2573.58 0.454354 -5.79923 0
M  V30 27892 N 2572.56 1.01696 -5.34003 0
M  V30 27893 H 2576.36 0.103395 -2.93718 0
M  V30 27894 H 2573.87 -0.043538 -1.62342 0
M  V30 27895 H 2575.87 2.54021 -3.30574 0
M  V30 27896 H 2574.53 2.44836 -2.13273 0
M  V30 27897 H 2575.54 0.337368 -5.168 0
M  V30 27898 H 2572.22 2.29563 -3.48722 0
M  V30 27899 H 2573.61 -0.13311 -6.71768 0
M  V30 27900 N 2576.33 1.57568 0.0317248 0
M  V30 27901 C 2577.28 2.0747 1.05161 0
M  V30 27902 C 2578.27 0.987944 1.37608 0
M  V30 27903 O 2579.48 1.17284 1.36544 0
M  V30 27904 H 2575.85 0.662047 0.356649 0
M  V30 27905 H 2577.82 2.92204 0.604906 0
M  V30 27906 C 2576.57 2.56735 2.34484 0
M  V30 27907 H 2575.89 3.39973 2.10377 0
M  V30 27908 H 2577.33 2.95364 3.04198 0
M  V30 27909 C 2575.79 1.46742 3.03263 0
M  V30 27910 O 2576.32 0.832138 3.92986 0
M  V30 27911 N 2574.53 1.20261 2.64548 0
M  V30 27912 H 2574.08 1.72105 1.91671 0
M  V30 27913 H 2574.03 0.468792 3.10885 0
M  V30 27914 N 2577.81 -0.303946 1.54641 0
M  V30 27915 C 2579.03 -1.06289 1.78094 0
M  V30 27916 C 2579.46 -1.80261 0.537374 0
M  V30 27917 O 2578.81 -1.73921 -0.511963 0
M  V30 27918 C 2578.86 -2.02142 2.98615 0
M  V30 27919 O 2577.97 -3.10392 2.71534 0
M  V30 27920 H 2577.31 -0.305487 0.589554 0
M  V30 27921 H 2579.84 -0.342265 2.01717 0
M  V30 27922 H 2579.85 -2.44661 3.26504 0
M  V30 27923 H 2578.52 -1.47707 3.88787 0
M  V30 27924 H 2577.1 -2.72409 2.54652 0
M  V30 27925 N 2579.28 -1.47047 -0.566994 0
M  V30 27926 C 2580.53 -1.52432 -1.32089 0
M  V30 27927 C 2580.85 -0.187055 -1.94704 0
M  V30 27928 O 2582.05 -0.118818 -2.7124 0
M  V30 27929 C 2580.51 -2.68663 -2.39475 0
M  V30 27930 C 2580.12 -4.08878 -1.83093 0
M  V30 27931 C 2581.86 -2.83332 -3.16106 0
M  V30 27932 C 2579.77 -5.16424 -2.88201 0
M  V30 27933 H 2578.7 -0.567349 -0.49662 0
M  V30 27934 H 2581.35 -1.73298 -0.603324 0
M  V30 27935 H 2579.73 -2.41157 -3.14101 0
M  V30 27936 H 2580.9 -4.46244 -1.14905 0
M  V30 27937 H 2579.22 -3.99011 -1.19078 0
M  V30 27938 H 2581.82 -3.60849 -3.94579 0
M  V30 27939 H 2582.16 -1.91418 -3.69682 0
M  V30 27940 H 2582.69 -3.10561 -2.4859 0
M  V30 27941 H 2579.43 -6.10183 -2.39493 0
M  V30 27942 H 2578.95 -4.83586 -3.5483 0
M  V30 27943 H 2580.63 -5.42951 -3.51871 0
M  V30 27944 N 2580.76 0.812929 -1.35016 0
M  V30 27945 C 2582.01 1.56659 -1.27681 0
M  V30 27946 C 2582.33 1.9442 0.150324 0
M  V30 27947 O 2581.6 1.6309 1.08529 0
M  V30 27948 H 2580.18 0.580925 -0.469612 0
M  V30 27949 H 2582.84 0.970047 -1.69045 0
M  V30 27950 H 2581.94 2.48489 -1.88837 0
M  V30 27951 N 2582.24 1.18909 1.03433 0
M  V30 27952 C 2583.19 0.921874 2.11589 0
M  V30 27953 C 2584.16 -0.141197 1.65499 0
M  V30 27954 O 2585.34 -0.000209291 1.908 0
M  V30 27955 C 2582.48 0.460676 3.42011 0
M  V30 27956 C 2581.6 1.58989 4.01679 0
M  V30 27957 C 2580.73 1.08078 5.20089 0
M  V30 27958 C 2579.77 2.18426 5.71801 0
M  V30 27959 N 2578.91 1.68861 6.81491 0
M  V30 27960 H 2583.75 1.84795 2.33784 0
M  V30 27961 H 2581.28 0.921393 1.14668 0
M  V30 27962 H 2583.24 0.174715 4.16834 0
M  V30 27963 H 2581.87 -0.42841 3.19945 0
M  V30 27964 H 2580.92 1.99119 3.24123 0
M  V30 27965 H 2582.24 2.42148 4.3608 0
M  V30 27966 H 2581.39 0.749721 6.0205 0
M  V30 27967 H 2580.13 0.218857 4.87209 0
M  V30 27968 H 2579.13 2.52368 4.88457 0
M  V30 27969 H 2580.36 3.05064 6.06723 0
M  V30 27970 H 2578.3 0.849686 6.50474 0
M  V30 27971 H 2578.22 2.45613 7.1499 0
M  V30 27972 H 2579.49 1.38702 7.67061 0
M  V30 27973 N 2583.72 -1.22452 0.992137 0
M  V30 27974 C 2584.65 -2.23678 0.500063 0
M  V30 27975 C 2585.66 -1.57696 -0.404435 0
M  V30 27976 O 2586.85 -1.77299 -0.206691 0
M  V30 27977 C 2583.95 -3.37617 -0.294651 0
M  V30 27978 C 2583.13 -4.33185 0.605799 0
M  V30 27979 C 2582.18 -5.26021 -0.137077 0
M  V30 27980 O 2581.21 -5.67196 0.477263 0
M  V30 27981 N 2582.41 -5.62874 -1.4196 0
M  V30 27982 H 2585.18 -2.66528 1.3705 0
M  V30 27983 H 2582.74 -1.36744 0.866765 0
M  V30 27984 H 2584.73 -3.96709 -0.80026 0
M  V30 27985 H 2583.3 -2.93856 -1.06618 0
M  V30 27986 H 2582.52 -3.72423 1.29209 0
M  V30 27987 H 2583.81 -4.9398 1.21905 0
M  V30 27988 H 2583.21 -5.31393 -1.94006 0
M  V30 27989 H 2581.76 -6.24387 -1.87041 0
M  V30 27990 N 2585.2 -0.765242 -1.37774 0
M  V30 27991 C 2586.44 -0.327107 -2.00145 0
M  V30 27992 C 2586.78 1.09172 -1.60609 0
M  V30 27993 O 2586.05 1.74984 -0.849158 0
M  V30 27994 C 2586.33 -0.463252 -3.57108 0
M  V30 27995 C 2586.19 -1.92402 -4.06573 0
M  V30 27996 C 2587.51 0.136396 -4.39889 0
M  V30 27997 H 2584.62 -0.120329 -0.727111 0
M  V30 27998 H 2587.27 -0.967068 -1.63548 0
M  V30 27999 H 2585.42 0.0815675 -3.88414 0
M  V30 28000 H 2587.09 -2.52805 -3.85859 0
M  V30 28001 H 2585.33 -2.43509 -3.59007 0
M  V30 28002 H 2586 -1.97038 -5.15636 0
M  V30 28003 H 2588.48 -0.328389 -4.14802 0
M  V30 28004 H 2587.35 0.0109617 -5.48899 0
M  V30 28005 H 2587.62 1.226 -4.24761 0
M  V30 28006 N 2586.67 1.48939 -0.515251 0
M  V30 28007 C 2588.09 1.86565 -0.0710395 0
M  V30 28008 C 2588.44 1.42626 1.34731 0
M  V30 28009 O 2587.56 0.810414 2.00652 0
M  V30 28010 C 2588.16 3.3858 -0.122142 0
M  V30 28011 C 2586.72 3.75453 0.266797 0
M  V30 28012 C 2585.86 2.72965 -0.488424 0
M  V30 28013 H 2588.81 1.41054 -0.727291 0
M  V30 28014 H 2588.83 3.74559 0.669752 0
M  V30 28015 H 2588.35 3.70529 -1.15455 0
M  V30 28016 H 2586.45 3.49115 1.3019 0
M  V30 28017 H 2586.56 4.79059 -0.0625653 0
M  V30 28018 H 2584.92 2.54621 0.0635174 0
M  V30 28019 H 2585.71 3.07758 -1.52118 0
M  V30 28020 N 2588.15 0.249709 1.55609 0
M  V30 28021 C 2589.38 -0.378316 2.03412 0
M  V30 28022 C 2589.8 -1.51333 1.12889 0
M  V30 28023 O 2589.15 -1.81932 0.143865 0
M  V30 28024 C 2589.2 -0.883448 3.50539 0
M  V30 28025 O 2588.93 0.206337 4.37614 0
M  V30 28026 C 2590.43 -1.58188 4.14115 0
M  V30 28027 H 2587.65 -0.0895683 0.664995 0
M  V30 28028 H 2590.19 0.374393 2.01044 0
M  V30 28029 H 2588.35 -1.58633 3.53432 0
M  V30 28030 H 2588.76 -0.17769 5.24199 0
M  V30 28031 H 2590.23 -1.88701 5.18745 0
M  V30 28032 H 2590.71 -2.50481 3.60772 0
M  V30 28033 H 2591.32 -0.9235 4.15152 0
M  V30 28034 N 2589.63 -1.57583 -0.0233682 0
M  V30 28035 C 2590.86 -1.9419 -0.728341 0
M  V30 28036 C 2591.28 -0.850148 -1.67792 0
M  V30 28037 O 2590.64 0.193678 -1.80263 0
M  V30 28038 C 2590.69 -3.2987 -1.45663 0
M  V30 28039 O 2589.79 -3.22523 -2.57008 0
M  V30 28040 H 2589.13 -0.634573 -0.195482 0
M  V30 28041 H 2591.66 -2.04587 0.0228573 0
M  V30 28042 H 2591.67 -3.64893 -1.82529 0
M  V30 28043 H 2590.35 -4.08893 -0.760242 0
M  V30 28044 H 2588.92 -2.9914 -2.22643 0
M  V30 28045 N 2591.11 0.29574 -1.548 0
M  V30 28046 C 2592.34 1.04911 -1.78329 0
M  V30 28047 C 2592.75 1.80752 -0.545347 0
M  V30 28048 O 2592.11 1.75938 0.484982 0
M  V30 28049 C 2592.16 2.02556 -2.99422 0
M  V30 28050 O 2591.88 1.2979 -4.18433 0
M  V30 28051 C 2593.38 2.89889 -3.3538 0
M  V30 28052 H 2590.6 0.310908 -0.594624 0
M  V30 28053 H 2593.15 0.333418 -2.01764 0
M  V30 28054 H 2591.3 2.69619 -2.7818 0
M  V30 28055 H 2591.72 1.9541 -4.86739 0
M  V30 28056 H 2593.19 3.54243 -4.23339 0
M  V30 28057 H 2593.67 3.58467 -2.53768 0
M  V30 28058 H 2594.27 2.28348 -3.588 0
M  V30 28059 N 2592.59 1.47346 0.559187 0
M  V30 28060 C 2593.54 1.60088 1.68744 0
M  V30 28061 C 2594.53 0.468278 1.62799 0
M  V30 28062 O 2595.74 0.646006 1.68008 0
M  V30 28063 H 2592.11 0.503769 0.55832 0
M  V30 28064 H 2594.08 2.54904 1.55133 0
M  V30 28065 C 2592.83 1.63048 3.07101 0
M  V30 28066 H 2592.15 2.49547 3.12356 0
M  V30 28067 H 2593.59 1.76013 3.8574 0
M  V30 28068 C 2592.05 0.363416 3.34934 0
M  V30 28069 O 2592.58 -0.536346 3.98103 0
M  V30 28070 N 2590.79 0.244051 2.89573 0
M  V30 28071 H 2590.34 0.977175 2.38346 0
M  V30 28072 H 2590.29 -0.602782 3.08567 0
M  V30 28073 N 2594.07 -0.805758 1.35445 0
M  V30 28074 C 2595.03 -1.89922 1.28305 0
M  V30 28075 C 2596.03 -1.59622 0.194313 0
M  V30 28076 O 2597.22 -1.68339 0.448065 0
M  V30 28077 C 2594.35 -3.26358 0.985055 0
M  V30 28078 H 2595.54 -1.97673 2.25534 0
M  V30 28079 H 2593.1 -1.00171 1.19981 0
M  V30 28080 H 2593.83 -3.24296 0.01666 0
M  V30 28081 H 2593.62 -3.49737 1.77275 0
M  V30 28082 H 2595.11 -4.06399 0.960722 0
M  V30 28083 N 2595.54 -1.19456 -1.02801 0
M  V30 28084 C 2596.49 -0.929711 -2.13211 0
M  V30 28085 C 2597.49 0.114776 -1.69011 0
M  V30 28086 O 2598.69 -0.0345463 -1.79967 0
M  V30 28087 H 2595.07 -0.283252 -0.696615 0
M  V30 28088 H 2597.04 -1.86747 -2.3274 0
M  V30 28089 C 2595.79 -0.485858 -3.44289 0
M  V30 28090 H 2595.11 -1.28112 -3.78718 0
M  V30 28091 H 2596.55 -0.339656 -4.22637 0
M  V30 28092 C 2595.01 0.800187 -3.27259 0
M  V30 28093 O 2595.54 1.8614 -3.5597 0
M  V30 28094 N 2593.74 0.75776 -2.80547 0
M  V30 28095 H 2593.29 -0.106085 -2.57381 0
M  V30 28096 H 2593.25 1.61862 -2.69533 0
M  V30 28097 N 2597.02 1.21924 -0.998617 0
M  V30 28098 C 2597.95 2.26342 -0.573728 0
M  V30 28099 C 2598.93 1.65275 0.402267 0
M  V30 28100 O 2600.12 1.91998 0.291649 0
M  V30 28101 C 2597.25 3.47136 0.106778 0
M  V30 28102 C 2596.2 4.20677 -0.788342 0
M  V30 28103 C 2595.53 5.34694 0.0253987 0
M  V30 28104 C 2596.83 4.78752 -2.08792 0
M  V30 28105 H 2598.52 2.62136 -1.44655 0
M  V30 28106 H 2596.07 1.26008 -0.696998 0
M  V30 28107 H 2598.02 4.19347 0.415457 0
M  V30 28108 H 2596.74 3.10454 1.01419 0
M  V30 28109 H 2595.4 3.50308 -1.08075 0
M  V30 28110 H 2595.05 4.94254 0.933902 0
M  V30 28111 H 2594.75 5.84824 -0.57054 0
M  V30 28112 H 2596.28 6.09718 0.32804 0
M  V30 28113 H 2597.69 5.42875 -1.84282 0
M  V30 28114 H 2596.09 5.39244 -2.63317 0
M  V30 28115 H 2597.16 3.98486 -2.76291 0
M  V30 28116 N 2598.5 0.772537 1.37367 0
M  V30 28117 C 2599.45 0.147152 2.32134 0
M  V30 28118 C 2600.44 -0.684079 1.54973 0
M  V30 28119 O 2601.65 -0.581053 1.70364 0
M  V30 28120 H 2598.02 0.0287992 0.751448 0
M  V30 28121 H 2599.99 0.962162 2.82462 0
M  V30 28122 C 2598.74 -0.716971 3.40228 0
M  V30 28123 H 2598.07 -0.0867249 3.99706 0
M  V30 28124 H 2599.51 -1.12151 4.08899 0
M  V30 28125 C 2597.96 -1.86792 2.80375 0
M  V30 28126 O 2598.49 -2.96344 2.71188 0
M  V30 28127 N 2596.7 -1.66878 2.37907 0
M  V30 28128 H 2596.25 -0.777716 2.4558 0
M  V30 28129 H 2596.21 -2.44053 1.98206 0
M  V30 28130 N 2599.98 -1.48664 0.523142 0
M  V30 28131 C 2600.93 -2.31178 -0.256818 0
M  V30 28132 C 2601.92 -1.40796 -0.941965 0
M  V30 28133 O 2603.13 -1.57737 -0.867129 0
M  V30 28134 H 2599.5 -0.745093 -0.101687 0
M  V30 28135 H 2601.47 -2.94852 0.458791 0
M  V30 28136 C 2600.22 -3.22685 -1.29498 0
M  V30 28137 H 2599.54 -3.92173 -0.777179 0
M  V30 28138 H 2600.98 -3.83318 -1.81226 0
M  V30 28139 C 2599.44 -2.43817 -2.32497 0
M  V30 28140 O 2599.97 -2.15808 -3.38806 0
M  V30 28141 N 2598.18 -2.05436 -2.05534 0
M  V30 28142 H 2597.73 -2.28414 -1.191 0
M  V30 28143 H 2597.68 -1.52977 -2.74673 0
M  V30 28144 N 2601.46 -0.257958 -1.55475 0
M  V30 28145 C 2602.42 0.623667 -2.20552 0
M  V30 28146 C 2603.42 1.0944 -1.17811 0
M  V30 28147 O 2604.61 0.997337 -1.42824 0
M  V30 28148 C 2601.74 1.85845 -2.85787 0
M  V30 28149 H 2602.93 0.0557216 -2.99848 0
M  V30 28150 H 2600.49 -0.00846967 -1.56298 0
M  V30 28151 H 2601.22 2.46735 -2.10457 0
M  V30 28152 H 2601.01 1.52901 -3.61059 0
M  V30 28153 H 2602.5 2.48578 -3.35557 0
M  V30 28154 N 2602.93 1.57593 0.0150108 0
M  V30 28155 C 2603.88 2.08574 1.02955 0
M  V30 28156 C 2604.88 1.00248 1.36553 0
M  V30 28157 O 2606.08 1.18726 1.35293 0
M  V30 28158 H 2602.46 0.665792 0.349607 0
M  V30 28159 H 2604.43 2.9283 0.57388 0
M  V30 28160 C 2603.18 2.59207 2.31747 0
M  V30 28161 H 2602.5 3.42185 2.06759 0
M  V30 28162 H 2603.94 2.98574 3.01048 0
M  V30 28163 C 2602.4 1.4995 3.0169 0
M  V30 28164 O 2602.93 0.873772 3.92082 0
M  V30 28165 N 2601.14 1.2306 2.63258 0
M  V30 28166 H 2600.68 1.74128 1.89834 0
M  V30 28167 H 2600.64 0.501739 3.10371 0
M  V30 28168 N 2604.41 -0.287527 1.54955 0
M  V30 28169 C 2605.35 -1.38007 1.8174 0
M  V30 28170 C 2606.32 -1.4818 0.669438 0
M  V30 28171 O 2607.51 -1.65032 0.910868 0
M  V30 28172 C 2604.63 -2.75793 1.96611 0
M  V30 28173 C 2603.68 -2.82977 3.19102 0
M  V30 28174 S 2604.51 -2.43698 4.76835 0
M  V30 28175 C 2605.67 -3.83487 4.9466 0
M  V30 28176 H 2605.9 -1.1508 2.74124 0
M  V30 28177 H 2603.44 -0.486377 1.46539 0
M  V30 28178 H 2605.39 -3.55148 2.05864 0
M  V30 28179 H 2604.05 -2.9598 1.05141 0
M  V30 28180 H 2603.25 -3.84072 3.26351 0
M  V30 28181 H 2602.85 -2.11629 3.08365 0
M  V30 28182 H 2605.14 -4.78619 4.7951 0
M  V30 28183 H 2606.08 -3.812 5.96735 0
M  V30 28184 H 2606.49 -3.74115 4.22727 0
M  V30 28185 N 2605.89 -1.47641 -0.551365 0
M  V30 28186 C 2607.12 -1.58439 -1.33835 0
M  V30 28187 C 2607.54 -0.237096 -1.866 0
M  V30 28188 O 2606.9 0.787965 -1.63281 0
M  V30 28189 C 2606.95 -2.6177 -2.4801 0
M  V30 28190 O 2606.05 -2.17446 -3.50415 0
M  V30 28191 H 2605.39 -0.532031 -0.397289 0
M  V30 28192 H 2607.92 -1.93466 -0.665725 0
M  V30 28193 H 2607.93 -2.82374 -2.94498 0
M  V30 28194 H 2606.61 -3.59594 -2.08962 0
M  V30 28195 H 2605.18 -2.06966 -3.10193 0
M  V30 28196 N 2607.37 0.798563 -1.3587 0
M  V30 28197 C 2608.32 1.9108 -1.2945 0
M  V30 28198 C 2609.29 1.65279 -0.164899 0
M  V30 28199 O 2610.47 1.87564 -0.349921 0
M  V30 28200 C 2607.61 3.2775 -1.08046 0
M  V30 28201 C 2606.72 3.65683 -2.29999 0
M  V30 28202 C 2605.86 4.91425 -2.01681 0
M  V30 28203 C 2604.9 5.22009 -3.19645 0
M  V30 28204 N 2604.03 6.38932 -2.91051 0
M  V30 28205 H 2608.87 1.95904 -2.24557 0
M  V30 28206 H 2606.41 0.958129 -1.11617 0
M  V30 28207 H 2608.37 4.0655 -0.936657 0
M  V30 28208 H 2607 3.22373 -0.165977 0
M  V30 28209 H 2606.05 2.8208 -2.55216 0
M  V30 28210 H 2607.36 3.8424 -3.18059 0
M  V30 28211 H 2606.52 5.78069 -1.84178 0
M  V30 28212 H 2605.26 4.74919 -1.10919 0
M  V30 28213 H 2604.26 4.33852 -3.37717 0
M  V30 28214 H 2605.49 5.40439 -4.1122 0
M  V30 28215 H 2603.43 6.23836 -2.02891 0
M  V30 28216 H 2603.35 6.57777 -3.72646 0
M  V30 28217 H 2604.62 7.28582 -2.77106 0
M  V30 28218 N 2608.85 1.19999 1.02166 0
M  V30 28219 C 2609.81 0.946077 2.08763 0
M  V30 28220 C 2610.81 -0.0763563 1.60619 0
M  V30 28221 O 2612 0.159165 1.73471 0
M  V30 28222 C 2609.13 0.423314 3.38262 0
M  V30 28223 H 2610.32 1.89157 2.32722 0
M  V30 28224 H 2607.88 1.01466 1.18888 0
M  V30 28225 H 2608.61 -0.527881 3.19975 0
M  V30 28226 H 2608.4 1.1606 3.7453 0
M  V30 28227 H 2609.89 0.264985 4.16758 0
M  V30 28228 N 2610.32 -1.21392 1.00507 0
M  V30 28229 C 2611.29 -2.21986 0.570498 0
M  V30 28230 C 2612.29 -1.56873 -0.353183 0
M  V30 28231 O 2613.48 -1.73608 -0.14346 0
M  V30 28232 C 2610.61 -3.40483 -0.168496 0
M  V30 28233 H 2611.8 -2.61948 1.46026 0
M  V30 28234 H 2609.36 -1.34655 0.793589 0
M  V30 28235 H 2610.09 -3.0601 -1.07369 0
M  V30 28236 H 2609.88 -3.88964 0.494892 0
M  V30 28237 H 2611.37 -4.15056 -0.460289 0
M  V30 28238 N 2611.8 -0.779811 -1.36955 0
M  V30 28239 C 2612.75 -0.144932 -2.27539 0
M  V30 28240 C 2613.74 0.665462 -1.46494 0
M  V30 28241 O 2614.93 0.527111 -1.68969 0
M  V30 28242 C 2612.06 0.727023 -3.35513 0
M  V30 28243 C 2611.14 -0.0916387 -4.24001 0
M  V30 28244 N 2611.53 -1.14133 -4.92755 0
M  V30 28245 C 2609.83 0.131063 -4.45807 0
M  V30 28246 C 2610.53 -1.6389 -5.58135 0
M  V30 28247 N 2609.51 -0.949714 -5.3524 0
M  V30 28248 H 2613.31 -0.948495 -2.78174 0
M  V30 28249 H 2610.83 -0.618341 -1.50168 0
M  V30 28250 H 2612.82 1.19769 -3.99326 0
M  V30 28251 H 2611.48 1.52924 -2.86434 0
M  V30 28252 H 2612.49 -1.52362 -4.94981 0
M  V30 28253 H 2609.17 0.90455 -4.07583 0
M  V30 28254 H 2610.56 -2.51472 -6.23066 0
M  V30 28255 N 2613.28 1.48384 -0.531019 0
M  V30 28256 C 2614.53 2.021 0.00269637 0
M  V30 28257 C 2614.85 1.41029 1.34669 0
M  V30 28258 O 2614.12 0.576045 1.87239 0
M  V30 28259 H 2612.7 0.746989 0.00398461 0
M  V30 28260 H 2615.36 1.82084 -0.695086 0
M  V30 28261 H 2614.46 3.11905 0.110255 0
M  V30 28262 N 2614.76 0.2662 1.55336 0
M  V30 28263 C 2615.71 -0.625126 2.22173 0
M  V30 28264 C 2616.68 -1.15661 1.19213 0
M  V30 28265 O 2617.86 -1.20755 1.47726 0
M  V30 28266 C 2615 -1.80755 2.93975 0
M  V30 28267 C 2614.11 -1.31077 4.11634 0
M  V30 28268 C 2613.25 -2.45428 4.71104 0
M  V30 28269 C 2612.29 -1.92708 5.80973 0
M  V30 28270 N 2611.42 -3.00498 6.34543 0
M  V30 28271 H 2616.26 -0.0485058 2.97961 0
M  V30 28272 H 2613.8 -0.0121766 1.47095 0
M  V30 28273 H 2615.76 -2.50245 3.33816 0
M  V30 28274 H 2614.39 -2.35634 2.20627 0
M  V30 28275 H 2613.44 -0.509259 3.76976 0
M  V30 28276 H 2614.75 -0.884547 4.90894 0
M  V30 28277 H 2613.91 -3.22927 5.13617 0
M  V30 28278 H 2612.65 -2.91361 3.91101 0
M  V30 28279 H 2611.65 -1.13685 5.37918 0
M  V30 28280 H 2612.88 -1.47721 6.62839 0
M  V30 28281 H 2610.82 -3.4583 5.57439 0
M  V30 28282 H 2610.74 -2.62266 7.0905 0
M  V30 28283 H 2612.01 -3.77999 6.81716 0
M  V30 28284 N 2616.24 -1.57599 -0.0066531 0
M  V30 28285 C 2617.65 -1.55425 -0.362642 0
M  V30 28286 C 2617.85 -0.995218 -1.75207 0
M  V30 28287 O 2616.91 -0.626101 -2.44614 0
M  V30 28288 C 2618.22 -2.99709 -0.243965 0
M  V30 28289 C 2619.77 -3.11366 -0.319396 0
M  V30 28290 C 2620.24 -4.57423 -0.229918 0
M  V30 28291 N 2621.74 -4.62304 -0.288024 0
M  V30 28292 C 2622.47 -5.72889 -0.242026 0
M  V30 28293 N 2621.97 -6.92644 -0.147012 0
M  V30 28294 N 2623.76 -5.61334 -0.293404 0
M  V30 28295 H 2615.91 -1.9228 0.902347 0
M  V30 28296 H 2618.17 -0.88289 0.345266 0
M  V30 28297 H 2617.88 -3.44423 0.711739 0
M  V30 28298 H 2617.75 -3.62901 -1.02871 0
M  V30 28299 H 2620.14 -2.66586 -1.26554 0
M  V30 28300 H 2620.22 -2.50963 0.495099 0
M  V30 28301 H 2619.87 -5.02875 0.712654 0
M  V30 28302 H 2619.8 -5.15763 -1.06281 0
M  V30 28303 H 2622.29 -3.76152 -0.36306 0
M  V30 28304 H 2622.6 -7.7271 -0.117627 0
M  V30 28305 H 2620.94 -6.94909 -0.112735 0
M  V30 28306 H 2624.14 -4.66669 -0.365782 0
M  V30 28307 H 2624.31 -6.47502 -0.25409 0
M  V30 28308 N 2617.72 0.279305 -1.55105 0
M  V30 28309 C 2619.13 0.850803 -1.66187 0
M  V30 28310 C 2619.48 1.87284 -0.58474 0
M  V30 28311 O 2618.6 2.14647 0.274882 0
M  V30 28312 C 2619.2 1.54996 -3.01267 0
M  V30 28313 C 2617.76 2.06957 -3.14397 0
M  V30 28314 C 2616.9 0.90949 -2.61961 0
M  V30 28315 H 2619.85 0.0557957 -1.58602 0
M  V30 28316 H 2619.88 2.41664 -2.93903 0
M  V30 28317 H 2619.39 0.805864 -3.79641 0
M  V30 28318 H 2617.49 2.84348 -2.40784 0
M  V30 28319 H 2617.6 2.28921 -4.20871 0
M  V30 28320 H 2615.97 1.30112 -2.18959 0
M  V30 28321 H 2616.75 0.179002 -3.42833 0
M  V30 28322 N 2619.19 1.47931 0.543528 0
M  V30 28323 C 2620.42 1.59147 1.32992 0
M  V30 28324 C 2620.84 0.246989 1.86471 0
M  V30 28325 O 2620.2 -0.779295 1.63697 0
M  V30 28326 C 2620.25 2.63082 2.46618 0
M  V30 28327 O 2619.35 2.19301 3.49257 0
M  V30 28328 H 2618.69 0.534131 0.394462 0
M  V30 28329 H 2621.22 1.93817 0.655455 0
M  V30 28330 H 2621.23 2.83932 2.92996 0
M  V30 28331 H 2619.91 3.60697 2.07053 0
M  V30 28332 H 2618.49 2.08608 3.09091 0
M  V30 28333 N 2620.67 -0.791347 1.36292 0
M  V30 28334 C 2621.92 -1.54432 1.29745 0
M  V30 28335 C 2622.23 -1.95221 -0.121695 0
M  V30 28336 O 2623.44 -2.6973 -0.309531 0
M  V30 28337 C 2621.9 -2.78772 2.27628 0
M  V30 28338 C 2621.5 -2.4516 3.74968 0
M  V30 28339 C 2623.25 -3.56757 2.30054 0
M  V30 28340 C 2621.15 -3.65883 4.64633 0
M  V30 28341 H 2620.08 -0.579719 0.482123 0
M  V30 28342 H 2622.74 -0.868537 1.61644 0
M  V30 28343 H 2621.12 -3.48139 1.8872 0
M  V30 28344 H 2622.29 -1.83701 4.226 0
M  V30 28345 H 2620.61 -1.80389 3.75298 0
M  V30 28346 H 2623.2 -4.46451 2.94254 0
M  V30 28347 H 2623.55 -3.952 1.30853 0
M  V30 28348 H 2624.08 -2.94367 2.67568 0
M  V30 28349 H 2620.82 -3.32537 5.64889 0
M  V30 28350 H 2620.34 -4.26514 4.21718 0
M  V30 28351 H 2622.02 -4.32934 4.80809 0
M  V30 28352 N 2622.15 -1.2054 -1.01528 0
M  V30 28353 C 2623.4 -1.01435 -1.74801 0
M  V30 28354 C 2623.72 0.454423 -1.89631 0
M  V30 28355 O 2622.99 1.32843 -1.43977 0
M  V30 28356 H 2621.57 -0.372336 -0.647592 0
M  V30 28357 H 2624.23 -1.51672 -1.224 0
M  V30 28358 H 2623.33 -1.47378 -2.75111 0
M  V30 28359 N 2623.63 1.20858 -1.01149 0
M  V30 28360 C 2624.58 2.25492 -0.570629 0
M  V30 28361 C 2625.57 1.64895 0.38808 0
M  V30 28362 O 2626.78 1.78133 0.258561 0
M  V30 28363 H 2623.15 0.733403 -0.166204 0
M  V30 28364 H 2625.12 2.6001 -1.46415 0
M  V30 28365 C 2623.87 3.47607 0.080463 0
M  V30 28366 H 2623.19 3.9451 -0.648226 0
M  V30 28367 H 2624.63 4.22535 0.352123 0
M  V30 28368 C 2623.09 3.09891 1.3217 0
M  V30 28369 O 2623.62 3.20964 2.41547 0
M  V30 28370 N 2621.83 2.6449 1.20388 0
M  V30 28371 H 2621.38 2.55681 0.31386 0
M  V30 28372 H 2621.33 2.39625 2.03537 0
M  V30 28373 N 2625.11 0.787064 1.3654 0
M  V30 28374 C 2626.04 0.198033 2.32659 0
M  V30 28375 C 2627.02 -0.665669 1.56534 0
M  V30 28376 O 2628.2 -0.599978 1.84699 0
M  V30 28377 C 2625.33 -0.669841 3.40779 0
M  V30 28378 C 2624.29 0.0937791 4.27897 0
M  V30 28379 C 2623.61 -0.894536 5.27164 0
M  V30 28380 C 2624.91 1.28163 5.06332 0
M  V30 28381 H 2626.61 1.00104 2.82169 0
M  V30 28382 H 2624.15 0.482817 1.35665 0
M  V30 28383 H 2626.1 -1.09184 4.0701 0
M  V30 28384 H 2624.83 -1.50553 2.8983 0
M  V30 28385 H 2623.49 0.496724 3.63219 0
M  V30 28386 H 2623.14 -1.72519 4.72489 0
M  V30 28387 H 2622.84 -0.388046 5.86317 0
M  V30 28388 H 2624.36 -1.31515 5.96269 0
M  V30 28389 H 2625.77 0.93551 5.65616 0
M  V30 28390 H 2624.17 1.72125 5.74885 0
M  V30 28391 H 2625.24 2.07815 4.38111 0
M  V30 28392 N 2626.58 -1.48101 0.53888 0
M  V30 28393 C 2627.49 -2.33541 -0.222607 0
M  V30 28394 C 2628.51 -1.47049 -0.930199 0
M  V30 28395 O 2629.69 -1.80013 -0.903179 0
M  V30 28396 C 2626.75 -3.23359 -1.25059 0
M  V30 28397 C 2625.81 -4.25731 -0.552394 0
M  V30 28398 C 2625.04 -5.11257 -1.5314 0
M  V30 28399 O 2625.27 -4.98915 -2.76478 0
M  V30 28400 O 2624.2 -5.92387 -1.06592 0
M  V30 28401 H 2628.03 -2.99919 0.477759 0
M  V30 28402 H 2625.61 -1.46363 0.299695 0
M  V30 28403 H 2627.49 -3.78891 -1.84444 0
M  V30 28404 H 2626.17 -2.59632 -1.9332 0
M  V30 28405 H 2625.08 -3.7401 0.0821798 0
M  V30 28406 H 2626.41 -4.92121 0.0884391 0
M  V30 28407 N 2628.06 -0.274434 -1.55192 0
M  V30 28408 C 2629.01 0.627844 -2.19185 0
M  V30 28409 C 2630 1.1189 -1.15627 0
M  V30 28410 O 2631.19 1.06409 -1.41443 0
M  V30 28411 C 2628.32 1.81184 -2.91594 0
M  V30 28412 C 2627.4 1.338 -4.02441 0
M  V30 28413 N 2627.79 0.580261 -5.02461 0
M  V30 28414 C 2626.09 1.62101 -4.15499 0
M  V30 28415 C 2626.79 0.331242 -5.80756 0
M  V30 28416 N 2625.77 0.903462 -5.3604 0
M  V30 28417 H 2629.57 0.04107 -2.93871 0
M  V30 28418 H 2627.08 -0.0779633 -1.62213 0
M  V30 28419 H 2629.08 2.46951 -3.35888 0
M  V30 28420 H 2627.74 2.40257 -2.18418 0
M  V30 28421 H 2628.75 0.227671 -5.17399 0
M  V30 28422 H 2625.43 2.22115 -3.53513 0
M  V30 28423 H 2626.82 -0.275572 -6.71335 0
M  V30 28424 N 2629.54 1.576 -0.00170483 0
M  V30 28425 C 2630.79 1.90924 0.683798 0
M  V30 28426 C 2631.12 0.875829 1.73329 0
M  V30 28427 O 2630.39 -0.105216 1.94215 0
M  V30 28428 C 2630.68 3.34822 1.32537 0
M  V30 28429 C 2630.53 4.48881 0.287309 0
M  V30 28430 C 2631.85 3.78173 2.25107 0
M  V30 28431 H 2628.97 0.694337 0.247112 0
M  V30 28432 H 2631.61 1.89925 -0.0533483 0
M  V30 28433 H 2629.76 3.35804 1.95366 0
M  V30 28434 H 2631.43 4.60035 -0.341427 0
M  V30 28435 H 2629.67 4.32041 -0.390246 0
M  V30 28436 H 2630.35 5.46528 0.775297 0
M  V30 28437 H 2632.82 3.78753 1.72294 0
M  V30 28438 H 2631.7 4.79606 2.66963 0
M  V30 28439 H 2631.96 3.12136 3.13087 0
M  V30 28440 N 2631.02 -0.271076 1.55251 0
M  V30 28441 C 2632.24 -1.02488 1.80308 0
M  V30 28442 C 2632.67 -1.7908 0.575489 0
M  V30 28443 O 2632.03 -1.74968 -0.474956 0
M  V30 28444 C 2632.07 -1.95762 3.02836 0
M  V30 28445 O 2631.18 -3.04563 2.78056 0
M  V30 28446 H 2630.52 -0.292913 0.595901 0
M  V30 28447 H 2633.05 -0.299401 2.02398 0
M  V30 28448 H 2633.06 -2.3768 3.3162 0
M  V30 28449 H 2631.73 -1.39427 3.91833 0
M  V30 28450 H 2630.31 -2.66946 2.60373 0
M  V30 28451 N 2632.5 -1.48217 -0.535675 0
M  V30 28452 C 2633.41 -1.64988 -1.66782 0
M  V30 28453 C 2634.42 -0.532443 -1.65653 0
M  V30 28454 O 2635.6 -0.802782 -1.84709 0
M  V30 28455 C 2632.66 -1.68037 -3.03257 0
M  V30 28456 C 2631.72 -2.91366 -3.15285 0
M  V30 28457 C 2630.96 -2.9426 -4.45249 0
M  V30 28458 O 2631.18 -2.05729 -5.32007 0
M  V30 28459 O 2630.11 -3.86368 -4.61523 0
M  V30 28460 H 2633.94 -2.60828 -1.55571 0
M  V30 28461 H 2631.53 -1.31552 -0.708127 0
M  V30 28462 H 2633.41 -1.72596 -3.84433 0
M  V30 28463 H 2632.08 -0.753684 -3.14804 0
M  V30 28464 H 2630.99 -2.92341 -2.33425 0
M  V30 28465 H 2632.32 -3.834 -3.08651 0
M  V30 28466 N 2633.97 0.784108 -1.3671 0
M  V30 28467 C 2634.92 1.91835 -1.31537 0
M  V30 28468 C 2635.92 1.6814 -0.206235 0
M  V30 28469 O 2637.12 1.76081 -0.37355 0
M  V30 28470 H 2633.5 0.630644 -0.409624 0
M  V30 28471 H 2635.47 1.93316 -2.27313 0
M  V30 28472 C 2634.22 3.28934 -1.12685 0
M  V30 28473 H 2633.54 3.47737 -1.9728 0
M  V30 28474 H 2634.98 4.08634 -1.13113 0
M  V30 28475 C 2633.44 3.3648 0.168221 0
M  V30 28476 O 2633.97 3.84702 1.15619 0
M  V30 28477 N 2632.18 2.89806 0.214711 0
M  V30 28478 H 2631.72 2.50755 -0.589896 0
M  V30 28479 H 2631.68 2.95236 1.08088 0
M  V30 28480 N 2635.45 1.21076 1.00888 0
M  V30 28481 C 2636.7 1.02361 1.7426 0
M  V30 28482 C 2637.02 -0.44436 1.8987 0
M  V30 28483 O 2636.29 -1.32078 1.4468 0
M  V30 28484 H 2634.87 0.375765 0.645608 0
M  V30 28485 H 2637.53 1.52319 1.21594 0
M  V30 28486 H 2636.63 1.48835 2.74326 0
M  V30 28487 N 2636.93 -1.2032 1.01789 0
M  V30 28488 C 2637.88 -2.21015 0.560015 0
M  V30 28489 C 2638.86 -1.56218 -0.385339 0
M  V30 28490 O 2640.06 -1.75772 -0.208095 0
M  V30 28491 C 2637.19 -3.43157 -0.098995 0
M  V30 28492 C 2636.27 -4.15119 0.868143 0
M  V30 28493 N 2636.66 -4.63443 2.02618 0
M  V30 28494 C 2634.96 -4.40642 0.689239 0
M  V30 28495 C 2635.66 -5.18583 2.63527 0
M  V30 28496 N 2634.64 -5.08723 1.91578 0
M  V30 28497 H 2638.44 -2.56045 1.44285 0
M  V30 28498 H 2635.95 -1.36271 0.883405 0
M  V30 28499 H 2637.95 -4.14523 -0.44457 0
M  V30 28500 H 2636.61 -3.09632 -0.977654 0
M  V30 28501 H 2637.62 -4.58617 2.40606 0
M  V30 28502 H 2634.3 -4.17261 -0.141256 0
M  V30 28503 H 2635.69 -5.6634 3.61537 0
M  V30 28504 N 2638.41 -0.794293 -1.3612 0
M  V30 28505 C 2639.36 -0.169057 -2.27372 0
M  V30 28506 C 2640.34 0.649887 -1.47191 0
M  V30 28507 O 2641.53 0.50916 -1.69519 0
M  V30 28508 C 2638.66 0.691396 -3.36266 0
M  V30 28509 C 2637.75 -0.136605 -4.2388 0
M  V30 28510 N 2638.14 -1.19353 -4.91516 0
M  V30 28511 C 2636.44 0.0837716 -4.45921 0
M  V30 28512 C 2637.14 -1.698 -5.56366 0
M  V30 28513 N 2636.12 -1.00643 -5.34202 0
M  V30 28514 H 2639.92 -0.977946 -2.77152 0
M  V30 28515 H 2637.43 -0.634234 -1.49503 0
M  V30 28516 H 2639.43 1.15527 -4.00574 0
M  V30 28517 H 2638.09 1.49877 -2.8804 0
M  V30 28518 H 2639.1 -1.57603 -4.93337 0
M  V30 28519 H 2635.78 0.861269 -4.0852 0
M  V30 28520 H 2637.17 -2.58066 -6.20364 0
M  V30 28521 N 2639.89 1.47813 -0.546727 0
M  V30 28522 C 2641.11 2.07389 -0.0213045 0
M  V30 28523 C 2641.54 1.39825 1.2582 0
M  V30 28524 O 2640.89 0.469711 1.7511 0
M  V30 28525 C 2640.94 3.60206 0.168439 0
M  V30 28526 O 2640.05 3.93524 1.2334 0
M  V30 28527 H 2639.39 0.662361 -0.0466225 0
M  V30 28528 H 2641.92 1.89984 -0.759421 0
M  V30 28529 H 2641.93 4.06171 0.385911 0
M  V30 28530 H 2640.6 4.08782 -0.766147 0
M  V30 28531 H 2639.18 3.59318 0.997256 0
M  V30 28532 N 2641.36 0.28266 1.55044 0
M  V30 28533 C 2642.59 -0.337941 2.04628 0
M  V30 28534 C 2643.01 -1.48121 1.15939 0
M  V30 28535 O 2642.37 -1.80596 0.159564 0
M  V30 28536 C 2642.42 -0.789298 3.51856 0
M  V30 28537 O 2641.52 -1.89585 3.66239 0
M  V30 28538 H 2640.87 -0.0687145 0.660435 0
M  V30 28539 H 2643.4 0.41916 2.0026 0
M  V30 28540 H 2643.41 -1.08304 3.93363 0
M  V30 28541 H 2642.08 0.047115 4.15873 0
M  V30 28542 H 2640.66 -1.60407 3.36636 0
M  V30 28543 N 2642.84 -1.57597 0.0100627 0
M  V30 28544 C 2643.79 -2.05538 -0.986822 0
M  V30 28545 C 2644.78 -0.952065 -1.29709 0
M  V30 28546 O 2645.97 -1.21577 -1.28639 0
M  V30 28547 C 2643.1 -2.57047 -2.27555 0
M  V30 28548 C 2642.18 -3.74274 -1.99448 0
M  V30 28549 N 2642.57 -4.85593 -1.41537 0
M  V30 28550 C 2640.87 -3.82397 -2.2954 0
M  V30 28551 C 2641.57 -5.66958 -1.3013 0
M  V30 28552 N 2640.55 -5.13271 -1.79035 0
M  V30 28553 H 2644.35 -2.89013 -0.533727 0
M  V30 28554 H 2641.87 -1.6122 -0.195404 0
M  V30 28555 H 2643.86 -2.89674 -2.99824 0
M  V30 28556 H 2642.52 -1.74995 -2.73509 0
M  V30 28557 H 2643.53 -5.06238 -1.09286 0
M  V30 28558 H 2640.21 -3.11217 -2.78298 0
M  V30 28559 H 2641.6 -6.66436 -0.85512 0
M  V30 28560 N 2644.32 0.262839 -1.55393 0
M  V30 28561 C 2645.27 1.32513 -1.88968 0
M  V30 28562 C 2646.24 1.48595 -0.742213 0
M  V30 28563 O 2647.42 1.62837 -0.994419 0
M  V30 28564 C 2644.56 2.67854 -2.17596 0
M  V30 28565 C 2643.68 2.59911 -3.45066 0
M  V30 28566 C 2642.81 3.87499 -3.63343 0
M  V30 28567 C 2641.85 3.74107 -4.84469 0
M  V30 28568 N 2640.99 4.93552 -4.9935 0
M  V30 28569 H 2645.83 1.03179 -2.79568 0
M  V30 28570 H 2643.36 0.498261 -1.38404 0
M  V30 28571 H 2645.32 3.46613 -2.32196 0
M  V30 28572 H 2643.95 2.95369 -1.3022 0
M  V30 28573 H 2643 1.72806 -3.38884 0
M  V30 28574 H 2644.32 2.45919 -4.33965 0
M  V30 28575 H 2643.47 4.747 -3.77815 0
M  V30 28576 H 2642.21 4.04369 -2.72648 0
M  V30 28577 H 2641.21 2.85289 -4.6999 0
M  V30 28578 H 2642.44 3.58746 -5.76609 0
M  V30 28579 H 2640.38 5.10814 -4.11589 0
M  V30 28580 H 2640.3 4.8213 -5.82311 0
M  V30 28581 H 2641.57 5.82297 -5.18218 0
M  V30 28582 N 2645.8 1.48499 0.527807 0
M  V30 28583 C 2646.75 1.59583 1.62841 0
M  V30 28584 C 2647.73 0.452836 1.54396 0
M  V30 28585 O 2648.92 0.704392 1.6238 0
M  V30 28586 C 2646.05 1.64073 3.01554 0
M  V30 28587 C 2645.14 2.83859 3.15095 0
M  V30 28588 N 2645.53 4.08252 2.98603 0
M  V30 28589 C 2643.83 2.81237 3.46153 0
M  V30 28590 C 2644.53 4.88631 3.15617 0
M  V30 28591 N 2643.51 4.21489 3.4329 0
M  V30 28592 H 2647.31 2.53504 1.48704 0
M  V30 28593 H 2644.82 1.44901 0.733318 0
M  V30 28594 H 2646.82 1.70107 3.80617 0
M  V30 28595 H 2645.48 0.712691 3.16782 0
M  V30 28596 H 2646.49 4.38655 2.75322 0
M  V30 28597 H 2643.17 1.97699 3.67725 0
M  V30 28598 H 2644.56 5.97361 3.07586 0
M  V30 28599 N 2647.28 -0.776847 1.37123 0
M  V30 28600 C 2648.55 -1.52419 1.22588 0
M  V30 28601 C 2648.93 -2.10308 -0.182689 0
M  V30 28602 O 2648.28 -1.95082 -1.18976 0
M  V30 28603 C 2648.49 -2.60914 2.31787 0
M  V30 28604 C 2649.84 -3.28455 2.69077 0
M  V30 28605 O 2650.86 -2.71205 2.30925 0
M  V30 28606 O 2649.72 -4.31948 3.34788 0
M  V30 28607 H 2646.82 -0.674827 0.478056 0
M  V30 28608 H 2649.36 -0.814249 1.48889 0
M  V30 28609 H 2648.14 -2.16221 3.26135 0
M  V30 28610 H 2647.76 -3.39513 2.06922 0
M  V30 28611 N 2648.76 -1.2161 -1.00244 0
M  V30 28612 C 2650.17 -0.973998 -1.26434 0
M  V30 28613 C 2650.37 0.338109 -1.98643 0
M  V30 28614 O 2649.43 1.06313 -2.29028 0
M  V30 28615 C 2650.74 -2.1663 -2.08547 0
M  V30 28616 C 2652.29 -2.20883 -2.21765 0
M  V30 28617 C 2652.76 -3.39639 -3.07261 0
M  V30 28618 N 2654.25 -3.39741 -3.14849 0
M  V30 28619 C 2654.99 -4.2828 -3.81266 0
M  V30 28620 N 2654.49 -5.2702 -4.49691 0
M  V30 28621 N 2656.28 -4.16081 -3.77932 0
M  V30 28622 H 2648.43 -2.05985 -0.518053 0
M  V30 28623 H 2650.69 -0.902119 -0.291352 0
M  V30 28624 H 2650.4 -3.1173 -1.62841 0
M  V30 28625 H 2650.27 -2.15902 -3.09299 0
M  V30 28626 H 2652.66 -1.26337 -2.66689 0
M  V30 28627 H 2652.74 -2.25654 -1.20474 0
M  V30 28628 H 2652.38 -4.3448 -2.63039 0
M  V30 28629 H 2652.31 -3.32107 -4.08672 0
M  V30 28630 H 2654.81 -2.68285 -2.66142 0
M  V30 28631 H 2655.12 -5.90876 -4.98082 0
M  V30 28632 H 2653.46 -5.30943 -4.4847 0
M  V30 28633 H 2656.65 -3.38201 -3.23632 0
M  V30 28634 H 2656.83 -4.8529 -4.29416 0
M  V30 28635 N 2650.23 1.19778 -1.02425 0
M  V30 28636 C 2651.14 2.26505 -0.610958 0
M  V30 28637 C 2652.16 1.70338 0.355122 0
M  V30 28638 O 2653.34 2.00258 0.21416 0
M  V30 28639 C 2650.4 3.46681 0.0365312 0
M  V30 28640 C 2649.46 4.18047 -0.976463 0
M  V30 28641 C 2648.69 5.32486 -0.359777 0
M  V30 28642 O 2648.92 5.64203 0.838501 0
M  V30 28643 O 2647.85 5.92126 -1.08032 0
M  V30 28644 H 2651.68 2.64089 -1.49969 0
M  V30 28645 H 2649.26 1.26543 -0.794178 0
M  V30 28646 H 2651.14 4.19518 0.397786 0
M  V30 28647 H 2649.82 3.10956 0.899344 0
M  V30 28648 H 2648.73 3.47349 -1.38922 0
M  V30 28649 H 2650.06 4.57732 -1.80949 0
M  V30 28650 N 2651.71 0.801501 1.35697 0
M  V30 28651 C 2653.12 0.441105 1.81414 0
M  V30 28652 C 2653.47 -1.03633 1.66597 0
M  V30 28653 O 2652.6 -1.80497 1.19372 0
M  V30 28654 C 2653.19 0.793877 3.29368 0
M  V30 28655 C 2651.75 0.486149 3.73247 0
M  V30 28656 C 2650.9 1.02217 2.57773 0
M  V30 28657 H 2653.85 0.993593 1.23747 0
M  V30 28658 H 2653.87 0.0894827 3.80395 0
M  V30 28659 H 2653.38 1.86923 3.4012 0
M  V30 28660 H 2651.48 -0.580671 3.68048 0
M  V30 28661 H 2651.6 1.01522 4.6822 0
M  V30 28662 H 2649.96 0.444756 2.50787 0
M  V30 28663 H 2650.74 2.10353 2.71305 0
M  V30 28664 N 2653.19 -1.47521 0.554558 0
M  V30 28665 C 2654.12 -2.28022 -0.232066 0
M  V30 28666 C 2655.13 -1.36848 -0.881841 0
M  V30 28667 O 2656.32 -1.61693 -0.75614 0
M  V30 28668 C 2653.42 -3.11025 -1.34599 0
M  V30 28669 C 2652.6 -4.30142 -0.793506 0
M  V30 28670 C 2651.66 -4.94761 -1.79159 0
M  V30 28671 O 2650.68 -5.53232 -1.33876 0
M  V30 28672 N 2651.88 -4.89216 -3.12486 0
M  V30 28673 H 2654.65 -2.96173 0.458459 0
M  V30 28674 H 2652.21 -1.57121 0.390461 0
M  V30 28675 H 2654.2 -3.51121 -2.01236 0
M  V30 28676 H 2652.77 -2.45134 -1.93979 0
M  V30 28677 H 2651.99 -3.94169 0.0495718 0
M  V30 28678 H 2653.28 -5.07196 -0.403686 0
M  V30 28679 H 2652.68 -4.42907 -3.51923 0
M  V30 28680 H 2651.23 -5.3334 -3.74689 0
M  V30 28681 N 2654.67 -0.290879 -1.54892 0
M  V30 28682 C 2656.08 0.0628152 -1.59476 0
M  V30 28683 C 2656.28 1.53278 -1.30798 0
M  V30 28684 O 2655.34 2.28404 -1.07648 0
M  V30 28685 C 2656.65 -0.326014 -2.98927 0
M  V30 28686 C 2658.2 -0.273937 -3.11799 0
M  V30 28687 C 2658.68 -0.637438 -4.53542 0
M  V30 28688 N 2660.17 -0.589587 -4.59432 0
M  V30 28689 C 2660.9 -0.84345 -5.67163 0
M  V30 28690 N 2660.4 -1.16275 -6.82973 0
M  V30 28691 N 2662.19 -0.771189 -5.56785 0
M  V30 28692 H 2654.34 -1.24899 -1.71796 0
M  V30 28693 H 2656.6 -0.505677 -0.80187 0
M  V30 28694 H 2656.31 -1.34893 -3.24803 0
M  V30 28695 H 2656.18 0.325375 -3.75794 0
M  V30 28696 H 2658.57 0.739715 -2.85679 0
M  V30 28697 H 2658.65 -0.959808 -2.3711 0
M  V30 28698 H 2658.3 -1.64885 -4.80391 0
M  V30 28699 H 2658.23 0.070394 -5.26553 0
M  V30 28700 H 2660.72 -0.353318 -3.76245 0
M  V30 28701 H 2661.03 -1.34271 -7.61046 0
M  V30 28702 H 2659.38 -1.20069 -6.8455 0
M  V30 28703 H 2662.57 -0.521465 -4.65186 0
M  V30 28704 H 2662.74 -0.972408 -6.40662 0
M  V30 28705 N 2656.15 1.57589 -0.0184203 0
M  V30 28706 C 2657.56 1.55983 0.33787 0
M  V30 28707 C 2657.76 1.02297 1.73602 0
M  V30 28708 O 2656.82 0.664938 2.43587 0
M  V30 28709 C 2658.13 3.00059 0.196253 0
M  V30 28710 C 2659.68 3.11835 0.26982 0
M  V30 28711 C 2660.15 4.5773 0.157117 0
M  V30 28712 N 2661.64 4.62703 0.214439 0
M  V30 28713 C 2662.38 5.73202 0.150854 0
M  V30 28714 N 2661.88 6.9279 0.0367994 0
M  V30 28715 N 2663.67 5.61729 0.204063 0
M  V30 28716 H 2655.82 1.9082 -0.932823 0
M  V30 28717 H 2658.08 0.877286 -0.359268 0
M  V30 28718 H 2657.79 3.43247 -0.766444 0
M  V30 28719 H 2657.66 3.64492 0.970844 0
M  V30 28720 H 2660.05 2.68566 1.22297 0
M  V30 28721 H 2660.13 2.50144 -0.534962 0
M  V30 28722 H 2659.77 5.01678 -0.792567 0
M  V30 28723 H 2659.7 5.17389 0.980626 0
M  V30 28724 H 2662.2 3.76682 0.303172 0
M  V30 28725 H 2662.51 7.728 -0.00531905 0
M  V30 28726 H 2660.85 6.95 0.00216644 0
M  V30 28727 H 2664.04 4.67192 0.291492 0
M  V30 28728 H 2664.22 6.47824 0.151046 0
M  V30 28729 N 2657.62 -0.254594 1.5553 0
M  V30 28730 C 2658.85 -1.00569 1.81385 0
M  V30 28731 C 2659.27 -1.7846 0.59445 0
M  V30 28732 O 2658.63 -1.75462 -0.456372 0
M  V30 28733 C 2658.68 -1.92539 3.04895 0
M  V30 28734 O 2657.78 -3.01596 2.81271 0
M  V30 28735 H 2657.12 -0.286576 0.598974 0
M  V30 28736 H 2659.65 -0.277917 2.02704 0
M  V30 28737 H 2659.66 -2.3415 3.34123 0
M  V30 28738 H 2658.34 -1.35263 3.9329 0
M  V30 28739 H 2656.92 -2.64169 2.6319 0
M  V30 28740 N 2659.1 -1.48777 -0.519925 0
M  V30 28741 C 2660.33 -1.61243 -1.30444 0
M  V30 28742 C 2660.75 -0.276624 -1.86055 0
M  V30 28743 O 2660.11 0.753154 -1.64916 0
M  V30 28744 C 2660.16 -2.66972 -2.42401 0
M  V30 28745 O 2659.26 -2.2483 -3.45724 0
M  V30 28746 H 2658.6 -0.540338 -0.385915 0
M  V30 28747 H 2661.13 -1.94835 -0.624538 0
M  V30 28748 H 2661.14 -2.88557 -2.88442 0
M  V30 28749 H 2659.82 -3.63945 -2.01288 0
M  V30 28750 H 2658.39 -2.13499 -3.05733 0
M  V30 28751 N 2660.58 0.769564 -1.37534 0
M  V30 28752 C 2661.83 1.53046 -1.33059 0
M  V30 28753 C 2662.16 1.94018 0.0841524 0
M  V30 28754 O 2661.43 1.64236 1.04195 0
M  V30 28755 C 2661.72 2.79402 -2.27171 0
M  V30 28756 C 2661.57 2.44671 -3.77434 0
M  V30 28757 C 2662.89 3.81346 -2.1969 0
M  V30 28758 H 2660.01 0.55522 -0.484665 0
M  V30 28759 H 2662.65 0.882673 -1.68252 0
M  V30 28760 H 2660.8 3.34678 -1.97288 0
M  V30 28761 H 2662.47 1.95293 -4.17922 0
M  V30 28762 H 2660.71 1.77339 -3.95896 0
M  V30 28763 H 2661.39 3.35004 -4.38721 0
M  V30 28764 H 2663.86 3.35569 -2.46034 0
M  V30 28765 H 2662.74 4.67476 -2.87676 0
M  V30 28766 H 2663 4.25769 -1.19052 0
M  V30 28767 N 2662.06 1.22139 0.995977 0
M  V30 28768 C 2663.01 0.988723 2.0855 0
M  V30 28769 C 2663.98 -0.0884729 1.65864 0
M  V30 28770 O 2665.16 0.0604924 1.90704 0
M  V30 28771 C 2662.3 0.569251 3.40373 0
M  V30 28772 C 2661.41 1.71688 3.96418 0
M  V30 28773 C 2660.55 1.24569 5.16387 0
M  V30 28774 C 2659.59 2.36507 5.64563 0
M  V30 28775 N 2658.72 1.90457 6.75774 0
M  V30 28776 H 2663.56 1.92139 2.27787 0
M  V30 28777 H 2661.1 0.957408 1.11679 0
M  V30 28778 H 2663.06 0.307239 4.16067 0
M  V30 28779 H 2661.69 -0.326406 3.21146 0
M  V30 28780 H 2660.74 2.0933 3.17624 0
M  V30 28781 H 2662.05 2.55899 4.28156 0
M  V30 28782 H 2661.21 0.940879 5.9936 0
M  V30 28783 H 2659.95 0.373747 4.86266 0
M  V30 28784 H 2658.95 2.67781 4.80181 0
M  V30 28785 H 2660.18 3.24212 5.9671 0
M  V30 28786 H 2658.12 1.0562 6.47441 0
M  V30 28787 H 2658.04 2.68236 7.06814 0
M  V30 28788 H 2659.31 1.63036 7.6226 0
M  V30 28789 N 2663.54 -1.19233 1.03059 0
M  V30 28790 C 2664.95 -1.40988 0.747971 0
M  V30 28791 C 2665.15 -1.9015 -0.666719 0
M  V30 28792 O 2664.21 -2.07935 -1.43245 0
M  V30 28793 C 2665.52 -2.41948 1.78554 0
M  V30 28794 C 2667.07 -2.55692 1.80528 0
M  V30 28795 C 2667.54 -3.59908 2.83249 0
M  V30 28796 N 2669.04 -3.67406 2.82077 0
M  V30 28797 C 2669.77 -4.47741 3.58211 0
M  V30 28798 N 2669.27 -5.31767 4.44067 0
M  V30 28799 N 2671.06 -4.42407 3.46746 0
M  V30 28800 H 2663.21 -0.856434 1.94368 0
M  V30 28801 H 2665.47 -0.438633 0.84042 0
M  V30 28802 H 2665.18 -2.12852 2.79976 0
M  V30 28803 H 2665.05 -3.41149 1.60926 0
M  V30 28804 H 2667.44 -2.8411 0.79783 0
M  V30 28805 H 2667.52 -1.56639 2.02232 0
M  V30 28806 H 2667.17 -3.32232 3.84167 0
M  V30 28807 H 2667.1 -4.58616 2.58803 0
M  V30 28808 H 2669.59 -3.07396 2.19809 0
M  V30 28809 H 2669.9 -5.9019 4.98895 0
M  V30 28810 H 2668.24 -5.31222 4.48138 0
M  V30 28811 H 2671.44 -3.75806 2.79084 0
M  V30 28812 H 2671.61 -5.04776 4.06331 0
M  V30 28813 N 2665.01 -0.808686 -1.3527 0
M  V30 28814 C 2666.24 -0.402572 -2.02946 0
M  V30 28815 C 2666.66 0.987119 -1.60939 0
M  V30 28816 O 2666.01 1.63641 -0.807946 0
M  V30 28817 C 2666.07 -0.478743 -3.58316 0
M  V30 28818 O 2665.79 -1.81365 -3.98796 0
M  V30 28819 C 2667.29 -0.065706 -4.43251 0
M  V30 28820 H 2664.51 -0.163291 -0.650828 0
M  V30 28821 H 2667.05 -1.09289 -1.72847 0
M  V30 28822 H 2665.21 0.163347 -3.87055 0
M  V30 28823 H 2665.62 -1.7779 -4.93448 0
M  V30 28824 H 2667.09 -0.170114 -5.51738 0
M  V30 28825 H 2667.57 0.989203 -4.27915 0
M  V30 28826 H 2668.18 -0.681034 -4.19812 0
M  V30 28827 N 2666.49 1.47225 -0.562374 0
M  V30 28828 C 2667.91 1.58041 -0.222519 0
M  V30 28829 C 2668.11 1.5603 1.27503 0
M  V30 28830 O 2667.16 1.46645 2.05552 0
M  V30 28831 C 2668.48 2.88326 -0.853745 0
M  V30 28832 C 2670.03 3.01919 -0.82545 0
M  V30 28833 C 2670.5 4.34911 -1.43584 0
M  V30 28834 N 2671.99 4.4156 -1.39926 0
M  V30 28835 C 2672.73 5.43038 -1.84112 0
M  V30 28836 N 2672.22 6.513 -2.36179 0
M  V30 28837 N 2674.02 5.34114 -1.75152 0
M  V30 28838 H 2666.17 1.46775 -1.53528 0
M  V30 28839 H 2668.43 0.698866 -0.640539 0
M  V30 28840 H 2668.14 2.95549 -1.9064 0
M  V30 28841 H 2668.01 3.75574 -0.349836 0
M  V30 28842 H 2670.4 2.9429 0.218531 0
M  V30 28843 H 2670.48 2.16199 -1.36717 0
M  V30 28844 H 2670.12 4.43297 -2.47892 0
M  V30 28845 H 2670.05 5.19372 -0.869518 0
M  V30 28846 H 2672.54 3.63917 -1.01846 0
M  V30 28847 H 2672.86 7.24914 -2.67805 0
M  V30 28848 H 2671.2 6.52175 -2.40193 0
M  V30 28849 H 2674.39 4.48436 -1.34248 0
M  V30 28850 H 2674.56 6.13061 -2.09906 0
M  V30 28851 N 2667.97 0.299089 1.54736 0
M  V30 28852 C 2669.2 -0.312956 2.04216 0
M  V30 28853 C 2669.61 -1.48213 1.17599 0
M  V30 28854 O 2668.95 -1.82674 0.193867 0
M  V30 28855 C 2669.01 -0.8338 3.49697 0
M  V30 28856 C 2668.68 0.20985 4.56518 0
M  V30 28857 C 2669.67 1.03765 5.0944 0
M  V30 28858 C 2667.36 0.350998 5.01072 0
M  V30 28859 C 2669.35 1.99255 6.05455 0
M  V30 28860 C 2667.04 1.30935 5.96908 0
M  V30 28861 C 2668.04 2.12861 6.48983 0
M  V30 28862 O 2667.73 3.07072 7.42942 0
M  V30 28863 H 2667.46 -0.0722376 0.672129 0
M  V30 28864 H 2670.01 0.436079 2.00717 0
M  V30 28865 H 2668.24 -1.63333 3.50513 0
M  V30 28866 H 2669.93 -1.36152 3.82384 0
M  V30 28867 H 2670.7 0.939459 4.75814 0
M  V30 28868 H 2666.58 -0.276732 4.60169 0
M  V30 28869 H 2670.12 2.63241 6.46026 0
M  V30 28870 H 2666.02 1.40826 6.29951 0
M  V30 28871 H 2666.79 3.02028 7.60737 0
M  V30 28872 N 2669.45 -1.57577 0.0267774 0
M  V30 28873 C 2670.68 -1.95718 -0.661666 0
M  V30 28874 C 2671.09 -0.901735 -1.66329 0
M  V30 28875 O 2670.43 0.125209 -1.83273 0
M  V30 28876 C 2670.49 -3.2999 -1.42643 0
M  V30 28877 C 2670.16 -4.53261 -0.583402 0
M  V30 28878 C 2671.15 -5.19711 0.140312 0
M  V30 28879 C 2668.84 -4.99586 -0.521493 0
M  V30 28880 C 2670.83 -6.30804 0.914634 0
M  V30 28881 C 2668.52 -6.10561 0.256535 0
M  V30 28882 C 2669.52 -6.76029 0.973308 0
M  V30 28883 O 2669.2 -7.84875 1.73859 0
M  V30 28884 H 2668.94 -0.649485 -0.187471 0
M  V30 28885 H 2671.49 -2.05236 0.0821208 0
M  V30 28886 H 2669.72 -3.16956 -2.21531 0
M  V30 28887 H 2671.41 -3.5305 -2.00276 0
M  V30 28888 H 2672.18 -4.84893 0.101802 0
M  V30 28889 H 2668.05 -4.48435 -1.06896 0
M  V30 28890 H 2671.6 -6.81836 1.47462 0
M  V30 28891 H 2667.5 -6.44817 0.296771 0
M  V30 28892 H 2668.26 -8.01529 1.65812 0
M  V30 28893 N 2670.93 0.246342 -1.55663 0
M  V30 28894 C 2671.84 1.32649 -1.93498 0
M  V30 28895 C 2672.85 1.52629 -0.835489 0
M  V30 28896 O 2674.03 1.6624 -1.13693 0
M  V30 28897 C 2671.09 2.66097 -2.22246 0
M  V30 28898 C 2670.15 2.54635 -3.45629 0
M  V30 28899 C 2669.39 3.81718 -3.72998 0
M  V30 28900 O 2669.61 4.83624 -3.0243 0
M  V30 28901 O 2668.54 3.80317 -4.66522 0
M  V30 28902 H 2672.37 1.03554 -2.855 0
M  V30 28903 H 2669.96 0.447144 -1.42552 0
M  V30 28904 H 2671.84 3.44954 -2.42043 0
M  V30 28905 H 2670.51 2.94924 -1.33422 0
M  V30 28906 H 2669.42 1.74062 -3.31139 0
M  V30 28907 H 2670.75 2.30752 -4.34758 0
M  V30 28908 N 2672.4 1.4905 0.512027 0
M  V30 28909 C 2673.63 1.61671 1.29113 0
M  V30 28910 C 2674.05 0.28382 1.86654 0
M  V30 28911 O 2673.4 -0.729302 1.67294 0
M  V30 28912 C 2673.46 2.67712 2.42925 0
M  V30 28913 O 2673.18 3.9583 1.87751 0
M  V30 28914 C 2674.68 2.90937 3.34471 0
M  V30 28915 H 2671.9 0.544589 0.391999 0
M  V30 28916 H 2674.44 1.95007 0.615847 0
M  V30 28917 H 2672.6 2.37185 3.06304 0
M  V30 28918 H 2673.01 4.54152 2.62385 0
M  V30 28919 H 2674.48 3.68893 4.10636 0
M  V30 28920 H 2674.96 2.00433 3.90798 0
M  V30 28921 H 2675.57 3.22837 2.76869 0
M  V30 28922 N 2673.88 -0.762259 1.3794 0
M  V30 28923 C 2675.11 -1.5492 1.36688 0
M  V30 28924 C 2675.52 -1.89141 -0.0473767 0
M  V30 28925 O 2674.86 -1.52639 -1.0221 0
M  V30 28926 C 2674.93 -2.88148 2.14968 0
M  V30 28927 C 2674.59 -2.76512 3.63855 0
M  V30 28928 C 2675.59 -2.46896 4.57535 0
M  V30 28929 C 2673.27 -2.94236 4.071 0
M  V30 28930 C 2675.27 -2.35145 5.9244 0
M  V30 28931 C 2672.95 -2.82106 5.42088 0
M  V30 28932 C 2673.95 -2.52602 6.34572 0
M  V30 28933 O 2673.64 -2.40516 7.67077 0
M  V30 28934 H 2673.37 -0.486268 0.469595 0
M  V30 28935 H 2675.92 -0.951844 1.82014 0
M  V30 28936 H 2674.15 -3.50039 1.64346 0
M  V30 28937 H 2675.84 -3.49605 2.06231 0
M  V30 28938 H 2676.61 -2.32879 4.25432 0
M  V30 28939 H 2672.49 -3.162 3.35468 0
M  V30 28940 H 2676.03 -2.12038 6.64594 0
M  V30 28941 H 2671.93 -2.95694 5.7379 0
M  V30 28942 H 2672.7 -2.55794 7.77504 0
M  V30 28943 N 2675.36 -1.22666 -0.989486 0
M  V30 28944 C 2676.61 -1.0474 -1.72373 0
M  V30 28945 C 2676.92 0.417282 -1.91097 0
M  V30 28946 O 2678.13 0.716288 -2.61881 0
M  V30 28947 C 2676.58 -1.82566 -3.10157 0
M  V30 28948 C 2676.19 -3.33305 -2.99352 0
M  V30 28949 C 2677.94 -1.73099 -3.87604 0
M  V30 28950 C 2675.84 -4.03559 -4.32312 0
M  V30 28951 H 2674.77 -0.388314 -0.646319 0
M  V30 28952 H 2677.42 -1.46548 -1.10435 0
M  V30 28953 H 2675.81 -1.33558 -3.72798 0
M  V30 28954 H 2676.98 -3.89732 -2.45856 0
M  V30 28955 H 2675.3 -3.43486 -2.35386 0
M  V30 28956 H 2677.89 -2.22907 -4.86021 0
M  V30 28957 H 2678.24 -0.692048 -4.10507 0
M  V30 28958 H 2678.77 -2.19669 -3.31648 0
M  V30 28959 H 2675.51 -5.07722 -4.14607 0
M  V30 28960 H 2675.03 -3.5192 -4.85708 0
M  V30 28961 H 2676.71 -4.09346 -5.01044 0
M  V30 28962 N 2676.84 1.18685 -1.0369 0
M  V30 28963 C 2678.26 1.40589 -0.755438 0
M  V30 28964 C 2678.46 1.90501 0.656626 0
M  V30 28965 O 2677.51 2.08692 1.42141 0
M  V30 28966 C 2678.82 2.40998 -1.79835 0
M  V30 28967 C 2680.37 2.54731 -1.81882 0
M  V30 28968 C 2680.85 3.58401 -2.85154 0
M  V30 28969 N 2682.34 3.65905 -2.84021 0
M  V30 28970 C 2683.07 4.45835 -3.60581 0
M  V30 28971 N 2682.57 5.29405 -4.4688 0
M  V30 28972 N 2684.36 4.40562 -3.49087 0
M  V30 28973 H 2676.51 0.846114 -1.9482 0
M  V30 28974 H 2678.78 0.434169 -0.842734 0
M  V30 28975 H 2678.48 2.11365 -2.81101 0
M  V30 28976 H 2678.36 3.40291 -1.62733 0
M  V30 28977 H 2680.74 2.83683 -0.812886 0
M  V30 28978 H 2680.82 1.55565 -2.0306 0
M  V30 28979 H 2680.47 3.3019 -3.85924 0
M  V30 28980 H 2680.4 4.57237 -2.61232 0
M  V30 28981 H 2682.89 3.06226 -2.21436 0
M  V30 28982 H 2683.2 5.87536 -5.02018 0
M  V30 28983 H 2681.55 5.28838 -4.50949 0
M  V30 28984 H 2684.74 3.7432 -2.81073 0
M  V30 28985 H 2684.91 5.02614 -4.09003 0
M  V30 28986 N 2678.32 0.815849 1.34839 0
M  V30 28987 C 2679.54 0.412296 2.03261 0
M  V30 28988 C 2679.97 -0.971723 1.61056 0
M  V30 28989 O 2679.33 -1.63099 0.791729 0
M  V30 28990 C 2679.37 0.514351 3.56913 0
M  V30 28991 O 2678.48 -0.468603 4.09729 0
M  V30 28992 H 2677.82 0.170782 0.641661 0
M  V30 28993 H 2680.35 1.1043 1.72239 0
M  V30 28994 H 2680.36 0.387528 4.06155 0
M  V30 28995 H 2679.03 1.52381 3.86979 0
M  V30 28996 H 2677.61 -0.301251 3.71681 0
M  V30 28997 N 2679.8 -1.46924 0.570174 0
M  V30 28998 C 2681.07 -1.95594 -0.0152915 0
M  V30 28999 C 2681.45 -1.51284 -1.47229 0
M  V30 29000 O 2680.8 -0.757662 -2.15573 0
M  V30 29001 C 2681.01 -3.48704 0.143685 0
M  V30 29002 C 2682.36 -4.246 0.00501947 0
M  V30 29003 O 2683.38 -3.56127 0.071884 0
M  V30 29004 O 2682.24 -5.46318 -0.141079 0
M  V30 29005 H 2679.34 -0.825042 -0.0568674 0
M  V30 29006 H 2681.88 -1.57266 0.63761 0
M  V30 29007 H 2680.65 -3.73802 1.15705 0
M  V30 29008 H 2680.28 -3.9383 -0.546231 0
M  V30 29009 N 2681.27 -0.307291 -1.54575 0
M  V30 29010 C 2682.5 0.305343 -2.0514 0
M  V30 29011 C 2682.92 1.46257 -1.18281 0
M  V30 29012 O 2682.28 1.8032 -0.188275 0
M  V30 29013 C 2682.33 0.733221 -3.53067 0
M  V30 29014 O 2681.43 1.83735 -3.69209 0
M  V30 29015 H 2680.77 0.0581989 -0.661445 0
M  V30 29016 H 2683.3 -0.450966 -1.99568 0
M  V30 29017 H 2683.31 1.02032 -3.95036 0
M  V30 29018 H 2681.99 -0.113271 -4.15746 0
M  V30 29019 H 2680.57 1.55031 -3.39146 0
M  V30 29020 N 2682.75 1.57561 -0.0351337 0
M  V30 29021 C 2684 1.91668 0.640926 0
M  V30 29022 C 2684.32 0.912712 1.72321 0
M  V30 29023 O 2683.59 -0.0448745 1.95849 0
M  V30 29024 H 2682.17 0.707487 0.23973 0
M  V30 29025 H 2684.83 1.94717 -0.0843552 0
M  V30 29026 H 2683.93 2.92454 1.08982 0
M  V30 29027 N 2684.23 -0.238084 1.55791 0
M  V30 29028 C 2685.51 -0.988231 1.688 0
M  V30 29029 C 2685.89 -2.03044 0.577597 0
M  V30 29030 O 2685.23 -2.24649 -0.41774 0
M  V30 29031 C 2685.44 -1.61362 3.09457 0
M  V30 29032 C 2686.79 -2.11214 3.68339 0
M  V30 29033 O 2687.82 -1.71287 3.12313 0
M  V30 29034 O 2686.68 -2.84552 4.66575 0
M  V30 29035 H 2683.77 -0.460556 0.686889 0
M  V30 29036 H 2686.32 -0.231172 1.68118 0
M  V30 29037 H 2685.09 -0.860228 3.81727 0
M  V30 29038 H 2684.71 -2.43665 3.14186 0
M  V30 29039 N 2685.71 -1.4932 -0.504115 0
M  V30 29040 C 2686.62 -1.68488 -1.63245 0
M  V30 29041 C 2687.63 -0.567461 -1.64487 0
M  V30 29042 O 2688.81 -0.841781 -1.82965 0
M  V30 29043 C 2685.87 -1.74431 -2.99624 0
M  V30 29044 C 2684.94 -2.97988 -3.09033 0
M  V30 29045 C 2684.17 -3.03638 -4.38907 0
M  V30 29046 O 2684.39 -2.16967 -5.27524 0
M  V30 29047 O 2683.33 -3.9607 -4.53224 0
M  V30 29048 H 2687.15 -2.64069 -1.50004 0
M  V30 29049 H 2684.74 -1.33024 -0.680063 0
M  V30 29050 H 2686.62 -1.80711 -3.80685 0
M  V30 29051 H 2685.29 -0.820288 -3.13134 0
M  V30 29052 H 2684.2 -2.97227 -2.27172 0
M  V30 29053 H 2685.53 -3.8986 -3.00449 0
M  V30 29054 N 2687.19 0.754933 -1.38342 0
M  V30 29055 C 2688.12 1.87829 -1.3135 0
M  V30 29056 C 2689.13 1.61224 -0.225983 0
M  V30 29057 O 2690.32 1.71829 -0.48344 0
M  V30 29058 C 2687.42 3.23435 -1.01207 0
M  V30 29059 C 2686.59 3.77555 -2.20841 0
M  V30 29060 C 2685.65 4.91675 -1.87463 0
M  V30 29061 O 2684.68 5.06378 -2.59942 0
M  V30 29062 N 2685.88 5.74553 -0.828783 0
M  V30 29063 H 2688.64 1.94338 -2.28151 0
M  V30 29064 H 2686.21 0.934805 -1.32186 0
M  V30 29065 H 2688.2 3.9732 -0.769319 0
M  V30 29066 H 2686.77 3.12321 -0.132066 0
M  V30 29067 H 2685.99 2.95252 -2.6119 0
M  V30 29068 H 2687.28 4.10446 -3.00685 0
M  V30 29069 H 2686.67 5.65242 -0.22769 0
M  V30 29070 H 2685.23 6.48592 -0.645916 0
M  V30 29071 N 2688.66 1.23189 0.982967 0
M  V30 29072 C 2689.59 1.03519 2.09299 0
M  V30 29073 C 2690.57 -0.0470837 1.70035 0
M  V30 29074 O 2691.76 0.117064 1.93847 0
M  V30 29075 C 2688.89 0.622851 3.41669 0
M  V30 29076 C 2687.84 1.65218 3.94825 0
M  V30 29077 C 2687.17 1.09536 5.2336 0
M  V30 29078 C 2688.47 3.04459 4.24385 0
M  V30 29079 H 2690.16 1.96363 2.26013 0
M  V30 29080 H 2687.71 0.94552 1.08609 0
M  V30 29081 H 2689.66 0.472307 4.18745 0
M  V30 29082 H 2688.39 -0.341272 3.24812 0
M  V30 29083 H 2687.05 1.79067 3.19891 0
M  V30 29084 H 2686.69 0.1223 5.02851 0
M  V30 29085 H 2686.39 1.7831 5.59892 0
M  V30 29086 H 2687.92 0.956617 6.0306 0
M  V30 29087 H 2689.33 2.93926 4.9222 0
M  V30 29088 H 2687.73 3.70447 4.72112 0
M  V30 29089 H 2688.8 3.53644 3.31759 0
M  V30 29090 N 2690.14 -1.18133 1.04318 0
M  V30 29091 C 2691.55 -1.6983 0.775535 0
M  V30 29092 C 2691.9 -1.83161 -0.703316 0
M  V30 29093 O 2691.03 -1.5129 -1.54726 0
M  V30 29094 C 2691.62 -3.08468 1.40118 0
M  V30 29095 C 2690.18 -3.57366 1.18179 0
M  V30 29096 C 2689.33 -2.33851 1.49026 0
M  V30 29097 H 2692.28 -1.02773 1.20927 0
M  V30 29098 H 2692.3 -3.71871 0.805737 0
M  V30 29099 H 2691.81 -2.98734 2.4775 0
M  V30 29100 H 2689.91 -3.72393 0.124324 0
M  V30 29101 H 2690.03 -4.40649 1.88058 0
M  V30 29102 H 2688.39 -2.37887 0.910037 0
M  V30 29103 H 2689.17 -2.26734 2.57772 0
M  V30 29104 N 2691.62 -0.822988 -1.34405 0
M  V30 29105 C 2692.85 -0.424075 -2.02507 0
M  V30 29106 C 2693.26 0.969994 -1.61977 0
M  V30 29107 O 2692.62 1.62775 -0.825257 0
M  V30 29108 C 2692.67 -0.51672 -3.57788 0
M  V30 29109 O 2692.39 -1.85584 -3.9685 0
M  V30 29110 C 2693.89 -0.112715 -4.43157 0
M  V30 29111 H 2691.11 -0.170184 -0.64906 0
M  V30 29112 H 2693.66 -1.11116 -1.71678 0
M  V30 29113 H 2691.81 0.122285 -3.87207 0
M  V30 29114 H 2692.23 -1.83014 -4.91535 0
M  V30 29115 H 2693.7 -0.228623 -5.51526 0
M  V30 29116 H 2694.18 0.943761 -4.2894 0
M  V30 29117 H 2694.78 -0.725522 -4.19066 0
M  V30 29118 N 2693.1 1.4662 -0.577957 0
M  V30 29119 C 2694.35 2.01612 -0.0594635 0
M  V30 29120 C 2694.66 1.45558 1.3066 0
M  V30 29121 O 2695.87 1.92341 1.91618 0
M  V30 29122 C 2694.32 3.59857 -0.0557298 0
M  V30 29123 C 2693.93 4.24906 -1.41982 0
M  V30 29124 C 2695.67 4.22524 0.409069 0
M  V30 29125 C 2693.58 5.75216 -1.37407 0
M  V30 29126 H 2692.51 0.753774 -0.0184602 0
M  V30 29127 H 2695.16 1.68402 -0.728898 0
M  V30 29128 H 2693.54 3.90122 0.679774 0
M  V30 29129 H 2694.72 4.06256 -2.17468 0
M  V30 29130 H 2693.03 3.74313 -1.82425 0
M  V30 29131 H 2695.63 5.327 0.462017 0
M  V30 29132 H 2695.97 3.9113 1.42559 0
M  V30 29133 H 2696.51 3.96867 -0.272222 0
M  V30 29134 H 2693.25 6.11262 -2.36724 0
M  V30 29135 H 2692.77 5.96143 -0.661344 0
M  V30 29136 H 2694.44 6.37838 -1.08495 0
M  V30 29137 N 2694.58 0.315484 1.5441 0
M  V30 29138 C 2695.82 -0.290201 2.02329 0
M  V30 29139 C 2696.18 -1.49975 1.19881 0
M  V30 29140 O 2697.38 -2.17776 1.57566 0
M  V30 29141 C 2695.65 -0.623875 3.51913 0
M  V30 29142 S 2697.21 -1.21036 4.21777 0
M  V30 29143 H 2694.03 -0.0882615 0.7055 0
M  V30 29144 H 2696.63 0.446727 1.90328 0
M  V30 29145 H 2695.34 0.264696 4.09546 0
M  V30 29146 H 2694.87 -1.39121 3.67979 0
M  V30 29147 H 2696.88 -2.49757 4.28761 0
M  V30 29148 N 2696.05 -1.5754 0.0434891 0
M  V30 29149 C 2697.47 -1.565 -0.313011 0
M  V30 29150 C 2697.67 -1.05046 -1.71953 0
M  V30 29151 O 2696.73 -0.703606 -2.42499 0
M  V30 29152 C 2698.04 -3.00333 -0.148491 0
M  V30 29153 C 2699.59 -3.12225 -0.220176 0
M  V30 29154 C 2700.06 -4.57922 -0.084276 0
M  V30 29155 N 2701.55 -4.62986 -0.1408 0
M  V30 29156 C 2702.29 -5.73369 -0.0596435 0
M  V30 29157 N 2701.78 -6.92761 0.0734222 0
M  V30 29158 N 2703.58 -5.61983 -0.114671 0
M  V30 29159 H 2695.73 -1.89312 0.963063 0
M  V30 29160 H 2697.99 -0.871459 0.37318 0
M  V30 29161 H 2697.7 -3.41984 0.820954 0
M  V30 29162 H 2697.57 -3.6599 -0.912734 0
M  V30 29163 H 2699.96 -2.70477 -1.18009 0
M  V30 29164 H 2700.04 -2.49261 0.57469 0
M  V30 29165 H 2699.68 -5.00354 0.87228 0
M  V30 29166 H 2699.61 -5.18884 -0.898189 0
M  V30 29167 H 2702.1 -3.77117 -0.243207 0
M  V30 29168 H 2702.42 -7.72694 0.128264 0
M  V30 29169 H 2700.76 -6.94915 0.108402 0
M  V30 29170 H 2703.95 -4.67596 -0.217129 0
M  V30 29171 H 2704.13 -6.47982 -0.047964 0
M  V30 29172 N 2697.53 0.229818 -1.55915 0
M  V30 29173 C 2698.44 1.3059 -1.94894 0
M  V30 29174 C 2699.46 1.51734 -0.851631 0
M  V30 29175 O 2700.63 1.65025 -1.1545 0
M  V30 29176 C 2697.7 2.63725 -2.25056 0
M  V30 29177 C 2696.76 2.50954 -3.48311 0
M  V30 29178 C 2695.99 3.7774 -3.77025 0
M  V30 29179 O 2696.22 4.80389 -3.07542 0
M  V30 29180 O 2695.15 3.75348 -4.70529 0
M  V30 29181 H 2698.98 1.0052 -2.86582 0
M  V30 29182 H 2696.56 0.432 -1.43018 0
M  V30 29183 H 2698.44 3.42367 -2.45688 0
M  V30 29184 H 2697.12 2.93492 -1.36543 0
M  V30 29185 H 2696.03 1.7054 -3.32967 0
M  V30 29186 H 2697.36 2.26128 -4.37181 0
M  V30 29187 N 2699.01 1.49585 0.49619 0
M  V30 29188 C 2700.29 1.49818 1.25753 0
M  V30 29189 C 2700.67 0.228609 2.09858 0
M  V30 29190 O 2700.02 -0.78887 2.14451 0
M  V30 29191 C 2700.23 2.77983 2.11013 0
M  V30 29192 C 2701.57 3.27663 2.70041 0
M  V30 29193 O 2702.6 2.79133 2.21276 0
M  V30 29194 O 2701.46 4.12196 3.58827 0
M  V30 29195 H 2698.55 0.599844 0.569312 0
M  V30 29196 H 2701.1 1.61853 0.510066 0
M  V30 29197 H 2699.87 3.61874 1.48872 0
M  V30 29198 H 2699.49 2.68832 2.92942 0
M  V30 29199 N 2700.49 -0.747586 1.3874 0
M  V30 29200 C 2701.9 -1.32522 1.3151 0
M  V30 29201 C 2702.25 -1.96182 -0.0263618 0
M  V30 29202 O 2701.38 -1.9547 -0.928456 0
M  V30 29203 C 2701.97 -2.40962 2.38166 0
M  V30 29204 C 2700.53 -2.9443 2.34495 0
M  V30 29205 C 2699.68 -1.6787 2.20715 0
M  V30 29206 H 2702.63 -0.546016 1.49011 0
M  V30 29207 H 2702.65 -3.21047 2.04228 0
M  V30 29208 H 2702.16 -1.94599 3.35787 0
M  V30 29209 H 2700.26 -3.45106 1.40473 0
M  V30 29210 H 2700.37 -3.48401 3.28867 0
M  V30 29211 H 2698.74 -1.91726 1.6767 0
M  V30 29212 H 2699.52 -1.23577 3.20287 0
M  V30 29213 N 2701.97 -1.23709 -0.97642 0
M  V30 29214 C 2702.88 -1.0386 -2.10357 0
M  V30 29215 C 2703.89 0.0180614 -1.73991 0
M  V30 29216 O 2705.07 -0.178247 -2.0061 0
M  V30 29217 C 2702.13 -0.636447 -3.40808 0
M  V30 29218 C 2701.19 -1.76861 -3.91176 0
M  V30 29219 C 2700.43 -1.38555 -5.15401 0
M  V30 29220 O 2700.65 -0.27152 -5.69753 0
M  V30 29221 O 2699.58 -2.20806 -5.59936 0
M  V30 29222 H 2703.41 -1.98335 -2.29994 0
M  V30 29223 H 2701 -1.0245 -1.0874 0
M  V30 29224 H 2702.88 -0.423296 -4.19269 0
M  V30 29225 H 2701.55 0.279265 -3.22493 0
M  V30 29226 H 2700.46 -2.03643 -3.13816 0
M  V30 29227 H 2701.79 -2.66278 -4.13953 0
M  V30 29228 N 2703.44 1.17579 -1.04943 0
M  V30 29229 C 2704.69 1.87111 -0.753156 0
M  V30 29230 C 2705.01 1.81768 0.722475 0
M  V30 29231 O 2706.21 2.46748 1.1326 0
M  V30 29232 C 2704.67 3.35717 -1.29701 0
M  V30 29233 C 2704.28 3.49567 -2.8019 0
M  V30 29234 C 2706.02 4.10593 -1.07767 0
M  V30 29235 C 2703.93 4.92182 -3.27889 0
M  V30 29236 H 2702.86 0.700861 -0.278046 0
M  V30 29237 H 2705.51 1.32795 -1.2664 0
M  V30 29238 H 2703.89 3.89554 -0.711591 0
M  V30 29239 H 2705.06 3.05959 -3.44566 0
M  V30 29240 H 2703.38 2.88108 -3.00637 0
M  V30 29241 H 2705.98 5.158 -1.40908 0
M  V30 29242 H 2706.32 4.16297 -0.0153033 0
M  V30 29243 H 2706.85 3.62954 -1.62816 0
M  V30 29244 H 2703.59 4.9165 -4.33544 0
M  V30 29245 H 2703.11 5.3647 -2.68254 0
M  V30 29246 H 2704.79 5.60939 -3.22422 0
M  V30 29247 N 2704.92 0.830104 1.33967 0
M  V30 29248 C 2705.87 0.229282 2.26844 0
M  V30 29249 C 2706.86 -0.610633 1.48863 0
M  V30 29250 O 2708.05 -0.464037 1.70809 0
M  V30 29251 C 2705.18 -0.601998 3.37981 0
M  V30 29252 C 2704.26 0.248941 4.23369 0
M  V30 29253 N 2704.65 1.32343 4.88179 0
M  V30 29254 C 2702.95 0.034486 4.45987 0
M  V30 29255 C 2703.65 1.84491 5.51668 0
M  V30 29256 N 2702.63 1.14771 5.31346 0
M  V30 29257 H 2706.43 1.05108 2.74462 0
M  V30 29258 H 2703.95 0.673649 1.47769 0
M  V30 29259 H 2705.94 -1.04866 4.03496 0
M  V30 29260 H 2704.6 -1.42188 2.91912 0
M  V30 29261 H 2705.61 1.70628 4.88985 0
M  V30 29262 H 2702.29 -0.752655 4.1066 0
M  V30 29263 H 2703.68 2.74423 6.13304 0
M  V30 29264 N 2706.4 -1.46311 0.585725 0
M  V30 29265 C 2707.65 -2.01971 0.0723135 0
M  V30 29266 C 2707.97 -1.4593 -1.29342 0
M  V30 29267 O 2707.24 -0.645141 -1.84972 0
M  V30 29268 H 2705.82 -0.746623 0.0237422 0
M  V30 29269 H 2708.48 -1.79379 0.762186 0
M  V30 29270 H 2707.58 -3.121 0.00558253 0
M  V30 29271 N 2707.88 -0.323668 -1.54241 0
M  V30 29272 C 2709.11 0.280428 -2.04688 0
M  V30 29273 C 2709.52 1.46323 -1.19942 0
M  V30 29274 O 2708.86 1.82343 -0.222905 0
M  V30 29275 C 2708.92 0.778061 -3.50979 0
M  V30 29276 C 2708.59 -0.282452 -4.56126 0
M  V30 29277 C 2709.58 -1.11856 -5.07725 0
M  V30 29278 C 2707.27 -0.43067 -5.0045 0
M  V30 29279 C 2709.26 -2.08862 -6.02209 0
M  V30 29280 C 2706.95 -1.40415 -5.94749 0
M  V30 29281 C 2707.95 -2.23159 -6.45515 0
M  V30 29282 O 2707.64 -3.18852 -7.37962 0
M  V30 29283 H 2707.37 0.0615355 -0.673193 0
M  V30 29284 H 2709.92 -0.467956 -1.99998 0
M  V30 29285 H 2708.15 1.57736 -3.53067 0
M  V30 29286 H 2709.84 1.30052 -3.84501 0
M  V30 29287 H 2710.61 -1.01504 -4.74259 0
M  V30 29288 H 2706.49 0.203488 -4.60551 0
M  V30 29289 H 2710.03 -2.73485 -6.41757 0
M  V30 29290 H 2705.93 -1.50831 -6.27631 0
M  V30 29291 H 2706.69 -3.14093 -7.55836 0
M  V30 29292 N 2709.36 1.57515 -0.0518432 0
M  V30 29293 C 2710.6 1.92717 0.62179 0
M  V30 29294 C 2710.93 0.930259 1.70811 0
M  V30 29295 O 2710.19 -0.0573364 1.95616 0
M  V30 29296 C 2710.49 3.34603 1.25601 0
M  V30 29297 C 2710.15 4.49915 0.297822 0
M  V30 29298 C 2708.81 4.81188 0.0341584 0
M  V30 29299 C 2711.17 5.19963 -0.35883 0
M  V30 29300 C 2708.49 5.79855 -0.893581 0
M  V30 29301 C 2710.85 6.19623 -1.27476 0
M  V30 29302 C 2709.51 6.49324 -1.54709 0
M  V30 29303 H 2708.78 0.705203 0.227529 0
M  V30 29304 H 2711.43 1.91133 -0.118465 0
M  V30 29305 H 2709.73 3.32557 2.07155 0
M  V30 29306 H 2711.43 3.59121 1.78418 0
M  V30 29307 H 2708.02 4.25513 0.513506 0
M  V30 29308 H 2712.2 4.96015 -0.16822 0
M  V30 29309 H 2707.46 6.01202 -1.11203 0
M  V30 29310 H 2711.63 6.73012 -1.78965 0
M  V30 29311 H 2709.26 7.25592 -2.26761 0
M  V30 29312 N 2710.84 -0.221546 1.56035 0
M  V30 29313 C 2712.25 -0.571245 1.49027 0
M  V30 29314 C 2712.45 -1.87144 0.746944 0
M  V30 29315 O 2711.51 -2.50868 0.28661 0
M  V30 29316 C 2712.82 -0.65047 2.9358 0
M  V30 29317 C 2714.37 -0.741097 3.041 0
M  V30 29318 C 2714.84 -0.851668 4.50012 0
M  V30 29319 N 2716.33 -0.915888 4.54055 0
M  V30 29320 C 2717.07 -1.02115 5.64234 0
M  V30 29321 N 2716.57 -1.09036 6.84166 0
M  V30 29322 N 2718.36 -1.05629 5.52086 0
M  V30 29323 H 2710.51 0.631656 2.0279 0
M  V30 29324 H 2712.77 0.221618 0.921732 0
M  V30 29325 H 2712.48 0.235314 3.50912 0
M  V30 29326 H 2712.35 -1.51407 3.45479 0
M  V30 29327 H 2714.74 -1.61732 2.46833 0
M  V30 29328 H 2714.82 0.148173 2.5537 0
M  V30 29329 H 2714.46 0.020101 5.07896 0
M  V30 29330 H 2714.39 -1.75635 4.96447 0
M  V30 29331 H 2716.89 -0.872717 3.67685 0
M  V30 29332 H 2717.2 -1.17046 7.63885 0
M  V30 29333 H 2715.54 -1.0595 6.86877 0
M  V30 29334 H 2718.73 -0.998873 4.57318 0
M  V30 29335 H 2718.91 -1.13487 6.37985 0
M  V30 29336 N 2712.31 -1.49846 -0.48825 0
M  V30 29337 C 2713.59 -1.50483 -1.24957 0
M  V30 29338 C 2713.97 -0.239735 -2.09734 0
M  V30 29339 O 2713.32 0.777486 -2.14866 0
M  V30 29340 C 2713.53 -2.79098 -2.09535 0
M  V30 29341 C 2714.88 -3.29091 -2.68299 0
M  V30 29342 O 2715.9 -2.80303 -2.19793 0
M  V30 29343 O 2714.76 -4.14093 -3.56636 0
M  V30 29344 H 2711.85 -0.602855 -0.566123 0
M  V30 29345 H 2714.4 -1.62121 -0.501475 0
M  V30 29346 H 2713.17 -3.62658 -1.46951 0
M  V30 29347 H 2712.79 -2.70382 -2.91512 0
M  V30 29348 N 2713.79 0.740218 -1.39135 0
M  V30 29349 C 2715.2 1.31823 -1.32211 0
M  V30 29350 C 2715.55 1.96194 0.0159574 0
M  V30 29351 O 2714.68 1.9596 0.918077 0
M  V30 29352 C 2715.27 2.39695 -2.3944 0
M  V30 29353 C 2713.83 2.93183 -2.36053 0
M  V30 29354 C 2712.98 1.66697 -2.21602 0
M  V30 29355 H 2715.93 0.538106 -1.49299 0
M  V30 29356 H 2715.95 3.19959 -2.05928 0
M  V30 29357 H 2715.46 1.92815 -3.36814 0
M  V30 29358 H 2713.56 3.44356 -1.42301 0
M  V30 29359 H 2713.68 3.46652 -3.3071 0
M  V30 29360 H 2712.04 1.90834 -1.68684 0
M  V30 29361 H 2712.82 1.21877 -3.20938 0
M  V30 29362 N 2715.27 1.24225 0.969846 0
M  V30 29363 C 2716.22 0.999768 2.04911 0
M  V30 29364 C 2717.2 -0.0580353 1.60795 0
M  V30 29365 O 2718.4 0.155423 1.76316 0
M  V30 29366 C 2715.52 0.604213 3.37941 0
M  V30 29367 C 2714.61 1.69798 3.88625 0
M  V30 29368 N 2715 2.93032 4.12269 0
M  V30 29369 C 2713.3 1.575 4.17265 0
M  V30 29370 C 2714 3.63922 4.53802 0
M  V30 29371 N 2712.98 2.91476 4.5885 0
M  V30 29372 H 2716.78 1.93555 2.21164 0
M  V30 29373 H 2714.29 1.14319 1.15347 0
M  V30 29374 H 2716.29 0.411738 4.14862 0
M  V30 29375 H 2714.95 -0.324408 3.23075 0
M  V30 29376 H 2715.96 3.29232 3.99783 0
M  V30 29377 H 2712.64 0.714248 4.11345 0
M  V30 29378 H 2714.03 4.69622 4.80526 0
M  V30 29379 N 2716.75 -1.1702 1.05565 0
M  V30 29380 C 2717.99 -1.89053 0.777066 0
M  V30 29381 C 2718.35 -1.79419 -0.683586 0
M  V30 29382 O 2719.55 -2.46305 -1.07644 0
M  V30 29383 C 2717.82 -3.34868 1.24892 0
M  V30 29384 S 2719.38 -4.24833 1.09827 0
M  V30 29385 H 2716.2 -0.652644 0.282093 0
M  V30 29386 H 2718.8 -1.41304 1.35106 0
M  V30 29387 H 2717.51 -3.39416 2.30705 0
M  V30 29388 H 2717.04 -3.87664 0.66936 0
M  V30 29389 H 2719.05 -4.96194 0.0247073 0
M  V30 29390 N 2718.23 -0.837197 -1.33524 0
M  V30 29391 C 2719.16 -0.284246 -2.31763 0
M  V30 29392 C 2720.14 0.607114 -1.58897 0
M  V30 29393 O 2721.32 0.531015 -1.86799 0
M  V30 29394 C 2718.45 0.542901 -3.4303 0
M  V30 29395 C 2717.41 -0.252526 -4.27254 0
M  V30 29396 C 2716.73 0.698266 -5.30121 0
M  V30 29397 C 2718.03 -1.46866 -5.01226 0
M  V30 29398 H 2719.73 -1.10507 -2.7826 0
M  V30 29399 H 2717.27 -0.532836 -1.33779 0
M  V30 29400 H 2719.22 0.940024 -4.10782 0
M  V30 29401 H 2717.95 1.39692 -2.95218 0
M  V30 29402 H 2716.61 -0.631188 -3.61125 0
M  V30 29403 H 2716.26 1.54864 -4.78567 0
M  V30 29404 H 2715.96 0.170171 -5.87354 0
M  V30 29405 H 2717.48 1.09294 -6.00739 0
M  V30 29406 H 2718.89 -1.14479 -5.61754 0
M  V30 29407 H 2717.29 -1.93343 -5.68101 0
M  V30 29408 H 2718.36 -2.23932 -4.30096 0
M  V30 29409 N 2719.7 1.45999 -0.593476 0
M  V30 29410 C 2720.95 2.01929 -0.0830235 0
M  V30 29411 C 2721.27 1.46614 1.28567 0
M  V30 29412 O 2720.54 0.654942 1.84628 0
M  V30 29413 H 2719.12 0.746486 -0.0277013 0
M  V30 29414 H 2721.78 1.78972 -0.771688 0
M  V30 29415 H 2720.88 3.12092 -0.0221338 0
M  V30 29416 N 2721.18 0.331843 1.54067 0
M  V30 29417 C 2722.09 -0.539064 2.28323 0
M  V30 29418 C 2723.11 -1.12207 1.32987 0
M  V30 29419 O 2724.28 -1.14027 1.66012 0
M  V30 29420 C 2721.35 -1.67994 3.0328 0
M  V30 29421 C 2720.41 -1.1279 4.14218 0
M  V30 29422 C 2719.64 -2.21441 4.85592 0
M  V30 29423 O 2719.87 -3.41944 4.56542 0
M  V30 29424 O 2718.8 -1.86394 5.72312 0
M  V30 29425 H 2722.63 0.0642226 3.03632 0
M  V30 29426 H 2720.21 0.0972627 1.49083 0
M  V30 29427 H 2722.09 -2.34399 3.50193 0
M  V30 29428 H 2720.77 -2.26926 2.30838 0
M  V30 29429 H 2719.68 -0.428716 3.71635 0
M  V30 29430 H 2721.01 -0.583612 4.88728 0
M  V30 29431 N 2722.66 -1.57485 0.0601958 0
M  V30 29432 C 2723.59 -2.09018 -0.940433 0
M  V30 29433 C 2724.61 -1.01987 -1.26895 0
M  V30 29434 O 2725.79 -1.29531 -1.22817 0
M  V30 29435 C 2722.89 -2.52586 -2.2595 0
M  V30 29436 C 2722.07 -3.83056 -2.11156 0
M  V30 29437 C 2721.13 -4.1284 -3.26266 0
M  V30 29438 O 2720.15 -4.82621 -3.0177 0
M  V30 29439 N 2721.35 -3.65466 -4.51015 0
M  V30 29440 H 2724.12 -2.95491 -0.500526 0
M  V30 29441 H 2721.68 -1.6141 -0.125824 0
M  V30 29442 H 2723.67 -2.69581 -3.01842 0
M  V30 29443 H 2722.24 -1.71313 -2.61478 0
M  V30 29444 H 2721.46 -3.75554 -1.19802 0
M  V30 29445 H 2722.75 -4.68478 -1.98509 0
M  V30 29446 H 2722.15 -3.09071 -4.73806 0
M  V30 29447 H 2720.71 -3.87682 -5.23971 0
M  V30 29448 N 2724.14 0.213268 -1.5615 0
M  V30 29449 C 2725.05 1.28515 -1.96268 0
M  V30 29450 C 2726.06 1.50822 -0.867676 0
M  V30 29451 O 2727.24 1.63791 -1.17194 0
M  V30 29452 C 2724.31 2.61323 -2.27841 0
M  V30 29453 C 2723.37 2.47246 -3.50953 0
M  V30 29454 C 2722.6 3.7372 -3.8101 0
M  V30 29455 O 2722.82 4.771 -3.1262 0
M  V30 29456 O 2721.76 3.70336 -4.74484 0
M  V30 29457 H 2725.58 0.974744 -2.87632 0
M  V30 29458 H 2723.17 0.416807 -1.43468 0
M  V30 29459 H 2725.05 3.39742 -2.49305 0
M  V30 29460 H 2723.72 2.92028 -1.39648 0
M  V30 29461 H 2722.63 1.66999 -3.34757 0
M  V30 29462 H 2723.96 2.21478 -4.39554 0
M  V30 29463 N 2725.62 1.50103 0.480296 0
M  V30 29464 C 2726.85 1.64135 1.25472 0
M  V30 29465 C 2727.25 0.320305 1.86469 0
M  V30 29466 O 2726.6 -0.7067 1.69562 0
M  V30 29467 C 2726.66 2.66765 2.40991 0
M  V30 29468 C 2726.32 4.10569 2.00704 0
M  V30 29469 C 2727.32 4.96728 1.53483 0
M  V30 29470 C 2725.01 4.5643 2.09706 0
M  V30 29471 C 2727 6.26794 1.15795 0
M  V30 29472 C 2724.69 5.86504 1.71629 0
M  V30 29473 C 2725.68 6.7151 1.24751 0
M  V30 29474 O 2725.37 7.99157 0.871981 0
M  V30 29475 H 2725.1 0.554978 0.385973 0
M  V30 29476 H 2727.66 1.97017 0.580813 0
M  V30 29477 H 2725.89 2.29106 3.11524 0
M  V30 29478 H 2727.58 2.70111 3.02976 0
M  V30 29479 H 2728.34 4.62516 1.45958 0
M  V30 29480 H 2724.22 3.90417 2.45143 0
M  V30 29481 H 2727.77 6.93097 0.791344 0
M  V30 29482 H 2723.66 6.20239 1.78811 0
M  V30 29483 H 2724.43 8.12348 1.00164 0
M  V30 29484 N 2727.09 -0.732829 1.39526 0
M  V30 29485 C 2728.34 -1.49243 1.36867 0
M  V30 29486 C 2728.67 -1.94469 -0.0346776 0
M  V30 29487 O 2727.92 -1.67264 -1.01593 0
M  V30 29488 C 2728.22 -2.74463 2.2892 0
M  V30 29489 C 2727.89 -2.48094 3.76511 0
M  V30 29490 C 2726.55 -2.40612 4.16725 0
M  V30 29491 C 2728.9 -2.25589 4.6985 0
M  V30 29492 C 2726.23 -2.08669 5.48338 0
M  V30 29493 C 2728.58 -1.95164 6.01742 0
M  V30 29494 C 2727.25 -1.86152 6.41018 0
M  V30 29495 H 2726.52 -0.54612 0.500834 0
M  V30 29496 H 2729.16 -0.840928 1.72048 0
M  V30 29497 H 2727.47 -3.44367 1.86865 0
M  V30 29498 H 2729.17 -3.32498 2.24156 0
M  V30 29499 H 2725.76 -2.54797 3.4464 0
M  V30 29500 H 2729.94 -2.30336 4.39612 0
M  V30 29501 H 2725.2 -2.00216 5.77688 0
M  V30 29502 H 2729.37 -1.76759 6.73594 0
M  V30 29503 H 2727 -1.61166 7.4292 0
M  V30 29504 N 2728.57 -1.24737 -0.963244 0
M  V30 29505 C 2729.8 -1.11785 -1.74697 0
M  V30 29506 C 2730.22 0.325226 -1.85267 0
M  V30 29507 O 2729.58 1.23551 -1.32683 0
M  V30 29508 C 2729.63 -1.76737 -3.14319 0
M  V30 29509 O 2728.73 -1.04116 -3.99041 0
M  V30 29510 H 2728.07 -0.390777 -0.536833 0
M  V30 29511 H 2730.6 -1.65133 -1.20798 0
M  V30 29512 H 2730.61 -1.82674 -3.64821 0
M  V30 29513 H 2729.29 -2.81732 -3.05941 0
M  V30 29514 H 2727.87 -1.05998 -3.57518 0
M  V30 29515 N 2730.05 1.16459 -1.06184 0
M  V30 29516 C 2731.28 1.91407 -0.798633 0
M  V30 29517 C 2731.7 1.76843 0.640956 0
M  V30 29518 O 2731.06 1.09298 1.4465 0
M  V30 29519 C 2731.11 3.40163 -1.19671 0
M  V30 29520 O 2730.21 4.11038 -0.33484 0
M  V30 29521 H 2729.55 0.596363 -0.291972 0
M  V30 29522 H 2732.08 1.47555 -1.41735 0
M  V30 29523 H 2732.09 3.90931 -1.16779 0
M  V30 29524 H 2730.77 3.50083 -2.24532 0
M  V30 29525 H 2729.34 3.70468 -0.425233 0
M  V30 29526 N 2731.53 0.844266 1.33079 0
M  V30 29527 C 2732.44 0.283963 2.32875 0
M  V30 29528 C 2733.45 -0.592818 1.6359 0
M  V30 29529 O 2734.63 -0.495658 1.95206 0
M  V30 29530 C 2731.7 -0.527223 3.42668 0
M  V30 29531 C 2730.76 0.374469 4.27664 0
M  V30 29532 C 2729.99 -0.398096 5.32213 0
M  V30 29533 O 2730.21 -1.62922 5.46638 0
M  V30 29534 O 2729.15 0.230705 6.01458 0
M  V30 29535 H 2732.97 1.1105 2.82669 0
M  V30 29536 H 2730.56 0.606927 1.36516 0
M  V30 29537 H 2732.44 -0.988006 4.09654 0
M  V30 29538 H 2731.11 -1.33073 2.95082 0
M  V30 29539 H 2730.02 0.883208 3.63525 0
M  V30 29540 H 2731.35 1.14289 4.78747 0
M  V30 29541 N 2733.01 -1.45682 0.60121 0
M  V30 29542 C 2733.92 -2.34275 -0.123354 0
M  V30 29543 C 2734.93 -1.50862 -0.866994 0
M  V30 29544 O 2736.11 -1.83682 -0.826017 0
M  V30 29545 C 2733.17 -3.28372 -1.11231 0
M  V30 29546 C 2732.23 -4.27691 -0.37133 0
M  V30 29547 C 2731.47 -5.17292 -1.31318 0
M  V30 29548 O 2731.69 -5.10192 -2.55069 0
M  V30 29549 O 2730.62 -5.96374 -0.813706 0
M  V30 29550 H 2734.45 -2.97622 0.604535 0
M  V30 29551 H 2732.04 -1.4496 0.361503 0
M  V30 29552 H 2733.92 -3.86373 -1.68208 0
M  V30 29553 H 2732.59 -2.67598 -1.82134 0
M  V30 29554 H 2731.5 -3.73325 0.240736 0
M  V30 29555 H 2732.83 -4.91303 0.297085 0
M  V30 29556 N 2734.48 -0.340009 -1.53889 0
M  V30 29557 C 2735.72 0.257975 -2.02766 0
M  V30 29558 C 2736.09 1.48049 -1.22252 0
M  V30 29559 O 2737.29 2.15242 -1.6101 0
M  V30 29560 C 2735.56 0.56781 -3.52861 0
M  V30 29561 S 2737.12 1.14311 -4.23649 0
M  V30 29562 H 2733.94 0.0770265 -0.706815 0
M  V30 29563 H 2736.54 -0.47695 -1.89593 0
M  V30 29564 H 2735.24 -0.329817 -4.09073 0
M  V30 29565 H 2734.77 1.3325 -3.70146 0
M  V30 29566 H 2736.79 2.42904 -4.3268 0
M  V30 29567 N 2735.96 1.57451 -0.0685468 0
M  V30 29568 C 2737.19 1.97404 0.609542 0
M  V30 29569 C 2737.6 0.945517 1.6388 0
M  V30 29570 O 2736.94 -0.076573 1.8354 0
M  V30 29571 C 2737.01 3.33656 1.33844 0
M  V30 29572 C 2736.67 4.54648 0.463023 0
M  V30 29573 C 2737.67 5.19156 -0.278055 0
M  V30 29574 C 2735.35 5.00793 0.388853 0
M  V30 29575 C 2737.35 6.28157 -1.08156 0
M  V30 29576 C 2735.03 6.09667 -0.418324 0
M  V30 29577 C 2736.03 6.73211 -1.1522 0
M  V30 29578 O 2735.72 7.79989 -1.94607 0
M  V30 29579 H 2735.45 0.654227 0.170186 0
M  V30 29580 H 2738.01 2.04946 -0.136507 0
M  V30 29581 H 2736.24 3.22718 2.13049 0
M  V30 29582 H 2737.92 3.58236 1.90845 0
M  V30 29583 H 2738.69 4.84453 -0.230327 0
M  V30 29584 H 2734.57 4.51112 0.94969 0
M  V30 29585 H 2738.11 6.77687 -1.65488 0
M  V30 29586 H 2734.01 6.43804 -0.467628 0
M  V30 29587 H 2734.78 7.96851 -1.87004 0
M  V30 29588 N 2737.44 -0.204984 1.56261 0
M  V30 29589 C 2738.35 -1.27473 1.96946 0
M  V30 29590 C 2739.37 -1.5036 0.875662 0
M  V30 29591 O 2740.54 -1.63167 1.18061 0
M  V30 29592 C 2737.61 -2.60111 2.29223 0
M  V30 29593 C 2736.67 -2.45381 3.52259 0
M  V30 29594 C 2735.9 -3.71694 3.82987 0
M  V30 29595 O 2736.13 -4.75436 3.15146 0
M  V30 29596 O 2735.06 -3.67815 4.76441 0
M  V30 29597 H 2738.89 -0.959477 2.88145 0
M  V30 29598 H 2736.47 -0.409192 1.43687 0
M  V30 29599 H 2738.35 -3.38415 2.51104 0
M  V30 29600 H 2737.03 -2.91283 1.41195 0
M  V30 29601 H 2735.93 -1.65221 3.35638 0
M  V30 29602 H 2737.27 -2.19144 4.40723 0
M  V30 29603 N 2738.92 -1.50356 -0.472329 0
M  V30 29604 C 2740.2 -1.518 -1.23353 0
M  V30 29605 C 2740.58 -0.261967 -2.09468 0
M  V30 29606 O 2739.92 0.754653 -2.15679 0
M  V30 29607 C 2740.13 -2.81305 -2.06563 0
M  V30 29608 C 2741.48 -3.31918 -2.64794 0
M  V30 29609 O 2742.51 -2.82618 -2.16807 0
M  V30 29610 O 2741.37 -4.17853 -3.52224 0
M  V30 29611 H 2738.46 -0.608826 -0.559697 0
M  V30 29612 H 2741.01 -1.62644 -0.484252 0
M  V30 29613 H 2739.78 -3.64197 -1.43096 0
M  V30 29614 H 2739.4 -2.73459 -2.88628 0
M  V30 29615 N 2740.4 0.725419 -1.39912 0
M  V30 29616 C 2741.67 1.47764 -1.28161 0
M  V30 29617 C 2742.05 2.10841 0.104508 0
M  V30 29618 O 2741.4 1.99363 1.11654 0
M  V30 29619 C 2741.61 2.52131 -2.41311 0
M  V30 29620 C 2742.96 3.18242 -2.81082 0
M  V30 29621 O 2743.98 2.62448 -2.40831 0
M  V30 29622 O 2742.84 4.19225 -3.50589 0
M  V30 29623 H 2739.94 0.656619 -0.502773 0
M  V30 29624 H 2742.48 0.758429 -1.51809 0
M  V30 29625 H 2741.26 2.03968 -3.33935 0
M  V30 29626 H 2740.88 3.316 -2.1938 0
M  V30 29627 N 2741.88 1.25246 0.956615 0
M  V30 29628 C 2743.1 1.12709 1.74102 0
M  V30 29629 C 2743.53 -0.315396 1.85437 0
M  V30 29630 O 2742.88 -1.22846 1.33337 0
M  V30 29631 C 2742.93 1.78401 3.13377 0
M  V30 29632 O 2742.04 1.06231 3.98483 0
M  V30 29633 H 2741.38 0.393618 0.534753 0
M  V30 29634 H 2743.91 1.65771 1.19921 0
M  V30 29635 H 2743.92 1.84606 3.63847 0
M  V30 29636 H 2742.59 2.8335 3.04443 0
M  V30 29637 H 2741.17 1.07892 3.56951 0
M  V30 29638 N 2743.35 -1.15894 1.068 0
M  V30 29639 C 2744.58 -1.90981 0.808773 0
M  V30 29640 C 2745 -1.7718 -0.631568 0
M  V30 29641 O 2744.36 -1.10064 -1.44068 0
M  V30 29642 C 2744.41 -3.39524 1.21474 0
M  V30 29643 O 2743.51 -4.10855 0.356634 0
M  V30 29644 H 2742.85 -0.594806 0.29513 0
M  V30 29645 H 2745.38 -1.46801 1.42515 0
M  V30 29646 H 2745.39 -3.90306 1.18851 0
M  V30 29647 H 2744.07 -3.48888 2.26385 0
M  V30 29648 H 2742.65 -3.70237 0.444874 0
M  V30 29649 N 2744.83 -0.851312 -1.32629 0
M  V30 29650 C 2746.24 -0.508132 -1.79652 0
M  V30 29651 C 2746.59 0.973785 -1.70329 0
M  V30 29652 O 2745.72 1.75942 -1.25989 0
M  V30 29653 C 2746.31 -0.915573 -3.26194 0
M  V30 29654 C 2744.87 -0.624342 -3.71186 0
M  V30 29655 C 2744.02 -1.11714 -2.53802 0
M  V30 29656 H 2746.97 -1.03884 -1.19974 0
M  V30 29657 H 2746.99 -0.230602 -3.79801 0
M  V30 29658 H 2746.5 -1.99417 -3.32948 0
M  V30 29659 H 2744.6 0.443672 -3.69949 0
M  V30 29660 H 2744.72 -1.18829 -4.6413 0
M  V30 29661 H 2743.08 -0.537527 -2.48963 0
M  V30 29662 H 2743.86 -2.20277 -2.63311 0
M  V30 29663 N 2746.31 1.45361 -0.608928 0
M  V30 29664 C 2747.54 2.06602 -0.111049 0
M  V30 29665 C 2747.95 1.45334 1.20513 0
M  V30 29666 O 2747.31 0.568008 1.73436 0
M  V30 29667 C 2747.36 3.61484 0.0336244 0
M  V30 29668 O 2747.08 4.20465 -1.23048 0
M  V30 29669 C 2748.58 4.39713 0.562805 0
M  V30 29670 H 2745.8 0.667395 -0.0694571 0
M  V30 29671 H 2748.35 1.86585 -0.83704 0
M  V30 29672 H 2746.5 3.80839 0.709949 0
M  V30 29673 H 2746.92 5.13656 -1.06103 0
M  V30 29674 H 2748.39 5.48584 0.613117 0
M  V30 29675 H 2748.87 4.09589 1.58535 0
M  V30 29676 H 2749.47 4.25226 -0.0795201 0
M  V30 29677 N 2747.79 0.348166 1.53706 0
M  V30 29678 C 2749.03 -0.239951 2.0198 0
M  V30 29679 C 2749.39 -1.47829 1.23144 0
M  V30 29680 O 2748.68 -1.89043 0.311969 0
M  V30 29681 C 2748.88 -0.601999 3.52294 0
M  V30 29682 C 2748.7 0.599704 4.45683 0
M  V30 29683 C 2747.47 1.10644 4.93038 0
M  V30 29684 C 2749.67 1.45958 4.93154 0
M  V30 29685 N 2747.65 2.26998 5.7039 0
M  V30 29686 C 2749.03 2.46998 5.68675 0
M  V30 29687 C 2751.08 1.48449 4.75255 0
M  V30 29688 C 2749.78 3.50364 6.28202 0
M  V30 29689 C 2751.81 2.50699 5.35634 0
M  V30 29690 C 2751.17 3.50464 6.11027 0
M  V30 29691 H 2747.27 -0.0509855 0.780336 0
M  V30 29692 H 2749.85 0.488775 1.88465 0
M  V30 29693 H 2748.03 -1.29982 3.66004 0
M  V30 29694 H 2749.76 -1.1737 3.87307 0
M  V30 29695 H 2746.51 0.673793 4.68782 0
M  V30 29696 H 2746.94 2.85758 6.13735 0
M  V30 29697 H 2751.58 0.72678 4.16507 0
M  V30 29698 H 2749.3 4.27027 6.86056 0
M  V30 29699 H 2752.88 2.53458 5.23689 0
M  V30 29700 H 2751.76 4.28287 6.56917 0
M  V30 29701 N 2749.27 -1.57412 0.0768958 0
M  V30 29702 C 2750.49 -1.98429 -0.603369 0
M  V30 29703 C 2750.92 -0.955137 -1.62046 0
M  V30 29704 O 2750.27 0.0786459 -1.81129 0
M  V30 29705 C 2750.32 -3.38466 -1.2439 0
M  V30 29706 O 2749.43 -3.38214 -2.35976 0
M  V30 29707 H 2748.77 -0.64572 -0.15473 0
M  V30 29708 H 2751.3 -2.04028 0.152921 0
M  V30 29709 H 2751.31 -3.75763 -1.58954 0
M  V30 29710 H 2749.98 -4.129 -0.498663 0
M  V30 29711 H 2748.56 -3.12693 -2.03168 0
M  V30 29712 N 2750.74 0.196695 -1.56368 0
M  V30 29713 C 2752.16 0.547464 -1.49917 0
M  V30 29714 C 2752.36 1.85932 -0.776623 0
M  V30 29715 O 2751.42 2.5038 -0.326484 0
M  V30 29716 C 2752.73 0.603682 -2.94578 0
M  V30 29717 C 2754.28 0.692624 -3.0524 0
M  V30 29718 C 2754.75 0.779967 -4.5131 0
M  V30 29719 N 2756.24 0.843536 -4.55454 0
M  V30 29720 C 2756.98 0.931259 -5.65787 0
M  V30 29721 N 2756.47 0.981382 -6.85814 0
M  V30 29722 N 2758.27 0.968323 -5.53697 0
M  V30 29723 H 2750.42 -0.663838 -2.0176 0
M  V30 29724 H 2752.68 -0.236254 -0.918089 0
M  V30 29725 H 2752.39 -0.291111 -3.50493 0
M  V30 29726 H 2752.26 1.45892 -3.47844 0
M  V30 29727 H 2754.65 1.57785 -2.49375 0
M  V30 29728 H 2754.73 -0.188781 -2.55102 0
M  V30 29729 H 2754.37 -0.1009 -5.078 0
M  V30 29730 H 2754.3 1.67715 -4.99179 0
M  V30 29731 H 2756.79 0.814111 -3.69027 0
M  V30 29732 H 2757.11 1.04879 -7.6565 0
M  V30 29733 H 2755.45 0.950087 -6.88475 0
M  V30 29734 H 2758.64 0.925991 -4.5885 0
M  V30 29735 H 2758.82 1.03323 -6.3971 0
M  V30 29736 N 2752.22 1.50604 0.464349 0
M  V30 29737 C 2753.15 1.6612 1.57913 0
M  V30 29738 C 2754.17 0.542487 1.53496 0
M  V30 29739 O 2755.36 0.815905 1.58762 0
M  V30 29740 C 2752.46 1.63583 2.96806 0
M  V30 29741 C 2751.63 2.91598 3.26021 0
M  V30 29742 C 2750.69 2.81611 4.44501 0
M  V30 29743 O 2749.71 3.55567 4.44478 0
M  V30 29744 N 2750.92 1.95624 5.46545 0
M  V30 29745 H 2753.68 2.62279 1.45017 0
M  V30 29746 H 2751.24 1.48152 0.652877 0
M  V30 29747 H 2753.23 1.54506 3.74045 0
M  V30 29748 H 2751.8 0.751315 3.03437 0
M  V30 29749 H 2751.02 3.1475 2.37331 0
M  V30 29750 H 2752.31 3.76392 3.42354 0
M  V30 29751 H 2751.71 1.34864 5.49389 0
M  V30 29752 H 2750.27 1.92446 6.22742 0
M  V30 29753 N 2753.7 -0.717989 1.40295 0
M  V30 29754 C 2754.65 -1.85341 1.4054 0
M  V30 29755 C 2755.64 -1.66964 0.286222 0
M  V30 29756 O 2756.85 -1.74098 0.457135 0
M  V30 29757 H 2753.22 -0.610382 0.439247 0
M  V30 29758 H 2755.19 -1.82251 2.36278 0
M  V30 29759 C 2753.94 -3.23183 1.28251 0
M  V30 29760 H 2753.27 -3.37928 2.13646 0
M  V30 29761 H 2754.71 -4.02771 1.32481 0
M  V30 29762 C 2753.17 -3.36899 -0.00749108 0
M  V30 29763 O 2753.7 -3.8978 -0.971323 0
M  V30 29764 N 2751.9 -2.905 -0.0761969 0
M  V30 29765 H 2751.45 -2.47655 0.708863 0
M  V30 29766 H 2751.41 -3.00057 -0.938793 0
M  V30 29767 N 2755.18 -1.25752 -0.94996 0
M  V30 29768 C 2756.41 -1.13366 -1.72719 0
M  V30 29769 C 2756.82 0.314809 -1.86563 0
M  V30 29770 O 2756.16 1.228 -1.36623 0
M  V30 29771 C 2756.22 -1.71985 -3.15692 0
M  V30 29772 C 2755.89 -3.21019 -3.25262 0
M  V30 29773 C 2756.88 -4.1795 -3.09214 0
M  V30 29774 C 2754.57 -3.61318 -3.48934 0
M  V30 29775 C 2756.56 -5.53159 -3.16691 0
M  V30 29776 C 2754.25 -4.96663 -3.56046 0
M  V30 29777 C 2755.25 -5.92393 -3.3994 0
M  V30 29778 O 2754.93 -7.25275 -3.46744 0
M  V30 29779 H 2754.67 -0.395982 -0.547881 0
M  V30 29780 H 2757.22 -1.66696 -1.20006 0
M  V30 29781 H 2755.45 -1.13107 -3.69789 0
M  V30 29782 H 2757.14 -1.54631 -3.75292 0
M  V30 29783 H 2757.91 -3.88156 -2.90791 0
M  V30 29784 H 2753.78 -2.87297 -3.60529 0
M  V30 29785 H 2757.33 -6.27859 -3.04037 0
M  V30 29786 H 2753.23 -5.26121 -3.73988 0
M  V30 29787 H 2753.99 -7.33432 -3.63345 0
M  V30 29788 N 2756.66 1.15326 -1.07413 0
M  V30 29789 C 2757.9 1.85759 -0.796106 0
M  V30 29790 C 2758.23 1.82766 0.679832 0
M  V30 29791 O 2757.5 1.26903 1.4924 0
M  V30 29792 H 2756.08 0.687774 -0.291507 0
M  V30 29793 H 2758.74 1.398 -1.35801 0
M  V30 29794 H 2757.83 2.90879 -1.13119 0
M  V30 29795 N 2758.13 0.858334 1.32176 0
M  V30 29796 C 2759.36 0.476925 2.0102 0
M  V30 29797 C 2759.77 -0.931966 1.64654 0
M  V30 29798 O 2759.12 -1.6202 0.865742 0
M  V30 29799 C 2759.18 0.540591 3.55412 0
M  V30 29800 C 2758.84 1.90903 4.15217 0
M  V30 29801 C 2759.84 2.87498 4.33175 0
M  V30 29802 C 2757.52 2.20717 4.51209 0
M  V30 29803 C 2759.52 4.12059 4.86299 0
M  V30 29804 C 2757.2 3.4553 5.04036 0
M  V30 29805 C 2758.2 4.41016 5.2153 0
M  V30 29806 O 2757.89 5.63618 5.73228 0
M  V30 29807 H 2757.62 0.185481 0.650056 0
M  V30 29808 H 2760.18 1.15799 1.69646 0
M  V30 29809 H 2758.41 -0.197342 3.86196 0
M  V30 29810 H 2760.1 0.174262 4.05526 0
M  V30 29811 H 2760.86 2.65769 4.05699 0
M  V30 29812 H 2756.74 1.47178 4.36875 0
M  V30 29813 H 2760.28 4.86597 4.99869 0
M  V30 29814 H 2756.18 3.67107 5.30945 0
M  V30 29815 H 2756.95 5.65627 5.91615 0
M  V30 29816 N 2759.61 -1.45036 0.616628 0
M  V30 29817 C 2760.84 -2.0624 0.121827 0
M  V30 29818 C 2761.25 -1.4604 -1.20287 0
M  V30 29819 O 2760.59 -0.572273 -1.74559 0
M  V30 29820 C 2760.66 -3.59405 -0.0826713 0
M  V30 29821 C 2760.32 -4.4199 1.16161 0
M  V30 29822 C 2761.32 -4.76395 2.08191 0
M  V30 29823 C 2759 -4.82599 1.39297 0
M  V30 29824 C 2761 -5.50275 3.21678 0
M  V30 29825 C 2758.68 -5.5623 2.53083 0
M  V30 29826 C 2759.68 -5.89986 3.44101 0
M  V30 29827 O 2759.37 -6.62122 4.55906 0
M  V30 29828 H 2759.1 -0.672347 0.0701785 0
M  V30 29829 H 2761.65 -1.87127 0.84691 0
M  V30 29830 H 2759.88 -3.76953 -0.862746 0
M  V30 29831 H 2761.57 -4.02422 -0.530202 0
M  V30 29832 H 2762.34 -4.45573 1.91546 0
M  V30 29833 H 2758.22 -4.55754 0.693476 0
M  V30 29834 H 2761.76 -5.7654 3.92743 0
M  V30 29835 H 2757.66 -5.86468 2.69678 0
M  V30 29836 H 2758.43 -6.80579 4.54702 0
M  V30 29837 N 2761.09 -0.356312 -1.53519 0
M  V30 29838 C 2762.32 0.239925 -2.06008 0
M  V30 29839 C 2762.74 1.4242 -1.22874 0
M  V30 29840 O 2762.1 1.79629 -0.245547 0
M  V30 29841 C 2762.15 0.620524 -3.55221 0
M  V30 29842 O 2761.25 1.71896 -3.74867 0
M  V30 29843 H 2760.59 0.0371261 -0.662961 0
M  V30 29844 H 2763.12 -0.514229 -1.98032 0
M  V30 29845 H 2763.13 0.894127 -3.98082 0
M  V30 29846 H 2761.81 -0.24548 -4.15175 0
M  V30 29847 H 2760.38 1.44163 -3.43906 0
M  V30 29848 N 2762.57 1.57369 -0.0852427 0
M  V30 29849 C 2763.98 1.57275 0.271408 0
M  V30 29850 C 2764.18 1.09568 1.69107 0
M  V30 29851 O 2763.24 0.767653 2.40548 0
M  V30 29852 C 2764.55 3.00621 0.0688109 0
M  V30 29853 C 2766.1 3.12699 0.137318 0
M  V30 29854 C 2766.58 4.57985 -0.0371637 0
M  V30 29855 N 2768.07 4.63197 0.0179979 0
M  V30 29856 C 2768.8 5.73326 -0.0923961 0
M  V30 29857 N 2768.3 6.92323 -0.25707 0
M  V30 29858 N 2770.09 5.62089 -0.034369 0
M  V30 29859 H 2762.24 1.86692 -1.01292 0
M  V30 29860 H 2764.51 0.861259 -0.396154 0
M  V30 29861 H 2764.21 3.39687 -0.911337 0
M  V30 29862 H 2764.09 3.68282 0.815377 0
M  V30 29863 H 2766.47 2.73511 1.10796 0
M  V30 29864 H 2766.55 2.47649 -0.640575 0
M  V30 29865 H 2766.2 4.97865 -1.00463 0
M  V30 29866 H 2766.13 5.21083 0.760301 0
M  V30 29867 H 2768.62 3.77629 0.143135 0
M  V30 29868 H 2768.93 7.72082 -0.333085 0
M  V30 29869 H 2767.28 6.94384 -0.292609 0
M  V30 29870 H 2770.47 4.68007 0.0930782 0
M  V30 29871 H 2770.64 6.47882 -0.123854 0
M  V30 29872 N 2764.05 -0.188399 1.5647 0
M  V30 29873 C 2765.28 -0.922431 1.84864 0
M  V30 29874 C 2765.68 -1.77074 0.666445 0
M  V30 29875 O 2765.03 -1.79852 -0.374012 0
M  V30 29876 C 2765.09 -1.86319 3.0745 0
M  V30 29877 C 2764.75 -1.19617 4.41068 0
M  V30 29878 C 2765.75 -0.569855 5.16768 0
M  V30 29879 C 2763.44 -1.19803 4.87804 0
M  V30 29880 C 2765.43 0.045706 6.37384 0
M  V30 29881 C 2763.12 -0.578633 6.08354 0
M  V30 29882 C 2764.11 0.042146 6.82987 0
M  V30 29883 O 2763.8 0.651815 8.01253 0
M  V30 29884 H 2763.53 -0.274306 0.617845 0
M  V30 29885 H 2766.09 -0.198577 2.04438 0
M  V30 29886 H 2764.32 -2.62691 2.83778 0
M  V30 29887 H 2766.01 -2.46558 3.22434 0
M  V30 29888 H 2766.77 -0.560517 4.8175 0
M  V30 29889 H 2762.65 -1.67061 4.29665 0
M  V30 29890 H 2766.2 0.530853 6.95577 0
M  V30 29891 H 2762.09 -0.585497 6.42839 0
M  V30 29892 H 2762.86 0.549379 8.16654 0
M  V30 29893 N 2765.53 -1.50848 -0.456355 0
M  V30 29894 C 2766.94 -1.55264 -1.03682 0
M  V30 29895 C 2767.29 -0.364805 -1.92779 0
M  V30 29896 O 2766.41 0.520643 -2.10043 0
M  V30 29897 C 2767.01 -2.81377 -1.88713 0
M  V30 29898 C 2765.57 -2.88426 -2.41842 0
M  V30 29899 C 2764.71 -2.49721 -1.20559 0
M  V30 29900 H 2767.66 -1.569 -0.238371 0
M  V30 29901 H 2767.69 -2.64065 -2.73952 0
M  V30 29902 H 2767.2 -3.67811 -1.2384 0
M  V30 29903 H 2765.3 -2.06378 -3.10224 0
M  V30 29904 H 2765.41 -3.91655 -2.7594 0
M  V30 29905 H 2763.78 -2.02489 -1.545 0
M  V30 29906 H 2764.56 -3.3848 -0.573266 0
M  V30 29907 N 2767 0.710538 -1.40674 0
M  V30 29908 C 2768.25 1.46756 -1.38949 0
M  V30 29909 C 2768.57 1.94999 0.00569451 0
M  V30 29910 O 2767.84 1.70691 0.961328 0
M  V30 29911 H 2766.42 0.54449 -0.51141 0
M  V30 29912 H 2769.08 0.841981 -1.75775 0
M  V30 29913 H 2768.18 2.33797 -2.0675 0
M  V30 29914 N 2768.48 1.26254 0.943277 0
M  V30 29915 C 2769.9 1.03321 1.21643 0
M  V30 29916 C 2770.1 -0.242948 2.0003 0
M  V30 29917 O 2769.15 -0.952647 2.33839 0
M  V30 29918 C 2770.47 2.26333 1.97974 0
M  V30 29919 C 2772.01 2.31212 2.10974 0
M  V30 29920 C 2772.49 3.53912 2.90707 0
M  V30 29921 N 2773.98 3.54376 2.98281 0
M  V30 29922 C 2774.72 4.45983 3.60398 0
M  V30 29923 N 2774.21 5.47875 4.24034 0
M  V30 29924 N 2776 4.33639 3.5765 0
M  V30 29925 H 2768.16 2.08222 0.419184 0
M  V30 29926 H 2770.42 0.914992 0.247979 0
M  V30 29927 H 2770.12 3.19144 1.47783 0
M  V30 29928 H 2770 2.30413 2.98646 0
M  V30 29929 H 2772.39 1.38917 2.60358 0
M  V30 29930 H 2772.47 2.31145 1.09571 0
M  V30 29931 H 2772.11 4.46535 2.4201 0
M  V30 29932 H 2772.04 3.51227 3.92361 0
M  V30 29933 H 2774.53 2.80677 2.53039 0
M  V30 29934 H 2774.84 6.13967 4.69323 0
M  V30 29935 H 2773.19 5.51735 4.22627 0
M  V30 29936 H 2776.38 3.53256 3.07128 0
M  V30 29937 H 2776.55 5.05225 4.05773 0
M  V30 29938 N 2769.96 -1.14755 1.08024 0
M  V30 29939 C 2770.91 -2.21781 0.701127 0
M  V30 29940 C 2771.9 -1.66877 -0.291281 0
M  V30 29941 O 2773.11 -1.79338 -0.154264 0
M  V30 29942 H 2769.48 -0.722465 0.208681 0
M  V30 29943 H 2771.45 -2.51031 1.61326 0
M  V30 29944 C 2770.2 -3.47485 0.122339 0
M  V30 29945 H 2769.53 -3.90059 0.877134 0
M  V30 29946 H 2770.97 -4.2387 -0.105173 0
M  V30 29947 C 2769.42 -3.1707 -1.13877 0
M  V30 29948 O 2769.95 -3.34501 -2.22424 0
M  V30 29949 N 2768.16 -2.71059 -1.04762 0
M  V30 29950 H 2767.71 -2.57076 -0.164257 0
M  V30 29951 H 2767.67 -2.51084 -1.8922 0
M  V30 29952 N 2771.44 -0.865331 -1.31719 0
M  V30 29953 C 2772.69 -0.470132 -1.96144 0
M  V30 29954 C 2773 0.981644 -1.69184 0
M  V30 29955 O 2774.21 1.48277 -2.27434 0
M  V30 29956 C 2772.66 -0.789794 -3.51127 0
M  V30 29957 C 2772.27 -2.25802 -3.86934 0
M  V30 29958 C 2774.01 -0.462839 -4.21969 0
M  V30 29959 C 2771.92 -2.52034 -5.35007 0
M  V30 29960 H 2770.85 -0.172078 -0.734102 0
M  V30 29961 H 2773.5 -1.05759 -1.49957 0
M  V30 29962 H 2771.88 -0.131641 -3.95781 0
M  V30 29963 H 2773.06 -2.95885 -3.53255 0
M  V30 29964 H 2771.37 -2.55055 -3.29144 0
M  V30 29965 H 2773.97 -0.636113 -5.30903 0
M  V30 29966 H 2774.31 0.596378 -4.12006 0
M  V30 29967 H 2774.85 -1.07734 -3.82934 0
M  V30 29968 H 2771.58 -3.56621 -5.50002 0
M  V30 29969 H 2771.1 -1.8654 -5.70055 0
M  V30 29970 H 2772.78 -2.36526 -6.02216 0
M  V30 29971 N 2772.92 1.44707 -0.624311 0
M  V30 29972 C 2774.19 1.95516 -0.0573125 0
M  V30 29973 C 2774.57 1.56644 1.41513 0
M  V30 29974 O 2773.92 0.837148 2.12613 0
M  V30 29975 C 2774.13 3.47931 -0.273005 0
M  V30 29976 C 2775.48 4.24289 -0.162603 0
M  V30 29977 O 2776.5 3.55615 -0.204009 0
M  V30 29978 O 2775.36 5.46465 -0.0617807 0
M  V30 29979 H 2772.46 0.826585 0.0262073 0
M  V30 29980 H 2775 1.54791 -0.695539 0
M  V30 29981 H 2773.77 3.6925 -1.29499 0
M  V30 29982 H 2773.4 3.95586 0.399687 0
M  V30 29983 N 2774.39 0.364449 1.53328 0
M  V30 29984 C 2775.62 -0.228997 2.06132 0
M  V30 29985 C 2776.04 -1.41767 1.23628 0
M  V30 29986 O 2775.4 -1.79497 0.25507 0
M  V30 29987 C 2775.45 -0.601678 3.55545 0
M  V30 29988 O 2774.55 -1.69905 3.75774 0
M  V30 29989 H 2773.89 -0.0336097 0.663149 0
M  V30 29990 H 2776.42 0.524724 1.97757 0
M  V30 29991 H 2776.43 -0.873003 3.98551 0
M  V30 29992 H 2775.11 0.267494 4.15039 0
M  V30 29993 H 2773.69 -1.42337 3.44666 0
M  V30 29994 N 2775.87 -1.57322 0.0935872 0
M  V30 29995 C 2776.78 -2.17464 -0.880153 0
M  V30 29996 C 2777.8 -1.14368 -1.31133 0
M  V30 29997 O 2778.97 -1.46732 -1.37956 0
M  V30 29998 C 2776.04 -2.74191 -2.12179 0
M  V30 29999 C 2775.1 -3.92237 -1.74496 0
M  V30 30000 C 2774.33 -4.4625 -2.9274 0
M  V30 30001 O 2774.56 -3.99205 -4.0742 0
M  V30 30002 O 2773.49 -5.37292 -2.71294 0
M  V30 30003 H 2777.32 -3.01075 -0.398463 0
M  V30 30004 H 2774.9 -1.48827 -0.130681 0
M  V30 30005 H 2776.78 -3.10456 -2.84948 0
M  V30 30006 H 2775.46 -1.93627 -2.59404 0
M  V30 30007 H 2774.36 -3.60787 -0.989122 0
M  V30 30008 H 2775.7 -4.7416 -1.32036 0
M  V30 30009 N 2777.35 0.180099 -1.56568 0
M  V30 30010 C 2778.77 0.531532 -1.50489 0
M  V30 30011 C 2778.97 1.85098 -0.7963 0
M  V30 30012 O 2778.02 2.5002 -0.353022 0
M  V30 30013 C 2779.33 0.572404 -2.95202 0
M  V30 30014 C 2780.88 0.66021 -3.05958 0
M  V30 30015 C 2781.36 0.732056 -4.52112 0
M  V30 30016 N 2782.85 0.795182 -4.56323 0
M  V30 30017 C 2783.58 0.871197 -5.66743 0
M  V30 30018 N 2783.08 0.908587 -6.86816 0
M  V30 30019 N 2784.87 0.909542 -5.54692 0
M  V30 30020 H 2777.02 -0.6852 -2.01044 0
M  V30 30021 H 2779.29 -0.245978 -0.915532 0
M  V30 30022 H 2778.99 -0.32827 -3.50165 0
M  V30 30023 H 2778.87 1.42194 -3.49372 0
M  V30 30024 H 2781.25 1.55131 -2.51035 0
M  V30 30025 H 2781.33 -0.215828 -2.54888 0
M  V30 30026 H 2780.98 -0.154754 -5.07664 0
M  V30 30027 H 2780.91 1.62411 -5.00929 0
M  V30 30028 H 2783.4 0.774925 -3.69869 0
M  V30 30029 H 2783.71 0.967519 -7.6672 0
M  V30 30030 H 2782.06 0.877011 -6.89444 0
M  V30 30031 H 2785.25 0.877272 -4.59806 0
M  V30 30032 H 2785.42 0.965322 -6.40769 0
M  V30 30033 N 2778.83 1.51088 0.448349 0
M  V30 30034 C 2780.24 1.55812 1.02857 0
M  V30 30035 C 2780.59 0.375023 1.92582 0
M  V30 30036 O 2779.71 -0.509496 2.10317 0
M  V30 30037 C 2780.31 2.82374 1.87218 0
M  V30 30038 C 2778.87 2.89704 2.40309 0
M  V30 30039 C 2778.02 2.50357 1.19233 0
M  V30 30040 H 2780.97 1.57024 0.230047 0
M  V30 30041 H 2780.99 2.65514 2.72548 0
M  V30 30042 H 2780.5 3.68463 1.21888 0
M  V30 30043 H 2778.6 2.0802 3.09125 0
M  V30 30044 H 2778.71 3.93113 2.7386 0
M  V30 30045 H 2777.08 2.03305 1.53424 0
M  V30 30046 H 2777.86 3.38779 0.555308 0
M  V30 30047 N 2780.31 -0.703068 1.41049 0
M  V30 30048 C 2781.72 -1.01273 1.23353 0
M  V30 30049 C 2781.92 -2.01157 0.117575 0
M  V30 30050 O 2780.98 -2.47078 -0.520475 0
M  V30 30051 C 2782.29 -1.54449 2.58004 0
M  V30 30052 C 2783.84 -1.66371 2.65122 0
M  V30 30053 C 2784.31 -2.22951 4.00071 0
M  V30 30054 N 2785.81 -2.30321 4.01879 0
M  V30 30055 C 2786.54 -2.75111 5.03092 0
M  V30 30056 N 2786.04 -3.1956 6.14698 0
M  V30 30057 N 2787.83 -2.74607 4.90456 0
M  V30 30058 H 2779.98 -0.0412313 2.1236 0
M  V30 30059 H 2782.24 -0.0808734 0.944544 0
M  V30 30060 H 2781.95 -0.88515 3.40379 0
M  V30 30061 H 2781.82 -2.52781 2.79967 0
M  V30 30062 H 2784.21 -2.31419 1.8311 0
M  V30 30063 H 2784.29 -0.666046 2.46977 0
M  V30 30064 H 2783.94 -1.58521 4.82528 0
M  V30 30065 H 2783.87 -3.23455 4.15553 0
M  V30 30066 H 2786.36 -1.98943 3.21294 0
M  V30 30067 H 2786.67 -3.5234 6.87805 0
M  V30 30068 H 2785.01 -3.17488 6.18245 0
M  V30 30069 H 2788.21 -2.39225 4.02354 0
M  V30 30070 H 2788.38 -3.09196 5.69475 0
M  V30 30071 N 2781.78 -1.26752 -0.936569 0
M  V30 30072 C 2783.03 -1.12346 -1.67996 0
M  V30 30073 C 2783.35 0.332905 -1.92137 0
M  V30 30074 O 2782.62 1.23418 -1.52134 0
M  V30 30075 H 2781.2 -0.412767 -0.622602 0
M  V30 30076 H 2783.87 -1.59149 -1.12506 0
M  V30 30077 H 2782.96 -1.64576 -2.65182 0
M  V30 30078 N 2783.26 1.1418 -1.08631 0
M  V30 30079 C 2784.49 1.88855 -0.837706 0
M  V30 30080 C 2784.9 1.7896 0.613992 0
M  V30 30081 O 2784.24 1.14836 1.43382 0
M  V30 30082 C 2784.31 3.39457 -1.18361 0
M  V30 30083 C 2783.97 3.73135 -2.63855 0
M  V30 30084 C 2784.97 3.73062 -3.62106 0
M  V30 30085 C 2782.65 4.03044 -2.99768 0
M  V30 30086 C 2784.65 4.02426 -4.94299 0
M  V30 30087 C 2782.33 4.32071 -4.32155 0
M  V30 30088 C 2783.33 4.31746 -5.2923 0
M  V30 30089 O 2783.02 4.60067 -6.59237 0
M  V30 30090 H 2782.75 0.604981 -0.30162 0
M  V30 30091 H 2785.3 1.45516 -1.44963 0
M  V30 30092 H 2783.53 3.83259 -0.514696 0
M  V30 30093 H 2785.22 3.95442 -0.91546 0
M  V30 30094 H 2785.99 3.5004 -3.35704 0
M  V30 30095 H 2781.87 4.02449 -2.24847 0
M  V30 30096 H 2785.41 4.02088 -5.70062 0
M  V30 30097 H 2781.31 4.54563 -4.58304 0
M  V30 30098 H 2782.08 4.77773 -6.64586 0
M  V30 30099 N 2784.74 0.872304 1.31258 0
M  V30 30100 C 2785.69 0.301334 2.26 0
M  V30 30101 C 2786.67 -0.562964 1.5073 0
M  V30 30102 O 2787.87 -0.40946 1.72199 0
M  V30 30103 C 2785 -0.494167 3.39725 0
M  V30 30104 C 2784.08 0.383506 4.22362 0
M  V30 30105 N 2784.47 1.47807 4.83722 0
M  V30 30106 C 2782.77 0.176356 4.45651 0
M  V30 30107 C 2783.47 2.01949 5.45519 0
M  V30 30108 N 2782.45 1.31617 5.27426 0
M  V30 30109 H 2786.25 1.13787 2.70979 0
M  V30 30110 H 2783.76 0.72032 1.45551 0
M  V30 30111 H 2785.76 -0.919756 4.06628 0
M  V30 30112 H 2784.42 -1.32829 2.96288 0
M  V30 30113 H 2785.43 1.86098 4.83309 0
M  V30 30114 H 2782.11 -0.621625 4.12846 0
M  V30 30115 H 2783.5 2.93796 6.04263 0
M  V30 30116 N 2786.22 -1.44374 0.631976 0
M  V30 30117 C 2787.17 -2.27805 -0.0943461 0
M  V30 30118 C 2788.15 -1.38712 -0.815334 0
M  V30 30119 O 2789.34 -1.62514 -0.701302 0
M  V30 30120 C 2786.47 -3.26046 -1.07466 0
M  V30 30121 C 2785.56 -4.22626 -0.353254 0
M  V30 30122 N 2785.95 -5.02003 0.6186 0
M  V30 30123 C 2784.25 -4.41978 -0.597584 0
M  V30 30124 C 2784.95 -5.72238 1.0449 0
M  V30 30125 N 2783.93 -5.42245 0.383508 0
M  V30 30126 H 2787.73 -2.86583 0.651722 0
M  V30 30127 H 2785.24 -1.55821 0.457548 0
M  V30 30128 H 2787.24 -3.84574 -1.60962 0
M  V30 30129 H 2785.9 -2.68829 -1.82103 0
M  V30 30130 H 2786.91 -5.08224 0.996445 0
M  V30 30131 H 2783.59 -3.95858 -1.32675 0
M  V30 30132 H 2784.98 -6.45991 1.84785 0
M  V30 30133 N 2787.7 -0.372575 -1.53133 0
M  V30 30134 C 2789.11 0.105123 -1.86404 0
M  V30 30135 C 2789.46 1.47574 -1.29292 0
M  V30 30136 O 2788.58 2.07397 -0.617683 0
M  V30 30137 C 2789.18 0.197528 -3.38224 0
M  V30 30138 C 2787.74 0.619491 -3.71267 0
M  V30 30139 C 2786.88 -0.228968 -2.76353 0
M  V30 30140 H 2789.84 -0.591103 -1.47281 0
M  V30 30141 H 2789.86 1.01981 -3.66579 0
M  V30 30142 H 2789.37 -0.800166 -3.79762 0
M  V30 30143 H 2787.47 1.62516 -3.3529 0
M  V30 30144 H 2787.58 0.389248 -4.77516 0
M  V30 30145 H 2785.95 0.303226 -2.52889 0
M  V30 30146 H 2786.73 -1.22433 -3.20726 0
M  V30 30147 N 2789.17 1.5727 -0.101929 0
M  V30 30148 C 2790.11 2.11438 0.884685 0
M  V30 30149 C 2791.12 1.05316 1.24147 0
M  V30 30150 O 2792.31 1.32742 1.19339 0
M  V30 30151 C 2789.41 2.58488 2.19174 0
M  V30 30152 C 2788.58 3.8852 2.00926 0
M  V30 30153 C 2787.64 4.21346 3.15205 0
M  V30 30154 O 2786.67 4.90453 2.88868 0
M  V30 30155 N 2787.87 3.77295 4.41167 0
M  V30 30156 H 2790.63 2.96714 0.422006 0
M  V30 30157 H 2788.19 1.61687 0.0829844 0
M  V30 30158 H 2790.19 2.77489 2.94588 0
M  V30 30159 H 2788.76 1.78185 2.56844 0
M  V30 30160 H 2787.98 3.78599 1.09803 0
M  V30 30161 H 2789.26 4.73577 1.86018 0
M  V30 30162 H 2788.66 3.21524 4.65445 0
M  V30 30163 H 2787.22 4.01438 5.13508 0
M  V30 30164 N 2790.65 -0.171793 1.56661 0
M  V30 30165 C 2791.9 -0.886742 1.81608 0
M  V30 30166 C 2792.22 -1.82802 0.67885 0
M  V30 30167 O 2791.49 -1.93569 -0.30132 0
M  V30 30168 H 2790.07 -0.330439 0.66994 0
M  V30 30169 H 2792.73 -0.171723 1.94142 0
M  V30 30170 H 2791.83 -1.46393 2.75637 0
M  V30 30171 N 2792.13 -1.51324 -0.44033 0
M  V30 30172 C 2793.38 -1.63844 -1.19002 0
M  V30 30173 C 2793.71 -0.353244 -1.91265 0
M  V30 30174 O 2792.96 0.662532 -1.84144 0
M  V30 30175 C 2793.26 -2.78988 -2.23385 0
M  V30 30176 C 2792.93 -4.18372 -1.68155 0
M  V30 30177 C 2791.59 -4.56291 -1.52815 0
M  V30 30178 C 2793.94 -5.05361 -1.27515 0
M  V30 30179 C 2791.27 -5.78907 -0.953055 0
M  V30 30180 C 2793.62 -6.28554 -0.714364 0
M  V30 30181 C 2792.28 -6.65248 -0.547844 0
M  V30 30182 H 2791.55 -0.599548 -0.435458 0
M  V30 30183 H 2794.2 -1.85348 -0.481505 0
M  V30 30184 H 2792.51 -2.51694 -3.00263 0
M  V30 30185 H 2794.2 -2.85874 -2.81206 0
M  V30 30186 H 2790.79 -3.88474 -1.8107 0
M  V30 30187 H 2794.98 -4.76674 -1.38188 0
M  V30 30188 H 2790.23 -6.05987 -0.811775 0
M  V30 30189 H 2794.41 -6.95302 -0.390937 0
M  V30 30190 H 2792.03 -7.60134 -0.100088 0
M  V30 30191 N 2793.61 0.695578 -1.41419 0
M  V30 30192 C 2794.54 1.82195 -1.46039 0
M  V30 30193 C 2795.52 1.67081 -0.319054 0
M  V30 30194 O 2796.7 1.86814 -0.530495 0
M  V30 30195 C 2793.83 3.20331 -1.34184 0
M  V30 30196 C 2792.79 3.50149 -2.46129 0
M  V30 30197 C 2792.11 4.87641 -2.1934 0
M  V30 30198 C 2793.41 3.49126 -3.88469 0
M  V30 30199 H 2795.11 1.78587 -2.40306 0
M  V30 30200 H 2792.65 0.857777 -1.15664 0
M  V30 30201 H 2794.61 3.98841 -1.36028 0
M  V30 30202 H 2793.33 3.24565 -0.364009 0
M  V30 30203 H 2791.99 2.7399 -2.43568 0
M  V30 30204 H 2791.64 4.88501 -1.199 0
M  V30 30205 H 2791.34 5.08557 -2.94353 0
M  V30 30206 H 2792.86 5.68461 -2.22899 0
M  V30 30207 H 2794.28 4.17641 -3.92745 0
M  V30 30208 H 2792.67 3.81574 -4.63164 0
M  V30 30209 H 2793.74 2.48102 -4.16622 0
M  V30 30210 N 2795.09 1.27247 0.929833 0
M  V30 30211 C 2796 1.11596 2.06358 0
M  V30 30212 C 2797.01 0.0465266 1.73938 0
M  V30 30213 O 2798.19 0.252579 1.9981 0
M  V30 30214 C 2795.25 0.762497 3.38211 0
M  V30 30215 C 2794.32 1.91257 3.84343 0
M  V30 30216 C 2793.55 1.57588 5.09904 0
M  V30 30217 O 2793.77 0.482793 5.68353 0
M  V30 30218 O 2792.71 2.41436 5.51355 0
M  V30 30219 H 2796.53 2.06734 2.22474 0
M  V30 30220 H 2794.12 1.06415 1.04863 0
M  V30 30221 H 2796 0.578614 4.17409 0
M  V30 30222 H 2794.67 -0.159382 3.23307 0
M  V30 30223 H 2793.58 2.1515 3.06041 0
M  V30 30224 H 2794.91 2.81458 4.03785 0
M  V30 30225 N 2796.57 -1.13603 1.09235 0
M  V30 30226 C 2797.84 -1.81075 0.739665 0
M  V30 30227 C 2798.22 -1.96337 -0.77556 0
M  V30 30228 O 2797.57 -1.52991 -1.69723 0
M  V30 30229 C 2797.78 -3.16233 1.47641 0
M  V30 30230 C 2799.13 -3.9161 1.64094 0
M  V30 30231 O 2800.15 -3.2585 1.43877 0
M  V30 30232 O 2799.01 -5.09557 1.9752 0
M  V30 30233 H 2796.11 -0.783231 0.265478 0
M  V30 30234 H 2798.65 -1.20547 1.19443 0
M  V30 30235 H 2797.42 -3.00339 2.50823 0
M  V30 30236 H 2797.05 -3.84461 1.01369 0
M  V30 30237 N 2798.04 -0.879253 -1.30793 0
M  V30 30238 C 2799.32 -0.41512 -1.91144 0
M  V30 30239 C 2799.7 1.10365 -1.79952 0
M  V30 30240 O 2799.05 1.9364 -1.21309 0
M  V30 30241 C 2799.26 -0.906837 -3.37013 0
M  V30 30242 C 2800.61 -0.93843 -4.141 0
M  V30 30243 O 2801.63 -0.853114 -3.45833 0
M  V30 30244 O 2800.49 -1.06352 -5.36052 0
M  V30 30245 H 2797.58 -0.12592 -0.817357 0
M  V30 30246 H 2800.13 -0.967777 -1.39399 0
M  V30 30247 H 2798.9 -1.95059 -3.39216 0
M  V30 30248 H 2798.52 -0.333018 -3.96203 0
M  V30 30249 N 2799.52 1.44037 -0.639624 0
M  V30 30250 C 2800.8 1.95444 -0.0780463 0
M  V30 30251 C 2801.18 1.58136 1.39844 0
M  V30 30252 O 2800.53 0.859652 2.11713 0
M  V30 30253 C 2800.74 3.47621 -0.309893 0
M  V30 30254 C 2802.08 4.24092 -0.207596 0
M  V30 30255 O 2803.11 3.55379 -0.241715 0
M  V30 30256 O 2801.97 5.46369 -0.119737 0
M  V30 30257 H 2799.06 0.826816 0.0174388 0
M  V30 30258 H 2801.61 1.54045 -0.711918 0
M  V30 30259 H 2800.38 3.67856 -1.33408 0
M  V30 30260 H 2800 3.95988 0.357707 0
M  V30 30261 N 2801 0.380691 1.52933 0
M  V30 30262 C 2802.22 -0.207121 2.06363 0
M  V30 30263 C 2802.65 -1.40447 1.25124 0
M  V30 30264 O 2802.01 -1.79216 0.274094 0
M  V30 30265 C 2802.06 -0.563933 3.56163 0
M  V30 30266 O 2801.16 -1.6591 3.77555 0
M  V30 30267 H 2800.5 -0.0265742 0.663468 0
M  V30 30268 H 2803.03 0.545669 1.97189 0
M  V30 30269 H 2803.04 -0.830682 3.99454 0
M  V30 30270 H 2801.72 0.3115 4.14732 0
M  V30 30271 H 2800.29 -1.38674 3.46156 0
M  V30 30272 N 2802.48 -1.57214 0.110268 0
M  V30 30273 C 2803.89 -1.81995 -0.416495 0
M  V30 30274 C 2804.24 -1.02688 -1.67181 0
M  V30 30275 O 2803.36 -0.26082 -2.14822 0
M  V30 30276 C 2803.96 -3.3011 -0.762408 0
M  V30 30277 C 2802.52 -3.55603 -1.23385 0
M  V30 30278 C 2801.67 -2.76276 -0.238117 0
M  V30 30279 H 2804.62 -1.55113 0.335518 0
M  V30 30280 H 2804.64 -3.44262 -1.62062 0
M  V30 30281 H 2804.15 -3.87805 0.151415 0
M  V30 30282 H 2802.25 -3.03256 -2.16486 0
M  V30 30283 H 2802.36 -4.64209 -1.1852 0
M  V30 30284 H 2800.73 -2.44212 -0.723378 0
M  V30 30285 H 2801.51 -3.36725 0.66865 0
M  V30 30286 N 2803.96 0.163482 -1.5675 0
M  V30 30287 C 2805.2 0.880136 -1.82706 0
M  V30 30288 C 2805.53 1.81554 -0.689342 0
M  V30 30289 O 2804.81 1.92043 0.30819 0
M  V30 30290 C 2805.09 1.66899 -3.19087 0
M  V30 30291 C 2804.95 0.756191 -4.43398 0
M  V30 30292 C 2806.26 2.63503 -3.52497 0
M  V30 30293 H 2803.38 0.318524 -0.664614 0
M  V30 30294 H 2806.03 0.146003 -1.89438 0
M  V30 30295 H 2804.18 2.29485 -3.13479 0
M  V30 30296 H 2805.85 0.142609 -4.6108 0
M  V30 30297 H 2804.09 0.0647181 -4.33752 0
M  V30 30298 H 2804.76 1.34383 -5.35392 0
M  V30 30299 H 2807.24 2.11041 -3.5861 0
M  V30 30300 H 2806.11 3.15759 -4.48985 0
M  V30 30301 H 2806.37 3.44077 -2.77603 0
M  V30 30302 N 2805.43 1.51555 0.432299 0
M  V30 30303 C 2806.67 1.66135 1.19073 0
M  V30 30304 C 2807.04 0.371906 1.88364 0
M  V30 30305 O 2808.24 0.393537 2.65904 0
M  V30 30306 C 2806.51 2.83465 2.17675 0
M  V30 30307 S 2808.07 3.18402 3.01937 0
M  V30 30308 H 2804.89 0.585258 0.403725 0
M  V30 30309 H 2807.49 1.89477 0.481521 0
M  V30 30310 H 2806.19 3.75586 1.65418 0
M  V30 30311 H 2805.72 2.62327 2.93169 0
M  V30 30312 H 2807.74 2.65226 4.19368 0
M  V30 30313 N 2806.91 -0.688069 1.41786 0
M  V30 30314 C 2808.14 -1.47456 1.44707 0
M  V30 30315 C 2808.55 -1.89126 0.0529493 0
M  V30 30316 O 2807.89 -1.57843 -0.939753 0
M  V30 30317 C 2807.95 -2.76348 2.29939 0
M  V30 30318 C 2807.62 -2.56836 3.78 0
M  V30 30319 C 2808.62 -2.22295 4.6998 0
M  V30 30320 C 2806.3 -2.72243 4.22124 0
M  V30 30321 C 2808.29 -2.03411 6.04072 0
M  V30 30322 C 2805.98 -2.52975 5.5628 0
M  V30 30323 C 2806.98 -2.1861 6.47069 0
M  V30 30324 O 2806.67 -1.99516 7.78748 0
M  V30 30325 H 2806.4 -0.460692 0.494711 0
M  V30 30326 H 2808.95 -0.854024 1.86804 0
M  V30 30327 H 2807.18 -3.40835 1.82669 0
M  V30 30328 H 2808.87 -3.38182 2.24472 0
M  V30 30329 H 2809.64 -2.1 4.37178 0
M  V30 30330 H 2805.52 -2.97973 3.51757 0
M  V30 30331 H 2809.06 -1.76511 6.749 0
M  V30 30332 H 2804.96 -2.64863 5.88658 0
M  V30 30333 H 2805.73 -2.1422 7.8997 0
M  V30 30334 N 2808.39 -1.27739 -0.923072 0
M  V30 30335 C 2809.67 -1.05065 -1.64987 0
M  V30 30336 C 2810.05 0.413087 -2.07019 0
M  V30 30337 O 2809.39 1.39728 -1.80799 0
M  V30 30338 C 2809.6 -2.01657 -2.84843 0
M  V30 30339 C 2810.95 -2.31285 -3.56079 0
M  V30 30340 O 2811.98 -1.99667 -2.94977 0
M  V30 30341 O 2810.84 -2.85204 -4.66177 0
M  V30 30342 H 2807.93 -0.400865 -0.72335 0
M  V30 30343 H 2810.48 -1.39021 -0.9732 0
M  V30 30344 H 2809.25 -3.00351 -2.50808 0
M  V30 30345 H 2808.87 -1.6829 -3.60228 0
M  V30 30346 N 2809.87 1.13022 -1.09836 0
M  V30 30347 C 2811.09 1.88769 -0.859123 0
M  V30 30348 C 2811.52 1.78792 0.58437 0
M  V30 30349 O 2810.88 1.13845 1.41099 0
M  V30 30350 C 2810.92 3.36184 -1.30433 0
M  V30 30351 O 2810.03 4.09765 -0.46544 0
M  V30 30352 H 2809.37 0.586772 -0.310797 0
M  V30 30353 H 2811.9 1.42971 -1.46357 0
M  V30 30354 H 2811.91 3.87017 -1.29157 0
M  V30 30355 H 2810.58 3.42763 -2.35556 0
M  V30 30356 H 2809.16 3.68927 -0.542879 0
M  V30 30357 N 2811.35 0.886177 1.30325 0
M  V30 30358 C 2812.76 0.580349 1.48675 0
M  V30 30359 C 2812.96 -0.881608 1.8119 0
M  V30 30360 O 2812.02 -1.66275 1.90024 0
M  V30 30361 C 2813.33 1.49453 2.6093 0
M  V30 30362 C 2814.88 1.49829 2.7481 0
M  V30 30363 C 2815.35 2.39843 3.90179 0
M  V30 30364 N 2816.85 2.37813 3.97491 0
M  V30 30365 C 2817.58 3.04173 4.86072 0
M  V30 30366 N 2817.08 3.79763 5.79441 0
M  V30 30367 N 2818.87 2.93399 4.79451 0
M  V30 30368 H 2811.02 1.83192 1.07492 0
M  V30 30369 H 2813.28 0.784213 0.532647 0
M  V30 30370 H 2812.99 2.53555 2.43727 0
M  V30 30371 H 2812.86 1.205 3.57435 0
M  V30 30372 H 2815.25 0.464782 2.91417 0
M  V30 30373 H 2815.33 1.82814 1.78921 0
M  V30 30374 H 2814.98 3.4328 3.74328 0
M  V30 30375 H 2814.91 2.04174 4.85408 0
M  V30 30376 H 2817.4 1.82883 3.30699 0
M  V30 30377 H 2817.71 4.27486 6.43798 0
M  V30 30378 H 2816.05 3.8387 5.79369 0
M  V30 30379 H 2819.25 2.33872 4.05489 0
M  V30 30380 H 2819.42 3.45393 5.48277 0
M  V30 30381 N 2812.82 -1.43695 0.647253 0
M  V30 30382 C 2814.24 -1.56475 0.314283 0
M  V30 30383 C 2814.44 -1.63198 -1.18189 0
M  V30 30384 O 2813.5 -1.58379 -1.96652 0
M  V30 30385 C 2814.81 -2.82858 1.02039 0
M  V30 30386 C 2816.36 -2.96593 1.00007 0
M  V30 30387 C 2816.83 -4.258 1.68696 0
M  V30 30388 N 2818.32 -4.32651 1.65432 0
M  V30 30389 C 2819.06 -5.3138 2.1546 0
M  V30 30390 N 2818.55 -6.36422 2.7375 0
M  V30 30391 N 2820.35 -5.22994 2.05994 0
M  V30 30392 H 2812.5 -1.37575 1.61824 0
M  V30 30393 H 2814.76 -0.660332 0.680195 0
M  V30 30394 H 2814.47 -2.83931 2.07547 0
M  V30 30395 H 2814.34 -3.72896 0.568211 0
M  V30 30396 H 2816.73 -2.95063 -0.0465801 0
M  V30 30397 H 2816.81 -2.0786 1.4909 0
M  V30 30398 H 2816.45 -4.2809 2.73315 0
M  V30 30399 H 2816.38 -5.13419 1.17085 0
M  V30 30400 H 2818.87 -3.5736 1.2289 0
M  V30 30401 H 2819.19 -7.08067 3.09614 0
M  V30 30402 H 2817.53 -6.37062 2.77808 0
M  V30 30403 H 2820.72 -4.39846 1.60165 0
M  V30 30404 H 2820.9 -5.9978 2.45292 0
M  V30 30405 N 2814.3 -0.388796 -1.52729 0
M  V30 30406 C 2815.53 0.196174 -2.0647 0
M  V30 30407 C 2815.95 1.39782 -1.25868 0
M  V30 30408 O 2815.31 1.79068 -0.283594 0
M  V30 30409 C 2815.36 0.545037 -3.56457 0
M  V30 30410 O 2814.46 1.63906 -3.78429 0
M  V30 30411 H 2813.8 0.0230553 -0.6636 0
M  V30 30412 H 2816.33 -0.556119 -1.96897 0
M  V30 30413 H 2816.34 0.809487 -3.99889 0
M  V30 30414 H 2815.02 -0.333489 -4.14561 0
M  V30 30415 H 2813.6 1.36836 -3.46887 0
M  V30 30416 N 2815.78 1.57153 -0.118604 0
M  V30 30417 C 2817.19 1.82213 0.406838 0
M  V30 30418 C 2817.54 1.03574 1.66634 0
M  V30 30419 O 2816.67 0.272209 2.14681 0
M  V30 30420 C 2817.26 3.3051 0.744891 0
M  V30 30421 C 2815.82 3.56252 1.21497 0
M  V30 30422 C 2814.97 2.76398 0.223462 0
M  V30 30423 H 2817.92 1.54933 -0.34374 0
M  V30 30424 H 2817.94 3.45117 1.60234 0
M  V30 30425 H 2817.45 3.87719 -0.171979 0
M  V30 30426 H 2815.55 3.044 2.14875 0
M  V30 30427 H 2815.67 4.64831 1.16057 0
M  V30 30428 H 2814.03 2.44592 0.710417 0
M  V30 30429 H 2814.81 3.36366 -0.686498 0
M  V30 30430 N 2817.26 -0.155167 1.56834 0
M  V30 30431 C 2818.67 -0.507523 1.51315 0
M  V30 30432 C 2818.87 -1.83808 0.825647 0
M  V30 30433 O 2817.93 -2.49427 0.392754 0
M  V30 30434 C 2819.24 -0.525368 2.96075 0
M  V30 30435 C 2820.79 -0.611451 3.0697 0
M  V30 30436 C 2821.27 -0.660036 4.53219 0
M  V30 30437 N 2822.76 -0.722484 4.57531 0
M  V30 30438 C 2823.49 -0.780923 5.68057 0
M  V30 30439 N 2822.99 -0.799206 6.88175 0
M  V30 30440 N 2824.78 -0.82118 5.56069 0
M  V30 30441 H 2816.93 0.717098 1.99929 0
M  V30 30442 H 2819.2 0.260512 0.911503 0
M  V30 30443 H 2818.9 0.383936 3.49598 0
M  V30 30444 H 2818.78 -1.36618 3.5159 0
M  V30 30445 H 2821.16 -1.51118 2.53471 0
M  V30 30446 H 2821.24 0.256351 2.54512 0
M  V30 30447 H 2820.89 0.235499 5.07354 0
M  V30 30448 H 2820.82 -1.54421 5.0345 0
M  V30 30449 H 2823.31 -0.715984 3.71055 0
M  V30 30450 H 2823.62 -0.845418 7.68162 0
M  V30 30451 H 2821.97 -0.767216 6.90752 0
M  V30 30452 H 2825.16 -0.80401 4.61143 0
M  V30 30453 H 2825.33 -0.863259 6.42224 0
M  V30 30454 N 2818.74 -1.51782 -0.424256 0
M  V30 30455 C 2820.15 -1.40248 -0.761743 0
M  V30 30456 C 2820.35 -0.495075 -1.95323 0
M  V30 30457 O 2819.41 0.0448505 -2.5246 0
M  V30 30458 C 2820.72 -2.82515 -1.02985 0
M  V30 30459 C 2822.27 -2.91755 -1.13349 0
M  V30 30460 C 2822.74 -4.34957 -1.43445 0
M  V30 30461 N 2824.24 -4.38123 -1.50342 0
M  V30 30462 C 2824.97 -5.4597 -1.75226 0
M  V30 30463 N 2824.47 -6.63958 -1.97815 0
M  V30 30464 N 2826.26 -5.33466 -1.77117 0
M  V30 30465 H 2818.41 -2.09322 0.360265 0
M  V30 30466 H 2820.67 -0.942834 0.0988294 0
M  V30 30467 H 2820.38 -3.50967 -0.226899 0
M  V30 30468 H 2820.25 -3.2264 -1.95405 0
M  V30 30469 H 2822.64 -2.23492 -1.92705 0
M  V30 30470 H 2822.72 -2.55108 -0.187996 0
M  V30 30471 H 2822.37 -5.03773 -0.646121 0
M  V30 30472 H 2822.3 -4.69127 -2.39222 0
M  V30 30473 H 2824.79 -3.53065 -1.34736 0
M  V30 30474 H 2825.1 -7.41939 -2.1621 0
M  V30 30475 H 2823.44 -6.67051 -1.95111 0
M  V30 30476 H 2826.64 -4.4027 -1.58997 0
M  V30 30477 H 2826.81 -6.17593 -1.96172 0
M  V30 30478 N 2820.21 0.68054 -1.42149 0
M  V30 30479 C 2821.63 0.992973 -1.24949 0
M  V30 30480 C 2821.83 2.00944 -0.149562 0
M  V30 30481 O 2820.89 2.47874 0.481101 0
M  V30 30482 C 2822.2 1.50325 -2.60428 0
M  V30 30483 C 2823.75 1.62132 -2.67735 0
M  V30 30484 C 2824.22 2.16558 -4.03568 0
M  V30 30485 N 2825.71 2.23898 -4.05492 0
M  V30 30486 C 2826.45 2.67072 -5.07405 0
M  V30 30487 N 2825.94 3.0974 -6.19704 0
M  V30 30488 N 2827.74 2.6677 -4.94763 0
M  V30 30489 H 2819.89 0.00744146 -2.12399 0
M  V30 30490 H 2822.15 0.0658363 -0.945711 0
M  V30 30491 H 2821.86 0.830887 -3.41744 0
M  V30 30492 H 2821.73 2.48295 -2.83953 0
M  V30 30493 H 2824.12 2.28476 -1.86769 0
M  V30 30494 H 2824.2 0.62667 -2.48005 0
M  V30 30495 H 2823.84 1.50824 -4.84989 0
M  V30 30496 H 2823.77 3.16803 -4.20646 0
M  V30 30497 H 2826.26 1.93807 -3.24419 0
M  V30 30498 H 2826.58 3.41353 -6.93324 0
M  V30 30499 H 2824.92 3.07612 -6.23218 0
M  V30 30500 H 2828.11 2.32794 -4.06109 0
M  V30 30501 H 2828.29 3.00097 -5.74322 0
M  V30 30502 N 2821.69 1.28226 0.916285 0
M  V30 30503 C 2822.62 1.14468 2.03518 0
M  V30 30504 C 2823.6 0.0431143 1.70045 0
M  V30 30505 O 2824.79 0.219653 1.92954 0
M  V30 30506 C 2821.92 0.803087 3.37887 0
M  V30 30507 C 2820.87 1.85914 3.85512 0
M  V30 30508 C 2820.2 1.37125 5.16818 0
M  V30 30509 C 2821.5 3.26526 4.07649 0
M  V30 30510 H 2823.19 2.08068 2.15286 0
M  V30 30511 H 2820.74 1.00176 1.03444 0
M  V30 30512 H 2822.69 0.693611 4.15653 0
M  V30 30513 H 2821.42 -0.168617 3.26164 0
M  V30 30514 H 2820.07 1.95772 3.0995 0
M  V30 30515 H 2819.72 0.388678 5.01496 0
M  V30 30516 H 2819.42 2.07738 5.49653 0
M  V30 30517 H 2820.95 1.27494 5.97141 0
M  V30 30518 H 2822.36 3.19604 4.75948 0
M  V30 30519 H 2820.76 3.94951 4.51811 0
M  V30 30520 H 2821.83 3.70732 3.12547 0
M  V30 30521 N 2823.17 -1.12438 1.10433 0
M  V30 30522 C 2824.1 -2.20257 0.775181 0
M  V30 30523 C 2825.08 -1.68226 -0.25183 0
M  V30 30524 O 2826.27 -1.93844 -0.117603 0
M  V30 30525 C 2823.4 -3.46687 0.206194 0
M  V30 30526 C 2822.35 -4.11871 1.16389 0
M  V30 30527 C 2821.68 -5.32751 0.456108 0
M  V30 30528 C 2822.98 -4.58009 2.51048 0
M  V30 30529 H 2824.67 -2.48047 1.67669 0
M  V30 30530 H 2822.22 -1.19221 0.807616 0
M  V30 30531 H 2824.17 -4.21384 -0.036217 0
M  V30 30532 H 2822.89 -3.18324 -0.730558 0
M  V30 30533 H 2821.55 -3.39154 1.39175 0
M  V30 30534 H 2821.2 -5.00655 -0.485115 0
M  V30 30535 H 2820.9 -5.77312 1.09476 0
M  V30 30536 H 2822.42 -6.10195 0.222243 0
M  V30 30537 H 2823.84 -5.24079 2.3241 0
M  V30 30538 H 2822.24 -5.13347 3.10798 0
M  V30 30539 H 2823.31 -3.71992 3.11046 0
M  V30 30540 N 2824.65 -0.893076 -1.29853 0
M  V30 30541 C 2826.06 -0.56503 -1.77945 0
M  V30 30542 C 2826.41 0.919104 -1.7334 0
M  V30 30543 O 2825.54 1.71845 -1.31523 0
M  V30 30544 C 2826.13 -1.01889 -3.23116 0
M  V30 30545 C 2824.69 -0.742116 -3.69012 0
M  V30 30546 C 2823.84 -1.19732 -2.50119 0
M  V30 30547 H 2826.79 -1.07648 -1.16609 0
M  V30 30548 H 2826.81 -0.351316 -3.78875 0
M  V30 30549 H 2826.32 -2.09909 -3.26435 0
M  V30 30550 H 2824.42 0.325751 -3.71173 0
M  V30 30551 H 2824.54 -1.33535 -4.60114 0
M  V30 30552 H 2822.9 -0.616461 -2.47127 0
M  V30 30553 H 2823.68 -2.28543 -2.5617 0
M  V30 30554 N 2826.13 1.4335 -0.654865 0
M  V30 30555 C 2827.54 1.85038 -0.248538 0
M  V30 30556 C 2827.89 1.54818 1.20523 0
M  V30 30557 O 2827.01 0.997974 1.92014 0
M  V30 30558 C 2827.61 3.35874 -0.4443 0
M  V30 30559 C 2826.17 3.76287 -0.0922769 0
M  V30 30560 C 2825.32 2.67067 -0.746374 0
M  V30 30561 H 2828.27 1.3348 -0.858423 0
M  V30 30562 H 2828.29 3.79238 0.309696 0
M  V30 30563 H 2827.8 3.57838 -1.50246 0
M  V30 30564 H 2825.9 3.59935 0.963217 0
M  V30 30565 H 2826.01 4.76282 -0.51889 0
M  V30 30566 H 2824.38 2.54067 -0.179461 0
M  V30 30567 H 2825.16 2.91858 -1.80759 0
M  V30 30568 N 2827.61 0.39689 1.52521 0
M  V30 30569 C 2828.83 -0.182714 2.06092 0
M  V30 30570 C 2829.25 -1.39884 1.26799 0
M  V30 30571 O 2828.61 -1.79733 0.316616 0
M  V30 30572 C 2828.66 -0.545314 3.57363 0
M  V30 30573 O 2828.38 0.622505 4.33655 0
M  V30 30574 C 2829.88 -1.17997 4.27307 0
M  V30 30575 H 2827.1 -0.0257772 0.670505 0
M  V30 30576 H 2829.64 0.564311 1.9656 0
M  V30 30577 H 2827.8 -1.24223 3.66943 0
M  V30 30578 H 2828.21 0.322754 5.23506 0
M  V30 30579 H 2829.69 -1.38398 5.34369 0
M  V30 30580 H 2830.16 -2.14954 3.83003 0
M  V30 30581 H 2830.77 -0.523597 4.22065 0
M  V30 30582 N 2829.08 -1.57088 0.126936 0
M  V30 30583 C 2830.49 -1.82427 -0.397169 0
M  V30 30584 C 2830.85 -1.04456 -1.66083 0
M  V30 30585 O 2829.97 -0.28359 -2.14534 0
M  V30 30586 C 2830.57 -3.309 -0.727353 0
M  V30 30587 C 2829.12 -3.56891 -1.19606 0
M  V30 30588 C 2828.27 -2.76513 -0.208801 0
M  V30 30589 H 2831.22 -1.54748 0.351951 0
M  V30 30590 H 2831.24 -3.45961 -1.58401 0
M  V30 30591 H 2830.76 -3.87622 0.192538 0
M  V30 30592 H 2828.86 -3.05535 -2.13258 0
M  V30 30593 H 2828.97 -4.6544 -1.1359 0
M  V30 30594 H 2827.33 -2.44965 -0.697436 0
M  V30 30595 H 2828.12 -3.35997 0.704326 0
M  V30 30596 N 2830.56 0.146848 -1.56914 0
M  V30 30597 C 2831.52 1.16523 -1.9737 0
M  V30 30598 C 2832.52 1.35854 -0.860247 0
M  V30 30599 O 2833.71 1.32844 -1.12686 0
M  V30 30600 C 2830.85 2.52551 -2.28978 0
M  V30 30601 H 2832.04 0.818158 -2.88524 0
M  V30 30602 H 2829.59 0.390194 -1.51351 0
M  V30 30603 H 2830.33 2.92229 -1.40616 0
M  V30 30604 H 2830.11 2.3988 -3.10161 0
M  V30 30605 H 2831.6 3.25897 -2.61115 0
M  V30 30606 N 2832.04 1.52005 0.4162 0
M  V30 30607 C 2833.26 1.69846 1.19026 0
M  V30 30608 C 2833.69 0.404136 1.83707 0
M  V30 30609 O 2833.05 -0.637757 1.69713 0
M  V30 30610 C 2833.1 2.83036 2.23434 0
M  V30 30611 O 2832.2 2.48112 3.29415 0
M  V30 30612 H 2831.54 0.56564 0.347775 0
M  V30 30613 H 2834.07 1.98674 0.488836 0
M  V30 30614 H 2834.08 3.07742 2.67879 0
M  V30 30615 H 2832.76 3.76947 1.75738 0
M  V30 30616 H 2831.33 2.34053 2.90299 0
M  V30 30617 N 2833.52 -0.672992 1.42508 0
M  V30 30618 C 2834.47 -1.77916 1.42583 0
M  V30 30619 C 2835.45 -1.58137 0.296913 0
M  V30 30620 O 2836.64 -1.68585 0.539273 0
M  V30 30621 C 2833.77 -3.16388 1.33243 0
M  V30 30622 C 2832.86 -3.41784 2.51087 0
M  V30 30623 N 2833.25 -3.37755 3.76504 0
M  V30 30624 C 2831.55 -3.72427 2.45386 0
M  V30 30625 C 2832.25 -3.62685 4.54791 0
M  V30 30626 N 2831.22 -3.83537 3.85227 0
M  V30 30627 H 2835.03 -1.73197 2.37445 0
M  V30 30628 H 2832.54 -0.8739 1.36882 0
M  V30 30629 H 2834.54 -3.95658 1.31379 0
M  V30 30630 H 2833.2 -3.22303 0.39385 0
M  V30 30631 H 2834.21 -3.17615 4.09073 0
M  V30 30632 H 2830.89 -3.85576 1.60116 0
M  V30 30633 H 2832.28 -3.65516 5.6378 0
M  V30 30634 N 2835 -1.2871 -0.909472 0
M  V30 30635 C 2836.41 -1.0651 -1.1886 0
M  V30 30636 C 2836.61 0.189828 -2.00604 0
M  V30 30637 O 2835.67 0.890314 -2.36283 0
M  V30 30638 C 2836.98 -2.31503 -1.91903 0
M  V30 30639 C 2838.53 -2.36725 -2.04769 0
M  V30 30640 C 2839 -3.61495 -2.81221 0
M  V30 30641 N 2840.49 -3.6216 -2.88781 0
M  V30 30642 C 2841.23 -4.55381 -3.48447 0
M  V30 30643 N 2840.73 -5.58925 -4.09359 0
M  V30 30644 N 2842.52 -4.42969 -3.46027 0
M  V30 30645 H 2834.67 -2.09261 -0.363831 0
M  V30 30646 H 2836.93 -0.921245 -0.223633 0
M  V30 30647 H 2836.64 -3.2295 -1.39269 0
M  V30 30648 H 2836.51 -2.3825 -2.92432 0
M  V30 30649 H 2838.9 -1.45771 -2.56583 0
M  V30 30650 H 2838.98 -2.33969 -1.03404 0
M  V30 30651 H 2838.62 -4.52794 -2.30086 0
M  V30 30652 H 2838.55 -3.61506 -3.82911 0
M  V30 30653 H 2841.05 -2.87287 -2.45508 0
M  V30 30654 H 2841.36 -6.26195 -4.5288 0
M  V30 30655 H 2839.7 -5.62746 -4.0785 0
M  V30 30656 H 2842.89 -3.61275 -2.97654 0
M  V30 30657 H 2843.07 -5.15806 -3.92235 0
M  V30 30658 N 2836.47 1.1185 -1.11028 0
M  V30 30659 C 2837.89 1.355 -0.843318 0
M  V30 30660 C 2838.09 1.94291 0.534145 0
M  V30 30661 O 2837.15 2.17309 1.28581 0
M  V30 30662 C 2838.46 2.29073 -1.94797 0
M  V30 30663 C 2840.01 2.42649 -1.97713 0
M  V30 30664 C 2840.48 3.39541 -3.0737 0
M  V30 30665 N 2841.97 3.47101 -3.06716 0
M  V30 30666 C 2842.71 4.22001 -3.88204 0
M  V30 30667 N 2842.2 4.99913 -4.79644 0
M  V30 30668 N 2844 4.17469 -3.76398 0
M  V30 30669 H 2836.15 0.720503 -1.99806 0
M  V30 30670 H 2838.41 0.379696 -0.86864 0
M  V30 30671 H 2838.12 1.9306 -2.93974 0
M  V30 30672 H 2837.99 3.29253 -1.84045 0
M  V30 30673 H 2840.38 2.77939 -0.991653 0
M  V30 30674 H 2840.46 1.42336 -2.12542 0
M  V30 30675 H 2840.1 3.04978 -4.06141 0
M  V30 30676 H 2840.03 4.39698 -2.89781 0
M  V30 30677 H 2842.52 2.91524 -2.40462 0
M  V30 30678 H 2842.84 5.5442 -5.38366 0
M  V30 30679 H 2841.18 4.99089 -4.83669 0
M  V30 30680 H 2844.37 3.55687 -3.04309 0
M  V30 30681 H 2844.55 4.75586 -4.40139 0
M  V30 30682 N 2837.95 0.89995 1.29378 0
M  V30 30683 C 2839.18 0.540728 2.00227 0
M  V30 30684 C 2839.6 -0.86733 1.6691 0
M  V30 30685 O 2838.96 -1.57734 0.893851 0
M  V30 30686 C 2839.01 0.740294 3.52919 0
M  V30 30687 O 2838.11 -0.207082 4.1188 0
M  V30 30688 H 2837.45 0.211244 0.629501 0
M  V30 30689 H 2839.98 1.21161 1.64867 0
M  V30 30690 H 2839.99 0.645044 4.02869 0
M  V30 30691 H 2838.67 1.76683 3.76505 0
M  V30 30692 H 2837.24 -0.0642659 3.72845 0
M  V30 30693 N 2839.43 -1.43001 0.662458 0
M  V30 30694 C 2840.66 -2.06564 0.186039 0
M  V30 30695 C 2841.08 -1.49381 -1.14311 0
M  V30 30696 O 2840.44 -0.607376 -1.70823 0
M  V30 30697 C 2840.49 -3.60406 0.118333 0
M  V30 30698 O 2839.59 -4.02081 -0.916788 0
M  V30 30699 H 2838.93 -0.656562 0.0991096 0
M  V30 30700 H 2841.46 -1.83349 0.90799 0
M  V30 30701 H 2841.47 -4.07953 -0.0619264 0
M  V30 30702 H 2840.15 -4.01401 1.08856 0
M  V30 30703 H 2838.72 -3.66106 -0.70857 0
M  V30 30704 N 2840.91 -0.404973 -1.52308 0
M  V30 30705 C 2842.16 0.172165 -2.01767 0
M  V30 30706 C 2842.48 1.45496 -1.29078 0
M  V30 30707 O 2841.74 1.91889 -0.384334 0
M  V30 30708 C 2842.04 0.470832 -3.54285 0
M  V30 30709 C 2841.7 -0.722273 -4.45078 0
M  V30 30710 C 2840.37 -1.04955 -4.69615 0
M  V30 30711 C 2842.72 -1.51971 -4.98552 0
M  V30 30712 C 2840.05 -2.17552 -5.44874 0
M  V30 30713 C 2842.4 -2.63642 -5.75044 0
M  V30 30714 C 2841.06 -2.9686 -5.97855 0
M  V30 30715 H 2840.33 0.0629995 -0.738317 0
M  V30 30716 H 2842.98 -0.545539 -1.83565 0
M  V30 30717 H 2841.28 1.27005 -3.70644 0
M  V30 30718 H 2842.98 0.930277 -3.9006 0
M  V30 30719 H 2839.57 -0.457206 -4.26154 0
M  V30 30720 H 2843.75 -1.2801 -4.79507 0
M  V30 30721 H 2839.01 -2.43641 -5.60757 0
M  V30 30722 H 2843.18 -3.25824 -6.15477 0
M  V30 30723 H 2840.81 -3.84226 -6.55953 0
M  V30 30724 N 2842.39 1.57018 -0.135265 0
M  V30 30725 C 2843.33 2.17437 0.82606 0
M  V30 30726 C 2844.33 1.12807 1.26376 0
M  V30 30727 O 2845.53 1.31081 1.23361 0
M  V30 30728 H 2841.91 0.696083 0.284556 0
M  V30 30729 H 2843.88 2.96966 0.29216 0
M  V30 30730 C 2842.63 2.80116 2.05986 0
M  V30 30731 H 2841.95 3.60334 1.73203 0
M  V30 30732 H 2843.39 3.25908 2.71219 0
M  V30 30733 C 2841.85 1.78022 2.86024 0
M  V30 30734 O 2842.38 1.2435 3.81968 0
M  V30 30735 N 2840.59 1.47592 2.5033 0
M  V30 30736 H 2840.13 1.91429 1.72373 0
M  V30 30737 H 2840.09 0.795281 3.04175 0
M  V30 30738 N 2843.86 -0.138524 1.5699 0
M  V30 30739 C 2845.11 -0.849699 1.83811 0
M  V30 30740 C 2845.44 -1.80785 0.717441 0
M  V30 30741 O 2844.69 -1.93496 -0.292863 0
M  V30 30742 C 2844.99 -1.65043 3.1701 0
M  V30 30743 C 2844.66 -0.83832 4.43038 0
M  V30 30744 C 2843.32 -0.614301 4.77263 0
M  V30 30745 C 2845.67 -0.270952 5.20495 0
M  V30 30746 C 2843 0.187655 5.864 0
M  V30 30747 C 2845.35 0.51809 6.30475 0
M  V30 30748 C 2844.02 0.752607 6.63244 0
M  V30 30749 H 2843.29 -0.310927 0.672611 0
M  V30 30750 H 2845.93 -0.112938 1.91167 0
M  V30 30751 H 2844.24 -2.45754 3.05143 0
M  V30 30752 H 2845.94 -2.20431 3.34979 0
M  V30 30753 H 2842.53 -1.023 4.16212 0
M  V30 30754 H 2846.71 -0.431284 4.94423 0
M  V30 30755 H 2841.97 0.378766 6.10226 0
M  V30 30756 H 2846.14 0.964815 6.89684 0
M  V30 30757 H 2843.77 1.37587 7.47646 0
M  V30 30758 N 2845.34 -1.52224 -0.408133 0
M  V30 30759 C 2846.25 -1.78529 -1.52199 0
M  V30 30760 C 2847.27 -0.67092 -1.60545 0
M  V30 30761 O 2848.44 -0.956436 -1.77241 0
M  V30 30762 C 2845.51 -1.93133 -2.87924 0
M  V30 30763 C 2844.57 -3.17038 -2.89457 0
M  V30 30764 C 2843.8 -3.30936 -4.18709 0
M  V30 30765 O 2844.03 -2.50076 -5.12658 0
M  V30 30766 O 2842.96 -4.24092 -4.27118 0
M  V30 30767 H 2846.79 -2.73074 -1.32906 0
M  V30 30768 H 2844.37 -1.3708 -0.594088 0
M  V30 30769 H 2846.25 -2.04556 -3.68422 0
M  V30 30770 H 2844.93 -1.01777 -3.07283 0
M  V30 30771 H 2843.84 -3.11073 -2.07809 0
M  V30 30772 H 2845.17 -4.08178 -2.75048 0
M  V30 30773 N 2846.82 0.665425 -1.42863 0
M  V30 30774 C 2848.06 1.43735 -1.45326 0
M  V30 30775 C 2848.42 1.91869 -0.0708307 0
M  V30 30776 O 2849.63 2.68783 0.029838 0
M  V30 30777 C 2847.9 2.59573 -2.45676 0
M  V30 30778 S 2849.46 3.48283 -2.66916 0
M  V30 30779 H 2846.27 0.4908 -0.514428 0
M  V30 30780 H 2848.88 0.773714 -1.79538 0
M  V30 30781 H 2847.58 2.22465 -3.44873 0
M  V30 30782 H 2847.11 3.308 -2.1292 0
M  V30 30783 H 2849.13 4.55883 -1.95922 0
M  V30 30784 N 2848.3 1.29191 0.902633 0
M  V30 30785 C 2849.23 1.1662 2.02292 0
M  V30 30786 C 2850.21 0.0611474 1.6999 0
M  V30 30787 O 2851.39 0.240106 1.9271 0
M  V30 30788 C 2848.52 0.838879 3.37016 0
M  V30 30789 C 2847.48 1.89993 3.83519 0
M  V30 30790 C 2846.8 1.42598 5.15335 0
M  V30 30791 C 2848.1 3.30832 4.04163 0
M  V30 30792 H 2849.8 2.10339 2.13067 0
M  V30 30793 H 2847.34 1.01268 1.02376 0
M  V30 30794 H 2849.3 0.737657 4.14893 0
M  V30 30795 H 2848.02 -0.134013 3.26325 0
M  V30 30796 H 2846.68 1.99048 3.07856 0
M  V30 30797 H 2846.33 0.441847 5.01056 0
M  V30 30798 H 2846.03 2.13556 5.47419 0
M  V30 30799 H 2847.55 1.3382 5.95755 0
M  V30 30800 H 2848.97 3.24634 4.72531 0
M  V30 30801 H 2847.36 3.99721 4.47597 0
M  V30 30802 H 2848.43 3.74026 3.08597 0
M  V30 30803 N 2849.78 -1.1126 1.1162 0
M  V30 30804 C 2851.19 -1.35051 0.850492 0
M  V30 30805 C 2851.39 -1.94572 -0.523833 0
M  V30 30806 O 2850.45 -2.17988 -1.27427 0
M  V30 30807 C 2851.76 -2.28037 1.96009 0
M  V30 30808 C 2853.31 -2.41597 1.98998 0
M  V30 30809 C 2853.78 -3.37906 3.09166 0
M  V30 30810 N 2855.28 -3.4547 3.08553 0
M  V30 30811 C 2856.01 -4.19936 3.90437 0
M  V30 30812 N 2855.51 -4.97363 4.82288 0
M  V30 30813 N 2857.3 -4.15467 3.78607 0
M  V30 30814 H 2849.45 -0.709897 2.00185 0
M  V30 30815 H 2851.71 -0.375084 0.870641 0
M  V30 30816 H 2851.42 -1.91498 2.94994 0
M  V30 30817 H 2851.29 -3.28272 1.85788 0
M  V30 30818 H 2853.68 -2.7741 1.00638 0
M  V30 30819 H 2853.76 -1.41207 2.13294 0
M  V30 30820 H 2853.41 -3.0282 4.07753 0
M  V30 30821 H 2853.34 -4.38155 2.92109 0
M  V30 30822 H 2855.83 -2.90245 2.42005 0
M  V30 30823 H 2856.14 -5.51557 5.41299 0
M  V30 30824 H 2854.48 -4.96517 4.86309 0
M  V30 30825 H 2857.68 -3.54069 3.06191 0
M  V30 30826 H 2857.85 -4.73245 4.42655 0
M  V30 30827 N 2851.25 -0.906798 -1.28899 0
M  V30 30828 C 2852.67 -0.603928 -1.47732 0
M  V30 30829 C 2852.87 0.85267 -1.8257 0
M  V30 30830 O 2851.93 1.6323 -1.92645 0
M  V30 30831 C 2853.24 -1.53585 -2.58519 0
M  V30 30832 C 2854.79 -1.54182 -2.72391 0
M  V30 30833 C 2855.26 -2.4602 -3.86314 0
M  V30 30834 N 2856.75 -2.44107 -3.93657 0
M  V30 30835 C 2857.49 -3.11868 -4.81172 0
M  V30 30836 N 2856.98 -3.88933 -5.73326 0
M  V30 30837 N 2858.78 -3.0099 -4.74723 0
M  V30 30838 H 2850.93 -1.84879 -1.04564 0
M  V30 30839 H 2853.19 -0.792588 -0.520104 0
M  V30 30840 H 2852.9 -2.574 -2.39662 0
M  V30 30841 H 2852.77 -1.26171 -3.55472 0
M  V30 30842 H 2855.16 -0.511086 -2.90641 0
M  V30 30843 H 2855.24 -1.85637 -1.7599 0
M  V30 30844 H 2854.88 -3.49191 -3.68819 0
M  V30 30845 H 2854.81 -2.11871 -4.82098 0
M  V30 30846 H 2857.3 -1.88121 -3.27748 0
M  V30 30847 H 2857.62 -4.37674 -6.36915 0
M  V30 30848 H 2855.96 -3.93039 -5.73189 0
M  V30 30849 H 2859.15 -2.40293 -4.01717 0
M  V30 30850 H 2859.33 -3.54072 -5.42713 0
M  V30 30851 N 2852.73 1.42648 -0.670032 0
M  V30 30852 C 2853.66 2.29145 0.0501343 0
M  V30 30853 C 2854.68 1.43423 0.770306 0
M  V30 30854 O 2855.87 1.67191 0.625259 0
M  V30 30855 C 2852.97 3.20737 1.09458 0
M  V30 30856 C 2852.14 4.35087 0.449183 0
M  V30 30857 C 2851.2 5.07433 1.39276 0
M  V30 30858 O 2850.22 5.62121 0.894898 0
M  V30 30859 N 2851.43 5.12501 2.72622 0
M  V30 30860 H 2854.19 2.91593 -0.692363 0
M  V30 30861 H 2851.75 1.53521 -0.514083 0
M  V30 30862 H 2853.74 3.66002 1.72698 0
M  V30 30863 H 2852.31 2.59774 1.73886 0
M  V30 30864 H 2851.53 3.92528 -0.362642 0
M  V30 30865 H 2852.82 5.088 -0.00063421 0
M  V30 30866 H 2852.22 4.69472 3.15614 0
M  V30 30867 H 2850.78 5.61428 3.31122 0
M  V30 30868 N 2854.21 0.413044 1.52091 0
M  V30 30869 C 2855.44 -0.163301 2.06756 0
M  V30 30870 C 2855.86 -1.37762 1.28075 0
M  V30 30871 O 2855.22 -1.78594 0.312046 0
M  V30 30872 C 2855.27 -0.488259 3.57279 0
M  V30 30873 O 2854.37 -1.57864 3.80989 0
M  V30 30874 H 2853.71 -0.0124951 0.663882 0
M  V30 30875 H 2856.24 0.587373 1.95987 0
M  V30 30876 H 2856.25 -0.745765 4.01126 0
M  V30 30877 H 2854.93 0.3994 4.13978 0
M  V30 30878 H 2853.5 -1.313 3.4902 0
M  V30 30879 N 2855.69 -1.56945 0.143591 0
M  V30 30880 C 2856.91 -2.0081 -0.518666 0
M  V30 30881 C 2857.34 -1.02301 -1.57849 0
M  V30 30882 O 2856.7 0.00175203 -1.813 0
M  V30 30883 C 2856.75 -3.43438 -1.09923 0
M  V30 30884 O 2855.85 -3.47919 -2.21419 0
M  V30 30885 H 2855.19 -0.651702 -0.127203 0
M  V30 30886 H 2857.72 -2.03196 0.239318 0
M  V30 30887 H 2857.73 -3.82167 -1.42873 0
M  V30 30888 H 2856.41 -4.14643 -0.323089 0
M  V30 30889 H 2854.98 -3.21029 -1.89723 0
M  V30 30890 N 2857.17 0.130197 -1.57061 0
M  V30 30891 C 2858.1 1.18568 -1.96149 0
M  V30 30892 C 2859.11 1.3827 -0.859371 0
M  V30 30893 O 2860.3 1.37543 -1.13772 0
M  V30 30894 C 2857.4 2.54767 -2.23488 0
M  V30 30895 C 2856.57 2.55817 -3.5479 0
M  V30 30896 C 2855.63 3.73679 -3.70473 0
M  V30 30897 O 2854.66 3.57779 -4.42699 0
M  V30 30898 N 2855.86 4.91804 -3.08398 0
M  V30 30899 H 2858.63 0.853283 -2.87296 0
M  V30 30900 H 2856.19 0.319593 -1.58714 0
M  V30 30901 H 2858.18 3.32154 -2.31205 0
M  V30 30902 H 2856.75 2.80232 -1.38523 0
M  V30 30903 H 2855.97 1.64225 -3.58363 0
M  V30 30904 H 2857.26 2.53566 -4.41114 0
M  V30 30905 H 2856.66 5.07626 -2.49665 0
M  V30 30906 H 2855.21 5.66907 -3.21652 0
M  V30 30907 N 2858.65 1.52438 0.400055 0
M  V30 30908 C 2859.56 1.79334 1.5125 0
M  V30 30909 C 2860.57 0.679425 1.60187 0
M  V30 30910 O 2861.75 0.965822 1.76731 0
M  V30 30911 C 2858.81 1.94657 2.86896 0
M  V30 30912 C 2857.87 3.18569 2.87772 0
M  V30 30913 C 2857.11 3.33152 4.16948 0
M  V30 30914 O 2857.33 2.52792 5.11324 0
M  V30 30915 O 2856.26 4.26351 4.24863 0
M  V30 30916 H 2860.09 2.73775 1.31456 0
M  V30 30917 H 2857.67 1.37393 0.58681 0
M  V30 30918 H 2859.56 2.06507 3.67332 0
M  V30 30919 H 2858.23 1.03405 3.06739 0
M  V30 30920 H 2857.14 3.1217 2.06157 0
M  V30 30921 H 2858.47 4.09631 2.72879 0
M  V30 30922 N 2860.12 -0.657839 1.43214 0
M  V30 30923 C 2861.03 -1.80005 1.50451 0
M  V30 30924 C 2862.05 -1.69528 0.39194 0
M  V30 30925 O 2863.23 -1.90779 0.645383 0
M  V30 30926 C 2860.29 -3.16256 1.42067 0
M  V30 30927 C 2859.35 -3.38563 2.63957 0
M  V30 30928 C 2858.58 -4.68314 2.55964 0
M  V30 30929 O 2858.81 -5.47359 1.60483 0
M  V30 30930 O 2857.74 -4.92239 3.46387 0
M  V30 30931 H 2861.57 -1.76854 2.46893 0
M  V30 30932 H 2859.15 -0.815738 1.25164 0
M  V30 30933 H 2861.03 -3.97529 1.39817 0
M  V30 30934 H 2859.71 -3.20007 0.48758 0
M  V30 30935 H 2858.62 -2.57072 2.71781 0
M  V30 30936 H 2859.95 -3.39655 3.56223 0
M  V30 30937 N 2861.6 -1.29668 -0.895769 0
M  V30 30938 C 2862.85 -1.18042 -1.64906 0
M  V30 30939 C 2863.18 0.266648 -1.92361 0
M  V30 30940 O 2862.46 1.19211 -1.53684 0
M  V30 30941 C 2862.74 -1.99824 -2.9957 0
M  V30 30942 C 2862.59 -3.52692 -2.79156 0
M  V30 30943 C 2863.91 -1.82768 -4.00355 0
M  V30 30944 H 2861.03 -0.430175 -0.59843 0
M  V30 30945 H 2863.67 -1.59184 -1.03733 0
M  V30 30946 H 2861.82 -1.64865 -3.51784 0
M  V30 30947 H 2863.49 -3.97654 -2.33814 0
M  V30 30948 H 2861.74 -3.77418 -2.13864 0
M  V30 30949 H 2862.41 -4.05193 -3.74864 0
M  V30 30950 H 2864.88 -2.1331 -3.57265 0
M  V30 30951 H 2863.76 -2.42334 -4.92509 0
M  V30 30952 H 2864.02 -0.783916 -4.35094 0
M  V30 30953 N 2863.08 1.10667 -1.12208 0
M  V30 30954 C 2864.49 1.64084 -0.890685 0
M  V30 30955 C 2864.84 1.87571 0.575469 0
M  V30 30956 O 2863.97 1.61589 1.43937 0
M  V30 30957 C 2864.56 2.98083 -1.61035 0
M  V30 30958 C 2863.12 3.48376 -1.42516 0
M  V30 30959 C 2862.27 2.2303 -1.64782 0
M  V30 30960 H 2865.22 0.941987 -1.2772 0
M  V30 30961 H 2865.24 3.65437 -1.06 0
M  V30 30962 H 2864.75 2.80957 -2.6774 0
M  V30 30963 H 2862.85 3.70651 -0.380562 0
M  V30 30964 H 2862.97 4.26647 -2.17966 0
M  V30 30965 H 2861.33 2.31053 -1.07175 0
M  V30 30966 H 2862.11 2.08438 -2.72779 0
M  V30 30967 N 2864.56 0.913621 1.28416 0
M  V30 30968 C 2865.78 0.561934 1.99642 0
M  V30 30969 C 2866.21 -0.849578 1.67821 0
M  V30 30970 O 2865.57 -1.56777 0.910531 0
M  V30 30971 C 2865.61 0.777684 3.52114 0
M  V30 30972 O 2864.72 -0.163385 4.12076 0
M  V30 30973 H 2864.06 0.217909 0.627226 0
M  V30 30974 H 2866.59 1.22902 1.63573 0
M  V30 30975 H 2866.6 0.687737 4.02162 0
M  V30 30976 H 2865.27 1.80667 3.7461 0
M  V30 30977 H 2863.85 -0.0247172 3.72892 0
M  V30 30978 N 2866.04 -1.4229 0.677588 0
M  V30 30979 C 2867.26 -2.06355 0.207938 0
M  V30 30980 C 2867.69 -1.50585 -1.1272 0
M  V30 30981 O 2867.04 -0.62546 -1.7017 0
M  V30 30982 C 2867.09 -3.6026 0.156552 0
M  V30 30983 O 2866.2 -4.0303 -0.874091 0
M  V30 30984 H 2865.54 -0.655474 0.106068 0
M  V30 30985 H 2868.07 -1.82375 0.927386 0
M  V30 30986 H 2868.08 -4.07996 -0.018654 0
M  V30 30987 H 2866.75 -4.00224 1.13108 0
M  V30 30988 H 2865.33 -3.66837 -0.6697 0
M  V30 30989 N 2867.51 -0.421104 -1.5187 0
M  V30 30990 C 2868.92 0.0457663 -1.86644 0
M  V30 30991 C 2869.28 1.43386 -1.33921 0
M  V30 30992 O 2868.4 2.05327 -0.683352 0
M  V30 30993 C 2869 0.0898249 -3.38681 0
M  V30 30994 C 2867.55 0.501062 -3.7305 0
M  V30 30995 C 2866.7 -0.316772 -2.75485 0
M  V30 30996 H 2869.65 -0.63766 -1.45326 0
M  V30 30997 H 2869.67 0.902669 -3.69638 0
M  V30 30998 H 2869.19 -0.920579 -3.77024 0
M  V30 30999 H 2867.29 1.51767 -3.4029 0
M  V30 31000 H 2867.4 0.237133 -4.78513 0
M  V30 31001 H 2865.76 0.222618 -2.53725 0
M  V30 31002 H 2866.55 -1.32575 -3.16668 0
M  V30 31003 N 2868.99 1.56866 -0.151912 0
M  V30 31004 C 2870.24 1.95457 0.497957 0
M  V30 31005 C 2870.55 1.03956 1.65688 0
M  V30 31006 O 2871.76 1.32146 2.3717 0
M  V30 31007 C 2870.22 3.47482 0.937259 0
M  V30 31008 C 2869.82 4.47575 -0.195 0
M  V30 31009 C 2871.57 3.94929 1.55664 0
M  V30 31010 C 2869.48 5.90816 0.262846 0
M  V30 31011 H 2868.41 0.729721 0.189799 0
M  V30 31012 H 2871.06 1.81963 -0.237043 0
M  V30 31013 H 2869.44 3.56325 1.72767 0
M  V30 31014 H 2870.61 4.50431 -0.97203 0
M  V30 31015 H 2868.93 4.10073 -0.723102 0
M  V30 31016 H 2871.52 4.99388 1.9109 0
M  V30 31017 H 2871.87 3.36759 2.44742 0
M  V30 31018 H 2872.4 3.89023 0.831041 0
M  V30 31019 H 2869.14 6.52815 -0.592683 0
M  V30 31020 H 2868.66 5.91309 1.00565 0
M  V30 31021 H 2870.34 6.43057 0.71322 0
M  V30 31022 N 2870.47 -0.121866 1.57128 0
M  V30 31023 C 2871.72 -0.830156 1.84702 0
M  V30 31024 C 2872.05 -1.80013 0.736575 0
M  V30 31025 O 2871.3 -1.93796 -0.272324 0
M  V30 31026 C 2871.6 -1.61671 3.18743 0
M  V30 31027 C 2871.27 -0.791283 4.43903 0
M  V30 31028 C 2869.93 -0.563647 4.77888 0
M  V30 31029 C 2872.28 -0.215731 5.20753 0
M  V30 31030 C 2869.61 0.24984 5.86168 0
M  V30 31031 C 2871.96 0.584931 6.2989 0
M  V30 31032 C 2870.62 0.82291 6.62408 0
M  V30 31033 H 2869.89 -0.303776 0.675871 0
M  V30 31034 H 2872.54 -0.0926558 1.91276 0
M  V30 31035 H 2870.85 -2.42504 3.07732 0
M  V30 31036 H 2872.54 -2.16866 3.37298 0
M  V30 31037 H 2869.13 -0.978794 4.17274 0
M  V30 31038 H 2873.32 -0.37882 4.94852 0
M  V30 31039 H 2868.57 0.443468 6.0979 0
M  V30 31040 H 2872.75 1.03791 6.88622 0
M  V30 31041 H 2870.37 1.45509 7.46144 0
M  V30 31042 N 2871.95 -1.52648 -0.391965 0
M  V30 31043 C 2873.36 -1.59522 -0.970036 0
M  V30 31044 C 2873.71 -0.44624 -1.91058 0
M  V30 31045 O 2872.84 0.431088 -2.12063 0
M  V30 31046 C 2873.43 -2.89128 -1.76609 0
M  V30 31047 C 2871.99 -2.98424 -2.29391 0
M  V30 31048 C 2871.14 -2.5461 -1.09859 0
M  V30 31049 H 2874.09 -1.57769 -0.17161 0
M  V30 31050 H 2874.11 -2.75447 -2.62506 0
M  V30 31051 H 2873.62 -3.72733 -1.08129 0
M  V30 31052 H 2871.72 -2.1935 -3.01192 0
M  V30 31053 H 2871.83 -4.03006 -2.59081 0
M  V30 31054 H 2870.2 -2.0886 -1.45773 0
M  V30 31055 H 2870.98 -3.40607 -0.42919 0
M  V30 31056 N 2873.43 0.650235 -1.43561 0
M  V30 31057 C 2874.38 1.75625 -1.45395 0
M  V30 31058 C 2875.36 1.57644 -0.322033 0
M  V30 31059 O 2876.55 1.67706 -0.566025 0
M  V30 31060 C 2873.68 3.14228 -1.3826 0
M  V30 31061 C 2872.77 3.37746 -2.56493 0
M  V30 31062 N 2873.16 3.31722 -3.8183 0
M  V30 31063 C 2871.46 3.68476 -2.5128 0
M  V30 31064 C 2872.16 3.55404 -4.60503 0
M  V30 31065 N 2871.13 3.7736 -3.9128 0
M  V30 31066 H 2874.94 1.69398 -2.4017 0
M  V30 31067 H 2872.45 0.852013 -1.38255 0
M  V30 31068 H 2874.45 3.93518 -1.37657 0
M  V30 31069 H 2873.11 3.21635 -0.445076 0
M  V30 31070 H 2874.12 3.11067 -4.14075 0
M  V30 31071 H 2870.79 3.8298 -1.6623 0
M  V30 31072 H 2872.18 3.565 -5.69524 0
M  V30 31073 N 2874.9 1.30141 0.88888 0
M  V30 31074 C 2876.32 1.08387 1.17151 0
M  V30 31075 C 2876.52 -0.15789 2.0088 0
M  V30 31076 O 2875.58 -0.852611 2.3767 0
M  V30 31077 C 2876.89 2.34527 1.88196 0
M  V30 31078 C 2878.44 2.39952 2.00977 0
M  V30 31079 C 2878.91 3.65923 2.75435 0
M  V30 31080 N 2880.4 3.66708 2.82983 0
M  V30 31081 C 2881.14 4.60867 3.41158 0
M  V30 31082 N 2880.63 5.65367 4.00415 0
M  V30 31083 N 2882.43 4.48418 3.38936 0
M  V30 31084 H 2874.58 2.09813 0.330493 0
M  V30 31085 H 2876.84 0.924686 0.208948 0
M  V30 31086 H 2876.55 3.25125 1.34114 0
M  V30 31087 H 2876.42 2.42873 2.88605 0
M  V30 31088 H 2878.81 1.49835 2.54231 0
M  V30 31089 H 2878.89 2.35584 0.996684 0
M  V30 31090 H 2878.53 4.56398 2.22853 0
M  V30 31091 H 2878.46 3.67552 3.77111 0
M  V30 31092 H 2880.95 2.91157 2.40907 0
M  V30 31093 H 2881.27 6.3332 4.4286 0
M  V30 31094 H 2879.61 5.69164 3.98846 0
M  V30 31095 H 2882.8 3.65965 2.91869 0
M  V30 31096 H 2882.98 5.21981 3.83979 0
M  V30 31097 N 2876.38 -1.1007 1.12794 0
M  V30 31098 C 2877.61 -1.85885 0.908538 0
M  V30 31099 C 2878.03 -1.80842 -0.542377 0
M  V30 31100 O 2877.38 -1.19983 -1.37515 0
M  V30 31101 C 2877.43 -3.34132 1.37979 0
M  V30 31102 O 2877.15 -3.39101 2.77384 0
M  V30 31103 C 2878.66 -4.26809 1.19787 0
M  V30 31104 H 2875.88 -0.587366 0.324411 0
M  V30 31105 H 2878.42 -1.39122 1.49884 0
M  V30 31106 H 2876.57 -3.78346 0.832633 0
M  V30 31107 H 2876.99 -4.31516 2.98151 0
M  V30 31108 H 2878.46 -5.29011 1.57644 0
M  V30 31109 H 2878.94 -4.3898 0.138845 0
M  V30 31110 H 2879.55 -3.88403 1.73272 0
M  V30 31111 N 2877.86 -0.920419 -1.2793 0
M  V30 31112 C 2878.82 -0.41862 -2.25345 0
M  V30 31113 C 2879.82 0.458771 -1.54117 0
M  V30 31114 O 2881.01 0.260881 -1.72235 0
M  V30 31115 C 2878.15 0.399044 -3.38556 0
M  V30 31116 H 2879.34 -1.27922 -2.71249 0
M  V30 31117 H 2876.89 -0.700431 -1.39727 0
M  V30 31118 H 2877.63 1.27877 -2.98023 0
M  V30 31119 H 2877.41 -0.229932 -3.91425 0
M  V30 31120 H 2878.9 0.740745 -4.10978 0
M  V30 31121 N 2879.34 1.41929 -0.685124 0
M  V30 31122 C 2880.27 2.33484 -0.0273917 0
M  V30 31123 C 2881.25 1.51248 0.778339 0
M  V30 31124 O 2882.43 1.79818 0.733417 0
M  V30 31125 C 2879.56 3.34969 0.917213 0
M  V30 31126 C 2878.52 4.27438 0.219334 0
M  V30 31127 C 2877.84 5.19213 1.27758 0
M  V30 31128 C 2879.14 5.14347 -0.907984 0
M  V30 31129 H 2880.84 2.88733 -0.792045 0
M  V30 31130 H 2878.38 1.38832 -0.382332 0
M  V30 31131 H 2880.34 3.97937 1.3865 0
M  V30 31132 H 2879.06 2.78046 1.71341 0
M  V30 31133 H 2877.72 3.65879 -0.229822 0
M  V30 31134 H 2877.37 4.58611 2.06604 0
M  V30 31135 H 2877.07 5.81911 0.815701 0
M  V30 31136 H 2878.59 5.85057 1.7476 0
M  V30 31137 H 2880.01 5.70942 -0.519448 0
M  V30 31138 H 2878.4 5.85932 -1.29631 0
M  V30 31139 H 2879.47 4.52133 -1.75226 0
M  V30 31140 N 2880.82 0.429152 1.51644 0
M  V30 31141 C 2882.23 -0.0358675 1.86666 0
M  V30 31142 C 2882.58 -1.42674 1.3468 0
M  V30 31143 O 2881.7 -2.04962 0.694231 0
M  V30 31144 C 2882.3 -0.0718625 3.38724 0
M  V30 31145 C 2880.86 -0.481271 3.73311 0
M  V30 31146 C 2880 0.331377 2.75313 0
M  V30 31147 H 2882.96 0.645358 1.44986 0
M  V30 31148 H 2882.98 -0.883053 3.70111 0
M  V30 31149 H 2882.49 0.940561 3.7653 0
M  V30 31150 H 2880.59 -1.4996 3.41091 0
M  V30 31151 H 2880.7 -0.211753 4.78632 0
M  V30 31152 H 2879.07 -0.209159 2.5384 0
M  V30 31153 H 2879.85 1.34252 3.15961 0
M  V30 31154 N 2882.29 -1.56783 0.160229 0
M  V30 31155 C 2883.22 -2.20431 -0.770225 0
M  V30 31156 C 2884.21 -1.15653 -1.24734 0
M  V30 31157 O 2885.39 -1.44043 -1.30251 0
M  V30 31158 C 2882.52 -2.83634 -2.00422 0
M  V30 31159 C 2881.47 -3.94355 -1.66338 0
M  V30 31160 C 2880.8 -4.44555 -2.97111 0
M  V30 31161 C 2882.1 -5.14489 -0.899882 0
M  V30 31162 H 2883.79 -2.98439 -0.239731 0
M  V30 31163 H 2881.34 -1.43549 -0.113866 0
M  V30 31164 H 2883.29 -3.26831 -2.66006 0
M  V30 31165 H 2882.02 -2.02978 -2.55866 0
M  V30 31166 H 2880.68 -3.51796 -1.03127 0
M  V30 31167 H 2880.32 -3.60704 -3.50573 0
M  V30 31168 H 2880.02 -5.19243 -2.75064 0
M  V30 31169 H 2881.55 -4.90431 -3.63744 0
M  V30 31170 H 2882.96 -5.54448 -1.45808 0
M  V30 31171 H 2881.36 -5.95024 -0.778864 0
M  V30 31172 H 2882.43 -4.84784 0.105912 0
M  V30 31173 N 2883.77 0.113531 -1.57191 0
M  V30 31174 C 2884.72 1.14493 -1.97168 0
M  V30 31175 C 2885.71 1.36775 -0.847437 0
M  V30 31176 O 2886.9 1.37775 -1.11117 0
M  V30 31177 C 2884.03 2.47009 -2.38415 0
M  V30 31178 C 2883.11 2.28179 -3.57484 0
M  V30 31179 N 2883.51 1.79174 -4.73001 0
M  V30 31180 C 2881.8 2.58815 -3.63223 0
M  V30 31181 C 2882.5 1.74181 -5.5501 0
M  V30 31182 N 2881.48 2.18726 -4.97654 0
M  V30 31183 H 2885.28 0.758683 -2.83939 0
M  V30 31184 H 2882.8 0.321206 -1.59192 0
M  V30 31185 H 2884.79 3.21613 -2.65275 0
M  V30 31186 H 2883.45 2.86387 -1.53012 0
M  V30 31187 H 2884.46 1.4864 -4.96111 0
M  V30 31188 H 2881.14 3.01842 -2.8844 0
M  V30 31189 H 2882.53 1.375 -6.5768 0
M  V30 31190 N 2885.25 1.52854 0.383864 0
M  V30 31191 C 2886.18 1.80968 1.47556 0
M  V30 31192 C 2887.16 0.662013 1.56689 0
M  V30 31193 O 2888.35 0.910103 1.71554 0
M  V30 31194 C 2885.48 1.98317 2.8511 0
M  V30 31195 C 2884.43 3.14024 2.90814 0
M  V30 31196 C 2883.76 3.16635 4.30867 0
M  V30 31197 C 2885.06 4.52991 2.59993 0
M  V30 31198 H 2886.75 2.72388 1.24278 0
M  V30 31199 H 2884.3 1.31068 0.596422 0
M  V30 31200 H 2886.25 2.16568 3.61492 0
M  V30 31201 H 2884.97 1.0359 3.09736 0
M  V30 31202 H 2883.63 2.95564 2.16881 0
M  V30 31203 H 2883.28 2.19581 4.52541 0
M  V30 31204 H 2882.98 3.94365 4.35603 0
M  V30 31205 H 2884.51 3.37047 5.09148 0
M  V30 31206 H 2885.92 4.71526 3.26092 0
M  V30 31207 H 2884.32 5.32827 2.76072 0
M  V30 31208 H 2885.39 4.59354 1.55312 0
M  V30 31209 N 2886.73 -0.642612 1.43904 0
M  V30 31210 C 2887.66 -1.7675 1.44342 0
M  V30 31211 C 2888.64 -1.59741 0.303586 0
M  V30 31212 O 2889.82 -1.81781 0.498807 0
M  V30 31213 C 2886.95 -3.14185 1.26514 0
M  V30 31214 C 2886 -3.49871 2.43911 0
M  V30 31215 S 2886.83 -3.48645 4.06456 0
M  V30 31216 C 2887.99 -4.88719 3.9103 0
M  V30 31217 H 2888.22 -1.76109 2.39526 0
M  V30 31218 H 2885.75 -0.816207 1.31063 0
M  V30 31219 H 2887.71 -3.93499 1.16915 0
M  V30 31220 H 2886.37 -3.12376 0.328603 0
M  V30 31221 H 2885.56 -4.49849 2.2727 0
M  V30 31222 H 2885.17 -2.77994 2.50191 0
M  V30 31223 H 2887.46 -5.77653 3.5401 0
M  V30 31224 H 2888.4 -5.10414 4.90799 0
M  V30 31225 H 2888.81 -4.62753 3.23295 0
M  V30 31226 N 2888.21 -1.30611 -0.881966 0
M  V30 31227 C 2889.14 -1.13062 -1.99373 0
M  V30 31228 C 2890.15 -0.0730165 -1.62636 0
M  V30 31229 O 2891.34 -0.319332 -1.7562 0
M  V30 31230 C 2888.44 -0.70271 -3.31535 0
M  V30 31231 C 2887.61 -1.84272 -3.9669 0
M  V30 31232 C 2886.67 -1.40286 -5.07155 0
M  V30 31233 O 2885.7 -2.11057 -5.28624 0
M  V30 31234 N 2886.9 -0.283551 -5.79807 0
M  V30 31235 H 2889.67 -2.08818 -2.14977 0
M  V30 31236 H 2887.23 -1.22786 -1.05523 0
M  V30 31237 H 2889.22 -0.391402 -4.02803 0
M  V30 31238 H 2887.79 0.162899 -3.12175 0
M  V30 31239 H 2887.01 -2.32198 -3.18556 0
M  V30 31240 H 2888.3 -2.6066 -4.3696 0
M  V30 31241 H 2887.7 0.306089 -5.64871 0
M  V30 31242 H 2886.25 -0.031713 -6.51792 0
M  V30 31243 N 2889.69 1.0947 -1.13376 0
M  V30 31244 C 2890.62 2.15932 -0.768504 0
M  V30 31245 C 2891.63 1.61446 0.209556 0
M  V30 31246 O 2892.82 1.78497 -0.0105703 0
M  V30 31247 C 2889.92 3.38693 -0.118326 0
M  V30 31248 C 2889.09 4.22595 -1.12837 0
M  V30 31249 C 2888.15 5.23781 -0.503967 0
M  V30 31250 O 2887.18 5.57174 -1.16384 0
M  V30 31251 N 2888.38 5.75965 0.724187 0
M  V30 31252 H 2891.14 2.47873 -1.68461 0
M  V30 31253 H 2888.71 1.25181 -1.02671 0
M  V30 31254 H 2890.7 4.03498 0.311627 0
M  V30 31255 H 2889.27 3.04645 0.700716 0
M  V30 31256 H 2888.49 3.53935 -1.73562 0
M  V30 31257 H 2889.78 4.75478 -1.81103 0
M  V30 31258 H 2889.17 5.5105 1.27908 0
M  V30 31259 H 2887.73 6.42506 1.09681 0
M  V30 31260 N 2891.16 0.92719 1.2744 0
M  V30 31261 C 2892.1 0.383198 2.25974 0
M  V30 31262 C 2893.11 -0.485805 1.55383 0
M  V30 31263 O 2894.3 -0.29851 1.75986 0
M  V30 31264 C 2891.4 -0.469629 3.3563 0
M  V30 31265 C 2890.57 0.379963 4.35747 0
M  V30 31266 C 2889.63 -0.410135 5.24599 0
M  V30 31267 O 2888.66 0.181988 5.68909 0
M  V30 31268 N 2889.86 -1.71007 5.5474 0
M  V30 31269 H 2892.62 1.2302 2.73288 0
M  V30 31270 H 2890.18 0.794563 1.41061 0
M  V30 31271 H 2892.18 -1.00525 3.92016 0
M  V30 31272 H 2890.75 -1.21738 2.87921 0
M  V30 31273 H 2889.97 1.09689 3.78632 0
M  V30 31274 H 2891.25 0.960805 4.99646 0
M  V30 31275 H 2890.65 -2.21347 5.20598 0
M  V30 31276 H 2889.21 -2.19223 6.13828 0
M  V30 31277 N 2892.64 -1.41564 0.692641 0
M  V30 31278 C 2893.89 -2.00502 0.219487 0
M  V30 31279 C 2894.2 -1.55481 -1.1868 0
M  V30 31280 O 2895.41 -2.06959 -1.75727 0
M  V30 31281 C 2893.87 -3.58276 0.341514 0
M  V30 31282 C 2893.47 -4.1228 1.75299 0
M  V30 31283 C 2895.22 -4.24439 -0.0720153 0
M  V30 31284 C 2893.12 -5.62478 1.82682 0
M  V30 31285 H 2892.05 -0.749923 0.0783006 0
M  V30 31286 H 2894.71 -1.62078 0.860414 0
M  V30 31287 H 2893.09 -3.9429 -0.367614 0
M  V30 31288 H 2894.26 -3.87691 2.49064 0
M  V30 31289 H 2892.58 -3.58632 2.11593 0
M  V30 31290 H 2895.17 -5.34687 -0.0372445 0
M  V30 31291 H 2895.52 -4.01222 -1.11026 0
M  V30 31292 H 2896.05 -3.93449 0.586733 0
M  V30 31293 H 2892.79 -5.90518 2.8455 0
M  V30 31294 H 2892.31 -5.89002 1.13298 0
M  V30 31295 H 2893.99 -6.272 1.58838 0
M  V30 31296 N 2894.12 -0.437188 -1.51415 0
M  V30 31297 C 2895.05 0.419562 -2.2431 0
M  V30 31298 C 2896.03 1.02483 -1.26238 0
M  V30 31299 O 2897.21 1.06732 -1.55372 0
M  V30 31300 C 2894.34 1.58477 -2.99337 0
M  V30 31301 C 2893.39 1.1002 -4.12065 0
M  V30 31302 S 2894.22 0.0423534 -5.35483 0
M  V30 31303 C 2895.38 1.21223 -6.14049 0
M  V30 31304 H 2895.61 -0.199311 -2.96631 0
M  V30 31305 H 2893.14 -0.221707 -1.528 0
M  V30 31306 H 2895.1 2.25276 -3.43163 0
M  V30 31307 H 2893.76 2.17505 -2.26606 0
M  V30 31308 H 2892.95 1.97153 -4.63839 0
M  V30 31309 H 2892.56 0.510442 -3.705 0
M  V30 31310 H 2894.85 2.1306 -6.43126 0
M  V30 31311 H 2895.79 0.734458 -7.04281 0
M  V30 31312 H 2896.2 1.45072 -5.4554 0
M  V30 31313 N 2895.6 1.56696 -0.168541 0
M  V30 31314 C 2896.56 2.1662 0.74889 0
M  V30 31315 C 2897.56 1.11353 1.16005 0
M  V30 31316 O 2898.75 1.36881 1.07746 0
M  V30 31317 C 2895.88 2.74681 2.01899 0
M  V30 31318 H 2897.08 2.99038 0.227265 0
M  V30 31319 H 2894.63 1.5609 0.0810098 0
M  V30 31320 H 2895.36 1.95989 2.58377 0
M  V30 31321 H 2895.15 3.51715 1.73317 0
M  V30 31322 H 2896.64 3.20779 2.67378 0
M  V30 31323 N 2897.08 -0.105193 1.57249 0
M  V30 31324 C 2898.32 -0.81172 1.85847 0
M  V30 31325 C 2898.65 -1.7887 0.75625 0
M  V30 31326 O 2897.93 -1.93054 -0.236702 0
M  V30 31327 C 2898.21 -1.54942 3.25062 0
M  V30 31328 C 2898.07 -0.591106 4.45899 0
M  V30 31329 C 2899.38 -2.50239 3.62034 0
M  V30 31330 H 2896.5 -0.293638 0.675978 0
M  V30 31331 H 2899.15 -0.0755935 1.8985 0
M  V30 31332 H 2897.3 -2.17692 3.2178 0
M  V30 31333 H 2898.97 0.0286162 4.61291 0
M  V30 31334 H 2897.21 0.0963106 4.33693 0
M  V30 31335 H 2897.88 -1.1442 5.40011 0
M  V30 31336 H 2900.36 -1.97586 3.66195 0
M  V30 31337 H 2899.23 -2.98878 4.60395 0
M  V30 31338 H 2899.49 -3.33537 2.90182 0
M  V30 31339 N 2898.55 -1.53055 -0.375752 0
M  V30 31340 C 2899.52 -1.78113 -1.44251 0
M  V30 31341 C 2900.52 -0.651354 -1.47017 0
M  V30 31342 O 2901.71 -0.919498 -1.47956 0
M  V30 31343 C 2898.84 -1.89396 -2.83447 0
M  V30 31344 H 2900.03 -2.73376 -1.23311 0
M  V30 31345 H 2897.59 -1.43978 -0.608287 0
M  V30 31346 H 2898.32 -0.961643 -3.09714 0
M  V30 31347 H 2898.11 -2.7156 -2.82839 0
M  V30 31348 H 2899.6 -2.1041 -3.60718 0
M  V30 31349 N 2900.03 0.634971 -1.44242 0
M  V30 31350 C 2901.28 1.39185 -1.46533 0
M  V30 31351 C 2901.6 1.94755 -0.0976783 0
M  V30 31352 O 2900.87 1.75546 0.869497 0
M  V30 31353 H 2899.45 0.516615 -0.539553 0
M  V30 31354 H 2902.11 0.747623 -1.79991 0
M  V30 31355 H 2901.21 2.22509 -2.18852 0
M  V30 31356 N 2901.51 1.31076 0.875027 0
M  V30 31357 C 2902.44 1.20885 1.99773 0
M  V30 31358 C 2903.42 0.0971911 1.69822 0
M  V30 31359 O 2904.61 0.280929 1.92157 0
M  V30 31360 C 2901.74 0.910176 3.35161 0
M  V30 31361 C 2900.69 1.98085 3.79403 0
M  V30 31362 C 2900.02 1.53497 5.12194 0
M  V30 31363 C 2901.32 3.3933 3.97055 0
M  V30 31364 H 2903.01 2.14812 2.08558 0
M  V30 31365 H 2900.56 1.03416 1.00205 0
M  V30 31366 H 2902.51 0.825496 4.13235 0
M  V30 31367 H 2901.23 -0.0647647 3.26536 0
M  V30 31368 H 2899.89 2.05534 3.03565 0
M  V30 31369 H 2899.54 0.548029 5.00006 0
M  V30 31370 H 2899.24 2.2512 5.42766 0
M  V30 31371 H 2900.76 1.46427 5.92783 0
M  V30 31372 H 2902.18 3.34584 4.65539 0
M  V30 31373 H 2900.58 4.09126 4.39017 0
M  V30 31374 H 2901.65 3.80488 3.00594 0
M  V30 31375 N 2902.99 -1.08867 1.13955 0
M  V30 31376 C 2904.27 -1.77775 0.815799 0
M  V30 31377 C 2904.65 -1.9945 -0.691589 0
M  V30 31378 O 2903.99 -1.60052 -1.63082 0
M  V30 31379 C 2904.2 -3.09686 1.60921 0
M  V30 31380 C 2905.55 -3.84298 1.80556 0
M  V30 31381 O 2906.58 -3.19454 1.57568 0
M  V30 31382 O 2905.43 -5.00721 2.18955 0
M  V30 31383 H 2902.53 -0.771266 0.298458 0
M  V30 31384 H 2905.07 -1.15372 1.24448 0
M  V30 31385 H 2903.85 -2.89431 2.63336 0
M  V30 31386 H 2903.47 -3.79815 1.17584 0
M  V30 31387 N 2904.47 -0.933936 -1.26946 0
M  V30 31388 C 2905.69 -0.593624 -1.98723 0
M  V30 31389 C 2906.12 0.822772 -1.69151 0
M  V30 31390 O 2905.47 1.55309 -0.935357 0
M  V30 31391 C 2905.52 -0.833604 -3.50832 0
M  V30 31392 O 2904.63 0.0978064 -4.12284 0
M  V30 31393 H 2903.97 -0.22786 -0.623679 0
M  V30 31394 H 2906.5 -1.25489 -1.61597 0
M  V30 31395 H 2906.51 -0.75163 -4.01017 0
M  V30 31396 H 2905.18 -1.86604 -3.71688 0
M  V30 31397 H 2903.76 -0.0346098 -3.72884 0
M  V30 31398 N 2905.94 1.41194 -0.700139 0
M  V30 31399 C 2907.17 2.05998 -0.240741 0
M  V30 31400 C 2907.59 1.52359 1.1031 0
M  V30 31401 O 2906.95 0.652454 1.69153 0
M  V30 31402 C 2907 3.59965 -0.213846 0
M  V30 31403 O 2906.1 4.0437 0.809862 0
M  V30 31404 H 2905.45 0.653703 -0.116482 0
M  V30 31405 H 2907.98 1.80877 -0.956283 0
M  V30 31406 H 2907.99 4.07974 -0.0462569 0
M  V30 31407 H 2906.66 3.98374 -1.19461 0
M  V30 31408 H 2905.24 3.67856 0.611255 0
M  V30 31409 N 2907.42 0.445212 1.51181 0
M  V30 31410 C 2908.37 -0.36225 2.27939 0
M  V30 31411 C 2909.34 -1.00998 1.31866 0
M  V30 31412 O 2910.52 -1.02738 1.60778 0
M  V30 31413 C 2907.66 -1.45305 3.13018 0
M  V30 31414 C 2906.78 -0.822682 4.24094 0
M  V30 31415 C 2905.91 -1.8892 4.9647 0
M  V30 31416 C 2904.95 -1.23768 5.99456 0
M  V30 31417 N 2904.09 -2.2459 6.6521 0
M  V30 31418 H 2908.93 0.298672 2.96499 0
M  V30 31419 H 2906.47 0.159136 1.46237 0
M  V30 31420 H 2908.42 -2.09686 3.60677 0
M  V30 31421 H 2907.05 -2.0835 2.46557 0
M  V30 31422 H 2906.11 -0.0669696 3.80341 0
M  V30 31423 H 2907.42 -0.307096 4.97854 0
M  V30 31424 H 2906.57 -2.60943 5.47717 0
M  V30 31425 H 2905.31 -2.43853 4.22359 0
M  V30 31426 H 2904.32 -0.502945 5.47495 0
M  V30 31427 H 2905.54 -0.695575 6.75528 0
M  V30 31428 H 2903.49 -2.78589 5.93906 0
M  V30 31429 H 2903.4 -1.77945 7.3476 0
M  V30 31430 H 2904.67 -2.96073 7.21083 0
M  V30 31431 N 2908.9 -1.56605 0.176849 0
M  V30 31432 C 2909.86 -2.17014 -0.737391 0
M  V30 31433 C 2910.86 -1.11967 -1.15412 0
M  V30 31434 O 2912.05 -1.37451 -1.07018 0
M  V30 31435 C 2909.19 -2.75748 -2.0044 0
M  V30 31436 H 2910.38 -2.99154 -0.211403 0
M  V30 31437 H 2907.93 -1.56131 -0.0727308 0
M  V30 31438 H 2908.67 -1.97357 -2.57334 0
M  V30 31439 H 2908.45 -3.52629 -1.7145 0
M  V30 31440 H 2909.94 -3.22192 -2.65673 0
M  V30 31441 N 2910.38 0.0968524 -1.57302 0
M  V30 31442 C 2911.31 1.14381 -1.9862 0
M  V30 31443 C 2912.32 1.36416 -0.888507 0
M  V30 31444 O 2913.51 1.35099 -1.16664 0
M  V30 31445 C 2910.61 2.49969 -2.28842 0
M  V30 31446 C 2909.79 2.48234 -3.60137 0
M  V30 31447 C 2908.84 3.65737 -3.78316 0
M  V30 31448 O 2907.87 3.48308 -4.50189 0
M  V30 31449 N 2909.07 4.85152 -3.1876 0
M  V30 31450 H 2911.84 0.792151 -2.89042 0
M  V30 31451 H 2909.4 0.285855 -1.59356 0
M  V30 31452 H 2911.39 3.27175 -2.38199 0
M  V30 31453 H 2909.96 2.77231 -1.44436 0
M  V30 31454 H 2909.18 1.56587 -3.61765 0
M  V30 31455 H 2910.47 2.44152 -4.46394 0
M  V30 31456 H 2909.87 5.02216 -2.60377 0
M  V30 31457 H 2908.42 5.59956 -3.33605 0
M  V30 31458 N 2911.86 1.53252 0.36763 0
M  V30 31459 C 2912.8 1.79545 1.45024 0
M  V30 31460 C 2913.77 0.639717 1.53287 0
M  V30 31461 O 2914.96 0.881683 1.69207 0
M  V30 31462 C 2912.1 1.98928 2.81996 0
M  V30 31463 C 2911.21 3.26643 2.82717 0
M  V30 31464 C 2910.35 3.36224 4.11251 0
M  V30 31465 C 2909.39 4.57979 4.06105 0
M  V30 31466 N 2908.52 4.64725 5.26285 0
M  V30 31467 H 2913.36 2.71926 1.21903 0
M  V30 31468 H 2910.9 1.34706 0.590988 0
M  V30 31469 H 2912.86 2.08152 3.61564 0
M  V30 31470 H 2911.49 1.09886 3.03521 0
M  V30 31471 H 2910.54 3.26382 1.95394 0
M  V30 31472 H 2911.85 4.16286 2.74787 0
M  V30 31473 H 2911.01 3.44748 4.99233 0
M  V30 31474 H 2909.74 2.44593 4.21931 0
M  V30 31475 H 2908.75 4.49557 3.1651 0
M  V30 31476 H 2909.97 5.50949 3.97029 0
M  V30 31477 H 2907.92 3.75994 5.37554 0
M  V30 31478 H 2907.84 5.48269 5.20516 0
M  V30 31479 H 2909.11 4.7753 6.16105 0
M  V30 31480 N 2913.34 -0.627313 1.44577 0
M  V30 31481 C 2914.57 -1.41186 1.50831 0
M  V30 31482 C 2914.97 -1.88731 0.133116 0
M  V30 31483 O 2914.32 -1.61687 -0.871961 0
M  V30 31484 C 2914.38 -2.66347 2.41453 0
M  V30 31485 C 2914.04 -2.40572 3.88554 0
M  V30 31486 C 2915.04 -2.02162 4.78985 0
M  V30 31487 C 2912.72 -2.54094 4.33291 0
M  V30 31488 C 2914.72 -1.77607 6.12156 0
M  V30 31489 C 2912.41 -2.29153 5.66509 0
M  V30 31490 C 2913.4 -1.90969 6.55759 0
M  V30 31491 O 2913.09 -1.66307 7.86509 0
M  V30 31492 H 2912.82 -0.439295 0.513805 0
M  V30 31493 H 2915.38 -0.774026 1.90258 0
M  V30 31494 H 2913.61 -3.32781 1.96961 0
M  V30 31495 H 2915.3 -3.28357 2.38614 0
M  V30 31496 H 2916.06 -1.91269 4.45692 0
M  V30 31497 H 2911.94 -2.82785 3.64079 0
M  V30 31498 H 2915.49 -1.47727 6.81779 0
M  V30 31499 H 2911.38 -2.39657 5.99362 0
M  V30 31500 H 2912.15 -1.80522 7.98345 0
M  V30 31501 N 2914.81 -1.31539 -0.868063 0
M  V30 31502 C 2916.04 -1.24435 -1.65924 0
M  V30 31503 C 2916.46 0.186903 -1.87169 0
M  V30 31504 O 2915.82 1.13369 -1.41482 0
M  V30 31505 C 2915.87 -1.99565 -3.00343 0
M  V30 31506 O 2914.97 -1.33429 -3.90218 0
M  V30 31507 H 2914.31 -0.429521 -0.506367 0
M  V30 31508 H 2916.84 -1.73639 -1.08216 0
M  V30 31509 H 2916.85 -2.09233 -3.50265 0
M  V30 31510 H 2915.53 -3.0365 -2.842 0
M  V30 31511 H 2914.11 -1.32225 -3.4867 0
M  V30 31512 N 2916.29 1.08262 -1.1453 0
M  V30 31513 C 2917.7 1.62158 -0.92529 0
M  V30 31514 C 2918.05 1.88749 0.535553 0
M  V30 31515 O 2917.18 1.64606 1.40477 0
M  V30 31516 C 2917.77 2.946 -1.67321 0
M  V30 31517 C 2916.33 3.45275 -1.49874 0
M  V30 31518 C 2915.48 2.19484 -1.69475 0
M  V30 31519 H 2918.43 0.914684 -1.29689 0
M  V30 31520 H 2918.45 3.63107 -1.13727 0
M  V30 31521 H 2917.96 2.75215 -2.73639 0
M  V30 31522 H 2916.06 3.69761 -0.459097 0
M  V30 31523 H 2916.18 4.21927 -2.26967 0
M  V30 31524 H 2914.54 2.28728 -1.12052 0
M  V30 31525 H 2915.32 2.02605 -2.77139 0
M  V30 31526 N 2917.77 0.940655 1.26449 0
M  V30 31527 C 2918.99 0.604155 1.98405 0
M  V30 31528 C 2919.42 -0.81379 1.69585 0
M  V30 31529 O 2918.78 -1.5481 0.943581 0
M  V30 31530 C 2918.83 0.852197 3.50385 0
M  V30 31531 O 2917.93 -0.0759406 4.1233 0
M  V30 31532 H 2917.27 0.231164 0.622462 0
M  V30 31533 H 2919.8 1.26344 1.60929 0
M  V30 31534 H 2919.81 0.772887 4.00613 0
M  V30 31535 H 2918.49 1.88572 3.70693 0
M  V30 31536 H 2917.06 0.0543843 3.7286 0
M  V30 31537 N 2919.25 -1.40821 0.707617 0
M  V30 31538 C 2920.2 -2.27985 0.0265409 0
M  V30 31539 C 2921.18 -1.42839 -0.74066 0
M  V30 31540 O 2922.37 -1.66003 -0.614171 0
M  V30 31541 C 2919.5 -3.31284 -0.900324 0
M  V30 31542 C 2918.59 -4.23905 -0.128733 0
M  V30 31543 N 2918.98 -4.98018 0.883831 0
M  V30 31544 C 2917.28 -4.44525 -0.362461 0
M  V30 31545 C 2917.98 -5.65895 1.34676 0
M  V30 31546 N 2916.95 -5.3945 0.670401 0
M  V30 31547 H 2920.76 -2.82725 0.802717 0
M  V30 31548 H 2918.27 -1.53177 0.539502 0
M  V30 31549 H 2920.27 -3.92565 -1.4035 0
M  V30 31550 H 2918.93 -2.78103 -1.67596 0
M  V30 31551 H 2919.94 -5.02227 1.26444 0
M  V30 31552 H 2916.62 -4.02334 -1.11505 0
M  V30 31553 H 2918.01 -6.35288 2.18767 0
M  V30 31554 N 2920.73 -0.453223 -1.50943 0
M  V30 31555 C 2921.95 0.108426 -2.07116 0
M  V30 31556 C 2922.38 1.34318 -1.31683 0
M  V30 31557 O 2921.73 1.77704 -0.359288 0
M  V30 31558 C 2921.78 0.393361 -3.58448 0
M  V30 31559 O 2920.89 1.47708 -3.85041 0
M  V30 31560 H 2920.23 -0.00511097 -0.66398 0
M  V30 31561 H 2922.76 -0.639129 -1.94361 0
M  V30 31562 H 2922.77 0.639151 -4.02963 0
M  V30 31563 H 2921.44 -0.509019 -4.12773 0
M  V30 31564 H 2920.02 1.22 -3.52378 0
M  V30 31565 N 2922.2 1.56509 -0.185151 0
M  V30 31566 C 2923.43 2.01674 0.462104 0
M  V30 31567 C 2923.85 1.06534 1.55871 0
M  V30 31568 O 2923.2 0.0685126 1.82371 0
M  V30 31569 C 2923.25 3.46586 1.02764 0
M  V30 31570 O 2922.98 4.38093 -0.0252066 0
M  V30 31571 C 2924.48 4.0722 1.75176 0
M  V30 31572 H 2921.7 0.660723 0.116989 0
M  V30 31573 H 2924.24 2.0242 -0.290941 0
M  V30 31574 H 2922.4 3.46571 1.73111 0
M  V30 31575 H 2922.81 5.23016 0.394295 0
M  V30 31576 H 2924.28 5.10498 2.0999 0
M  V30 31577 H 2924.76 3.50106 2.65184 0
M  V30 31578 H 2925.37 4.10979 1.09438 0
M  V30 31579 N 2923.68 -0.0885089 1.57351 0
M  V30 31580 C 2925.1 -0.442889 1.53332 0
M  V30 31581 C 2925.3 -1.80141 0.902863 0
M  V30 31582 O 2924.35 -2.47536 0.498191 0
M  V30 31583 C 2925.67 -0.399319 2.98037 0
M  V30 31584 C 2927.21 -0.480705 3.09287 0
M  V30 31585 C 2927.69 -0.467216 4.55611 0
M  V30 31586 N 2929.18 -0.527779 4.60183 0
M  V30 31587 C 2929.92 -0.539287 5.70858 0
M  V30 31588 N 2929.41 -0.506608 6.90945 0
M  V30 31589 N 2931.2 -0.584593 5.59052 0
M  V30 31590 H 2923.36 0.801249 1.96707 0
M  V30 31591 H 2925.62 0.298938 0.899633 0
M  V30 31592 H 2925.32 0.531867 3.47655 0
M  V30 31593 H 2925.2 -1.21583 3.57068 0
M  V30 31594 H 2927.59 -1.40231 2.59652 0
M  V30 31595 H 2927.67 0.364067 2.53196 0
M  V30 31596 H 2927.31 0.450473 5.05898 0
M  V30 31597 H 2927.24 -1.32929 5.09546 0
M  V30 31598 H 2929.73 -0.557963 3.73758 0
M  V30 31599 H 2930.04 -0.518854 7.71056 0
M  V30 31600 H 2928.39 -0.473554 6.93385 0
M  V30 31601 H 2931.58 -0.607699 4.64139 0
M  V30 31602 H 2931.75 -0.590093 6.45308 0
M  V30 31603 N 2925.16 -1.53445 -0.359498 0
M  V30 31604 C 2926.38 -1.74146 -1.12641 0
M  V30 31605 C 2926.81 -0.472039 -1.82081 0
M  V30 31606 O 2926.17 0.57433 -1.71963 0
M  V30 31607 C 2926.22 -2.91134 -2.12776 0
M  V30 31608 O 2925.32 -2.60167 -3.19979 0
M  V30 31609 H 2924.66 -0.578157 -0.326542 0
M  V30 31610 H 2927.19 -2.00352 -0.414763 0
M  V30 31611 H 2927.2 -3.17472 -2.56273 0
M  V30 31612 H 2925.88 -3.83209 -1.61627 0
M  V30 31613 H 2924.45 -2.44666 -2.81412 0
M  V30 31614 N 2926.64 0.619637 -1.44908 0
M  V30 31615 C 2927.88 1.37911 -1.49506 0
M  V30 31616 C 2928.24 1.91959 -0.130192 0
M  V30 31617 O 2927.53 1.71404 0.856233 0
M  V30 31618 C 2927.73 2.55404 -2.50007 0
M  V30 31619 C 2927.55 2.12861 -3.96132 0
M  V30 31620 C 2926.32 1.99598 -4.64208 0
M  V30 31621 C 2928.52 1.71065 -4.85017 0
M  V30 31622 N 2926.5 1.50737 -5.95106 0
M  V30 31623 C 2927.88 1.33533 -6.05449 0
M  V30 31624 C 2929.93 1.58548 -4.71982 0
M  V30 31625 C 2928.63 0.847358 -7.14291 0
M  V30 31626 C 2930.66 1.11155 -5.8086 0
M  V30 31627 C 2930.02 0.745809 -7.00441 0
M  V30 31628 H 2926.12 0.499024 -0.602079 0
M  V30 31629 H 2928.7 0.709648 -1.81307 0
M  V30 31630 H 2926.88 3.19963 -2.20178 0
M  V30 31631 H 2928.61 3.22244 -2.44828 0
M  V30 31632 H 2925.36 2.2041 -4.19186 0
M  V30 31633 H 2925.79 1.28574 -6.64679 0
M  V30 31634 H 2930.43 1.85454 -3.79956 0
M  V30 31635 H 2928.15 0.565832 -8.06117 0
M  V30 31636 H 2931.73 1.01913 -5.72804 0
M  V30 31637 H 2930.61 0.38471 -7.83256 0
M  V30 31638 N 2928.12 1.31997 0.861075 0
M  V30 31639 C 2929.08 1.20342 1.95065 0
M  V30 31640 C 2930.08 0.128143 1.60289 0
M  V30 31641 O 2931.27 0.378074 1.70048 0
M  V30 31642 C 2928.4 0.849263 3.30152 0
M  V30 31643 H 2929.59 2.17167 2.06829 0
M  V30 31644 H 2927.15 1.15736 1.05047 0
M  V30 31645 H 2927.88 -0.117451 3.24087 0
M  V30 31646 H 2927.67 1.62662 3.56768 0
M  V30 31647 H 2929.16 0.791854 4.10024 0
M  V30 31648 N 2929.59 -1.07653 1.15103 0
M  V30 31649 C 2930.82 -1.83916 0.947763 0
M  V30 31650 C 2931.24 -1.81951 -0.503895 0
M  V30 31651 O 2930.59 -1.22873 -1.34939 0
M  V30 31652 C 2930.65 -3.3113 1.45035 0
M  V30 31653 O 2930.37 -3.33141 2.84514 0
M  V30 31654 C 2931.87 -4.24172 1.28814 0
M  V30 31655 H 2929.09 -0.580352 0.336797 0
M  V30 31656 H 2931.63 -1.35912 1.52801 0
M  V30 31657 H 2929.79 -3.76495 0.912698 0
M  V30 31658 H 2930.2 -4.25095 3.07237 0
M  V30 31659 H 2931.67 -5.25548 1.68829 0
M  V30 31660 H 2932.15 -4.38587 0.231928 0
M  V30 31661 H 2932.76 -3.8464 1.81472 0
M  V30 31662 N 2931.07 -0.947348 -1.25949 0
M  V30 31663 C 2932.48 -0.639994 -1.75388 0
M  V30 31664 C 2932.83 0.844757 -1.77083 0
M  V30 31665 O 2931.96 1.66112 -1.38693 0
M  V30 31666 C 2932.55 -1.15501 -3.18504 0
M  V30 31667 C 2931.11 -0.897959 -3.65532 0
M  V30 31668 C 2930.26 -1.30232 -2.44816 0
M  V30 31669 H 2933.21 -1.12497 -1.11938 0
M  V30 31670 H 2933.23 -0.511694 -3.77044 0
M  V30 31671 H 2932.74 -2.23565 -3.17239 0
M  V30 31672 H 2930.85 0.168031 -3.72221 0
M  V30 31673 H 2930.96 -1.5293 -4.54037 0
M  V30 31674 H 2929.32 -0.720721 -2.4429 0
M  V30 31675 H 2930.11 -2.39202 -2.46246 0
M  V30 31676 N 2932.55 1.40444 -0.715075 0
M  V30 31677 C 2933.96 1.83818 -0.326796 0
M  V30 31678 C 2934.31 1.59791 1.13848 0
M  V30 31679 O 2933.44 1.07852 1.87609 0
M  V30 31680 C 2934.03 3.33687 -0.586356 0
M  V30 31681 C 2932.59 3.75557 -0.25179 0
M  V30 31682 C 2931.74 2.63661 -0.858974 0
M  V30 31683 H 2934.69 1.29719 -0.914264 0
M  V30 31684 H 2934.71 3.8021 0.148569 0
M  V30 31685 H 2934.22 3.51143 -1.65288 0
M  V30 31686 H 2932.32 3.63696 0.80969 0
M  V30 31687 H 2932.44 4.73652 -0.720431 0
M  V30 31688 H 2930.8 2.53077 -0.287058 0
M  V30 31689 H 2931.58 2.83929 -1.92975 0
M  V30 31690 N 2934.03 0.461222 1.507 0
M  V30 31691 C 2934.99 -0.326639 2.26861 0
M  V30 31692 C 2935.99 -0.929061 1.31244 0
M  V30 31693 O 2937.18 -0.799779 1.54755 0
M  V30 31694 C 2934.31 -1.46435 3.07847 0
M  V30 31695 H 2935.51 0.341148 2.97953 0
M  V30 31696 H 2933.06 0.215011 1.54814 0
M  V30 31697 H 2933.79 -2.16749 2.41227 0
M  V30 31698 H 2933.58 -1.03829 3.78103 0
M  V30 31699 H 2935.07 -2.02038 3.65473 0
M  V30 31700 N 2935.51 -1.56408 0.193449 0
M  V30 31701 C 2936.73 -2.01916 -0.451402 0
M  V30 31702 C 2937.15 -1.07359 -1.55304 0
M  V30 31703 O 2936.51 -0.0781832 -1.82332 0
M  V30 31704 C 2936.56 -3.47126 -1.00925 0
M  V30 31705 O 2936.28 -4.38073 0.0484393 0
M  V30 31706 C 2937.78 -4.08143 -1.73014 0
M  V30 31707 H 2935 -0.661334 -0.113484 0
M  V30 31708 H 2937.54 -2.02263 0.301671 0
M  V30 31709 H 2935.7 -3.47484 -1.71271 0
M  V30 31710 H 2936.11 -5.23218 -0.366552 0
M  V30 31711 H 2937.59 -5.11605 -2.0728 0
M  V30 31712 H 2938.06 -3.51507 -2.63324 0
M  V30 31713 H 2938.67 -4.11553 -1.07257 0
M  V30 31714 N 2936.98 0.0801629 -1.57396 0
M  V30 31715 C 2938.4 0.632971 -1.75643 0
M  V30 31716 C 2938.75 1.78346 -0.817739 0
M  V30 31717 O 2937.87 2.164 0.000195706 0
M  V30 31718 C 2938.47 1.15501 -3.18504 0
M  V30 31719 C 2937.03 1.65375 -3.38124 0
M  V30 31720 C 2936.17 0.569613 -2.71387 0
M  V30 31721 H 2939.12 -0.145977 -1.58027 0
M  V30 31722 H 2939.14 2.02402 -3.22201 0
M  V30 31723 H 2938.66 0.317447 -3.868 0
M  V30 31724 H 2936.76 2.51484 -2.7493 0
M  V30 31725 H 2936.87 1.73646 -4.46524 0
M  V30 31726 H 2935.23 1.01266 -2.33704 0
M  V30 31727 H 2936.02 -0.257621 -3.42332 0
M  V30 31728 N 2938.46 1.53634 0.351355 0
M  V30 31729 C 2939.87 1.62038 0.9274 0
M  V30 31730 C 2940.22 0.496739 1.89808 0
M  V30 31731 O 2939.35 -0.374712 2.13131 0
M  V30 31732 C 2939.94 2.93709 1.68881 0
M  V30 31733 C 2938.5 3.04401 2.21398 0
M  V30 31734 C 2937.65 2.57433 1.0307 0
M  V30 31735 H 2940.6 1.58169 0.12972 0
M  V30 31736 H 2940.62 2.8231 2.55111 0
M  V30 31737 H 2940.13 3.75469 0.982083 0
M  V30 31738 H 2938.24 2.27258 2.9527 0
M  V30 31739 H 2938.35 4.09734 2.48305 0
M  V30 31740 H 2936.71 2.12651 1.40184 0
M  V30 31741 H 2937.5 3.41625 0.338733 0
M  V30 31742 N 2939.94 -0.611943 1.45234 0
M  V30 31743 C 2941.17 -1.39578 1.5232 0
M  V30 31744 C 2941.58 -1.88579 0.153126 0
M  V30 31745 O 2940.92 -1.62602 -0.854763 0
M  V30 31746 C 2940.98 -2.63771 2.44265 0
M  V30 31747 C 2940.65 -2.36438 3.91083 0
M  V30 31748 C 2941.64 -1.9707 4.81102 0
M  V30 31749 C 2939.33 -2.49484 4.35962 0
M  V30 31750 C 2941.32 -1.71104 6.14005 0
M  V30 31751 C 2939.01 -2.23132 5.68907 0
M  V30 31752 C 2940.01 -1.84003 6.57748 0
M  V30 31753 O 2939.7 -1.57956 7.88229 0
M  V30 31754 H 2939.43 -0.433821 0.518435 0
M  V30 31755 H 2941.98 -0.753803 1.91068 0
M  V30 31756 H 2940.21 -3.30673 2.0048 0
M  V30 31757 H 2941.9 -3.25808 2.42083 0
M  V30 31758 H 2942.67 -1.86531 4.47695 0
M  V30 31759 H 2938.55 -2.78908 3.67058 0
M  V30 31760 H 2942.09 -1.40488 6.83307 0
M  V30 31761 H 2937.99 -2.33287 6.0187 0
M  V30 31762 H 2938.76 -1.72044 8.00214 0
M  V30 31763 N 2941.42 -1.32452 -0.854063 0
M  V30 31764 C 2942.83 -1.11455 -1.14236 0
M  V30 31765 C 2943.03 0.104575 -2.01228 0
M  V30 31766 O 2942.09 0.789297 -2.39847 0
M  V30 31767 C 2943.4 -2.39434 -1.81912 0
M  V30 31768 C 2944.95 -2.45197 -1.94545 0
M  V30 31769 C 2945.43 -3.73097 -2.65636 0
M  V30 31770 N 2946.92 -3.74082 -2.7316 0
M  V30 31771 C 2947.65 -4.6975 -3.28819 0
M  V30 31772 N 2947.15 -5.75784 -3.85284 0
M  V30 31773 N 2948.94 -4.57247 -3.26928 0
M  V30 31774 H 2941.09 -2.10616 -0.274749 0
M  V30 31775 H 2943.36 -0.929901 -0.184358 0
M  V30 31776 H 2943.06 -3.28567 -1.25446 0
M  V30 31777 H 2942.94 -2.50439 -2.82064 0
M  V30 31778 H 2945.32 -1.56523 -2.50169 0
M  V30 31779 H 2945.4 -2.38144 -0.933872 0
M  V30 31780 H 2945.05 -4.62146 -2.10675 0
M  V30 31781 H 2944.98 -3.77421 -3.67234 0
M  V30 31782 H 2947.47 -2.97442 -2.33103 0
M  V30 31783 H 2947.78 -6.44839 -4.25913 0
M  V30 31784 H 2946.13 -5.79538 -3.83615 0
M  V30 31785 H 2949.32 -3.73575 -2.82063 0
M  V30 31786 H 2949.49 -5.31978 -3.70005 0
M  V30 31787 N 2942.9 1.07041 -1.15672 0
M  V30 31788 C 2944.17 1.76455 -0.843979 0
M  V30 31789 C 2944.55 2.00525 0.659771 0
M  V30 31790 O 2943.9 1.62626 1.60515 0
M  V30 31791 C 2944.11 3.07087 -1.65827 0
M  V30 31792 C 2945.46 3.81376 -1.86647 0
M  V30 31793 O 2946.48 3.16907 -1.6263 0
M  V30 31794 O 2945.34 4.97174 -2.26893 0
M  V30 31795 H 2942.44 0.76642 -0.310691 0
M  V30 31796 H 2944.98 1.13378 -1.26268 0
M  V30 31797 H 2943.76 2.85205 -2.67907 0
M  V30 31798 H 2943.38 3.77897 -1.23612 0
M  V30 31799 N 2944.38 0.954014 1.25445 0
M  V30 31800 C 2945.62 0.618922 1.93755 0
M  V30 31801 C 2945.98 -0.834809 1.73346 0
M  V30 31802 O 2945.27 -1.59103 1.06756 0
M  V30 31803 C 2945.46 0.912557 3.45553 0
M  V30 31804 C 2945.29 2.39328 3.80726 0
M  V30 31805 C 2944.06 3.05073 4.02814 0
M  V30 31806 C 2946.26 3.37258 3.8828 0
M  V30 31807 N 2944.24 4.43024 4.24974 0
M  V30 31808 C 2945.61 4.60515 4.15122 0
M  V30 31809 C 2947.67 3.32105 3.70959 0
M  V30 31810 C 2946.37 5.79257 4.26444 0
M  V30 31811 C 2948.4 4.50185 3.8352 0
M  V30 31812 C 2947.76 5.72228 4.10773 0
M  V30 31813 H 2943.86 0.277081 0.731266 0
M  V30 31814 H 2946.44 1.22606 1.51247 0
M  V30 31815 H 2944.61 0.334352 3.86958 0
M  V30 31816 H 2946.35 0.537432 4.01116 0
M  V30 31817 H 2943.1 2.55646 3.98675 0
M  V30 31818 H 2943.52 5.14466 4.40061 0
M  V30 31819 H 2948.17 2.38798 3.48906 0
M  V30 31820 H 2945.88 6.73006 4.47313 0
M  V30 31821 H 2949.47 4.47745 3.71505 0
M  V30 31822 H 2948.35 6.62072 4.20274 0
M  V30 31823 N 2945.85 -1.40063 0.722513 0
M  V30 31824 C 2947.08 -2.05066 0.274874 0
M  V30 31825 C 2947.5 -1.54451 -1.08583 0
M  V30 31826 O 2946.85 -0.704033 -1.68373 0
M  V30 31827 C 2946.9 -3.60608 0.253736 0
M  V30 31828 O 2946.63 -4.09357 1.56071 0
M  V30 31829 C 2948.13 -4.42795 -0.211606 0
M  V30 31830 H 2945.35 -0.659766 0.122272 0
M  V30 31831 H 2947.89 -1.79343 0.982663 0
M  V30 31832 H 2946.05 -3.85276 -0.405069 0
M  V30 31833 H 2946.46 -5.036 1.46585 0
M  V30 31834 H 2947.93 -5.51722 -0.175244 0
M  V30 31835 H 2948.41 -4.20892 -1.25486 0
M  V30 31836 H 2949.02 -4.23249 0.417175 0
M  V30 31837 N 2947.33 -0.469207 -1.50453 0
M  V30 31838 C 2948.74 -0.0136362 -1.86695 0
M  V30 31839 C 2949.09 1.39053 -1.38415 0
M  V30 31840 O 2948.22 2.03049 -0.748329 0
M  V30 31841 C 2948.81 -0.0179694 -3.38795 0
M  V30 31842 C 2947.37 0.382125 -3.74455 0
M  V30 31843 C 2946.52 -0.404255 -2.74338 0
M  V30 31844 H 2949.47 -0.683572 -1.43224 0
M  V30 31845 H 2949.49 0.784614 -3.72323 0
M  V30 31846 H 2949 -1.04006 -3.73904 0
M  V30 31847 H 2947.1 1.40864 -3.44947 0
M  V30 31848 H 2947.22 0.0847778 -4.79025 0
M  V30 31849 H 2945.58 0.141785 -2.54305 0
M  V30 31850 H 2946.36 -1.42582 -3.1229 0
M  V30 31851 N 2948.81 1.56303 -0.201741 0
M  V30 31852 C 2950.05 1.99666 0.43736 0
M  V30 31853 C 2950.41 1.08595 1.58339 0
M  V30 31854 O 2951.61 1.41221 2.28714 0
M  V30 31855 C 2949.89 3.46409 0.879511 0
M  V30 31856 S 2951.44 4.11798 1.51551 0
M  V30 31857 H 2948.26 0.697159 0.139609 0
M  V30 31858 H 2950.86 1.93084 -0.306371 0
M  V30 31859 H 2949.57 4.10385 0.0354574 0
M  V30 31860 H 2949.1 3.56822 1.65654 0
M  V30 31861 H 2951.11 4.09352 2.80438 0
M  V30 31862 N 2950.29 -0.0718147 1.57436 0
M  V30 31863 C 2951.52 -0.782762 1.91197 0
M  V30 31864 C 2951.93 -1.71643 0.795958 0
M  V30 31865 O 2951.27 -1.82131 -0.239572 0
M  V30 31866 C 2951.33 -1.63 3.20424 0
M  V30 31867 C 2950.99 -0.865704 4.48725 0
M  V30 31868 C 2951.99 -0.18496 5.19571 0
M  V30 31869 C 2949.68 -0.832884 4.95347 0
M  V30 31870 C 2951.67 0.518376 6.35289 0
M  V30 31871 C 2949.36 -0.125777 6.10971 0
M  V30 31872 C 2950.36 0.548653 6.80793 0
M  V30 31873 O 2950.04 1.24437 7.94211 0
M  V30 31874 H 2949.78 -0.22772 0.63649 0
M  V30 31875 H 2952.33 -0.0463826 2.05348 0
M  V30 31876 H 2950.56 -2.40918 3.02482 0
M  V30 31877 H 2952.25 -2.21962 3.39835 0
M  V30 31878 H 2953.01 -0.201622 4.84581 0
M  V30 31879 H 2948.89 -1.34729 4.40873 0
M  V30 31880 H 2952.44 1.04535 6.89723 0
M  V30 31881 H 2948.33 -0.107042 6.45411 0
M  V30 31882 H 2949.1 1.15364 8.10329 0
M  V30 31883 N 2951.77 -1.53818 -0.343203 0
M  V30 31884 C 2952.99 -1.75019 -1.10345 0
M  V30 31885 C 2953.41 -0.489507 -1.82344 0
M  V30 31886 O 2952.77 0.538855 -1.74363 0
M  V30 31887 C 2952.82 -2.93052 -2.11667 0
M  V30 31888 O 2952.54 -4.14244 -1.42596 0
M  V30 31889 C 2954.04 -3.26307 -3.00065 0
M  V30 31890 H 2951.26 -0.584782 -0.329046 0
M  V30 31891 H 2953.8 -2.00643 -0.395304 0
M  V30 31892 H 2951.96 -2.69758 -2.78046 0
M  V30 31893 H 2952.37 -4.805 -2.10286 0
M  V30 31894 H 2953.85 -4.12245 -3.67094 0
M  V30 31895 H 2954.32 -2.42625 -3.66101 0
M  V30 31896 H 2954.93 -3.51608 -2.39274 0
M  V30 31897 N 2953.24 0.604233 -1.45557 0
M  V30 31898 C 2954.65 1.18621 -1.44173 0
M  V30 31899 C 2955.01 1.95452 -0.171115 0
M  V30 31900 O 2954.13 2.03818 0.72712 0
M  V30 31901 C 2954.73 2.15782 -2.61197 0
M  V30 31902 C 2953.28 2.69349 -2.62922 0
M  V30 31903 C 2952.43 1.44816 -2.36482 0
M  V30 31904 H 2955.38 0.393354 -1.53748 0
M  V30 31905 H 2955.4 2.98875 -2.35487 0
M  V30 31906 H 2954.92 1.59835 -3.53659 0
M  V30 31907 H 2953.02 3.29225 -1.74475 0
M  V30 31908 H 2953.13 3.13553 -3.62245 0
M  V30 31909 H 2951.49 1.73887 -1.86106 0
M  V30 31910 H 2952.28 0.907318 -3.31093 0
M  V30 31911 N 2954.72 1.32903 0.847027 0
M  V30 31912 C 2955.65 1.25095 1.97164 0
M  V30 31913 C 2956.63 0.133191 1.69578 0
M  V30 31914 O 2957.82 0.321625 1.91518 0
M  V30 31915 C 2954.95 0.981064 3.33155 0
M  V30 31916 C 2953.9 2.06088 3.75116 0
M  V30 31917 C 2953.23 1.64327 5.08823 0
M  V30 31918 C 2954.53 3.47676 3.89768 0
M  V30 31919 H 2956.22 2.19187 2.03954 0
M  V30 31920 H 2953.77 1.05519 0.979888 0
M  V30 31921 H 2955.72 0.912964 4.11391 0
M  V30 31922 H 2954.44 0.00451299 3.266 0
M  V30 31923 H 2953.1 2.11927 2.99137 0
M  V30 31924 H 2952.75 0.653964 4.98731 0
M  V30 31925 H 2952.45 2.36582 5.37869 0
M  V30 31926 H 2953.98 1.58968 5.89543 0
M  V30 31927 H 2955.39 3.44384 4.58337 0
M  V30 31928 H 2953.79 4.18346 4.30241 0
M  V30 31929 H 2954.86 3.86778 2.92456 0
M  V30 31930 N 2956.2 -1.06426 1.16238 0
M  V30 31931 C 2957.45 -1.78586 0.937554 0
M  V30 31932 C 2957.76 -1.88114 -0.535967 0
M  V30 31933 O 2958.97 -2.56889 -0.878651 0
M  V30 31934 C 2957.42 -3.20967 1.62813 0
M  V30 31935 C 2957.03 -3.19609 3.13933 0
M  V30 31936 C 2958.78 -3.9767 1.48522 0
M  V30 31937 C 2956.68 -4.56702 3.75735 0
M  V30 31938 H 2955.61 -0.669337 0.347137 0
M  V30 31939 H 2958.26 -1.19383 1.39356 0
M  V30 31940 H 2956.65 -3.8042 1.09984 0
M  V30 31941 H 2957.82 -2.69747 3.73595 0
M  V30 31942 H 2956.13 -2.56405 3.28094 0
M  V30 31943 H 2958.73 -4.99009 1.92078 0
M  V30 31944 H 2959.07 -4.14032 0.433986 0
M  V30 31945 H 2959.61 -3.44736 1.985 0
M  V30 31946 H 2956.35 -4.45546 4.80801 0
M  V30 31947 H 2955.87 -5.06765 3.20858 0
M  V30 31948 H 2957.55 -5.25661 3.77213 0
M  V30 31949 N 2957.68 -0.960653 -1.24937 0
M  V30 31950 C 2958.61 -0.442976 -2.24879 0
M  V30 31951 C 2959.62 0.444437 -1.56616 0
M  V30 31952 O 2960.81 0.251745 -1.76716 0
M  V30 31953 C 2957.91 0.380477 -3.36757 0
M  V30 31954 C 2957.09 -0.49536 -4.34586 0
M  V30 31955 C 2956.14 0.270902 -5.25502 0
M  V30 31956 O 2955.17 -0.332761 -5.68226 0
M  V30 31957 N 2956.37 1.56239 -5.59079 0
M  V30 31958 H 2959.14 -1.30223 -2.6993 0
M  V30 31959 H 2956.7 -0.831684 -1.38905 0
M  V30 31960 H 2958.69 0.900961 -3.94544 0
M  V30 31961 H 2957.26 1.14062 -2.91047 0
M  V30 31962 H 2956.48 -1.19689 -3.75591 0
M  V30 31963 H 2957.77 -1.09294 -4.96923 0
M  V30 31964 H 2957.17 2.07466 -5.26283 0
M  V30 31965 H 2955.72 2.02871 -6.19424 0
M  V30 31966 N 2959.16 1.39677 -0.729931 0
M  V30 31967 C 2960.4 2.00912 -0.276065 0
M  V30 31968 C 2960.74 1.57778 1.13224 0
M  V30 31969 O 2960.01 0.80435 1.77089 0
M  V30 31970 C 2960.29 3.58171 -0.37222 0
M  V30 31971 C 2960.15 4.11338 -1.81993 0
M  V30 31972 C 2961.47 4.39399 0.248301 0
M  V30 31973 H 2958.58 0.729937 -0.101786 0
M  V30 31974 H 2961.23 1.65956 -0.925133 0
M  V30 31975 H 2959.38 3.88081 0.18039 0
M  V30 31976 H 2961.05 3.92168 -2.42903 0
M  V30 31977 H 2959.29 3.65088 -2.34294 0
M  V30 31978 H 2959.96 5.20483 -1.83851 0
M  V30 31979 H 2962.44 4.15504 -0.222718 0
M  V30 31980 H 2961.31 5.48693 0.15065 0
M  V30 31981 H 2961.58 4.21503 1.33371 0
M  V30 31982 N 2960.63 0.47718 1.50202 0
M  V30 31983 C 2961.54 -0.318987 2.32421 0
M  V30 31984 C 2962.56 -0.990208 1.43076 0
M  V30 31985 O 2963.74 -0.976842 1.76124 0
M  V30 31986 C 2960.8 -1.38323 3.17911 0
M  V30 31987 C 2959.86 -0.727962 4.23083 0
M  V30 31988 C 2959.1 -1.74149 5.04488 0
M  V30 31989 O 2959.32 -2.96872 4.87056 0
M  V30 31990 O 2958.25 -1.30996 5.87472 0
M  V30 31991 H 2962.08 0.353334 3.01638 0
M  V30 31992 H 2959.66 0.238917 1.47477 0
M  V30 31993 H 2961.55 -1.99953 3.7094 0
M  V30 31994 H 2960.22 -2.03891 2.51417 0
M  V30 31995 H 2959.13 -0.0725442 3.7403 0
M  V30 31996 H 2960.46 -0.115129 4.92065 0
M  V30 31997 N 2962.11 -1.56194 0.210027 0
M  V30 31998 C 2963.04 -2.1703 -0.736929 0
M  V30 31999 C 2964.06 -1.13618 -1.16597 0
M  V30 32000 O 2965.25 -1.40648 -1.09911 0
M  V30 32001 C 2962.35 -2.72972 -2.00847 0
M  V30 32002 C 2961.52 -4.01438 -1.73684 0
M  V30 32003 C 2960.58 -4.42058 -2.85431 0
M  V30 32004 O 2959.6 -5.09187 -2.54396 0
M  V30 32005 N 2960.81 -4.0679 -4.14128 0
M  V30 32006 H 2963.57 -2.98916 -0.216604 0
M  V30 32007 H 2961.13 -1.61875 0.0285956 0
M  V30 32008 H 2963.12 -2.97123 -2.74773 0
M  V30 32009 H 2961.69 -1.95455 -2.43959 0
M  V30 32010 H 2960.91 -3.85263 -0.834608 0
M  V30 32011 H 2962.2 -4.85266 -1.52952 0
M  V30 32012 H 2961.6 -3.52824 -4.4219 0
M  V30 32013 H 2960.16 -4.35859 -4.84634 0
M  V30 32014 N 2963.59 0.0634645 -1.57472 0
M  V30 32015 C 2964.82 0.777526 -1.92274 0
M  V30 32016 C 2965.24 1.69901 -0.807171 0
M  V30 32017 O 2964.6 1.79711 0.239491 0
M  V30 32018 C 2964.65 1.54011 -3.26057 0
M  V30 32019 O 2963.75 2.65133 -3.15877 0
M  V30 32020 H 2963.09 0.211568 -0.629393 0
M  V30 32021 H 2965.62 0.0292164 -2.04579 0
M  V30 32022 H 2965.63 1.91756 -3.6013 0
M  V30 32023 H 2964.31 0.864057 -4.06825 0
M  V30 32024 H 2962.88 2.30184 -2.93377 0
M  V30 32025 N 2965.07 1.53998 0.33504 0
M  V30 32026 C 2965.98 1.85587 1.43508 0
M  V30 32027 C 2966.99 0.746754 1.57161 0
M  V30 32028 O 2968.17 1.03991 1.72476 0
M  V30 32029 C 2965.24 2.0665 2.78382 0
M  V30 32030 C 2964.3 3.30487 2.74001 0
M  V30 32031 C 2963.53 3.50536 4.02443 0
M  V30 32032 O 2963.75 2.74251 5.00142 0
M  V30 32033 O 2962.69 4.43987 4.06398 0
M  V30 32034 H 2966.51 2.79105 1.19726 0
M  V30 32035 H 2964.1 1.39758 0.528009 0
M  V30 32036 H 2965.98 2.21901 3.58243 0
M  V30 32037 H 2964.65 1.16322 3.02078 0
M  V30 32038 H 2963.56 3.20633 1.92731 0
M  V30 32039 H 2964.89 4.20837 2.5526 0
M  V30 32040 N 2966.55 -0.596505 1.45875 0
M  V30 32041 C 2967.51 -1.6885 1.54991 0
M  V30 32042 C 2968.51 -1.5499 0.428329 0
M  V30 32043 O 2969.7 -1.59858 0.692186 0
M  V30 32044 C 2966.83 -3.08193 1.45705 0
M  V30 32045 H 2968.02 -1.6213 2.52297 0
M  V30 32046 H 2965.58 -0.813183 1.3348 0
M  V30 32047 H 2966.31 -3.2048 0.496261 0
M  V30 32048 H 2966.1 -3.19661 2.27067 0
M  V30 32049 H 2967.59 -3.87713 1.5514 0
M  V30 32050 N 2968.02 -1.3335 -0.839967 0
M  V30 32051 C 2968.95 -1.26139 -1.96498 0
M  V30 32052 C 2969.94 -0.142182 -1.69505 0
M  V30 32053 O 2971.12 -0.331777 -1.91345 0
M  V30 32054 C 2968.25 -0.998719 -3.3263 0
M  V30 32055 C 2967.2 -2.08075 -3.74017 0
M  V30 32056 C 2966.53 -1.67023 -5.07944 0
M  V30 32057 C 2967.83 -3.49738 -3.87918 0
M  V30 32058 H 2969.52 -2.20266 -2.02789 0
M  V30 32059 H 2967.07 -1.06037 -0.974278 0
M  V30 32060 H 2969.02 -0.934768 -4.10902 0
M  V30 32061 H 2967.75 -0.0218333 -3.26593 0
M  V30 32062 H 2966.41 -2.1351 -2.98008 0
M  V30 32063 H 2966.05 -0.680404 -4.98377 0
M  V30 32064 H 2965.75 -2.39431 -5.36606 0
M  V30 32065 H 2967.28 -1.62092 -5.88692 0
M  V30 32066 H 2968.69 -3.4681 -4.56504 0
M  V30 32067 H 2967.09 -4.20621 -4.28016 0
M  V30 32068 H 2968.16 -3.88324 -2.90401 0
M  V30 32069 N 2969.5 1.05808 -1.16801 0
M  V30 32070 C 2970.78 1.7555 -0.862647 0
M  V30 32071 C 2971.16 2.01213 0.638465 0
M  V30 32072 O 2970.51 1.64319 1.58781 0
M  V30 32073 C 2970.72 3.05311 -1.69075 0
M  V30 32074 C 2972.07 3.79375 -1.90682 0
M  V30 32075 O 2973.09 3.15164 -1.65982 0
M  V30 32076 O 2971.95 4.94739 -2.32153 0
M  V30 32077 H 2969.04 0.763082 -0.318802 0
M  V30 32078 H 2971.59 1.12032 -1.27463 0
M  V30 32079 H 2970.36 2.82347 -2.70917 0
M  V30 32080 H 2969.98 3.76564 -1.27613 0
M  V30 32081 N 2970.98 0.967265 1.24426 0
M  V30 32082 C 2971.91 0.454896 2.2464 0
M  V30 32083 C 2972.93 -0.436125 1.5685 0
M  V30 32084 O 2974.11 -0.24237 1.76847 0
M  V30 32085 C 2971.21 -0.362613 3.36954 0
M  V30 32086 C 2970.39 0.5184 4.34317 0
M  V30 32087 C 2969.45 -0.24303 5.25638 0
M  V30 32088 O 2968.47 0.36289 5.68042 0
M  V30 32089 N 2969.67 -1.53272 5.599 0
M  V30 32090 H 2972.44 1.31652 2.69235 0
M  V30 32091 H 2970 0.839039 1.38462 0
M  V30 32092 H 2971.99 -0.880024 3.95016 0
M  V30 32093 H 2970.56 -1.12517 2.91648 0
M  V30 32094 H 2969.78 1.21679 3.7495 0
M  V30 32095 H 2971.07 1.11928 4.96336 0
M  V30 32096 H 2970.47 -2.04673 5.27376 0
M  V30 32097 H 2969.03 -1.99583 6.20492 0
M  V30 32098 N 2972.46 -1.39288 0.737328 0
M  V30 32099 C 2973.71 -2.00763 0.286716 0
M  V30 32100 C 2974.04 -1.58377 -1.12385 0
M  V30 32101 O 2973.31 -0.81373 -1.7666 0
M  V30 32102 C 2973.6 -3.57969 0.39121 0
M  V30 32103 C 2973.45 -4.10367 1.84172 0
M  V30 32104 C 2974.77 -4.39524 -0.224995 0
M  V30 32105 H 2971.89 -0.729387 0.105655 0
M  V30 32106 H 2974.53 -1.65463 0.933921 0
M  V30 32107 H 2972.68 -3.88171 -0.159807 0
M  V30 32108 H 2974.35 -3.90875 2.44979 0
M  V30 32109 H 2972.59 -3.6384 2.36226 0
M  V30 32110 H 2973.27 -5.19501 1.86609 0
M  V30 32111 H 2975.74 -4.1538 0.24475 0
M  V30 32112 H 2974.62 -5.48765 -0.121549 0
M  V30 32113 H 2974.88 -4.22204 -1.31133 0
M  V30 32114 N 2973.94 -0.485139 -1.49947 0
M  V30 32115 C 2974.89 0.315568 -2.30449 0
M  V30 32116 C 2975.88 0.977492 -1.38353 0
M  V30 32117 O 2977.09 0.906991 -1.55479 0
M  V30 32118 H 2973.46 0.120616 -0.742264 0
M  V30 32119 H 2975.43 -0.383604 -2.95924 0
M  V30 32120 C 2974.18 1.37668 -3.19285 0
M  V30 32121 H 2973.5 0.876733 -3.90069 0
M  V30 32122 H 2974.94 1.90923 -3.78582 0
M  V30 32123 C 2973.4 2.38627 -2.37821 0
M  V30 32124 O 2973.93 3.44189 -2.07116 0
M  V30 32125 N 2972.14 2.10696 -2.00139 0
M  V30 32126 H 2971.69 1.24874 -2.25309 0
M  V30 32127 H 2971.64 2.78477 -1.45938 0
M  V30 32128 N 2975.42 1.56081 -0.218307 0
M  V30 32129 C 2976.66 1.97826 0.413454 0
M  V30 32130 C 2976.98 1.1071 1.60525 0
M  V30 32131 O 2976.25 0.183413 1.9504 0
M  V30 32132 H 2974.83 0.730584 0.155744 0
M  V30 32133 H 2977.5 1.92412 -0.310447 0
M  V30 32134 H 2976.59 3.03152 0.741971 0
M  V30 32135 N 2976.89 -0.0551124 1.57504 0
M  V30 32136 C 2978.12 -0.767318 1.92684 0
M  V30 32137 C 2978.54 -1.69471 0.81617 0
M  V30 32138 O 2977.9 -1.79836 -0.229957 0
M  V30 32139 C 2977.95 -1.5228 3.26869 0
M  V30 32140 O 2977.05 -2.63454 3.17279 0
M  V30 32141 H 2976.39 -0.208227 0.630506 0
M  V30 32142 H 2978.92 -0.0183666 2.04592 0
M  V30 32143 H 2978.93 -1.89844 3.61142 0
M  V30 32144 H 2977.61 -0.84247 4.07278 0
M  V30 32145 H 2976.19 -2.28624 2.94593 0
M  V30 32146 N 2978.37 -1.54173 -0.326869 0
M  V30 32147 C 2979.3 -1.8632 -1.40738 0
M  V30 32148 C 2980.28 -0.719711 -1.54124 0
M  V30 32149 O 2981.47 -0.973147 -1.68058 0
M  V30 32150 C 2978.6 -2.08762 -2.77553 0
M  V30 32151 C 2977.55 -3.24601 -2.78959 0
M  V30 32152 C 2976.88 -3.32408 -4.18819 0
M  V30 32153 C 2978.18 -4.62328 -2.43002 0
M  V30 32154 H 2979.87 -2.76813 -1.14083 0
M  V30 32155 H 2977.42 -1.33191 -0.547366 0
M  V30 32156 H 2979.37 -2.29835 -3.53205 0
M  V30 32157 H 2978.09 -1.15015 -3.05678 0
M  V30 32158 H 2976.75 -3.0341 -2.05762 0
M  V30 32159 H 2976.4 -2.36226 -4.44079 0
M  V30 32160 H 2976.1 -4.1026 -4.20666 0
M  V30 32161 H 2977.63 -3.55712 -4.96288 0
M  V30 32162 H 2979.04 -4.83304 -3.08367 0
M  V30 32163 H 2977.44 -5.42706 -2.56106 0
M  V30 32164 H 2978.51 -4.64802 -1.38157 0
M  V30 32165 N 2979.85 0.58876 -1.4619 0
M  V30 32166 C 2981.26 1.17085 -1.45423 0
M  V30 32167 C 2981.61 1.9526 -0.191836 0
M  V30 32168 O 2980.74 2.04578 0.705461 0
M  V30 32169 C 2981.33 2.12999 -2.63471 0
M  V30 32170 C 2979.89 2.66545 -2.65764 0
M  V30 32171 C 2979.04 1.423 -2.38004 0
M  V30 32172 H 2981.99 0.377025 -1.54156 0
M  V30 32173 H 2982.01 2.96361 -2.38643 0
M  V30 32174 H 2981.52 1.56075 -3.55334 0
M  V30 32175 H 2979.62 3.27356 -1.77957 0
M  V30 32176 H 2979.74 3.09693 -3.6555 0
M  V30 32177 H 2978.1 1.71904 -1.87939 0
M  V30 32178 H 2978.88 0.87215 -3.32037 0
M  V30 32179 N 2981.33 1.33794 0.832883 0
M  V30 32180 C 2982.55 1.28791 1.62566 0
M  V30 32181 C 2982.98 -0.137213 1.87599 0
M  V30 32182 O 2982.34 -1.09578 1.44438 0
M  V30 32183 C 2982.38 2.07458 2.94946 0
M  V30 32184 O 2981.49 1.43728 3.86544 0
M  V30 32185 H 2980.83 0.442796 0.494801 0
M  V30 32186 H 2983.36 1.76447 1.03575 0
M  V30 32187 H 2983.37 2.18446 3.44595 0
M  V30 32188 H 2982.04 3.11078 2.76049 0
M  V30 32189 H 2980.62 1.41423 3.45042 0
M  V30 32190 N 2982.81 -1.05187 1.1736 0
M  V30 32191 C 2983.74 -2.14881 0.913687 0
M  V30 32192 C 2984.72 -1.69487 -0.144335 0
M  V30 32193 O 2985.9 -1.94199 0.00591275 0
M  V30 32194 C 2983.03 -3.44674 0.426257 0
M  V30 32195 C 2981.99 -4.03635 1.42347 0
M  V30 32196 C 2981.31 -5.28772 0.793995 0
M  V30 32197 C 2982.61 -4.41116 2.79667 0
M  V30 32198 H 2984.31 -2.36882 1.83104 0
M  V30 32199 H 2981.85 -1.13843 0.881801 0
M  V30 32200 H 2983.8 -4.20762 0.231841 0
M  V30 32201 H 2982.53 -3.22326 -0.526637 0
M  V30 32202 H 2981.19 -3.29617 1.60463 0
M  V30 32203 H 2980.84 -5.02727 -0.165735 0
M  V30 32204 H 2980.54 -5.69181 1.45969 0
M  V30 32205 H 2982.06 -6.07547 0.609854 0
M  V30 32206 H 2983.47 -5.08237 2.65269 0
M  V30 32207 H 2981.87 -4.92542 3.42815 0
M  V30 32208 H 2982.94 -3.51458 3.34074 0
M  V30 32209 N 2984.28 -0.97385 -1.23911 0
M  V30 32210 C 2985.23 -0.479973 -2.22891 0
M  V30 32211 C 2986.22 0.441406 -1.54727 0
M  V30 32212 O 2987.41 0.271327 -1.74908 0
M  V30 32213 C 2984.54 0.222642 -3.42577 0
M  V30 32214 C 2983.62 -0.717925 -4.17979 0
M  V30 32215 N 2984.02 -1.85779 -4.70446 0
M  V30 32216 C 2982.31 -0.529936 -4.4284 0
M  V30 32217 C 2983.01 -2.4466 -5.27746 0
M  V30 32218 N 2981.99 -1.73113 -5.15299 0
M  V30 32219 H 2985.79 -1.34961 -2.6108 0
M  V30 32220 H 2983.31 -0.833704 -1.39367 0
M  V30 32221 H 2985.3 0.59372 -4.12651 0
M  V30 32222 H 2983.96 1.08864 -3.05906 0
M  V30 32223 H 2984.97 -2.23916 -4.66993 0
M  V30 32224 H 2981.65 0.291591 -4.1648 0
M  V30 32225 H 2983.04 -3.40885 -5.79005 0
M  V30 32226 N 2985.76 1.38895 -0.744705 0
M  V30 32227 C 2987.18 1.53938 -0.421329 0
M  V30 32228 C 2987.38 1.70952 1.06665 0
M  V30 32229 O 2986.43 1.7155 1.85275 0
M  V30 32230 C 2987.75 2.75156 -1.21283 0
M  V30 32231 C 2989.29 2.88999 -1.20201 0
M  V30 32232 C 2989.77 4.13167 -1.97628 0
M  V30 32233 N 2991.26 4.20227 -1.94843 0
M  V30 32234 C 2992 5.15275 -2.51554 0
M  V30 32235 N 2991.49 6.16052 -3.16941 0
M  V30 32236 N 2993.28 5.07561 -2.41533 0
M  V30 32237 H 2985.44 1.261 -1.70917 0
M  V30 32238 H 2987.7 0.611906 -0.724068 0
M  V30 32239 H 2987.4 2.68959 -2.26614 0
M  V30 32240 H 2987.28 3.68096 -0.823741 0
M  V30 32241 H 2989.67 2.94683 -0.156793 0
M  V30 32242 H 2989.75 1.97096 -1.63054 0
M  V30 32243 H 2989.39 4.08245 -3.02156 0
M  V30 32244 H 2989.32 5.04133 -1.52175 0
M  V30 32245 H 2991.81 3.48046 -1.47216 0
M  V30 32246 H 2992.12 6.85056 -3.57656 0
M  V30 32247 H 2990.47 6.16411 -3.21034 0
M  V30 32248 H 2993.66 4.27768 -1.90085 0
M  V30 32249 H 2993.83 5.81457 -2.86027 0
M  V30 32250 N 2987.24 0.493084 1.49688 0
M  V30 32251 C 2988.47 -0.053475 2.07331 0
M  V30 32252 C 2988.89 -1.30779 1.35198 0
M  V30 32253 O 2988.25 -1.76689 0.406277 0
M  V30 32254 C 2988.3 -0.298187 3.59365 0
M  V30 32255 O 2987.4 -1.37447 3.88821 0
M  V30 32256 H 2986.74 0.0227134 0.663611 0
M  V30 32257 H 2989.27 0.690436 1.92598 0
M  V30 32258 H 2989.28 -0.532088 4.04516 0
M  V30 32259 H 2987.96 0.618279 4.11279 0
M  V30 32260 H 2986.53 -1.12615 3.55489 0
M  V30 32261 N 2988.72 -1.55963 0.226582 0
M  V30 32262 C 2989.94 -2.03277 -0.411491 0
M  V30 32263 C 2990.37 -1.10524 -1.52204 0
M  V30 32264 O 2989.73 -0.0943536 -1.81054 0
M  V30 32265 C 2989.77 -3.48782 -0.915632 0
M  V30 32266 O 2988.88 -3.59166 -2.02665 0
M  V30 32267 H 2988.22 -0.657528 -0.0924791 0
M  V30 32268 H 2990.75 -2.01641 0.346691 0
M  V30 32269 H 2990.76 -3.89203 -1.22415 0
M  V30 32270 H 2989.43 -4.15773 -0.102842 0
M  V30 32271 H 2988.01 -3.30635 -1.72439 0
M  V30 32272 N 2990.2 0.0467589 -1.57531 0
M  V30 32273 C 2991.44 0.736803 -1.89586 0
M  V30 32274 C 2991.8 1.739 -0.823201 0
M  V30 32275 O 2991.09 1.90844 0.170065 0
M  V30 32276 C 2991.28 1.4628 -3.26094 0
M  V30 32277 C 2991.11 0.532424 -4.46537 0
M  V30 32278 C 2989.88 0.16002 -5.05047 0
M  V30 32279 C 2992.08 -0.181645 -5.13979 0
M  V30 32280 N 2990.06 -0.773456 -6.09008 0
M  V30 32281 C 2991.43 -0.971404 -6.12343 0
M  V30 32282 C 2993.49 -0.250469 -4.9727 0
M  V30 32283 C 2992.19 -1.82363 -6.95799 0
M  V30 32284 C 2994.22 -1.08976 -5.81273 0
M  V30 32285 C 2993.58 -1.86749 -6.79194 0
M  V30 32286 H 2989.68 0.244264 -0.742872 0
M  V30 32287 H 2992.26 -0.00258232 -1.947 0
M  V30 32288 H 2990.43 2.17275 -3.21941 0
M  V30 32289 H 2992.17 2.10383 -3.45718 0
M  V30 32290 H 2988.92 0.518374 -4.70755 0
M  V30 32291 H 2989.35 -1.23418 -6.65655 0
M  V30 32292 H 2993.99 0.336504 -4.21459 0
M  V30 32293 H 2991.71 -2.42148 -7.70967 0
M  V30 32294 H 2995.29 -1.14631 -5.70395 0
M  V30 32295 H 2994.17 -2.50644 -7.43066 0
M  V30 32296 N 2991.67 1.54344 0.318688 0
M  V30 32297 C 2992.9 1.76496 1.07391 0
M  V30 32298 C 2993.31 0.515913 1.8203 0
M  V30 32299 O 2992.66 -0.523219 1.76091 0
M  V30 32300 C 2992.72 2.90778 2.11396 0
M  V30 32301 C 2992.38 4.2951 1.56111 0
M  V30 32302 C 2993.38 5.10185 1.00034 0
M  V30 32303 C 2991.06 4.76066 1.60207 0
M  V30 32304 C 2993.06 6.3553 0.487881 0
M  V30 32305 C 2990.74 6.01378 1.08574 0
M  V30 32306 C 2991.74 6.80944 0.529594 0
M  V30 32307 O 2991.43 8.03897 0.021041 0
M  V30 32308 H 2991.16 0.592721 0.325051 0
M  V30 32309 H 2993.72 2.02059 0.368974 0
M  V30 32310 H 2991.95 2.60798 2.85519 0
M  V30 32311 H 2993.64 3.00668 2.72678 0
M  V30 32312 H 2994.4 4.75369 0.961727 0
M  V30 32313 H 2990.28 4.14176 2.02434 0
M  V30 32314 H 2993.82 6.9758 0.0531382 0
M  V30 32315 H 2989.72 6.35684 1.12144 0
M  V30 32316 H 2990.49 8.18387 0.136007 0
M  V30 32317 N 2993.15 -0.580999 1.465 0
M  V30 32318 C 2994.38 -1.36514 1.55472 0
M  V30 32319 C 2994.8 -1.87775 0.19644 0
M  V30 32320 O 2994.15 -1.6371 -0.806548 0
M  V30 32321 C 2994.2 -2.55149 2.56088 0
M  V30 32322 O 2993.92 -2.06012 3.8664 0
M  V30 32323 C 2995.43 -3.47679 2.75017 0
M  V30 32324 H 2992.65 -0.416977 0.52571 0
M  V30 32325 H 2995.19 -0.706144 1.91922 0
M  V30 32326 H 2993.34 -3.17035 2.22638 0
M  V30 32327 H 2993.76 -2.83285 4.41418 0
M  V30 32328 H 2995.23 -4.27397 3.49336 0
M  V30 32329 H 2995.71 -3.99722 1.81985 0
M  V30 32330 H 2996.32 -2.91627 3.0957 0
M  V30 32331 N 2994.63 -1.34234 -0.825776 0
M  V30 32332 C 2995.91 -1.17014 -1.56739 0
M  V30 32333 C 2996.29 0.258388 -2.09513 0
M  V30 32334 O 2995.64 1.25931 -1.90666 0
M  V30 32335 C 2995.85 -2.2223 -2.691 0
M  V30 32336 C 2997.19 -2.57061 -3.37942 0
M  V30 32337 O 2998.22 -2.20997 -2.79354 0
M  V30 32338 O 2997.08 -3.18998 -4.43737 0
M  V30 32339 H 2994.17 -0.453418 -0.691622 0
M  V30 32340 H 2996.72 -1.45857 -0.867396 0
M  V30 32341 H 2995.49 -3.18128 -2.27838 0
M  V30 32342 H 2995.11 -1.94547 -3.46752 0
M  V30 32343 N 2996.11 1.04563 -1.17917 0
M  V30 32344 C 2997.02 2.15958 -0.916487 0
M  V30 32345 C 2998.03 1.73602 0.117625 0
M  V30 32346 O 2999.21 2.01301 -0.0631244 0
M  V30 32347 C 2996.28 3.43892 -0.440323 0
M  V30 32348 C 2995.34 4.00658 -1.54179 0
M  V30 32349 C 2994.57 5.22487 -1.08826 0
M  V30 32350 O 2994.79 5.70373 0.0550545 0
M  V30 32351 O 2993.73 5.71657 -1.88393 0
M  V30 32352 H 2997.55 2.40969 -1.84845 0
M  V30 32353 H 2995.14 1.14426 -0.960572 0
M  V30 32354 H 2997.02 4.21004 -0.182611 0
M  V30 32355 H 2995.69 3.20366 0.463404 0
M  V30 32356 H 2994.6 3.24958 -1.85346 0
M  V30 32357 H 2995.93 4.28516 -2.42146 0
M  V30 32358 N 2997.59 0.980408 1.23393 0
M  V30 32359 C 2999 0.68627 1.7363 0
M  V30 32360 C 2999.35 -0.79751 1.7926 0
M  V30 32361 O 2998.47 -1.62376 1.43049 0
M  V30 32362 C 2999.07 1.23905 3.1533 0
M  V30 32363 C 2997.63 0.994557 3.63023 0
M  V30 32364 C 2996.77 1.36677 2.41277 0
M  V30 32365 H 2999.73 1.15425 1.08916 0
M  V30 32366 H 2999.75 0.61148 3.75554 0
M  V30 32367 H 2999.26 2.31897 3.112 0
M  V30 32368 H 2997.36 -0.0692837 3.72536 0
M  V30 32369 H 2997.47 1.64914 4.49822 0
M  V30 32370 H 2995.84 0.785237 2.42293 0
M  V30 32371 H 2996.62 2.45647 2.39818 0
M  V30 32372 N 2999.06 -1.38498 0.75206 0
M  V30 32373 C 3000.34 -1.94206 0.23311 0
M  V30 32374 C 3000.72 -1.68748 -1.26835 0
M  V30 32375 O 3000.07 -1.02517 -2.04212 0
M  V30 32376 C 3000.28 -3.4406 0.585151 0
M  V30 32377 C 3001.63 -4.21101 0.543945 0
M  V30 32378 O 3002.65 -3.52334 0.523353 0
M  V30 32379 O 3001.51 -5.4369 0.553531 0
M  V30 32380 H 2998.6 -0.825587 0.0483194 0
M  V30 32381 H 3001.15 -1.479 0.832079 0
M  V30 32382 H 2999.92 -3.56091 1.62218 0
M  V30 32383 H 2999.55 -3.97578 -0.0419039 0
M  V30 32384 N 3000.54 -0.501015 -1.49424 0
M  V30 32385 C 3001.79 0.0453445 -2.01649 0
M  V30 32386 C 3002.1 1.38045 -1.38575 0
M  V30 32387 O 3003.31 2.0135 -1.82127 0
M  V30 32388 C 3001.77 0.131273 -3.59661 0
M  V30 32389 C 3001.37 -1.19719 -4.31708 0
M  V30 32390 C 3003.12 0.627997 -4.19829 0
M  V30 32391 C 3001.03 -1.07342 -5.81577 0
M  V30 32392 H 2999.96 0.0207196 -0.753715 0
M  V30 32393 H 3002.61 -0.640438 -1.71961 0
M  V30 32394 H 3000.99 0.881506 -3.86064 0
M  V30 32395 H 3002.16 -1.96071 -4.17004 0
M  V30 32396 H 3000.48 -1.62735 -3.83283 0
M  V30 32397 H 3003.07 0.738105 -5.29581 0
M  V30 32398 H 3003.42 1.62683 -3.83197 0
M  V30 32399 H 3003.95 -0.0657013 -3.97746 0
M  V30 32400 H 3000.69 -2.04653 -6.22734 0
M  V30 32401 H 3000.21 -0.350784 -5.98773 0
M  V30 32402 H 3001.89 -0.75216 -6.42613 0
M  V30 32403 N 3002.02 1.5584 -0.234849 0
M  V30 32404 C 3003.25 2.03492 0.400705 0
M  V30 32405 C 3003.67 1.1133 1.51616 0
M  V30 32406 O 3003.03 0.103954 1.81002 0
M  V30 32407 C 3003.08 3.49262 0.897123 0
M  V30 32408 O 3002.18 3.60236 2.00758 0
M  V30 32409 H 3001.52 0.65801 0.0889908 0
M  V30 32410 H 3004.05 2.01455 -0.35738 0
M  V30 32411 H 3004.06 3.89846 1.20349 0
M  V30 32412 H 3002.74 4.15822 0.0807908 0
M  V30 32413 H 3001.31 3.31544 1.70683 0
M  V30 32414 N 3003.5 -0.038404 1.57553 0
M  V30 32415 C 3004.73 -0.74203 1.92815 0
M  V30 32416 C 3005.14 -1.69916 0.832186 0
M  V30 32417 O 3004.48 -1.82598 -0.200885 0
M  V30 32418 C 3004.54 -1.56166 3.23809 0
M  V30 32419 C 3004.21 -0.770327 4.50461 0
M  V30 32420 C 3005.2 -0.0747093 5.19846 0
M  V30 32421 C 3002.89 -0.727627 4.97002 0
M  V30 32422 C 3004.88 0.653013 6.34046 0
M  V30 32423 C 3002.57 0.00384734 6.111 0
M  V30 32424 C 3003.57 0.692936 6.79476 0
M  V30 32425 O 3003.26 1.41255 7.91393 0
M  V30 32426 H 3002.99 -0.214167 0.641177 0
M  V30 32427 H 3005.54 -0.00281485 2.054 0
M  V30 32428 H 3003.77 -2.34447 3.07525 0
M  V30 32429 H 3005.46 -2.14703 3.44467 0
M  V30 32430 H 3006.23 -0.0987897 4.84899 0
M  V30 32431 H 3002.11 -1.25347 4.43632 0
M  V30 32432 H 3005.65 1.19142 6.87351 0
M  V30 32433 H 3001.55 0.0298838 6.45493 0
M  V30 32434 H 3002.31 1.32526 8.077 0
M  V30 32435 N 3004.98 -1.54511 -0.310498 0
M  V30 32436 C 3006.39 -1.45513 -0.655612 0
M  V30 32437 C 3006.59 -0.638597 -1.91113 0
M  V30 32438 O 3005.65 -0.142542 -2.52097 0
M  V30 32439 C 3006.96 -2.89376 -0.817451 0
M  V30 32440 C 3008.51 -2.99359 -0.91395 0
M  V30 32441 C 3008.99 -4.44399 -1.10786 0
M  V30 32442 N 3010.48 -4.48068 -1.17429 0
M  V30 32443 C 3011.21 -5.57464 -1.34245 0
M  V30 32444 N 3010.71 -6.76803 -1.4802 0
M  V30 32445 N 3012.5 -5.45135 -1.37057 0
M  V30 32446 H 3004.65 -2.06073 0.514542 0
M  V30 32447 H 3006.91 -0.932906 0.168494 0
M  V30 32448 H 3006.62 -3.51684 0.0340648 0
M  V30 32449 H 3006.49 -3.36246 -1.70934 0
M  V30 32450 H 3008.88 -2.37171 -1.75596 0
M  V30 32451 H 3008.96 -2.558 0.00175454 0
M  V30 32452 H 3008.61 -5.07178 -0.270654 0
M  V30 32453 H 3008.54 -4.8558 -2.03764 0
M  V30 32454 H 3011.03 -3.62086 -1.08175 0
M  V30 32455 H 3011.34 -7.55933 -1.60579 0
M  V30 32456 H 3009.69 -6.79686 -1.45093 0
M  V30 32457 H 3012.88 -4.50851 -1.25901 0
M  V30 32458 H 3013.05 -6.30443 -1.4982 0
M  V30 32459 N 3006.46 0.573222 -1.46806 0
M  V30 32460 C 3007.68 1.35688 -1.56194 0
M  V30 32461 C 3008.1 1.87668 -0.206395 0
M  V30 32462 O 3007.46 1.64136 0.797855 0
M  V30 32463 C 3007.51 2.53787 -2.57438 0
M  V30 32464 O 3007.23 2.03958 -3.87728 0
M  V30 32465 C 3008.73 3.46215 -2.76857 0
M  V30 32466 H 3005.95 0.414183 -0.527914 0
M  V30 32467 H 3008.49 0.695956 -1.92293 0
M  V30 32468 H 3006.65 3.1585 -2.24316 0
M  V30 32469 H 3007.06 2.8094 -4.42914 0
M  V30 32470 H 3008.54 4.25539 -3.51598 0
M  V30 32471 H 3009.01 3.98752 -1.84103 0
M  V30 32472 H 3009.62 2.89981 -3.11113 0
M  V30 32473 N 3007.93 1.3467 0.818645 0
M  V30 32474 C 3009.18 1.27267 1.5751 0
M  V30 32475 C 3009.51 -0.156219 1.93872 0
M  V30 32476 O 3008.76 -1.11854 1.60584 0
M  V30 32477 C 3009.06 2.11309 2.88242 0
M  V30 32478 C 3008.73 3.60259 2.71153 0
M  V30 32479 C 3007.39 4.00863 2.662 0
M  V30 32480 C 3009.74 4.54823 2.5453 0
M  V30 32481 C 3007.07 5.34215 2.42551 0
M  V30 32482 C 3009.42 5.8836 2.32411 0
M  V30 32483 C 3008.09 6.28122 2.25873 0
M  V30 32484 H 3007.36 0.465702 0.57637 0
M  V30 32485 H 3010 1.66453 0.946871 0
M  V30 32486 H 3008.31 1.64965 3.55379 0
M  V30 32487 H 3010.01 2.02925 3.45865 0
M  V30 32488 H 3006.6 3.28032 2.7585 0
M  V30 32489 H 3010.78 4.24348 2.57376 0
M  V30 32490 H 3006.04 5.64037 2.3595 0
M  V30 32491 H 3010.21 6.61222 2.18536 0
M  V30 32492 H 3007.84 7.31387 2.07309 0
M  V30 32493 N 3009.41 -1.03936 1.1847 0
M  V30 32494 C 3010.64 -1.80808 1.00579 0
M  V30 32495 C 3011.05 -1.83462 -0.445754 0
M  V30 32496 O 3010.41 -1.27103 -1.30962 0
M  V30 32497 C 3010.46 -3.26348 1.55497 0
M  V30 32498 O 3010.18 -3.23921 2.94969 0
M  V30 32499 C 3011.68 -4.19859 1.42243 0
M  V30 32500 H 3008.9 -0.569344 0.35509 0
M  V30 32501 H 3011.45 -1.30982 1.57048 0
M  V30 32502 H 3009.6 -3.73401 1.03202 0
M  V30 32503 H 3010.02 -4.15105 3.20606 0
M  V30 32504 H 3011.49 -5.19911 1.85464 0
M  V30 32505 H 3011.97 -4.37627 0.371344 0
M  V30 32506 H 3012.57 -3.78672 1.93617 0
M  V30 32507 N 3010.89 -0.986938 -1.22871 0
M  V30 32508 C 3012.3 -0.695468 -1.73263 0
M  V30 32509 C 3012.65 0.787992 -1.79681 0
M  V30 32510 O 3011.78 1.61615 -1.43908 0
M  V30 32511 C 3012.37 -1.25576 -3.14668 0
M  V30 32512 C 3010.93 -1.0138 -3.6249 0
M  V30 32513 C 3010.08 -1.37955 -2.40549 0
M  V30 32514 H 3013.03 -1.16001 -1.08302 0
M  V30 32515 H 3013.05 -0.631388 -3.75225 0
M  V30 32516 H 3012.56 -2.33544 -3.09965 0
M  V30 32517 H 3010.66 0.0495263 -3.72567 0
M  V30 32518 H 3010.78 -1.67297 -4.48941 0
M  V30 32519 H 3009.14 -0.798076 -2.41874 0
M  V30 32520 H 3009.92 -2.46915 -2.38512 0
M  V30 32521 N 3012.37 1.38098 -0.759394 0
M  V30 32522 C 3013.33 2.28749 -0.14376 0
M  V30 32523 C 3014.33 1.47458 0.641312 0
M  V30 32524 O 3015.52 1.67831 0.466721 0
M  V30 32525 C 3012.65 3.31272 0.804486 0
M  V30 32526 H 3013.85 2.84698 -0.942713 0
M  V30 32527 H 3011.4 1.47155 -0.526783 0
M  V30 32528 H 3012.13 2.80423 1.6289 0
M  V30 32529 H 3011.92 3.91341 0.24387 0
M  V30 32530 H 3013.41 3.99043 1.23104 0
M  V30 32531 N 3013.85 0.508932 1.49156 0
M  V30 32532 C 3015.07 -0.0314817 2.07376 0
M  V30 32533 C 3015.5 -1.29338 1.36577 0
M  V30 32534 O 3014.85 -1.76248 0.424994 0
M  V30 32535 C 3014.9 -0.260054 3.59661 0
M  V30 32536 O 3014.01 -1.33315 3.90257 0
M  V30 32537 H 3013.35 0.0297506 0.663333 0
M  V30 32538 H 3015.88 0.710825 1.91855 0
M  V30 32539 H 3015.89 -0.489154 4.05057 0
M  V30 32540 H 3014.56 0.661866 4.106 0
M  V30 32541 H 3013.14 -1.08838 3.56663 0
M  V30 32542 N 3015.32 -1.55714 0.243111 0
M  V30 32543 C 3016.25 -2.24204 -0.652297 0
M  V30 32544 C 3017.23 -1.22102 -1.18428 0
M  V30 32545 O 3018.42 -1.50745 -1.22432 0
M  V30 32546 C 3015.55 -2.93859 -1.85105 0
M  V30 32547 C 3014.5 -4.02617 -1.45201 0
M  V30 32548 C 3013.83 -4.59679 -2.73129 0
M  V30 32549 C 3015.13 -5.18536 -0.625897 0
M  V30 32550 H 3016.82 -2.9929 -0.0811978 0
M  V30 32551 H 3014.37 -1.43951 -0.0376135 0
M  V30 32552 H 3016.32 -3.40472 -2.48308 0
M  V30 32553 H 3015.05 -2.16255 -2.44747 0
M  V30 32554 H 3013.71 -3.56768 -0.843343 0
M  V30 32555 H 3013.35 -3.7878 -3.3096 0
M  V30 32556 H 3013.05 -5.33094 -2.47154 0
M  V30 32557 H 3014.58 -5.09023 -3.37236 0
M  V30 32558 H 3015.99 -5.61398 -1.16213 0
M  V30 32559 H 3014.39 -5.98316 -0.462359 0
M  V30 32560 H 3015.46 -4.83541 0.362737 0
M  V30 32561 N 3016.8 0.030048 -1.57571 0
M  V30 32562 C 3018.03 0.732857 -1.93486 0
M  V30 32563 C 3018.45 1.68945 -0.842788 0
M  V30 32564 O 3017.8 1.81601 0.180872 0
M  V30 32565 C 3017.85 1.49076 -3.2933 0
M  V30 32566 O 3017.57 0.572563 -4.34342 0
M  V30 32567 C 3019.08 2.29082 -3.79521 0
M  V30 32568 H 3016.3 0.206015 -0.638591 0
M  V30 32569 H 3018.84 -0.0121326 -2.04496 0
M  V30 32570 H 3016.99 2.18764 -3.1972 0
M  V30 32571 H 3017.41 1.10397 -5.1275 0
M  V30 32572 H 3018.88 2.77656 -4.77086 0
M  V30 32573 H 3019.36 3.10458 -3.10664 0
M  V30 32574 H 3019.97 1.6447 -3.92211 0
M  V30 32575 N 3018.28 1.54674 0.3023 0
M  V30 32576 C 3019.53 1.7415 1.03921 0
M  V30 32577 C 3019.86 0.525074 1.86967 0
M  V30 32578 O 3019.13 -0.477835 1.88539 0
M  V30 32579 C 3019.42 3.02972 1.94628 0
M  V30 32580 C 3019.27 4.34911 1.1477 0
M  V30 32581 C 3020.59 3.27654 2.93821 0
M  V30 32582 H 3017.71 0.633638 0.376394 0
M  V30 32583 H 3020.35 1.87388 0.313974 0
M  V30 32584 H 3018.5 2.91817 2.56466 0
M  V30 32585 H 3020.17 4.57982 0.552282 0
M  V30 32586 H 3018.42 4.31456 0.450386 0
M  V30 32587 H 3019.09 5.21313 1.81486 0
M  V30 32588 H 3021.56 3.3841 2.42111 0
M  V30 32589 H 3020.44 4.1911 3.54455 0
M  V30 32590 H 3020.7 2.45888 3.67412 0
M  V30 32591 N 3019.76 -0.565428 1.47108 0
M  V30 32592 C 3021.17 -1.14757 1.47268 0
M  V30 32593 C 3021.52 -1.9493 0.222876 0
M  V30 32594 O 3020.65 -2.05675 -0.672825 0
M  V30 32595 C 3021.24 -2.08781 2.66826 0
M  V30 32596 C 3019.8 -2.62283 2.69971 0
M  V30 32597 C 3018.95 -1.38495 2.40238 0
M  V30 32598 H 3021.9 -0.352452 1.54737 0
M  V30 32599 H 3021.92 -2.92526 2.43328 0
M  V30 32600 H 3021.43 -1.50402 3.57772 0
M  V30 32601 H 3019.53 -3.24483 1.83143 0
M  V30 32602 H 3019.64 -3.03838 3.70431 0
M  V30 32603 H 3018.01 -1.68892 1.9065 0
M  V30 32604 H 3018.79 -0.819216 3.33382 0
M  V30 32605 N 3021.24 -1.35102 -0.811492 0
M  V30 32606 C 3022.46 -1.31361 -1.60497 0
M  V30 32607 C 3022.89 0.10735 -1.87793 0
M  V30 32608 O 3022.24 1.07266 -1.46163 0
M  V30 32609 C 3022.29 -2.12124 -2.91609 0
M  V30 32610 O 3021.4 -1.4986 -3.84208 0
M  V30 32611 H 3020.74 -0.450611 -0.487694 0
M  V30 32612 H 3023.27 -1.78072 -1.00754 0
M  V30 32613 H 3023.28 -2.239 -3.41076 0
M  V30 32614 H 3021.95 -3.1543 -2.71066 0
M  V30 32615 H 3020.53 -1.46895 -3.42748 0
M  V30 32616 N 3022.71 1.03306 -1.19019 0
M  V30 32617 C 3023.94 1.80809 -1.01602 0
M  V30 32618 C 3024.36 1.83102 0.43074 0
M  V30 32619 O 3023.72 1.25393 1.30943 0
M  V30 32620 C 3023.77 3.2392 -1.58455 0
M  V30 32621 O 3022.87 4.04346 -0.811043 0
M  V30 32622 H 3022.22 0.558321 -0.359408 0
M  V30 32623 H 3024.75 1.30053 -1.57948 0
M  V30 32624 H 3024.76 3.74679 -1.61492 0
M  V30 32625 H 3023.43 3.21566 -2.63758 0
M  V30 32626 H 3022.01 3.62999 -0.853593 0
M  V30 32627 N 3024.19 0.99344 1.22346 0
M  V30 32628 C 3025.44 0.669602 1.91109 0
M  V30 32629 C 3025.77 -0.798399 1.77358 0
M  V30 32630 O 3025.02 -1.59298 1.13678 0
M  V30 32631 C 3025.32 1.02203 3.42475 0
M  V30 32632 C 3024.99 2.48238 3.76415 0
M  V30 32633 C 3023.65 2.88146 3.8539 0
M  V30 32634 C 3026 3.42891 3.92524 0
M  V30 32635 C 3023.33 4.21694 4.07911 0
M  V30 32636 C 3025.68 4.76099 4.16549 0
M  V30 32637 C 3024.35 5.15746 4.23748 0
M  V30 32638 H 3023.62 0.245025 0.699317 0
M  V30 32639 H 3026.26 1.24973 1.451 0
M  V30 32640 H 3024.57 0.35999 3.90143 0
M  V30 32641 H 3026.26 0.74949 3.93934 0
M  V30 32642 H 3022.85 2.16306 3.70013 0
M  V30 32643 H 3027.04 3.1323 3.84968 0
M  V30 32644 H 3022.29 4.52 4.11711 0
M  V30 32645 H 3026.47 5.49387 4.27956 0
M  V30 32646 H 3024.1 6.19246 4.40951 0
M  V30 32647 N 3025.67 -1.37693 0.766707 0
M  V30 32648 C 3027.09 -1.53248 0.445766 0
M  V30 32649 C 3027.29 -1.72628 -1.03932 0
M  V30 32650 O 3026.34 -1.74476 -1.82522 0
M  V30 32651 C 3027.66 -2.73192 1.25645 0
M  V30 32652 C 3029.2 -2.8705 1.24784 0
M  V30 32653 C 3029.68 -4.09971 2.04176 0
M  V30 32654 N 3031.17 -4.17074 2.01504 0
M  V30 32655 C 3031.9 -5.11208 2.59719 0
M  V30 32656 N 3031.4 -6.10932 3.26702 0
M  V30 32657 N 3033.19 -5.03654 2.49577 0
M  V30 32658 H 3025.34 -1.23365 1.72901 0
M  V30 32659 H 3027.61 -0.600309 0.733712 0
M  V30 32660 H 3027.31 -2.6532 2.30864 0
M  V30 32661 H 3027.19 -3.66738 0.882198 0
M  V30 32662 H 3029.57 -2.94396 0.203655 0
M  V30 32663 H 3029.66 -1.94477 1.66169 0
M  V30 32664 H 3029.3 -4.03386 3.08613 0
M  V30 32665 H 3029.23 -5.01648 1.60176 0
M  V30 32666 H 3031.72 -3.4566 1.52734 0
M  V30 32667 H 3032.03 -6.7928 3.68509 0
M  V30 32668 H 3030.38 -6.11226 3.30799 0
M  V30 32669 H 3033.57 -4.2469 1.96866 0
M  V30 32670 H 3033.74 -5.76833 2.95241 0
M  V30 32671 N 3027.15 -0.516835 -1.48884 0
M  V30 32672 C 3028.1 0.266616 -2.31067 0
M  V30 32673 C 3029.09 0.947925 -1.40395 0
M  V30 32674 O 3030.3 0.873808 -1.57368 0
M  V30 32675 H 3026.67 0.104844 -0.744655 0
M  V30 32676 H 3028.64 -0.446288 -2.95044 0
M  V30 32677 C 3027.39 1.30864 -3.22133 0
M  V30 32678 H 3026.71 0.793796 -3.9184 0
M  V30 32679 H 3028.15 1.8285 -3.82547 0
M  V30 32680 C 3026.61 2.33529 -2.42829 0
M  V30 32681 O 3027.14 3.39718 -2.1437 0
M  V30 32682 N 3025.35 2.06403 -2.04563 0
M  V30 32683 H 3024.9 1.20067 -2.27907 0
M  V30 32684 H 3024.85 2.75319 -1.51812 0
M  V30 32685 N 3028.63 1.55583 -0.251365 0
M  V30 32686 C 3029.57 2.21566 0.646298 0
M  V30 32687 C 3030.54 1.18104 1.16793 0
M  V30 32688 O 3031.73 1.46567 1.22159 0
M  V30 32689 C 3028.87 2.92237 1.83552 0
M  V30 32690 C 3027.98 4.10365 1.34999 0
M  V30 32691 C 3027.12 4.6874 2.49912 0
M  V30 32692 C 3026.16 5.79108 1.98243 0
M  V30 32693 N 3025.29 6.31647 3.0654 0
M  V30 32694 H 3030.13 2.97901 0.0769357 0
M  V30 32695 H 3027.67 1.47077 0.0262121 0
M  V30 32696 H 3029.63 3.31413 2.53419 0
M  V30 32697 H 3028.26 2.18369 2.37729 0
M  V30 32698 H 3027.31 3.76473 0.545208 0
M  V30 32699 H 3028.62 4.90028 0.931349 0
M  V30 32700 H 3027.78 5.10513 3.27814 0
M  V30 32701 H 3026.51 3.88303 2.9508 0
M  V30 32702 H 3025.52 5.36809 1.18813 0
M  V30 32703 H 3026.74 6.61399 1.54039 0
M  V30 32704 H 3024.69 5.54113 3.51133 0
M  V30 32705 H 3024.61 7.06515 2.6902 0
M  V30 32706 H 3025.88 6.78078 3.84487 0
M  V30 32707 N 3030.1 -0.0216912 1.57585 0
M  V30 32708 C 3031.05 -1.03838 2.08136 0
M  V30 32709 C 3032.05 -1.36976 0.996686 0
M  V30 32710 O 3033.25 -1.35795 1.18151 0
M  V30 32711 H 3029.63 -0.352426 0.664304 0
M  V30 32712 H 3031.6 -0.586288 2.92584 0
M  V30 32713 C 3030.35 -2.32844 2.58223 0
M  V30 32714 H 3029.67 -2.08208 3.41306 0
M  V30 32715 H 3031.11 -3.02311 2.97295 0
M  V30 32716 C 3029.57 -3.02323 1.4867 0
M  V30 32717 O 3030.1 -3.92449 0.857144 0
M  V30 32718 N 3028.31 -2.63777 1.21943 0
M  V30 32719 H 3027.85 -1.90571 1.73322 0
M  V30 32720 H 3027.81 -3.10581 0.488578 0
M  V30 32721 N 3031.58 -1.54832 -0.294093 0
M  V30 32722 C 3032.81 -1.78767 -1.05153 0
M  V30 32723 C 3033.23 -0.548841 -1.79915 0
M  V30 32724 O 3032.59 0.500878 -1.74244 0
M  V30 32725 C 3032.64 -2.99896 -2.00236 0
M  V30 32726 O 3031.74 -2.73504 -3.08657 0
M  V30 32727 H 3031.08 -0.591487 -0.301727 0
M  V30 32728 H 3033.61 -2.01931 -0.329414 0
M  V30 32729 H 3033.62 -3.28056 -2.42577 0
M  V30 32730 H 3032.3 -3.8972 -1.45229 0
M  V30 32731 H 3030.88 -2.56382 -2.70782 0
M  V30 32732 N 3033.06 0.557619 -1.47405 0
M  V30 32733 C 3034.34 1.3184 -1.4449 0
M  V30 32734 C 3034.72 2.10624 -0.141637 0
M  V30 32735 O 3034.07 2.11005 0.876871 0
M  V30 32736 C 3034.28 2.22327 -2.6902 0
M  V30 32737 C 3035.62 2.83359 -3.16217 0
M  V30 32738 O 3036.65 2.32629 -2.69745 0
M  V30 32739 O 3035.51 3.75564 -3.97006 0
M  V30 32740 H 3032.6 0.593629 -0.57579 0
M  V30 32741 H 3035.15 0.576556 -1.59606 0
M  V30 32742 H 3033.92 1.63709 -3.55408 0
M  V30 32743 H 3033.54 3.03808 -2.56489 0
M  V30 32744 N 3034.54 1.35531 0.804316 0
M  V30 32745 C 3035.49 1.28638 1.91627 0
M  V30 32746 C 3036.46 0.157891 1.65348 0
M  V30 32747 O 3037.64 0.341967 1.8771 0
M  V30 32748 C 3034.78 1.06656 3.28205 0
M  V30 32749 C 3033.89 2.28447 3.66655 0
M  V30 32750 C 3033.03 1.99596 4.92275 0
M  V30 32751 C 3032.07 3.17429 5.23359 0
M  V30 32752 N 3031.21 2.8834 6.4016 0
M  V30 32753 H 3036.05 2.23724 1.96854 0
M  V30 32754 H 3033.58 1.1121 0.962852 0
M  V30 32755 H 3035.54 0.919415 4.06943 0
M  V30 32756 H 3034.17 0.15231 3.2244 0
M  V30 32757 H 3033.22 2.54018 2.83159 0
M  V30 32758 H 3034.53 3.16427 3.85585 0
M  V30 32759 H 3033.69 1.81726 5.78844 0
M  V30 32760 H 3032.43 1.08905 4.75385 0
M  V30 32761 H 3031.43 3.35875 4.35279 0
M  V30 32762 H 3032.66 4.08926 5.42178 0
M  V30 32763 H 3030.6 2.00244 6.24691 0
M  V30 32764 H 3030.52 3.69854 6.59351 0
M  V30 32765 H 3031.79 2.74015 7.29751 0
M  V30 32766 N 3036.02 -1.02674 1.19565 0
M  V30 32767 C 3036.95 -2.11084 0.893091 0
M  V30 32768 C 3037.96 -1.62393 -0.115072 0
M  V30 32769 O 3039.15 -1.78132 0.114621 0
M  V30 32770 C 3036.25 -3.37427 0.315593 0
M  V30 32771 C 3035.42 -4.15298 1.37283 0
M  V30 32772 C 3034.48 -5.19952 0.808489 0
M  V30 32773 O 3033.51 -5.49441 1.48671 0
M  V30 32774 N 3034.71 -5.79208 -0.387151 0
M  V30 32775 H 3037.48 -2.37629 1.82626 0
M  V30 32776 H 3035.04 -1.18982 1.09794 0
M  V30 32777 H 3037.03 -4.04629 -0.0758455 0
M  V30 32778 H 3035.6 -3.08212 -0.521907 0
M  V30 32779 H 3034.82 -3.43213 1.93903 0
M  V30 32780 H 3036.11 -4.6411 2.08517 0
M  V30 32781 H 3035.51 -5.5757 -0.955627 0
M  V30 32782 H 3034.06 -6.47807 -0.720344 0
M  V30 32783 N 3037.5 -0.999914 -1.21817 0
M  V30 32784 C 3038.91 -0.711849 -1.42846 0
M  V30 32785 C 3039.11 0.714895 -1.88392 0
M  V30 32786 O 3038.17 1.48491 -2.04222 0
M  V30 32787 C 3039.48 -1.72339 -2.46414 0
M  V30 32788 C 3041.03 -1.73963 -2.60204 0
M  V30 32789 C 3041.5 -2.73998 -3.67 0
M  V30 32790 N 3042.99 -2.72635 -3.74465 0
M  V30 32791 C 3043.73 -3.46701 -4.56712 0
M  V30 32792 N 3043.23 -4.3039 -5.42897 0
M  V30 32793 N 3045.02 -3.35374 -4.51088 0
M  V30 32794 H 3037.17 -1.92126 -0.905622 0
M  V30 32795 H 3039.43 -0.828985 -0.459879 0
M  V30 32796 H 3039.14 -2.74469 -2.19909 0
M  V30 32797 H 3039.01 -1.52192 -3.45134 0
M  V30 32798 H 3041.4 -0.725268 -2.86049 0
M  V30 32799 H 3041.48 -1.9818 -1.61735 0
M  V30 32800 H 3041.12 -3.75588 -3.41901 0
M  V30 32801 H 3041.05 -2.47048 -4.65054 0
M  V30 32802 H 3043.55 -2.11915 -3.12891 0
M  V30 32803 H 3043.86 -4.83713 -6.02695 0
M  V30 32804 H 3042.2 -4.34474 -5.42455 0
M  V30 32805 H 3045.39 -2.69429 -3.82786 0
M  V30 32806 H 3045.57 -3.93353 -5.14953 0
M  V30 32807 N 3038.97 1.37284 -0.773999 0
M  V30 32808 C 3040.2 2.04432 -0.349597 0
M  V30 32809 C 3040.62 1.57992 1.02079 0
M  V30 32810 O 3039.98 0.741201 1.65457 0
M  V30 32811 C 3040.03 3.58326 -0.404355 0
M  V30 32812 O 3039.13 4.08094 0.594375 0
M  V30 32813 H 3038.47 0.64661 -0.15097 0
M  V30 32814 H 3041 1.75553 -1.05082 0
M  V30 32815 H 3041.01 4.07155 -0.26245 0
M  V30 32816 H 3039.69 3.91482 -1.4041 0
M  V30 32817 H 3038.27 3.70579 0.415403 0
M  V30 32818 N 3040.45 0.524724 1.48608 0
M  V30 32819 C 3041.41 -0.230126 2.28042 0
M  V30 32820 C 3042.41 -0.87256 1.35067 0
M  V30 32821 O 3043.6 -0.733423 1.58008 0
M  V30 32822 C 3040.74 -1.33247 3.1378 0
M  V30 32823 H 3041.93 0.467213 2.96238 0
M  V30 32824 H 3039.48 0.280479 1.53763 0
M  V30 32825 H 3040.22 -2.06322 2.50203 0
M  V30 32826 H 3040 -0.876991 3.82167 0
M  V30 32827 H 3041.49 -1.86355 3.73713 0
M  V30 32828 N 3041.93 -1.55447 0.259613 0
M  V30 32829 C 3043.21 -1.912 -0.412561 0
M  V30 32830 C 3043.59 -1.18197 -1.74907 0
M  V30 32831 O 3042.93 -0.303643 -2.26474 0
M  V30 32832 C 3043.14 -3.44345 -0.568134 0
M  V30 32833 C 3044.49 -4.15837 -0.85818 0
M  V30 32834 O 3045.52 -3.50154 -0.653526 0
M  V30 32835 O 3044.38 -5.32044 -1.24865 0
M  V30 32836 H 3041.47 -0.796258 -0.223389 0
M  V30 32837 H 3044.02 -1.66944 0.30462 0
M  V30 32838 H 3042.79 -3.89518 0.373058 0
M  V30 32839 H 3042.41 -3.74504 -1.33537 0
M  V30 32840 N 3043.41 0.0133338 -1.57594 0
M  V30 32841 C 3044.63 0.715962 -1.9465 0
M  V30 32842 C 3045.06 1.67247 -0.860815 0
M  V30 32843 O 3044.42 1.80382 0.182196 0
M  V30 32844 C 3044.46 1.4356 -3.30791 0
M  V30 32845 O 3043.57 2.54949 -3.24152 0
M  V30 32846 H 3042.91 0.191437 -0.635805 0
M  V30 32847 H 3045.44 -0.0358837 -2.04569 0
M  V30 32848 H 3045.45 1.80202 -3.66048 0
M  V30 32849 H 3044.12 0.734191 -4.09368 0
M  V30 32850 H 3042.7 2.20733 -3.00551 0
M  V30 32851 N 3044.89 1.54985 0.285878 0
M  V30 32852 C 3045.82 1.89986 1.35749 0
M  V30 32853 C 3046.8 0.760321 1.52162 0
M  V30 32854 O 3047.98 1.01736 1.65419 0
M  V30 32855 C 3045.11 2.16047 2.71921 0
M  V30 32856 C 3044.07 3.31883 2.70255 0
M  V30 32857 C 3043.39 3.43395 4.09858 0
M  V30 32858 C 3044.69 4.68609 2.30659 0
M  V30 32859 H 3046.39 2.7974 1.06704 0
M  V30 32860 H 3043.93 1.34596 0.51186 0
M  V30 32861 H 3045.88 2.39119 3.46987 0
M  V30 32862 H 3044.61 1.23079 3.02521 0
M  V30 32863 H 3043.27 3.08759 1.97645 0
M  V30 32864 H 3042.92 2.47917 4.3766 0
M  V30 32865 H 3042.62 4.21269 4.09641 0
M  V30 32866 H 3044.14 3.68745 4.86682 0
M  V30 32867 H 3045.55 4.9131 2.95444 0
M  V30 32868 H 3043.95 5.49305 2.41627 0
M  V30 32869 H 3045.02 4.68301 1.25785 0
M  V30 32870 N 3046.36 -0.549794 1.47699 0
M  V30 32871 C 3047.61 -1.30856 1.54934 0
M  V30 32872 C 3047.94 -1.93017 0.214055 0
M  V30 32873 O 3047.22 -1.78259 -0.778062 0
M  V30 32874 C 3047.5 -2.41304 2.67291 0
M  V30 32875 C 3047.35 -1.83964 4.1046 0
M  V30 32876 C 3048.67 -3.4319 2.75515 0
M  V30 32877 H 3045.79 -0.474421 0.563998 0
M  V30 32878 H 3048.43 -0.61451 1.79788 0
M  V30 32879 H 3046.58 -3.00505 2.46229 0
M  V30 32880 H 3048.26 -1.28966 4.42906 0
M  V30 32881 H 3046.5 -1.14599 4.18389 0
M  V30 32882 H 3047.17 -2.63842 4.84862 0
M  V30 32883 H 3049.65 -2.93918 2.94536 0
M  V30 32884 H 3048.52 -4.17889 3.55893 0
M  V30 32885 H 3048.78 -4.02506 1.8287 0
M  V30 32886 N 3047.84 -1.35955 -0.797117 0
M  V30 32887 C 3048.75 -1.31788 -1.94086 0
M  V30 32888 C 3049.77 -0.221258 -1.72588 0
M  V30 32889 O 3050.94 -0.45229 -1.96256 0
M  V30 32890 C 3048.01 -1.09884 -3.28826 0
M  V30 32891 C 3047.07 -2.28949 -3.63154 0
M  V30 32892 C 3046.3 -2.08081 -4.91465 0
M  V30 32893 O 3046.53 -1.05206 -5.60614 0
M  V30 32894 O 3045.46 -2.95673 -5.24272 0
M  V30 32895 H 3049.29 -2.28065 -2.0055 0
M  V30 32896 H 3046.87 -1.16423 -0.936267 0
M  V30 32897 H 3048.75 -0.995557 -4.09471 0
M  V30 32898 H 3047.43 -0.166647 -3.23271 0
M  V30 32899 H 3046.34 -2.44844 -2.82847 0
M  V30 32900 H 3047.67 -3.20648 -3.73425 0
M  V30 32901 N 3049.32 1.02038 -1.20108 0
M  V30 32902 C 3050.28 2.08662 -0.948298 0
M  V30 32903 C 3051.28 1.60627 0.0746471 0
M  V30 32904 O 3052.47 1.73454 -0.161011 0
M  V30 32905 C 3049.61 3.38216 -0.426914 0
M  V30 32906 H 3050.8 2.32521 -1.89404 0
M  V30 32907 H 3048.35 1.1878 -1.01592 0
M  V30 32908 H 3049.09 3.20031 0.524476 0
M  V30 32909 H 3048.87 3.74406 -1.16458 0
M  V30 32910 H 3050.36 4.1673 -0.26942 0
M  V30 32911 N 3050.8 1.00636 1.21285 0
M  V30 32912 C 3052.04 0.690856 1.9067 0
M  V30 32913 C 3052.38 -0.776561 1.77998 0
M  V30 32914 O 3051.65 -1.56308 1.15751 0
M  V30 32915 C 3051.94 1.11434 3.42424 0
M  V30 32916 C 3051.79 2.64131 3.64081 0
M  V30 32917 C 3053.11 0.677763 4.3485 0
M  V30 32918 H 3050.23 0.252451 0.692414 0
M  V30 32919 H 3052.87 1.25228 1.42891 0
M  V30 32920 H 3051.02 0.636654 3.83248 0
M  V30 32921 H 3052.69 3.19673 3.32576 0
M  V30 32922 H 3050.93 3.05581 3.079 0
M  V30 32923 H 3051.6 2.88814 4.70415 0
M  V30 32924 H 3054.08 1.08827 4.01617 0
M  V30 32925 H 3052.96 1.00222 5.39673 0
M  V30 32926 H 3053.22 -0.421048 4.4009 0
M  V30 32927 N 3052.28 -1.36872 0.781268 0
M  V30 32928 C 3053.21 -2.32741 0.188169 0
M  V30 32929 C 3054.19 -1.5625 -0.672299 0
M  V30 32930 O 3055.37 -1.84444 -0.607802 0
M  V30 32931 C 3052.5 -3.40492 -0.684281 0
M  V30 32932 C 3051.46 -4.27933 0.0756394 0
M  V30 32933 C 3050.78 -5.2678 -0.916875 0
M  V30 32934 C 3052.08 -5.0687 1.26015 0
M  V30 32935 H 3053.78 -2.82591 0.989066 0
M  V30 32936 H 3051.32 -1.35868 0.477062 0
M  V30 32937 H 3053.28 -4.06543 -1.10908 0
M  V30 32938 H 3052 -2.89189 -1.5178 0
M  V30 32939 H 3050.66 -3.63427 0.481322 0
M  V30 32940 H 3050.31 -4.71754 -1.7452 0
M  V30 32941 H 3050.01 -5.86148 -0.412897 0
M  V30 32942 H 3051.53 -5.95706 -1.34041 0
M  V30 32943 H 3052.94 -5.66007 0.911524 0
M  V30 32944 H 3051.34 -5.7561 1.69686 0
M  V30 32945 H 3052.41 -4.38988 2.05956 0
M  V30 32946 N 3053.75 -0.532597 -1.48328 0
M  V30 32947 C 3055 0.0025616 -2.017 0
M  V30 32948 C 3055.32 1.35075 -1.41472 0
M  V30 32949 O 3056.52 1.97442 -1.86357 0
M  V30 32950 C 3054.98 0.0549546 -3.59858 0
M  V30 32951 C 3054.59 -1.28849 -4.29071 0
M  V30 32952 C 3056.33 0.538804 -4.21067 0
M  V30 32953 C 3054.24 -1.19654 -5.79169 0
M  V30 32954 H 3053.17 0.00472755 -0.753985 0
M  V30 32955 H 3055.82 -0.676769 -1.70564 0
M  V30 32956 H 3054.2 0.799417 -3.87847 0
M  V30 32957 H 3055.37 -2.04873 -4.12752 0
M  V30 32958 H 3053.69 -1.70829 -3.79745 0
M  V30 32959 H 3056.29 0.625607 -5.31028 0
M  V30 32960 H 3056.63 1.54519 -3.86561 0
M  V30 32961 H 3057.16 -0.150054 -3.97517 0
M  V30 32962 H 3053.9 -2.17816 -6.18253 0
M  V30 32963 H 3053.42 -0.477714 -5.97895 0
M  V30 32964 H 3055.1 -0.888298 -6.40873 0
M  V30 32965 N 3055.23 1.55307 -0.267853 0
M  V30 32966 C 3056.46 2.04296 0.357451 0
M  V30 32967 C 3056.88 1.14521 1.4922 0
M  V30 32968 O 3056.24 0.142324 1.80741 0
M  V30 32969 C 3056.29 3.51087 0.822837 0
M  V30 32970 O 3055.39 3.64413 1.93071 0
M  V30 32971 H 3054.73 0.659749 0.0750134 0
M  V30 32972 H 3057.26 2.00651 -0.400031 0
M  V30 32973 H 3057.27 3.92311 1.12052 0
M  V30 32974 H 3055.95 4.15899 -0.0074293 0
M  V30 32975 H 3054.53 3.3509 1.63612 0
M  V30 32976 N 3056.71 -0.00497598 1.57599 0
M  V30 32977 C 3057.62 -1.01442 2.11534 0
M  V30 32978 C 3058.64 -1.38029 1.05944 0
M  V30 32979 O 3059.81 -1.46862 1.37817 0
M  V30 32980 C 3056.88 -2.2891 2.60386 0
M  V30 32981 C 3055.94 -1.98682 3.80557 0
M  V30 32982 C 3055.17 -3.20073 4.2707 0
M  V30 32983 O 3055.39 -4.31587 3.72946 0
M  V30 32984 O 3054.33 -3.04362 5.19276 0
M  V30 32985 H 3058.15 -0.585958 2.97994 0
M  V30 32986 H 3055.74 -0.223493 1.47719 0
M  V30 32987 H 3057.62 -3.03804 2.92029 0
M  V30 32988 H 3056.3 -2.71004 1.77027 0
M  V30 32989 H 3055.2 -1.2128 3.53895 0
M  V30 32990 H 3056.54 -1.61428 4.64975 0
M  V30 32991 N 3058.19 -1.55135 -0.277654 0
M  V30 32992 C 3059.44 -1.75175 -1.00788 0
M  V30 32993 C 3059.76 -0.553299 -1.86986 0
M  V30 32994 O 3059.03 0.431917 -1.91079 0
M  V30 32995 H 3057.61 -0.645984 -0.375118 0
M  V30 32996 H 3060.27 -1.9253 -0.303007 0
M  V30 32997 H 3059.37 -2.65073 -1.64751 0
M  V30 32998 N 3059.67 0.541953 -1.47989 0
M  V30 32999 C 3060.6 1.6571 -1.64506 0
M  V30 33000 C 3061.58 1.62764 -0.494144 0
M  V30 33001 O 3062.76 1.80148 -0.725287 0
M  V30 33002 C 3059.89 3.04325 -1.67343 0
M  V30 33003 C 3058.85 3.22125 -2.81815 0
M  V30 33004 C 3058.17 4.6168 -2.69733 0
M  V30 33005 C 3059.47 3.06039 -4.23247 0
M  V30 33006 H 3061.17 1.52142 -2.57862 0
M  V30 33007 H 3058.71 0.730507 -1.24095 0
M  V30 33008 H 3060.67 3.82199 -1.77487 0
M  V30 33009 H 3059.39 3.18888 -0.70557 0
M  V30 33010 H 3058.05 2.46664 -2.71205 0
M  V30 33011 H 3057.7 4.73062 -1.70942 0
M  V30 33012 H 3057.4 4.74537 -3.46538 0
M  V30 33013 H 3058.92 5.41669 -2.81828 0
M  V30 33014 H 3060.33 3.73716 -4.34752 0
M  V30 33015 H 3058.73 3.30396 -5.00958 0
M  V30 33016 H 3059.8 2.02601 -4.40546 0
M  V30 33017 N 3061.15 1.36376 0.789896 0
M  V30 33018 C 3062.39 1.30321 1.54469 0
M  V30 33019 C 3062.71 -0.117304 1.94647 0
M  V30 33020 O 3061.98 -1.05746 1.64908 0
M  V30 33021 H 3060.56 0.479404 0.57287 0
M  V30 33022 H 3063.23 1.70667 0.941215 0
M  V30 33023 H 3062.32 1.93028 2.45248 0
M  V30 33024 N 3062.62 -1.014 1.20647 0
M  V30 33025 C 3064.04 -1.27357 0.961889 0
M  V30 33026 C 3064.24 -1.98311 -0.357048 0
M  V30 33027 O 3063.3 -2.28003 -1.08494 0
M  V30 33028 C 3064.61 -2.10605 2.1463 0
M  V30 33029 C 3066.16 -2.23862 2.18757 0
M  V30 33030 C 3066.63 -3.10488 3.36691 0
M  V30 33031 N 3068.12 -3.18077 3.36721 0
M  V30 33032 C 3068.86 -3.85336 4.24622 0
M  V30 33033 N 3068.35 -4.54699 5.22705 0
M  V30 33034 N 3070.15 -3.81886 4.12456 0
M  V30 33035 H 3062.3 -0.537685 2.05482 0
M  V30 33036 H 3064.56 -0.299947 0.899297 0
M  V30 33037 H 3064.27 -1.65808 3.10162 0
M  V30 33038 H 3064.14 -3.11345 2.12941 0
M  V30 33039 H 3066.53 -2.67882 1.23786 0
M  V30 33040 H 3066.61 -1.22622 2.24494 0
M  V30 33041 H 3066.25 -2.67173 4.3195 0
M  V30 33042 H 3066.18 -4.11822 3.28192 0
M  V30 33043 H 3068.67 -2.6869 2.65733 0
M  V30 33044 H 3068.99 -5.03697 5.86096 0
M  V30 33045 H 3067.33 -4.53516 5.26639 0
M  V30 33046 H 3070.52 -3.26845 3.35097 0
M  V30 33047 H 3070.7 -4.34027 4.8117 0
M  V30 33048 N 3064.1 -1.01278 -1.2075 0
M  V30 33049 C 3065.33 -0.717968 -1.93723 0
M  V30 33050 C 3065.74 0.724702 -1.7477 0
M  V30 33051 O 3065.08 1.50283 -1.05644 0
M  V30 33052 C 3065.14 -0.969015 -3.46194 0
M  V30 33053 C 3064.81 -2.40005 -3.88904 0
M  V30 33054 C 3065.81 -3.38068 -3.94976 0
M  V30 33055 C 3063.49 -2.73977 -4.21001 0
M  V30 33056 C 3065.48 -4.68166 -4.32549 0
M  V30 33057 C 3063.17 -4.0429 -4.5825 0
M  V30 33058 C 3064.17 -5.01196 -4.63996 0
M  V30 33059 O 3063.86 -6.29177 -5.00392 0
M  V30 33060 H 3063.59 -0.263197 -0.622658 0
M  V30 33061 H 3066.14 -1.3558 -1.54296 0
M  V30 33062 H 3064.37 -0.27402 -3.85728 0
M  V30 33063 H 3066.06 -0.666382 -4.00393 0
M  V30 33064 H 3066.83 -3.13157 -3.70348 0
M  V30 33065 H 3062.71 -1.9924 -4.15722 0
M  V30 33066 H 3066.25 -5.43803 -4.36949 0
M  V30 33067 H 3062.15 -4.28981 -4.82333 0
M  V30 33068 H 3062.92 -6.33408 -5.18398 0
M  V30 33069 N 3065.58 1.36456 -0.788516 0
M  V30 33070 C 3066.54 2.28392 -0.192249 0
M  V30 33071 C 3067.54 1.48785 0.60989 0
M  V30 33072 O 3068.73 1.68784 0.431017 0
M  V30 33073 C 3065.86 3.32903 0.734038 0
M  V30 33074 H 3067.06 2.82634 -1.00289 0
M  V30 33075 H 3064.61 1.46005 -0.557878 0
M  V30 33076 H 3065.35 2.83815 1.56905 0
M  V30 33077 H 3065.13 3.9177 0.160806 0
M  V30 33078 H 3066.62 4.01564 1.14612 0
M  V30 33079 N 3067.06 0.540456 1.48043 0
M  V30 33080 C 3068.47 0.199034 1.58354 0
M  V30 33081 C 3068.67 -1.29805 1.5412 0
M  V30 33082 O 3067.73 -2.07706 1.43577 0
M  V30 33083 C 3069.04 0.810848 2.89561 0
M  V30 33084 C 3070.59 0.780539 3.03112 0
M  V30 33085 C 3071.07 1.37112 4.36995 0
M  V30 33086 N 3072.56 1.33355 4.43588 0
M  V30 33087 C 3073.29 1.76031 5.45711 0
M  V30 33088 N 3072.79 2.26484 6.54734 0
M  V30 33089 N 3074.58 1.67203 5.36656 0
M  V30 33090 H 3066.73 1.51332 1.49038 0
M  V30 33091 H 3068.99 0.630094 0.708298 0
M  V30 33092 H 3068.7 1.86232 2.98346 0
M  V30 33093 H 3068.57 0.294043 3.76052 0
M  V30 33094 H 3070.96 -0.262195 2.93933 0
M  V30 33095 H 3071.04 1.33493 2.18205 0
M  V30 33096 H 3070.69 2.41283 4.46928 0
M  V30 33097 H 3070.62 0.792321 5.20605 0
M  V30 33098 H 3073.11 0.964323 3.65389 0
M  V30 33099 H 3073.42 2.57014 7.2881 0
M  V30 33100 H 3071.77 2.30484 6.55669 0
M  V30 33101 H 3074.96 1.27577 4.5038 0
M  V30 33102 H 3075.13 2.00782 6.16109 0
M  V30 33103 N 3068.54 -1.55163 0.276085 0
M  V30 33104 C 3069.81 -1.91626 -0.392259 0
M  V30 33105 C 3070.19 -1.20046 -1.73644 0
M  V30 33106 O 3069.54 -0.327646 -2.26139 0
M  V30 33107 C 3069.75 -3.44928 -0.53158 0
M  V30 33108 C 3071.1 -4.16724 -0.814027 0
M  V30 33109 O 3072.12 -3.50827 -0.616351 0
M  V30 33110 O 3070.98 -5.33339 -1.19215 0
M  V30 33111 H 3068.08 -0.798582 -0.214931 0
M  V30 33112 H 3070.62 -1.66611 0.322309 0
M  V30 33113 H 3069.39 -3.891 0.41435 0
M  V30 33114 H 3069.02 -3.759 -1.29558 0
M  V30 33115 N 3070.01 -0.00338196 -1.576 0
M  V30 33116 C 3071.42 0.538977 -1.78751 0
M  V30 33117 C 3071.78 1.73761 -0.911127 0
M  V30 33118 O 3070.9 2.16097 -0.114514 0
M  V30 33119 C 3071.5 0.984554 -3.24179 0
M  V30 33120 C 3070.05 1.4722 -3.46415 0
M  V30 33121 C 3069.2 0.424956 -2.74024 0
M  V30 33122 H 3072.15 -0.229539 -1.57031 0
M  V30 33123 H 3072.17 1.85038 -3.32477 0
M  V30 33124 H 3071.69 0.111967 -3.87938 0
M  V30 33125 H 3069.79 2.36557 -2.87875 0
M  V30 33126 H 3069.9 1.49733 -4.55101 0
M  V30 33127 H 3068.26 0.887352 -2.38743 0
M  V30 33128 H 3069.05 -0.438722 -3.40485 0
M  V30 33129 N 3071.49 1.5528 0.269423 0
M  V30 33130 C 3072.44 1.88405 1.33312 0
M  V30 33131 C 3073.41 0.735907 1.48908 0
M  V30 33132 O 3074.59 0.987507 1.63257 0
M  V30 33133 C 3071.73 2.16459 2.68774 0
M  V30 33134 C 3070.85 3.43961 2.61371 0
M  V30 33135 C 3069.98 3.61697 3.89036 0
M  V30 33136 C 3069.02 4.82879 3.76158 0
M  V30 33137 N 3068.16 4.97254 4.95664 0
M  V30 33138 H 3073 2.79128 1.04363 0
M  V30 33139 H 3070.53 1.38192 0.504123 0
M  V30 33140 H 3072.49 2.30725 3.47594 0
M  V30 33141 H 3071.12 1.28967 2.95918 0
M  V30 33142 H 3070.17 3.38148 1.74241 0
M  V30 33143 H 3071.49 4.32918 2.47756 0
M  V30 33144 H 3070.64 3.758 4.76298 0
M  V30 33145 H 3069.38 2.70931 4.05521 0
M  V30 33146 H 3068.38 4.68776 2.87279 0
M  V30 33147 H 3069.61 5.75083 3.61187 0
M  V30 33148 H 3067.56 4.0942 5.12554 0
M  V30 33149 H 3067.47 5.80262 4.84594 0
M  V30 33150 H 3068.74 5.15745 5.84489 0
M  V30 33151 N 3072.97 -0.534097 1.48274 0
M  V30 33152 C 3074.22 -1.29015 1.56082 0
M  V30 33153 C 3074.54 -1.931 0.232946 0
M  V30 33154 O 3073.8 -1.7964 -0.776389 0
M  V30 33155 C 3074.1 -2.40394 2.64472 0
M  V30 33156 C 3073.76 -1.93988 4.07037 0
M  V30 33157 C 3072.43 -1.8105 4.45841 0
M  V30 33158 C 3074.78 -1.58868 4.96397 0
M  V30 33159 C 3072.11 -1.3132 5.71814 0
M  V30 33160 C 3074.46 -1.10603 6.22856 0
M  V30 33161 C 3073.12 -0.962779 6.6052 0
M  V30 33162 H 3072.39 -0.472098 0.571143 0
M  V30 33163 H 3075.04 -0.596468 1.81974 0
M  V30 33164 H 3073.34 -3.15414 2.32424 0
M  V30 33165 H 3075.04 -2.98533 2.6773 0
M  V30 33166 H 3071.63 -2.05008 3.7639 0
M  V30 33167 H 3075.82 -1.67726 4.67099 0
M  V30 33168 H 3071.07 -1.18914 5.99725 0
M  V30 33169 H 3075.25 -0.824974 6.91496 0
M  V30 33170 H 3072.87 -0.575236 7.5802 0
M  V30 33171 N 3074.45 -1.36793 -0.782652 0
M  V30 33172 C 3075.69 -1.31593 -1.54309 0
M  V30 33173 C 3076.03 0.102662 -1.93928 0
M  V30 33174 O 3075.3 1.05758 -1.63235 0
M  V30 33175 C 3075.58 -2.24494 -2.81557 0
M  V30 33176 C 3075.44 -3.75082 -2.48261 0
M  V30 33177 C 3076.76 -2.16041 -3.83425 0
M  V30 33178 H 3073.88 -0.479345 -0.559819 0
M  V30 33179 H 3076.52 -1.67403 -0.898687 0
M  V30 33180 H 3074.67 -1.94086 -3.36546 0
M  V30 33181 H 3076.34 -4.16039 -1.99272 0
M  V30 33182 H 3074.58 -3.94185 -1.81109 0
M  V30 33183 H 3075.25 -4.35505 -3.39175 0
M  V30 33184 H 3077.73 -2.42821 -3.37901 0
M  V30 33185 H 3076.61 -2.83203 -4.70199 0
M  V30 33186 H 3076.87 -1.14984 -4.26885 0
M  V30 33187 N 3075.93 1.00759 -1.21184 0
M  V30 33188 C 3077.15 1.78613 -1.05414 0
M  V30 33189 C 3077.58 1.83974 0.391805 0
M  V30 33190 O 3076.93 1.28143 1.28254 0
M  V30 33191 C 3076.98 3.20486 -1.65291 0
M  V30 33192 O 3076.09 4.02535 -0.896628 0
M  V30 33193 H 3075.43 0.550572 -0.37117 0
M  V30 33194 H 3077.96 1.26673 -1.60671 0
M  V30 33195 H 3077.97 3.71169 -1.69403 0
M  V30 33196 H 3076.64 3.15899 -2.70519 0
M  V30 33197 H 3075.22 3.61107 -0.930399 0
M  V30 33198 N 3077.4 1.01917 1.20211 0
M  V30 33199 C 3078.37 0.596366 2.21305 0
M  V30 33200 C 3079.37 -0.334851 1.57275 0
M  V30 33201 O 3080.56 -0.123189 1.73764 0
M  V30 33202 C 3077.69 -0.128748 3.40657 0
M  V30 33203 H 3078.88 1.49073 2.60226 0
M  V30 33204 H 3076.44 0.80925 1.33719 0
M  V30 33205 H 3077.17 -1.0379 3.07243 0
M  V30 33206 H 3076.96 0.540252 3.8836 0
M  V30 33207 H 3078.45 -0.411819 4.15564 0
M  V30 33208 N 3078.88 -1.36036 0.795742 0
M  V30 33209 C 3080.11 -2.03321 0.383189 0
M  V30 33210 C 3080.53 -1.5999 -1.00243 0
M  V30 33211 O 3079.88 -0.792294 -1.64405 0
M  V30 33212 C 3079.93 -3.58756 0.44453 0
M  V30 33213 O 3079.65 -4.00509 1.77551 0
M  V30 33214 C 3081.16 -4.43294 0.023407 0
M  V30 33215 H 3078.38 -0.652357 0.157073 0
M  V30 33216 H 3080.92 -1.73882 1.07635 0
M  V30 33217 H 3079.07 -3.86882 -0.200273 0
M  V30 33218 H 3079.49 -4.95122 1.73073 0
M  V30 33219 H 3080.96 -5.51875 0.117458 0
M  V30 33220 H 3081.44 -4.26952 -1.02999 0
M  V30 33221 H 3082.05 -4.20443 0.640943 0
M  V30 33222 N 3080.36 -0.5483 -1.47755 0
M  V30 33223 C 3081.31 0.204367 -2.29893 0
M  V30 33224 C 3082.28 0.916737 -1.3851 0
M  V30 33225 O 3083.46 0.91418 -1.67474 0
M  V30 33226 C 3080.6 1.23397 -3.22284 0
M  V30 33227 C 3079.72 0.528578 -4.28754 0
M  V30 33228 C 3078.85 1.5427 -5.08305 0
M  V30 33229 C 3077.89 0.821786 -6.06558 0
M  V30 33230 N 3077.03 1.78231 -6.79101 0
M  V30 33231 H 3081.87 -0.502215 -2.93738 0
M  V30 33232 H 3079.4 -0.259497 -1.44793 0
M  V30 33233 H 3081.36 1.84341 -3.74265 0
M  V30 33234 H 3079.99 1.9087 -2.60324 0
M  V30 33235 H 3079.04 -0.195198 -3.79899 0
M  V30 33236 H 3080.36 -0.0365943 -4.98787 0
M  V30 33237 H 3079.51 2.22592 -5.64391 0
M  V30 33238 H 3078.25 2.14178 -4.38154 0
M  V30 33239 H 3077.25 0.124593 -5.49659 0
M  V30 33240 H 3078.48 0.228565 -6.78715 0
M  V30 33241 H 3076.42 2.37014 -6.11687 0
M  V30 33242 H 3076.34 1.26906 -7.45272 0
M  V30 33243 H 3077.61 2.45696 -7.39766 0
M  V30 33244 N 3081.84 1.55014 -0.28431 0
M  V30 33245 C 3082.79 2.1958 0.613875 0
M  V30 33246 C 3083.77 1.16337 1.11151 0
M  V30 33247 O 3084.96 1.42118 1.05506 0
M  V30 33248 C 3082.09 2.92742 1.79324 0
M  V30 33249 C 3081.18 4.03284 1.31235 0
M  V30 33250 N 3081.57 5.0282 0.548256 0
M  V30 33251 C 3079.87 4.16522 1.59452 0
M  V30 33252 C 3080.57 5.80955 0.294256 0
M  V30 33253 N 3079.55 5.36604 0.869312 0
M  V30 33254 H 3083.35 2.93891 0.0223572 0
M  V30 33255 H 3080.86 1.6216 -0.0882904 0
M  V30 33256 H 3082.86 3.37453 2.44808 0
M  V30 33257 H 3081.52 2.19944 2.38861 0
M  V30 33258 H 3082.53 5.17534 0.194721 0
M  V30 33259 H 3079.21 3.5492 2.19859 0
M  V30 33260 H 3080.6 6.71146 -0.318313 0
M  V30 33261 N 3083.32 0.0117398 1.57596 0
M  V30 33262 C 3084.23 -0.991927 2.12598 0
M  V30 33263 C 3085.24 -1.36897 1.07402 0
M  V30 33264 O 3086.42 -1.45392 1.39367 0
M  V30 33265 C 3083.48 -2.26136 2.628 0
M  V30 33266 C 3082.54 -1.94635 3.82643 0
M  V30 33267 C 3081.78 -3.15526 4.30441 0
M  V30 33268 O 3082 -4.27607 3.77503 0
M  V30 33269 O 3080.93 -2.98837 5.22475 0
M  V30 33270 H 3084.76 -0.554319 2.98598 0
M  V30 33271 H 3082.35 -0.207813 1.47948 0
M  V30 33272 H 3084.23 -3.0069 2.95235 0
M  V30 33273 H 3082.9 -2.69111 1.79891 0
M  V30 33274 H 3081.81 -1.1752 3.55162 0
M  V30 33275 H 3083.14 -1.56488 4.66661 0
M  V30 33276 N 3084.79 -1.55421 -0.261185 0
M  V30 33277 C 3086.04 -1.75786 -0.989042 0
M  V30 33278 C 3086.36 -0.572994 -1.87019 0
M  V30 33279 O 3087.56 -0.659335 -2.63372 0
M  V30 33280 C 3086.02 -3.1116 -1.80852 0
M  V30 33281 C 3085.63 -4.37251 -0.975458 0
M  V30 33282 C 3087.37 -3.40871 -2.52997 0
M  V30 33283 C 3085.28 -5.6366 -1.79 0
M  V30 33284 H 3084.21 -0.655272 -0.373007 0
M  V30 33285 H 3086.86 -1.81867 -0.244235 0
M  V30 33286 H 3085.24 -2.99148 -2.59473 0
M  V30 33287 H 3086.41 -4.60213 -0.23258 0
M  V30 33288 H 3084.73 -4.14771 -0.36801 0
M  V30 33289 H 3087.33 -4.32526 -3.14365 0
M  V30 33290 H 3087.67 -2.6154 -3.23886 0
M  V30 33291 H 3088.2 -3.54034 -1.81396 0
M  V30 33292 H 3084.94 -6.45772 -1.1251 0
M  V30 33293 H 3084.46 -5.44823 -2.50854 0
M  V30 33294 H 3086.14 -6.02395 -2.36072 0
M  V30 33295 N 3086.27 0.526227 -1.48555 0
M  V30 33296 C 3087.24 1.61263 -1.62871 0
M  V30 33297 C 3088.24 1.5277 -0.501789 0
M  V30 33298 O 3089.43 1.56373 -0.767668 0
M  V30 33299 C 3086.56 3.0089 -1.60243 0
M  V30 33300 H 3087.75 1.49908 -2.59745 0
M  V30 33301 H 3085.3 0.748571 -1.37208 0
M  V30 33302 H 3086.04 3.17748 -0.648601 0
M  V30 33303 H 3085.82 3.08463 -2.42059 0
M  V30 33304 H 3087.31 3.79869 -1.73462 0
M  V30 33305 N 3087.75 1.37206 0.775387 0
M  V30 33306 C 3089.03 1.22751 1.52288 0
M  V30 33307 C 3089.41 -0.180451 2.10327 0
M  V30 33308 O 3088.76 -1.18768 1.95209 0
M  V30 33309 C 3088.97 2.32064 2.60667 0
M  V30 33310 C 3090.31 2.69426 3.28169 0
M  V30 33311 O 3091.34 2.31213 2.70959 0
M  V30 33312 O 3090.2 3.35247 4.31592 0
M  V30 33313 H 3087.29 0.478774 0.674318 0
M  V30 33314 H 3089.84 1.48976 0.812664 0
M  V30 33315 H 3088.61 3.26365 2.15874 0
M  V30 33316 H 3088.23 2.07283 3.39293 0
M  V30 33317 N 3089.23 -1.00115 1.21716 0
M  V30 33318 C 3090.19 -2.07127 0.981374 0
M  V30 33319 C 3091.19 -1.60725 -0.0490833 0
M  V30 33320 O 3092.38 -1.73176 0.188586 0
M  V30 33321 C 3089.51 -3.37494 0.480667 0
M  V30 33322 H 3090.71 -2.29478 1.93079 0
M  V30 33323 H 3088.26 -1.17149 1.03469 0
M  V30 33324 H 3088.99 -3.20825 -0.473495 0
M  V30 33325 H 3088.78 -3.72506 1.224 0
M  V30 33326 H 3090.27 -4.16249 0.335684 0
M  V30 33327 N 3090.71 -1.02553 -1.19669 0
M  V30 33328 C 3091.95 -0.728701 -1.90969 0
M  V30 33329 C 3092.31 0.729026 -1.77621 0
M  V30 33330 O 3093.51 1.13878 -2.43486 0
M  V30 33331 C 3091.78 -1.16329 -3.37938 0
M  V30 33332 S 3093.34 -0.989797 -4.27491 0
M  V30 33333 H 3090.16 -0.265392 -0.659612 0
M  V30 33334 H 3092.76 -1.31466 -1.44696 0
M  V30 33335 H 3091.47 -2.21992 -3.45178 0
M  V30 33336 H 3091 -0.570485 -3.89242 0
M  V30 33337 H 3093.01 0.101579 -4.96096 0
M  V30 33338 N 3092.19 1.35612 -0.802945 0
M  V30 33339 C 3093.46 1.93207 -0.305027 0
M  V30 33340 C 3093.84 1.7334 1.20485 0
M  V30 33341 O 3093.19 1.10026 2.00266 0
M  V30 33342 C 3093.4 3.41651 -0.712443 0
M  V30 33343 C 3094.75 4.18792 -0.699859 0
M  V30 33344 O 3095.77 3.50149 -0.653759 0
M  V30 33345 O 3094.63 5.41261 -0.754937 0
M  V30 33346 H 3091.73 0.823225 -0.0789272 0
M  V30 33347 H 3094.27 1.4471 -0.886398 0
M  V30 33348 H 3093.04 3.49825 -1.75322 0
M  V30 33349 H 3092.67 3.9746 -0.105683 0
M  V30 33350 N 3093.66 0.556128 1.47462 0
M  V30 33351 C 3094.59 -0.180456 2.32802 0
M  V30 33352 C 3095.57 -0.909823 1.43723 0
M  V30 33353 O 3096.76 -0.8905 1.7258 0
M  V30 33354 C 3093.89 -1.21161 3.2548 0
M  V30 33355 C 3092.84 -0.598771 4.23791 0
M  V30 33356 C 3092.17 -1.73448 5.05786 0
M  V30 33357 C 3093.47 0.44675 5.20386 0
M  V30 33358 H 3095.16 0.532007 2.94635 0
M  V30 33359 H 3092.71 0.257292 1.41683 0
M  V30 33360 H 3094.66 -1.73506 3.84023 0
M  V30 33361 H 3093.39 -1.954 2.61699 0
M  V30 33362 H 3092.05 -0.0966253 3.66473 0
M  V30 33363 H 3091.69 -2.46589 4.3841 0
M  V30 33364 H 3091.39 -1.33021 5.72345 0
M  V30 33365 H 3092.92 -2.26121 5.67187 0
M  V30 33366 H 3094.33 0.00940096 5.73299 0
M  V30 33367 H 3092.73 0.76984 5.95142 0
M  V30 33368 H 3093.8 1.34303 4.6593 0
M  V30 33369 N 3095.14 -1.54861 0.292527 0
M  V30 33370 C 3096.37 -2.04378 -0.322078 0
M  V30 33371 C 3096.78 -1.17019 -1.48162 0
M  V30 33372 O 3096.14 -0.193982 -1.81466 0
M  V30 33373 C 3096.19 -3.52842 -0.786444 0
M  V30 33374 O 3095.91 -4.36878 0.326939 0
M  V30 33375 C 3097.41 -4.1832 -1.46708 0
M  V30 33376 H 3094.63 -0.667212 -0.0711956 0
M  V30 33377 H 3097.18 -1.99935 0.429692 0
M  V30 33378 H 3095.33 -3.57673 -1.48826 0
M  V30 33379 H 3095.75 -5.2449 -0.0330636 0
M  V30 33380 H 3097.22 -5.23751 -1.74324 0
M  V30 33381 H 3097.7 -3.67542 -2.40436 0
M  V30 33382 H 3098.3 -4.17541 -0.808662 0
M  V30 33383 N 3096.62 -0.0200973 -1.57587 0
M  V30 33384 C 3097.87 0.659788 -1.90603 0
M  V30 33385 C 3098.18 1.73807 -0.897247 0
M  V30 33386 O 3099.39 2.47398 -1.11833 0
M  V30 33387 C 3097.84 1.22478 -3.38419 0
M  V30 33388 C 3097.45 0.18026 -4.47637 0
M  V30 33389 C 3099.2 1.8817 -3.80516 0
M  V30 33390 C 3097.1 0.756379 -5.86543 0
M  V30 33391 H 3096.03 0.250203 -0.711277 0
M  V30 33392 H 3098.68 -0.0839265 -1.83308 0
M  V30 33393 H 3097.07 2.01981 -3.40616 0
M  V30 33394 H 3098.24 -0.591653 -4.56986 0
M  V30 33395 H 3096.55 -0.377375 -4.14686 0
M  V30 33396 H 3099.15 2.32214 -4.81644 0
M  V30 33397 H 3099.49 2.72067 -3.15095 0
M  V30 33398 H 3100.03 1.1537 -3.80703 0
M  V30 33399 H 3096.77 -0.044262 -6.55485 0
M  V30 33400 H 3096.29 1.49699 -5.80819 0
M  V30 33401 H 3097.97 1.24889 -6.34832 0
M  V30 33402 N 3098.1 1.55557 0.252939 0
M  V30 33403 C 3099.37 1.67849 1.00429 0
M  V30 33404 C 3099.75 0.558196 2.03586 0
M  V30 33405 O 3099.1 -0.439158 2.2424 0
M  V30 33406 C 3099.31 3.07903 1.64307 0
M  V30 33407 C 3100.66 3.66307 2.1472 0
M  V30 33408 O 3101.68 3.10664 1.74259 0
M  V30 33409 O 3100.54 4.63838 2.88992 0
M  V30 33410 H 3097.64 0.682463 0.46709 0
M  V30 33411 H 3100.18 1.6789 0.247204 0
M  V30 33412 H 3098.96 3.80889 0.896614 0
M  V30 33413 H 3098.58 3.11847 2.46652 0
M  V30 33414 N 3099.58 -0.518341 1.48832 0
M  V30 33415 C 3100.49 -1.64845 1.66923 0
M  V30 33416 C 3101.5 -1.65021 0.55174 0
M  V30 33417 O 3102.68 -1.83759 0.824284 0
M  V30 33418 C 3099.74 -3.01275 1.71564 0
M  V30 33419 C 3098.8 -3.11863 2.95025 0
M  V30 33420 C 3098.04 -4.41785 2.99436 0
M  V30 33421 O 3098.26 -5.2957 2.11923 0
M  V30 33422 O 3097.19 -4.56983 3.91727 0
M  V30 33423 H 3101.02 -1.52517 2.62626 0
M  V30 33424 H 3098.6 -0.692726 1.32369 0
M  V30 33425 H 3100.49 -3.82392 1.77071 0
M  V30 33426 H 3099.16 -3.13903 0.790371 0
M  V30 33427 H 3098.07 -2.29997 2.95046 0
M  V30 33428 H 3099.4 -3.04156 3.86976 0
M  V30 33429 N 3101.05 -1.37615 -0.7681 0
M  V30 33430 C 3101.99 -1.28044 -1.88892 0
M  V30 33431 C 3102.96 -0.160254 -1.61808 0
M  V30 33432 O 3104.15 -0.335092 -1.85498 0
M  V30 33433 C 3101.28 -0.98058 -3.24195 0
M  V30 33434 C 3100.32 -2.11815 -3.70185 0
M  V30 33435 S 3101.15 -3.73824 -3.83427 0
M  V30 33436 C 3102.31 -3.45996 -5.21572 0
M  V30 33437 H 3102.54 -2.22907 -1.96722 0
M  V30 33438 H 3100.08 -1.23281 -0.929581 0
M  V30 33439 H 3102.03 -0.814402 -4.0234 0
M  V30 33440 H 3100.7 -0.0493674 -3.14061 0
M  V30 33441 H 3099.89 -1.86344 -4.68286 0
M  V30 33442 H 3099.49 -2.24465 -2.99151 0
M  V30 33443 H 3101.78 -3.0121 -6.0686 0
M  V30 33444 H 3102.73 -4.43439 -5.52058 0
M  V30 33445 H 3103.13 -2.8084 -4.89682 0
M  V30 33446 N 3102.53 0.994677 -1.22245 0
M  V30 33447 C 3103.44 2.11876 -1.00726 0
M  V30 33448 C 3104.46 1.73945 0.0438884 0
M  V30 33449 O 3105.63 2.00852 -0.148446 0
M  V30 33450 C 3102.7 3.41715 -0.585783 0
M  V30 33451 C 3101.76 3.93759 -1.71034 0
M  V30 33452 C 3100.99 5.17401 -1.30888 0
M  V30 33453 O 3101.22 5.70094 -0.18691 0
M  V30 33454 O 3100.15 5.63152 -2.1247 0
M  V30 33455 H 3103.98 2.32913 -1.94899 0
M  V30 33456 H 3101.56 1.10249 -1.00824 0
M  V30 33457 H 3103.44 4.19851 -0.361009 0
M  V30 33458 H 3102.12 3.22043 0.327109 0
M  V30 33459 H 3101.02 3.16804 -1.98962 0
M  V30 33460 H 3102.36 4.1786 -2.60103 0
M  V30 33461 N 3104.01 1.03186 1.19123 0
M  V30 33462 C 3105.23 0.749662 1.93377 0
M  V30 33463 C 3105.66 -0.685754 1.75154 0
M  V30 33464 O 3105.02 -1.47385 1.05582 0
M  V30 33465 C 3105.07 1.10976 3.43099 0
M  V30 33466 O 3104.17 0.230125 4.11757 0
M  V30 33467 H 3103.51 0.2767 0.6036 0
M  V30 33468 H 3106.04 1.37934 1.51114 0
M  V30 33469 H 3106.05 1.06792 3.93776 0
M  V30 33470 H 3104.73 2.1555 3.55684 0
M  V30 33471 H 3103.3 0.330813 3.7143 0
M  V30 33472 N 3105.49 -1.35184 0.810125 0
M  V30 33473 C 3106.45 -2.28058 0.22856 0
M  V30 33474 C 3107.45 -1.49736 -0.586142 0
M  V30 33475 O 3108.64 -1.69448 -0.40411 0
M  V30 33476 C 3105.77 -3.34029 -0.680983 0
M  V30 33477 H 3106.97 -2.81003 1.04773 0
M  V30 33478 H 3104.52 -1.45099 0.581036 0
M  V30 33479 H 3105.25 -2.86276 -1.5237 0
M  V30 33480 H 3105.04 -3.91976 -0.0984587 0
M  V30 33481 H 3106.53 -4.03337 -1.08209 0
M  V30 33482 N 3106.97 -0.56394 -1.47165 0
M  V30 33483 C 3107.93 0.169583 -2.28572 0
M  V30 33484 C 3108.93 0.836443 -1.37333 0
M  V30 33485 O 3110.12 0.691272 -1.59897 0
M  V30 33486 C 3107.25 1.2488 -3.17203 0
M  V30 33487 H 3108.44 -0.545591 -2.94895 0
M  V30 33488 H 3106 -0.321148 -1.52965 0
M  V30 33489 H 3106.73 1.99616 -2.55585 0
M  V30 33490 H 3106.52 0.775358 -3.84357 0
M  V30 33491 H 3108.01 1.76381 -3.78523 0
M  V30 33492 N 3108.44 1.54704 -0.300735 0
M  V30 33493 C 3109.67 2.05009 0.314037 0
M  V30 33494 C 3110.09 1.1766 1.46757 0
M  V30 33495 O 3109.45 0.180629 1.80398 0
M  V30 33496 C 3109.5 3.52753 0.748181 0
M  V30 33497 O 3108.6 3.68427 1.85298 0
M  V30 33498 H 3107.95 0.661192 0.0610023 0
M  V30 33499 H 3110.48 1.99758 -0.442502 0
M  V30 33500 H 3110.49 3.946 1.03706 0
M  V30 33501 H 3109.16 4.1579 -0.095646 0
M  V30 33502 H 3107.74 3.38485 1.56467 0
M  V30 33503 N 3109.92 0.0284543 1.57574 0
M  V30 33504 C 3111.15 -0.660541 1.96073 0
M  V30 33505 C 3111.57 -1.65701 0.90491 0
M  V30 33506 O 3110.92 -1.82148 -0.113347 0
M  V30 33507 C 3110.97 -1.3675 3.34636 0
M  V30 33508 O 3110.69 -0.410965 4.36168 0
M  V30 33509 C 3112.2 -2.14838 3.87762 0
M  V30 33510 H 3109.42 -0.182172 0.645797 0
M  V30 33511 H 3111.96 0.0880217 2.0431 0
M  V30 33512 H 3110.11 -2.06747 3.27619 0
M  V30 33513 H 3110.53 -0.912909 5.16494 0
M  V30 33514 H 3112 -2.59758 4.87062 0
M  V30 33515 H 3112.48 -2.98714 3.21973 0
M  V30 33516 H 3113.09 -1.498 3.98045 0
M  V30 33517 N 3111.4 -1.55689 -0.244686 0
M  V30 33518 C 3112.33 -1.93518 -1.30664 0
M  V30 33519 C 3113.31 -0.800397 -1.50092 0
M  V30 33520 O 3114.5 -1.06086 -1.62663 0
M  V30 33521 C 3111.63 -2.23181 -2.66097 0
M  V30 33522 C 3110.58 -3.38932 -2.61361 0
M  V30 33523 C 3109.91 -3.54141 -4.00609 0
M  V30 33524 C 3111.21 -4.74559 -2.18153 0
M  V30 33525 H 3112.9 -2.82471 -0.992497 0
M  V30 33526 H 3110.45 -1.35905 -0.475994 0
M  V30 33527 H 3112.4 -2.48234 -3.40526 0
M  V30 33528 H 3111.12 -1.31056 -2.99152 0
M  V30 33529 H 3109.78 -3.1389 -1.8939 0
M  V30 33530 H 3109.43 -2.59433 -4.30933 0
M  V30 33531 H 3109.13 -4.31982 -3.98328 0
M  V30 33532 H 3110.65 -3.81519 -4.76735 0
M  V30 33533 H 3112.07 -4.9897 -2.82314 0
M  V30 33534 H 3110.47 -5.55519 -2.26978 0
M  V30 33535 H 3111.54 -4.71472 -1.13324 0
M  V30 33536 N 3112.88 0.510441 -1.49105 0
M  V30 33537 C 3113.81 1.62184 -1.67984 0
M  V30 33538 C 3114.79 1.6168 -0.528558 0
M  V30 33539 O 3115.97 1.78569 -0.763336 0
M  V30 33540 C 3113.1 3.00707 -1.7376 0
M  V30 33541 C 3112.06 3.16075 -2.88584 0
M  V30 33542 C 3111.38 4.55855 -2.79465 0
M  V30 33543 C 3112.68 2.96992 -4.29643 0
M  V30 33544 H 3114.38 1.46639 -2.61032 0
M  V30 33545 H 3111.92 0.70402 -1.25617 0
M  V30 33546 H 3113.88 3.78348 -1.85554 0
M  V30 33547 H 3112.6 3.17319 -0.773052 0
M  V30 33548 H 3111.26 2.40856 -2.76376 0
M  V30 33549 H 3110.91 4.6933 -1.80938 0
M  V30 33550 H 3110.61 4.67079 -3.56526 0
M  V30 33551 H 3112.13 5.35569 -2.93254 0
M  V30 33552 H 3113.55 3.6441 -4.42581 0
M  V30 33553 H 3111.94 3.19696 -5.07853 0
M  V30 33554 H 3113.01 1.93211 -4.44744 0
M  V30 33555 N 3114.36 1.38021 0.760791 0
M  V30 33556 C 3115.3 1.34774 1.89575 0
M  V30 33557 C 3116.3 0.234744 1.67766 0
M  V30 33558 O 3117.5 0.403383 1.75422 0
M  V30 33559 H 3113.88 0.420269 0.623601 0
M  V30 33560 H 3115.85 2.30562 1.8943 0
M  V30 33561 C 3114.6 1.18252 3.26974 0
M  V30 33562 H 3113.92 2.03153 3.44338 0
M  V30 33563 H 3115.36 1.20033 4.06655 0
M  V30 33564 C 3113.82 -0.111086 3.36717 0
M  V30 33565 O 3114.35 -1.09072 3.86608 0
M  V30 33566 N 3112.56 -0.165491 2.90128 0
M  V30 33567 H 3112.1 0.632372 2.49717 0
M  V30 33568 H 3112.06 -1.03062 2.97028 0
M  V30 33569 N 3115.83 -0.98818 1.22771 0
M  V30 33570 C 3117.08 -1.72498 1.05304 0
M  V30 33571 C 3117.4 -1.90596 -0.412069 0
M  V30 33572 O 3116.67 -1.46901 -1.29603 0
M  V30 33573 H 3115.25 -0.639137 0.386669 0
M  V30 33574 H 3117.92 -1.18991 1.54361 0
M  V30 33575 H 3117.01 -2.7176 1.53469 0
M  V30 33576 N 3117.31 -1.03816 -1.18575 0
M  V30 33577 C 3118.26 -0.620717 -2.24165 0
M  V30 33578 C 3119.25 0.351253 -1.65718 0
M  V30 33579 O 3120.46 0.218817 -1.78665 0
M  V30 33580 H 3116.84 -0.1825 -0.729519 0
M  V30 33581 H 3118.81 -1.52171 -2.56684 0
M  V30 33582 C 3117.56 0.00301219 -3.477 0
M  V30 33583 H 3116.88 -0.735944 -3.92968 0
M  V30 33584 H 3118.32 0.257914 -4.23215 0
M  V30 33585 C 3116.78 1.25234 -3.12759 0
M  V30 33586 O 3117.31 2.34338 -3.26265 0
M  V30 33587 N 3115.51 1.14466 -2.67106 0
M  V30 33588 H 3115.06 0.256828 -2.56317 0
M  V30 33589 H 3115.02 1.98148 -2.44099 0
M  V30 33590 N 3118.79 1.34753 -0.817283 0
M  V30 33591 C 3120.04 1.9875 -0.403279 0
M  V30 33592 C 3120.37 1.6466 1.0296 0
M  V30 33593 O 3119.64 0.915344 1.71615 0
M  V30 33594 C 3119.93 3.55079 -0.59925 0
M  V30 33595 C 3119.78 3.98931 -2.07784 0
M  V30 33596 C 3121.1 4.40089 -0.0316429 0
M  V30 33597 H 3118.22 0.721987 -0.148001 0
M  V30 33598 H 3120.86 1.59736 -1.0288 0
M  V30 33599 H 3119.01 3.88443 -0.0667799 0
M  V30 33600 H 3120.68 3.75927 -2.67352 0
M  V30 33601 H 3118.93 3.49448 -2.57037 0
M  V30 33602 H 3119.6 5.07737 -2.1658 0
M  V30 33603 H 3122.07 4.13246 -0.486512 0
M  V30 33604 H 3120.95 5.48541 -0.198604 0
M  V30 33605 H 3121.21 4.29132 1.06295 0
M  V30 33606 N 3120.27 0.571737 1.46864 0
M  V30 33607 C 3121.69 0.232578 1.57896 0
M  V30 33608 C 3121.89 -1.26506 1.56839 0
M  V30 33609 O 3120.94 -2.04614 1.4795 0
M  V30 33610 C 3122.25 0.872086 2.87776 0
M  V30 33611 C 3123.8 0.844658 3.01388 0
M  V30 33612 C 3124.28 1.4635 4.33988 0
M  V30 33613 N 3125.77 1.42734 4.4066 0
M  V30 33614 C 3126.5 1.87566 5.41855 0
M  V30 33615 N 3126 2.40321 6.49783 0
M  V30 33616 N 3127.79 1.78549 5.32988 0
M  V30 33617 H 3119.94 1.54459 1.45795 0
M  V30 33618 H 3122.21 0.644976 0.694773 0
M  V30 33619 H 3121.91 1.92518 2.94329 0
M  V30 33620 H 3121.79 0.373743 3.75344 0
M  V30 33621 H 3124.17 -0.199788 2.94423 0
M  V30 33622 H 3124.25 1.38091 2.15324 0
M  V30 33623 H 3123.9 2.50709 4.4171 0
M  V30 33624 H 3123.83 0.902571 5.18807 0
M  V30 33625 H 3126.32 1.04161 3.63261 0
M  V30 33626 H 3126.63 2.72416 7.23194 0
M  V30 33627 H 3124.98 2.4434 6.50633 0
M  V30 33628 H 3128.17 1.37101 4.47572 0
M  V30 33629 H 3128.34 2.13805 6.11712 0
M  V30 33630 N 3121.75 -1.54542 0.308935 0
M  V30 33631 C 3123.16 -1.8581 -0.182111 0
M  V30 33632 C 3123.51 -1.23079 -1.52794 0
M  V30 33633 O 3122.63 -0.531395 -2.09774 0
M  V30 33634 C 3123.23 -3.37118 -0.337215 0
M  V30 33635 C 3121.79 -3.68388 -0.772481 0
M  V30 33636 C 3120.94 -2.77064 0.1145 0
M  V30 33637 H 3123.89 -1.49599 0.529697 0
M  V30 33638 H 3123.91 -3.62049 -1.17052 0
M  V30 33639 H 3123.42 -3.82746 0.64245 0
M  V30 33640 H 3121.52 -3.28283 -1.76241 0
M  V30 33641 H 3121.63 -4.75498 -0.586369 0
M  V30 33642 H 3120 -2.51418 -0.407537 0
M  V30 33643 H 3120.78 -3.25514 1.09066 0
M  V30 33644 N 3123.23 -0.0368104 -1.57557 0
M  V30 33645 C 3124.64 0.319643 -1.56366 0
M  V30 33646 C 3124.84 1.72396 -1.04316 0
M  V30 33647 O 3123.9 2.42795 -0.69332 0
M  V30 33648 C 3125.21 0.161221 -3.00267 0
M  V30 33649 C 3126.76 0.233409 -3.12128 0
M  V30 33650 C 3127.23 0.103687 -4.57883 0
M  V30 33651 N 3128.72 0.160425 -4.62922 0
M  V30 33652 C 3129.46 0.0839486 -5.73339 0
M  V30 33653 N 3128.96 -0.0440548 -6.92786 0
M  V30 33654 N 3130.75 0.138493 -5.61929 0
M  V30 33655 H 3122.9 -0.955029 -1.89718 0
M  V30 33656 H 3125.16 -0.369482 -0.873033 0
M  V30 33657 H 3124.87 -0.80645 -3.42329 0
M  V30 33658 H 3124.74 0.92824 -3.656 0
M  V30 33659 H 3127.13 1.19154 -2.69975 0
M  V30 33660 H 3127.21 -0.564119 -2.49502 0
M  V30 33661 H 3126.85 -0.851061 -5.00719 0
M  V30 33662 H 3126.78 0.920177 -5.18498 0
M  V30 33663 H 3129.28 0.259191 -3.7701 0
M  V30 33664 H 3129.59 -0.0955078 -7.72741 0
M  V30 33665 H 3127.93 -0.0789433 -6.94955 0
M  V30 33666 H 3131.12 0.236949 -4.675 0
M  V30 33667 H 3131.3 0.0754321 -6.47956 0
M  V30 33668 N 3124.7 1.55817 0.236426 0
M  V30 33669 C 3125.67 1.90377 1.27629 0
M  V30 33670 C 3126.67 0.781073 1.40556 0
M  V30 33671 O 3127.86 1.04897 1.39076 0
M  V30 33672 C 3124.99 2.14147 2.65243 0
M  V30 33673 H 3126.18 2.83368 0.981969 0
M  V30 33674 H 3123.73 1.4887 0.476188 0
M  V30 33675 H 3124.47 1.23658 2.99798 0
M  V30 33676 H 3124.25 2.95922 2.57241 0
M  V30 33677 H 3125.74 2.42032 3.40309 0
M  V30 33678 N 3126.18 -0.502526 1.49373 0
M  V30 33679 C 3127.13 -1.62509 1.66414 0
M  V30 33680 C 3128.12 -1.60893 0.53009 0
M  V30 33681 O 3129.33 -1.65419 0.709677 0
M  V30 33682 H 3125.7 -0.53868 0.524717 0
M  V30 33683 H 3127.68 -1.45289 2.60641 0
M  V30 33684 C 3126.42 -3.00652 1.74653 0
M  V30 33685 H 3125.75 -3.02601 2.6129 0
M  V30 33686 H 3127.19 -3.78739 1.90612 0
M  V30 33687 C 3125.65 -3.33303 0.491022 0
M  V30 33688 O 3126.18 -3.99861 -0.383968 0
M  V30 33689 N 3124.38 -2.88431 0.354426 0
M  V30 33690 H 3123.93 -2.34442 1.06746 0
M  V30 33691 H 3123.89 -3.10644 -0.484539 0
M  V30 33692 N 3127.66 -1.38422 -0.75346 0
M  V30 33693 C 3128.91 -1.34371 -1.5096 0
M  V30 33694 C 3129.23 0.0656552 -1.94889 0
M  V30 33695 O 3128.5 1.01336 -1.67654 0
M  V30 33696 H 3127.08 -0.494425 -0.559958 0
M  V30 33697 H 3129.74 -1.73102 -0.895635 0
M  V30 33698 H 3128.84 -1.99462 -2.40044 0
M  V30 33699 N 3129.14 0.981655 -1.23294 0
M  V30 33700 C 3130.41 1.69708 -0.972544 0
M  V30 33701 C 3130.79 2.04866 0.509208 0
M  V30 33702 O 3130.14 1.74085 1.48009 0
M  V30 33703 C 3130.35 2.9394 -1.8815 0
M  V30 33704 C 3131.7 3.66481 -2.14423 0
M  V30 33705 O 3132.72 3.0397 -1.85689 0
M  V30 33706 O 3131.58 4.78974 -2.63147 0
M  V30 33707 H 3128.68 0.741263 -0.366686 0
M  V30 33708 H 3131.22 1.03699 -1.3433 0
M  V30 33709 H 3130 2.64546 -2.88325 0
M  V30 33710 H 3129.62 3.67686 -1.51303 0
M  V30 33711 N 3130.62 1.04444 1.18022 0
M  V30 33712 C 3131.86 0.751166 1.88376 0
M  V30 33713 C 3132.19 -0.719539 1.80378 0
M  V30 33714 O 3131.47 -1.52546 1.20665 0
M  V30 33715 C 3131.75 1.22271 3.38706 0
M  V30 33716 C 3131.61 2.7558 3.55494 0
M  V30 33717 C 3132.92 0.815764 4.32473 0
M  V30 33718 H 3130.04 0.274352 0.684032 0
M  V30 33719 H 3132.69 1.29711 1.38835 0
M  V30 33720 H 3130.84 0.758259 3.81028 0
M  V30 33721 H 3132.51 3.30092 3.22238 0
M  V30 33722 H 3130.75 3.15222 2.98023 0
M  V30 33723 H 3131.42 3.03634 4.60989 0
M  V30 33724 H 3133.9 1.21549 3.97951 0
M  V30 33725 H 3132.77 1.17341 5.36211 0
M  V30 33726 H 3133.03 -0.280823 4.41207 0
M  V30 33727 N 3132.09 -1.34317 0.824418 0
M  V30 33728 C 3133.34 -1.97848 0.412385 0
M  V30 33729 C 3133.66 -1.65678 -1.02838 0
M  V30 33730 O 3132.93 -0.948275 -1.71419 0
M  V30 33731 H 3131.51 -0.731887 0.149499 0
M  V30 33732 H 3134.17 -1.63929 1.05419 0
M  V30 33733 H 3133.27 -3.07522 0.532611 0
M  V30 33734 N 3133.57 -0.579517 -1.46558 0
M  V30 33735 C 3134.98 -0.152084 -1.8608 0
M  V30 33736 C 3135.33 1.28402 -1.48348 0
M  V30 33737 O 3134.46 1.96939 -0.896885 0
M  V30 33738 C 3135.05 -0.26923 -3.37729 0
M  V30 33739 C 3133.61 0.10331 -3.76258 0
M  V30 33740 C 3132.76 -0.606638 -2.70583 0
M  V30 33741 H 3135.71 -0.787928 -1.37758 0
M  V30 33742 H 3135.73 0.506273 -3.77117 0
M  V30 33743 H 3135.24 -1.31455 -3.65159 0
M  V30 33744 H 3133.34 1.14889 -3.54445 0
M  V30 33745 H 3133.46 -0.270785 -4.78334 0
M  V30 33746 H 3131.82 -0.0472431 -2.54656 0
M  V30 33747 H 3132.6 -1.65354 -3.00853 0
M  V30 33748 N 3135.05 1.54376 -0.317127 0
M  V30 33749 C 3135.98 2.27061 0.544583 0
M  V30 33750 C 3136.96 1.27613 1.12467 0
M  V30 33751 O 3138.15 1.56415 1.151 0
M  V30 33752 C 3135.28 3.02356 1.70874 0
M  V30 33753 C 3134.23 4.09087 1.25826 0
M  V30 33754 C 3133.56 4.72187 2.50886 0
M  V30 33755 C 3134.86 5.20932 0.377784 0
M  V30 33756 H 3136.55 2.99336 -0.0616898 0
M  V30 33757 H 3134.1 1.43966 -0.0311101 0
M  V30 33758 H 3136.05 3.51931 2.3178 0
M  V30 33759 H 3134.77 2.27686 2.34151 0
M  V30 33760 H 3133.43 3.60385 0.672164 0
M  V30 33761 H 3133.08 3.94139 3.12511 0
M  V30 33762 H 3132.78 5.44279 2.21438 0
M  V30 33763 H 3134.3 5.24533 3.12566 0
M  V30 33764 H 3135.72 5.66303 0.892957 0
M  V30 33765 H 3134.12 5.99841 0.176368 0
M  V30 33766 H 3135.19 4.8126 -0.593028 0
M  V30 33767 N 3136.53 0.0451655 1.57535 0
M  V30 33768 C 3137.75 -0.643225 1.97173 0
M  V30 33769 C 3138.18 -1.63937 0.922295 0
M  V30 33770 O 3137.54 -1.80934 -0.115123 0
M  V30 33771 C 3137.58 -1.31184 3.35891 0
M  V30 33772 O 3136.69 -2.42743 3.33391 0
M  V30 33773 H 3136.03 -0.167708 0.642472 0
M  V30 33774 H 3138.56 0.111783 2.04294 0
M  V30 33775 H 3138.57 -1.66492 3.72484 0
M  V30 33776 H 3137.24 -0.581751 4.11811 0
M  V30 33777 H 3135.82 -2.09427 3.08537 0
M  V30 33778 N 3138.01 -1.5594 -0.228159 0
M  V30 33779 C 3138.96 -1.88269 -1.28603 0
M  V30 33780 C 3139.94 -0.745164 -1.42605 0
M  V30 33781 O 3141.13 -1.00746 -1.45531 0
M  V30 33782 C 3138.26 -2.19716 -2.63779 0
M  V30 33783 C 3137.35 -3.39844 -2.53706 0
M  V30 33784 N 3137.74 -4.58635 -2.13278 0
M  V30 33785 C 3136.04 -3.43327 -2.8468 0
M  V30 33786 C 3136.74 -5.40789 -2.14295 0
M  V30 33787 N 3135.71 -4.8033 -2.54527 0
M  V30 33788 H 3139.52 -2.77632 -0.964258 0
M  V30 33789 H 3137.03 -1.56417 -0.436742 0
M  V30 33790 H 3139.03 -2.4105 -3.40148 0
M  V30 33791 H 3137.69 -1.31663 -2.96808 0
M  V30 33792 H 3138.7 -4.83915 -1.84516 0
M  V30 33793 H 3135.37 -2.65598 -3.22124 0
M  V30 33794 H 3136.76 -6.45866 -1.85219 0
M  V30 33795 N 3139.48 0.494597 -1.49638 0
M  V30 33796 C 3140.9 0.826337 -1.36542 0
M  V30 33797 C 3141.1 1.9742 -0.403421 0
M  V30 33798 O 3140.16 2.51976 0.16257 0
M  V30 33799 C 3141.47 1.16052 -2.77403 0
M  V30 33800 C 3143.02 1.26835 -2.8615 0
M  V30 33801 C 3143.49 1.63579 -4.27792 0
M  V30 33802 N 3144.98 1.70616 -4.30633 0
M  V30 33803 C 3145.72 2.00504 -5.37202 0
M  V30 33804 N 3145.21 2.28573 -6.54008 0
M  V30 33805 N 3147.01 2.01809 -5.24623 0
M  V30 33806 H 3139.16 -0.262227 -2.10775 0
M  V30 33807 H 3141.42 -0.0547401 -0.946418 0
M  V30 33808 H 3141.13 0.390373 -3.49527 0
M  V30 33809 H 3141 2.10243 -3.13173 0
M  V30 33810 H 3143.39 2.02921 -2.1426 0
M  V30 33811 H 3143.47 0.306795 -2.53954 0
M  V30 33812 H 3143.11 0.880419 -5.00211 0
M  V30 33813 H 3143.04 2.60846 -4.57457 0
M  V30 33814 H 3145.53 1.51059 -3.46395 0
M  V30 33815 H 3145.85 2.50585 -7.31045 0
M  V30 33816 H 3144.19 2.26015 -6.57223 0
M  V30 33817 H 3147.38 1.79362 -4.32374 0
M  V30 33818 H 3147.56 2.24768 -6.07769 0
M  V30 33819 N 3140.96 1.3882 0.746109 0
M  V30 33820 C 3141.89 1.32543 1.86989 0
M  V30 33821 C 3142.91 0.236245 1.61077 0
M  V30 33822 O 3144.1 0.494371 1.71517 0
M  V30 33823 C 3141.2 1.03264 3.22784 0
M  V30 33824 C 3140.37 2.23241 3.76141 0
M  V30 33825 C 3139.43 1.9059 4.90471 0
M  V30 33826 O 3138.45 2.63161 5.04712 0
M  V30 33827 N 3139.66 0.865351 5.74014 0
M  V30 33828 H 3142.42 2.29384 1.92881 0
M  V30 33829 H 3139.98 1.32778 0.926369 0
M  V30 33830 H 3141.97 0.794603 3.96823 0
M  V30 33831 H 3140.54 0.15195 3.1223 0
M  V30 33832 H 3139.76 2.63064 2.93583 0
M  V30 33833 H 3141.05 3.03293 4.08523 0
M  V30 33834 H 3140.45 0.263677 5.65085 0
M  V30 33835 H 3139.01 0.687201 6.48167 0
M  V30 33836 N 3142.44 -0.975103 1.23812 0
M  V30 33837 C 3143.72 -1.6919 0.98153 0
M  V30 33838 C 3144.1 -2.05134 -0.498337 0
M  V30 33839 O 3143.45 -1.74867 -1.47084 0
M  V30 33840 C 3143.66 -2.92938 1.89706 0
M  V30 33841 C 3145 -3.65338 2.16363 0
M  V30 33842 O 3146.03 -3.02981 1.87299 0
M  V30 33843 O 3144.89 -4.77572 2.65683 0
M  V30 33844 H 3141.98 -0.739308 0.370612 0
M  V30 33845 H 3144.53 -1.02985 1.34878 0
M  V30 33846 H 3143.3 -2.63013 2.89723 0
M  V30 33847 H 3142.92 -3.66879 1.53251 0
M  V30 33848 N 3143.92 -1.05068 -1.17467 0
M  V30 33849 C 3145.15 -0.779236 -1.91341 0
M  V30 33850 C 3145.56 0.668733 -1.76988 0
M  V30 33851 O 3144.9 1.46846 -1.10372 0
M  V30 33852 C 3144.96 -1.07866 -3.42936 0
M  V30 33853 C 3144.63 -2.52256 -3.81072 0
M  V30 33854 C 3145.62 -3.50463 -3.84021 0
M  V30 33855 C 3143.31 -2.87232 -4.12071 0
M  V30 33856 C 3145.3 -4.81691 -4.17436 0
M  V30 33857 C 3142.99 -4.18664 -4.45156 0
M  V30 33858 C 3143.99 -5.15704 -4.47816 0
M  V30 33859 O 3143.67 -6.44778 -4.80122 0
M  V30 33860 H 3143.41 -0.282874 -0.61397 0
M  V30 33861 H 3145.96 -1.4042 -1.49905 0
M  V30 33862 H 3144.19 -0.396598 -3.84661 0
M  V30 33863 H 3145.88 -0.793427 -3.9807 0
M  V30 33864 H 3146.65 -3.24781 -3.60197 0
M  V30 33865 H 3142.52 -2.12365 -4.09173 0
M  V30 33866 H 3146.07 -5.57428 -4.19427 0
M  V30 33867 H 3141.97 -4.44109 -4.68441 0
M  V30 33868 H 3142.73 -6.4958 -4.97984 0
M  V30 33869 N 3145.4 1.33878 -0.831529 0
M  V30 33870 C 3146.31 2.33135 -0.261729 0
M  V30 33871 C 3147.32 1.63017 0.608401 0
M  V30 33872 O 3148.5 1.94724 0.514263 0
M  V30 33873 C 3145.56 3.42149 0.559897 0
M  V30 33874 C 3144.62 4.28002 -0.333644 0
M  V30 33875 C 3143.86 5.31809 0.448863 0
M  V30 33876 O 3144.08 5.45058 1.68131 0
M  V30 33877 O 3143.01 6.0165 -0.173302 0
M  V30 33878 H 3146.84 2.83715 -1.08348 0
M  V30 33879 H 3144.43 1.37089 -0.593873 0
M  V30 33880 H 3146.31 4.08693 1.02705 0
M  V30 33881 H 3144.98 2.93798 1.35883 0
M  V30 33882 H 3143.89 3.64351 -0.84848 0
M  V30 33883 H 3145.22 4.79816 -1.09715 0
M  V30 33884 N 3146.87 0.587281 1.46249 0
M  V30 33885 C 3147.8 -0.131035 2.33132 0
M  V30 33886 C 3148.79 -0.879133 1.4562 0
M  V30 33887 O 3149.97 -0.853692 1.7443 0
M  V30 33888 C 3147.1 -1.1423 3.27977 0
M  V30 33889 C 3146.05 -0.508744 4.24966 0
M  V30 33890 C 3145.38 -1.62681 5.09352 0
M  V30 33891 C 3146.68 0.557031 5.19321 0
M  V30 33892 H 3148.37 0.594384 2.93441 0
M  V30 33893 H 3145.92 0.287287 1.41105 0
M  V30 33894 H 3147.87 -1.65322 3.87617 0
M  V30 33895 H 3146.6 -1.89805 2.65785 0
M  V30 33896 H 3145.26 -0.0188693 3.66595 0
M  V30 33897 H 3144.9 -2.37234 4.43542 0
M  V30 33898 H 3144.6 -1.20851 5.75038 0
M  V30 33899 H 3146.13 -2.14039 5.71856 0
M  V30 33900 H 3147.54 0.131004 5.7315 0
M  V30 33901 H 3145.94 0.895905 5.93375 0
M  V30 33902 H 3147.01 1.44156 4.62976 0
M  V30 33903 N 3148.35 -1.54206 0.325309 0
M  V30 33904 C 3149.28 -2.21898 -0.573911 0
M  V30 33905 C 3150.3 -1.21954 -1.07848 0
M  V30 33906 O 3151.49 -1.48413 -0.991755 0
M  V30 33907 C 3148.59 -2.87118 -1.80045 0
M  V30 33908 C 3147.76 -4.13216 -1.43428 0
M  V30 33909 C 3146.82 -4.62013 -2.51854 0
M  V30 33910 O 3145.84 -5.26655 -2.15925 0
M  V30 33911 N 3147.05 -4.36388 -3.82812 0
M  V30 33912 H 3149.81 -2.99699 0.00572186 0
M  V30 33913 H 3147.37 -1.61217 0.148592 0
M  V30 33914 H 3149.36 -3.16686 -2.51976 0
M  V30 33915 H 3147.93 -2.13013 -2.28789 0
M  V30 33916 H 3147.15 -3.90393 -0.54653 0
M  V30 33917 H 3148.44 -4.95275 -1.16535 0
M  V30 33918 H 3147.84 -3.84652 -4.148 0
M  V30 33919 H 3146.4 -4.70607 -4.50968 0
M  V30 33920 N 3149.83 -0.0535194 -1.57509 0
M  V30 33921 C 3151.11 0.659735 -1.84138 0
M  V30 33922 C 3151.49 1.88897 -0.942395 0
M  V30 33923 O 3150.84 2.285 -0.00402583 0
M  V30 33924 C 3151.05 1.0148 -3.3392 0
M  V30 33925 C 3152.39 1.39609 -4.00992 0
M  V30 33926 O 3153.42 1.10707 -3.38559 0
M  V30 33927 O 3152.28 1.93558 -5.11075 0
M  V30 33928 H 3149.37 0.32588 -0.760086 0
M  V30 33929 H 3151.92 -0.0830613 -1.69497 0
M  V30 33930 H 3150.69 0.140972 -3.91046 0
M  V30 33931 H 3150.31 1.81496 -3.53758 0
M  V30 33932 N 3151.31 1.56059 0.219886 0
M  V30 33933 C 3152.56 1.79149 0.944033 0
M  V30 33934 C 3152.88 0.622563 1.84267 0
M  V30 33935 O 3152.14 -0.39298 1.91714 0
M  V30 33936 C 3152.44 3.08009 1.81287 0
M  V30 33937 C 3152.1 4.38086 1.06733 0
M  V30 33938 C 3150.77 4.73427 0.861387 0
M  V30 33939 C 3153.12 5.18385 0.540958 0
M  V30 33940 C 3150.45 5.86583 0.117204 0
M  V30 33941 C 3152.8 6.32315 -0.18989 0
M  V30 33942 C 3151.46 6.66258 -0.407068 0
M  V30 33943 H 3150.73 0.655552 0.345446 0
M  V30 33944 H 3153.38 1.90322 0.212087 0
M  V30 33945 H 3151.68 2.91965 2.61273 0
M  V30 33946 H 3153.38 3.23077 2.37534 0
M  V30 33947 H 3149.97 4.10337 1.23782 0
M  V30 33948 H 3154.16 4.91515 0.68753 0
M  V30 33949 H 3149.41 6.11369 -0.0612726 0
M  V30 33950 H 3153.59 6.93765 -0.605256 0
M  V30 33951 H 3151.21 7.53783 -0.985643 0
M  V30 33952 N 3152.79 -0.486655 1.49898 0
M  V30 33953 C 3154.04 -1.23739 1.59791 0
M  V30 33954 C 3154.36 -1.92785 0.29309 0
M  V30 33955 O 3153.63 -1.83402 -0.688502 0
M  V30 33956 H 3152.21 -0.459721 0.588783 0
M  V30 33957 H 3154.87 -0.562775 1.86598 0
M  V30 33958 H 3153.96 -1.99366 2.40124 0
M  V30 33959 N 3154.27 -1.39214 -0.738737 0
M  V30 33960 C 3155.68 -1.32351 -1.31682 0
M  V30 33961 C 3156.03 0.0138696 -1.96195 0
M  V30 33962 O 3155.15 0.915991 -1.96058 0
M  V30 33963 C 3155.75 -2.39695 -2.3944 0
M  V30 33964 C 3154.31 -2.36365 -2.92931 0
M  V30 33965 C 3153.45 -2.21779 -1.66461 0
M  V30 33966 H 3156.4 -1.49356 -0.536517 0
M  V30 33967 H 3156.43 -2.06268 -3.1974 0
M  V30 33968 H 3155.94 -3.37019 -1.92457 0
M  V30 33969 H 3154.04 -1.42668 -3.44204 0
M  V30 33970 H 3154.15 -3.31079 -3.463 0
M  V30 33971 H 3152.52 -1.68887 -1.90654 0
M  V30 33972 H 3153.3 -3.21067 -1.21535 0
M  V30 33973 N 3155.74 0.968523 -1.24328 0
M  V30 33974 C 3156.99 1.70801 -1.08035 0
M  V30 33975 C 3157.31 1.91228 0.381695 0
M  V30 33976 O 3156.58 1.48944 1.2725 0
M  V30 33977 H 3155.16 0.632905 -0.396788 0
M  V30 33978 H 3157.82 1.1652 -1.56234 0
M  V30 33979 H 3156.92 2.69284 -1.57773 0
M  V30 33980 N 3157.22 1.0569 1.16908 0
M  V30 33981 C 3158.45 0.789372 1.90925 0
M  V30 33982 C 3158.86 -0.659338 1.7734 0
M  V30 33983 O 3158.2 -1.46258 1.11149 0
M  V30 33984 C 3158.26 1.09683 3.42359 0
M  V30 33985 C 3157.93 2.54273 3.79729 0
M  V30 33986 C 3158.93 3.52494 3.82157 0
M  V30 33987 C 3156.61 2.89414 4.10542 0
M  V30 33988 C 3158.6 4.83898 4.14876 0
M  V30 33989 C 3156.29 4.21019 4.42929 0
M  V30 33990 C 3157.29 5.18071 4.45074 0
M  V30 33991 O 3156.98 6.47315 4.76695 0
M  V30 33992 H 3156.71 0.286126 0.612461 0
M  V30 33993 H 3159.26 1.41213 1.49158 0
M  V30 33994 H 3157.49 0.416992 3.84445 0
M  V30 33995 H 3159.18 0.814526 3.97643 0
M  V30 33996 H 3159.95 3.26687 3.5847 0
M  V30 33997 H 3155.83 2.14532 4.08041 0
M  V30 33998 H 3159.37 5.59645 4.16465 0
M  V30 33999 H 3155.27 4.46587 4.6608 0
M  V30 34000 H 3156.04 6.52212 4.94532 0
M  V30 34001 N 3158.7 -1.33435 0.838617 0
M  V30 34002 C 3159.92 -2.02532 0.446736 0
M  V30 34003 C 3160.35 -1.62682 -0.944246 0
M  V30 34004 O 3159.71 -0.819298 -1.61732 0
M  V30 34005 C 3159.76 -3.55988 0.574857 0
M  V30 34006 O 3158.86 -4.10465 -0.398991 0
M  V30 34007 H 3158.2 -0.63867 0.181649 0
M  V30 34008 H 3160.73 -1.7034 1.13338 0
M  V30 34009 H 3160.74 -4.05439 0.45641 0
M  V30 34010 H 3159.42 -3.84337 1.58928 0
M  V30 34011 H 3157.99 -3.72139 -0.238122 0
M  V30 34012 N 3160.18 -0.595029 -1.45935 0
M  V30 34013 C 3161.45 -0.0179092 -1.95592 0
M  V30 34014 C 3161.83 1.4464 -1.53761 0
M  V30 34015 O 3161.18 2.14256 -0.794142 0
M  V30 34016 C 3161.39 -0.202851 -3.4841 0
M  V30 34017 C 3162.74 -0.0770867 -4.2453 0
M  V30 34018 O 3163.76 -0.13232 -3.55954 0
M  V30 34019 O 3162.62 0.0483311 -5.46479 0
M  V30 34020 H 3159.72 0.0428557 -0.825889 0
M  V30 34021 H 3162.26 -0.664212 -1.56161 0
M  V30 34022 H 3161.04 -1.22033 -3.71784 0
M  V30 34023 H 3160.66 0.479307 -3.947 0
M  V30 34024 N 3161.66 1.54031 -0.333483 0
M  V30 34025 C 3162.57 2.2838 0.536634 0
M  V30 34026 C 3163.58 1.33106 1.12066 0
M  V30 34027 O 3164.76 1.66133 1.1385 0
M  V30 34028 C 3161.82 3.03459 1.67672 0
M  V30 34029 C 3160.88 4.14338 1.1235 0
M  V30 34030 C 3160.12 4.85827 2.20924 0
M  V30 34031 O 3160.34 4.56906 3.41458 0
M  V30 34032 O 3159.27 5.7251 1.85785 0
M  V30 34033 H 3163.1 3.03625 -0.0674537 0
M  V30 34034 H 3160.68 1.49073 -0.0988492 0
M  V30 34035 H 3162.57 3.50442 2.34026 0
M  V30 34036 H 3161.24 2.3108 2.2668 0
M  V30 34037 H 3160.15 3.71681 0.424761 0
M  V30 34038 H 3161.48 4.8879 0.578411 0
M  V30 34039 N 3163.13 0.0618717 1.57479 0
M  V30 34040 C 3164.04 -0.923788 2.15646 0
M  V30 34041 C 3165.06 -1.33411 1.11703 0
M  V30 34042 O 3166.24 -1.40884 1.43922 0
M  V30 34043 C 3163.3 -2.1766 2.69861 0
M  V30 34044 C 3162.36 -1.82363 3.88642 0
M  V30 34045 C 3161.59 -3.01672 4.40261 0
M  V30 34046 O 3161.82 -4.15381 3.90916 0
M  V30 34047 O 3160.75 -2.82064 5.31717 0
M  V30 34048 H 3164.58 -0.459042 3.00211 0
M  V30 34049 H 3162.16 -0.160639 1.48534 0
M  V30 34050 H 3164.04 -2.91145 3.04652 0
M  V30 34051 H 3162.72 -2.63252 1.88362 0
M  V30 34052 H 3161.63 -1.06161 3.58721 0
M  V30 34053 H 3162.96 -1.41562 4.71403 0
M  V30 34054 N 3164.61 -1.56173 -0.211607 0
M  V30 34055 C 3166.02 -1.69729 -0.777746 0
M  V30 34056 C 3166.37 -0.665612 -1.84564 0
M  V30 34057 O 3165.5 0.1813 -2.15639 0
M  V30 34058 C 3166.09 -3.07721 -1.41751 0
M  V30 34059 C 3164.65 -3.23098 -1.93093 0
M  V30 34060 C 3163.8 -2.65667 -0.794739 0
M  V30 34061 H 3166.75 -1.58695 0.0132118 0
M  V30 34062 H 3166.77 -3.04132 -2.28657 0
M  V30 34063 H 3166.28 -3.82786 -0.640047 0
M  V30 34064 H 3164.39 -2.52919 -2.7361 0
M  V30 34065 H 3164.5 -4.30425 -2.10406 0
M  V30 34066 H 3162.86 -2.24409 -1.20469 0
M  V30 34067 H 3163.65 -3.43287 -0.0297805 0
M  V30 34068 N 3166.09 0.478699 -1.50154 0
M  V30 34069 C 3167.37 1.23996 -1.51276 0
M  V30 34070 C 3167.75 2.09577 -0.253085 0
M  V30 34071 O 3167.1 2.15357 0.763789 0
M  V30 34072 C 3167.31 2.07754 -2.80427 0
M  V30 34073 C 3168.65 2.66199 -3.30792 0
M  V30 34074 O 3169.68 2.18003 -2.81697 0
M  V30 34075 O 3168.54 3.53992 -4.16356 0
M  V30 34076 H 3165.63 0.562273 -0.606447 0
M  V30 34077 H 3168.18 0.491142 -1.62437 0
M  V30 34078 H 3166.95 1.44639 -3.63587 0
M  V30 34079 H 3166.57 2.89785 -2.72233 0
M  V30 34080 N 3167.57 1.39603 0.731343 0
M  V30 34081 C 3168.98 1.33047 1.30978 0
M  V30 34082 C 3169.33 -0.0034647 1.962 0
M  V30 34083 O 3168.46 -0.905581 1.96541 0
M  V30 34084 C 3169.05 2.40962 2.38166 0
M  V30 34085 C 3167.61 2.37915 2.91674 0
M  V30 34086 C 3166.76 2.22659 1.65282 0
M  V30 34087 H 3169.71 1.49638 0.528589 0
M  V30 34088 H 3169.73 2.07961 3.18642 0
M  V30 34089 H 3169.24 3.38035 1.90667 0
M  V30 34090 H 3167.34 1.44491 3.43443 0
M  V30 34091 H 3167.45 3.3291 3.44539 0
M  V30 34092 H 3165.82 1.69896 1.89756 0
M  V30 34093 H 3166.6 3.21707 1.1983 0
M  V30 34094 N 3169.05 -0.961916 1.2484 0
M  V30 34095 C 3170.29 -1.70226 1.08939 0
M  V30 34096 C 3170.62 -1.91428 -0.371548 0
M  V30 34097 O 3169.89 -1.49617 -1.26458 0
M  V30 34098 H 3168.47 -0.630792 0.400139 0
M  V30 34099 H 3171.13 -1.1569 1.5685 0
M  V30 34100 H 3170.22 -2.68444 1.59199 0
M  V30 34101 N 3170.52 -1.06308 -1.16346 0
M  V30 34102 C 3171.94 -0.786567 -1.38871 0
M  V30 34103 C 3172.14 0.614028 -1.91917 0
M  V30 34104 O 3171.2 1.37457 -2.11806 0
M  V30 34105 C 3172.51 -1.85158 -2.36932 0
M  V30 34106 C 3174.06 -1.87511 -2.50617 0
M  V30 34107 C 3174.53 -2.93067 -3.5196 0
M  V30 34108 N 3176.02 -2.92101 -3.59487 0
M  V30 34109 C 3176.76 -3.70423 -4.37692 0
M  V30 34110 N 3176.25 -4.58562 -5.19319 0
M  V30 34111 N 3178.05 -3.58814 -4.32677 0
M  V30 34112 H 3170.2 -1.96656 -0.802507 0
M  V30 34113 H 3172.46 -0.852196 -0.41529 0
M  V30 34114 H 3172.17 -2.8574 -2.05051 0
M  V30 34115 H 3172.04 -1.70272 -3.36582 0
M  V30 34116 H 3174.43 -0.875876 -2.81802 0
M  V30 34117 H 3174.51 -2.06475 -1.51003 0
M  V30 34118 H 3174.15 -3.93183 -3.21511 0
M  V30 34119 H 3174.08 -2.71352 -4.51304 0
M  V30 34120 H 3176.57 -2.28202 -3.01218 0
M  V30 34121 H 3176.89 -5.14981 -5.76207 0
M  V30 34122 H 3175.23 -4.62618 -5.18662 0
M  V30 34123 H 3178.42 -2.89341 -3.67966 0
M  V30 34124 H 3178.6 -4.20097 -4.93379 0
M  V30 34125 N 3172 1.32989 -0.845682 0
M  V30 34126 C 3173.28 1.92139 -0.36634 0
M  V30 34127 C 3173.66 1.77085 1.14909 0
M  V30 34128 O 3173.01 1.16341 1.96665 0
M  V30 34129 C 3173.22 3.39211 -0.820776 0
M  V30 34130 C 3174.57 4.16354 -0.83274 0
M  V30 34131 O 3175.59 3.47892 -0.764825 0
M  V30 34132 O 3174.45 5.38585 -0.926753 0
M  V30 34133 H 3171.54 0.820297 -0.105078 0
M  V30 34134 H 3174.09 1.41817 -0.931987 0
M  V30 34135 H 3172.86 3.44071 -1.86363 0
M  V30 34136 H 3172.48 3.96922 -0.232079 0
M  V30 34137 N 3173.48 0.60276 1.45618 0
M  V30 34138 C 3174.39 -0.120861 2.34288 0
M  V30 34139 C 3175.41 -0.865388 1.50954 0
M  V30 34140 O 3176.58 -0.824062 1.83769 0
M  V30 34141 C 3173.65 -1.10882 3.28491 0
M  V30 34142 C 3172.71 -0.366778 4.2773 0
M  V30 34143 C 3171.94 -1.30767 5.17432 0
M  V30 34144 O 3172.16 -2.54526 5.10463 0
M  V30 34145 O 3171.1 -0.807359 5.96461 0
M  V30 34146 H 3174.92 0.607702 2.97558 0
M  V30 34147 H 3172.51 0.363045 1.44922 0
M  V30 34148 H 3174.39 -1.67796 3.86552 0
M  V30 34149 H 3173.07 -1.81849 2.67792 0
M  V30 34150 H 3171.97 0.244709 3.73299 0
M  V30 34151 H 3173.31 0.302313 4.91271 0
M  V30 34152 N 3174.96 -1.53852 0.341647 0
M  V30 34153 C 3175.87 -2.28661 -0.524515 0
M  V30 34154 C 3176.88 -1.33699 -1.11358 0
M  V30 34155 O 3178.06 -1.66734 -1.12967 0
M  V30 34156 C 3175.13 -3.04344 -1.6606 0
M  V30 34157 C 3174.19 -4.14928 -1.10151 0
M  V30 34158 C 3173.42 -4.86992 -2.18345 0
M  V30 34159 O 3173.64 -4.5871 -3.3903 0
M  V30 34160 O 3172.58 -5.73487 -1.82746 0
M  V30 34161 H 3176.4 -3.03585 0.0835547 0
M  V30 34162 H 3173.99 -1.49018 0.106753 0
M  V30 34163 H 3175.87 -3.51679 -2.32164 0
M  V30 34164 H 3174.54 -2.32279 -2.25451 0
M  V30 34165 H 3173.45 -3.71901 -0.405044 0
M  V30 34166 H 3174.78 -4.89089 -0.552481 0
M  V30 34167 N 3176.44 -0.0702223 -1.57443 0
M  V30 34168 C 3177.71 0.640168 -1.84828 0
M  V30 34169 C 3178.09 1.87887 -0.962377 0
M  V30 34170 O 3177.44 2.28483 -0.028261 0
M  V30 34171 C 3177.65 0.979323 -3.34978 0
M  V30 34172 C 3179 1.35348 -4.0245 0
M  V30 34173 O 3180.02 1.0711 -3.39714 0
M  V30 34174 O 3178.88 1.88127 -5.13099 0
M  V30 34175 H 3175.98 0.3178 -0.7635 0
M  V30 34176 H 3178.52 -0.101034 -1.69399 0
M  V30 34177 H 3177.29 0.0994888 -3.91174 0
M  V30 34178 H 3176.92 1.77734 -3.55663 0
M  V30 34179 N 3177.91 1.56283 0.203321 0
M  V30 34180 C 3178.84 1.96914 1.25487 0
M  V30 34181 C 3179.83 0.83991 1.47917 0
M  V30 34182 O 3181.01 1.10362 1.59793 0
M  V30 34183 C 3178.14 2.30157 2.60086 0
M  V30 34184 C 3177.09 3.45742 2.52282 0
M  V30 34185 C 3176.42 3.64638 3.91079 0
M  V30 34186 C 3177.72 4.80176 2.05494 0
M  V30 34187 H 3179.41 2.85003 0.917256 0
M  V30 34188 H 3176.96 1.3712 0.439794 0
M  V30 34189 H 3178.91 2.57176 3.33824 0
M  V30 34190 H 3177.64 1.38942 2.95572 0
M  V30 34191 H 3176.3 3.18801 1.81001 0
M  V30 34192 H 3175.94 2.70767 4.23903 0
M  V30 34193 H 3175.64 4.42391 3.86735 0
M  V30 34194 H 3177.17 3.94024 4.66452 0
M  V30 34195 H 3178.58 5.0628 2.68986 0
M  V30 34196 H 3176.98 5.61341 2.1217 0
M  V30 34197 H 3178.05 4.74311 1.00784 0
M  V30 34198 N 3179.39 -0.470729 1.50406 0
M  V30 34199 C 3180.36 -1.55107 1.68744 0
M  V30 34200 C 3181.36 -1.50803 0.558143 0
M  V30 34201 O 3182.55 -1.53416 0.825176 0
M  V30 34202 C 3179.68 -2.94736 1.713 0
M  V30 34203 H 3180.87 -1.40165 2.6513 0
M  V30 34204 H 3178.42 -0.697132 1.39892 0
M  V30 34205 H 3179.16 -3.15122 0.766084 0
M  V30 34206 H 3178.94 -2.99267 2.53341 0
M  V30 34207 H 3180.43 -3.7317 1.87441 0
M  V30 34208 N 3180.87 -1.39989 -0.72393 0
M  V30 34209 C 3182.15 -1.28318 -1.47627 0
M  V30 34210 C 3182.53 0.102265 -2.10852 0
M  V30 34211 O 3181.88 1.11441 -1.99482 0
M  V30 34212 C 3182.09 -2.41579 -2.51874 0
M  V30 34213 C 3183.43 -2.8142 -3.17943 0
M  V30 34214 O 3184.46 -2.4111 -2.62191 0
M  V30 34215 O 3183.32 -3.51035 -4.18852 0
M  V30 34216 H 3180.41 -0.503471 -0.656084 0
M  V30 34217 H 3182.96 -1.5189 -0.756813 0
M  V30 34218 H 3181.73 -3.34152 -2.03612 0
M  V30 34219 H 3181.35 -2.19733 -3.31366 0
M  V30 34220 N 3182.35 0.955282 -1.25348 0
M  V30 34221 C 3183.26 2.08564 -1.07415 0
M  V30 34222 C 3184.28 1.73996 -0.0114729 0
M  V30 34223 O 3185.45 2.00278 -0.212271 0
M  V30 34224 C 3182.52 3.39679 -0.694201 0
M  V30 34225 C 3181.58 3.88118 -1.83475 0
M  V30 34226 C 3180.81 5.12975 -1.47283 0
M  V30 34227 O 3181.03 5.6921 -0.368186 0
M  V30 34228 O 3179.97 5.56107 -2.30279 0
M  V30 34229 H 3183.79 2.26594 -2.0221 0
M  V30 34230 H 3181.38 1.06986 -1.0428 0
M  V30 34231 H 3183.26 4.1849 -0.494399 0
M  V30 34232 H 3181.94 3.22921 0.224488 0
M  V30 34233 H 3180.84 3.10314 -2.0894 0
M  V30 34234 H 3182.18 4.09374 -2.73265 0
M  V30 34235 N 3183.83 1.06924 1.1578 0
M  V30 34236 C 3184.76 0.629876 2.19335 0
M  V30 34237 C 3185.74 -0.350635 1.58774 0
M  V30 34238 O 3186.92 -0.258091 1.86725 0
M  V30 34239 C 3184.05 -0.0756931 3.38615 0
M  V30 34240 C 3183.1 0.862576 4.17686 0
M  V30 34241 S 3183.93 2.36125 4.8063 0
M  V30 34242 C 3185.08 1.66736 6.03283 0
M  V30 34243 H 3185.32 1.50718 2.56264 0
M  V30 34244 H 3182.85 0.882798 1.26673 0
M  V30 34245 H 3184.81 -0.47654 4.07725 0
M  V30 34246 H 3183.47 -0.929279 3.00039 0
M  V30 34247 H 3182.66 0.31555 5.03011 0
M  V30 34248 H 3182.26 1.2036 3.54104 0
M  V30 34249 H 3184.56 0.97659 6.70424 0
M  V30 34250 H 3185.5 2.49876 6.62546 0
M  V30 34251 H 3185.91 1.1472 5.5272 0
M  V30 34252 N 3185.31 -1.32538 0.852723 0
M  V30 34253 C 3186.55 -1.96584 0.451394 0
M  V30 34254 C 3186.87 -1.68239 -0.997743 0
M  V30 34255 O 3188.07 -2.26008 -1.50441 0
M  V30 34256 C 3186.53 -3.51865 0.756252 0
M  V30 34257 C 3186.14 -3.89071 2.22099 0
M  V30 34258 C 3187.88 -4.22392 0.422553 0
M  V30 34259 C 3185.79 -5.37388 2.46917 0
M  V30 34260 H 3184.72 -0.73571 0.165065 0
M  V30 34261 H 3187.37 -1.5096 1.04324 0
M  V30 34262 H 3185.75 -3.95889 0.0938683 0
M  V30 34263 H 3186.93 -3.56062 2.925 0
M  V30 34264 H 3185.24 -3.31563 2.51902 0
M  V30 34265 H 3187.84 -5.31486 0.585424 0
M  V30 34266 H 3188.18 -4.11418 -0.635665 0
M  V30 34267 H 3188.71 -3.83944 1.04075 0
M  V30 34268 H 3185.45 -5.5338 3.51356 0
M  V30 34269 H 3184.97 -5.71809 1.81092 0
M  V30 34270 H 3186.65 -6.04446 2.30769 0
M  V30 34271 N 3186.78 -0.610474 -1.45296 0
M  V30 34272 C 3188.02 -0.109838 -2.04105 0
M  V30 34273 C 3188.39 1.23725 -1.4682 0
M  V30 34274 O 3189.59 1.82878 -1.97001 0
M  V30 34275 C 3187.86 -0.0742005 -3.57323 0
M  V30 34276 S 3189.42 0.364824 -4.37281 0
M  V30 34277 H 3186.24 -0.0509795 -0.70917 0
M  V30 34278 H 3188.84 -0.809225 -1.77966 0
M  V30 34279 H 3187.54 -1.05808 -3.96526 0
M  V30 34280 H 3187.07 0.64709 -3.88042 0
M  V30 34281 H 3189.09 1.61371 -4.69227 0
M  V30 34282 N 3188.26 1.53669 -0.349801 0
M  V30 34283 C 3189.51 2.00196 0.245826 0
M  V30 34284 C 3189.82 1.24147 1.51152 0
M  V30 34285 O 3191.03 1.61182 2.18478 0
M  V30 34286 C 3189.49 3.56568 0.488602 0
M  V30 34287 C 3189.09 4.4148 -0.761553 0
M  V30 34288 C 3190.84 4.11494 1.04275 0
M  V30 34289 C 3188.74 5.89373 -0.489232 0
M  V30 34290 H 3187.67 0.74791 0.0956362 0
M  V30 34291 H 3190.33 1.77482 -0.466099 0
M  V30 34292 H 3188.71 3.75373 1.26139 0
M  V30 34293 H 3189.88 4.34449 -1.53592 0
M  V30 34294 H 3188.2 3.97578 -1.23778 0
M  V30 34295 H 3190.79 5.19605 1.26155 0
M  V30 34296 H 3191.14 3.65102 2.00016 0
M  V30 34297 H 3191.67 3.96425 0.330513 0
M  V30 34298 H 3188.41 6.40011 -1.41654 0
M  V30 34299 H 3187.93 5.99291 0.246934 0
M  V30 34300 H 3189.61 6.46908 -0.108814 0
M  V30 34301 N 3189.74 0.0785709 1.57404 0
M  V30 34302 C 3190.97 -0.597827 1.98075 0
M  V30 34303 C 3191.38 -1.62738 0.957169 0
M  V30 34304 O 3190.74 -1.82416 -0.0553407 0
M  V30 34305 C 3190.79 -1.26035 3.38818 0
M  V30 34306 O 3190.51 -0.271993 4.37255 0
M  V30 34307 C 3192.01 -2.02393 3.94401 0
M  V30 34308 H 3189.23 -0.161534 0.651266 0
M  V30 34309 H 3191.78 0.152977 2.03927 0
M  V30 34310 H 3189.93 -1.96219 3.34031 0
M  V30 34311 H 3190.35 -0.748129 5.19137 0
M  V30 34312 H 3191.82 -2.44131 4.9508 0
M  V30 34313 H 3192.3 -2.8832 3.31313 0
M  V30 34314 H 3192.9 -1.37061 4.0261 0
M  V30 34315 N 3191.22 -1.56389 -0.19503 0
M  V30 34316 C 3192.45 -1.84739 -0.93161 0
M  V30 34317 C 3192.86 -0.661077 -1.76848 0
M  V30 34318 O 3192.22 0.370209 -1.78706 0
M  V30 34319 C 3192.27 -3.11892 -1.82772 0
M  V30 34320 O 3191.99 -4.25949 -1.02464 0
M  V30 34321 C 3193.49 -3.53422 -2.67597 0
M  V30 34322 H 3190.71 -0.613482 -0.27181 0
M  V30 34323 H 3193.25 -2.03497 -0.202264 0
M  V30 34324 H 3191.41 -2.95031 -2.51068 0
M  V30 34325 H 3191.82 -4.98356 -1.6353 0
M  V30 34326 H 3193.3 -4.45358 -3.2613 0
M  V30 34327 H 3193.77 -2.76414 -3.41309 0
M  V30 34328 H 3194.38 -3.72813 -2.04671 0
M  V30 34329 N 3192.7 0.462746 -1.50653 0
M  V30 34330 C 3193.63 1.56757 -1.73059 0
M  V30 34331 C 3194.61 1.59916 -0.579727 0
M  V30 34332 O 3195.79 1.7605 -0.81976 0
M  V30 34333 C 3192.92 2.95027 -1.83239 0
M  V30 34334 C 3191.88 3.06734 -2.98494 0
M  V30 34335 C 3191.2 4.46733 -2.93826 0
M  V30 34336 C 3192.5 2.83173 -4.38874 0
M  V30 34337 H 3194.2 1.3826 -2.65565 0
M  V30 34338 H 3191.74 0.6637 -1.27793 0
M  V30 34339 H 3193.69 3.72254 -1.97497 0
M  V30 34340 H 3192.42 3.14699 -0.873613 0
M  V30 34341 H 3191.08 2.31941 -2.83899 0
M  V30 34342 H 3190.73 4.63336 -1.95777 0
M  V30 34343 H 3190.43 4.555 -3.71205 0
M  V30 34344 H 3191.95 5.25968 -3.10144 0
M  V30 34345 H 3193.36 3.50145 -4.53951 0
M  V30 34346 H 3191.76 3.03377 -5.17767 0
M  V30 34347 H 3192.83 1.78964 -4.50666 0
M  V30 34348 O 3194.21 1.49604 0.608347 0
M  V30 34349 H 3194.9 1.46867 1.26292 0
M  V30 END ATOM
M  V30 BEGIN BOND
M  V30 END BOND
M  V30 END CTAB
M  END
$$$$
