drugbank_target|Q5SIR5 Ribose-5-phosphate isomerase A (DB02053; DB03745)
 OpenBabel12092119563D

  0  0  0     0  0            999 V3000
M  V30 BEGIN CTAB
M  V30 COUNTS 3438 3469 0 0 0
M  V30 BEGIN ATOM
M  V30 1 H -0.908 1.98254 -0.117106 0
M  V30 2 N 0 1.576 0 0
M  V30 3 C 0.933 2.03868 1.02534 0
M  V30 4 C 1.911 0.928543 1.3348 0
M  V30 5 O 3.095 1.19667 1.45644 0
M  V30 6 C 0.222 2.43627 2.35294 0
M  V30 7 C -0.732 3.65373 2.2001 0
M  V30 8 S 0.101 5.13292 1.52614 0
M  V30 9 C 1.257 5.56322 2.86805 0
M  V30 10 H 1.49 2.90518 0.631377 0
M  V30 11 H -0.977 1.52953 0.210867 0
M  V30 12 H 0.981 2.67203 3.11629 0
M  V30 13 H -0.358 1.57376 2.7183 0
M  V30 14 H -1.165 3.90944 3.18086 0
M  V30 15 H -1.563 3.418 1.51819 0
M  V30 16 H 0.729 5.58782 3.83104 0
M  V30 17 H 1.672 6.56266 2.65933 0
M  V30 18 H 2.08 4.83886 2.90714 0
M  V30 19 N 1.4781 -0.272755 1.55222 0
M  V30 20 C 2.3881 -1.35918 1.91216 0
M  V30 21 C 3.4041 -1.54026 0.809436 0
M  V30 22 O 4.5801 -1.68148 1.10852 0
M  V30 23 C 1.6451 -2.69834 2.17693 0
M  V30 24 C 0.7061 -2.6047 3.41253 0
M  V30 25 C -0.0609 -3.88 3.66458 0
M  V30 26 O 0.1621 -4.88693 2.94169 0
M  V30 27 O -0.9039 -3.88189 4.59992 0
M  V30 28 H 2.9221 -1.0839 2.83699 0
M  V30 29 H 0.5071 -0.471301 1.41771 0
M  V30 30 H 2.3891 -3.49017 2.36147 0
M  V30 31 H 1.0641 -2.97148 1.28392 0
M  V30 32 H -0.0289 -1.79663 3.28134 0
M  V30 33 H 1.3041 -2.38106 4.30774 0
M  V30 34 N 2.9562 -1.48159 -0.537278 0
M  V30 35 C 4.3722 -1.34118 -0.865129 0
M  V30 36 C 4.5722 -0.346678 -1.98495 0
M  V30 37 O 3.6282 0.234715 -2.51407 0
M  V30 38 C 4.9412 -2.73963 -1.23954 0
M  V30 39 C 6.4892 -2.82397 -1.34984 0
M  V30 40 C 6.9642 -4.22928 -1.75772 0
M  V30 41 N 8.4552 -4.25566 -1.82887 0
M  V30 42 C 9.1902 -5.31235 -2.15817 0
M  V30 43 N 8.6862 -6.47189 -2.47222 0
M  V30 44 N 10.4792 -5.18624 -2.16761 0
M  V30 45 H 2.6302 -2.1144 0.201715 0
M  V30 46 H 4.8932 -0.947598 0.0275949 0
M  V30 47 H 4.5992 -3.48264 -0.490381 0
M  V30 48 H 4.4732 -3.0702 -2.19132 0
M  V30 49 H 6.8602 -2.08356 -2.08978 0
M  V30 50 H 6.9412 -2.5297 -0.379448 0
M  V30 51 H 6.5852 -4.97482 -1.02341 0
M  V30 52 H 6.5152 -4.49794 -2.73848 0
M  V30 53 H 9.0062 -3.41924 -1.60924 0
M  V30 54 H 9.3192 -7.23564 -2.71433 0
M  V30 55 H 7.6642 -6.50476 -2.44757 0
M  V30 56 H 10.8552 -4.27056 -1.91679 0
M  V30 57 H 11.0282 -6.01078 -2.42093 0
M  V30 58 N 4.4343 0.785586 -1.36625 0
M  V30 59 C 5.8453 1.36101 -1.27803 0
M  V30 60 C 6.1963 1.96035 0.0804875 0
M  V30 61 O 5.3213 1.92834 0.982042 0
M  V30 62 C 5.9163 2.47442 -2.31426 0
M  V30 63 C 4.4753 3.00789 -2.26281 0
M  V30 64 C 3.6223 1.73896 -2.15999 0
M  V30 65 H 6.5733 0.586928 -1.47448 0
M  V30 66 H 6.5943 3.2656 -1.95291 0
M  V30 67 H 6.1063 2.03791 -3.30289 0
M  V30 68 H 4.2073 3.48851 -1.30896 0
M  V30 69 H 4.3203 3.57343 -3.19128 0
M  V30 70 H 2.6843 1.9628 -1.62316 0
M  V30 71 H 3.4673 1.32368 -3.16755 0
M  V30 72 N 5.9124 1.20967 1.01018 0
M  V30 73 C 6.8424 0.988272 2.11555 0
M  V30 74 C 7.8234 -0.0849778 1.69888 0
M  V30 75 O 9.0084 0.0738202 1.9406 0
M  V30 76 C 6.1384 0.546528 3.42973 0
M  V30 77 C 5.0924 1.56375 3.9841 0
M  V30 78 C 4.4184 0.97842 5.25672 0
M  V30 79 C 5.7184 2.94922 4.31066 0
M  V30 80 H 7.4124 1.91276 2.30334 0
M  V30 81 H 4.9584 0.921073 1.1069 0
M  V30 82 H 6.9114 0.378839 4.19694 0
M  V30 83 H 5.6354 -0.413598 3.23971 0
M  V30 84 H 4.2944 1.71891 3.23804 0
M  V30 85 H 3.9424 0.0101688 5.02999 0
M  V30 86 H 3.6424 1.65784 5.63728 0
M  V30 87 H 5.1664 0.821939 6.05043 0
M  V30 88 H 6.5804 2.8288 4.9865 0
M  V30 89 H 4.9774 3.5983 4.80253 0
M  V30 90 H 6.0474 3.4616 3.39561 0
M  V30 91 N 7.3905 -1.2043 1.01659 0
M  V30 92 C 8.3005 -2.2689 0.596484 0
M  V30 93 C 9.3165 -1.70107 -0.36599 0
M  V30 94 O 10.4925 -2.00117 -0.226942 0
M  V30 95 C 7.5575 -3.4665 -0.0586659 0
M  V30 96 C 6.6185 -4.18662 0.949751 0
M  V30 97 C 5.8515 -5.32705 0.32577 0
M  V30 98 O 6.0745 -5.63656 -0.874509 0
M  V30 99 O 5.0085 -5.92803 1.04249 0
M  V30 100 H 8.8345 -2.65041 1.4828 0
M  V30 101 H 6.4195 -1.27048 0.786082 0
M  V30 102 H 8.3015 -4.19256 -0.424564 0
M  V30 103 H 6.9765 -3.10375 -0.91918 0
M  V30 104 H 5.8835 -3.48229 1.36702 0
M  V30 105 H 7.2165 -4.58878 1.78023 0
M  V30 106 N 8.8686 -0.792821 -1.36206 0
M  V30 107 C 10.0936 -0.377701 -2.03932 0
M  V30 108 C 10.5186 0.998947 -1.59382 0
M  V30 109 O 9.8766 1.64421 -0.763903 0
M  V30 110 C 9.9246 -0.453635 -3.57735 0
M  V30 111 O 9.0286 0.538151 -4.08874 0
M  V30 112 H 8.3696 -0.159855 -0.644471 0
M  V30 113 H 10.8996 -1.07488 -1.7409 0
M  V30 114 H 10.9096 -0.318464 -4.06755 0
M  V30 115 H 9.5846 -1.45784 -3.89512 0
M  V30 116 H 8.1616 0.364359 -3.71116 0
M  V30 117 N 10.3467 1.47872 -0.545128 0
M  V30 118 C 11.5767 2.06589 -0.0210534 0
M  V30 119 C 11.9847 1.39997 1.27269 0
M  V30 120 O 11.3277 0.486421 1.77143 0
M  V30 121 C 11.3897 3.58574 0.257933 0
M  V30 122 C 11.0537 4.47132 -0.944573 0
M  V30 123 C 12.0507 4.85986 -1.84699 0
M  V30 124 C 9.7357 4.88821 -1.15584 0
M  V30 125 C 11.7297 5.65314 -2.94446 0
M  V30 126 C 9.4167 5.67916 -2.25642 0
M  V30 127 C 10.4147 6.06073 -3.14905 0
M  V30 128 O 10.1027 6.83578 -4.23057 0
M  V30 129 H 9.8347 0.674971 -0.0372899 0
M  V30 130 H 12.3887 1.91037 -0.754599 0
M  V30 131 H 10.6187 3.72295 1.04564 0
M  V30 132 H 12.3077 3.99356 0.72592 0
M  V30 133 H 13.0737 4.54388 -1.69577 0
M  V30 134 H 8.9527 4.58595 -0.470279 0
M  V30 135 H 12.4967 5.95016 -3.64145 0
M  V30 136 H 8.3937 5.98927 -2.40742 0
M  V30 137 H 9.1617 7.01954 -4.20954 0
M  V30 138 N 11.8248 0.280983 1.55075 0
M  V30 139 C 12.7718 -0.603937 2.22758 0
M  V30 140 C 13.7418 -1.1452 1.20309 0
M  V30 141 O 14.9268 -1.19343 1.48869 0
M  V30 142 C 12.0668 -1.77947 2.95684 0
M  V30 143 C 11.1798 -1.2715 4.12864 0
M  V30 144 C 10.3148 -2.4093 4.7342 0
M  V30 145 C 9.3538 -1.87165 5.82783 0
M  V30 146 N 8.4908 -2.94441 6.37377 0
M  V30 147 H 13.3308 -0.020124 2.97993 0
M  V30 148 H 10.8678 0.00183425 1.471 0
M  V30 149 H 12.8258 -2.47055 3.36184 0
M  V30 150 H 11.4558 -2.33522 2.22861 0
M  V30 151 H 10.5078 -0.473331 3.77444 0
M  V30 152 H 11.8198 -0.837751 4.91715 0
M  V30 153 H 10.9738 -3.18021 5.1667 0
M  V30 154 H 9.7128 -2.87623 3.93859 0
M  V30 155 H 8.7178 -1.08556 5.38976 0
M  V30 156 H 9.9428 -1.41401 6.64216 0
M  V30 157 H 7.8888 -3.40505 5.60707 0
M  V30 158 H 7.8058 -2.55501 7.11516 0
M  V30 159 H 9.0738 -3.71489 6.85285 0
M  V30 160 N 13.3029 -1.57598 0.00835791 0
M  V30 161 C 14.2499 -2.08945 -0.980346 0
M  V30 162 C 15.2199 -0.986738 -1.33614 0
M  V30 163 O 16.4049 -1.25968 -1.43306 0
M  V30 164 C 13.5449 -2.60425 -2.26435 0
M  V30 165 C 12.6579 -3.84628 -1.96685 0
M  V30 166 C 11.7929 -4.24579 -3.19228 0
M  V30 167 C 10.8319 -5.41596 -2.85202 0
M  V30 168 N 9.9689 -5.768 -4.00307 0
M  V30 169 H 14.8089 -2.93148 -0.535551 0
M  V30 170 H 12.3459 -1.44912 -0.252776 0
M  V30 171 H 14.3039 -2.88354 -3.01509 0
M  V30 172 H 12.9339 -1.79083 -2.68568 0
M  V30 173 H 11.9859 -3.63556 -1.11942 0
M  V30 174 H 13.2979 -4.69796 -1.67611 0
M  V30 175 H 12.4519 -4.53834 -4.02641 0
M  V30 176 H 11.1909 -3.38137 -3.51447 0
M  V30 177 H 10.1959 -5.12056 -2.00198 0
M  V30 178 H 11.4209 -6.29721 -2.54222 0
M  V30 179 H 9.3669 -4.93316 -4.32407 0
M  V30 180 H 9.2839 -6.5656 -3.74786 0
M  V30 181 H 10.5519 -6.10652 -4.84484 0
M  V30 182 N 14.781 0.264519 -1.55364 0
M  V30 183 C 15.691 1.34902 -1.91934 0
M  V30 184 C 16.707 1.53595 -0.817593 0
M  V30 185 O 17.883 1.67558 -1.11742 0
M  V30 186 C 14.948 2.68676 -2.19121 0
M  V30 187 C 14.009 2.58657 -3.4263 0
M  V30 188 C 13.242 3.86051 -3.68511 0
M  V30 189 O 13.465 4.87126 -2.96757 0
M  V30 190 O 12.399 3.85744 -4.62045 0
M  V30 191 H 16.225 1.06883 -2.8427 0
M  V30 192 H 13.81 0.463775 -1.42019 0
M  V30 193 H 15.692 3.47759 -2.37995 0
M  V30 194 H 14.367 2.96463 -1.29966 0
M  V30 195 H 13.274 1.7792 -3.29082 0
M  V30 196 H 14.607 2.35818 -4.32031 0
M  V30 197 N 16.2591 1.48442 0.529413 0
M  V30 198 C 17.2221 1.62524 1.61612 0
M  V30 199 C 18.2221 0.498509 1.52877 0
M  V30 200 O 19.4121 0.76431 1.56537 0
M  V30 201 C 16.5441 1.59597 3.01233 0
M  V30 202 H 17.7371 2.59423 1.50465 0
M  V30 203 H 15.2901 1.37047 0.751514 0
M  V30 204 H 16.0251 0.641781 3.17886 0
M  V30 205 H 15.8101 2.41397 3.08982 0
M  V30 206 H 17.3001 1.72646 3.80241 0
M  V30 207 N 17.7372 -0.778329 1.37039 0
M  V30 208 C 18.7002 -1.87301 1.32102 0
M  V30 209 C 19.7002 -1.59198 0.226405 0
M  V30 210 O 20.8902 -1.67403 0.481861 0
M  V30 211 C 18.0222 -3.24309 1.05055 0
M  V30 212 H 19.2152 -1.93093 2.29467 0
M  V30 213 H 16.7682 -0.977358 1.21973 0
M  V30 214 H 17.5032 -3.24196 0.0819373 0
M  V30 215 H 17.2882 -3.46098 1.84279 0
M  V30 216 H 18.7782 -4.04382 1.04234 0
M  V30 217 N 19.2153 -1.21501 -1.00376 0
M  V30 218 C 20.1653 -0.942843 -2.07592 0
M  V30 219 C 21.1493 0.102384 -1.60574 0
M  V30 220 O 22.3413 -0.10671 -1.76678 0
M  V30 221 C 19.4703 -0.510729 -3.3948 0
M  V30 222 C 18.5563 -1.59009 -3.93163 0
M  V30 223 N 18.9473 -2.81544 -4.20198 0
M  V30 224 C 17.2453 -1.45925 -4.21452 0
M  V30 225 C 17.9463 -3.51261 -4.63671 0
M  V30 226 N 16.9223 -2.78703 -4.66718 0
M  V30 227 H 20.7243 -1.87378 -2.26421 0
M  V30 228 H 18.2383 -1.11093 -1.18458 0
M  V30 229 H 20.2353 -0.297101 -4.1584 0
M  V30 230 H 18.8953 0.413436 -3.22057 0
M  V30 231 H 19.9063 -3.18075 -4.08716 0
M  V30 232 H 16.5833 -0.600467 -4.13159 0
M  V30 233 H 17.9733 -4.56183 -4.93302 0
M  V30 234 N 20.6934 1.19889 -1.02296 0
M  V30 235 C 21.6564 2.21116 -0.603351 0
M  V30 236 C 22.6564 1.5738 0.329884 0
M  V30 237 O 23.8464 1.73802 0.117702 0
M  V30 238 C 20.9784 3.40696 0.117992 0
M  V30 239 H 22.1714 2.59754 -1.49893 0
M  V30 240 H 19.7244 1.33463 -0.813468 0
M  V30 241 H 20.4594 3.07569 1.0282 0
M  V30 242 H 20.2444 3.88188 -0.552511 0
M  V30 243 H 21.7344 4.15692 0.398696 0
M  V30 244 N 22.1715 0.800033 1.35784 0
M  V30 245 C 23.1345 0.211565 2.28221 0
M  V30 246 C 24.1345 -0.59728 1.49296 0
M  V30 247 O 25.3245 -0.416721 1.69142 0
M  V30 248 C 22.4565 -0.705846 3.33513 0
M  V30 249 H 23.6495 1.02677 2.81776 0
M  V30 250 H 21.2025 0.570211 1.45528 0
M  V30 251 H 21.9375 -1.54498 2.85133 0
M  V30 252 H 21.7225 -0.127655 3.91892 0
M  V30 253 H 23.2125 -1.11211 4.02519 0
M  V30 254 N 23.6496 -1.47581 0.552962 0
M  V30 255 C 24.8986 -2.01684 0.0251995 0
M  V30 256 C 25.2116 -1.43317 -1.33115 0
M  V30 257 O 26.4176 -1.89057 -1.94858 0
M  V30 258 C 24.8736 -3.599 -0.00542052 0
M  V30 259 C 24.4816 -4.27257 1.34742 0
M  V30 260 C 26.2256 -4.21768 -0.4808 0
M  V30 261 C 24.1326 -5.77467 1.27614 0
M  V30 262 H 23.0626 -0.753979 0.00565033 0
M  V30 263 H 25.7136 -1.69616 0.70018 0
M  V30 264 H 24.0956 -3.88911 -0.745961 0
M  V30 265 H 25.2696 -4.09893 2.10534 0
M  V30 266 H 23.5846 -3.77358 1.76039 0
M  V30 267 H 26.1816 -5.31838 -0.55246 0
M  V30 268 H 26.5246 -3.88651 -1.49184 0
M  V30 269 H 27.0576 -3.97273 0.204752 0
M  V30 270 H 23.7966 -6.15196 2.26304 0
M  V30 271 H 23.3166 -5.9718 0.55996 0
M  V30 272 H 24.9956 -6.3959 0.976421 0
M  V30 273 N 25.1277 -0.289203 -1.54924 0
M  V30 274 C 26.0907 0.579144 -2.21762 0
M  V30 275 C 27.0907 1.07047 -1.1999 0
M  V30 276 O 28.2807 0.968384 -1.44803 0
M  V30 277 C 25.4127 1.80055 -2.8947 0
M  V30 278 H 26.6057 -0.00464908 -2.999 0
M  V30 279 H 24.1587 -0.0399306 -1.56249 0
M  V30 280 H 24.8937 2.42449 -2.15381 0
M  V30 281 H 24.6787 1.45602 -3.64064 0
M  V30 282 H 26.1687 2.41773 -3.40493 0
M  V30 283 N 26.6058 1.57591 -0.0167156 0
M  V30 284 C 27.8358 1.95292 0.674149 0
M  V30 285 C 28.2438 0.891097 1.66901 0
M  V30 286 O 27.5868 -0.136908 1.83189 0
M  V30 287 C 27.6488 3.29072 1.44747 0
M  V30 288 C 27.3128 4.52879 0.612331 0
M  V30 289 C 28.3098 5.1979 -0.107126 0
M  V30 290 C 25.9948 4.99242 0.553381 0
M  V30 291 C 27.9888 6.31375 -0.874339 0
M  V30 292 C 25.6758 6.10713 -0.217546 0
M  V30 293 C 26.6738 6.76637 -0.930123 0
M  V30 294 O 26.3618 7.85969 -1.68844 0
M  V30 295 H 26.0938 0.648275 0.191615 0
M  V30 296 H 28.6478 2.05284 -0.0690148 0
M  V30 297 H 26.8778 3.15535 2.2355 0
M  V30 298 H 28.5668 3.51764 2.02526 0
M  V30 299 H 29.3328 4.84948 -0.0708392 0
M  V30 300 H 25.2118 4.47744 1.09757 0
M  V30 301 H 28.7558 6.82764 -1.43106 0
M  V30 302 H 24.6528 6.44994 -0.255593 0
M  V30 303 H 25.4208 8.02571 -1.6069 0
M  V30 304 N 28.0839 -0.256276 1.55502 0
M  V30 305 C 29.3299 -0.987079 1.77157 0
M  V30 306 C 29.6629 -1.85327 0.580315 0
M  V30 307 O 28.9379 -1.89874 -0.421686 0
M  V30 308 C 29.2209 -1.85553 3.08613 0
M  V30 309 C 29.0739 -1.01816 4.38125 0
M  V30 310 C 30.3929 -2.8397 3.36228 0
M  V30 311 H 27.5119 -0.357428 0.644526 0
M  V30 312 H 30.1539 -0.258239 1.88237 0
M  V30 313 H 28.3039 -2.47695 2.99298 0
M  V30 314 H 29.9759 -0.416159 4.59419 0
M  V30 315 H 28.2189 -0.322178 4.32602 0
M  V30 316 H 28.8899 -1.65939 5.26468 0
M  V30 317 H 31.3659 -2.31964 3.45445 0
M  V30 318 H 30.2419 -3.41864 4.29442 0
M  V30 319 H 30.5029 -3.59955 2.56681 0
M  V30 320 N 29.562 -1.4872 -0.521534 0
M  V30 321 C 30.494 -1.59968 -1.64143 0
M  V30 322 C 31.507 -0.483463 -1.55456 0
M  V30 323 O 32.696 -0.75467 -1.61762 0
M  V30 324 C 29.796 -1.52127 -3.02838 0
M  V30 325 C 28.969 -2.78932 -3.36921 0
M  V30 326 C 28.028 -2.64428 -4.54933 0
M  V30 327 O 27.054 -3.38331 -4.57735 0
M  V30 328 N 28.256 -1.74606 -5.53618 0
M  V30 329 H 31.021 -2.56548 -1.54929 0
M  V30 330 H 28.582 -1.45551 -0.708988 0
M  V30 331 H 30.574 -1.40106 -3.79674 0
M  V30 332 H 29.144 -0.634868 -3.06085 0
M  V30 333 H 28.364 -3.05455 -2.4918 0
M  V30 334 H 29.652 -3.63041 -3.56481 0
M  V30 335 H 29.05 -1.13782 -5.54139 0
M  V30 336 H 27.607 -1.6852 -6.29638 0
M  V30 337 N 31.0401 0.771051 -1.3745 0
M  V30 338 C 32.3171 1.519 -1.23231 0
M  V30 339 C 32.6971 2.10383 0.173809 0
M  V30 340 O 32.0451 1.95583 1.18151 0
M  V30 341 C 32.2551 2.59933 -2.32886 0
M  V30 342 C 33.6031 3.27316 -2.70461 0
M  V30 343 O 34.6271 2.70228 -2.32068 0
M  V30 344 O 33.4861 4.30531 -3.36608 0
M  V30 345 H 30.5801 0.672803 -0.480901 0
M  V30 346 H 33.1261 0.807957 -1.49232 0
M  V30 347 H 31.8981 2.14842 -3.27045 0
M  V30 348 H 31.5211 3.38637 -2.08353 0
M  V30 349 N 32.5182 1.22032 0.997298 0
M  V30 350 C 33.7662 1.04016 1.73278 0
M  V30 351 C 34.0872 -0.426255 1.90284 0
M  V30 352 O 33.3572 -1.30694 1.45931 0
M  V30 353 H 31.9372 0.381897 0.642 0
M  V30 354 H 34.5992 1.5347 1.20137 0
M  V30 355 H 33.6952 1.51441 2.72896 0
M  V30 356 N 33.9963 -1.19345 1.0293 0
M  V30 357 C 34.9293 -2.21347 0.555029 0
M  V30 358 C 35.9073 -1.57492 -0.404351 0
M  V30 359 O 37.0913 -1.85741 -0.321352 0
M  V30 360 C 34.2183 -3.38163 -0.19064 0
M  V30 361 C 33.2643 -4.20375 0.720236 0
M  V30 362 S 34.0973 -4.88371 2.19668 0
M  V30 363 C 35.2533 -6.08597 1.46153 0
M  V30 364 H 35.4863 -2.61235 1.41929 0
M  V30 365 H 33.0193 -1.29598 0.839272 0
M  V30 366 H 34.9773 -4.05871 -0.614724 0
M  V30 367 H 33.6383 -2.9671 -1.03063 0
M  V30 368 H 32.8313 -5.03793 0.14455 0
M  V30 369 H 32.4333 -3.57987 1.08266 0
M  V30 370 H 34.7253 -6.73354 0.748357 0
M  V30 371 H 35.6683 -6.7065 2.27233 0
M  V30 372 H 36.0763 -5.56297 0.958842 0
M  V30 373 N 35.4744 -0.807222 -1.35358 0
M  V30 374 C 36.7204 -0.388463 -1.99045 0
M  V30 375 C 37.0534 1.04184 -1.63888 0
M  V30 376 O 36.3284 1.72292 -0.902535 0
M  V30 377 C 36.6114 -0.572783 -3.55515 0
M  V30 378 C 36.4644 -2.04807 -4.00468 0
M  V30 379 C 37.7834 0.00114064 -4.401 0
M  V30 380 H 34.9024 -0.142619 -0.723069 0
M  V30 381 H 37.5444 -1.01687 -1.60498 0
M  V30 382 H 35.6944 -0.0378425 -3.88482 0
M  V30 383 H 37.3664 -2.64544 -3.77908 0
M  V30 384 H 35.6094 -2.54427 -3.51353 0
M  V30 385 H 36.2804 -2.12792 -5.09337 0
M  V30 386 H 38.7564 -0.455716 -4.13597 0
M  V30 387 H 37.6324 -0.157737 -5.48673 0
M  V30 388 H 37.8934 1.09488 -4.28328 0
M  V30 389 N 36.9525 1.47285 -0.560781 0
M  V30 390 C 38.1985 2.02764 -0.0381184 0
M  V30 391 C 38.5315 1.43384 1.30976 0
M  V30 392 O 37.8065 0.590733 1.85312 0
M  V30 393 C 38.0895 3.60064 0.0511427 0
M  V30 394 C 37.9425 4.2987 -1.32408 0
M  V30 395 C 39.2615 4.33439 0.762795 0
M  V30 396 H 36.3805 0.736841 -0.0153264 0
M  V30 397 H 39.0225 1.75675 -0.723759 0
M  V30 398 H 37.1725 3.83274 0.635065 0
M  V30 399 H 38.8445 4.17989 -1.95148 0
M  V30 400 H 37.0875 3.90085 -1.8978 0
M  V30 401 H 37.7585 5.38478 -1.21431 0
M  V30 402 H 40.2345 4.15243 0.266965 0
M  V30 403 H 39.1105 5.43124 0.794221 0
M  V30 404 H 39.3715 4.02915 1.81966 0
M  V30 405 N 38.4306 0.297415 1.54768 0
M  V30 406 C 39.6786 -0.312295 1.99673 0
M  V30 407 C 39.9996 -1.54686 1.18732 0
M  V30 408 O 39.2696 -1.93854 0.282382 0
M  V30 409 H 37.8496 -0.118381 0.73756 0
M  V30 410 H 40.5116 0.407915 1.90583 0
M  V30 411 H 39.6076 -0.586813 3.06534 0
M  V30 412 N 39.9087 -1.5758 0.0250728 0
M  V30 413 C 40.8387 -2.13007 -0.956575 0
M  V30 414 C 41.8197 -1.0452 -1.342 0
M  V30 415 O 43.0047 -1.32332 -1.42133 0
M  V30 416 C 40.1347 -2.65386 -2.24026 0
M  V30 417 C 39.0887 -3.78623 -1.99571 0
M  V30 418 C 38.4147 -4.17414 -3.3417 0
M  V30 419 C 39.7147 -5.04867 -1.33814 0
M  V30 420 H 41.4087 -2.9528 -0.494991 0
M  V30 421 H 38.9547 -1.42042 -0.236651 0
M  V30 422 H 40.9077 -3.02794 -2.93076 0
M  V30 423 H 39.6317 -1.80268 -2.72343 0
M  V30 424 H 38.2907 -3.41646 -1.32941 0
M  V30 425 H 37.9387 -3.29284 -3.80238 0
M  V30 426 H 37.6387 -4.93719 -3.18615 0
M  V30 427 H 39.1627 -4.57402 -4.04495 0
M  V30 428 H 40.5767 -5.39888 -1.92857 0
M  V30 429 H 38.9737 -5.86144 -1.28669 0
M  V30 430 H 40.0437 -4.83904 -0.310561 0
M  V30 431 N 41.3868 0.248026 -1.55636 0
M  V30 432 C 42.6348 0.974295 -1.77065 0
M  V30 433 C 42.9558 1.85897 -0.588849 0
M  V30 434 O 42.2258 1.91868 0.395407 0
M  V30 435 H 40.8058 0.362733 -0.653019 0
M  V30 436 H 43.4678 0.266244 -1.93073 0
M  V30 437 H 42.5638 1.59667 -2.68166 0
M  V30 438 N 42.8649 1.48995 0.513639 0
M  V30 439 C 44.0929 1.61531 1.29288 0
M  V30 440 C 44.5079 0.281801 1.86685 0
M  V30 441 O 43.8649 -0.731111 1.67215 0
M  V30 442 C 43.9159 2.67449 2.43215 0
M  V30 443 O 43.6369 3.95626 1.88179 0
M  V30 444 C 45.1379 2.90575 3.34785 0
M  V30 445 H 42.3579 0.544165 0.392588 0
M  V30 446 H 44.9019 1.9494 0.617956 0
M  V30 447 H 43.0569 2.36853 3.0656 0
M  V30 448 H 43.4709 4.53868 2.62876 0
M  V30 449 H 44.9449 3.68449 4.11035 0
M  V30 450 H 45.4219 2.00011 3.91015 0
M  V30 451 H 46.0279 3.22538 2.77218 0
M  V30 452 N 44.343 -0.763751 1.37857 0
M  V30 453 C 45.591 -1.51957 1.33243 0
M  V30 454 C 45.912 -1.94835 -0.0801709 0
M  V30 455 O 45.182 -1.66894 -1.02582 0
M  V30 456 H 43.762 -0.563626 0.49024 0
M  V30 457 H 46.424 -0.908504 1.7243 0
M  V30 458 H 45.52 -2.41523 1.97669 0
M  V30 459 N 45.8211 -1.22559 -0.990812 0
M  V30 460 C 47.0461 -1.07862 -1.77145 0
M  V30 461 C 47.4711 0.366447 -1.84496 0
M  V30 462 O 46.8291 1.26478 -1.29896 0
M  V30 463 C 46.8771 -1.69686 -3.18181 0
M  V30 464 O 45.9811 -0.951946 -4.01263 0
M  V30 465 H 45.3221 -0.378712 -0.545411 0
M  V30 466 H 47.8521 -1.62399 -1.2445 0
M  V30 467 H 47.8621 -1.74496 -3.68802 0
M  V30 468 H 46.5371 -2.74841 -3.12146 0
M  V30 469 H 45.1141 -0.980011 -3.59792 0
M  V30 470 N 47.2992 1.18797 -1.03562 0
M  V30 471 C 48.5272 1.92599 -0.755869 0
M  V30 472 C 48.9422 1.75886 0.686271 0
M  V30 473 O 48.2992 1.08517 1.46732 0
M  V30 474 C 48.3502 3.44159 -1.10619 0
M  V30 475 O 48.0712 3.60341 -2.4917 0
M  V30 476 C 49.5722 4.3507 -0.850214 0
M  V30 477 H 46.7922 0.611587 -0.276048 0
M  V30 478 H 49.3362 1.50742 -1.38192 0
M  V30 479 H 47.4912 3.83823 -0.525194 0
M  V30 480 H 47.9052 4.54128 -2.62427 0
M  V30 481 H 49.3792 5.39989 -1.14523 0
M  V30 482 H 49.8562 4.38673 0.215176 0
M  V30 483 H 50.4622 4.01097 -1.41426 0
M  V30 484 N 48.7773 0.814389 1.34928 0
M  V30 485 C 49.7403 0.235759 2.27984 0
M  V30 486 C 50.7403 -0.581412 1.49921 0
M  V30 487 O 51.9303 -0.398758 1.69575 0
M  V30 488 C 49.0623 -0.670433 3.34242 0
M  V30 489 H 50.2553 1.05659 2.80671 0
M  V30 490 H 47.8083 0.585614 1.44915 0
M  V30 491 H 48.5433 -1.51466 2.86755 0
M  V30 492 H 48.3283 -0.0860822 3.92005 0
M  V30 493 H 49.8183 -1.06935 4.03676 0
M  V30 494 N 50.2554 -1.46986 0.568584 0
M  V30 495 C 51.6714 -1.57946 0.229189 0
M  V30 496 C 51.8714 -1.56567 -1.26843 0
M  V30 497 O 50.9274 -1.47511 -2.04931 0
M  V30 498 C 52.2404 -2.87963 0.865909 0
M  V30 499 C 53.7884 -3.01568 0.838188 0
M  V30 500 C 54.2634 -4.34301 1.45419 0
M  V30 501 N 55.7544 -4.40965 1.41788 0
M  V30 502 C 56.4894 -5.42256 1.86403 0
M  V30 503 N 55.9854 -6.50297 2.38926 0
M  V30 504 N 57.7784 -5.3337 1.77405 0
M  V30 505 H 49.9294 -1.46126 1.54146 0
M  V30 506 H 52.1924 -0.696156 0.643484 0
M  V30 507 H 51.8984 -2.94742 1.91886 0
M  V30 508 H 51.7724 -3.75423 0.365687 0
M  V30 509 H 54.1594 -2.94379 -0.206106 0
M  V30 510 H 54.2404 -2.1562 1.37629 0
M  V30 511 H 53.8844 -4.42247 2.49761 0
M  V30 512 H 53.8144 -5.19 0.891435 0
M  V30 513 H 56.3054 -3.63484 1.03381 0
M  V30 514 H 56.6184 -7.23777 2.70863 0
M  V30 515 H 54.9634 -6.51155 2.42944 0
M  V30 516 H 58.1544 -4.47865 1.3614 0
M  V30 517 H 58.3274 -6.12169 2.12492 0
M  V30 518 N 51.7335 -0.305618 -1.54608 0
M  V30 519 C 52.9635 0.304333 -2.04346 0
M  V30 520 C 53.3715 1.47715 -1.18224 0
M  V30 521 O 52.7145 1.82591 -0.201577 0
M  V30 522 C 52.7765 0.819031 -3.50046 0
M  V30 523 C 52.4405 -0.22912 -4.56425 0
M  V30 524 C 53.4375 -1.05914 -5.08997 0
M  V30 525 C 51.1225 -0.372148 -5.0092 0
M  V30 526 C 53.1165 -2.01809 -6.04609 0
M  V30 527 C 50.8035 -1.33454 -5.9635 0
M  V30 528 C 51.8015 -2.15599 -6.48079 0
M  V30 529 O 51.4895 -3.10205 -7.41639 0
M  V30 530 H 51.2215 0.0693996 -0.672428 0
M  V30 531 H 53.7755 -0.444548 -2.00532 0
M  V30 532 H 52.0055 1.61852 -3.51199 0
M  V30 533 H 53.6945 1.34537 -3.82955 0
M  V30 534 H 54.4605 -0.959538 -4.75413 0
M  V30 535 H 50.3395 0.257304 -4.60281 0
M  V30 536 H 53.8835 -2.65966 -6.44909 0
M  V30 537 H 49.7805 -1.43485 -6.29351 0
M  V30 538 H 50.5485 -3.05237 -7.59455 0
M  V30 539 N 53.2116 1.57565 -0.0334293 0
M  V30 540 C 54.1746 2.09393 0.932048 0
M  V30 541 C 55.1746 1.00986 1.25134 0
M  V30 542 O 56.3646 1.27129 1.19096 0
M  V30 543 C 53.4966 2.56338 2.2473 0
M  V30 544 H 54.6896 2.95984 0.483085 0
M  V30 545 H 52.2426 1.54819 0.21468 0
M  V30 546 H 52.9776 1.7309 2.74245 0
M  V30 547 H 52.7626 3.35542 2.02865 0
M  V30 548 H 54.2526 2.96646 2.93923 0
M  V30 549 N 54.6897 -0.239769 1.55765 0
M  V30 550 C 55.9357 -0.968234 1.78194 0
M  V30 551 C 56.2687 -1.84701 0.599938 0
M  V30 552 O 55.5437 -1.9031 -0.401524 0
M  V30 553 C 55.8267 -1.8227 3.10564 0
M  V30 554 C 55.6797 -0.971633 4.3918 0
M  V30 555 C 56.9987 -2.80388 3.39221 0
M  V30 556 H 54.1177 -0.350572 0.648281 0
M  V30 557 H 56.7597 -0.238259 1.885 0
M  V30 558 H 54.9097 -2.44507 3.01908 0
M  V30 559 H 56.5817 -0.367408 4.59835 0
M  V30 560 H 54.8247 -0.276276 4.32919 0
M  V30 561 H 55.4957 -1.60346 5.28198 0
M  V30 562 H 57.9717 -2.28287 3.47885 0
M  V30 563 H 56.8477 -3.3729 4.33044 0
M  V30 564 H 57.1087 -3.57212 2.60484 0
M  V30 565 N 56.1678 -1.49265 -0.50573 0
M  V30 566 C 57.0978 -1.68495 -1.61653 0
M  V30 567 C 58.0788 -0.53366 -1.61512 0
M  V30 568 O 59.2638 -0.76897 -1.78327 0
M  V30 569 C 56.3938 -1.74709 -3.00157 0
M  V30 570 C 55.3478 -2.89581 -3.15162 0
M  V30 571 C 54.6738 -2.80903 -4.5497 0
M  V30 572 C 55.9738 -4.30578 -2.95634 0
M  V30 573 H 57.6678 -2.61493 -1.45814 0
M  V30 574 H 55.2138 -1.25838 -0.70005 0
M  V30 575 H 57.1668 -1.86748 -3.77761 0
M  V30 576 H 55.8908 -0.783067 -3.17074 0
M  V30 577 H 54.5498 -2.77136 -2.39982 0
M  V30 578 H 54.1978 -1.82419 -4.68756 0
M  V30 579 H 53.8978 -3.57999 -4.65951 0
M  V30 580 H 55.4218 -2.94944 -5.34641 0
M  V30 581 H 56.8358 -4.4373 -3.63011 0
M  V30 582 H 55.2328 -5.0886 -3.18091 0
M  V30 583 H 56.3028 -4.45352 -1.91806 0
M  V30 584 N 57.6459 0.756429 -1.3826 0
M  V30 585 C 58.5559 1.9009 -1.37488 0
M  V30 586 C 59.5719 1.71855 -0.272366 0
M  V30 587 O 60.7479 1.94827 -0.510318 0
M  V30 588 C 57.8129 3.25421 -1.19592 0
M  V30 589 C 56.8739 3.56202 -2.39622 0
M  V30 590 C 56.1069 4.85075 -2.2257 0
M  V30 591 O 56.3299 5.57246 -1.21793 0
M  V30 592 O 55.2639 5.15269 -3.11098 0
M  V30 593 H 59.0899 1.93695 -2.33914 0
M  V30 594 H 56.6749 0.901313 -1.1915 0
M  V30 595 H 58.5569 4.06337 -1.11661 0
M  V30 596 H 57.2319 3.22634 -0.262486 0
M  V30 597 H 56.1389 2.75458 -2.53128 0
M  V30 598 H 57.4719 3.63747 -3.31586 0
M  V30 599 N 59.124 1.23083 0.984299 0
M  V30 600 C 60.054 1.03292 2.09411 0
M  V30 601 C 61.035 -0.048923 1.7003 0
M  V30 602 O 62.22 0.114967 1.93859 0
M  V30 603 C 59.35 0.619155 3.41736 0
M  V30 604 C 58.304 1.64791 3.95004 0
M  V30 605 C 57.63 1.0897 5.23478 0
M  V30 606 C 58.93 3.03999 4.24714 0
M  V30 607 H 60.624 1.96119 2.26225 0
M  V30 608 H 58.17 0.944344 1.08711 0
M  V30 609 H 60.123 0.467777 4.18796 0
M  V30 610 H 58.847 -0.344786 3.24775 0
M  V30 611 H 57.506 1.78721 3.20085 0
M  V30 612 H 57.154 0.11686 5.02864 0
M  V30 613 H 56.854 1.77704 5.60085 0
M  V30 614 H 58.378 0.950093 6.03163 0
M  V30 615 H 59.792 2.93393 4.92538 0
M  V30 616 H 58.189 3.69936 4.72512 0
M  V30 617 H 59.259 3.53285 3.32142 0
M  V30 618 N 60.6021 -1.18246 1.0419 0
M  V30 619 C 61.5651 -2.20128 0.638452 0
M  V30 620 C 62.5651 -1.57885 -0.304805 0
M  V30 621 O 63.7551 -1.73967 -0.0900369 0
M  V30 622 C 60.8871 -3.4084 -0.0637751 0
M  V30 623 H 62.0801 -2.57336 1.54007 0
M  V30 624 H 59.6331 -1.32152 0.834598 0
M  V30 625 H 60.3681 -3.09166 -0.979136 0
M  V30 626 H 60.1531 -3.8726 0.614198 0
M  V30 627 H 61.6431 -4.16274 -0.332512 0
M  V30 628 N 62.0802 -0.821533 -1.34494 0
M  V30 629 C 63.4962 -0.507117 -1.51329 0
M  V30 630 C 63.6962 0.968964 -1.76673 0
M  V30 631 O 62.7522 1.75348 -1.81685 0
M  V30 632 C 64.0652 -1.36544 -2.67911 0
M  V30 633 C 65.6132 -1.36242 -2.81793 0
M  V30 634 C 66.0882 -2.2052 -4.01416 0
M  V30 635 N 67.5792 -2.18136 -4.08621 0
M  V30 636 C 68.3142 -2.80095 -5.00334 0
M  V30 637 N 67.8102 -3.51039 -5.9728 0
M  V30 638 N 69.6032 -2.69656 -4.93196 0
M  V30 639 H 61.7542 -1.77729 -1.16302 0
M  V30 640 H 64.0172 -0.757291 -0.570276 0
M  V30 641 H 63.7232 -2.41361 -2.55808 0
M  V30 642 H 63.5972 -1.02917 -3.62888 0
M  V30 643 H 65.9842 -0.322041 -2.93338 0
M  V30 644 H 66.0652 -1.73866 -1.87628 0
M  V30 645 H 65.7092 -3.24607 -3.90631 0
M  V30 646 H 65.6392 -1.80247 -4.94791 0
M  V30 647 H 68.1302 -1.6653 -3.39229 0
M  V30 648 H 68.4432 -3.95565 -6.63889 0
M  V30 649 H 66.7882 -3.55145 -5.97409 0
M  V30 650 H 69.9792 -2.13808 -4.16418 0
M  V30 651 H 70.1522 -3.1823 -5.64476 0
M  V30 652 N 63.5583 1.46682 -0.576371 0
M  V30 653 C 64.9743 1.57822 -0.237562 0
M  V30 654 C 65.1743 1.57237 1.26011 0
M  V30 655 O 64.2303 1.48596 2.04146 0
M  V30 656 C 65.5433 2.87499 -0.881168 0
M  V30 657 C 67.0913 3.01119 -0.85417 0
M  V30 658 C 67.5663 4.33524 -1.4772 0
M  V30 659 N 69.0573 4.40207 -1.44125 0
M  V30 660 C 69.7923 5.4126 -1.89276 0
M  V30 661 N 69.2883 6.49021 -2.42371 0
M  V30 662 N 71.0813 5.32422 -1.80231 0
M  V30 663 H 63.2323 1.45306 -1.54919 0
M  V30 664 H 65.4953 0.692733 -0.647167 0
M  V30 665 H 65.2013 2.9372 -1.93447 0
M  V30 666 H 65.0753 3.75224 -0.385592 0
M  V30 667 H 67.4623 2.94485 0.190491 0
M  V30 668 H 67.5433 2.14887 -1.3877 0
M  V30 669 H 67.1873 4.40916 -2.52103 0
M  V30 670 H 67.1173 5.1852 -0.918947 0
M  V30 671 H 69.6083 3.62931 -1.05307 0
M  V30 672 H 69.9213 7.2233 -2.74698 0
M  V30 673 H 68.2663 6.49858 -2.46393 0
M  V30 674 H 71.4573 4.47137 -1.38514 0
M  V30 675 H 71.6303 6.11034 -2.15735 0
M  V30 676 N 65.0364 0.313813 1.54444 0
M  V30 677 C 65.9664 -0.549454 2.26943 0
M  V30 678 C 66.9474 -1.12741 1.27372 0
M  V30 679 O 68.1324 -1.15436 1.56167 0
M  V30 680 C 65.2624 -1.71523 3.01989 0
M  V30 681 C 64.2164 -1.26703 4.08816 0
M  V30 682 C 63.5424 -2.51898 4.71647 0
M  V30 683 C 64.8424 -0.388962 5.2085 0
M  V30 684 H 66.5364 0.0552661 2.99349 0
M  V30 685 H 64.0824 0.0280207 1.43973 0
M  V30 686 H 66.0354 -2.32535 3.51433 0
M  V30 687 H 64.7594 -2.34639 2.27183 0
M  V30 688 H 63.4184 -0.679896 3.6024 0
M  V30 689 H 63.0664 -3.13356 3.93468 0
M  V30 690 H 62.7664 -2.22605 5.43802 0
M  V30 691 H 64.2904 -3.1369 5.23861 0
M  V30 692 H 65.7044 -0.905107 5.6611 0
M  V30 693 H 64.1014 -0.18924 5.99802 0
M  V30 694 H 65.1714 0.582699 4.81386 0
M  V30 695 N 66.5145 -1.57545 0.0417849 0
M  V30 696 C 67.9305 -1.56467 -0.314704 0
M  V30 697 C 68.1305 -1.04859 -1.72066 0
M  V30 698 O 67.1865 -0.700983 -2.42575 0
M  V30 699 C 68.4995 -3.00317 -0.15174 0
M  V30 700 C 70.0475 -3.12201 -0.223553 0
M  V30 701 C 70.5225 -4.57913 -0.0892295 0
M  V30 702 N 72.0135 -4.6297 -0.145808 0
M  V30 703 C 72.7485 -5.73362 -0.0658459 0
M  V30 704 N 72.2445 -6.92769 0.0659282 0
M  V30 705 N 74.0375 -5.6197 -0.12075 0
M  V30 706 H 66.1885 -1.89416 0.961014 0
M  V30 707 H 68.4515 -0.871862 0.372237 0
M  V30 708 H 68.1575 -3.42073 0.817254 0
M  V30 709 H 68.0315 -3.65892 -0.916692 0
M  V30 710 H 70.4185 -2.70349 -1.18301 0
M  V30 711 H 70.4995 -2.49323 0.571994 0
M  V30 712 H 70.1435 -5.00448 0.866867 0
M  V30 713 H 70.0735 -5.18786 -0.903802 0
M  V30 714 H 72.5645 -3.7709 -0.247286 0
M  V30 715 H 72.8775 -7.72707 0.119905 0
M  V30 716 H 71.2225 -6.94927 0.100885 0
M  V30 717 H 74.4135 -4.67572 -0.222187 0
M  V30 718 H 74.5865 -6.47977 -0.0549735 0
M  V30 719 N 67.9926 0.231505 -1.5589 0
M  V30 720 C 68.9026 1.308 -1.94752 0
M  V30 721 C 69.9186 1.51826 -0.849989 0
M  V30 722 O 71.0946 1.6515 -1.15271 0
M  V30 723 C 68.1596 2.63968 -2.24771 0
M  V30 724 C 67.2206 2.51331 -3.48039 0
M  V30 725 C 66.4536 3.78148 -3.76616 0
M  V30 726 O 66.6766 4.80722 -3.07022 0
M  V30 727 O 65.6106 3.75857 -4.70123 0
M  V30 728 H 69.4366 1.0083 -2.86474 0
M  V30 729 H 67.0216 0.433547 -1.42971 0
M  V30 730 H 68.9036 3.42633 -2.45318 0
M  V30 731 H 67.5786 2.9364 -1.36225 0
M  V30 732 H 66.4856 1.709 -3.32782 0
M  V30 733 H 67.8186 2.26601 -4.36936 0
M  V30 734 N 69.4707 1.49531 0.497807 0
M  V30 735 C 70.7187 1.58865 1.24926 0
M  V30 736 C 71.0397 0.278721 1.92998 0
M  V30 737 O 70.3097 -0.702144 1.82885 0
M  V30 738 H 68.8897 0.585343 0.464094 0
M  V30 739 H 71.5517 1.86174 0.57666 0
M  V30 740 H 70.6477 2.38633 2.01149 0
M  V30 741 N 70.9488 -0.749086 1.3866 0
M  V30 742 C 71.8588 -1.89358 1.38494 0
M  V30 743 C 72.8748 -1.71708 0.281476 0
M  V30 744 O 74.0508 -1.94554 0.520643 0
M  V30 745 C 71.1158 -3.24782 1.21316 0
M  V30 746 C 70.1768 -3.54926 2.41508 0
M  V30 747 C 69.4098 -4.83888 2.2514 0
M  V30 748 O 69.6328 -5.56592 1.24746 0
M  V30 749 O 68.5668 -5.13612 3.13826 0
M  V30 750 H 72.3928 -1.92452 2.34938 0
M  V30 751 H 69.9778 -0.894981 1.19626 0
M  V30 752 H 71.8598 -4.05739 1.13814 0
M  V30 753 H 70.5348 -3.2249 0.279592 0
M  V30 754 H 69.4418 -2.74112 2.54585 0
M  V30 755 H 70.7748 -3.61983 3.3351 0
M  V30 756 N 72.4269 -1.23603 -0.977757 0
M  V30 757 C 73.3569 -1.04401 -2.0886 0
M  V30 758 C 74.3379 0.0399052 -1.70053 0
M  V30 759 O 75.5229 -0.125246 -1.93796 0
M  V30 760 C 72.6529 -0.637269 -3.41403 0
M  V30 761 C 71.6069 -1.66883 -3.94124 0
M  V30 762 C 70.9329 -1.11745 -5.22893 0
M  V30 763 C 72.2329 -3.06247 -4.23096 0
M  V30 764 H 73.9269 -1.97316 -2.25182 0
M  V30 765 H 71.4729 -0.950096 -1.08209 0
M  V30 766 H 73.4259 -0.48998 -4.18542 0
M  V30 767 H 72.1499 0.327557 -3.24953 0
M  V30 768 H 70.8089 -1.80416 -3.19133 0
M  V30 769 H 70.4569 -0.143527 -5.02795 0
M  V30 770 H 70.1569 -1.80672 -5.59134 0
M  V30 771 H 71.6809 -0.982067 -6.02651 0
M  V30 772 H 73.0949 -2.96001 -4.90975 0
M  V30 773 H 71.4919 -3.72436 -4.70544 0
M  V30 774 H 72.5619 -3.55041 -3.30263 0
M  V30 775 N 73.905 1.17692 -1.04816 0
M  V30 776 C 74.852 2.21581 -0.645797 0
M  V30 777 C 75.822 1.62367 0.350159 0
M  V30 778 O 77.007 1.89254 0.242433 0
M  V30 779 C 74.147 3.45092 -0.0227568 0
M  V30 780 C 73.26 4.18613 -1.06709 0
M  V30 781 C 72.395 5.29602 -0.411767 0
M  V30 782 C 71.434 5.94904 -1.44067 0
M  V30 783 N 70.571 6.97414 -0.809781 0
M  V30 784 H 75.411 2.55353 -1.5362 0
M  V30 785 H 72.948 1.25438 -0.768364 0
M  V30 786 H 74.906 4.15679 0.35588 0
M  V30 787 H 73.536 3.11917 0.831122 0
M  V30 788 H 72.588 3.46779 -1.5636 0
M  V30 789 H 73.9 4.63293 -1.84827 0
M  V30 790 H 73.054 6.06696 0.0206623 0
M  V30 791 H 71.793 4.86045 0.401438 0
M  V30 792 H 70.798 5.16544 -1.88316 0
M  V30 793 H 72.023 6.40542 -2.25571 0
M  V30 794 H 69.969 6.55998 -0.0170186 0
M  V30 795 H 69.886 7.40386 -1.52856 0
M  V30 796 H 71.154 7.78463 -0.401999 0
M  V30 797 N 75.3831 0.828654 1.34056 0
M  V30 798 C 76.6311 0.41863 1.97717 0
M  V30 799 C 76.9521 -1.02314 1.66002 0
M  V30 800 O 76.2221 -1.71119 0.953683 0
M  V30 801 H 74.8021 0.151809 0.731412 0
M  V30 802 H 77.4641 1.05936 1.63596 0
M  V30 803 H 76.5601 0.542318 3.07352 0
M  V30 804 N 76.8612 -1.46375 0.584142 0
M  V30 805 C 78.1072 -2.02678 0.0703716 0
M  V30 806 C 78.4402 -1.4545 -1.28678 0
M  V30 807 O 77.7152 -0.62014 -1.84349 0
M  V30 808 C 77.9982 -3.60099 0.00614674 0
M  V30 809 C 77.8512 -4.27709 1.3923 0
M  V30 810 C 79.1702 -4.34598 -0.693742 0
M  V30 811 H 76.2892 -0.736504 0.027047 0
M  V30 812 H 78.9312 -1.74501 0.751615 0
M  V30 813 H 77.0812 -3.84236 -0.574009 0
M  V30 814 H 78.7532 -4.14832 2.01773 0
M  V30 815 H 76.9962 -3.87016 1.95962 0
M  V30 816 H 77.6672 -5.36478 1.29982 0
M  V30 817 H 80.1432 -4.15615 -0.200869 0
M  V30 818 H 79.0192 -5.44318 -0.707714 0
M  V30 819 H 79.2802 -4.05759 -1.75533 0
M  V30 820 N 78.3393 -0.321999 -1.54275 0
M  V30 821 C 79.5853 0.281461 -2.00837 0
M  V30 822 C 79.9183 1.51909 -1.20985 0
M  V30 823 O 79.1933 1.923 -0.291733 0
M  V30 824 C 79.4763 0.617162 -3.54772 0
M  V30 825 C 79.3293 -0.631064 -4.45351 0
M  V30 826 C 80.6483 1.43542 -4.16033 0
M  V30 827 H 77.7673 0.100826 -0.730071 0
M  V30 828 H 80.4093 -0.438268 -1.84876 0
M  V30 829 H 78.5593 1.23034 -3.68504 0
M  V30 830 H 80.2313 -1.26934 -4.43492 0
M  V30 831 H 78.4743 -1.26025 -4.15091 0
M  V30 832 H 79.1453 -0.351735 -5.50878 0
M  V30 833 H 81.6213 0.917134 -4.05867 0
M  V30 834 H 80.4973 1.63907 -5.23856 0
M  V30 835 H 80.7583 2.43108 -3.69257 0
M  V30 836 N 79.8174 1.5752 -0.0501392 0
M  V30 837 C 81.0654 1.9227 0.622642 0
M  V30 838 C 81.3864 0.929083 1.71444 0
M  V30 839 O 80.6564 -0.0262186 1.95882 0
M  V30 840 H 79.2364 0.709739 0.232981 0
M  V30 841 H 81.8984 1.94628 -0.102898 0
M  V30 842 H 80.9944 2.93479 1.06191 0
M  V30 843 N 81.2955 -0.223234 1.56011 0
M  V30 844 C 82.5415 -0.949279 1.79211 0
M  V30 845 C 82.8745 -1.84054 0.619494 0
M  V30 846 O 82.1495 -1.90726 -0.381317 0
M  V30 847 C 82.4325 -1.78965 3.12479 0
M  V30 848 C 82.2855 -0.924997 4.40186 0
M  V30 849 C 83.6045 -2.76774 3.42175 0
M  V30 850 H 80.7235 -0.343676 0.651963 0
M  V30 851 H 83.3655 -0.218253 1.88742 0
M  V30 852 H 81.5155 -2.41291 3.04485 0
M  V30 853 H 83.1875 -0.318615 4.60198 0
M  V30 854 H 81.4305 -0.230344 4.33188 0
M  V30 855 H 82.1015 -1.54735 5.29869 0
M  V30 856 H 84.5775 -2.24584 3.50287 0
M  V30 857 H 83.4535 -3.32678 4.36597 0
M  V30 858 H 83.7145 -3.54429 2.64258 0
M  V30 859 N 82.7736 -1.49793 -0.48987 0
M  V30 860 C 84.1846 -1.52914 -1.07118 0
M  V30 861 C 84.5356 -0.321738 -1.93544 0
M  V30 862 O 83.6606 0.567338 -2.08831 0
M  V30 863 C 84.2556 -2.771 -1.94938 0
M  V30 864 C 82.8146 -2.82963 -2.48212 0
M  V30 865 C 81.9616 -2.46972 -1.26096 0
M  V30 866 H 84.9126 -1.56329 -0.273289 0
M  V30 867 H 84.9336 -2.57892 -2.79771 0
M  V30 868 H 84.4456 -3.64959 -1.32009 0
M  V30 869 H 82.5466 -1.99411 -3.14748 0
M  V30 870 H 82.6596 -3.85406 -2.84603 0
M  V30 871 H 81.0236 -1.98994 -1.58976 0
M  V30 872 H 81.8066 -3.37118 -0.648581 0
M  V30 873 N 84.2517 0.741722 -1.39055 0
M  V30 874 C 85.4797 1.53098 -1.39171 0
M  V30 875 C 85.8947 1.88794 0.0155099 0
M  V30 876 O 85.2517 1.53626 0.985159 0
M  V30 877 C 85.3027 2.82274 -2.2584 0
M  V30 878 O 85.0237 2.48097 -3.61081 0
M  V30 879 C 86.5247 3.76343 -2.34266 0
M  V30 880 H 83.7447 0.473335 -0.4756 0
M  V30 881 H 86.2887 0.917045 -1.82785 0
M  V30 882 H 84.4437 3.40015 -1.85656 0
M  V30 883 H 84.8577 3.31029 -4.06842 0
M  V30 884 H 86.3317 4.63898 -2.9917 0
M  V30 885 H 86.8087 4.17619 -1.35982 0
M  V30 886 H 87.4147 3.24523 -2.74891 0
M  V30 887 N 85.7298 1.2412 0.971189 0
M  V30 888 C 86.9548 1.10667 1.75407 0
M  V30 889 C 87.3798 -0.337048 1.85056 0
M  V30 890 O 86.7378 -1.24396 1.31892 0
M  V30 891 C 86.7858 1.74726 3.15441 0
M  V30 892 O 85.8898 1.01566 3.99697 0
M  V30 893 H 85.2308 0.387341 0.539317 0
M  V30 894 H 87.7608 1.64358 1.2185 0
M  V30 895 H 87.7708 1.80341 3.6598 0
M  V30 896 H 86.4458 2.79773 3.07734 0
M  V30 897 H 85.0228 1.03713 3.58187 0
M  V30 898 N 87.2079 -1.17134 1.05439 0
M  V30 899 C 88.6239 -1.39454 0.776201 0
M  V30 900 C 88.8239 -1.91454 -0.628307 0
M  V30 901 O 87.8799 -2.10777 -1.39031 0
M  V30 902 C 89.1929 -2.38305 1.83388 0
M  V30 903 C 90.7409 -2.52006 1.85639 0
M  V30 904 C 91.2159 -3.54133 2.90437 0
M  V30 905 N 92.7069 -3.61653 2.89415 0
M  V30 906 C 93.4419 -4.4044 3.67152 0
M  V30 907 N 92.9379 -5.22721 4.54681 0
M  V30 908 N 94.7309 -4.35337 3.55581 0
M  V30 909 H 86.8819 -0.817134 1.96053 0
M  V30 910 H 89.1449 -0.421626 0.849079 0
M  V30 911 H 88.8509 -2.07173 2.84204 0
M  V30 912 H 88.7249 -3.37841 1.67761 0
M  V30 913 H 91.1119 -2.82447 0.85486 0
M  V30 914 H 91.1929 -1.52537 2.05344 0
M  V30 915 H 90.8369 -3.24431 3.90777 0
M  V30 916 H 90.7669 -4.53313 2.67983 0
M  V30 917 H 93.2579 -3.02909 2.25952 0
M  V30 918 H 93.5709 -5.80027 5.10674 0
M  V30 919 H 91.9159 -5.22093 4.58741 0
M  V30 920 H 95.1069 -3.70112 2.86592 0
M  V30 921 H 95.2799 -4.96494 4.1641 0
M  V30 922 N 88.686 -0.835752 -1.33615 0
M  V30 923 C 89.649 -0.272 -2.2758 0
M  V30 924 C 90.649 0.557487 -1.50827 0
M  V30 925 O 91.839 0.37173 -1.70188 0
M  V30 926 C 88.971 0.617173 -3.35267 0
M  V30 927 H 90.164 -1.10111 -2.78954 0
M  V30 928 H 87.717 -0.608594 -1.43965 0
M  V30 929 H 88.452 1.46884 -2.89129 0
M  V30 930 H 88.237 0.0237066 -3.92093 0
M  V30 931 H 89.727 1.005 -4.05326 0
M  V30 932 N 90.1641 1.46063 -0.591896 0
M  V30 933 C 91.3921 2.06717 -0.0868936 0
M  V30 934 C 91.8071 1.43916 1.22203 0
M  V30 935 O 91.1641 0.547698 1.74088 0
M  V30 936 C 91.2151 3.6142 0.0758725 0
M  V30 937 O 90.9361 4.21874 -1.18126 0
M  V30 938 C 92.4371 4.39025 0.61416 0
M  V30 939 H 89.6571 0.668162 -0.0616518 0
M  V30 940 H 92.2011 1.8755 -0.815175 0
M  V30 941 H 90.3561 3.79983 0.754413 0
M  V30 942 H 90.7701 5.14861 -1.00092 0
M  V30 943 H 92.2441 5.4783 0.677193 0
M  V30 944 H 92.7211 4.07708 1.63312 0
M  V30 945 H 93.3271 4.2529 -0.0298142 0
M  V30 946 N 91.6422 0.330177 1.54103 0
M  V30 947 C 92.5522 -0.541534 2.28264 0
M  V30 948 C 93.5682 -1.12351 1.32866 0
M  V30 949 O 94.7442 -1.14206 1.65888 0
M  V30 950 C 91.8092 -1.68322 3.03098 0
M  V30 951 C 90.8702 -1.13238 4.14096 0
M  V30 952 C 90.1032 -2.21966 4.85352 0
M  V30 953 O 90.3262 -3.42437 4.56172 0
M  V30 954 O 89.2602 -1.87013 5.7211 0
M  V30 955 H 93.0862 0.060938 3.03639 0
M  V30 956 H 90.6712 0.09565 1.49093 0
M  V30 957 H 92.5532 -2.34777 3.49939 0
M  V30 958 H 91.2282 -2.27176 2.30593 0
M  V30 959 H 90.1352 -0.432736 3.71589 0
M  V30 960 H 91.4682 -0.588898 4.88664 0
M  V30 961 N 93.1203 -1.57491 0.0584922 0
M  V30 962 C 94.0303 -2.15448 -0.928414 0
M  V30 963 C 95.0463 -1.11416 -1.3365 0
M  V30 964 O 96.2223 -1.4362 -1.41193 0
M  V30 965 C 93.2873 -2.69393 -2.18239 0
M  V30 966 C 92.3483 -3.88249 -1.83196 0
M  V30 967 C 91.5813 -4.39613 -3.02616 0
M  V30 968 O 91.8043 -3.90023 -4.16219 0
M  V30 969 O 90.7383 -5.31111 -2.83204 0
M  V30 970 H 94.5643 -3.00112 -0.465483 0
M  V30 971 H 92.1493 -1.48499 -0.163826 0
M  V30 972 H 94.0313 -3.04026 -2.91798 0
M  V30 973 H 92.7063 -1.87796 -2.63656 0
M  V30 974 H 91.6133 -3.58492 -1.06931 0
M  V30 975 H 92.9463 -4.71098 -1.42573 0
M  V30 976 N 94.5984 0.214957 -1.56127 0
M  V30 977 C 95.5284 1.2695 -1.95974 0
M  V30 978 C 96.5094 1.48539 -0.828868 0
M  V30 979 O 97.6944 1.60611 -1.09168 0
M  V30 980 C 94.8244 2.61794 -2.28214 0
M  V30 981 C 93.7784 2.54851 -3.43853 0
M  V30 982 C 93.1044 3.93785 -3.61715 0
M  V30 983 C 94.4044 2.09065 -4.78632 0
M  V30 984 H 96.0984 0.93846 -2.84312 0
M  V30 985 H 93.6444 0.449996 -1.36788 0
M  V30 986 H 95.5974 3.35731 -2.54682 0
M  V30 987 H 94.3214 2.96599 -1.36736 0
M  V30 988 H 92.9804 1.8337 -3.17444 0
M  V30 989 H 92.6284 4.25908 -2.67602 0
M  V30 990 H 92.3284 3.90019 -4.39498 0
M  V30 991 H 93.8524 4.69374 -3.90539 0
M  V30 992 H 95.2664 2.7275 -5.04262 0
M  V30 993 H 93.6634 2.16346 -5.59745 0
M  V30 994 H 94.7334 1.04315 -4.73547 0
M  V30 995 N 96.0765 1.50051 0.48192 0
M  V30 996 C 97.0395 1.67584 1.5636 0
M  V30 997 C 98.0395 0.546894 1.51214 0
M  V30 998 O 99.2295 0.813725 1.54026 0
M  V30 999 C 96.3615 1.691 2.96003 0
M  V30 1000 H 97.5545 2.64078 1.42136 0
M  V30 1001 H 95.1075 1.39369 0.707533 0
M  V30 1002 H 95.8425 0.742589 3.15684 0
M  V30 1003 H 95.6275 2.51105 3.01146 0
M  V30 1004 H 97.1175 1.84656 3.74556 0
M  V30 1005 N 97.5546 -0.734337 1.39446 0
M  V30 1006 C 98.5016 -1.84835 1.38219 0
M  V30 1007 C 99.4716 -1.64331 0.24179 0
M  V30 1008 O 100.657 -1.85728 0.437002 0
M  V30 1009 C 97.7966 -3.22355 1.23212 0
M  V30 1010 C 96.9096 -3.5456 2.46801 0
M  V30 1011 C 96.0446 -4.81485 2.24377 0
M  V30 1012 C 95.0836 -5.06536 3.43639 0
M  V30 1013 N 94.2206 -6.24665 3.20528 0
M  V30 1014 H 99.0606 -1.85219 2.33448 0
M  V30 1015 H 96.5976 -0.905039 1.15963 0
M  V30 1016 H 98.5556 -4.0174 1.12522 0
M  V30 1017 H 97.1856 -3.21248 0.316121 0
M  V30 1018 H 96.2376 -2.69872 2.68092 0
M  V30 1019 H 97.5496 -3.6899 3.3563 0
M  V30 1020 H 96.7036 -5.68852 2.10933 0
M  V30 1021 H 95.4426 -4.6923 1.32944 0
M  V30 1022 H 94.4476 -4.17632 3.5758 0
M  V30 1023 H 95.6726 -5.20676 4.35974 0
M  V30 1024 H 93.6186 -6.13696 2.3176 0
M  V30 1025 H 93.5356 -6.39685 4.02913 0
M  V30 1026 H 94.8036 -7.14868 3.10779 0
M  V30 1027 N 99.0327 -1.24633 -0.964593 0
M  V30 1028 C 100.449 -1.01239 -1.2338 0
M  V30 1029 C 100.649 0.2769 -1.99588 0
M  V30 1030 O 99.7047 0.992241 -2.32187 0
M  V30 1031 C 101.018 -2.22937 -2.01791 0
M  V30 1032 C 102.566 -2.27594 -2.14872 0
M  V30 1033 C 103.041 -3.48921 -2.96678 0
M  V30 1034 N 104.532 -3.49257 -3.04259 0
M  V30 1035 C 105.267 -4.39795 -3.67924 0
M  V30 1036 N 104.763 -5.40591 -4.33281 0
M  V30 1037 N 106.556 -4.275 -3.64966 0
M  V30 1038 H 98.7067 -2.0748 -0.454502 0
M  V30 1039 H 100.97 -0.910647 -0.26349 0
M  V30 1040 H 100.676 -3.16587 -1.53184 0
M  V30 1041 H 100.55 -2.25306 -3.02518 0
M  V30 1042 H 102.937 -1.34473 -2.6268 0
M  V30 1043 H 103.018 -2.2925 -1.13482 0
M  V30 1044 H 102.662 -4.42359 -2.49562 0
M  V30 1045 H 102.592 -3.4451 -3.98272 0
M  V30 1046 H 105.083 -2.76337 -2.57771 0
M  V30 1047 H 105.396 -6.05904 -4.79687 0
M  V30 1048 H 103.741 -5.44475 -4.3194 0
M  V30 1049 H 106.932 -3.47987 -3.13086 0
M  V30 1050 H 107.105 -4.98258 -4.14298 0
M  V30 1051 N 100.511 1.16574 -1.06058 0
M  V30 1052 C 101.421 2.2452 -0.680282 0
M  V30 1053 C 102.437 1.71348 0.302604 0
M  V30 1054 O 103.613 2.00822 0.152513 0
M  V30 1055 C 100.678 3.46629 -0.0700315 0
M  V30 1056 C 99.7388 4.14849 -1.10448 0
M  V30 1057 C 98.9718 5.31129 -0.523256 0
M  V30 1058 O 99.1948 5.66514 0.664709 0
M  V30 1059 O 98.1288 5.88526 -1.26179 0
M  V30 1060 H 101.955 2.59355 -1.58015 0
M  V30 1061 H 99.5398 1.24043 -0.832694 0
M  V30 1062 H 101.422 4.20543 0.268667 0
M  V30 1063 H 100.097 3.13573 0.803353 0
M  V30 1064 H 99.0038 3.42916 -1.49532 0
M  V30 1065 H 100.337 4.51954 -1.94931 0
M  V30 1066 N 101.989 0.842826 1.3317 0
M  V30 1067 C 103.237 0.439577 1.97262 0
M  V30 1068 C 103.558 -1.00548 1.67078 0
M  V30 1069 O 102.828 -1.70098 0.971779 0
M  V30 1070 H 101.408 0.159558 0.72976 0
M  V30 1071 H 104.07 1.07665 1.62463 0
M  V30 1072 H 103.166 0.574886 3.0676 0
M  V30 1073 N 103.467 -1.45747 0.599634 0
M  V30 1074 C 104.716 -2.01502 0.0893511 0
M  V30 1075 C 105.029 -1.4748 -1.28488 0
M  V30 1076 O 106.235 -1.95161 -1.88745 0
M  V30 1077 C 104.691 -3.59735 0.109082 0
M  V30 1078 C 104.299 -4.22754 1.48267 0
M  V30 1079 C 106.043 -4.23085 -0.346374 0
M  V30 1080 C 103.95 -5.73115 1.45921 0
M  V30 1081 H 102.88 -0.753417 0.0296347 0
M  V30 1082 H 105.531 -1.67303 0.753788 0
M  V30 1083 H 103.913 -3.91087 -0.621854 0
M  V30 1084 H 105.087 -4.02987 2.23468 0
M  V30 1085 H 103.402 -3.71567 1.87955 0
M  V30 1086 H 105.999 -5.33327 -0.38298 0
M  V30 1087 H 106.342 -3.93201 -1.36743 0
M  V30 1088 H 106.875 -3.9642 0.331038 0
M  V30 1089 H 103.614 -6.07685 2.45762 0
M  V30 1090 H 103.134 -5.95097 0.749665 0
M  V30 1091 H 104.813 -6.3616 1.17941 0
M  V30 1092 N 104.945 -0.338344 -1.53925 0
M  V30 1093 C 106.356 0.146651 -1.86123 0
M  V30 1094 C 106.707 1.5042 -1.2597 0
M  V30 1095 O 105.832 2.08723 -0.571294 0
M  V30 1096 C 106.427 0.272879 -3.37699 0
M  V30 1097 C 104.986 0.702103 -3.69794 0
M  V30 1098 C 104.133 -0.167304 -2.76795 0
M  V30 1099 H 107.084 -0.558123 -1.48562 0
M  V30 1100 H 107.105 1.10128 -3.64214 0
M  V30 1101 H 106.617 -0.715307 -3.81451 0
M  V30 1102 H 104.718 1.6995 -3.31584 0
M  V30 1103 H 104.831 0.495604 -4.7653 0
M  V30 1104 H 103.195 0.359527 -2.5215 0
M  V30 1105 H 103.978 -1.15253 -3.23375 0
M  V30 1106 N 106.423 1.57458 -0.0668435 0
M  V30 1107 C 107.353 2.15468 0.899764 0
M  V30 1108 C 108.334 1.08042 1.31381 0
M  V30 1109 O 109.519 1.36054 1.38574 0
M  V30 1110 C 106.649 2.71232 2.16911 0
M  V30 1111 C 105.603 3.83781 1.89463 0
M  V30 1112 C 104.929 4.26127 3.22986 0
M  V30 1113 C 106.229 5.08238 1.20381 0
M  V30 1114 H 107.923 2.96488 0.416529 0
M  V30 1115 H 105.469 1.4262 0.198908 0
M  V30 1116 H 107.422 3.10458 2.84945 0
M  V30 1117 H 106.146 1.87426 2.67468 0
M  V30 1118 H 104.805 3.45051 1.23836 0
M  V30 1119 H 104.453 3.39249 3.71374 0
M  V30 1120 H 104.153 5.01993 3.05413 0
M  V30 1121 H 105.677 4.67966 3.92225 0
M  V30 1122 H 107.091 5.44811 1.78475 0
M  V30 1123 H 105.488 5.89349 1.13083 0
M  V30 1124 H 106.558 4.84558 0.182153 0
M  V30 1125 N 107.901 -0.206675 1.56239 0
M  V30 1126 C 109.147 -0.930218 1.80208 0
M  V30 1127 C 109.48 -1.83387 0.638981 0
M  V30 1128 O 108.755 -1.91119 -0.361066 0
M  V30 1129 C 109.038 -1.75641 3.1436 0
M  V30 1130 C 108.891 -0.878257 4.41142 0
M  V30 1131 C 110.21 -2.73129 3.45092 0
M  V30 1132 H 107.329 -0.336742 0.655571 0
M  V30 1133 H 109.971 -0.198222 1.88963 0
M  V30 1134 H 108.121 -2.38048 3.07027 0
M  V30 1135 H 109.793 -0.269787 4.6051 0
M  V30 1136 H 108.036 -0.184385 4.33408 0
M  V30 1137 H 108.707 -1.49106 5.3148 0
M  V30 1138 H 111.183 -2.20856 3.52649 0
M  V30 1139 H 110.059 -3.28028 4.40101 0
M  V30 1140 H 110.32 -3.51606 2.68003 0
M  V30 1141 N 109.379 -1.50304 -0.473955 0
M  V30 1142 C 110.656 -1.51667 -1.23518 0
M  V30 1143 C 111.036 -0.259701 -2.09496 0
M  V30 1144 O 110.384 0.756986 -2.15597 0
M  V30 1145 C 110.594 -2.81082 -2.06868 0
M  V30 1146 C 111.942 -3.31631 -2.65153 0
M  V30 1147 O 112.966 -2.82384 -2.17113 0
M  V30 1148 O 111.825 -4.17471 -3.52675 0
M  V30 1149 H 108.919 -0.60822 -0.560355 0
M  V30 1150 H 111.465 -1.62592 -0.486011 0
M  V30 1151 H 110.237 -3.64041 -1.4349 0
M  V30 1152 H 109.86 -2.73146 -2.88924 0
M  V30 1153 N 110.857 0.726932 -1.39834 0
M  V30 1154 C 111.787 1.85405 -1.41941 0
M  V30 1155 C 112.768 1.67751 -0.281728 0
M  V30 1156 O 113.953 1.8795 -0.488717 0
M  V30 1157 C 111.083 3.23243 -1.2701 0
M  V30 1158 C 110.037 3.55549 -2.38262 0
M  V30 1159 C 109.363 4.9241 -2.08415 0
M  V30 1160 C 110.663 3.577 -3.80589 0
M  V30 1161 H 112.357 1.83899 -2.36266 0
M  V30 1162 H 109.903 0.883349 -1.13723 0
M  V30 1163 H 111.856 4.01775 -1.27103 0
M  V30 1164 H 110.58 3.25296 -0.291564 0
M  V30 1165 H 109.239 2.79351 -2.37399 0
M  V30 1166 H 108.887 4.91052 -1.0898 0
M  V30 1167 H 108.587 5.14992 -2.82943 0
M  V30 1168 H 110.111 5.73289 -2.10171 0
M  V30 1169 H 111.525 4.26293 -3.83337 0
M  V30 1170 H 109.922 3.91804 -4.54543 0
M  V30 1171 H 110.992 2.57328 -4.10987 0
M  V30 1172 N 112.336 1.25143 0.95797 0
M  V30 1173 C 113.747 1.08851 1.51685 0
M  V30 1174 C 114.098 -0.33687 1.93286 0
M  V30 1175 O 113.223 -1.22644 1.7829 0
M  V30 1176 C 113.818 1.96978 2.75654 0
M  V30 1177 C 112.377 1.84881 3.27866 0
M  V30 1178 C 111.524 1.91329 2.0072 0
M  V30 1179 H 114.475 1.38478 0.77522 0
M  V30 1180 H 114.496 1.5078 3.4935 0
M  V30 1181 H 114.008 3.00712 2.45345 0
M  V30 1182 H 112.109 0.840182 3.63004 0
M  V30 1183 H 112.222 2.6951 3.96107 0
M  V30 1184 H 110.586 1.35174 2.15871 0
M  V30 1185 H 111.369 2.96661 1.72764 0
M  V30 1186 N 113.814 -1.1601 1.06675 0
M  V30 1187 C 115.225 -1.68235 0.809565 0
M  V30 1188 C 115.576 -1.8454 -0.666303 0
M  V30 1189 O 114.701 -1.54374 -1.5165 0
M  V30 1190 C 115.296 -3.05585 1.46299 0
M  V30 1191 C 113.855 -3.54915 1.25349 0
M  V30 1192 C 113.002 -2.30804 1.53703 0
M  V30 1193 H 115.953 -1.00318 1.22971 0
M  V30 1194 H 115.974 -3.70174 0.880431 0
M  V30 1195 H 115.486 -2.93686 2.53713 0
M  V30 1196 H 113.587 -3.72067 0.199261 0
M  V30 1197 H 113.7 -4.36774 1.9689 0
M  V30 1198 H 112.064 -2.36007 0.957739 0
M  V30 1199 H 112.847 -2.21499 2.62284 0
M  V30 1200 N 115.292 -0.849877 -1.32721 0
M  V30 1201 C 116.202 -0.293791 -2.32753 0
M  V30 1202 C 117.218 0.585906 -1.63839 0
M  V30 1203 O 118.394 0.487413 -1.95413 0
M  V30 1204 C 115.459 0.512752 -3.42887 0
M  V30 1205 C 114.52 -0.39252 -4.27502 0
M  V30 1206 C 113.753 0.375625 -5.32377 0
M  V30 1207 O 113.976 1.60613 -5.4732 0
M  V30 1208 O 112.91 -0.256094 -6.01355 0
M  V30 1209 H 116.736 -1.12242 -2.82197 0
M  V30 1210 H 114.321 -0.612685 -1.36259 0
M  V30 1211 H 116.203 0.970704 -4.10067 0
M  V30 1212 H 114.878 1.31826 -2.95641 0
M  V30 1213 H 113.785 -0.898547 -3.63149 0
M  V30 1214 H 115.118 -1.16309 -4.7826 0
M  V30 1215 N 116.77 1.45427 -0.607355 0
M  V30 1216 C 118.018 2.01841 -0.102253 0
M  V30 1217 C 118.339 1.47832 1.27164 0
M  V30 1218 O 117.609 0.672497 1.83995 0
M  V30 1219 H 116.189 0.746188 -0.0348101 0
M  V30 1220 H 118.851 1.78229 -0.7887 0
M  V30 1221 H 117.947 3.12057 -0.0518585 0
M  V30 1222 N 118.248 0.346503 1.53744 0
M  V30 1223 C 119.494 -0.249473 2.0126 0
M  V30 1224 C 119.827 -1.49965 1.23386 0
M  V30 1225 O 119.102 -1.91811 0.32229 0
M  V30 1226 C 119.385 -0.560643 3.55709 0
M  V30 1227 C 119.238 0.701836 4.44291 0
M  V30 1228 C 120.557 -1.36905 4.18264 0
M  V30 1229 H 117.676 -0.0891987 0.731582 0
M  V30 1230 H 120.318 0.467624 1.84156 0
M  V30 1231 H 118.468 -1.17156 3.70414 0
M  V30 1232 H 120.14 1.33974 4.41417 0
M  V30 1233 H 118.383 1.32612 4.13033 0
M  V30 1234 H 119.054 0.43933 5.50249 0
M  V30 1235 H 121.53 -0.852448 4.07275 0
M  V30 1236 H 120.406 -1.55553 5.26398 0
M  V30 1237 H 120.667 -2.37203 3.73078 0
M  V30 1238 N 119.726 -1.57421 0.075193 0
M  V30 1239 C 121.003 -1.85029 -0.634329 0
M  V30 1240 C 121.383 -0.968305 -1.87582 0
M  V30 1241 O 120.731 -0.0354749 -2.28472 0
M  V30 1242 C 120.941 -3.35286 -0.968742 0
M  V30 1243 C 122.289 -4.02875 -1.34077 0
M  V30 1244 O 123.313 -3.40051 -1.06037 0
M  V30 1245 O 122.172 -5.13691 -1.86506 0
M  V30 1246 H 119.266 -0.7645 -0.315387 0
M  V30 1247 H 121.812 -1.69366 0.106382 0
M  V30 1248 H 120.584 -3.91203 -0.0871376 0
M  V30 1249 H 120.207 -3.56223 -1.7661 0
M  V30 1250 N 121.204 0.198386 -1.56346 0
M  V30 1251 C 122.134 1.24865 -1.9731 0
M  V30 1252 C 123.115 1.47651 -0.844576 0
M  V30 1253 O 124.3 1.59444 -1.10866 0
M  V30 1254 C 121.43 2.59358 -2.30977 0
M  V30 1255 C 120.384 2.5119 -3.46537 0
M  V30 1256 C 119.71 3.89926 -3.65871 0
M  V30 1257 C 121.01 2.03977 -4.80823 0
M  V30 1258 H 122.704 0.908252 -2.85291 0
M  V30 1259 H 120.25 0.435462 -1.37258 0
M  V30 1260 H 122.203 3.33011 -2.58228 0
M  V30 1261 H 120.927 2.95132 -1.39874 0
M  V30 1262 H 119.586 1.79993 -3.19371 0
M  V30 1263 H 119.234 4.23046 -2.72105 0
M  V30 1264 H 118.934 3.85336 -4.4361 0
M  V30 1265 H 120.458 4.65205 -3.95495 0
M  V30 1266 H 121.872 2.67386 -5.07127 0
M  V30 1267 H 120.269 2.10397 -5.62008 0
M  V30 1268 H 121.339 0.992861 -4.74626 0
M  V30 1269 N 122.682 1.50554 0.465978 0
M  V30 1270 C 123.645 1.69233 1.54574 0
M  V30 1271 C 124.645 0.562901 1.50626 0
M  V30 1272 O 125.835 0.830016 1.53155 0
M  V30 1273 C 122.967 1.7223 2.94193 0
M  V30 1274 H 124.16 2.65571 1.39327 0
M  V30 1275 H 121.713 1.40111 0.692711 0
M  V30 1276 H 122.448 0.77603 3.14878 0
M  V30 1277 H 122.233 2.54285 2.98466 0
M  V30 1278 H 123.723 1.88618 3.72576 0
M  V30 1279 N 124.16 -0.719506 1.40217 0
M  V30 1280 C 125.409 -1.47486 1.37589 0
M  V30 1281 C 125.722 -1.9559 -0.0201568 0
M  V30 1282 O 126.928 -2.70973 -0.169049 0
M  V30 1283 C 125.384 -2.66575 2.41796 0
M  V30 1284 C 124.992 -2.25358 3.87192 0
M  V30 1285 C 126.736 -3.4433 2.48269 0
M  V30 1286 C 124.643 -3.41262 4.83005 0
M  V30 1287 H 123.573 -0.553901 0.511576 0
M  V30 1288 H 126.224 -0.783427 1.65936 0
M  V30 1289 H 124.606 -3.3787 2.06543 0
M  V30 1290 H 125.78 -1.61509 4.31569 0
M  V30 1291 H 124.095 -1.60657 3.84159 0
M  V30 1292 H 126.692 -4.30569 3.17041 0
M  V30 1293 H 127.035 -3.87872 1.51198 0
M  V30 1294 H 127.568 -2.80076 2.82493 0
M  V30 1295 H 124.307 -3.02755 5.81394 0
M  V30 1296 H 123.827 -4.0404 4.43297 0
M  V30 1297 H 125.506 -4.07383 5.02641 0
M  V30 1298 N 125.638 -1.25649 -0.95132 0
M  V30 1299 C 126.915 -1.01361 -1.67288 0
M  V30 1300 C 127.295 0.459135 -2.06046 0
M  V30 1301 O 126.643 1.43723 -1.7764 0
M  V30 1302 C 126.853 -1.95256 -2.89268 0
M  V30 1303 C 128.201 -2.23289 -3.61147 0
M  V30 1304 O 129.225 -1.93041 -2.99355 0
M  V30 1305 O 128.084 -2.74741 -4.72419 0
M  V30 1306 H 125.178 -0.38464 -0.732107 0
M  V30 1307 H 127.724 -1.36817 -1.00395 0
M  V30 1308 H 126.496 -2.94685 -2.57442 0
M  V30 1309 H 126.119 -1.60218 -3.6389 0
M  V30 1310 N 127.117 1.15442 -1.07289 0
M  V30 1311 C 128.365 1.85845 -0.794096 0
M  V30 1312 C 128.686 1.82692 0.681809 0
M  V30 1313 O 127.956 1.26741 1.49377 0
M  V30 1314 H 126.536 0.688089 -0.290763 0
M  V30 1315 H 129.198 1.39947 -1.3565 0
M  V30 1316 H 128.294 2.91001 -1.12804 0
M  V30 1317 N 128.595 0.856903 1.32268 0
M  V30 1318 C 129.558 0.308171 2.27119 0
M  V30 1319 C 130.558 -0.533421 1.51695 0
M  V30 1320 O 131.748 -0.344607 1.70757 0
M  V30 1321 C 128.88 -0.563757 3.36206 0
M  V30 1322 H 130.073 1.14535 2.77167 0
M  V30 1323 H 127.626 0.631421 1.42978 0
M  V30 1324 H 128.361 -1.42266 2.91429 0
M  V30 1325 H 128.146 0.0386749 3.92081 0
M  V30 1326 H 129.636 -0.940386 4.06874 0
M  V30 1327 N 130.073 -1.45103 0.615059 0
M  V30 1328 C 131.35 -1.95549 0.0448276 0
M  V30 1329 C 131.73 -1.55737 -1.4251 0
M  V30 1330 O 131.078 -0.823556 -2.13143 0
M  V30 1331 C 131.288 -3.48098 0.250785 0
M  V30 1332 C 132.636 -4.24384 0.135509 0
M  V30 1333 O 133.66 -3.55738 0.181299 0
M  V30 1334 O 132.519 -5.46493 0.0268878 0
M  V30 1335 H 129.613 -0.8264 -0.0314845 0
M  V30 1336 H 132.159 -1.55232 0.685642 0
M  V30 1337 H 130.931 -3.7007 1.27139 0
M  V30 1338 H 130.554 -3.95323 -0.424937 0
M  V30 1339 N 131.551 -0.354651 -1.53558 0
M  V30 1340 C 132.461 0.50515 -2.29097 0
M  V30 1341 C 133.477 1.10223 -1.34636 0
M  V30 1342 O 134.653 1.11553 -1.67684 0
M  V30 1343 C 131.718 1.63479 -3.05738 0
M  V30 1344 C 130.779 1.06636 -4.15845 0
M  V30 1345 C 130.012 2.14217 -4.88822 0
M  V30 1346 O 130.235 3.35137 -4.61562 0
M  V30 1347 O 129.169 1.77887 -5.75013 0
M  V30 1348 H 132.995 -0.109237 -3.03503 0
M  V30 1349 H 130.58 -0.119357 -1.48922 0
M  V30 1350 H 132.462 2.2918 -3.5363 0
M  V30 1351 H 131.137 2.23478 -2.34178 0
M  V30 1352 H 130.044 0.373565 -3.7223 0
M  V30 1353 H 131.377 0.511081 -4.89539 0
M  V30 1354 N 133.029 1.57378 -0.0835403 0
M  V30 1355 C 134.278 1.93106 0.582498 0
M  V30 1356 C 134.591 0.96651 1.70053 0
M  V30 1357 O 135.797 1.21705 2.42693 0
M  V30 1358 C 134.253 3.43076 1.08751 0
M  V30 1359 C 133.861 4.48 -0.000146404 0
M  V30 1360 C 135.605 3.87785 1.72694 0
M  V30 1361 C 133.512 5.89113 0.519568 0
M  V30 1362 H 132.442 0.720775 0.221358 0
M  V30 1363 H 135.093 1.82821 -0.157675 0
M  V30 1364 H 133.475 3.48474 1.88101 0
M  V30 1365 H 134.649 4.54233 -0.775199 0
M  V30 1366 H 132.964 4.1283 -0.54406 0
M  V30 1367 H 135.561 4.90604 2.1263 0
M  V30 1368 H 135.904 3.25796 2.59158 0
M  V30 1369 H 136.437 3.8504 0.999457 0
M  V30 1370 H 133.176 6.54775 -0.308186 0
M  V30 1371 H 132.696 5.86376 1.26188 0
M  V30 1372 H 134.375 6.39346 0.992237 0
M  V30 1373 N 134.507 -0.190092 1.56449 0
M  V30 1374 C 135.47 -1.21925 1.9408 0
M  V30 1375 C 136.47 -1.38176 0.822431 0
M  V30 1376 O 137.66 -1.35903 1.08977 0
M  V30 1377 C 134.792 -2.58773 2.21922 0
M  V30 1378 H 135.985 -0.897464 2.86157 0
M  V30 1379 H 133.538 -0.43181 1.50217 0
M  V30 1380 H 134.273 -2.95998 1.32499 0
M  V30 1381 H 134.058 -2.48348 3.03424 0
M  V30 1382 H 135.548 -3.32978 2.52022 0
M  V30 1383 N 135.985 -1.50799 -0.457987 0
M  V30 1384 C 137.396 -1.55152 -1.0385 0
M  V30 1385 C 137.747 -0.362719 -1.92818 0
M  V30 1386 O 136.872 0.522915 -2.09987 0
M  V30 1387 C 137.467 -2.81173 -1.89017 0
M  V30 1388 C 136.026 -2.88164 -2.42154 0
M  V30 1389 C 135.173 -2.49591 -1.20829 0
M  V30 1390 H 138.124 -1.56874 -0.240068 0
M  V30 1391 H 138.145 -2.63769 -2.74238 0
M  V30 1392 H 137.657 -3.67677 -1.24238 0
M  V30 1393 H 135.758 -2.06042 -3.10447 0
M  V30 1394 H 135.871 -3.91356 -2.76364 0
M  V30 1395 H 134.235 -2.02322 -1.54719 0
M  V30 1396 H 135.018 -3.38418 -0.576927 0
M  V30 1397 N 137.463 0.71206 -1.40597 0
M  V30 1398 C 138.711 1.46907 -1.38791 0
M  V30 1399 C 139.032 1.94998 0.00780391 0
M  V30 1400 O 138.302 1.70587 0.963174 0
M  V30 1401 H 136.882 0.545043 -0.51082 0
M  V30 1402 H 139.544 0.843882 -1.75683 0
M  V30 1403 H 138.64 2.34021 -2.06496 0
M  V30 1404 N 138.941 1.26152 0.944643 0
M  V30 1405 C 139.871 1.09902 2.06019 0
M  V30 1406 C 140.852 0.00519538 1.70099 0
M  V30 1407 O 142.037 0.176583 1.93396 0
M  V30 1408 C 139.167 0.727562 3.39594 0
M  V30 1409 C 138.121 1.77274 3.89561 0
M  V30 1410 C 137.447 1.25569 5.19747 0
M  V30 1411 C 138.747 3.17357 4.14827 0
M  V30 1412 H 140.441 2.03217 2.19871 0
M  V30 1413 H 137.987 0.978452 1.05652 0
M  V30 1414 H 139.94 0.600777 4.17095 0
M  V30 1415 H 138.664 -0.241287 3.25707 0
M  V30 1416 H 137.323 1.88814 3.14237 0
M  V30 1417 H 136.971 0.276783 5.02238 0
M  V30 1418 H 136.671 1.95433 5.54148 0
M  V30 1419 H 138.195 1.1415 5.99835 0
M  V30 1420 H 139.609 3.08914 4.82954 0
M  V30 1421 H 138.006 3.84781 4.60504 0
M  V30 1422 H 139.076 3.63673 3.20734 0
M  V30 1423 N 140.419 -1.14872 1.07899 0
M  V30 1424 C 141.382 -2.17986 0.708161 0
M  V30 1425 C 142.382 -1.58775 -0.25442 0
M  V30 1426 O 143.572 -1.74166 -0.034645 0
M  V30 1427 C 140.704 -3.40871 0.0446929 0
M  V30 1428 H 141.897 -2.52306 1.62116 0
M  V30 1429 H 139.45 -1.2943 0.876218 0
M  V30 1430 H 140.185 -3.12124 -0.880281 0
M  V30 1431 H 139.97 -3.8511 0.737091 0
M  V30 1432 H 141.46 -4.17121 -0.19991 0
M  V30 1433 N 141.898 -0.863906 -1.31812 0
M  V30 1434 C 142.828 -0.330843 -2.31144 0
M  V30 1435 C 143.809 0.575005 -1.60087 0
M  V30 1436 O 144.994 0.493304 -1.8783 0
M  V30 1437 C 142.124 0.47374 -3.44054 0
M  V30 1438 C 141.078 -0.338481 -4.26659 0
M  V30 1439 C 140.404 0.591412 -5.31419 0
M  V30 1440 C 141.704 -1.56926 -4.98168 0
M  V30 1441 H 143.398 -1.16086 -2.75979 0
M  V30 1442 H 140.944 -0.559657 -1.32679 0
M  V30 1443 H 142.897 0.857143 -4.12591 0
M  V30 1444 H 141.621 1.33721 -2.9797 0
M  V30 1445 H 140.28 -0.703754 -3.59782 0
M  V30 1446 H 139.928 1.45199 -4.81587 0
M  V30 1447 H 139.628 0.0519022 -5.87577 0
M  V30 1448 H 141.152 0.97179 -6.02817 0
M  V30 1449 H 142.566 -1.25764 -5.59336 0
M  V30 1450 H 140.963 -2.04739 -5.64094 0
M  V30 1451 H 142.033 -2.32544 -4.25501 0
M  V30 1452 N 143.376 1.44774 -0.622745 0
M  V30 1453 C 144.625 2.01334 -0.121397 0
M  V30 1454 C 144.938 1.49505 1.26125 0
M  V30 1455 O 146.144 1.98139 1.85616 0
M  V30 1456 C 144.6 3.59516 -0.166298 0
M  V30 1457 C 144.208 4.20342 -1.54974 0
M  V30 1458 C 145.952 4.23582 0.279021 0
M  V30 1459 C 143.859 5.70721 -1.55021 0
M  V30 1460 H 142.789 0.752851 -0.0416172 0
M  V30 1461 H 145.44 1.66083 -0.780309 0
M  V30 1462 H 143.822 3.92027 0.559557 0
M  V30 1463 H 144.996 3.99381 -2.29851 0
M  V30 1464 H 143.311 3.68529 -1.93843 0
M  V30 1465 H 145.908 5.33868 0.298083 0
M  V30 1466 H 146.251 3.95327 1.30471 0
M  V30 1467 H 146.784 3.95843 -0.394063 0
M  V30 1468 H 143.523 6.03698 -2.55399 0
M  V30 1469 H 143.043 5.93829 -0.844245 0
M  V30 1470 H 144.722 6.34203 -1.28047 0
M  V30 1471 N 144.854 0.36279 1.53368 0
M  V30 1472 C 145.801 -0.485008 2.25646 0
M  V30 1473 C 146.771 -1.07982 1.2621 0
M  V30 1474 O 147.956 -1.11284 1.54986 0
M  V30 1475 C 145.096 -1.62023 3.04701 0
M  V30 1476 C 144.209 -1.05086 4.19024 0
M  V30 1477 C 143.344 -2.15496 4.85525 0
M  V30 1478 C 142.383 -1.5601 5.91884 0
M  V30 1479 N 141.52 -2.60241 6.52088 0
M  V30 1480 H 146.36 0.137864 2.97681 0
M  V30 1481 H 143.897 0.0798061 1.46883 0
M  V30 1482 H 145.855 -2.28887 3.48807 0
M  V30 1483 H 144.485 -2.2138 2.34927 0
M  V30 1484 H 143.537 -0.27259 3.79422 0
M  V30 1485 H 144.849 -0.575926 4.95464 0
M  V30 1486 H 144.003 -2.90186 5.32801 0
M  V30 1487 H 142.742 -2.66341 4.08551 0
M  V30 1488 H 141.747 -0.798338 5.43973 0
M  V30 1489 H 142.972 -1.05994 6.70777 0
M  V30 1490 H 140.918 -3.10304 5.77968 0
M  V30 1491 H 140.835 -2.17426 7.24059 0
M  V30 1492 H 142.103 -3.34641 7.04014 0
M  V30 1493 N 146.332 -1.57332 0.0918853 0
M  V30 1494 C 147.58 -1.93853 -0.571446 0
M  V30 1495 C 147.901 -0.974212 -1.6892 0
M  V30 1496 O 147.171 -0.0257254 -1.95883 0
M  V30 1497 H 145.751 -0.715666 -0.214082 0
M  V30 1498 H 148.413 -1.94287 0.154464 0
M  V30 1499 H 147.509 -2.96191 -0.983729 0
M  V30 1500 N 147.81 0.181792 -1.56548 0
M  V30 1501 C 148.743 1.25366 -1.90679 0
M  V30 1502 C 149.721 1.43299 -0.768376 0
M  V30 1503 O 150.905 1.58475 -1.02068 0
M  V30 1504 C 148.032 2.61826 -2.1486 0
M  V30 1505 C 147.078 2.60688 -3.37556 0
M  V30 1506 S 147.911 2.10804 -4.92262 0
M  V30 1507 C 149.067 3.49062 -5.19525 0
M  V30 1508 H 149.3 0.962277 -2.81296 0
M  V30 1509 H 146.833 0.385892 -1.495 0
M  V30 1510 H 148.791 3.40371 -2.29473 0
M  V30 1511 H 147.452 2.88169 -1.24969 0
M  V30 1512 H 146.645 3.61058 -3.51643 0
M  V30 1513 H 146.247 1.90232 -3.22006 0
M  V30 1514 H 148.539 4.45003 -5.10861 0
M  V30 1515 H 149.482 3.39859 -6.2121 0
M  V30 1516 H 149.89 3.4459 -4.47122 0
M  V30 1517 N 149.288 1.51039 0.449983 0
M  V30 1518 C 150.536 1.62759 1.19808 0
M  V30 1519 C 150.857 0.339981 1.92013 0
M  V30 1520 O 150.127 -0.643606 1.85026 0
M  V30 1521 H 148.707 0.599811 0.445237 0
M  V30 1522 H 151.369 1.87914 0.517138 0
M  V30 1523 H 150.465 2.44911 1.93455 0
M  V30 1524 N 150.766 -0.704594 1.40972 0
M  V30 1525 C 152.014 -1.46169 1.39568 0
M  V30 1526 C 152.335 -1.95 0.00253745 0
M  V30 1527 O 151.605 -1.71095 -0.954114 0
M  V30 1528 H 150.185 -0.542326 0.513704 0
M  V30 1529 H 152.847 -0.834553 1.76128 0
M  V30 1530 H 151.943 -2.32922 2.07735 0
M  V30 1531 N 152.244 -1.26651 -0.937939 0
M  V30 1532 C 153.207 -1.08546 -2.01867 0
M  V30 1533 C 154.207 -0.0327327 -1.60767 0
M  V30 1534 O 155.397 -0.276427 -1.71993 0
M  V30 1535 C 152.529 -0.651711 -3.34613 0
M  V30 1536 H 153.722 -2.04502 -2.1936 0
M  V30 1537 H 151.275 -1.09294 -1.11734 0
M  V30 1538 H 152.01 0.309696 -3.22818 0
M  V30 1539 H 151.795 -1.41189 -3.65798 0
M  V30 1540 H 153.285 -0.546973 -4.14002 0
M  V30 1541 N 153.722 1.14298 -1.08507 0
M  V30 1542 C 154.652 2.21542 -0.737646 0
M  V30 1543 C 155.633 1.67773 0.280377 0
M  V30 1544 O 156.818 1.93616 0.150521 0
M  V30 1545 C 153.948 3.46988 -0.147259 0
M  V30 1546 C 152.902 4.13789 -1.09374 0
M  V30 1547 C 152.228 5.33449 -0.365524 0
M  V30 1548 C 153.528 4.62208 -2.4323 0
M  V30 1549 H 155.222 2.5086 -1.6343 0
M  V30 1550 H 152.768 1.20576 -0.787243 0
M  V30 1551 H 154.721 4.21262 0.107808 0
M  V30 1552 H 153.445 3.17037 0.784538 0
M  V30 1553 H 152.104 3.4147 -1.33393 0
M  V30 1554 H 151.752 4.99759 0.57011 0
M  V30 1555 H 151.452 5.79088 -0.996512 0
M  V30 1556 H 152.976 6.10485 -0.118534 0
M  V30 1557 H 154.39 5.27952 -2.23472 0
M  V30 1558 H 152.787 5.18553 -3.02031 0
M  V30 1559 H 153.857 3.77224 -3.04681 0
M  V30 1560 N 155.201 0.870884 1.31352 0
M  V30 1561 C 156.131 0.343096 2.30966 0
M  V30 1562 C 157.112 -0.566507 1.60389 0
M  V30 1563 O 158.297 -0.483336 1.88089 0
M  V30 1564 C 155.427 -0.455487 3.443 0
M  V30 1565 C 154.381 0.361103 4.26474 0
M  V30 1566 C 153.707 -0.563221 5.31725 0
M  V30 1567 C 155.007 1.59566 4.97329 0
M  V30 1568 H 156.701 1.17548 2.75359 0
M  V30 1569 H 154.247 0.566686 1.32381 0
M  V30 1570 H 156.2 -0.83525 4.13039 0
M  V30 1571 H 154.924 -1.32139 2.98675 0
M  V30 1572 H 153.583 0.722825 3.59403 0
M  V30 1573 H 153.231 -1.42643 4.82351 0
M  V30 1574 H 152.931 -0.0207409 5.87596 0
M  V30 1575 H 154.455 -0.939808 6.03324 0
M  V30 1576 H 155.869 1.28728 5.58661 0
M  V30 1577 H 154.266 2.07728 5.63 0
M  V30 1578 H 155.336 2.34798 4.24262 0
M  V30 1579 N 156.679 -1.44442 0.630414 0
M  V30 1580 C 158.095 -1.56832 0.295973 0
M  V30 1581 C 158.295 -1.61806 -1.20088 0
M  V30 1582 O 157.351 -1.5607 -1.9849 0
M  V30 1583 C 158.664 -2.84031 0.987264 0
M  V30 1584 C 160.212 -2.97742 0.96534 0
M  V30 1585 C 160.687 -4.27743 1.63708 0
M  V30 1586 N 162.178 -4.34555 1.60364 0
M  V30 1587 C 162.913 -5.33862 2.09234 0
M  V30 1588 N 162.409 -6.39578 2.66292 0
M  V30 1589 N 164.202 -5.25366 1.99867 0
M  V30 1590 H 156.353 -1.39457 1.60205 0
M  V30 1591 H 158.616 -0.668237 0.672431 0
M  V30 1592 H 158.322 -2.86338 2.04215 0
M  V30 1593 H 158.196 -3.73534 0.524588 0
M  V30 1594 H 160.583 -2.94989 -0.0810639 0
M  V30 1595 H 160.664 -2.09589 1.4665 0
M  V30 1596 H 160.308 -4.31255 2.68293 0
M  V30 1597 H 160.238 -5.14752 1.11076 0
M  V30 1598 H 162.729 -3.58772 1.18705 0
M  V30 1599 H 163.042 -7.11637 3.01317 0
M  V30 1600 H 161.387 -6.40265 2.70343 0
M  V30 1601 H 164.578 -4.41688 1.55013 0
M  V30 1602 H 164.751 -6.02606 2.38265 0
M  V30 1603 N 158.157 -0.370918 -1.53173 0
M  V30 1604 C 159.067 0.480823 -2.2962 0
M  V30 1605 C 160.083 1.08789 -1.35798 0
M  V30 1606 O 161.259 1.09768 -1.68858 0
M  V30 1607 C 158.324 1.60227 -3.07454 0
M  V30 1608 C 157.385 1.0222 -4.16953 0
M  V30 1609 C 156.618 2.0902 -4.91066 0
M  V30 1610 O 156.841 3.30222 -4.65091 0
M  V30 1611 O 155.775 1.71778 -5.76867 0
M  V30 1612 H 159.601 -0.141421 -3.03371 0
M  V30 1613 H 157.186 -0.135146 -1.48787 0
M  V30 1614 H 159.068 2.25417 -3.56041 0
M  V30 1615 H 157.743 2.20982 -2.36535 0
M  V30 1616 H 156.65 0.334064 -3.72605 0
M  V30 1617 H 157.983 0.459131 -4.90054 0
M  V30 1618 N 159.635 1.57281 -0.100228 0
M  V30 1619 C 160.582 2.14305 0.856858 0
M  V30 1620 C 161.552 1.06296 1.27634 0
M  V30 1621 O 162.737 1.34109 1.35718 0
M  V30 1622 C 159.877 2.73184 2.10866 0
M  V30 1623 C 158.99 3.95442 1.73925 0
M  V30 1624 C 158.125 4.42468 2.93931 0
M  V30 1625 C 157.164 5.57303 2.5314 0
M  V30 1626 N 156.301 5.99158 3.65997 0
M  V30 1627 H 161.141 2.95772 0.363726 0
M  V30 1628 H 158.678 1.46139 0.167858 0
M  V30 1629 H 160.636 3.05442 2.84185 0
M  V30 1630 H 159.266 1.94437 2.57671 0
M  V30 1631 H 158.318 3.69464 0.905554 0
M  V30 1632 H 159.63 4.78769 1.39935 0
M  V30 1633 H 158.784 4.76537 3.75496 0
M  V30 1634 H 157.523 3.58052 3.31134 0
M  V30 1635 H 156.528 5.22857 1.70003 0
M  V30 1636 H 157.753 6.43471 2.17075 0
M  V30 1637 H 155.699 5.17687 4.02909 0
M  V30 1638 H 155.616 6.77295 3.35869 0
M  V30 1639 H 156.884 6.3786 4.48057 0
M  V30 1640 N 161.113 -0.173488 1.56642 0
M  V30 1641 C 162.362 -0.888758 1.81063 0
M  V30 1642 C 162.675 -1.83506 0.67712 0
M  V30 1643 O 163.881 -2.59254 0.806206 0
M  V30 1644 C 162.337 -1.63091 3.20826 0
M  V30 1645 C 161.945 -0.728357 4.4204 0
M  V30 1646 C 163.689 -2.33454 3.54541 0
M  V30 1647 C 161.596 -1.47062 5.72823 0
M  V30 1648 H 160.526 -0.335618 0.675186 0
M  V30 1649 H 163.177 -0.141712 1.82952 0
M  V30 1650 H 161.559 -2.42263 3.13248 0
M  V30 1651 H 162.733 0.0262449 4.60793 0
M  V30 1652 H 161.048 -0.134492 4.16183 0
M  V30 1653 H 163.645 -2.89578 4.49498 0
M  V30 1654 H 163.988 -3.08687 2.79317 0
M  V30 1655 H 164.521 -1.61227 3.63663 0
M  V30 1656 H 161.26 -0.760658 6.51072 0
M  V30 1657 H 160.78 -2.1986 5.58052 0
M  V30 1658 H 162.459 -2.01868 6.14702 0
M  V30 1659 N 162.591 -1.51276 -0.441967 0
M  V30 1660 C 163.837 -1.63958 -1.19355 0
M  V30 1661 C 164.17 -0.352543 -1.90973 0
M  V30 1662 O 163.445 0.647627 -1.83401 0
M  V30 1663 C 163.728 -2.83979 -2.21422 0
M  V30 1664 C 163.581 -4.22646 -1.53918 0
M  V30 1665 C 164.9 -2.99521 -3.22451 0
M  V30 1666 H 162.019 -0.596709 -0.432559 0
M  V30 1667 H 164.661 -1.83748 -0.483398 0
M  V30 1668 H 162.811 -2.67237 -2.81987 0
M  V30 1669 H 164.483 -4.51045 -0.967256 0
M  V30 1670 H 162.726 -4.25558 -0.841615 0
M  V30 1671 H 163.397 -5.02609 -2.28229 0
M  V30 1672 H 165.873 -3.14944 -2.71937 0
M  V30 1673 H 164.749 -3.85072 -3.91166 0
M  V30 1674 H 165.01 -2.11391 -3.88287 0
M  V30 1675 N 164.069 0.697108 -1.41344 0
M  V30 1676 C 164.979 1.84088 -1.45427 0
M  V30 1677 C 165.995 1.70545 -0.34501 0
M  V30 1678 O 167.171 1.92488 -0.592492 0
M  V30 1679 C 164.236 3.20056 -1.33286 0
M  V30 1680 C 163.297 3.45718 -2.54514 0
M  V30 1681 C 162.53 4.75199 -2.42944 0
M  V30 1682 O 162.753 5.51579 -1.45318 0
M  V30 1683 O 161.687 5.0161 -3.32672 0
M  V30 1684 H 165.513 1.836 -2.41919 0
M  V30 1685 H 163.098 0.849966 -1.22866 0
M  V30 1686 H 164.98 4.01236 -1.28794 0
M  V30 1687 H 163.655 3.2123 -0.39909 0
M  V30 1688 H 162.562 2.64474 -2.64583 0
M  V30 1689 H 163.895 3.49356 -3.46715 0
M  V30 1690 N 165.547 1.27147 0.931209 0
M  V30 1691 C 166.963 1.04475 1.20653 0
M  V30 1692 C 167.163 -0.223885 2.00252 0
M  V30 1693 O 166.219 -0.930332 2.34736 0
M  V30 1694 C 167.532 2.28209 1.95809 0
M  V30 1695 C 169.08 2.33211 2.08762 0
M  V30 1696 C 169.555 3.56665 2.87323 0
M  V30 1697 N 171.046 3.57201 2.94892 0
M  V30 1698 C 171.781 4.49395 3.56134 0
M  V30 1699 N 171.277 5.51889 4.18796 0
M  V30 1700 N 173.07 4.37026 3.53504 0
M  V30 1701 H 165.221 2.08612 0.399333 0
M  V30 1702 H 167.484 0.917312 0.239253 0
M  V30 1703 H 167.19 3.20538 1.44736 0
M  V30 1704 H 167.064 2.33247 2.96438 0
M  V30 1705 H 169.451 1.41391 2.59023 0
M  V30 1706 H 169.532 2.32178 1.07364 0
M  V30 1707 H 169.176 4.4882 2.37746 0
M  V30 1708 H 169.106 3.54948 3.88998 0
M  V30 1709 H 171.597 2.83074 2.50354 0
M  V30 1710 H 171.91 6.18409 4.63454 0
M  V30 1711 H 170.255 5.55735 4.17353 0
M  V30 1712 H 173.446 3.56166 3.03749 0
M  V30 1713 H 173.619 5.09067 4.00942 0
M  V30 1714 N 167.025 -1.13721 1.09112 0
M  V30 1715 C 168.271 -1.85198 0.826414 0
M  V30 1716 C 168.604 -1.83129 -0.646319 0
M  V30 1717 O 167.879 -1.2671 -1.47563 0
M  V30 1718 C 168.162 -3.33507 1.35812 0
M  V30 1719 C 168.015 -3.44108 2.89672 0
M  V30 1720 C 169.334 -4.28838 0.989256 0
M  V30 1721 H 166.453 -0.67243 0.301675 0
M  V30 1722 H 169.095 -1.33499 1.35197 0
M  V30 1723 H 167.245 -3.77666 0.911082 0
M  V30 1724 H 168.917 -3.08684 3.428 0
M  V30 1725 H 167.16 -2.85087 3.26967 0
M  V30 1726 H 167.831 -4.48388 3.21951 0
M  V30 1727 H 170.307 -3.92734 1.37475 0
M  V30 1728 H 169.183 -5.31051 1.38838 0
M  V30 1729 H 169.444 -4.4198 -0.102924 0
M  V30 1730 N 168.503 -0.877838 -1.30888 0
M  V30 1731 C 169.466 -0.344265 -2.266 0
M  V30 1732 C 170.466 0.50922 -1.52524 0
M  V30 1733 O 171.656 0.317398 -1.71284 0
M  V30 1734 C 168.788 0.510198 -3.37061 0
M  V30 1735 H 169.981 -1.1893 -2.7531 0
M  V30 1736 H 167.534 -0.654088 -1.41956 0
M  V30 1737 H 168.269 1.37612 -2.93655 0
M  V30 1738 H 168.054 -0.101047 -3.9197 0
M  V30 1739 H 169.544 0.875537 -4.08319 0
M  V30 1740 N 169.982 1.44106 -0.638065 0
M  V30 1741 C 170.929 2.30715 0.062701 0
M  V30 1742 C 171.899 1.43882 0.829883 0
M  V30 1743 O 173.084 1.72775 0.809532 0
M  V30 1744 C 170.224 3.29258 1.03358 0
M  V30 1745 C 169.337 4.31192 0.26409 0
M  V30 1746 C 168.472 5.16825 1.22741 0
M  V30 1747 C 167.511 6.10462 0.447475 0
M  V30 1748 N 166.648 6.8877 1.36161 0
M  V30 1749 H 171.488 2.90096 -0.681781 0
M  V30 1750 H 169.025 1.42925 -0.347988 0
M  V30 1751 H 170.983 3.84886 1.60992 0
M  V30 1752 H 169.613 2.71562 1.74511 0
M  V30 1753 H 168.665 3.77981 -0.428295 0
M  V30 1754 H 169.977 4.97619 -0.343052 0
M  V30 1755 H 169.131 5.77004 1.87487 0
M  V30 1756 H 167.87 4.50488 1.86847 0
M  V30 1757 H 166.875 5.49386 -0.213433 0
M  V30 1758 H 168.1 6.78837 -0.188968 0
M  V30 1759 H 166.046 6.25096 1.98975 0
M  V30 1760 H 165.963 7.51663 0.808656 0
M  V30 1761 H 167.231 7.53467 1.99769 0
M  V30 1762 N 171.46 0.379036 1.52974 0
M  V30 1763 C 172.37 -0.468639 2.29872 0
M  V30 1764 C 173.386 -1.08067 1.36373 0
M  V30 1765 O 174.562 -1.08871 1.69438 0
M  V30 1766 C 171.627 -1.58594 3.083 0
M  V30 1767 C 170.688 -1.00007 4.17489 0
M  V30 1768 C 169.921 -2.06413 4.92168 0
M  V30 1769 O 170.144 -3.27751 4.66835 0
M  V30 1770 O 169.078 -1.68717 5.7777 0
M  V30 1771 H 172.904 0.157508 3.03291 0
M  V30 1772 H 170.489 0.143035 1.48714 0
M  V30 1773 H 172.371 -2.23525 3.57232 0
M  V30 1774 H 171.046 -2.19724 2.37703 0
M  V30 1775 H 169.953 -0.314299 3.72777 0
M  V30 1776 H 171.286 -0.433135 4.90291 0
M  V30 1777 N 172.938 -1.57226 0.108567 0
M  V30 1778 C 174.185 -1.94833 -0.551943 0
M  V30 1779 C 174.513 -0.991204 -1.67348 0
M  V30 1780 O 173.768 -0.0131878 -1.95696 0
M  V30 1781 C 174.067 -3.38911 -1.13463 0
M  V30 1782 C 173.733 -4.50696 -0.135509 0
M  V30 1783 C 172.395 -4.80998 0.139252 0
M  V30 1784 C 174.747 -5.18333 0.545957 0
M  V30 1785 C 172.075 -5.76259 1.10194 0
M  V30 1786 C 174.427 -6.14627 1.49721 0
M  V30 1787 C 173.091 -6.43327 1.78006 0
M  V30 1788 H 172.361 -0.712944 -0.20197 0
M  V30 1789 H 175.008 -1.90582 0.18726 0
M  V30 1790 H 173.313 -3.39805 -1.95037 0
M  V30 1791 H 175.01 -3.65317 -1.65362 0
M  V30 1792 H 171.6 -4.27087 -0.359846 0
M  V30 1793 H 175.784 -4.95087 0.346842 0
M  V30 1794 H 171.04 -5.96804 1.32795 0
M  V30 1795 H 175.214 -6.66126 2.03099 0
M  V30 1796 H 172.841 -7.1695 2.52759 0
M  V30 1797 N 174.416 0.165178 -1.56732 0
M  V30 1798 C 175.665 0.879143 -1.81532 0
M  V30 1799 C 175.978 1.83144 -0.686842 0
M  V30 1800 O 177.184 2.58823 -0.819944 0
M  V30 1801 C 175.64 1.61388 -3.21686 0
M  V30 1802 C 175.248 0.704904 -4.4242 0
M  V30 1803 C 176.992 2.3157 -3.55774 0
M  V30 1804 C 174.899 1.44022 -5.73595 0
M  V30 1805 H 173.829 0.332033 -0.676957 0
M  V30 1806 H 176.48 0.132008 -1.83025 0
M  V30 1807 H 174.862 2.40599 -3.14529 0
M  V30 1808 H 176.036 -0.0506815 -4.60772 0
M  V30 1809 H 174.351 0.112419 -4.16248 0
M  V30 1810 H 176.948 2.8719 -4.51028 0
M  V30 1811 H 177.291 3.07201 -2.8095 0
M  V30 1812 H 177.824 1.59297 -3.64513 0
M  V30 1813 H 174.563 0.72612 -6.51466 0
M  V30 1814 H 174.083 2.16898 -5.5921 0
M  V30 1815 H 175.762 1.98606 -6.15764 0
M  V30 1816 N 175.894 1.51508 0.433938 0
M  V30 1817 C 177.14 1.64588 1.18484 0
M  V30 1818 C 177.473 0.362666 1.90784 0
M  V30 1819 O 176.748 -0.637892 1.83742 0
M  V30 1820 C 177.031 2.85149 2.19913 0
M  V30 1821 C 176.884 4.23456 1.51674 0
M  V30 1822 C 178.203 3.01227 3.20858 0
M  V30 1823 H 175.322 0.598994 0.429389 0
M  V30 1824 H 177.964 1.84002 0.473647 0
M  V30 1825 H 176.114 2.68729 2.80566 0
M  V30 1826 H 177.786 4.51552 0.943322 0
M  V30 1827 H 176.029 4.25998 0.819035 0
M  V30 1828 H 176.7 5.03812 2.2556 0
M  V30 1829 H 179.176 3.16382 2.70263 0
M  V30 1830 H 178.052 3.87141 3.89118 0
M  V30 1831 H 178.313 2.13447 3.8716 0
M  V30 1832 N 177.372 -0.689602 1.41712 0
M  V30 1833 C 178.621 -1.44534 1.40686 0
M  V30 1834 C 178.934 -1.95588 0.0213352 0
M  V30 1835 O 180.14 -2.71271 -0.111534 0
M  V30 1836 C 178.596 -2.61387 2.47396 0
M  V30 1837 C 178.204 -2.17094 3.91885 0
M  V30 1838 C 179.948 -3.38986 2.55517 0
M  V30 1839 C 177.855 -3.3094 4.90135 0
M  V30 1840 H 176.785 -0.542925 0.52321 0
M  V30 1841 H 179.436 -0.748054 1.6756 0
M  V30 1842 H 177.818 -3.33412 2.13664 0
M  V30 1843 H 178.992 -1.52318 4.34897 0
M  V30 1844 H 177.307 -1.52473 3.8748 0
M  V30 1845 H 179.904 -4.23747 3.26102 0
M  V30 1846 H 180.247 -3.84578 1.59391 0
M  V30 1847 H 180.78 -2.74021 2.8837 0
M  V30 1848 H 177.519 -2.90355 5.87685 0
M  V30 1849 H 177.039 -3.94546 4.51767 0
M  V30 1850 H 178.718 -3.9663 5.11169 0
M  V30 1851 N 178.85 -1.27639 -0.924453 0
M  V30 1852 C 179.813 -1.10681 -2.00705 0
M  V30 1853 C 180.813 -0.0497823 -1.60723 0
M  V30 1854 O 182.003 -0.294654 -1.7169 0
M  V30 1855 C 179.135 -0.687164 -3.33902 0
M  V30 1856 H 180.328 -2.06817 -2.17179 0
M  V30 1857 H 177.881 -1.10473 -1.10569 0
M  V30 1858 H 178.616 0.275439 -3.23128 0
M  V30 1859 H 178.401 -1.45061 -3.6428 0
M  V30 1860 H 179.891 -0.590853 -4.13399 0
M  V30 1861 N 180.328 1.1314 -1.09713 0
M  V30 1862 C 181.605 1.80762 -0.747302 0
M  V30 1863 C 181.985 1.96663 0.767265 0
M  V30 1864 O 181.333 1.53706 1.69076 0
M  V30 1865 C 181.543 3.15606 -1.48975 0
M  V30 1866 C 182.891 3.90914 -1.65746 0
M  V30 1867 O 183.915 3.25239 -1.45251 0
M  V30 1868 O 182.774 5.08718 -1.9967 0
M  V30 1869 H 179.868 0.782103 -0.268782 0
M  V30 1870 H 182.414 1.20041 -1.19951 0
M  V30 1871 H 181.186 2.99278 -2.52088 0
M  V30 1872 H 180.809 3.84029 -1.02991 0
M  V30 1873 N 181.806 0.884767 1.30421 0
M  V30 1874 C 182.756 0.322846 2.25703 0
M  V30 1875 C 183.74 -0.548582 1.51259 0
M  V30 1876 O 184.932 -0.39304 1.72581 0
M  V30 1877 C 182.061 -0.461787 3.4018 0
M  V30 1878 C 181.147 0.423717 4.21978 0
M  V30 1879 N 181.538 1.52408 4.82292 0
M  V30 1880 C 179.836 0.218795 4.45463 0
M  V30 1881 C 180.537 2.07136 5.43571 0
M  V30 1882 N 179.513 1.36635 5.26148 0
M  V30 1883 H 183.315 1.16363 2.69883 0
M  V30 1884 H 180.829 0.73415 1.44859 0
M  V30 1885 H 182.826 -0.880985 4.07485 0
M  V30 1886 H 181.486 -1.30001 2.9754 0
M  V30 1887 H 182.497 1.90693 4.81515 0
M  V30 1888 H 179.174 -0.582275 4.1342 0
M  V30 1889 H 180.564 2.99538 6.01437 0
M  V30 1890 N 183.284 -1.43765 0.645699 0
M  V30 1891 C 184.512 -2.06253 0.163556 0
M  V30 1892 C 184.927 -1.48352 -1.16778 0
M  V30 1893 O 184.284 -0.611932 -1.71935 0
M  V30 1894 C 184.335 -3.61453 0.0583186 0
M  V30 1895 O 184.056 -4.172 1.33702 0
M  V30 1896 C 185.557 -4.41002 -0.450795 0
M  V30 1897 H 182.777 -0.665413 0.0864077 0
M  V30 1898 H 185.321 -1.84396 0.884222 0
M  V30 1899 H 183.476 -3.82522 -0.612865 0
M  V30 1900 H 183.89 -5.10791 1.19131 0
M  V30 1901 H 185.364 -5.49966 -0.473403 0
M  V30 1902 H 185.841 -4.13488 -1.48068 0
M  V30 1903 H 186.447 -4.24886 0.187637 0
M  V30 1904 N 184.763 -0.387143 -1.52771 0
M  V30 1905 C 185.71 0.449048 -2.26389 0
M  V30 1906 C 186.68 1.05961 -1.27912 0
M  V30 1907 O 187.865 1.08804 -1.56737 0
M  V30 1908 C 185.005 1.57155 -3.0724 0
M  V30 1909 C 184.118 0.984066 -4.20643 0
M  V30 1910 C 183.253 2.07745 -4.88892 0
M  V30 1911 C 182.292 1.46574 -5.94292 0
M  V30 1912 N 181.429 2.49834 -6.56146 0
M  V30 1913 H 186.269 -0.185205 -2.97424 0
M  V30 1914 H 183.806 -0.103164 -1.46738 0
M  V30 1915 H 185.764 2.23309 -3.52405 0
M  V30 1916 H 184.394 2.17615 -2.38419 0
M  V30 1917 H 183.446 0.212193 -3.79808 0
M  V30 1918 H 184.758 0.497029 -4.96318 0
M  V30 1919 H 183.912 2.81673 -5.3735 0
M  V30 1920 H 182.651 2.59807 -4.12737 0
M  V30 1921 H 181.656 0.711696 -5.45174 0
M  V30 1922 H 182.881 0.953088 -6.72379 0
M  V30 1923 H 180.827 3.0107 -5.82832 0
M  V30 1924 H 180.744 2.05879 -7.27427 0
M  V30 1925 H 182.012 3.23399 -7.09249 0
M  V30 1926 N 186.241 1.57166 -0.116904 0
M  V30 1927 C 187.188 2.15202 0.83408 0
M  V30 1928 C 188.158 1.07644 1.26499 0
M  V30 1929 O 189.343 1.35541 1.34288 0
M  V30 1930 C 186.483 2.75405 2.07957 0
M  V30 1931 C 185.596 3.97264 1.69721 0
M  V30 1932 C 184.731 4.45561 2.89221 0
M  V30 1933 C 183.77 5.59956 2.47215 0
M  V30 1934 N 182.907 6.03006 3.59622 0
M  V30 1935 H 187.747 2.96141 0.332335 0
M  V30 1936 H 185.284 1.46309 0.152349 0
M  V30 1937 H 187.242 3.08439 2.80929 0
M  V30 1938 H 185.872 1.97159 2.55594 0
M  V30 1939 H 184.924 3.70404 0.866316 0
M  V30 1940 H 186.236 4.80226 1.34849 0
M  V30 1941 H 185.39 4.80493 3.7042 0
M  V30 1942 H 184.129 3.61544 3.27318 0
M  V30 1943 H 183.134 5.2463 1.64448 0
M  V30 1944 H 184.359 6.45738 2.10238 0
M  V30 1945 H 182.305 5.21931 3.97396 0
M  V30 1946 H 182.222 6.80819 3.28667 0
M  V30 1947 H 183.49 6.42576 4.41267 0
M  V30 1948 N 187.719 -0.156864 1.56817 0
M  V30 1949 C 188.965 -0.872416 1.83076 0
M  V30 1950 C 189.298 -1.81261 0.697001 0
M  V30 1951 O 188.573 -1.92171 -0.30008 0
M  V30 1952 C 188.856 -1.65551 3.19789 0
M  V30 1953 C 188.709 -0.737467 4.43713 0
M  V30 1954 C 190.028 -2.62012 3.53606 0
M  V30 1955 H 187.147 -0.315715 0.665953 0
M  V30 1956 H 189.789 -0.138004 1.89498 0
M  V30 1957 H 187.939 -2.28159 3.14445 0
M  V30 1958 H 189.611 -0.123143 4.61136 0
M  V30 1959 H 187.854 -0.0464067 4.33775 0
M  V30 1960 H 188.525 -1.32122 5.35955 0
M  V30 1961 H 191.001 -2.09525 3.59497 0
M  V30 1962 H 189.877 -3.13861 4.50314 0
M  V30 1963 H 190.138 -3.42902 2.79053 0
M  V30 1964 N 189.197 -1.51736 -0.425897 0
M  V30 1965 C 190.608 -1.5732 -1.00536 0
M  V30 1966 C 190.959 -0.403537 -1.92005 0
M  V30 1967 O 190.084 0.478256 -2.11049 0
M  V30 1968 C 190.679 -2.85119 -1.8301 0
M  V30 1969 C 189.238 -2.93236 -2.35987 0
M  V30 1970 C 188.385 -2.52098 -1.15508 0
M  V30 1971 H 191.336 -1.57348 -0.206739 0
M  V30 1972 H 191.357 -2.69526 -2.68581 0
M  V30 1973 H 190.869 -3.7023 -1.16411 0
M  V30 1974 H 188.97 -2.12581 -3.06007 0
M  V30 1975 H 189.083 -3.9713 -2.68001 0
M  V30 1976 H 187.447 -2.05558 -1.50393 0
M  V30 1977 H 188.23 -3.39565 -0.505014 0
M  V30 1978 N 190.675 0.682077 -1.42076 0
M  V30 1979 C 191.921 1.44428 -1.42367 0
M  V30 1980 C 192.254 1.94164 -0.0373056 0
M  V30 1981 O 191.529 1.70429 0.937239 0
M  V30 1982 C 191.812 2.64654 -2.44194 0
M  V30 1983 C 191.665 2.20596 -3.91991 0
M  V30 1984 C 192.984 3.66865 -2.431 0
M  V30 1985 H 190.103 0.523834 -0.518428 0
M  V30 1986 H 192.745 0.77576 -1.73442 0
M  V30 1987 H 190.895 3.2169 -2.17826 0
M  V30 1988 H 192.567 1.68783 -4.29313 0
M  V30 1989 H 190.81 1.52242 -4.06208 0
M  V30 1990 H 191.481 3.06921 -4.58807 0
M  V30 1991 H 193.957 3.19531 -2.66532 0
M  V30 1992 H 192.833 4.48577 -3.16339 0
M  V30 1993 H 193.094 4.17493 -1.45437 0
M  V30 1994 N 192.153 1.28127 0.917671 0
M  V30 1995 C 193.083 1.14248 2.03641 0
M  V30 1996 C 194.064 0.0412748 1.7005 0
M  V30 1997 O 195.249 0.217566 1.92977 0
M  V30 1998 C 192.379 0.799431 3.37974 0
M  V30 1999 C 191.333 1.85497 3.85713 0
M  V30 2000 C 190.659 1.36565 5.16966 0
M  V30 2001 C 191.959 3.26085 4.08002 0
M  V30 2002 H 193.653 2.07835 2.15511 0
M  V30 2003 H 191.199 1.00064 1.03553 0
M  V30 2004 H 193.152 0.689114 4.15727 0
M  V30 2005 H 191.876 -0.172145 3.26146 0
M  V30 2006 H 190.535 1.95437 3.10161 0
M  V30 2007 H 190.183 0.383253 5.01538 0
M  V30 2008 H 189.883 2.07143 5.49878 0
M  V30 2009 H 191.407 1.26848 5.97279 0
M  V30 2010 H 192.821 3.19089 4.76293 0
M  V30 2011 H 191.218 3.94462 4.52238 0
M  V30 2012 H 192.288 3.70394 3.12948 0
M  V30 2013 N 193.631 -1.12557 1.10312 0
M  V30 2014 C 194.879 -1.83675 0.843091 0
M  V30 2015 C 195.2 -1.84435 -0.633131 0
M  V30 2016 O 194.47 -1.30657 -1.45964 0
M  V30 2017 H 193.05 -0.680138 0.308904 0
M  V30 2018 H 195.712 -1.36301 1.39313 0
M  V30 2019 H 194.808 -2.87908 1.2048 0
M  V30 2020 N 195.109 -0.891671 -1.2995 0
M  V30 2021 C 196.525 -0.58662 -1.48428 0
M  V30 2022 C 196.725 0.873951 -1.81561 0
M  V30 2023 O 195.781 1.65471 -1.90724 0
M  V30 2024 C 197.094 -1.50553 -2.60296 0
M  V30 2025 C 198.642 -1.50988 -2.74175 0
M  V30 2026 C 199.117 -2.41488 -3.89163 0
M  V30 2027 N 200.608 -2.39489 -3.96483 0
M  V30 2028 C 201.343 -3.06223 -4.84784 0
M  V30 2029 N 200.839 -3.82206 -5.77833 0
M  V30 2030 N 202.632 -2.95421 -4.78208 0
M  V30 2031 H 194.783 -1.83644 -1.06718 0
M  V30 2032 H 197.046 -0.786455 -0.529332 0
M  V30 2033 H 196.752 -2.54581 -2.42654 0
M  V30 2034 H 196.626 -1.22008 -3.56923 0
M  V30 2035 H 199.013 -0.47708 -2.91218 0
M  V30 2036 H 199.094 -1.83567 -1.78148 0
M  V30 2037 H 198.738 -3.44857 -3.72876 0
M  V30 2038 H 198.668 -2.06222 -4.84541 0
M  V30 2039 H 201.159 -1.84278 -3.29924 0
M  V30 2040 H 201.472 -4.302 -6.41988 0
M  V30 2041 H 199.817 -3.86313 -5.77743 0
M  V30 2042 H 203.008 -2.35581 -4.04499 0
M  V30 2043 H 203.181 -3.47704 -5.46814 0
M  V30 2044 N 196.587 1.43421 -0.653314 0
M  V30 2045 C 197.835 2.01414 -0.166415 0
M  V30 2046 C 198.156 1.51803 1.22397 0
M  V30 2047 O 197.426 0.730693 1.81763 0
M  V30 2048 H 196.006 0.744703 -0.0585319 0
M  V30 2049 H 198.668 1.75629 -0.845003 0
M  V30 2050 H 197.764 3.11734 -0.151111 0
M  V30 2051 N 198.065 0.39524 1.52563 0
M  V30 2052 C 199.476 -0.0774719 1.86539 0
M  V30 2053 C 199.827 -1.45641 1.31466 0
M  V30 2054 O 198.952 -2.06459 0.648367 0
M  V30 2055 C 199.547 -0.147356 3.38479 0
M  V30 2056 C 198.106 -0.564373 3.72145 0
M  V30 2057 C 197.253 0.269919 2.75983 0
M  V30 2058 H 200.204 0.612876 1.46388 0
M  V30 2059 H 200.225 -0.965343 3.68051 0
M  V30 2060 H 199.737 0.856387 3.78534 0
M  V30 2061 H 197.838 -1.57527 3.37663 0
M  V30 2062 H 197.951 -0.318402 4.78041 0
M  V30 2063 H 196.315 -0.265696 2.5331 0
M  V30 2064 H 197.098 1.27175 3.18875 0
M  V30 2065 N 199.544 -1.57102 0.125237 0
M  V30 2066 C 200.79 -1.95697 -0.532035 0
M  V30 2067 C 201.123 -1.009 -1.6593 0
M  V30 2068 O 200.398 -0.047347 -1.94442 0
M  V30 2069 C 200.681 -3.44181 -1.05884 0
M  V30 2070 C 200.534 -4.49752 0.0654392 0
M  V30 2071 C 201.853 -3.94655 -1.9477 0
M  V30 2072 H 198.972 -0.711571 -0.191925 0
M  V30 2073 H 201.614 -1.88923 0.20206 0
M  V30 2074 H 199.764 -3.50085 -1.68442 0
M  V30 2075 H 201.436 -4.55943 0.700982 0
M  V30 2076 H 199.679 -4.27653 0.727709 0
M  V30 2077 H 200.35 -5.50924 -0.344505 0
M  V30 2078 H 202.826 -3.91094 -1.42074 0
M  V30 2079 H 201.702 -4.99057 -2.28546 0
M  V30 2080 H 201.963 -3.35718 -2.87656 0
M  V30 2081 N 201.022 0.148545 -1.56898 0
M  V30 2082 C 202.433 0.708766 -1.72723 0
M  V30 2083 C 202.784 1.81734 -0.739395 0
M  V30 2084 O 201.909 2.16194 0.0943169 0
M  V30 2085 C 202.504 1.29245 -3.13179 0
M  V30 2086 C 201.063 1.79925 -3.30611 0
M  V30 2087 C 200.21 0.687111 -2.68652 0
M  V30 2088 H 203.161 -0.0771063 -1.58513 0
M  V30 2089 H 203.182 2.16224 -3.13093 0
M  V30 2090 H 202.694 0.485382 -3.85053 0
M  V30 2091 H 200.795 2.63203 -2.63732 0
M  V30 2092 H 200.908 1.92903 -4.38549 0
M  V30 2093 H 199.272 1.11335 -2.29078 0
M  V30 2094 H 200.055 -0.108483 -3.43129 0
M  V30 2095 N 202.5 1.5196 0.417844 0
M  V30 2096 C 203.746 1.65836 1.16732 0
M  V30 2097 C 204.079 0.382881 1.90388 0
M  V30 2098 O 203.354 -0.618368 1.84408 0
M  V30 2099 C 203.637 2.87466 2.16876 0
M  V30 2100 C 203.49 4.25041 1.47174 0
M  V30 2101 C 204.809 3.04613 3.17646 0
M  V30 2102 H 201.928 0.603515 0.423011 0
M  V30 2103 H 204.57 1.84494 0.454105 0
M  V30 2104 H 202.72 2.71689 2.777 0
M  V30 2105 H 204.392 4.52527 0.895376 0
M  V30 2106 H 202.635 4.26843 0.773806 0
M  V30 2107 H 203.306 5.06176 2.20204 0
M  V30 2108 H 205.782 3.1923 2.66892 0
M  V30 2109 H 204.658 3.91247 3.8499 0
M  V30 2110 H 204.919 2.17541 3.84874 0
M  V30 2111 N 203.978 -0.674533 1.42435 0
M  V30 2112 C 204.888 -1.81751 1.48337 0
M  V30 2113 C 205.904 -1.69975 0.372099 0
M  V30 2114 O 207.08 -1.91521 0.62304 0
M  V30 2115 C 204.145 -3.17895 1.38361 0
M  V30 2116 C 203.206 -3.41625 2.59982 0
M  V30 2117 C 202.439 -4.71274 2.50473 0
M  V30 2118 O 202.662 -5.49197 1.54075 0
M  V30 2119 O 201.596 -4.96254 3.4061 0
M  V30 2120 H 205.422 -1.79728 2.44809 0
M  V30 2121 H 203.007 -0.830312 1.24202 0
M  V30 2122 H 204.889 -3.99136 1.35161 0
M  V30 2123 H 203.564 -3.20555 0.450144 0
M  V30 2124 H 202.471 -2.60231 2.68757 0
M  V30 2125 H 203.804 -3.43796 3.52229 0
M  V30 2126 N 205.456 -1.28612 -0.910864 0
M  V30 2127 C 206.705 -1.15311 -1.65488 0
M  V30 2128 C 207.018 0.296999 -1.93332 0
M  V30 2129 O 208.224 0.551168 -2.65847 0
M  V30 2130 C 206.68 -2.01599 -2.98137 0
M  V30 2131 C 206.288 -3.51367 -2.7793 0
M  V30 2132 C 208.032 -1.96993 -3.76024 0
M  V30 2133 C 205.939 -4.29797 -4.06237 0
M  V30 2134 H 204.869 -0.42796 -0.620779 0
M  V30 2135 H 207.52 -1.53166 -1.01057 0
M  V30 2136 H 205.902 -1.56603 -3.63719 0
M  V30 2137 H 207.076 -4.0434 -2.21011 0
M  V30 2138 H 205.391 -3.57529 -2.13452 0
M  V30 2139 H 207.988 -2.52856 -4.71135 0
M  V30 2140 H 208.331 -0.94733 -4.05378 0
M  V30 2141 H 208.864 -2.39973 -3.17266 0
M  V30 2142 H 205.603 -5.32648 -3.82055 0
M  V30 2143 H 205.123 -3.81596 -4.62757 0
M  V30 2144 H 206.802 -4.39869 -4.74473 0
M  V30 2145 N 206.934 1.1197 -1.10907 0
M  V30 2146 C 208.18 1.8386 -0.855773 0
M  V30 2147 C 208.513 1.84134 0.617103 0
M  V30 2148 O 207.788 1.29041 1.45529 0
M  V30 2149 C 208.071 3.31305 -1.411 0
M  V30 2150 C 207.924 3.39456 -2.9511 0
M  V30 2151 C 209.243 4.2721 -1.05736 0
M  V30 2152 H 206.362 0.667545 -0.312334 0
M  V30 2153 H 209.004 1.31331 -1.37303 0
M  V30 2154 H 207.154 3.76169 -0.97105 0
M  V30 2155 H 208.826 3.03191 -3.47668 0
M  V30 2156 H 207.069 2.79849 -3.31462 0
M  V30 2157 H 207.74 4.43209 -3.29044 0
M  V30 2158 H 210.216 3.90497 -1.43706 0
M  V30 2159 H 209.092 5.28775 -1.47269 0
M  V30 2160 H 209.353 4.42088 0.0325958 0
M  V30 2161 N 208.412 0.89855 1.29475 0
M  V30 2162 C 209.823 0.572537 1.77705 0
M  V30 2163 C 210.174 -0.911778 1.73727 0
M  V30 2164 O 209.299 -1.71288 1.32247 0
M  V30 2165 C 209.894 1.03252 3.22683 0
M  V30 2166 C 208.453 0.757687 3.68695 0
M  V30 2167 C 207.6 1.20787 2.49612 0
M  V30 2168 H 210.551 1.08139 1.16153 0
M  V30 2169 H 210.572 0.367307 3.78723 0
M  V30 2170 H 210.084 2.11285 3.25546 0
M  V30 2171 H 208.185 -0.310079 3.71308 0
M  V30 2172 H 208.298 1.35476 4.59547 0
M  V30 2173 H 206.662 0.626888 2.46865 0
M  V30 2174 H 207.445 2.29622 2.55203 0
M  V30 2175 N 209.89 -1.43072 0.660911 0
M  V30 2176 C 211.137 -2.01721 0.177445 0
M  V30 2177 C 211.465 -1.5218 -1.21126 0
M  V30 2178 O 210.72 -0.708659 -1.82419 0
M  V30 2179 C 211.019 -3.57103 0.145563 0
M  V30 2180 C 210.685 -4.26021 1.47705 0
M  V30 2181 C 209.347 -4.44563 1.84165 0
M  V30 2182 C 211.699 -4.64983 2.35458 0
M  V30 2183 C 209.027 -4.99334 3.0803 0
M  V30 2184 C 211.379 -5.21127 3.58622 0
M  V30 2185 C 210.043 -5.37884 3.95268 0
M  V30 2186 H 209.313 -0.73815 0.0649317 0
M  V30 2187 H 211.96 -1.71446 0.853144 0
M  V30 2188 H 210.265 -3.86965 -0.61361 0
M  V30 2189 H 211.962 -4.00248 -0.2455 0
M  V30 2190 H 208.552 -4.11939 1.18339 0
M  V30 2191 H 212.736 -4.50343 2.08579 0
M  V30 2192 H 207.992 -5.10493 3.36462 0
M  V30 2193 H 212.166 -5.50262 4.26831 0
M  V30 2194 H 209.793 -5.80089 4.91325 0
M  V30 2195 N 211.368 -0.403325 -1.52352 0
M  V30 2196 C 212.616 0.174003 -2.0135 0
M  V30 2197 C 212.937 1.46139 -1.29106 0
M  V30 2198 O 212.207 1.91448 -0.415253 0
M  V30 2199 H 210.787 0.0672911 -0.743963 0
M  V30 2200 H 213.449 -0.538235 -1.87321 0
M  V30 2201 H 212.545 0.374254 -3.09848 0
M  V30 2202 N 212.846 1.57033 -0.133567 0
M  V30 2203 C 214.076 1.99754 0.527429 0
M  V30 2204 C 214.484 1.01245 1.59832 0
M  V30 2205 O 213.827 -0.000645496 1.837 0
M  V30 2206 C 213.889 3.38903 1.19939 0
M  V30 2207 C 213.553 4.56174 0.274709 0
M  V30 2208 C 214.55 5.17563 -0.492398 0
M  V30 2209 C 212.235 5.01972 0.18153 0
M  V30 2210 C 214.229 6.2315 -1.34027 0
M  V30 2211 C 211.916 6.07416 -0.669958 0
M  V30 2212 C 212.914 6.67874 -1.42947 0
M  V30 2213 O 212.602 7.71279 -2.2668 0
M  V30 2214 H 212.334 0.660702 0.142999 0
M  V30 2215 H 214.888 2.04207 -0.221099 0
M  V30 2216 H 213.118 3.31248 1.99528 0
M  V30 2217 H 214.807 3.65818 1.75875 0
M  V30 2218 H 215.573 4.83087 -0.430367 0
M  V30 2219 H 211.452 4.54652 0.762422 0
M  V30 2220 H 214.996 6.70268 -1.93357 0
M  V30 2221 H 210.893 6.41321 -0.73333 0
M  V30 2222 H 211.661 7.88441 -2.1978 0
M  V30 2223 N 214.325 -0.140222 1.56975 0
M  V30 2224 C 215.741 -0.493088 1.51792 0
M  V30 2225 C 215.941 -1.83013 0.843116 0
M  V30 2226 O 214.997 -2.49041 0.416493 0
M  V30 2227 C 216.31 -0.497144 2.96562 0
M  V30 2228 C 217.858 -0.582186 3.07538 0
M  V30 2229 C 218.333 -0.616838 4.53827 0
M  V30 2230 N 219.824 -0.678873 4.58198 0
M  V30 2231 C 220.559 -0.726782 5.68775 0
M  V30 2232 N 220.055 -0.733623 6.88905 0
M  V30 2233 N 221.848 -0.768179 5.56826 0
M  V30 2234 H 213.999 0.736108 1.99237 0
M  V30 2235 H 216.262 0.269182 0.90898 0
M  V30 2236 H 215.968 0.417217 3.49217 0
M  V30 2237 H 215.842 -1.33263 3.52875 0
M  V30 2238 H 218.229 -1.48697 2.54899 0
M  V30 2239 H 218.31 0.280581 2.54257 0
M  V30 2240 H 217.954 0.283812 5.07106 0
M  V30 2241 H 217.884 -1.49619 5.04898 0
M  V30 2242 H 220.375 -0.68061 3.7172 0
M  V30 2243 H 220.688 -0.772215 7.68932 0
M  V30 2244 H 219.033 -0.701389 6.91452 0
M  V30 2245 H 222.224 -0.760051 4.61888 0
M  V30 2246 H 222.397 -0.80205 6.43017 0
M  V30 2247 N 215.803 -1.52179 -0.40978 0
M  V30 2248 C 216.766 -1.74853 -1.48186 0
M  V30 2249 C 217.766 -0.618417 -1.48433 0
M  V30 2250 O 218.956 -0.886286 -1.49969 0
M  V30 2251 C 216.088 -1.8303 -2.87598 0
M  V30 2252 H 217.281 -2.70559 -1.29374 0
M  V30 2253 H 214.834 -1.42586 -0.640233 0
M  V30 2254 H 215.569 -0.89236 -3.11781 0
M  V30 2255 H 215.354 -2.65187 -2.88822 0
M  V30 2256 H 216.844 -2.02316 -3.65319 0
M  V30 2257 N 217.281 0.66697 -1.42791 0
M  V30 2258 C 218.509 1.45505 -1.47091 0
M  V30 2259 C 218.924 1.8861 -0.0845873 0
M  V30 2260 O 218.281 1.58632 0.90234 0
M  V30 2261 C 218.332 2.69906 -2.40485 0
M  V30 2262 O 218.053 2.28608 -3.73725 0
M  V30 2263 C 219.554 3.63396 -2.53886 0
M  V30 2264 H 216.774 0.447459 -0.500022 0
M  V30 2265 H 219.318 0.818866 -1.8739 0
M  V30 2266 H 217.473 3.29696 -2.03419 0
M  V30 2267 H 217.887 3.08997 -4.23817 0
M  V30 2268 H 219.361 4.47387 -3.2334 0
M  V30 2269 H 219.838 4.09824 -1.57927 0
M  V30 2270 H 220.444 3.09495 -2.91706 0
M  V30 2271 N 218.759 1.29093 0.90403 0
M  V30 2272 C 219.689 1.16401 2.02418 0
M  V30 2273 C 220.67 0.0593085 1.69997 0
M  V30 2274 O 221.855 0.238021 1.92736 0
M  V30 2275 C 218.985 0.835233 3.37107 0
M  V30 2276 C 217.939 1.89578 3.83724 0
M  V30 2277 C 217.265 1.42041 5.15489 0
M  V30 2278 C 218.565 3.30394 4.04521 0
M  V30 2279 H 220.259 2.10109 2.13295 0
M  V30 2280 H 217.805 1.01157 1.02486 0
M  V30 2281 H 219.758 0.733169 4.14973 0
M  V30 2282 H 218.482 -0.137543 3.2631 0
M  V30 2283 H 217.141 1.98715 3.08071 0
M  V30 2284 H 216.789 0.436426 5.01103 0
M  V30 2285 H 216.489 2.12964 5.4765 0
M  V30 2286 H 218.013 1.33176 5.959 0
M  V30 2287 H 219.427 3.24123 4.72882 0
M  V30 2288 H 217.824 3.99237 4.48029 0
M  V30 2289 H 218.894 3.73692 3.09002 0
M  V30 2290 N 220.237 -1.11381 1.11499 0
M  V30 2291 C 221.184 -2.17439 0.773887 0
M  V30 2292 C 222.154 -1.64132 -0.254899 0
M  V30 2293 O 223.339 -1.90345 -0.13168 0
M  V30 2294 C 220.479 -3.44373 0.223917 0
M  V30 2295 C 219.592 -4.1168 1.30934 0
M  V30 2296 C 218.727 -5.263 0.71984 0
M  V30 2297 C 217.766 -5.85493 1.78507 0
M  V30 2298 N 216.903 -6.91507 1.21502 0
M  V30 2299 H 221.743 -2.45962 1.68246 0
M  V30 2300 H 219.28 -1.20744 0.840191 0
M  V30 2301 H 221.238 -4.17047 -0.112921 0
M  V30 2302 H 219.868 -3.16232 -0.647851 0
M  V30 2303 H 218.92 -3.37073 1.76312 0
M  V30 2304 H 220.232 -4.51729 2.11524 0
M  V30 2305 H 219.386 -6.05785 0.333094 0
M  V30 2306 H 218.125 -4.87559 -0.117377 0
M  V30 2307 H 217.13 -5.04686 2.18111 0
M  V30 2308 H 218.355 -6.26301 2.62533 0
M  V30 2309 H 216.301 -6.54783 0.399455 0
M  V30 2310 H 216.218 -7.30214 1.95763 0
M  V30 2311 H 217.486 -7.74795 0.855181 0
M  V30 2312 N 221.715 -0.905404 -1.28997 0
M  V30 2313 C 222.678 -0.392253 -2.25819 0
M  V30 2314 C 223.678 0.476753 -1.5357 0
M  V30 2315 O 224.868 0.280994 -1.71919 0
M  V30 2316 C 222 0.438588 -3.38067 0
M  V30 2317 H 223.193 -1.24743 -2.72725 0
M  V30 2318 H 220.746 -0.684051 -1.40536 0
M  V30 2319 H 221.481 1.31352 -2.96508 0
M  V30 2320 H 221.266 -0.184167 -3.91667 0
M  V30 2321 H 222.756 0.78873 -4.10084 0
M  V30 2322 N 223.193 1.4272 -0.668489 0
M  V30 2323 C 224.442 2.00846 -0.185389 0
M  V30 2324 C 224.755 1.53442 1.21305 0
M  V30 2325 O 225.961 2.03944 1.79218 0
M  V30 2326 C 224.417 3.58805 -0.280591 0
M  V30 2327 C 224.025 4.15198 -1.68268 0
M  V30 2328 C 225.769 4.24255 0.14412 0
M  V30 2329 C 223.676 5.655 -1.73099 0
M  V30 2330 H 222.606 0.751145 -0.0655475 0
M  V30 2331 H 225.257 1.63516 -0.832752 0
M  V30 2332 H 223.639 3.93608 0.434553 0
M  V30 2333 H 224.813 3.91866 -2.42441 0
M  V30 2334 H 223.128 3.62176 -2.05469 0
M  V30 2335 H 225.725 5.34547 0.128086 0
M  V30 2336 H 226.068 3.99277 1.17827 0
M  V30 2337 H 226.601 3.94389 -0.519798 0
M  V30 2338 H 223.34 5.95268 -2.74475 0
M  V30 2339 H 222.86 5.90842 -1.03274 0
M  V30 2340 H 224.539 6.29808 -1.48158 0
M  V30 2341 N 224.671 0.411399 1.52136 0
M  V30 2342 C 225.634 -0.401089 2.25663 0
M  V30 2343 C 226.634 -0.971732 1.28117 0
M  V30 2344 O 227.824 -0.850254 1.52041 0
M  V30 2345 C 224.956 -1.56483 3.02863 0
M  V30 2346 H 226.149 0.24295 2.98914 0
M  V30 2347 H 223.702 0.163968 1.55438 0
M  V30 2348 H 224.437 -2.24567 2.33967 0
M  V30 2349 H 224.222 -1.16211 3.74483 0
M  V30 2350 H 225.712 -2.13951 3.58629 0
M  V30 2351 N 226.149 -1.5696 0.141893 0
M  V30 2352 C 227.426 -1.87553 -0.555281 0
M  V30 2353 C 227.806 -1.04699 -1.83306 0
M  V30 2354 O 227.154 -0.132346 -2.28116 0
M  V30 2355 C 227.364 -3.39093 -0.825664 0
M  V30 2356 C 228.712 -4.08199 -1.16869 0
M  V30 2357 O 229.736 -3.44242 -0.915185 0
M  V30 2358 O 228.595 -5.21139 -1.6455 0
M  V30 2359 H 225.689 -0.777188 -0.282679 0
M  V30 2360 H 228.235 -1.68763 0.17812 0
M  V30 2361 H 227.007 -3.91221 0.0788633 0
M  V30 2362 H 226.63 -3.63393 -1.61343 0
M  V30 2363 N 227.627 0.131896 -1.57047 0
M  V30 2364 C 228.557 1.16384 -2.02428 0
M  V30 2365 C 229.538 1.43936 -0.90644 0
M  V30 2366 O 230.723 1.54599 -1.17528 0
M  V30 2367 C 227.853 2.49328 -2.4177 0
M  V30 2368 C 226.807 2.36266 -3.56879 0
M  V30 2369 C 226.133 3.74057 -3.8208 0
M  V30 2370 C 227.433 1.834 -4.89042 0
M  V30 2371 H 229.127 0.786433 -2.88887 0
M  V30 2372 H 226.673 0.376855 -1.38981 0
M  V30 2373 H 228.626 3.21759 -2.7212 0
M  V30 2374 H 227.35 2.88934 -1.52266 0
M  V30 2375 H 226.009 1.66286 -3.26718 0
M  V30 2376 H 225.657 4.11125 -2.89803 0
M  V30 2377 H 225.357 3.66174 -4.59554 0
M  V30 2378 H 226.881 4.48012 -4.1487 0
M  V30 2379 H 228.295 2.45636 -5.18011 0
M  V30 2380 H 226.692 1.8637 -5.70426 0
M  V30 2381 H 227.762 0.790662 -4.7841 0
M  V30 2382 N 229.106 1.52395 0.401703 0
M  V30 2383 C 230.354 1.66488 1.14569 0
M  V30 2384 C 230.675 0.400897 1.90835 0
M  V30 2385 O 229.945 -0.584415 1.8698 0
M  V30 2386 H 228.525 0.613672 0.425929 0
M  V30 2387 H 231.187 1.89464 0.457093 0
M  V30 2388 H 230.283 2.50942 1.85566 0
M  V30 2389 N 230.584 -0.659388 1.43143 0
M  V30 2390 C 231.832 -1.41654 1.44147 0
M  V30 2391 C 232.153 -1.94893 0.0645739 0
M  V30 2392 O 231.423 -1.74044 -0.899198 0
M  V30 2393 H 230.003 -0.525708 0.530697 0
M  V30 2394 H 232.665 -0.778097 1.78694 0
M  V30 2395 H 231.761 -2.26195 2.1504 0
M  V30 2396 N 232.062 -1.29571 -0.897171 0
M  V30 2397 C 232.972 -1.16808 -2.03453 0
M  V30 2398 C 233.988 -0.0907471 -1.73763 0
M  V30 2399 O 235.164 -0.303312 -1.99103 0
M  V30 2400 C 232.229 -0.848264 -3.36163 0
M  V30 2401 C 231.29 -2.0097 -3.79354 0
M  V30 2402 C 230.523 -1.70505 -5.05731 0
M  V30 2403 O 230.746 -0.62718 -5.66941 0
M  V30 2404 O 229.68 -2.5538 -5.45036 0
M  V30 2405 H 233.506 -2.12325 -2.17144 0
M  V30 2406 H 231.091 -1.09047 -1.02123 0
M  V30 2407 H 232.973 -0.684581 -4.15802 0
M  V30 2408 H 231.648 0.0771071 -3.23608 0
M  V30 2409 H 230.555 -2.22863 -3.00471 0
M  V30 2410 H 231.888 -2.91636 -3.96496 0
M  V30 2411 N 233.54 1.10788 -1.12088 0
M  V30 2412 C 234.951 1.64181 -0.88891 0
M  V30 2413 C 235.302 1.87508 0.577498 0
M  V30 2414 O 234.427 1.61434 1.44112 0
M  V30 2415 C 235.022 2.98257 -1.60712 0
M  V30 2416 C 233.581 3.4853 -1.42139 0
M  V30 2417 C 232.728 2.23208 -1.6454 0
M  V30 2418 H 235.679 0.943368 -1.27618 0
M  V30 2419 H 235.7 3.65552 -1.05604 0
M  V30 2420 H 235.212 2.81246 -2.67436 0
M  V30 2421 H 233.313 3.70692 -0.376552 0
M  V30 2422 H 233.426 4.26882 -2.17505 0
M  V30 2423 H 231.79 2.31169 -1.06925 0
M  V30 2424 H 232.573 2.08733 -2.72554 0
M  V30 2425 N 235.018 0.912232 1.28515 0
M  V30 2426 C 235.928 0.404506 2.31086 0
M  V30 2427 C 236.944 -0.50707 1.66448 0
M  V30 2428 O 238.12 -0.393624 1.97516 0
M  V30 2429 C 235.185 -0.348572 3.44943 0
M  V30 2430 C 234.246 0.59604 4.25142 0
M  V30 2431 C 233.479 -0.121194 5.33562 0
M  V30 2432 O 233.702 -1.34317 5.5436 0
M  V30 2433 O 232.636 0.542716 5.99448 0
M  V30 2434 H 236.462 1.25579 2.76521 0
M  V30 2435 H 234.047 0.676998 1.33181 0
M  V30 2436 H 235.929 -0.77395 4.14232 0
M  V30 2437 H 234.604 -1.17571 3.01594 0
M  V30 2438 H 233.511 1.07079 3.58448 0
M  V30 2439 H 234.844 1.38995 4.72167 0
M  V30 2440 N 236.496 -1.42363 0.676048 0
M  V30 2441 C 237.426 -2.33497 0.0124832 0
M  V30 2442 C 238.407 -1.50748 -0.787981 0
M  V30 2443 O 239.592 -1.79346 -0.744884 0
M  V30 2444 C 236.722 -3.34377 -0.938582 0
M  V30 2445 C 235.676 -4.27289 -0.246622 0
M  V30 2446 C 235.002 -5.18386 -1.31071 0
M  V30 2447 C 236.302 -5.14916 0.875125 0
M  V30 2448 H 237.996 -2.89233 0.773593 0
M  V30 2449 H 235.542 -1.39073 0.37346 0
M  V30 2450 H 237.495 -3.97044 -1.41188 0
M  V30 2451 H 236.219 -2.76947 -1.73113 0
M  V30 2452 H 234.878 -3.66018 0.206456 0
M  V30 2453 H 234.526 -4.57282 -2.09528 0
M  V30 2454 H 234.226 -5.81378 -0.852839 0
M  V30 2455 H 235.75 -5.83929 -1.78492 0
M  V30 2456 H 237.164 -5.71262 0.482983 0
M  V30 2457 H 235.561 -5.86747 1.25887 0
M  V30 2458 H 236.631 -4.53242 1.72335 0
M  V30 2459 N 237.974 -0.419461 -1.51915 0
M  V30 2460 C 239.39 -0.0708431 -1.59443 0
M  V30 2461 C 239.59 1.41796 -1.43164 0
M  V30 2462 O 238.646 2.18596 -1.26381 0
M  V30 2463 C 239.959 -0.574991 -2.95151 0
M  V30 2464 C 241.507 -0.533867 -3.08413 0
M  V30 2465 C 241.982 -1.01469 -4.46618 0
M  V30 2466 N 243.473 -0.971939 -4.52888 0
M  V30 2467 C 244.208 -1.31505 -5.58116 0
M  V30 2468 N 243.704 -1.73014 -6.70849 0
M  V30 2469 N 245.497 -1.23436 -5.48379 0
M  V30 2470 H 237.648 -1.38836 -1.60743 0
M  V30 2471 H 239.911 -0.570998 -0.756747 0
M  V30 2472 H 239.617 -1.61597 -3.12377 0
M  V30 2473 H 239.491 0.00979777 -3.77199 0
M  V30 2474 H 241.878 0.498086 -2.90866 0
M  V30 2475 H 241.959 -1.15484 -2.28248 0
M  V30 2476 H 241.603 -2.04502 -4.6491 0
M  V30 2477 H 241.533 -0.370433 -5.25295 0
M  V30 2478 H 244.024 -0.666893 -3.71969 0
M  V30 2479 H 244.337 -1.97479 -7.47143 0
M  V30 2480 H 242.682 -1.76926 -6.72103 0
M  V30 2481 H 245.873 -0.908869 -4.59192 0
M  V30 2482 H 246.046 -1.50506 -6.30279 0
M  V30 2483 N 239.452 1.56882 -0.150215 0
M  V30 2484 C 240.385 2.12712 0.826358 0
M  V30 2485 C 241.363 1.05154 1.24022 0
M  V30 2486 O 242.547 1.33004 1.33575 0
M  V30 2487 C 239.674 2.64945 2.11002 0
M  V30 2488 C 238.72 3.8468 1.84183 0
M  V30 2489 S 239.553 5.25502 1.02995 0
M  V30 2490 C 240.709 5.81125 2.32474 0
M  V30 2491 H 240.942 2.95214 0.351598 0
M  V30 2492 H 238.475 1.54267 0.0641211 0
M  V30 2493 H 240.433 2.95689 2.84742 0
M  V30 2494 H 239.094 1.82568 2.55593 0
M  V30 2495 H 238.287 4.19482 2.79375 0
M  V30 2496 H 237.889 3.54714 1.1855 0
M  V30 2497 H 240.181 5.92753 3.281 0
M  V30 2498 H 241.124 6.78625 2.02171 0
M  V30 2499 H 241.532 5.09392 2.43269 0
M  V30 2500 N 240.93 -0.123565 1.57115 0
M  V30 2501 C 242.207 -0.862196 1.75572 0
M  V30 2502 C 242.587 -1.98279 0.724475 0
M  V30 2503 O 241.935 -2.27102 -0.252407 0
M  V30 2504 C 242.145 -1.38309 3.20424 0
M  V30 2505 C 243.493 -1.83724 3.82793 0
M  V30 2506 O 244.517 -1.47999 3.23998 0
M  V30 2507 O 243.376 -2.49685 4.86127 0
M  V30 2508 H 240.47 -0.409113 0.718718 0
M  V30 2509 H 243.016 -0.107661 1.69358 0
M  V30 2510 H 241.788 -0.578889 3.86994 0
M  V30 2511 H 241.411 -2.20046 3.31158 0
M  V30 2512 N 242.408 -1.52605 -0.393616 0
M  V30 2513 C 243.656 -1.67093 -1.13685 0
M  V30 2514 C 243.977 -0.411011 -1.90619 0
M  V30 2515 O 243.247 0.574491 -1.87287 0
M  V30 2516 H 241.827 -0.615923 -0.422668 0
M  V30 2517 H 244.489 -1.89704 -0.447039 0
M  V30 2518 H 243.585 -2.51922 -1.84232 0
M  V30 2519 N 243.887 0.651787 -1.4349 0
M  V30 2520 C 245.164 1.40909 -1.35661 0
M  V30 2521 C 245.544 2.11099 -0.00511733 0
M  V30 2522 O 244.892 2.04892 1.0115 0
M  V30 2523 C 245.102 2.3926 -2.54078 0
M  V30 2524 C 246.45 3.03217 -2.97228 0
M  V30 2525 O 247.474 2.49588 -2.54135 0
M  V30 2526 O 246.333 4.00455 -3.71885 0
M  V30 2527 H 243.427 0.629625 -0.536191 0
M  V30 2528 H 245.973 0.678575 -1.55542 0
M  V30 2529 H 244.745 1.86352 -3.44076 0
M  V30 2530 H 244.368 3.1976 -2.36303 0
M  V30 2531 N 245.365 1.30045 0.890287 0
M  V30 2532 C 246.275 1.17885 2.02831 0
M  V30 2533 C 247.291 0.0999609 1.73713 0
M  V30 2534 O 248.467 0.313867 1.98939 0
M  V30 2535 C 245.532 0.866079 3.35708 0
M  V30 2536 C 244.593 2.02979 3.78283 0
M  V30 2537 C 243.826 1.73184 5.0482 0
M  V30 2538 O 244.049 0.657237 5.66601 0
M  V30 2539 O 242.983 2.58267 5.43674 0
M  V30 2540 H 246.809 2.13474 2.16015 0
M  V30 2541 H 244.394 1.09587 1.01543 0
M  V30 2542 H 246.276 0.706623 4.15433 0
M  V30 2543 H 244.951 -0.0599443 3.23644 0
M  V30 2544 H 243.858 2.24454 2.99285 0
M  V30 2545 H 245.191 2.93734 3.94944 0
M  V30 2546 N 246.843 -1.10192 1.12674 0
M  V30 2547 C 248.09 -1.82205 0.883606 0
M  V30 2548 C 248.418 -1.8532 -0.590492 0
M  V30 2549 O 247.673 -1.31137 -1.45264 0
M  V30 2550 C 247.972 -3.28552 1.4067 0
M  V30 2551 C 247.638 -3.45582 2.89627 0
M  V30 2552 C 246.3 -3.49937 3.30299 0
M  V30 2553 C 248.652 -3.50768 3.85501 0
M  V30 2554 C 245.98 -3.57049 4.65546 0
M  V30 2555 C 248.332 -3.59414 5.20581 0
M  V30 2556 C 246.996 -3.62034 5.60792 0
M  V30 2557 H 246.266 -0.666735 0.323334 0
M  V30 2558 H 248.913 -1.29868 1.40736 0
M  V30 2559 H 247.218 -3.83473 0.80347 0
M  V30 2560 H 248.915 -3.82788 1.19475 0
M  V30 2561 H 245.505 -3.42871 2.57172 0
M  V30 2562 H 249.689 -3.46651 3.55171 0
M  V30 2563 H 244.945 -3.57361 4.96088 0
M  V30 2564 H 249.119 -3.62371 5.94693 0
M  V30 2565 H 246.746 -3.67298 6.6558 0
M  V30 2566 N 248.321 -0.919034 -1.28029 0
M  V30 2567 C 249.551 -0.570143 -1.98577 0
M  V30 2568 C 249.959 0.854172 -1.68821 0
M  V30 2569 O 249.302 1.57807 -0.940351 0
M  V30 2570 C 249.364 -0.705734 -3.52505 0
M  V30 2571 C 249.028 -2.10057 -4.05863 0
M  V30 2572 C 250.025 -3.07385 -4.19298 0
M  V30 2573 C 247.71 -2.41517 -4.40426 0
M  V30 2574 C 249.704 -4.34287 -4.66555 0
M  V30 2575 C 247.391 -3.68657 -4.87376 0
M  V30 2576 C 248.389 -4.64856 -5.00398 0
M  V30 2577 O 248.077 -5.89735 -5.46322 0
M  V30 2578 H 247.809 -0.215592 -0.6407 0
M  V30 2579 H 250.363 -1.23583 -1.64062 0
M  V30 2580 H 248.593 0.0170414 -3.86696 0
M  V30 2581 H 250.282 -0.363172 -4.04272 0
M  V30 2582 H 251.048 -2.84398 -3.92865 0
M  V30 2583 H 246.927 -1.67389 -4.29537 0
M  V30 2584 H 250.471 -5.09377 -4.76635 0
M  V30 2585 H 246.368 -3.91466 -5.13249 0
M  V30 2586 H 247.136 -5.92599 -5.64596 0
M  V30 2587 N 249.799 1.42003 -0.683588 0
M  V30 2588 C 251.046 2.01413 -0.209514 0
M  V30 2589 C 251.374 1.54088 1.1869 0
M  V30 2590 O 250.629 0.737591 1.81268 0
M  V30 2591 C 250.928 3.56827 -0.202357 0
M  V30 2592 C 250.594 4.23617 -1.54464 0
M  V30 2593 C 249.256 4.41577 -1.91215 0
M  V30 2594 C 251.608 4.61178 -2.42826 0
M  V30 2595 C 248.936 4.9437 -3.15935 0
M  V30 2596 C 251.288 5.15355 -3.66867 0
M  V30 2597 C 249.952 5.31528 -4.03776 0
M  V30 2598 H 249.222 0.737023 -0.0766668 0
M  V30 2599 H 251.869 1.70067 -0.880312 0
M  V30 2600 H 250.174 3.87892 0.551969 0
M  V30 2601 H 251.871 4.00588 0.181793 0
M  V30 2602 H 248.461 4.10004 -1.24877 0
M  V30 2603 H 252.645 4.46968 -2.15717 0
M  V30 2604 H 247.901 5.05076 -3.44541 0
M  V30 2605 H 252.075 5.43402 -4.35531 0
M  V30 2606 H 249.702 5.72199 -5.00492 0
M  V30 2607 N 251.277 0.427512 1.51691 0
M  V30 2608 C 252.505 -0.141191 2.06418 0
M  V30 2609 C 252.92 -1.37303 1.29589 0
M  V30 2610 O 252.277 -1.79059 0.352732 0
M  V30 2611 C 252.328 -0.473266 3.58389 0
M  V30 2612 O 252.049 0.709673 4.32314 0
M  V30 2613 C 253.55 -1.09371 4.29596 0
M  V30 2614 H 250.77 -0.0122747 0.670888 0
M  V30 2615 H 253.314 0.603764 1.95384 0
M  V30 2616 H 251.469 -1.16812 3.69369 0
M  V30 2617 H 251.883 0.42807 5.2275 0
M  V30 2618 H 253.357 -1.27613 5.37046 0
M  V30 2619 H 253.834 -2.072 3.87253 0
M  V30 2620 H 254.44 -0.43853 4.23033 0
M  V30 2621 N 252.755 -1.56801 0.158532 0
M  V30 2622 C 254.032 -1.88131 -0.535357 0
M  V30 2623 C 254.412 -1.06638 -1.82186 0
M  V30 2624 O 253.76 -0.156533 -2.27963 0
M  V30 2625 C 253.97 -3.39949 -0.789653 0
M  V30 2626 C 255.318 -4.09416 -1.12533 0
M  V30 2627 O 256.342 -3.45194 -0.878622 0
M  V30 2628 O 255.201 -5.22855 -1.59014 0
M  V30 2629 H 252.295 -0.780143 -0.27442 0
M  V30 2630 H 254.841 -1.68564 0.19601 0
M  V30 2631 H 253.613 -3.91115 0.120353 0
M  V30 2632 H 253.236 -3.65084 -1.57479 0
M  V30 2633 N 254.233 0.115231 -1.57178 0
M  V30 2634 C 255.481 0.820727 -1.84685 0
M  V30 2635 C 255.802 1.80237 -0.744279 0
M  V30 2636 O 255.072 1.94529 0.231375 0
M  V30 2637 H 253.652 0.306084 -0.681411 0
M  V30 2638 H 256.314 0.101656 -1.94635 0
M  V30 2639 H 255.41 1.36366 -2.80733 0
M  V30 2640 N 255.711 1.52812 0.385517 0
M  V30 2641 C 256.959 1.67694 1.12797 0
M  V30 2642 C 257.28 0.421115 1.90399 0
M  V30 2643 O 256.55 -0.564551 1.87589 0
M  V30 2644 H 255.13 0.618155 0.419396 0
M  V30 2645 H 257.792 1.89938 0.436972 0
M  V30 2646 H 256.888 2.52896 1.82894 0
M  V30 2647 N 257.189 -0.644168 1.43834 0
M  V30 2648 C 258.139 -1.7501 1.46135 0
M  V30 2649 C 259.123 -1.57507 0.328685 0
M  V30 2650 O 260.315 -1.67465 0.5731 0
M  V30 2651 C 257.444 -3.13641 1.39585 0
M  V30 2652 C 256.53 -3.3666 2.57916 0
M  V30 2653 N 256.921 -3.30107 3.83227 0
M  V30 2654 C 255.219 -3.67411 2.52834 0
M  V30 2655 C 255.92 -3.53456 4.61999 0
M  V30 2656 N 254.896 -3.75705 3.9287 0
M  V30 2657 H 258.698 -1.68382 2.40883 0
M  V30 2658 H 256.212 -0.846169 1.38614 0
M  V30 2659 H 258.209 -3.92933 1.39317 0
M  V30 2660 H 256.869 -3.21444 0.45865 0
M  V30 2661 H 257.88 -3.09316 4.15384 0
M  V30 2662 H 254.557 -3.82275 1.67845 0
M  V30 2663 H 255.947 -3.54093 5.71024 0
M  V30 2664 N 258.668 -1.30515 -0.883378 0
M  V30 2665 C 259.598 -1.19607 -2.00541 0
M  V30 2666 C 260.579 -0.086346 -1.69881 0
M  V30 2667 O 261.764 -0.268654 -1.92333 0
M  V30 2668 C 258.894 -0.888758 -3.35736 0
M  V30 2669 C 257.848 -1.95659 -3.8066 0
M  V30 2670 C 257.174 -1.50224 -5.13164 0
M  V30 2671 C 258.474 -3.36788 -3.99213 0
M  V30 2672 H 260.168 -2.13476 -2.09925 0
M  V30 2673 H 257.714 -1.02775 -1.00863 0
M  V30 2674 H 259.667 -0.799094 -4.13754 0
M  V30 2675 H 258.391 0.0856125 -3.26488 0
M  V30 2676 H 257.05 -2.03591 -3.04871 0
M  V30 2677 H 256.698 -0.516092 -5.00345 0
M  V30 2678 H 256.398 -2.2165 -5.44192 0
M  V30 2679 H 257.922 -1.42639 -5.93706 0
M  V30 2680 H 259.336 -3.31605 -4.67665 0
M  V30 2681 H 257.733 -4.06314 -4.41621 0
M  V30 2682 H 258.803 -3.78561 -3.03017 0
M  V30 2683 N 260.146 1.09593 -1.13257 0
M  V30 2684 C 261.395 1.81105 -0.887917 0
M  V30 2685 C 261.708 1.86563 0.587672 0
M  V30 2686 O 262.914 2.54367 0.949204 0
M  V30 2687 C 261.37 3.25338 -1.53895 0
M  V30 2688 C 260.978 3.28151 -3.04994 0
M  V30 2689 C 262.722 4.01617 -1.37492 0
M  V30 2690 C 260.629 4.66897 -3.6299 0
M  V30 2691 H 259.559 0.678661 -0.328534 0
M  V30 2692 H 262.21 1.23183 -1.36008 0
M  V30 2693 H 260.592 3.8331 -0.994446 0
M  V30 2694 H 261.766 2.79953 -3.66009 0
M  V30 2695 H 260.081 2.65361 -3.20893 0
M  V30 2696 H 262.678 5.04119 -1.78235 0
M  V30 2697 H 263.021 4.15072 -0.31957 0
M  V30 2698 H 263.554 3.50082 -1.88912 0
M  V30 2699 H 260.293 4.58643 -4.68323 0
M  V30 2700 H 259.813 5.15426 -3.06752 0
M  V30 2701 H 261.492 5.3587 -3.62563 0
M  V30 2702 N 261.624 0.925811 1.2754 0
M  V30 2703 C 262.587 0.428129 2.25166 0
M  V30 2704 C 263.587 -0.452261 1.54309 0
M  V30 2705 O 264.777 -0.253608 1.72344 0
M  V30 2706 C 261.909 -0.384749 3.38722 0
M  V30 2707 H 263.102 1.29066 2.70706 0
M  V30 2708 H 260.655 0.706323 1.3943 0
M  V30 2709 H 261.39 -1.26618 2.98561 0
M  V30 2710 H 261.175 0.246454 3.91325 0
M  V30 2711 H 262.665 -0.723389 4.11287 0
M  V30 2712 N 263.102 -1.41638 0.69111 0
M  V30 2713 C 264.379 -1.95036 0.148421 0
M  V30 2714 C 264.759 -1.63072 -1.34055 0
M  V30 2715 O 264.107 -0.93538 -2.08478 0
M  V30 2716 C 264.317 -3.46279 0.434951 0
M  V30 2717 C 265.665 -4.23069 0.360275 0
M  V30 2718 O 266.689 -3.54277 0.369613 0
M  V30 2719 O 265.548 -5.45583 0.316534 0
M  V30 2720 H 262.642 -0.826908 0.0123654 0
M  V30 2721 H 265.188 -1.5138 0.766963 0
M  V30 2722 H 263.96 -3.6281 1.46576 0
M  V30 2723 H 263.583 -3.97019 -0.214787 0
M  V30 2724 N 264.58 -0.43555 -1.51462 0
M  V30 2725 C 265.82 0.130708 -2.03982 0
M  V30 2726 C 266.184 1.40117 -1.31268 0
M  V30 2727 O 267.385 2.04755 -1.74152 0
M  V30 2728 C 265.656 0.346102 -3.5572 0
M  V30 2729 S 267.215 0.876022 -4.29967 0
M  V30 2730 H 264.033 0.0326881 -0.710248 0
M  V30 2731 H 266.635 -0.594544 -1.8624 0
M  V30 2732 H 265.339 -0.584911 -4.0621 0
M  V30 2733 H 264.87 1.09849 -3.77752 0
M  V30 2734 H 266.885 2.15379 -4.47019 0
M  V30 2735 N 266.058 1.56714 -0.166846 0
M  V30 2736 C 267.474 1.58473 0.189372 0
M  V30 2737 C 267.674 1.18201 1.63189 0
M  V30 2738 O 266.73 0.891528 2.36237 0
M  V30 2739 C 268.043 3.00573 -0.0873872 0
M  V30 2740 C 269.591 3.1299 -0.0252443 0
M  V30 2741 C 270.066 4.57174 -0.274934 0
M  V30 2742 N 271.557 4.62665 -0.222553 0
M  V30 2743 C 272.292 5.72072 -0.389985 0
M  V30 2744 N 271.788 6.90054 -0.616229 0
M  V30 2745 N 273.581 5.61153 -0.326202 0
M  V30 2746 H 265.732 1.8118 -1.10849 0
M  V30 2747 H 267.995 0.839525 -0.440342 0
M  V30 2748 H 267.701 3.34497 -1.0865 0
M  V30 2749 H 267.575 3.72019 0.623037 0
M  V30 2750 H 269.962 2.78895 0.96444 0
M  V30 2751 H 270.043 2.43989 -0.768309 0
M  V30 2752 H 269.687 4.91976 -1.26181 0
M  V30 2753 H 269.617 5.24328 0.48869 0
M  V30 2754 H 272.108 3.77863 -0.0531512 0
M  V30 2755 H 272.421 7.69311 -0.733559 0
M  V30 2756 H 270.766 6.91927 -0.652791 0
M  V30 2757 H 273.957 4.67859 -0.150072 0
M  V30 2758 H 274.13 6.46364 -0.460116 0
M  V30 2759 N 267.536 -0.106894 1.57237 0
M  V30 2760 C 268.783 -0.812526 1.85484 0
M  V30 2761 C 269.111 -1.79304 0.753687 0
M  V30 2762 O 268.366 -1.94047 -0.253853 0
M  V30 2763 C 268.665 -1.58628 3.20268 0
M  V30 2764 C 268.331 -0.748967 4.44636 0
M  V30 2765 C 266.993 -0.518104 4.78403 0
M  V30 2766 C 269.345 -0.166122 5.20935 0
M  V30 2767 C 266.673 0.305659 5.85903 0
M  V30 2768 C 269.025 0.644899 6.29304 0
M  V30 2769 C 267.689 0.885965 6.61594 0
M  V30 2770 H 266.959 -0.297324 0.678734 0
M  V30 2771 H 269.606 -0.0744332 1.91355 0
M  V30 2772 H 267.911 -2.39562 3.10028 0
M  V30 2773 H 269.608 -2.13643 3.39349 0
M  V30 2774 H 266.198 -0.939006 4.18187 0
M  V30 2775 H 270.382 -0.33167 4.95191 0
M  V30 2776 H 265.638 0.501528 6.0934 0
M  V30 2777 H 269.812 1.10345 6.87602 0
M  V30 2778 H 267.439 1.52609 7.44725 0
M  V30 2779 N 269.014 -1.53014 -0.377408 0
M  V30 2780 C 270.262 -1.6829 -1.11906 0
M  V30 2781 C 270.583 -0.431206 -1.90173 0
M  V30 2782 O 269.853 0.554595 -1.87886 0
M  V30 2783 H 268.433 -0.620371 -0.416112 0
M  V30 2784 H 271.095 -1.90167 -0.426893 0
M  V30 2785 H 270.191 -2.53862 -1.8155 0
M  V30 2786 N 270.492 0.636531 -1.44174 0
M  V30 2787 C 271.903 1.21806 -1.41493 0
M  V30 2788 C 272.254 1.95785 -0.1275 0
M  V30 2789 O 271.379 2.02147 0.772376 0
M  V30 2790 C 271.974 2.21551 -2.56321 0
M  V30 2791 C 270.533 2.75143 -2.56853 0
M  V30 2792 C 269.68 1.50052 -2.33195 0
M  V30 2793 H 272.631 0.427531 -1.52833 0
M  V30 2794 H 272.652 3.0405 -2.28765 0
M  V30 2795 H 272.164 1.67679 -3.50008 0
M  V30 2796 H 270.265 3.33033 -1.67093 0
M  V30 2797 H 270.378 3.2155 -3.55165 0
M  V30 2798 H 268.742 1.77993 -1.82183 0
M  V30 2799 H 269.525 0.980903 -3.28988 0
M  V30 2800 N 271.97 1.30982 0.876444 0
M  V30 2801 C 273.219 1.19658 1.62373 0
M  V30 2802 C 273.532 -0.245636 1.94052 0
M  V30 2803 O 274.738 -0.48049 2.67214 0
M  V30 2804 C 273.194 2.09433 2.92687 0
M  V30 2805 C 272.802 3.58613 2.68516 0
M  V30 2806 C 274.546 2.06893 3.70669 0
M  V30 2807 C 272.453 4.40416 3.94699 0
M  V30 2808 H 271.383 0.444268 0.609214 0
M  V30 2809 H 274.034 1.55791 0.969605 0
M  V30 2810 H 272.416 1.66191 3.59439 0
M  V30 2811 H 273.59 4.10058 2.10212 0
M  V30 2812 H 271.905 3.63063 2.03898 0
M  V30 2813 H 274.502 2.65258 4.64265 0
M  V30 2814 H 274.845 1.05448 4.02724 0
M  V30 2815 H 275.378 2.48301 3.10792 0
M  V30 2816 H 272.117 5.42591 3.67798 0
M  V30 2817 H 271.637 3.93731 4.52477 0
M  V30 2818 H 273.316 4.52294 4.62644 0
M  V30 2819 N 273.449 -1.08991 1.13837 0
M  V30 2820 C 274.697 -1.80899 0.901098 0
M  V30 2821 C 275.018 -1.86356 -0.574134 0
M  V30 2822 O 274.288 -1.35235 -1.41733 0
M  V30 2823 H 272.868 -0.669966 0.330386 0
M  V30 2824 H 275.53 -1.318 1.43578 0
M  V30 2825 H 274.626 -2.83929 1.29578 0
M  V30 2826 N 274.927 -0.932562 -1.27047 0
M  V30 2827 C 276.204 -0.49377 -1.89265 0
M  V30 2828 C 276.584 1.02833 -1.8436 0
M  V30 2829 O 275.932 1.88461 -1.29209 0
M  V30 2830 C 276.142 -1.04536 -3.32976 0
M  V30 2831 C 277.49 -1.10879 -4.09867 0
M  V30 2832 O 278.514 -0.995327 -3.42011 0
M  V30 2833 O 277.373 -1.28417 -5.31198 0
M  V30 2834 H 274.467 -0.159596 -0.811454 0
M  V30 2835 H 277.013 -1.02457 -1.3528 0
M  V30 2836 H 275.785 -2.08913 -3.30864 0
M  V30 2837 H 275.408 -0.496494 -3.94488 0
M  V30 2838 N 276.405 1.4127 -0.698611 0
M  V30 2839 C 277.816 1.84187 -0.305289 0
M  V30 2840 C 278.167 1.58449 1.15708 0
M  V30 2841 O 277.292 1.05651 1.88856 0
M  V30 2842 C 277.887 3.3435 -0.547314 0
M  V30 2843 C 276.446 3.75826 -0.207878 0
M  V30 2844 C 275.593 2.64647 -0.828099 0
M  V30 2845 H 278.544 1.30778 -0.89904 0
M  V30 2846 H 278.565 3.8001 0.192998 0
M  V30 2847 H 278.077 3.53051 -1.61172 0
M  V30 2848 H 276.178 3.62725 0.852143 0
M  V30 2849 H 276.291 4.74462 -0.665021 0
M  V30 2850 H 274.655 2.53395 -0.257458 0
M  V30 2851 H 275.438 2.86165 -1.89643 0
M  V30 2852 N 277.883 0.443576 1.51229 0
M  V30 2853 C 278.813 -0.355142 2.30783 0
M  V30 2854 C 279.794 -1.0154 1.36468 0
M  V30 2855 O 280.979 -1.01785 1.65389 0
M  V30 2856 C 278.109 -1.45312 3.15439 0
M  V30 2857 C 277.063 -0.916002 4.18083 0
M  V30 2858 C 276.389 -2.1102 4.91299 0
M  V30 2859 C 277.689 0.0538602 5.22272 0
M  V30 2860 H 279.383 0.308767 2.97804 0
M  V30 2861 H 276.929 0.149937 1.43217 0
M  V30 2862 H 278.882 -2.01914 3.69876 0
M  V30 2863 H 277.606 -2.14541 2.46252 0
M  V30 2864 H 276.265 -0.372145 3.64706 0
M  V30 2865 H 275.913 -2.78882 4.18609 0
M  V30 2866 H 275.613 -1.75717 5.60712 0
M  V30 2867 H 277.137 -2.68164 5.48562 0
M  V30 2868 H 278.551 -0.422069 5.71744 0
M  V30 2869 H 276.948 0.319776 5.99247 0
M  V30 2870 H 278.018 0.98858 4.74716 0
M  V30 2871 N 279.361 -1.56624 0.175154 0
M  V30 2872 C 280.609 -1.96609 -0.467885 0
M  V30 2873 C 280.93 -1.06238 -1.63519 0
M  V30 2874 O 280.2 -0.129523 -1.95471 0
M  V30 2875 H 278.78 -0.726008 -0.175845 0
M  V30 2876 H 281.442 -1.93195 0.257234 0
M  V30 2877 H 280.538 -3.00989 -0.825342 0
M  V30 2878 N 280.839 0.0985539 -1.57292 0
M  V30 2879 C 281.769 1.12064 -2.04851 0
M  V30 2880 C 282.75 1.41981 -0.936767 0
M  V30 2881 O 283.935 1.52071 -1.20781 0
M  V30 2882 C 281.065 2.44144 -2.47004 0
M  V30 2883 C 280.019 2.28643 -3.6181 0
M  V30 2884 C 279.345 3.65869 -3.89929 0
M  V30 2885 C 280.645 1.72986 -4.92822 0
M  V30 2886 H 282.339 0.724979 -2.9049 0
M  V30 2887 H 279.885 0.34729 -1.39749 0
M  V30 2888 H 281.838 3.15914 -2.78884 0
M  V30 2889 H 280.562 2.85639 -1.5836 0
M  V30 2890 H 279.221 1.59318 -3.30172 0
M  V30 2891 H 278.869 4.04885 -2.98458 0
M  V30 2892 H 278.569 3.56344 -4.67218 0
M  V30 2893 H 280.093 4.39112 -4.2428 0
M  V30 2894 H 281.507 2.34593 -5.23105 0
M  V30 2895 H 279.904 1.74229 -5.74251 0
M  V30 2896 H 280.974 0.689007 -4.7998 0
M  V30 2897 N 282.317 1.53212 0.369288 0
M  V30 2898 C 283.267 1.75769 1.45222 0
M  V30 2899 C 284.251 0.612136 1.48801 0
M  V30 2900 O 285.443 0.870674 1.54105 0
M  V30 2901 C 282.572 1.94769 2.82701 0
M  V30 2902 C 281.658 3.15315 2.83615 0
M  V30 2903 N 282.049 4.37295 2.54178 0
M  V30 2904 C 280.347 3.15962 3.14776 0
M  V30 2905 C 281.048 5.19015 2.62675 0
M  V30 2906 N 280.024 4.55142 2.97232 0
M  V30 2907 H 283.826 2.67691 1.2132 0
M  V30 2908 H 281.34 1.51787 0.577438 0
M  V30 2909 H 283.337 2.09056 3.60696 0
M  V30 2910 H 281.997 1.04073 3.07569 0
M  V30 2911 H 283.008 4.65091 2.27839 0
M  V30 2912 H 279.685 2.35144 3.44983 0
M  V30 2913 H 281.075 6.26305 2.43294 0
M  V30 2914 N 283.795 -0.628877 1.44509 0
M  V30 2915 C 285.211 -0.947305 1.28446 0
M  V30 2916 C 285.411 -2.00275 0.221872 0
M  V30 2917 O 284.467 -2.49447 -0.391471 0
M  V30 2918 C 285.78 -1.40843 2.65676 0
M  V30 2919 C 287.328 -1.52379 2.73404 0
M  V30 2920 C 287.803 -2.01875 4.11109 0
M  V30 2921 N 289.294 -2.09142 4.13296 0
M  V30 2922 C 290.029 -2.48615 5.16699 0
M  V30 2923 N 289.525 -2.87209 6.30462 0
M  V30 2924 N 291.318 -2.48768 5.04054 0
M  V30 2925 H 283.469 0.0690977 2.12288 0
M  V30 2926 H 285.732 -0.0317164 0.947469 0
M  V30 2927 H 285.438 -0.707206 3.44516 0
M  V30 2928 H 285.312 -2.37902 2.92716 0
M  V30 2929 H 287.699 -2.21598 1.9488 0
M  V30 2930 H 287.78 -0.536898 2.50102 0
M  V30 2931 H 287.424 -1.3325 4.90109 0
M  V30 2932 H 287.354 -3.0144 4.31789 0
M  V30 2933 H 289.845 -1.81991 3.31191 0
M  V30 2934 H 290.158 -3.16149 7.05174 0
M  V30 2935 H 288.503 -2.84955 6.33897 0
M  V30 2936 H 291.694 -2.18009 4.14234 0
M  V30 2937 H 291.867 -2.79207 5.84763 0
M  V30 2938 N 285.273 -1.31445 -0.869486 0
M  V30 2939 C 286.236 -1.19094 -1.9583 0
M  V30 2940 C 287.236 -0.117906 -1.60367 0
M  V30 2941 O 288.426 -0.367208 -1.70286 0
M  V30 2942 C 285.558 -0.828165 -3.30688 0
M  V30 2943 H 286.751 -2.15842 -2.08212 0
M  V30 2944 H 284.304 -1.15063 -1.05784 0
M  V30 2945 H 285.039 0.138142 -3.24006 0
M  V30 2946 H 284.824 -1.6038 -3.578 0
M  V30 2947 H 286.314 -0.765658 -4.10521 0
M  V30 2948 N 286.751 1.08385 -1.14413 0
M  V30 2949 C 287.681 2.17321 -0.854044 0
M  V30 2950 C 288.662 1.69024 0.191049 0
M  V30 2951 O 289.847 1.94141 0.0476779 0
M  V30 2952 C 286.977 3.45719 -0.330983 0
M  V30 2953 C 285.931 4.07409 -1.31155 0
M  V30 2954 C 285.257 5.30762 -0.64778 0
M  V30 2955 C 286.557 4.48665 -2.67388 0
M  V30 2956 H 288.251 2.41845 -1.76498 0
M  V30 2957 H 285.797 1.16233 -0.850051 0
M  V30 2958 H 287.75 4.21241 -0.115645 0
M  V30 2959 H 286.474 3.2075 0.615381 0
M  V30 2960 H 285.133 3.33919 -1.51306 0
M  V30 2961 H 284.781 5.02078 0.304398 0
M  V30 2962 H 284.481 5.72992 -1.30207 0
M  V30 2963 H 286.005 6.08998 -0.441972 0
M  V30 2964 H 287.419 5.15364 -2.51143 0
M  V30 2965 H 285.816 5.01814 -3.29093 0
M  V30 2966 H 286.886 3.60543 -3.24248 0
M  V30 2967 N 288.23 0.939286 1.26551 0
M  V30 2968 C 289.16 0.465044 2.28822 0
M  V30 2969 C 290.141 -0.480692 1.63167 0
M  V30 2970 O 291.326 -0.382955 1.90387 0
M  V30 2971 C 288.456 -0.27234 3.46231 0
M  V30 2972 C 287.41 0.58666 4.2396 0
M  V30 2973 C 286.736 -0.280573 5.33963 0
M  V30 2974 C 288.036 1.85704 4.88171 0
M  V30 2975 H 289.73 1.31979 2.68741 0
M  V30 2976 H 287.276 0.636061 1.29191 0
M  V30 2977 H 289.229 -0.615133 4.16886 0
M  V30 2978 H 287.953 -1.16121 3.0526 0
M  V30 2979 H 286.612 0.91232 3.55067 0
M  V30 2980 H 286.26 -1.16874 4.89234 0
M  V30 2981 H 285.96 0.29076 5.8688 0
M  V30 2982 H 287.484 -0.618678 6.07458 0
M  V30 2983 H 288.898 1.58161 5.51052 0
M  V30 2984 H 287.295 2.37279 5.51197 0
M  V30 2985 H 288.365 2.56957 4.11219 0
M  V30 2986 N 289.708 -1.40897 0.706093 0
M  V30 2987 C 290.618 -2.3455 0.0482286 0
M  V30 2988 C 291.634 -1.56796 -0.754396 0
M  V30 2989 O 292.81 -1.89228 -0.689538 0
M  V30 2990 C 289.875 -3.35625 -0.869303 0
M  V30 2991 C 288.936 -4.29261 -0.0576994 0
M  V30 2992 C 288.169 -5.25508 -0.931531 0
M  V30 2993 O 288.392 -5.27472 -2.17092 0
M  V30 2994 O 287.326 -6.00727 -0.375587 0
M  V30 2995 H 291.152 -2.92407 0.820476 0
M  V30 2996 H 288.737 -1.4193 0.4665 0
M  V30 2997 H 290.619 -3.97635 -1.39514 0
M  V30 2998 H 289.294 -2.80196 -1.62086 0
M  V30 2999 H 288.201 -3.70566 0.512988 0
M  V30 3000 H 289.534 -4.87817 0.655426 0
M  V30 3001 N 291.186 -0.45159 -1.50991 0
M  V30 3002 C 292.435 0.111653 -2.01391 0
M  V30 3003 C 292.748 1.42529 -1.33959 0
M  V30 3004 O 293.954 2.07232 -1.75405 0
M  V30 3005 C 292.41 0.249514 -3.59034 0
M  V30 3006 C 292.018 -1.05453 -4.35412 0
M  V30 3007 C 293.762 0.765762 -4.17536 0
M  V30 3008 C 291.669 -0.881529 -5.84793 0
M  V30 3009 H 290.599 0.0455022 -0.752626 0
M  V30 3010 H 293.25 -0.583524 -1.73975 0
M  V30 3011 H 291.632 1.00803 -3.82955 0
M  V30 3012 H 292.806 -1.82248 -4.23229 0
M  V30 3013 H 291.121 -1.50039 -3.88429 0
M  V30 3014 H 293.718 0.911913 -5.26866 0
M  V30 3015 H 294.061 1.75201 -3.77638 0
M  V30 3016 H 294.594 0.0651744 -3.97747 0
M  V30 3017 H 291.333 -1.84057 -6.29129 0
M  V30 3018 H 290.853 -0.153625 -5.99603 0
M  V30 3019 H 292.532 -0.540363 -6.4474 0
M  V30 3020 N 292.664 1.56529 -0.183458 0
M  V30 3021 C 294.075 1.83739 0.331177 0
M  V30 3022 C 294.426 1.10373 1.62211 0
M  V30 3023 O 293.551 0.36071 2.13373 0
M  V30 3024 C 294.146 3.33306 0.607646 0
M  V30 3025 C 292.705 3.60969 1.06668 0
M  V30 3026 C 291.852 2.77086 0.109029 0
M  V30 3027 H 294.803 1.53379 -0.407484 0
M  V30 3028 H 294.824 3.51444 1.45832 0
M  V30 3029 H 294.336 3.86677 -0.332086 0
M  V30 3030 H 292.437 3.13021 2.0211 0
M  V30 3031 H 292.55 4.69231 0.967447 0
M  V30 3032 H 290.914 2.47319 0.608714 0
M  V30 3033 H 291.697 3.33241 -0.82494 0
M  V30 3034 N 294.142 -0.090211 1.57342 0
M  V30 3035 C 295.39 -0.791241 1.85967 0
M  V30 3036 C 295.711 -1.7903 0.772859 0
M  V30 3037 O 294.981 -1.94872 -0.200398 0
M  V30 3038 H 293.561 -0.295205 0.686195 0
M  V30 3039 H 296.223 -0.0706782 1.94772 0
M  V30 3040 H 295.319 -1.31882 2.82867 0
M  V30 3041 N 295.62 -1.53406 -0.361157 0
M  V30 3042 C 296.866 -1.70054 -1.10496 0
M  V30 3043 C 297.199 -0.453278 -1.88836 0
M  V30 3044 O 296.474 0.5495 -1.86576 0
M  V30 3045 C 296.757 -2.95317 -2.06058 0
M  V30 3046 C 296.61 -4.3021 -1.31298 0
M  V30 3047 C 297.929 -3.16193 -3.06121 0
M  V30 3048 H 295.048 -0.618799 -0.400321 0
M  V30 3049 H 297.69 -1.86052 -0.385318 0
M  V30 3050 H 295.84 -2.81809 -2.67425 0
M  V30 3051 H 297.512 -4.55538 -0.726807 0
M  V30 3052 H 295.755 -4.29421 -0.614853 0
M  V30 3053 H 296.426 -5.14 -2.01265 0
M  V30 3054 H 298.902 -3.28916 -2.5486 0
M  V30 3055 H 297.778 -4.05266 -3.70204 0
M  V30 3056 H 298.039 -2.31676 -3.76535 0
M  V30 3057 N 297.098 0.621204 -1.44841 0
M  V30 3058 C 298.344 1.3826 -1.48365 0
M  V30 3059 C 298.677 1.93831 -0.119624 0
M  V30 3060 O 297.952 1.74251 0.864111 0
M  V30 3061 C 298.235 2.54058 -2.55199 0
M  V30 3062 C 298.088 2.03772 -4.00995 0
M  V30 3063 C 299.407 3.56225 -2.58442 0
M  V30 3064 H 296.526 0.501374 -0.540179 0
M  V30 3065 H 299.168 0.7015 -1.76576 0
M  V30 3066 H 297.318 3.12162 -2.31274 0
M  V30 3067 H 298.99 1.50423 -4.36086 0
M  V30 3068 H 297.233 1.34876 -4.12299 0
M  V30 3069 H 297.904 2.87185 -4.71411 0
M  V30 3070 H 300.38 3.07939 -2.79844 0
M  V30 3071 H 299.256 4.34756 -3.3508 0
M  V30 3072 H 299.517 4.10949 -1.63013 0
M  V30 3073 N 298.576 1.31904 0.862503 0
M  V30 3074 C 299.486 1.22161 2.00285 0
M  V30 3075 C 300.502 0.136785 1.73462 0
M  V30 3076 O 301.678 0.355994 1.98229 0
M  V30 3077 C 298.743 0.937093 3.33796 0
M  V30 3078 C 297.804 2.10957 3.73893 0
M  V30 3079 C 297.037 1.83853 5.01033 0
M  V30 3080 O 297.26 0.777274 5.65079 0
M  V30 3081 O 296.194 2.69741 5.38074 0
M  V30 3082 H 300.02 2.18008 2.11439 0
M  V30 3083 H 297.605 1.11716 0.991957 0
M  V30 3084 H 299.487 0.794583 4.13841 0
M  V30 3085 H 298.162 0.00871894 3.23699 0
M  V30 3086 H 297.069 2.30752 2.94456 0
M  V30 3087 H 298.402 3.02046 3.88625 0
M  V30 3088 N 300.054 -1.07777 1.14986 0
M  V30 3089 C 301.282 -1.84018 0.945773 0
M  V30 3090 C 301.697 -1.81897 -0.505863 0
M  V30 3091 O 301.054 -1.22726 -1.35072 0
M  V30 3092 C 301.105 -3.31287 1.44677 0
M  V30 3093 O 300.826 -3.33449 2.84154 0
M  V30 3094 C 302.327 -4.24311 1.28355 0
M  V30 3095 H 299.547 -0.580716 0.336169 0
M  V30 3096 H 302.091 -1.36077 1.52654 0
M  V30 3097 H 300.246 -3.76594 0.908625 0
M  V30 3098 H 300.66 -4.25427 3.06777 0
M  V30 3099 H 302.134 -5.2573 1.68261 0
M  V30 3100 H 302.611 -4.38612 0.227184 0
M  V30 3101 H 303.217 -3.84836 1.81056 0
M  V30 3102 N 301.532 -0.945985 -1.26051 0
M  V30 3103 C 302.78 -0.594941 -1.93145 0
M  V30 3104 C 303.101 0.86953 -1.7454 0
M  V30 3105 O 302.371 1.61838 -1.10387 0
M  V30 3106 H 300.951 -0.217044 -0.714773 0
M  V30 3107 H 303.613 -1.20235 -1.53393 0
M  V30 3108 H 302.709 -0.816835 -3.01221 0
M  V30 3109 N 303.011 1.40521 -0.713556 0
M  V30 3110 C 303.941 2.33381 -0.0743864 0
M  V30 3111 C 304.922 1.52784 0.747735 0
M  V30 3112 O 306.107 1.81258 0.697071 0
M  V30 3113 C 303.237 3.36748 0.849598 0
M  V30 3114 C 302.191 4.27793 0.133247 0
M  V30 3115 C 301.517 5.21679 1.17281 0
M  V30 3116 C 302.817 5.12415 -1.01134 0
M  V30 3117 H 304.511 2.87081 -0.850007 0
M  V30 3118 H 302.057 1.38034 -0.410201 0
M  V30 3119 H 304.01 4.00648 1.30612 0
M  V30 3120 H 302.734 2.81439 1.65709 0
M  V30 3121 H 301.393 3.65342 -0.303426 0
M  V30 3122 H 301.041 4.62677 1.9733 0
M  V30 3123 H 300.741 5.83435 0.698397 0
M  V30 3124 H 302.265 5.88456 1.62947 0
M  V30 3125 H 303.679 5.69781 -0.634274 0
M  V30 3126 H 302.076 5.83203 -1.41399 0
M  V30 3127 H 303.146 4.48514 -1.84292 0
M  V30 3128 N 304.489 0.459591 1.5075 0
M  V30 3129 C 305.736 -0.0993495 2.02256 0
M  V30 3130 C 306.064 -1.40751 1.34237 0
M  V30 3131 O 305.319 -1.90379 0.453228 0
M  V30 3132 C 305.618 -0.342866 3.55752 0
M  V30 3133 C 305.284 0.88218 4.42186 0
M  V30 3134 C 303.946 1.21808 4.65528 0
M  V30 3135 C 306.298 1.69837 4.92752 0
M  V30 3136 C 303.626 2.37045 5.36681 0
M  V30 3137 C 305.978 2.84192 5.65171 0
M  V30 3138 C 304.642 3.1821 5.8677 0
M  V30 3139 H 303.912 -0.0363545 0.740108 0
M  V30 3140 H 306.559 0.611329 1.8148 0
M  V30 3141 H 304.864 -1.13567 3.7498 0
M  V30 3142 H 306.561 -0.789121 3.93159 0
M  V30 3143 H 303.151 0.610467 4.2423 0
M  V30 3144 H 307.335 1.45205 4.74583 0
M  V30 3145 H 302.591 2.63689 5.51614 0
M  V30 3146 H 306.765 3.4779 6.03337 0
M  V30 3147 H 304.392 4.07613 6.41682 0
M  V30 3148 N 305.967 -1.56429 0.191757 0
M  V30 3149 C 307.213 -1.97777 -0.448554 0
M  V30 3150 C 307.546 -1.07847 -1.61501 0
M  V30 3151 O 306.821 -0.129774 -1.94067 0
M  V30 3152 C 307.104 -3.48362 -0.911906 0
M  V30 3153 C 306.957 -4.4907 0.256136 0
M  V30 3154 C 308.276 -4.02561 -1.77857 0
M  V30 3155 H 305.395 -0.719071 -0.161572 0
M  V30 3156 H 308.037 -1.87896 0.282007 0
M  V30 3157 H 306.187 -3.56914 -1.53442 0
M  V30 3158 H 307.859 -4.5256 0.893733 0
M  V30 3159 H 306.102 -4.24181 0.908436 0
M  V30 3160 H 306.773 -5.51889 -0.11053 0
M  V30 3161 H 309.249 -3.96767 -1.25359 0
M  V30 3162 H 308.125 -5.08301 -2.07174 0
M  V30 3163 H 308.386 -3.47616 -2.73158 0
M  V30 3164 N 307.445 0.0818655 -1.57387 0
M  V30 3165 C 308.693 0.781368 -1.86384 0
M  V30 3166 C 309.014 1.78618 -0.782342 0
M  V30 3167 O 308.284 1.94976 0.190061 0
M  V30 3168 H 306.864 0.291562 -0.687751 0
M  V30 3169 H 309.526 0.060348 -1.94807 0
M  V30 3170 H 308.622 1.3038 -2.83562 0
M  V30 3171 N 308.923 1.53595 0.353017 0
M  V30 3172 C 309.856 1.7572 1.45594 0
M  V30 3173 C 310.834 0.605961 1.50887 0
M  V30 3174 O 312.018 0.840023 1.68748 0
M  V30 3175 C 309.145 1.84732 2.83887 0
M  V30 3176 C 308.191 3.06808 2.96262 0
M  V30 3177 S 309.024 4.66065 2.63711 0
M  V30 3178 C 310.18 4.77943 4.04131 0
M  V30 3179 H 310.413 2.68994 1.26608 0
M  V30 3180 H 307.946 1.44343 0.548117 0
M  V30 3181 H 309.904 1.9061 3.63563 0
M  V30 3182 H 308.565 0.92488 3.00175 0
M  V30 3183 H 307.758 3.09761 3.97573 0
M  V30 3184 H 307.36 2.99108 2.24523 0
M  V30 3185 H 309.652 4.5877 4.98534 0
M  V30 3186 H 310.595 5.80022 4.06177 0
M  V30 3187 H 311.003 4.06472 3.91715 0
M  V30 3188 N 310.401 -0.613514 1.45168 0
M  V30 3189 C 311.364 -1.7065 1.53007 0
M  V30 3190 C 312.364 -1.5548 0.410184 0
M  V30 3191 O 313.554 -1.60656 0.673455 0
M  V30 3192 C 310.686 -3.09875 1.42093 0
M  V30 3193 H 311.879 -1.65068 2.50385 0
M  V30 3194 H 309.432 -0.828728 1.32521 0
M  V30 3195 H 310.167 -3.21039 0.458769 0
M  V30 3196 H 309.952 -3.22293 2.23315 0
M  V30 3197 H 311.442 -3.895 1.50598 0
M  V30 3198 N 311.879 -1.3236 -0.855495 0
M  V30 3199 C 313.107 -1.2587 -1.64208 0
M  V30 3200 C 313.522 0.173457 -1.88002 0
M  V30 3201 O 312.879 1.11027 -1.44842 0
M  V30 3202 C 312.93 -2.01424 -3.00184 0
M  V30 3203 O 312.651 -3.39051 -2.77445 0
M  V30 3204 C 314.152 -2.01948 -3.94629 0
M  V30 3205 H 311.372 -0.434318 -0.511477 0
M  V30 3206 H 313.916 -1.74469 -1.0668 0
M  V30 3207 H 312.071 -1.56549 -3.5436 0
M  V30 3208 H 312.485 -3.77711 -3.63916 0
M  V30 3209 H 313.959 -2.59297 -4.87308 0
M  V30 3210 H 314.436 -1.00554 -4.27534 0
M  V30 3211 H 315.042 -2.46767 -3.4639 0
M  V30 3212 N 313.357 1.07166 -1.15556 0
M  V30 3213 C 314.773 1.31899 -0.898603 0
M  V30 3214 C 314.973 1.96333 0.453383 0
M  V30 3215 O 314.029 2.22438 1.19489 0
M  V30 3216 C 315.342 2.20826 -2.04099 0
M  V30 3217 C 316.89 2.34269 -2.07574 0
M  V30 3218 C 317.365 3.26546 -3.21141 0
M  V30 3219 N 318.856 3.34127 -3.20801 0
M  V30 3220 C 319.591 4.05595 -4.05315 0
M  V30 3221 N 319.087 4.79661 -4.99897 0
M  V30 3222 N 320.88 4.01555 -3.93332 0
M  V30 3223 H 313.031 0.637302 -2.02613 0
M  V30 3224 H 315.294 0.343468 -0.883591 0
M  V30 3225 H 315 1.80744 -3.01703 0
M  V30 3226 H 314.874 3.21364 -1.97496 0
M  V30 3227 H 317.261 2.73603 -1.10568 0
M  V30 3228 H 317.342 1.33429 -2.18244 0
M  V30 3229 H 316.986 2.87931 -4.184 0
M  V30 3230 H 316.916 4.27345 -3.07708 0
M  V30 3231 H 319.407 2.81336 -2.52306 0
M  V30 3232 H 319.72 5.31694 -5.60822 0
M  V30 3233 H 318.065 4.78671 -5.03884 0
M  V30 3234 H 321.256 3.42806 -3.18751 0
M  V30 3235 H 321.429 4.56987 -4.5942 0
M  V30 3236 N 314.835 0.952656 1.25548 0
M  V30 3237 C 315.798 0.475794 2.24207 0
M  V30 3238 C 316.798 -0.419428 1.55234 0
M  V30 3239 O 317.988 -0.216994 1.72843 0
M  V30 3240 C 315.12 -0.312814 3.39462 0
M  V30 3241 H 316.313 1.34779 2.67908 0
M  V30 3242 H 313.866 0.735739 1.37901 0
M  V30 3243 H 314.601 -1.20257 3.01179 0
M  V30 3244 H 314.386 0.329404 3.90714 0
M  V30 3245 H 315.876 -0.635986 4.12729 0
M  V30 3246 N 316.313 -1.40141 0.720998 0
M  V30 3247 C 317.243 -2.33339 0.0867621 0
M  V30 3248 C 318.224 -1.53178 -0.739622 0
M  V30 3249 O 319.409 -1.81625 -0.687449 0
M  V30 3250 C 316.539 -3.37194 -0.831728 0
M  V30 3251 C 315.493 -4.27857 -0.110558 0
M  V30 3252 C 314.819 -5.22294 -1.14513 0
M  V30 3253 C 316.119 -5.11872 1.0385 0
M  V30 3254 H 317.813 -2.86626 0.865219 0
M  V30 3255 H 315.359 -1.37814 0.417516 0
M  V30 3256 H 317.312 -4.01335 -1.28485 0
M  V30 3257 H 316.036 -2.82314 -1.64214 0
M  V30 3258 H 314.695 -3.65176 0.322797 0
M  V30 3259 H 314.343 -4.63717 -1.94874 0
M  V30 3260 H 314.043 -5.83797 -0.667446 0
M  V30 3261 H 315.567 -5.89312 -1.59824 0
M  V30 3262 H 316.981 -5.69436 0.664482 0
M  V30 3263 H 315.378 -5.82445 1.4449 0
M  V30 3264 H 316.448 -4.4753 1.86668 0
M  V30 3265 N 317.792 -0.46758 -1.50504 0
M  V30 3266 C 319.038 0.0887532 -2.02606 0
M  V30 3267 C 319.371 1.39686 -1.34913 0
M  V30 3268 O 318.646 1.88644 -0.473694 0
M  V30 3269 C 318.929 0.276206 -3.59039 0
M  V30 3270 C 318.782 -1.05267 -4.37309 0
M  V30 3271 C 320.101 1.03235 -4.27821 0
M  V30 3272 H 317.22 0.0307814 -0.736357 0
M  V30 3273 H 319.862 -0.612485 -1.79857 0
M  V30 3274 H 318.012 0.8735 -3.78553 0
M  V30 3275 H 319.684 -1.68628 -4.29374 0
M  V30 3276 H 317.927 -1.65015 -4.01189 0
M  V30 3277 H 318.598 -0.875197 -5.45018 0
M  V30 3278 H 321.074 0.526111 -4.12761 0
M  V30 3279 H 319.95 1.1323 -5.37094 0
M  V30 3280 H 320.211 2.06806 -3.90748 0
M  V30 3281 N 319.27 1.56325 -0.20005 0
M  V30 3282 C 320.233 2.18084 0.705132 0
M  V30 3283 C 321.233 1.13666 1.1374 0
M  V30 3284 O 322.423 1.39023 1.04968 0
M  V30 3285 C 319.555 2.78689 1.96329 0
M  V30 3286 H 320.748 2.99435 0.167023 0
M  V30 3287 H 318.301 1.56221 0.0495725 0
M  V30 3288 H 319.036 2.0115 2.5438 0
M  V30 3289 H 318.821 3.55133 1.66202 0
M  V30 3290 H 320.311 3.26096 2.60866 0
M  V30 3291 N 320.748 -0.0735177 1.57428 0
M  V30 3292 C 321.996 -0.771472 1.86796 0
M  V30 3293 C 322.317 -1.78201 0.791804 0
M  V30 3294 O 321.587 -1.95074 -0.179718 0
M  V30 3295 H 320.167 -0.28791 0.689287 0
M  V30 3296 H 322.829 -0.0500161 1.94836 0
M  V30 3297 H 321.925 -1.28874 2.8425 0
M  V30 3298 N 322.226 -1.5378 -0.344866 0
M  V30 3299 C 323.637 -1.62428 -0.920552 0
M  V30 3300 C 323.988 -0.504747 -1.89596 0
M  V30 3301 O 323.113 0.365711 -2.13287 0
M  V30 3302 C 323.708 -2.94419 -1.67639 0
M  V30 3303 C 322.267 -3.05333 -2.20111 0
M  V30 3304 C 321.414 -2.57866 -1.01982 0
M  V30 3305 H 324.365 -1.58222 -0.123042 0
M  V30 3306 H 324.386 -2.83384 -2.53917 0
M  V30 3307 H 323.898 -3.7588 -0.966224 0
M  V30 3308 H 321.999 -2.28502 -2.94308 0
M  V30 3309 H 322.112 -4.10778 -2.46573 0
M  V30 3310 H 320.476 -2.13241 -1.39285 0
M  V30 3311 H 321.259 -3.41765 -0.324308 0
M  V30 3312 N 323.704 0.605807 -1.45491 0
M  V30 3313 C 324.951 1.36476 -1.49601 0
M  V30 3314 C 325.279 1.94007 -0.138452 0
M  V30 3315 O 324.534 1.75638 0.863114 0
M  V30 3316 C 324.833 2.53012 -2.52428 0
M  V30 3317 C 324.499 2.13617 -3.97087 0
M  V30 3318 C 323.161 2.02587 -4.36477 0
M  V30 3319 C 325.513 1.82899 -4.88055 0
M  V30 3320 C 322.841 1.59064 -5.64726 0
M  V30 3321 C 325.193 1.40861 -6.16718 0
M  V30 3322 C 323.857 1.28391 -6.55036 0
M  V30 3323 H 323.127 0.499402 -0.547429 0
M  V30 3324 H 325.774 0.684546 -1.78847 0
M  V30 3325 H 324.079 3.26379 -2.16758 0
M  V30 3326 H 325.776 3.1124 -2.52845 0
M  V30 3327 H 322.366 2.23129 -3.65939 0
M  V30 3328 H 326.55 1.90317 -4.58359 0
M  V30 3329 H 321.806 1.48034 -5.93208 0
M  V30 3330 H 325.98 1.16138 -6.86648 0
M  V30 3331 H 323.607 0.944403 -7.54311 0
M  V30 3332 N 325.182 1.32811 0.848464 0
M  V30 3333 C 326.43 1.23479 1.59991 0
M  V30 3334 C 326.751 -0.201853 1.93952 0
M  V30 3335 O 326.021 -1.12818 1.60153 0
M  V30 3336 H 324.601 0.454034 0.593179 0
M  V30 3337 H 327.263 1.66412 1.01455 0
M  V30 3338 H 326.359 1.82178 2.53412 0
M  V30 3339 N 326.66 -1.06551 1.16123 0
M  V30 3340 C 327.906 -1.79567 0.94252 0
M  V30 3341 C 328.239 -1.86869 -0.528547 0
M  V30 3342 O 327.514 -1.35838 -1.39206 0
M  V30 3343 C 327.797 -3.24195 1.56747 0
M  V30 3344 C 327.65 -3.24989 3.10969 0
M  V30 3345 C 328.969 -4.21678 1.25998 0
M  V30 3346 H 326.088 -0.651883 0.343828 0
M  V30 3347 H 328.73 -1.2463 1.43413 0
M  V30 3348 H 326.88 -3.71107 1.14942 0
M  V30 3349 H 328.552 -2.86258 3.61737 0
M  V30 3350 H 326.795 -2.63716 3.44436 0
M  V30 3351 H 327.466 -4.27005 3.49815 0
M  V30 3352 H 329.942 -3.83196 1.62174 0
M  V30 3353 H 328.818 -5.21146 1.7233 0
M  V30 3354 H 329.079 -4.4174 0.178367 0
M  V30 3355 N 328.138 -0.959301 -1.25041 0
M  V30 3356 C 329.048 -0.489994 -2.29426 0
M  V30 3357 C 330.064 0.444944 -1.68215 0
M  V30 3358 O 331.24 0.320046 -1.98841 0
M  V30 3359 C 328.305 0.220309 -3.45999 0
M  V30 3360 C 327.366 -0.753418 -4.22637 0
M  V30 3361 C 326.599 -0.076918 -5.33645 0
M  V30 3362 O 326.822 1.13649 -5.58963 0
M  V30 3363 O 325.756 -0.764824 -5.97021 0
M  V30 3364 H 329.582 -1.35755 -2.71669 0
M  V30 3365 H 327.167 -0.725961 -1.30576 0
M  V30 3366 H 329.049 0.619677 -4.16819 0
M  V30 3367 H 327.724 1.06296 -3.0575 0
M  V30 3368 H 326.631 -1.20308 -3.54227 0
M  V30 3369 H 327.964 -1.56423 -4.66683 0
M  V30 3370 N 329.616 1.39756 -0.72842 0
M  V30 3371 C 330.526 2.34444 -0.0855374 0
M  V30 3372 C 331.542 1.57976 0.729356 0
M  V30 3373 O 332.718 1.90301 0.659346 0
M  V30 3374 C 329.783 3.36965 0.815798 0
M  V30 3375 C 328.844 4.29299 -0.0105996 0
M  V30 3376 C 328.077 5.26923 0.84781 0
M  V30 3377 O 328.3 5.30859 2.08673 0
M  V30 3378 O 327.234 6.01249 0.279969 0
M  V30 3379 H 331.06 2.91065 -0.866892 0
M  V30 3380 H 328.645 1.4117 -0.48902 0
M  V30 3381 H 330.527 3.99804 1.33171 0
M  V30 3382 H 329.202 2.82739 1.57608 0
M  V30 3383 H 328.109 3.69703 -0.571877 0
M  V30 3384 H 329.442 4.86712 -0.73295 0
M  V30 3385 N 331.094 0.475555 1.50254 0
M  V30 3386 C 332.024 -0.30611 2.31485 0
M  V30 3387 C 333.005 -0.986228 1.38591 0
M  V30 3388 O 334.19 -0.982541 1.67511 0
M  V30 3389 C 331.32 -1.38588 3.1845 0
M  V30 3390 C 330.274 -0.827115 4.19932 0
M  V30 3391 C 329.6 -2.00551 4.95665 0
M  V30 3392 C 330.9 0.16463 5.2204 0
M  V30 3393 H 332.594 0.371866 2.97082 0
M  V30 3394 H 330.14 0.180282 1.42867 0
M  V30 3395 H 332.093 -1.94023 3.74076 0
M  V30 3396 H 330.817 -2.09269 2.50747 0
M  V30 3397 H 329.476 -0.294702 3.65414 0
M  V30 3398 H 329.124 -2.6994 4.2443 0
M  V30 3399 H 328.824 -1.63784 5.64313 0
M  V30 3400 H 330.348 -2.56468 5.54127 0
M  V30 3401 H 331.762 -0.300699 5.72511 0
M  V30 3402 H 330.159 0.446813 5.98434 0
M  V30 3403 H 331.229 1.08905 4.72512 0
M  V30 3404 N 332.573 -1.56217 0.208337 0
M  V30 3405 C 333.503 -2.22694 -0.702116 0
M  V30 3406 C 334.484 -1.19432 -1.2112 0
M  V30 3407 O 335.669 -1.47978 -1.25762 0
M  V30 3408 C 332.799 -2.8966 -1.9161 0
M  V30 3409 C 331.753 -3.9928 -1.5414 0
M  V30 3410 C 331.079 -4.53476 -2.83308 0
M  V30 3411 C 332.379 -5.17012 -0.741339 0
M  V30 3412 H 334.073 -2.99034 -0.147898 0
M  V30 3413 H 331.619 -1.43831 -0.0696951 0
M  V30 3414 H 333.572 -3.34852 -2.55836 0
M  V30 3415 H 332.296 -2.10746 -2.49507 0
M  V30 3416 H 330.955 -3.54799 -0.922668 0
M  V30 3417 H 330.603 -3.71308 -3.39322 0
M  V30 3418 H 330.303 -5.27451 -2.58976 0
M  V30 3419 H 331.827 -5.01378 -3.485 0
M  V30 3420 H 333.241 -5.58667 -1.28699 0
M  V30 3421 H 331.638 -5.97137 -0.595627 0
M  V30 3422 H 332.708 -4.8423 0.254851 0
M  V30 3423 N 334.051 0.0651679 -1.57465 0
M  V30 3424 C 335.462 0.616213 -1.76238 0
M  V30 3425 C 335.813 1.7756 -0.834689 0
M  V30 3426 O 334.938 2.1639 -0.0204156 0
M  V30 3427 C 335.533 1.12462 -3.1959 0
M  V30 3428 C 334.092 1.62147 -3.39684 0
M  V30 3429 C 333.239 0.543739 -2.71917 0
M  V30 3430 H 336.19 -0.161022 -1.57881 0
M  V30 3431 H 336.211 1.99324 -3.24114 0
M  V30 3432 H 335.723 0.280592 -3.87084 0
M  V30 3433 H 333.824 2.48854 -2.77313 0
M  V30 3434 H 333.937 1.69385 -4.48158 0
M  V30 3435 H 332.301 0.990352 -2.34657 0
M  V30 3436 H 333.084 -0.290216 -3.42071 0
M  V30 3437 O 335.568 1.60146 0.208664 0
M  V30 3438 H 336.259 1.74115 0.848742 0
M  V30 END ATOM
M  V30 BEGIN BOND
M  V30 END BOND
M  V30 END CTAB
M  END
$$$$
