drugbank_target|Q99829 Copine-1 (DB00277)
 OpenBabel12092121063D

  0  0  0     0  0            999 V3000
M  V30 BEGIN CTAB
M  V30 COUNTS 8225 8326 0 0 0
M  V30 BEGIN ATOM
M  V30 1 H -0.908 1.98254 -0.117106 0
M  V30 2 N 0 1.576 0 0
M  V30 3 C 0.933 2.03868 1.02534 0
M  V30 4 C 1.911 0.928543 1.3348 0
M  V30 5 O 3.095 1.19667 1.45644 0
M  V30 6 C 0.222 2.43627 2.35294 0
M  V30 7 C -0.732 3.65373 2.2001 0
M  V30 8 S 0.101 5.13292 1.52614 0
M  V30 9 C 1.257 5.56322 2.86805 0
M  V30 10 H 1.49 2.90518 0.631377 0
M  V30 11 H -0.977 1.52953 0.210867 0
M  V30 12 H 0.981 2.67203 3.11629 0
M  V30 13 H -0.358 1.57376 2.7183 0
M  V30 14 H -1.165 3.90944 3.18086 0
M  V30 15 H -1.563 3.418 1.51819 0
M  V30 16 H 0.729 5.58782 3.83104 0
M  V30 17 H 1.672 6.56266 2.65933 0
M  V30 18 H 2.08 4.83886 2.90714 0
M  V30 19 N 1.4781 -0.272755 1.55222 0
M  V30 20 C 2.4411 -1.32041 1.87344 0
M  V30 21 C 3.4411 -1.42342 0.74803 0
M  V30 22 O 4.6311 -1.41488 1.0162 0
M  V30 23 C 1.7631 -2.70173 2.07893 0
M  V30 24 H 2.9561 -1.04789 2.80997 0
M  V30 25 H 0.5091 -0.51083 1.47717 0
M  V30 26 H 1.2441 -3.02605 1.16622 0
M  V30 27 H 1.0291 -2.64082 2.89833 0
M  V30 28 H 2.5191 -3.45869 2.34017 0
M  V30 29 N 2.9562 -1.48159 -0.537278 0
M  V30 30 C 3.9062 -1.5854 -1.63857 0
M  V30 31 C 4.8902 -0.442969 -1.54682 0
M  V30 32 O 6.0822 -0.69401 -1.62827 0
M  V30 33 C 3.2112 -1.62144 -3.02596 0
M  V30 34 C 2.2972 -2.81841 -3.16901 0
M  V30 35 N 2.6882 -4.06337 -3.01204 0
M  V30 36 C 0.9862 -2.79021 -3.47942 0
M  V30 37 C 1.6872 -4.86606 -3.18731 0
M  V30 38 N 0.6632 -4.19288 -3.45974 0
M  V30 39 H 4.4652 -2.5255 -1.50319 0
M  V30 40 H 1.9792 -1.4443 -0.742555 0
M  V30 41 H 3.9762 -1.67674 -3.81695 0
M  V30 42 H 2.6362 -0.69245 -3.17231 0
M  V30 43 H 3.6472 -4.36888 -2.78117 0
M  V30 44 H 0.3242 -1.95347 -3.6898 0
M  V30 45 H 1.7142 -5.95385 -3.11394 0
M  V30 46 N 4.4343 0.785586 -1.36625 0
M  V30 47 C 5.6743 1.55678 -1.32453 0
M  V30 48 C 6.0383 1.91769 0.0941089 0
M  V30 49 O 7.2393 2.67536 0.26042 0
M  V30 50 C 5.5103 2.79701 -2.22491 0
M  V30 51 S 7.0693 3.69907 -2.36038 0
M  V30 52 H 3.8873 0.533141 -0.470405 0
M  V30 53 H 6.4893 0.924953 -1.72235 0
M  V30 54 H 5.1933 2.51244 -3.24507 0
M  V30 55 H 4.7243 3.47854 -1.83742 0
M  V30 56 H 6.7393 4.71016 -1.56072 0
M  V30 57 N 5.9124 1.20967 1.01018 0
M  V30 58 C 7.1584 1.02526 1.74975 0
M  V30 59 C 7.4914 -0.4408 1.89131 0
M  V30 60 O 6.7664 -1.32718 1.42184 0
M  V30 61 C 7.0494 1.71699 3.1653 0
M  V30 62 C 6.9024 3.25791 3.10129 0
M  V30 63 C 8.2214 1.45531 4.15342 0
M  V30 64 H 5.3404 0.373863 0.635134 0
M  V30 65 H 7.9824 1.49071 1.17805 0
M  V30 66 H 6.1324 1.32128 3.65341 0
M  V30 67 H 7.8044 3.74697 2.69072 0
M  V30 68 H 6.0474 3.56363 2.47362 0
M  V30 69 H 6.7184 3.69353 4.10222 0
M  V30 70 H 9.1944 1.79872 3.75213 0
M  V30 71 H 8.0704 1.96453 5.1254 0
M  V30 72 H 8.3314 0.384237 4.40427 0
M  V30 73 N 7.3905 -1.2043 1.01659 0
M  V30 74 C 8.6185 -1.93777 0.725132 0
M  V30 75 C 9.0335 -1.74772 -0.714166 0
M  V30 76 O 8.3905 -1.06169 -1.4844 0
M  V30 77 C 8.4415 -3.45876 1.05129 0
M  V30 78 O 8.1625 -3.6426 2.43406 0
M  V30 79 C 9.6635 -4.36368 0.780891 0
M  V30 80 H 6.8835 -0.615901 0.266284 0
M  V30 81 H 9.4275 -1.52922 1.35776 0
M  V30 82 H 7.5825 -3.8461 0.464065 0
M  V30 83 H 7.9965 -4.58246 2.55169 0
M  V30 84 H 9.4705 -5.41743 1.05918 0
M  V30 85 H 9.9475 -4.38275 -0.284937 0
M  V30 86 H 10.5535 -4.03296 1.35027 0
M  V30 87 N 8.8686 -0.792821 -1.36206 0
M  V30 88 C 9.7986 -0.207853 -2.32573 0
M  V30 89 C 10.7796 0.659055 -1.56813 0
M  V30 90 O 11.9646 0.592176 -1.84951 0
M  V30 91 C 9.0946 0.655449 -3.41059 0
M  V30 92 C 8.0486 -0.111842 -4.27854 0
M  V30 93 C 7.3746 0.872274 -5.27537 0
M  V30 94 C 8.6746 -1.30299 -5.05786 0
M  V30 95 H 10.3686 -1.01294 -2.81744 0
M  V30 96 H 7.9146 -0.48854 -1.3546 0
M  V30 97 H 9.8676 1.07464 -4.07467 0
M  V30 98 H 8.5916 1.49328 -2.90463 0
M  V30 99 H 7.2506 -0.512053 -3.63006 0
M  V30 100 H 6.8986 1.70523 -4.73214 0
M  V30 101 H 6.5986 0.363291 -5.86476 0
M  V30 102 H 8.1226 1.28996 -5.96818 0
M  V30 103 H 9.5366 -0.959379 -5.65216 0
M  V30 104 H 7.9336 -1.7455 -5.74154 0
M  V30 105 H 9.0036 -2.09663 -4.37229 0
M  V30 106 N 10.3467 1.47872 -0.545128 0
M  V30 107 C 11.5927 2.02793 -0.0166104 0
M  V30 108 C 11.9257 1.41987 1.32489 0
M  V30 109 O 11.2007 0.571045 1.85928 0
M  V30 110 C 11.4837 3.59989 0.0893294 0
M  V30 111 C 11.3367 4.3125 -1.27841 0
M  V30 112 C 12.6557 4.32606 0.808724 0
M  V30 113 H 9.7747 0.736962 -0.00751035 0
M  V30 114 H 12.4167 1.76433 -0.705085 0
M  V30 115 H 10.5667 3.82579 0.675681 0
M  V30 116 H 12.2387 4.20035 -1.90704 0
M  V30 117 H 10.4817 3.92076 -1.85632 0
M  V30 118 H 11.1527 5.39736 -1.15713 0
M  V30 119 H 13.6287 4.14936 0.310992 0
M  V30 120 H 12.5047 5.42251 0.851782 0
M  V30 121 H 12.7657 4.00963 1.86229 0
M  V30 122 N 11.8248 0.280983 1.55075 0
M  V30 123 C 12.7568 -0.637268 2.20163 0
M  V30 124 C 13.7698 -1.11298 1.18813 0
M  V30 125 O 14.9588 -1.03388 1.4551 0
M  V30 126 C 12.0588 -1.88199 2.81841 0
M  V30 127 C 11.2318 -1.55211 4.08936 0
M  V30 128 C 10.2908 -2.64991 4.54606 0
M  V30 129 O 9.3168 -2.30929 5.2025 0
M  V30 130 N 10.5188 -3.95161 4.25238 0
M  V30 131 H 13.2838 -0.0801694 2.99593 0
M  V30 132 H 10.8448 0.102329 1.61576 0
M  V30 133 H 12.8368 -2.60948 3.09335 0
M  V30 134 H 11.4068 -2.34799 2.06369 0
M  V30 135 H 10.6268 -0.658185 3.88666 0
M  V30 136 H 11.9148 -1.30681 4.91732 0
M  V30 137 H 11.3128 -4.25653 3.72607 0
M  V30 138 H 9.8698 -4.6427 4.5749 0
M  V30 139 N 13.3029 -1.57598 0.00835791 0
M  V30 140 C 14.2329 -2.1198 -0.979113 0
M  V30 141 C 15.2139 -1.03091 -1.35301 0
M  V30 142 O 16.3989 -1.30818 -1.43528 0
M  V30 143 C 13.5289 -2.62995 -2.26828 0
M  V30 144 C 12.4829 -3.76485 -2.03576 0
M  V30 145 C 11.8089 -4.13846 -3.38579 0
M  V30 146 C 13.1089 -5.0342 -1.39161 0
M  V30 147 H 14.8029 -2.94738 -0.526281 0
M  V30 148 H 12.3489 -1.41783 -0.251704 0
M  V30 149 H 14.3019 -2.99669 -2.96271 0
M  V30 150 H 13.0259 -1.7737 -2.7424 0
M  V30 151 H 11.6849 -3.40217 -1.36557 0
M  V30 152 H 11.3329 -3.25232 -3.83709 0
M  V30 153 H 11.0329 -4.90312 -3.23834 0
M  V30 154 H 12.5569 -4.53086 -4.09323 0
M  V30 155 H 13.9709 -5.37812 -1.98573 0
M  V30 156 H 12.3679 -5.84746 -1.34878 0
M  V30 157 H 13.4379 -4.83548 -0.361868 0
M  V30 158 N 14.781 0.264519 -1.55364 0
M  V30 159 C 16.006 1.01726 -1.80739 0
M  V30 160 C 16.431 1.78836 -0.583044 0
M  V30 161 O 15.789 1.75167 0.467566 0
M  V30 162 C 15.837 1.94482 -3.03659 0
M  V30 163 O 14.941 3.03386 -2.7934 0
M  V30 164 H 14.282 0.290395 -0.597132 0
M  V30 165 H 16.812 0.290854 -2.02522 0
M  V30 166 H 16.822 2.36278 -3.32621 0
M  V30 167 H 15.497 1.37772 -3.92418 0
M  V30 168 H 14.074 2.65844 -2.61498 0
M  V30 169 N 16.2591 1.48442 0.529413 0
M  V30 170 C 17.5081 1.55742 1.28169 0
M  V30 171 C 17.8211 0.236511 1.94165 0
M  V30 172 O 19.0271 0.187761 2.7085 0
M  V30 173 C 17.4831 2.74667 2.32564 0
M  V30 174 C 17.0911 4.13402 1.72636 0
M  V30 175 C 18.8351 2.9128 3.08798 0
M  V30 176 C 16.7421 5.23587 2.74975 0
M  V30 177 H 15.6721 0.579796 0.48203 0
M  V30 178 H 18.3231 1.74776 0.559056 0
M  V30 179 H 16.7051 2.49067 3.07866 0
M  V30 180 H 17.8791 4.49022 1.03519 0
M  V30 181 H 16.1941 4.0191 1.08892 0
M  V30 182 H 18.7911 3.70767 3.85274 0
M  V30 183 H 19.1341 2.00757 3.64695 0
M  V30 184 H 19.6671 3.16782 2.40611 0
M  V30 185 H 16.4061 6.16076 2.23897 0
M  V30 186 H 15.9261 4.92454 3.42417 0
M  V30 187 H 17.6051 5.51724 3.37949 0
M  V30 188 N 17.7372 -0.778329 1.37039 0
M  V30 189 C 18.9622 -1.57248 1.35233 0
M  V30 190 C 19.3872 -1.87999 -0.0615568 0
M  V30 191 O 18.7452 -1.48734 -1.03672 0
M  V30 192 C 18.7932 -2.86353 2.19167 0
M  V30 193 O 17.8972 -3.80442 1.59178 0
M  V30 194 H 17.2382 -0.476569 0.462362 0
M  V30 195 H 19.7682 -0.963853 1.80474 0
M  V30 196 H 19.7782 -3.35519 2.32145 0
M  V30 197 H 18.4532 -2.63299 3.21942 0
M  V30 198 H 17.0302 -3.39067 1.55203 0
M  V30 199 N 19.2153 -1.21501 -1.00376 0
M  V30 200 C 20.4553 -1.04444 -1.75701 0
M  V30 201 C 20.8193 0.414644 -1.87469 0
M  V30 202 O 22.0203 0.705763 -2.59369 0
M  V30 203 C 20.2913 -1.72389 -3.13077 0
M  V30 204 S 21.8503 -1.70604 -4.04277 0
M  V30 205 H 18.6683 -0.374249 -0.604532 0
M  V30 206 H 21.2703 -1.54267 -1.20091 0
M  V30 207 H 19.9743 -2.77734 -3.02146 0
M  V30 208 H 19.5053 -1.22751 -3.73759 0
M  V30 209 H 21.5203 -0.748012 -4.9053 0
M  V30 210 N 20.6934 1.19889 -1.02296 0
M  V30 211 C 21.9704 1.85148 -0.630832 0
M  V30 212 C 22.3504 1.91385 0.890782 0
M  V30 213 O 21.6984 1.42642 1.78509 0
M  V30 214 C 21.9084 3.24442 -1.28602 0
M  V30 215 C 23.2564 4.00663 -1.4055 0
M  V30 216 O 24.2804 3.33818 -1.24273 0
M  V30 217 O 23.1394 5.20387 -1.66913 0
M  V30 218 H 20.2334 0.797613 -0.218499 0
M  V30 219 H 22.7794 1.27427 -1.12074 0
M  V30 220 H 21.5514 3.14704 -2.32545 0
M  V30 221 H 21.1744 3.89802 -0.7836 0
M  V30 222 N 22.1715 0.800033 1.35784 0
M  V30 223 C 23.1215 0.178654 2.27299 0
M  V30 224 C 24.1055 -0.643667 1.47464 0
M  V30 225 O 25.2975 -0.502 1.69732 0
M  V30 226 C 22.4265 -0.677194 3.36555 0
M  V30 227 C 21.5125 0.154497 4.23818 0
M  V30 228 N 21.9035 1.21427 4.91008 0
M  V30 229 C 20.2015 -0.0649462 4.45953 0
M  V30 230 C 20.9025 1.72147 5.55644 0
M  V30 231 N 19.8785 1.02897 5.33773 0
M  V30 232 H 23.6805 0.989637 2.76737 0
M  V30 233 H 21.1945 0.64054 1.49234 0
M  V30 234 H 23.1915 -1.13835 4.01058 0
M  V30 235 H 21.8515 -1.4866 2.8867 0
M  V30 236 H 22.8625 1.59684 4.92668 0
M  V30 237 H 19.5395 -0.844016 4.0888 0
M  V30 238 H 20.9295 2.60683 6.19269 0
M  V30 239 N 23.6496 -1.47581 0.552962 0
M  V30 240 C 24.5796 -2.32762 -0.185451 0
M  V30 241 C 25.5606 -1.43527 -0.912905 0
M  V30 242 O 26.7456 -1.72388 -0.894201 0
M  V30 243 C 23.8756 -3.25219 -1.21859 0
M  V30 244 C 22.8296 -4.23661 -0.607864 0
M  V30 245 C 22.1556 -5.05413 -1.74533 0
M  V30 246 C 23.4556 -5.20481 0.435582 0
M  V30 247 H 25.1496 -2.94749 0.525684 0
M  V30 248 H 22.6956 -1.41738 0.254251 0
M  V30 249 H 24.6486 -3.8365 -1.7433 0
M  V30 250 H 23.3726 -2.61279 -1.95961 0
M  V30 251 H 22.0316 -3.66451 -0.104489 0
M  V30 252 H 21.6796 -4.3788 -2.47529 0
M  V30 253 H 21.3796 -5.72059 -1.34249 0
M  V30 254 H 22.9036 -5.66701 -2.27338 0
M  V30 255 H 24.3176 -5.733 -0.00290157 0
M  V30 256 H 22.7146 -5.95305 0.757067 0
M  V30 257 H 23.7846 -4.66217 1.33303 0
M  V30 258 N 25.1277 -0.289203 -1.54924 0
M  V30 259 C 26.3767 0.324231 -1.99077 0
M  V30 260 C 26.6897 1.5591 -1.18117 0
M  V30 261 O 27.8957 2.24637 -1.52481 0
M  V30 262 C 26.3517 0.628209 -3.54375 0
M  V30 263 C 25.9597 -0.587647 -4.44129 0
M  V30 264 C 27.7037 1.20349 -4.07083 0
M  V30 265 C 25.6107 -0.257475 -5.90839 0
M  V30 266 H 24.5407 0.124924 -0.743579 0
M  V30 267 H 27.1917 -0.396063 -1.79175 0
M  V30 268 H 25.5737 1.40778 -3.70132 0
M  V30 269 H 26.7477 -1.36418 -4.40144 0
M  V30 270 H 25.0627 -1.08074 -4.0213 0
M  V30 271 H 27.6597 1.46456 -5.14252 0
M  V30 272 H 28.0027 2.14195 -3.56968 0
M  V30 273 H 28.5357 0.485889 -3.94821 0
M  V30 274 H 25.2747 -1.16419 -6.45079 0
M  V30 275 H 24.7947 0.482018 -5.9786 0
M  V30 276 H 26.4737 0.145238 -6.46837 0
M  V30 277 N 26.6058 1.57591 -0.0167156 0
M  V30 278 C 27.8828 1.82547 0.702564 0
M  V30 279 C 28.2628 0.898018 1.91047 0
M  V30 280 O 27.6108 -0.0493456 2.28447 0
M  V30 281 C 27.8208 3.31459 1.09251 0
M  V30 282 C 29.1688 3.97622 1.48937 0
M  V30 283 O 30.1928 3.35881 1.18584 0
M  V30 284 O 29.0518 5.06415 2.05442 0
M  V30 285 H 26.1458 0.752268 0.343544 0
M  V30 286 H 28.6918 1.69644 -0.0434495 0
M  V30 287 H 27.4638 3.9061 0.23227 0
M  V30 288 H 27.0868 3.49422 1.89709 0
M  V30 289 N 28.0839 -0.256276 1.55502 0
M  V30 290 C 29.0309 -1.31714 1.89526 0
M  V30 291 C 30.0009 -1.4828 0.748479 0
M  V30 292 O 31.1859 -1.62416 1.00128 0
M  V30 293 C 28.3259 -2.66933 2.18725 0
M  V30 294 C 27.4389 -2.58452 3.4616 0
M  V30 295 C 26.5739 -3.85961 3.64976 0
M  V30 296 C 25.6129 -3.72059 4.86044 0
M  V30 297 N 24.7499 -4.9144 5.01429 0
M  V30 298 H 29.5899 -1.01998 2.80001 0
M  V30 299 H 27.1269 -0.492413 1.38613 0
M  V30 300 H 29.0849 -3.4563 2.33657 0
M  V30 301 H 27.7149 -2.94816 1.31466 0
M  V30 302 H 26.7669 -1.71374 3.3961 0
M  V30 303 H 28.0789 -2.44085 4.34999 0
M  V30 304 H 27.2329 -4.73101 3.79816 0
M  V30 305 H 25.9719 -4.03215 2.74353 0
M  V30 306 H 24.9769 -2.83302 4.7119 0
M  V30 307 H 26.2019 -3.56309 5.78118 0
M  V30 308 H 24.1479 -5.09072 4.13741 0
M  V30 309 H 24.0649 -4.79668 5.84341 0
M  V30 310 H 25.3329 -5.80104 5.20672 0
M  V30 311 N 29.562 -1.4872 -0.521534 0
M  V30 312 C 30.839 -1.4766 -1.2828 0
M  V30 313 C 31.219 -0.19292 -2.10217 0
M  V30 314 O 30.567 0.825193 -2.13079 0
M  V30 315 C 30.777 -2.74358 -2.15705 0
M  V30 316 C 32.125 -3.23028 -2.75569 0
M  V30 317 O 33.149 -2.75333 -2.25987 0
M  V30 318 O 32.008 -4.0604 -3.65778 0
M  V30 319 H 29.102 -0.590085 -0.579421 0
M  V30 320 H 31.648 -1.60963 -0.537492 0
M  V30 321 H 30.42 -3.59292 -1.54999 0
M  V30 322 H 30.043 -2.63816 -2.97467 0
M  V30 323 N 31.0401 0.771051 -1.3745 0
M  V30 324 C 32.2891 1.52491 -1.3202 0
M  V30 325 C 32.6021 1.9538 0.0927347 0
M  V30 326 O 33.8081 2.70159 0.269503 0
M  V30 327 C 32.2641 2.75366 -2.31736 0
M  V30 328 C 31.8721 2.39573 -3.78562 0
M  V30 329 C 33.6161 3.53307 -2.35318 0
M  V30 330 C 31.5231 3.58954 -4.70007 0
M  V30 331 H 30.4531 0.572506 -0.490666 0
M  V30 332 H 33.1041 0.844474 -1.62914 0
M  V30 333 H 31.4861 3.45303 -1.93861 0
M  V30 334 H 32.6601 1.77415 -4.25277 0
M  V30 335 H 30.9751 1.74805 -3.77932 0
M  V30 336 H 33.5721 4.42039 -3.00842 0
M  V30 337 H 33.9151 3.93217 -1.36698 0
M  V30 338 H 34.4481 2.90367 -2.71904 0
M  V30 339 H 31.1871 3.24125 -5.69757 0
M  V30 340 H 30.7071 4.20214 -4.27996 0
M  V30 341 H 32.3861 4.25758 -4.87175 0
M  V30 342 N 32.5182 1.22032 0.997298 0
M  V30 343 C 33.7662 1.04016 1.73278 0
M  V30 344 C 34.0872 -0.426255 1.90284 0
M  V30 345 O 33.3572 -1.30694 1.45931 0
M  V30 346 H 31.9372 0.381897 0.642 0
M  V30 347 H 34.5992 1.5347 1.20137 0
M  V30 348 H 33.6952 1.51441 2.72896 0
M  V30 349 N 33.9963 -1.19345 1.0293 0
M  V30 350 C 35.2213 -1.93538 0.745511 0
M  V30 351 C 35.6463 -1.75007 -0.689511 0
M  V30 352 O 35.0043 -1.05265 -1.47611 0
M  V30 353 C 35.0523 -3.43336 1.10239 0
M  V30 354 O 34.1563 -4.11806 0.221289 0
M  V30 355 H 33.4973 -0.604193 0.275404 0
M  V30 356 H 36.0273 -1.5141 1.37609 0
M  V30 357 H 36.0373 -3.94004 1.05947 0
M  V30 358 H 34.7123 -3.56146 2.14786 0
M  V30 359 H 33.2893 -3.715 0.322842 0
M  V30 360 N 35.4744 -0.807222 -1.35358 0
M  V30 361 C 36.4214 -0.216037 -2.29787 0
M  V30 362 C 37.3914 0.650278 -1.52842 0
M  V30 363 O 38.5764 0.595227 -1.81278 0
M  V30 364 C 35.7164 0.628893 -3.39321 0
M  V30 365 C 34.8294 -0.257927 -4.31229 0
M  V30 366 C 33.9644 0.595069 -5.27856 0
M  V30 367 C 33.0034 -0.292111 -6.11403 0
M  V30 368 N 32.1404 0.520895 -7.00165 0
M  V30 369 H 36.9804 -1.02671 -2.79755 0
M  V30 370 H 34.5174 -0.517839 -1.37684 0
M  V30 371 H 36.4754 1.13393 -4.01494 0
M  V30 372 H 35.1054 1.40482 -2.90628 0
M  V30 373 H 34.1574 -0.881076 -3.70056 0
M  V30 374 H 35.4694 -0.940759 -4.89848 0
M  V30 375 H 34.6234 1.16522 -5.95405 0
M  V30 376 H 33.3624 1.31146 -4.69736 0
M  V30 377 H 32.3674 -0.874525 -5.428 0
M  V30 378 H 33.5924 -1.00638 -6.71602 0
M  V30 379 H 31.5384 1.22125 -6.44532 0
M  V30 380 H 31.4554 -0.103877 -7.55929 0
M  V30 381 H 32.7234 1.0743 -7.72062 0
M  V30 382 N 36.9525 1.47285 -0.560781 0
M  V30 383 C 38.1775 2.07359 -0.0410566 0
M  V30 384 C 38.6025 1.41017 1.24483 0
M  V30 385 O 37.9605 0.486368 1.74654 0
M  V30 386 C 38.0085 3.6035 0.134123 0
M  V30 387 O 37.1125 3.94681 1.19587 0
M  V30 388 H 36.4535 0.661887 -0.0529291 0
M  V30 389 H 38.9835 1.89252 -0.777482 0
M  V30 390 H 38.9935 4.0652 0.347207 0
M  V30 391 H 37.6685 4.08034 -0.805047 0
M  V30 392 H 36.2455 3.60251 0.962987 0
M  V30 393 N 38.4306 0.297415 1.54768 0
M  V30 394 C 39.7076 -0.365847 1.92148 0
M  V30 395 C 40.0876 -1.71975 1.22424 0
M  V30 396 O 39.4356 -2.25666 0.358739 0
M  V30 397 C 39.6456 -0.484056 3.45627 0
M  V30 398 C 40.9936 -0.756594 4.17805 0
M  V30 399 O 42.0176 -0.568007 3.51642 0
M  V30 400 O 40.8766 -1.11863 5.34929 0
M  V30 401 H 37.9706 -0.203919 0.801465 0
M  V30 402 H 40.5166 0.34521 1.66152 0
M  V30 403 H 39.2886 0.467865 3.88493 0
M  V30 404 H 38.9116 -1.24372 3.77647 0
M  V30 405 N 39.9087 -1.5758 0.0250728 0
M  V30 406 C 41.3197 -1.79476 -0.514323 0
M  V30 407 C 41.6707 -0.934956 -1.72491 0
M  V30 408 O 40.7957 -0.144245 -2.15919 0
M  V30 409 C 41.3907 -3.25503 -0.939842 0
M  V30 410 C 39.9497 -3.48408 -1.42438 0
M  V30 411 C 39.0967 -2.74583 -0.387201 0
M  V30 412 H 42.0477 -1.567 0.25113 0
M  V30 413 H 42.0687 -3.34992 -1.80445 0
M  V30 414 H 41.5807 -3.88056 -0.0585628 0
M  V30 415 H 39.6817 -2.91103 -2.32572 0
M  V30 416 H 39.7947 -4.57119 -1.43455 0
M  V30 417 H 38.1587 -2.39942 -0.854409 0
M  V30 418 H 38.9417 -3.39849 0.485543 0
M  V30 419 N 41.3868 0.248026 -1.55636 0
M  V30 420 C 42.3168 1.31079 -1.93237 0
M  V30 421 C 43.2978 1.50264 -0.797174 0
M  V30 422 O 44.4828 1.62891 -1.05737 0
M  V30 423 C 41.6128 2.66575 -2.22609 0
M  V30 424 C 40.5668 2.62087 -3.3837 0
M  V30 425 C 39.8928 4.01369 -3.53281 0
M  V30 426 C 41.1928 2.19171 -4.7409 0
M  V30 427 H 42.8868 0.998556 -2.82257 0
M  V30 428 H 40.4328 0.47891 -1.35803 0
M  V30 429 H 42.3858 3.41057 -2.47503 0
M  V30 430 H 41.1098 2.99432 -1.30414 0
M  V30 431 H 39.7688 1.90063 -3.13483 0
M  V30 432 H 39.4168 4.31489 -2.58508 0
M  V30 433 H 39.1168 3.99254 -4.31127 0
M  V30 434 H 40.6408 4.77552 -3.80495 0
M  V30 435 H 42.0548 2.83384 -4.98363 0
M  V30 436 H 40.4518 2.2817 -5.5503 0
M  V30 437 H 41.5218 1.14336 -4.71227 0
M  V30 438 N 42.8649 1.48995 0.513639 0
M  V30 439 C 44.1049 1.59452 1.27885 0
M  V30 440 C 44.4689 0.269479 1.90099 0
M  V30 441 O 45.6699 0.249139 2.67643 0
M  V30 442 C 43.9409 2.71277 2.32688 0
M  V30 443 S 45.4999 3.01604 3.18717 0
M  V30 444 H 42.3179 0.562565 0.434789 0
M  V30 445 H 44.9199 1.86595 0.583301 0
M  V30 446 H 43.6239 3.66089 1.8549 0
M  V30 447 H 43.1549 2.46086 3.06929 0
M  V30 448 H 45.1699 2.42155 4.331 0
M  V30 449 N 44.343 -0.763751 1.37857 0
M  V30 450 C 45.589 -1.52483 1.33704 0
M  V30 451 C 45.922 -1.94051 -0.0759612 0
M  V30 452 O 45.197 -1.64675 -1.03501 0
M  V30 453 C 45.48 -2.78441 2.28348 0
M  V30 454 C 45.333 -2.43075 3.78463 0
M  V30 455 C 46.652 -3.80415 2.21298 0
M  V30 456 H 43.771 -0.553169 0.487005 0
M  V30 457 H 46.413 -0.875562 1.68624 0
M  V30 458 H 44.563 -3.33842 1.987 0
M  V30 459 H 46.235 -1.93527 4.18742 0
M  V30 460 H 44.478 -1.75666 3.96641 0
M  V30 461 H 45.149 -3.33149 4.40132 0
M  V30 462 H 47.625 -3.34527 2.47449 0
M  V30 463 H 46.501 -4.66257 2.89647 0
M  V30 464 H 46.762 -4.25262 1.20849 0
M  V30 465 N 45.8211 -1.22559 -0.990812 0
M  V30 466 C 46.7511 -1.0218 -2.09956 0
M  V30 467 C 47.7321 0.0579394 -1.70001 0
M  V30 468 O 48.9171 -0.104684 -1.93918 0
M  V30 469 C 46.0471 -0.601023 -3.4206 0
M  V30 470 C 45.0011 -1.62694 -3.95872 0
M  V30 471 C 44.3271 -1.06193 -5.24049 0
M  V30 472 C 45.6271 -3.01743 -4.2632 0
M  V30 473 H 47.3211 -1.94916 -2.27262 0
M  V30 474 H 44.8671 -0.938566 -1.09211 0
M  V30 475 H 46.8201 -0.445561 -4.19038 0
M  V30 476 H 45.5441 0.362005 -3.24588 0
M  V30 477 H 44.2031 -1.77021 -3.21028 0
M  V30 478 H 43.8511 -0.0901903 -5.02919 0
M  V30 479 H 43.5511 -1.74732 -5.61019 0
M  V30 480 H 45.0751 -0.918092 -6.03658 0
M  V30 481 H 46.4891 -2.90777 -4.94087 0
M  V30 482 H 44.8861 -3.67425 -4.74467 0
M  V30 483 H 45.9561 -3.51518 -3.34011 0
M  V30 484 N 47.2992 1.18797 -1.03562 0
M  V30 485 C 48.2292 2.24472 -0.643019 0
M  V30 486 C 49.2102 1.66433 0.351283 0
M  V30 487 O 50.3952 1.92803 0.232505 0
M  V30 488 C 47.5252 3.473 4.24935e-05 0
M  V30 489 C 46.4792 4.18055 -0.917257 0
M  V30 490 C 45.8052 5.34519 -0.138941 0
M  V30 491 C 47.1052 4.72109 -2.23407 0
M  V30 492 H 48.7992 2.57566 -1.52643 0
M  V30 493 H 46.3452 1.23806 -0.735394 0
M  V30 494 H 48.2982 4.20426 0.286383 0
M  V30 495 H 47.0222 3.13424 0.918299 0
M  V30 496 H 45.6812 3.46821 -1.1879 0
M  V30 497 H 45.3292 4.96891 0.781562 0
M  V30 498 H 45.0292 5.82794 -0.750005 0
M  V30 499 H 46.5532 6.10438 0.1405 0
M  V30 500 H 47.9672 5.36955 -2.00879 0
M  V30 501 H 46.3642 5.30897 -2.79765 0
M  V30 502 H 47.4342 3.89807 -2.88407 0
M  V30 503 N 48.7773 0.814389 1.34928 0
M  V30 504 C 49.7093 0.187834 2.28429 0
M  V30 505 C 50.7223 -0.617374 1.5064 0
M  V30 506 O 51.9113 -0.448454 1.72775 0
M  V30 507 C 49.0113 -0.755962 3.30361 0
M  V30 508 C 48.1843 0.00456686 4.374 0
M  V30 509 C 47.2433 -0.858876 5.19143 0
M  V30 510 O 46.2693 -0.306968 5.68372 0
M  V30 511 N 47.4713 -2.17988 5.38016 0
M  V30 512 H 50.2363 0.991105 2.82838 0
M  V30 513 H 47.7973 0.670561 1.4736 0
M  V30 514 H 49.7893 -1.338 3.81942 0
M  V30 515 H 48.3593 -1.46001 2.7641 0
M  V30 516 H 47.5793 0.767865 3.86649 0
M  V30 517 H 48.8673 0.528422 5.06049 0
M  V30 518 H 48.2653 -2.65212 4.99679 0
M  V30 519 H 46.8223 -2.71098 5.92747 0
M  V30 520 N 50.2554 -1.46986 0.568584 0
M  V30 521 C 51.5324 -1.95592 -0.0174074 0
M  V30 522 C 51.9124 -1.51124 -1.47393 0
M  V30 523 O 51.2604 -0.755329 -2.15655 0
M  V30 524 C 51.4704 -3.48719 0.139913 0
M  V30 525 C 52.8184 -4.246 0.000426376 0
M  V30 526 O 53.8424 -3.56135 0.0680316 0
M  V30 527 O 52.7014 -5.46302 -0.146988 0
M  V30 528 H 49.7954 -0.82498 -0.0577599 0
M  V30 529 H 52.3414 -1.57335 0.635909 0
M  V30 530 H 51.1134 -3.73927 1.15301 0
M  V30 531 H 50.7364 -3.93771 -0.550491 0
M  V30 532 N 51.7335 -0.305618 -1.54608 0
M  V30 533 C 52.9795 0.302746 -2.00528 0
M  V30 534 C 53.3125 1.53184 -1.19367 0
M  V30 535 O 52.5875 1.92598 -0.271321 0
M  V30 536 C 52.8705 0.654756 -3.54097 0
M  V30 537 C 52.7235 -0.583793 -4.45995 0
M  V30 538 C 54.0425 1.47947 -4.14487 0
M  V30 539 H 51.1615 0.108564 -0.72896 0
M  V30 540 H 53.8035 -0.418634 -1.85331 0
M  V30 541 H 51.9535 1.26935 -3.67178 0
M  V30 542 H 53.6255 -1.22224 -4.44814 0
M  V30 543 H 51.8685 -1.21615 -4.16404 0
M  V30 544 H 52.5395 -0.293287 -5.5122 0
M  V30 545 H 55.0155 0.96013 -4.04871 0
M  V30 546 H 53.8915 1.69454 -5.22088 0
M  V30 547 H 54.1525 2.47011 -3.66658 0
M  V30 548 N 53.2116 1.57565 -0.0334293 0
M  V30 549 C 54.4596 1.91598 0.642999 0
M  V30 550 C 54.7806 0.910847 1.7242 0
M  V30 551 O 54.0506 -0.0469931 1.95844 0
M  V30 552 H 52.6306 0.707228 0.240496 0
M  V30 553 H 55.2926 1.94726 -0.0822488 0
M  V30 554 H 54.3886 2.92336 1.09298 0
M  V30 555 N 54.6897 -0.239769 1.55765 0
M  V30 556 C 55.9377 -0.964892 1.77579 0
M  V30 557 C 56.2587 -1.85582 0.598699 0
M  V30 558 O 55.5287 -1.92075 -0.385226 0
M  V30 559 H 54.1087 -0.359265 0.654933 0
M  V30 560 H 56.7707 -0.256001 1.93211 0
M  V30 561 H 55.8667 -1.58243 2.69009 0
M  V30 562 N 56.1678 -1.49265 -0.50573 0
M  V30 563 C 57.4158 -1.582 -1.25766 0
M  V30 564 C 57.7368 -0.268482 -1.93143 0
M  V30 565 O 57.0068 0.711833 -1.8251 0
M  V30 566 H 55.5868 -0.582873 -0.467191 0
M  V30 567 H 58.2488 -1.85865 -0.586525 0
M  V30 568 H 57.3448 -2.37563 -2.02412 0
M  V30 569 N 57.6459 0.756429 -1.3826 0
M  V30 570 C 58.8709 1.55077 -1.37717 0
M  V30 571 C 59.2959 1.88073 0.03164 0
M  V30 572 O 58.6539 1.50364 1.01293 0
M  V30 573 C 58.7019 2.8283 -2.23695 0
M  V30 574 O 57.8059 3.77862 -1.6521 0
M  V30 575 H 57.1469 0.469152 -0.469885 0
M  V30 576 H 59.6769 0.935019 -1.81985 0
M  V30 577 H 59.6869 3.31783 -2.37453 0
M  V30 578 H 58.3619 2.58144 -3.2609 0
M  V30 579 H 56.9389 3.36555 -1.60578 0
M  V30 580 N 59.124 1.23083 0.984299 0
M  V30 581 C 60.37 1.07221 1.72845 0
M  V30 582 C 60.725 -0.387453 1.88458 0
M  V30 583 O 60.018 -1.28309 1.42293 0
M  V30 584 C 60.212 1.72673 3.1292 0
M  V30 585 C 60.041 3.24853 3.10967 0
M  V30 586 C 58.811 3.93998 3.16376 0
M  V30 587 C 61.009 4.21674 2.94441 0
M  V30 588 N 58.991 5.33192 3.04268 0
M  V30 589 C 60.362 5.47756 2.90453 0
M  V30 590 C 62.417 4.12457 2.78897 0
M  V30 591 C 61.12 6.6568 2.72512 0
M  V30 592 C 63.146 5.3004 2.62319 0
M  V30 593 C 62.508 6.55046 2.59026 0
M  V30 594 H 58.607 0.44685 0.641755 0
M  V30 595 H 61.191 1.55753 1.16829 0
M  V30 596 H 59.362 1.26679 3.67161 0
M  V30 597 H 61.094 1.49824 3.75945 0
M  V30 598 H 57.849 3.45052 3.24401 0
M  V30 599 H 58.273 6.06157 3.015 0
M  V30 600 H 62.915 3.16588 2.80235 0
M  V30 601 H 60.633 7.61689 2.69919 0
M  V30 602 H 64.219 5.24747 2.5126 0
M  V30 603 H 63.099 7.44498 2.46357 0
M  V30 604 N 60.6021 -1.18246 1.0419 0
M  V30 605 C 61.5651 -2.20128 0.638452 0
M  V30 606 C 62.5651 -1.57885 -0.304805 0
M  V30 607 O 63.7551 -1.73967 -0.0900369 0
M  V30 608 C 60.8871 -3.4084 -0.0637751 0
M  V30 609 H 62.0801 -2.57336 1.54007 0
M  V30 610 H 59.6331 -1.32152 0.834598 0
M  V30 611 H 60.3681 -3.09166 -0.979136 0
M  V30 612 H 60.1531 -3.8726 0.614198 0
M  V30 613 H 61.6431 -4.16274 -0.332512 0
M  V30 614 N 62.0802 -0.821533 -1.34494 0
M  V30 615 C 62.9902 -0.244355 -2.33324 0
M  V30 616 C 64.0062 0.620527 -1.62559 0
M  V30 617 O 65.1822 0.528754 -1.94335 0
M  V30 618 C 62.2472 0.585368 -3.41723 0
M  V30 619 C 61.3082 -0.301752 -4.28238 0
M  V30 620 C 60.5412 0.488466 -5.3146 0
M  V30 621 O 60.7642 1.72186 -5.4379 0
M  V30 622 O 59.6982 -0.12848 -6.01763 0
M  V30 623 H 63.5242 -1.06231 -2.84515 0
M  V30 624 H 61.1092 -0.583645 -1.37528 0
M  V30 625 H 62.9912 1.05747 -4.07916 0
M  V30 626 H 61.6662 1.38068 -2.92778 0
M  V30 627 H 60.5732 -0.821315 -3.64973 0
M  V30 628 H 61.9062 -1.06138 -4.8062 0
M  V30 629 N 63.5583 1.46682 -0.576371 0
M  V30 630 C 64.4883 2.33028 0.148397 0
M  V30 631 C 65.4693 1.44961 0.889956 0
M  V30 632 O 66.6543 1.73789 0.866662 0
M  V30 633 C 63.7843 3.27117 1.1667 0
M  V30 634 C 62.7383 4.24575 0.540386 0
M  V30 635 C 62.0643 5.08126 1.6647 0
M  V30 636 C 63.3643 5.19722 -0.518331 0
M  V30 637 H 65.0583 2.93875 -0.572509 0
M  V30 638 H 62.6043 1.41315 -0.276768 0
M  V30 639 H 64.5573 3.86374 1.68204 0
M  V30 640 H 63.2813 2.64364 1.9178 0
M  V30 641 H 61.9403 3.66571 0.0461769 0
M  V30 642 H 61.5883 4.41762 2.40531 0
M  V30 643 H 61.2883 5.74122 1.25131 0
M  V30 644 H 62.8123 5.70246 2.18293 0
M  V30 645 H 64.2263 5.73232 -0.0883058 0
M  V30 646 H 62.6233 5.94026 -0.851679 0
M  V30 647 H 63.6933 4.64037 -1.40703 0
M  V30 648 N 65.0364 0.313813 1.54444 0
M  V30 649 C 66.2844 -0.291099 1.99993 0
M  V30 650 C 66.6054 -1.53418 1.20366 0
M  V30 651 O 65.8754 -1.93544 0.302927 0
M  V30 652 H 64.4554 -0.110552 0.738774 0
M  V30 653 H 67.1174 0.428106 1.9014 0
M  V30 654 H 66.2134 -0.554268 3.07139 0
M  V30 655 N 66.5145 -1.57545 0.0417849 0
M  V30 656 C 67.9305 -1.56467 -0.314704 0
M  V30 657 C 68.1305 -1.04859 -1.72066 0
M  V30 658 O 67.1865 -0.700983 -2.42575 0
M  V30 659 C 68.4995 -3.00317 -0.15174 0
M  V30 660 C 70.0475 -3.12201 -0.223553 0
M  V30 661 C 70.5225 -4.57913 -0.0892295 0
M  V30 662 N 72.0135 -4.6297 -0.145808 0
M  V30 663 C 72.7485 -5.73362 -0.0658459 0
M  V30 664 N 72.2445 -6.92769 0.0659282 0
M  V30 665 N 74.0375 -5.6197 -0.12075 0
M  V30 666 H 66.1885 -1.89416 0.961014 0
M  V30 667 H 68.4515 -0.871862 0.372237 0
M  V30 668 H 68.1575 -3.42073 0.817254 0
M  V30 669 H 68.0315 -3.65892 -0.916692 0
M  V30 670 H 70.4185 -2.70349 -1.18301 0
M  V30 671 H 70.4995 -2.49323 0.571994 0
M  V30 672 H 70.1435 -5.00448 0.866867 0
M  V30 673 H 70.0735 -5.18786 -0.903802 0
M  V30 674 H 72.5645 -3.7709 -0.247286 0
M  V30 675 H 72.8775 -7.72707 0.119905 0
M  V30 676 H 71.2225 -6.94927 0.100885 0
M  V30 677 H 74.4135 -4.67572 -0.222187 0
M  V30 678 H 74.5865 -6.47977 -0.0549735 0
M  V30 679 N 67.9926 0.231505 -1.5589 0
M  V30 680 C 69.2206 0.974505 -1.82513 0
M  V30 681 C 69.6356 1.78344 -0.619591 0
M  V30 682 O 68.9926 1.77792 0.411848 0
M  V30 683 C 69.0436 1.90007 -3.07538 0
M  V30 684 O 68.7646 1.12385 -4.2344 0
M  V30 685 C 70.2656 2.75779 -3.47075 0
M  V30 686 H 67.4856 0.286065 -0.606966 0
M  V30 687 H 70.0296 0.249739 -2.02969 0
M  V30 688 H 68.1846 2.57891 -2.89086 0
M  V30 689 H 68.5986 1.75125 -4.944 0
M  V30 690 H 70.0726 3.36443 -4.37619 0
M  V30 691 H 70.5496 3.47672 -2.68367 0
M  V30 692 H 71.1556 2.13323 -3.67931 0
M  V30 693 N 69.4707 1.49531 0.497807 0
M  V30 694 C 70.3807 1.69176 1.62532 0
M  V30 695 C 71.3967 0.5744 1.64246 0
M  V30 696 O 72.5727 0.849497 1.82608 0
M  V30 697 C 69.6377 1.75695 2.98885 0
M  V30 698 C 68.6987 2.9929 3.07773 0
M  V30 699 C 67.9317 3.05488 4.37622 0
M  V30 700 O 68.1547 2.19192 5.26603 0
M  V30 701 O 67.0887 3.9798 4.51548 0
M  V30 702 H 70.9147 2.647 1.48887 0
M  V30 703 H 68.4997 1.3331 0.674441 0
M  V30 704 H 70.3817 1.82317 3.79919 0
M  V30 705 H 69.0567 0.8335 3.12785 0
M  V30 706 H 67.9637 2.98183 2.25915 0
M  V30 707 H 69.2967 3.91125 2.98801 0
M  V30 708 N 70.9488 -0.749086 1.3866 0
M  V30 709 C 72.3648 -1.05276 1.19955 0
M  V30 710 C 72.5648 -2.01435 0.05134 0
M  V30 711 O 71.6208 -2.45232 -0.60147 0
M  V30 712 C 72.9338 -1.62853 2.52783 0
M  V30 713 C 74.4818 -1.75002 2.59506 0
M  V30 714 C 74.9568 -2.35991 3.92521 0
M  V30 715 N 76.4478 -2.43416 3.94085 0
M  V30 716 C 77.1828 -2.91511 4.9377 0
M  V30 717 N 76.6788 -3.39608 6.03853 0
M  V30 718 N 78.4718 -2.90592 4.81157 0
M  V30 719 H 70.6228 -0.111066 2.12109 0
M  V30 720 H 72.8858 -0.111901 0.941373 0
M  V30 721 H 72.5918 -0.99664 3.37283 0
M  V30 722 H 72.4658 -2.61854 2.715 0
M  V30 723 H 74.8528 -2.37317 1.75398 0
M  V30 724 H 74.9338 -0.74693 2.44652 0
M  V30 725 H 74.5778 -1.74308 4.77053 0
M  V30 726 H 74.5078 -3.3695 4.04688 0
M  V30 727 H 76.9988 -2.09405 3.14576 0
M  V30 728 H 77.3118 -3.74775 6.75843 0
M  V30 729 H 75.6568 -3.37653 6.07466 0
M  V30 730 H 78.8478 -2.52332 3.94267 0
M  V30 731 H 79.0208 -3.27762 5.58996 0
M  V30 732 N 72.4269 -1.23603 -0.977757 0
M  V30 733 C 73.6729 -1.07129 -1.72195 0
M  V30 734 C 74.0059 0.390501 -1.90233 0
M  V30 735 O 73.2809 1.28902 -1.45653 0
M  V30 736 C 73.5639 -1.80031 -3.11867 0
M  V30 737 C 73.4169 -3.33899 -3.01383 0
M  V30 738 C 74.7359 -1.56492 -4.11337 0
M  V30 739 H 71.8549 -0.390571 -0.624999 0
M  V30 740 H 74.4969 -1.52142 -1.13811 0
M  V30 741 H 72.6469 -1.41768 -3.6171 0
M  V30 742 H 74.3189 -3.81699 -2.59043 0
M  V30 743 H 72.5619 -3.62796 -2.37827 0
M  V30 744 H 73.2329 -3.801 -4.00285 0
M  V30 745 H 75.7089 -1.89757 -3.70313 0
M  V30 746 H 74.5849 -2.09973 -5.07151 0
M  V30 747 H 74.8459 -0.500874 -4.39254 0
M  V30 748 N 73.905 1.17692 -1.04816 0
M  V30 749 C 75.321 1.39863 -0.768794 0
M  V30 750 C 75.521 1.91118 0.638451 0
M  V30 751 O 74.577 2.10036 1.40146 0
M  V30 752 C 75.89 2.39274 -1.82122 0
M  V30 753 C 77.438 2.52987 -1.843 0
M  V30 754 C 77.913 3.55669 -2.88555 0
M  V30 755 N 79.404 3.63183 -2.87493 0
M  V30 756 C 80.139 4.42381 -3.64811 0
M  V30 757 N 79.635 5.25125 -4.51903 0
M  V30 758 N 81.428 4.37217 -3.53267 0
M  V30 759 H 73.579 0.82752 -1.95617 0
M  V30 760 H 75.842 0.426123 -0.846831 0
M  V30 761 H 75.548 2.08678 -2.83102 0
M  V30 762 H 75.422 3.38725 -1.65967 0
M  V30 763 H 77.809 2.82896 -0.839869 0
M  V30 764 H 77.89 1.53623 -2.04532 0
M  V30 765 H 77.534 3.26499 -3.89051 0
M  V30 766 H 77.464 4.54728 -2.65575 0
M  V30 767 H 79.955 3.04103 -2.24343 0
M  V30 768 H 80.268 5.82728 -5.07591 0
M  V30 769 H 78.613 5.24519 -4.55966 0
M  V30 770 H 81.804 3.71626 -2.84625 0
M  V30 771 H 81.977 4.98696 -4.13771 0
M  V30 772 N 75.3831 0.828654 1.34056 0
M  V30 773 C 76.3311 0.242973 2.31327 0
M  V30 774 C 77.3251 -0.61944 1.57668 0
M  V30 775 O 78.5311 -0.51014 1.7262 0
M  V30 776 H 74.9061 0.059834 0.749616 0
M  V30 777 H 76.8771 1.07809 2.78244 0
M  V30 778 C 75.6261 -0.575733 3.429 0
M  V30 779 H 74.9491 0.0785582 3.99723 0
M  V30 780 H 76.3891 -0.951547 4.13185 0
M  V30 781 C 74.8481 -1.75044 2.87856 0
M  V30 782 O 75.3781 -2.84882 2.83205 0
M  V30 783 N 73.5841 -1.56903 2.44602 0
M  V30 784 H 73.1311 -0.675547 2.48584 0
M  V30 785 H 73.0891 -2.35652 2.08124 0
M  V30 786 N 76.8612 -1.46375 0.584142 0
M  V30 787 C 78.1012 -2.0427 0.0729695 0
M  V30 788 C 78.4652 -1.44563 -1.26355 0
M  V30 789 O 79.6662 -1.93667 -1.86405 0
M  V30 790 C 77.9372 -3.57399 0.00967464 0
M  V30 791 S 79.4962 -4.36551 -0.443714 0
M  V30 792 H 76.3142 -0.709975 0.0381673 0
M  V30 793 H 78.9162 -1.79398 0.776962 0
M  V30 794 H 77.6202 -3.98372 0.986319 0
M  V30 795 H 77.1512 -3.8681 -0.717044 0
M  V30 796 H 79.1662 -4.66237 -1.69816 0
M  V30 797 N 78.3393 -0.321999 -1.54275 0
M  V30 798 C 79.5643 0.285791 -2.05422 0
M  V30 799 C 79.9893 1.45124 -1.19669 0
M  V30 800 O 79.3473 1.80132 -0.205441 0
M  V30 801 C 79.3953 0.69956 -3.53749 0
M  V30 802 O 78.4993 1.8021 -3.70942 0
M  V30 803 H 77.8403 0.0518962 -0.661969 0
M  V30 804 H 80.3703 -0.469954 -1.9913 0
M  V30 805 H 80.3803 0.982649 -3.9599 0
M  V30 806 H 79.0553 -0.152864 -4.15619 0
M  V30 807 H 77.6323 1.51794 -3.40607 0
M  V30 808 N 79.8174 1.5752 -0.0501392 0
M  V30 809 C 81.0424 1.97376 0.636997 0
M  V30 810 C 81.4674 0.927466 1.63645 0
M  V30 811 O 80.8254 -0.10941 1.8097 0
M  V30 812 C 80.8734 3.36304 1.30123 0
M  V30 813 O 79.9774 3.34156 2.41689 0
M  V30 814 H 79.3184 0.642998 0.165679 0
M  V30 815 H 81.8484 2.04258 -0.118233 0
M  V30 816 H 81.8584 3.73008 1.65315 0
M  V30 817 H 80.5334 4.11993 0.568746 0
M  V30 818 H 79.1104 3.09196 2.08451 0
M  V30 819 N 81.2955 -0.223234 1.56011 0
M  V30 820 C 82.7065 -0.790368 1.69145 0
M  V30 821 C 83.0575 -1.85055 0.651845 0
M  V30 822 O 82.1825 -2.15498 -0.197359 0
M  V30 823 C 82.7775 -1.4404 3.06656 0
M  V30 824 C 81.3365 -1.95494 3.2165 0
M  V30 825 C 80.4835 -0.814506 2.65068 0
M  V30 826 H 83.4345 0.00139011 1.587 0
M  V30 827 H 83.4555 -2.30916 3.0242 0
M  V30 828 H 82.9675 -0.668543 3.82298 0
M  V30 829 H 81.0685 -2.75487 2.50874 0
M  V30 830 H 81.1815 -2.13607 4.28846 0
M  V30 831 H 79.5455 -1.22137 2.23505 0
M  V30 832 H 80.3285 -0.0553515 3.43255 0
M  V30 833 N 82.7736 -1.49793 -0.48987 0
M  V30 834 C 83.6836 -1.70036 -1.61632 0
M  V30 835 C 84.6996 -0.583102 -1.63939 0
M  V30 836 O 85.8756 -0.859169 -1.82154 0
M  V30 837 C 82.9406 -1.77277 -2.97949 0
M  V30 838 C 82.0016 -3.00918 -3.06181 0
M  V30 839 C 81.2346 -3.07804 -4.35996 0
M  V30 840 O 81.4576 -2.21982 -5.25433 0
M  V30 841 O 80.3916 -4.00369 -4.49431 0
M  V30 842 H 84.2176 -2.65486 -1.47482 0
M  V30 843 H 81.8026 -1.33666 -0.667362 0
M  V30 844 H 83.6846 -1.84329 -3.78947 0
M  V30 845 H 82.3596 -0.850076 -3.12339 0
M  V30 846 H 81.2666 -2.99377 -2.2433 0
M  V30 847 H 82.5996 -3.92704 -2.96723 0
M  V30 848 N 84.2517 0.741722 -1.39055 0
M  V30 849 C 85.4987 1.50114 -1.35912 0
M  V30 850 C 85.8267 1.94443 0.0470937 0
M  V30 851 O 85.0817 1.66612 1.02659 0
M  V30 852 C 85.3807 2.7592 -2.27163 0
M  V30 853 C 85.0467 2.50493 -3.74919 0
M  V30 854 C 83.7087 2.43267 -4.1518 0
M  V30 855 C 86.0607 2.28585 -4.684 0
M  V30 856 C 83.3887 2.12166 -5.46994 0
M  V30 857 C 85.7407 1.99002 -6.00484 0
M  V30 858 C 84.4047 1.90241 -6.39816 0
M  V30 859 H 83.6747 0.549306 -0.497336 0
M  V30 860 H 86.3217 0.851896 -1.71508 0
M  V30 861 H 84.6267 3.45553 -1.84663 0
M  V30 862 H 86.3237 3.33923 -2.22028 0
M  V30 863 H 82.9137 2.56992 -3.43006 0
M  V30 864 H 87.0977 2.33139 -4.38132 0
M  V30 865 H 82.3537 2.03901 -5.76398 0
M  V30 866 H 86.5277 1.81057 -6.72452 0
M  V30 867 H 84.1547 1.65907 -7.41875 0
M  V30 868 N 85.7298 1.2412 0.971189 0
M  V30 869 C 86.9548 1.10667 1.75407 0
M  V30 870 C 87.3798 -0.337048 1.85056 0
M  V30 871 O 86.7378 -1.24396 1.31892 0
M  V30 872 C 86.7858 1.74726 3.15441 0
M  V30 873 O 85.8898 1.01566 3.99697 0
M  V30 874 H 85.2308 0.387341 0.539317 0
M  V30 875 H 87.7608 1.64358 1.2185 0
M  V30 876 H 87.7708 1.80341 3.6598 0
M  V30 877 H 86.4458 2.79773 3.07734 0
M  V30 878 H 85.0228 1.03713 3.58187 0
M  V30 879 N 87.2079 -1.17134 1.05439 0
M  V30 880 C 88.1549 -2.21235 0.657539 0
M  V30 881 C 89.1249 -1.62551 -0.341543 0
M  V30 882 O 90.3099 -1.89379 -0.232393 0
M  V30 883 C 87.4499 -3.45076 0.0410575 0
M  V30 884 C 86.5629 -4.18042 1.08927 0
M  V30 885 C 85.6979 -5.29376 0.439848 0
M  V30 886 C 84.7369 -5.94132 1.4722 0
M  V30 887 N 83.8739 -6.96975 0.846756 0
M  V30 888 H 88.7139 -2.54534 1.54972 0
M  V30 889 H 86.2509 -1.25028 0.775006 0
M  V30 890 H 88.2089 -4.15862 -0.33383 0
M  V30 891 H 86.8389 -3.12353 -0.814568 0
M  V30 892 H 85.8909 -3.45945 1.58196 0
M  V30 893 H 87.2029 -4.62306 1.87282 0
M  V30 894 H 86.3569 -6.06699 0.0115125 0
M  V30 895 H 85.0959 -4.86251 -0.375656 0
M  V30 896 H 84.1009 -5.15538 1.91052 0
M  V30 897 H 85.3259 -6.39337 2.28965 0
M  V30 898 H 83.2719 -6.5598 0.0518075 0
M  V30 899 H 83.1889 -7.39565 1.5678 0
M  V30 900 H 84.4569 -7.78239 0.443277 0
M  V30 901 N 88.686 -0.835752 -1.33615 0
M  V30 902 C 89.914 -0.443344 -2.02094 0
M  V30 903 C 90.329 0.954522 -1.62894 0
M  V30 904 O 89.686 1.61982 -0.840723 0
M  V30 905 C 89.737 -0.550775 -3.5728 0
M  V30 906 O 89.458 -1.89356 -3.95065 0
M  V30 907 C 90.959 -0.154919 -4.43029 0
M  V30 908 H 88.179 -0.176359 -0.647409 0
M  V30 909 H 90.723 -1.12746 -1.70612 0
M  V30 910 H 88.878 0.0853997 -3.87306 0
M  V30 911 H 89.292 -1.87687 -4.89769 0
M  V30 912 H 90.766 -0.281144 -5.51284 0
M  V30 913 H 91.243 0.902863 -4.2982 0
M  V30 914 H 91.849 -0.765404 -4.18356 0
M  V30 915 N 90.1641 1.46063 -0.591896 0
M  V30 916 C 91.0941 2.33172 0.123673 0
M  V30 917 C 92.0751 1.45897 0.87453 0
M  V30 918 O 93.2601 1.74698 0.848181 0
M  V30 919 C 90.3901 3.28336 1.13194 0
M  V30 920 C 89.3441 4.25124 0.495324 0
M  V30 921 C 88.6701 5.09863 1.61071 0
M  V30 922 C 89.9701 5.19143 -0.573425 0
M  V30 923 H 91.6641 2.93252 -0.603646 0
M  V30 924 H 89.2101 1.41014 -0.291741 0
M  V30 925 H 91.1631 3.88137 1.64097 0
M  V30 926 H 89.8871 2.66383 1.88965 0
M  V30 927 H 88.5461 3.66599 0.00729452 0
M  V30 928 H 88.1941 4.44288 2.35832 0
M  V30 929 H 87.8941 5.75417 1.19035 0
M  V30 930 H 89.4181 5.72529 2.12233 0
M  V30 931 H 90.8321 5.73106 -0.1491 0
M  V30 932 H 89.2291 5.93089 -0.914636 0
M  V30 933 H 90.2991 4.62519 -1.45617 0
M  V30 934 N 91.6422 0.330177 1.54103 0
M  V30 935 C 92.5742 -0.566902 2.22079 0
M  V30 936 C 93.5872 -1.07462 1.22294 0
M  V30 937 O 94.7762 -0.987065 1.48726 0
M  V30 938 C 91.8762 -1.79138 2.87685 0
M  V30 939 C 91.0492 -1.42123 4.13666 0
M  V30 940 C 90.1082 -2.50394 4.62806 0
M  V30 941 O 89.1342 -2.14261 5.27334 0
M  V30 942 N 90.3362 -3.81433 4.37595 0
M  V30 943 H 93.1012 0.0151844 2.99696 0
M  V30 944 H 90.6622 0.153681 1.61169 0
M  V30 945 H 92.6542 -2.50975 3.1748 0
M  V30 946 H 91.2242 -2.28115 2.13734 0
M  V30 947 H 90.4442 -0.534201 3.90564 0
M  V30 948 H 91.7322 -1.14971 4.9564 0
M  V30 949 H 91.1302 -4.13584 3.8596 0
M  V30 950 H 89.6872 -4.4948 4.72029 0
M  V30 951 N 93.1203 -1.57491 0.0584922 0
M  V30 952 C 94.0503 -2.14988 -0.911178 0
M  V30 953 C 95.0313 -1.07343 -1.31952 0
M  V30 954 O 96.2163 -1.35318 -1.39294 0
M  V30 955 C 93.3463 -2.70078 -2.18347 0
M  V30 956 C 92.3003 -3.82771 -1.91495 0
M  V30 957 C 91.6263 -4.24408 -3.25241 0
M  V30 958 C 92.9263 -5.07592 -1.23075 0
M  V30 959 H 94.6203 -2.96263 -0.432246 0
M  V30 960 H 92.1663 -1.42512 -0.206469 0
M  V30 961 H 94.1193 -3.08943 -2.86587 0
M  V30 962 H 92.8433 -1.86005 -2.68458 0
M  V30 963 H 91.5023 -3.44389 -1.25664 0
M  V30 964 H 91.1503 -3.37275 -3.73168 0
M  V30 965 H 90.8503 -5.00366 -3.08071 0
M  V30 966 H 92.3743 -4.65879 -3.94701 0
M  V30 967 H 93.7883 -5.43857 -1.81362 0
M  V30 968 H 92.1853 -5.88741 -1.16207 0
M  V30 969 H 93.2553 -4.84454 -0.207847 0
M  V30 970 N 94.5984 0.214957 -1.56127 0
M  V30 971 C 95.5084 1.28727 -1.96129 0
M  V30 972 C 96.5244 1.50916 -0.866044 0
M  V30 973 O 97.7004 1.63918 -1.17016 0
M  V30 974 C 94.7654 2.61569 -2.27558 0
M  V30 975 C 93.8264 2.47625 -3.50685 0
M  V30 976 C 93.0594 3.74132 -3.80606 0
M  V30 977 O 93.2824 4.77438 -3.12104 0
M  V30 978 O 92.2164 3.70849 -4.74083 0
M  V30 979 H 96.0424 0.977855 -2.87527 0
M  V30 980 H 93.6274 0.418358 -1.43423 0
M  V30 981 H 95.5094 3.40012 -2.48938 0
M  V30 982 H 94.1844 2.92178 -1.39332 0
M  V30 983 H 93.0914 1.67361 -3.34576 0
M  V30 984 H 94.4244 2.21954 -4.39315 0
M  V30 985 N 96.0765 1.50051 0.48192 0
M  V30 986 C 97.3065 1.63999 1.2565 0
M  V30 987 C 97.7145 0.318288 1.86504 0
M  V30 988 O 97.0575 -0.708534 1.69486 0
M  V30 989 C 97.1195 2.66504 2.4128 0
M  V30 990 C 96.7835 4.10352 2.01148 0
M  V30 991 C 97.7805 4.96562 1.54021 0
M  V30 992 C 95.4655 4.56203 2.10199 0
M  V30 993 C 97.4595 6.26668 1.16473 0
M  V30 994 C 95.1465 5.86318 1.72264 0
M  V30 995 C 96.1445 6.71375 1.25477 0
M  V30 996 O 95.8325 7.99062 0.880626 0
M  V30 997 H 95.5645 0.55456 0.386574 0
M  V30 998 H 98.1185 1.96954 0.582944 0
M  V30 999 H 96.3485 2.28769 3.11772 0
M  V30 1000 H 98.0375 2.69783 3.03268 0
M  V30 1001 H 98.8035 4.62358 1.46458 0
M  V30 1002 H 94.6825 3.90152 2.45566 0
M  V30 1003 H 98.2265 6.93011 0.798841 0
M  V30 1004 H 94.1235 6.20046 1.79482 0
M  V30 1005 H 94.8915 8.12239 1.01043 0
M  V30 1006 N 97.5546 -0.734337 1.39446 0
M  V30 1007 C 98.9706 -1.03997 1.21065 0
M  V30 1008 C 99.1706 -2.01369 0.0727019 0
M  V30 1009 O 98.2266 -2.45856 -0.575426 0
M  V30 1010 C 99.5396 -1.60163 2.54496 0
M  V30 1011 C 101.088 -1.7224 2.61347 0
M  V30 1012 C 101.563 -2.31814 3.95002 0
M  V30 1013 N 103.054 -2.39223 3.96644 0
M  V30 1014 C 103.789 -2.86258 4.96834 0
M  V30 1015 N 103.285 -3.33184 6.07421 0
M  V30 1016 N 105.078 -2.85473 4.84213 0
M  V30 1017 H 97.2286 -0.0885624 2.12215 0
M  V30 1018 H 99.4916 -0.10191 0.942506 0
M  V30 1019 H 99.1976 -0.960811 3.38321 0
M  V30 1020 H 99.0716 -2.5896 2.74262 0
M  V30 1021 H 101.459 -2.35443 1.77906 0
M  V30 1022 H 101.54 -0.720939 2.4543 0
M  V30 1023 H 101.184 -1.69238 4.78875 0
M  V30 1024 H 101.114 -3.32638 4.08239 0
M  V30 1025 H 103.605 -2.06057 3.16779 0
M  V30 1026 H 103.918 -3.67586 6.7978 0
M  V30 1027 H 102.263 -3.31191 6.11013 0
M  V30 1028 H 105.454 -2.48136 3.96921 0
M  V30 1029 H 105.627 -3.21814 5.62441 0
M  V30 1030 N 99.0327 -1.24633 -0.964593 0
M  V30 1031 C 100.28 -1.08788 -1.70796 0
M  V30 1032 C 100.608 0.372783 -1.90894 0
M  V30 1033 O 99.8627 1.29167 -1.47018 0
M  V30 1034 C 100.162 -1.7763 -3.10133 0
M  V30 1035 C 99.8277 -3.27557 -3.09866 0
M  V30 1036 C 98.4897 -3.6846 -3.09501 0
M  V30 1037 C 100.842 -4.23389 -3.03959 0
M  V30 1038 C 98.1697 -5.03624 -3.00965 0
M  V30 1039 C 100.522 -5.58565 -2.96965 0
M  V30 1040 C 99.1857 -5.98809 -2.9493 0
M  V30 1041 H 98.4557 -0.398084 -0.624988 0
M  V30 1042 H 101.103 -1.54777 -1.12767 0
M  V30 1043 H 99.4077 -1.24044 -3.71645 0
M  V30 1044 H 101.105 -1.62832 -3.66451 0
M  V30 1045 H 97.6947 -2.95006 -3.10917 0
M  V30 1046 H 101.879 -3.92787 -3.03368 0
M  V30 1047 H 97.1347 -5.33998 -2.97752 0
M  V30 1048 H 101.309 -6.32523 -2.91354 0
M  V30 1049 H 98.9357 -7.03505 -2.88071 0
M  V30 1050 N 100.511 1.16574 -1.06058 0
M  V30 1051 C 101.421 2.2452 -0.680282 0
M  V30 1052 C 102.437 1.71348 0.302604 0
M  V30 1053 O 103.613 2.00822 0.152513 0
M  V30 1054 C 100.678 3.46629 -0.0700315 0
M  V30 1055 C 99.7388 4.14849 -1.10448 0
M  V30 1056 C 98.9718 5.31129 -0.523256 0
M  V30 1057 O 99.1948 5.66514 0.664709 0
M  V30 1058 O 98.1288 5.88526 -1.26179 0
M  V30 1059 H 101.955 2.59355 -1.58015 0
M  V30 1060 H 99.5398 1.24043 -0.832694 0
M  V30 1061 H 101.422 4.20543 0.268667 0
M  V30 1062 H 100.097 3.13573 0.803353 0
M  V30 1063 H 99.0038 3.42916 -1.49532 0
M  V30 1064 H 100.337 4.51954 -1.94931 0
M  V30 1065 N 101.989 0.842826 1.3317 0
M  V30 1066 C 103.217 0.454055 2.01856 0
M  V30 1067 C 103.632 -0.94587 1.63397 0
M  V30 1068 O 102.989 -1.61534 0.849302 0
M  V30 1069 C 103.04 0.569715 3.56982 0
M  V30 1070 O 102.761 1.91448 3.94055 0
M  V30 1071 C 104.262 0.178412 4.42941 0
M  V30 1072 H 101.482 0.17979 0.646465 0
M  V30 1073 H 104.026 1.1365 1.70012 0
M  V30 1074 H 102.181 -0.0648587 3.87346 0
M  V30 1075 H 102.595 1.90282 4.88767 0
M  V30 1076 H 104.069 0.310376 5.51127 0
M  V30 1077 H 104.546 -0.880056 4.30293 0
M  V30 1078 H 105.152 0.787579 4.17944 0
M  V30 1079 N 103.467 -1.45747 0.599634 0
M  V30 1080 C 104.713 -2.02592 0.0918643 0
M  V30 1081 C 105.046 -1.46806 -1.27128 0
M  V30 1082 O 104.321 -0.639658 -1.83681 0
M  V30 1083 C 104.604 -3.60073 0.0443398 0
M  V30 1084 C 104.457 -4.26208 1.43759 0
M  V30 1085 C 105.776 -4.35309 -0.647608 0
M  V30 1086 H 102.895 -0.736175 0.034857 0
M  V30 1087 H 105.537 -1.73694 0.770081 0
M  V30 1088 H 103.687 -3.84823 -0.533224 0
M  V30 1089 H 105.359 -4.12668 2.06162 0
M  V30 1090 H 103.602 -3.84916 2.00056 0
M  V30 1091 H 104.273 -5.35069 1.35665 0
M  V30 1092 H 106.749 -4.15805 -0.156776 0
M  V30 1093 H 105.625 -5.45038 -0.649942 0
M  V30 1094 H 105.886 -4.07598 -1.71219 0
M  V30 1095 N 104.945 -0.338344 -1.53925 0
M  V30 1096 C 105.877 0.555117 -2.22376 0
M  V30 1097 C 106.89 1.06812 -1.22862 0
M  V30 1098 O 108.079 0.979163 -1.49247 0
M  V30 1099 C 105.179 1.77609 -2.88631 0
M  V30 1100 C 104.352 1.39927 -4.14414 0
M  V30 1101 C 103.411 2.47936 -4.64127 0
M  V30 1102 O 102.437 2.11461 -5.28463 0
M  V30 1103 N 103.639 3.79107 -4.39612 0
M  V30 1104 H 106.404 -0.0310778 -2.99684 0
M  V30 1105 H 103.965 -0.162226 -1.61085 0
M  V30 1106 H 105.957 2.49287 -3.18807 0
M  V30 1107 H 104.527 2.26978 -2.14941 0
M  V30 1108 H 103.747 0.513481 -3.90841 0
M  V30 1109 H 105.035 1.12341 -4.96243 0
M  V30 1110 H 104.433 4.11531 -3.88148 0
M  V30 1111 H 102.99 4.4697 -4.74406 0
M  V30 1112 N 106.423 1.57458 -0.0668435 0
M  V30 1113 C 107.37 2.12439 0.902122 0
M  V30 1114 C 108.34 1.03565 1.2986 0
M  V30 1115 O 109.525 1.312 1.38532 0
M  V30 1116 C 106.665 2.6865 2.16614 0
M  V30 1117 C 105.778 3.91663 1.82274 0
M  V30 1118 C 104.913 4.36134 3.0325 0
M  V30 1119 C 103.952 5.51808 2.64904 0
M  V30 1120 N 103.089 5.9126 3.78624 0
M  V30 1121 H 107.929 2.94934 0.426382 0
M  V30 1122 H 105.466 1.4575 0.198819 0
M  V30 1123 H 107.424 2.99346 2.90599 0
M  V30 1124 H 106.054 1.88928 2.61737 0
M  V30 1125 H 105.106 3.6746 0.983719 0
M  V30 1126 H 106.418 4.75693 1.50059 0
M  V30 1127 H 105.572 4.68465 3.85519 0
M  V30 1128 H 104.311 3.50948 3.38655 0
M  V30 1129 H 103.316 5.19133 1.81055 0
M  V30 1130 H 104.541 6.38722 2.30675 0
M  V30 1131 H 102.487 5.09024 4.138 0
M  V30 1132 H 102.404 6.70018 3.5016 0
M  V30 1133 H 103.672 6.28212 4.61486 0
M  V30 1134 N 107.901 -0.206675 1.56239 0
M  V30 1135 C 108.831 -1.25909 1.96645 0
M  V30 1136 C 109.812 -1.48097 0.836734 0
M  V30 1137 O 110.997 -1.6003 1.10019 0
M  V30 1138 C 108.127 -2.6058 2.29599 0
M  V30 1139 C 107.081 -2.53024 3.452 0
M  V30 1140 C 106.407 -3.91861 3.63798 0
M  V30 1141 C 107.707 -2.06524 4.79734 0
M  V30 1142 H 109.401 -0.923369 2.84806 0
M  V30 1143 H 106.947 -0.442735 1.37025 0
M  V30 1144 H 108.9 -3.34375 2.56459 0
M  V30 1145 H 107.624 -2.95869 1.38307 0
M  V30 1146 H 106.283 -1.81684 3.18412 0
M  V30 1147 H 105.931 -4.24483 2.69857 0
M  V30 1148 H 105.631 -3.87683 4.4156 0
M  V30 1149 H 107.155 -4.67296 3.93022 0
M  V30 1150 H 108.569 -2.70072 5.05702 0
M  V30 1151 H 106.966 -2.13374 5.60885 0
M  V30 1152 H 108.036 -1.01802 4.74093 0
M  V30 1153 N 109.379 -1.50304 -0.473955 0
M  V30 1154 C 110.795 -1.37667 -0.807466 0
M  V30 1155 C 110.995 -0.430555 -1.96846 0
M  V30 1156 O 110.051 0.127874 -2.52176 0
M  V30 1157 C 111.364 -2.78974 -1.12223 0
M  V30 1158 C 112.912 -2.87868 -1.22885 0
M  V30 1159 C 113.387 -4.30003 -1.57676 0
M  V30 1160 N 114.878 -4.3294 -1.64673 0
M  V30 1161 C 115.613 -5.3991 -1.93091 0
M  V30 1162 N 115.109 -6.57092 -2.1955 0
M  V30 1163 N 116.902 -5.27351 -1.94569 0
M  V30 1164 H 109.053 -2.10394 0.291212 0
M  V30 1165 H 111.316 -0.945575 0.0677609 0
M  V30 1166 H 111.022 -3.50031 -0.342229 0
M  V30 1167 H 110.896 -3.16038 -2.05913 0
M  V30 1168 H 113.283 -2.17032 -1.99953 0
M  V30 1169 H 113.364 -2.54352 -0.271814 0
M  V30 1170 H 113.008 -5.01375 -0.81149 0
M  V30 1171 H 112.938 -4.61004 -2.54525 0
M  V30 1172 H 115.429 -3.48441 -1.46277 0
M  V30 1173 H 115.742 -7.34425 -2.405 0
M  V30 1174 H 114.087 -6.60272 -2.16948 0
M  V30 1175 H 117.278 -4.34801 -1.73394 0
M  V30 1176 H 117.451 -6.10805 -2.16381 0
M  V30 1177 N 110.857 0.726932 -1.39834 0
M  V30 1178 C 112.104 1.48664 -1.37496 0
M  V30 1179 C 112.432 1.94482 0.0264678 0
M  V30 1180 O 111.687 1.67692 1.00886 0
M  V30 1181 C 111.986 2.73495 -2.30077 0
M  V30 1182 C 111.652 2.46502 -3.77555 0
M  V30 1183 C 110.314 2.3885 -4.17737 0
M  V30 1184 C 112.666 2.23604 -4.70798 0
M  V30 1185 C 109.994 2.06352 -5.49214 0
M  V30 1186 C 112.346 1.92622 -6.02561 0
M  V30 1187 C 111.01 1.83444 -6.41798 0
M  V30 1188 H 110.28 0.544001 -0.503135 0
M  V30 1189 H 112.927 0.833657 -1.72402 0
M  V30 1190 H 111.232 3.43575 -1.88317 0
M  V30 1191 H 112.929 3.31549 -2.25558 0
M  V30 1192 H 109.519 2.5334 -3.45712 0
M  V30 1193 H 113.703 2.28479 -4.40581 0
M  V30 1194 H 108.959 1.97776 -5.78528 0
M  V30 1195 H 113.133 1.73914 -6.74334 0
M  V30 1196 H 110.76 1.58029 -7.43593 0
M  V30 1197 N 112.336 1.25143 0.95797 0
M  V30 1198 C 113.584 1.09476 1.69881 0
M  V30 1199 C 113.905 -0.365502 1.91544 0
M  V30 1200 O 113.175 -1.25985 1.50015 0
M  V30 1201 H 111.755 0.402128 0.629525 0
M  V30 1202 H 114.417 1.57214 1.15194 0
M  V30 1203 H 113.513 1.60046 2.6794 0
M  V30 1204 N 113.814 -1.1601 1.06675 0
M  V30 1205 C 115.063 -1.85973 0.780818 0
M  V30 1206 C 115.376 -1.82819 -0.695444 0
M  V30 1207 O 116.582 -2.484 -1.09589 0
M  V30 1208 C 115.038 -3.33757 1.34665 0
M  V30 1209 C 114.646 -3.45374 2.85343 0
M  V30 1210 C 116.39 -4.0895 1.13843 0
M  V30 1211 C 114.297 -4.87266 3.35151 0
M  V30 1212 H 113.227 -0.696661 0.288407 0
M  V30 1213 H 115.878 -1.30903 1.28595 0
M  V30 1214 H 114.26 -3.88456 0.769274 0
M  V30 1215 H 115.434 -3.00816 3.49065 0
M  V30 1216 H 113.749 -2.83619 3.04876 0
M  V30 1217 H 116.346 -5.13654 1.4854 0
M  V30 1218 H 116.689 -4.16229 0.0770282 0
M  V30 1219 H 117.222 -3.605 1.68179 0
M  V30 1220 H 113.961 -4.85168 4.40786 0
M  V30 1221 H 113.481 -5.32433 2.76179 0
M  V30 1222 H 115.16 -5.56097 3.30704 0
M  V30 1223 N 115.292 -0.849877 -1.32721 0
M  V30 1224 C 116.522 -0.46408 -2.0132 0
M  V30 1225 C 116.93 0.94246 -1.64056 0
M  V30 1226 O 116.273 1.6257 -0.855379 0
M  V30 1227 C 116.335 -0.517887 -3.5575 0
M  V30 1228 C 115.999 -1.88248 -4.16427 0
M  V30 1229 C 116.996 -2.84726 -4.35002 0
M  V30 1230 C 114.681 -2.17832 -4.52609 0
M  V30 1231 C 116.675 -4.08945 -4.8892 0
M  V30 1232 C 114.362 -3.42304 -5.06232 0
M  V30 1233 C 115.36 -4.37677 -5.24335 0
M  V30 1234 O 115.048 -5.59946 -5.76815 0
M  V30 1235 H 114.78 -0.181327 -0.651227 0
M  V30 1236 H 117.334 -1.14713 -1.70382 0
M  V30 1237 H 115.564 0.221997 -3.86062 0
M  V30 1238 H 117.253 -0.148366 -4.05629 0
M  V30 1239 H 118.019 -2.63174 -4.07388 0
M  V30 1240 H 113.898 -1.44385 -4.37806 0
M  V30 1241 H 117.442 -4.83396 -5.02966 0
M  V30 1242 H 113.339 -3.63709 -5.33278 0
M  V30 1243 H 114.107 -5.61838 -5.95214 0
M  V30 1244 N 116.77 1.45427 -0.607355 0
M  V30 1245 C 118.047 1.9557 -0.0344566 0
M  V30 1246 C 118.427 1.54979 1.43334 0
M  V30 1247 O 117.775 0.812241 2.13576 0
M  V30 1248 C 117.985 3.48226 -0.232321 0
M  V30 1249 C 119.333 4.2445 -0.113001 0
M  V30 1250 O 120.357 3.55829 -0.162431 0
M  V30 1251 O 119.216 5.465 0.00209442 0
M  V30 1252 H 116.31 0.826222 0.0358667 0
M  V30 1253 H 118.856 1.55594 -0.6774 0
M  V30 1254 H 117.628 3.70739 -1.25174 0
M  V30 1255 H 117.251 3.95092 0.445896 0
M  V30 1256 N 118.248 0.346503 1.53744 0
M  V30 1257 C 119.497 -0.250122 2.00143 0
M  V30 1258 C 119.81 -1.51418 1.23822 0
M  V30 1259 O 121.016 -2.18823 1.60713 0
M  V30 1260 C 119.472 -0.496252 3.56462 0
M  V30 1261 C 119.08 0.752077 4.41642 0
M  V30 1262 C 120.824 -1.05157 4.11269 0
M  V30 1263 C 118.731 0.476583 5.89477 0
M  V30 1264 H 117.661 -0.0972409 0.747703 0
M  V30 1265 H 120.312 0.46229 1.77581 0
M  V30 1266 H 118.694 -1.26944 3.75102 0
M  V30 1267 H 119.868 1.5266 4.34778 0
M  V30 1268 H 118.183 1.22925 3.97842 0
M  V30 1269 H 120.78 -1.27269 5.19333 0
M  V30 1270 H 121.123 -2.00799 3.64672 0
M  V30 1271 H 121.656 -0.339019 3.96353 0
M  V30 1272 H 118.395 1.4028 6.40314 0
M  V30 1273 H 117.915 -0.259794 5.99237 0
M  V30 1274 H 119.594 0.0949315 6.4693 0
M  V30 1275 N 119.726 -1.57421 0.075193 0
M  V30 1276 C 121.003 -1.85029 -0.634329 0
M  V30 1277 C 121.383 -0.968305 -1.87582 0
M  V30 1278 O 120.731 -0.0354749 -2.28472 0
M  V30 1279 C 120.941 -3.35286 -0.968742 0
M  V30 1280 C 122.289 -4.02875 -1.34077 0
M  V30 1281 O 123.313 -3.40051 -1.06037 0
M  V30 1282 O 122.172 -5.13691 -1.86506 0
M  V30 1283 H 119.266 -0.7645 -0.315387 0
M  V30 1284 H 121.812 -1.69366 0.106382 0
M  V30 1285 H 120.584 -3.91203 -0.0871376 0
M  V30 1286 H 120.207 -3.56223 -1.7661 0
M  V30 1287 N 121.204 0.198386 -1.56346 0
M  V30 1288 C 122.152 1.26538 -1.95169 0
M  V30 1289 C 123.146 1.47295 -0.836685 0
M  V30 1290 O 124.352 1.48195 -1.02167 0
M  V30 1291 H 120.727 0.424744 -0.620561 0
M  V30 1292 H 122.698 0.910904 -2.84157 0
M  V30 1293 C 121.447 2.6035 -2.30463 0
M  V30 1294 H 120.77 2.45192 -3.15786 0
M  V30 1295 H 122.21 3.33762 -2.61494 0
M  V30 1296 C 120.669 3.17096 -1.13806 0
M  V30 1297 O 121.199 3.99588 -0.41135 0
M  V30 1298 N 119.405 2.75795 -0.915736 0
M  V30 1299 H 118.952 2.08816 -1.50843 0
M  V30 1300 H 118.91 3.14101 -0.136979 0
M  V30 1301 N 122.682 1.50554 0.465978 0
M  V30 1302 C 123.629 1.6979 1.56333 0
M  V30 1303 C 124.599 0.539239 1.57103 0
M  V30 1304 O 125.784 0.770401 1.74555 0
M  V30 1305 C 122.924 1.80273 2.94271 0
M  V30 1306 C 122.037 3.07674 3.0325 0
M  V30 1307 C 121.172 3.08922 4.32135 0
M  V30 1308 C 120.211 4.30755 4.34875 0
M  V30 1309 N 119.348 4.29714 5.55239 0
M  V30 1310 H 124.188 2.63472 1.39235 0
M  V30 1311 H 121.725 1.30602 0.676873 0
M  V30 1312 H 123.683 1.84332 3.74269 0
M  V30 1313 H 122.313 0.900258 3.09992 0
M  V30 1314 H 121.365 3.13062 2.16094 0
M  V30 1315 H 122.677 3.97642 3.01135 0
M  V30 1316 H 121.831 3.11738 5.20485 0
M  V30 1317 H 120.57 2.16792 4.36866 0
M  V30 1318 H 119.575 4.28146 3.44922 0
M  V30 1319 H 120.8 5.24117 4.31831 0
M  V30 1320 H 118.746 3.4044 5.60746 0
M  V30 1321 H 118.663 5.13456 5.54886 0
M  V30 1322 H 119.931 4.36683 6.457 0
M  V30 1323 N 124.16 -0.719506 1.40217 0
M  V30 1324 C 125.388 -1.50864 1.41589 0
M  V30 1325 C 125.803 -1.88794 0.0145275 0
M  V30 1326 O 125.16 -1.55174 -0.960594 0
M  V30 1327 C 125.211 -2.78646 2.30302 0
M  V30 1328 O 124.932 -2.42321 3.64983 0
M  V30 1329 C 126.433 -3.72569 2.40224 0
M  V30 1330 H 123.653 -0.465709 0.48307 0
M  V30 1331 H 126.197 -0.88785 1.84221 0
M  V30 1332 H 124.352 -3.37019 1.91042 0
M  V30 1333 H 124.766 -3.24514 4.12057 0
M  V30 1334 H 126.24 -4.5908 3.06512 0
M  V30 1335 H 126.717 -4.15403 1.42608 0
M  V30 1336 H 127.323 -3.20109 2.80019 0
M  V30 1337 N 125.638 -1.25649 -0.95132 0
M  V30 1338 C 127.049 -1.09654 -1.51106 0
M  V30 1339 C 127.4 0.326615 -1.93462 0
M  V30 1340 O 126.525 1.21697 -1.78938 0
M  V30 1341 C 127.12 -1.98437 -2.74605 0
M  V30 1342 C 125.679 -1.86618 -3.2688 0
M  V30 1343 C 124.826 -1.9239 -1.99703 0
M  V30 1344 H 127.777 -1.38887 -0.767865 0
M  V30 1345 H 127.798 -1.5263 -3.48546 0
M  V30 1346 H 127.31 -3.02009 -2.43746 0
M  V30 1347 H 125.411 -0.859421 -3.62553 0
M  V30 1348 H 125.524 -2.71607 -3.94673 0
M  V30 1349 H 123.888 -1.36317 -2.15151 0
M  V30 1350 H 124.671 -2.97573 -1.71188 0
M  V30 1351 N 127.117 1.15442 -1.07289 0
M  V30 1352 C 128.027 2.23786 -0.704057 0
M  V30 1353 C 129.043 1.7166 0.284413 0
M  V30 1354 O 130.219 2.00972 0.131205 0
M  V30 1355 C 127.284 3.46535 -0.106792 0
M  V30 1356 C 126.345 4.13654 -1.14842 0
M  V30 1357 C 125.578 5.30544 -0.57956 0
M  V30 1358 O 125.801 5.67187 0.604585 0
M  V30 1359 O 124.735 5.87154 -1.32414 0
M  V30 1360 H 128.561 2.57664 -1.60757 0
M  V30 1361 H 126.146 1.23152 -0.845803 0
M  V30 1362 H 128.028 4.20804 0.224048 0
M  V30 1363 H 126.703 3.14407 0.770049 0
M  V30 1364 H 125.61 3.4131 -1.5316 0
M  V30 1365 H 126.943 4.49861 -1.99714 0
M  V30 1366 N 128.595 0.856903 1.32268 0
M  V30 1367 C 129.525 0.31858 2.31316 0
M  V30 1368 C 130.506 -0.583487 1.59779 0
M  V30 1369 O 131.691 -0.503259 1.87566 0
M  V30 1370 C 128.821 -0.491979 3.43798 0
M  V30 1371 C 127.775 0.315849 4.26833 0
M  V30 1372 C 127.101 -0.619586 5.31098 0
M  V30 1373 C 128.401 1.54282 4.98993 0
M  V30 1374 H 130.095 1.14621 2.76591 0
M  V30 1375 H 127.641 0.552613 1.32974 0
M  V30 1376 H 129.594 -0.879012 4.1213 0
M  V30 1377 H 128.318 -1.35299 2.97257 0
M  V30 1378 H 126.977 0.684664 3.6015 0
M  V30 1379 H 126.625 -1.47751 4.8081 0
M  V30 1380 H 126.325 -0.0830621 5.87541 0
M  V30 1381 H 127.849 -1.00375 6.02293 0
M  V30 1382 H 129.263 1.22796 5.59995 0
M  V30 1383 H 127.66 2.01745 5.65172 0
M  V30 1384 H 128.73 2.30285 4.26728 0
M  V30 1385 N 130.073 -1.45103 0.615059 0
M  V30 1386 C 131.489 -1.57137 0.279322 0
M  V30 1387 C 131.689 -1.60523 -1.21797 0
M  V30 1388 O 130.745 -1.53956 -2.00134 0
M  V30 1389 C 132.058 -2.85062 0.957083 0
M  V30 1390 C 133.606 -2.98749 0.933706 0
M  V30 1391 C 134.081 -4.29455 1.59162 0
M  V30 1392 N 135.572 -4.36231 1.55746 0
M  V30 1393 C 136.307 -5.36051 2.0356 0
M  V30 1394 N 135.803 -6.42367 2.59494 0
M  V30 1395 N 137.596 -5.27456 1.94284 0
M  V30 1396 H 129.747 -1.41148 1.58717 0
M  V30 1397 H 132.01 -0.675331 0.665306 0
M  V30 1398 H 131.716 -2.88488 2.01166 0
M  V30 1399 H 131.59 -3.7407 0.48494 0
M  V30 1400 H 133.977 -2.94886 -0.112347 0
M  V30 1401 H 134.058 -2.11132 1.44419 0
M  V30 1402 H 133.702 -4.34077 2.63704 0
M  V30 1403 H 133.632 -5.15901 1.0561 0
M  V30 1404 H 136.123 -3.60011 1.14893 0
M  V30 1405 H 136.436 -7.14793 2.93752 0
M  V30 1406 H 134.781 -6.43097 2.63537 0
M  V30 1407 H 137.972 -4.43308 1.5032 0
M  V30 1408 H 138.145 -6.05099 2.3186 0
M  V30 1409 N 131.551 -0.354651 -1.53558 0
M  V30 1410 C 132.828 0.294281 -1.93374 0
M  V30 1411 C 133.208 1.67313 -1.28723 0
M  V30 1412 O 132.556 2.24179 -0.442247 0
M  V30 1413 C 132.766 0.355445 -3.47185 0
M  V30 1414 C 134.114 0.601007 -4.20325 0
M  V30 1415 O 135.138 0.437106 -3.53508 0
M  V30 1416 O 133.997 0.919322 -5.38712 0
M  V30 1417 H 131.091 0.174033 -0.808481 0
M  V30 1418 H 133.637 -0.406638 -1.64756 0
M  V30 1419 H 132.409 -0.611729 -3.86489 0
M  V30 1420 H 132.032 1.1027 -3.82003 0
M  V30 1421 N 133.029 1.57378 -0.0835403 0
M  V30 1422 C 134.306 1.85363 0.624507 0
M  V30 1423 C 134.686 0.978239 1.87066 0
M  V30 1424 O 134.034 0.0475908 2.2845 0
M  V30 1425 C 134.244 3.35795 0.950947 0
M  V30 1426 C 135.592 4.03581 1.31939 0
M  V30 1427 O 136.616 3.40609 1.04232 0
M  V30 1428 O 135.475 5.14672 1.83779 0
M  V30 1429 H 132.569 0.766162 0.311329 0
M  V30 1430 H 135.115 1.69307 -0.115362 0
M  V30 1431 H 133.887 3.91244 0.0663899 0
M  V30 1432 H 133.51 3.57154 1.74719 0
M  V30 1433 N 134.507 -0.190092 1.56449 0
M  V30 1434 C 135.784 -0.935886 1.71757 0
M  V30 1435 C 136.164 -2.01173 0.639726 0
M  V30 1436 O 135.512 -2.25827 -0.348502 0
M  V30 1437 C 135.722 -1.51775 3.1427 0
M  V30 1438 C 137.07 -1.99794 3.74656 0
M  V30 1439 O 138.094 -1.61607 3.1743 0
M  V30 1440 O 136.953 -2.70079 4.751 0
M  V30 1441 H 134.047 -0.439229 0.700719 0
M  V30 1442 H 136.593 -0.179395 1.68749 0
M  V30 1443 H 135.365 -0.742505 3.84191 0
M  V30 1444 H 134.988 -2.33894 3.21527 0
M  V30 1445 N 135.985 -1.50799 -0.457987 0
M  V30 1446 C 137.232 -1.62442 -1.20908 0
M  V30 1447 C 137.56 -0.330865 -1.91665 0
M  V30 1448 O 136.815 0.68401 -1.83357 0
M  V30 1449 C 137.114 -2.76358 -2.2663 0
M  V30 1450 C 136.78 -4.16378 -1.73033 0
M  V30 1451 C 135.442 -4.54473 -1.58138 0
M  V30 1452 C 137.794 -5.03836 -1.33413 0
M  V30 1453 C 135.122 -5.77754 -1.02065 0
M  V30 1454 C 137.474 -6.27676 -0.78778 0
M  V30 1455 C 136.138 -6.64562 -0.625561 0
M  V30 1456 H 135.408 -0.594417 -0.442435 0
M  V30 1457 H 138.055 -1.84772 -0.503136 0
M  V30 1458 H 136.36 -2.48167 -3.03184 0
M  V30 1459 H 138.057 -2.82568 -2.84528 0
M  V30 1460 H 134.647 -3.86331 -1.85598 0
M  V30 1461 H 138.831 -4.75026 -1.4375 0
M  V30 1462 H 134.087 -6.04997 -0.882547 0
M  V30 1463 H 138.261 -6.94797 -0.472177 0
M  V30 1464 H 135.888 -7.59965 -0.188926 0
M  V30 1465 N 137.463 0.71206 -1.40597 0
M  V30 1466 C 138.393 1.83889 -1.43899 0
M  V30 1467 C 139.374 1.67442 -0.299504 0
M  V30 1468 O 140.559 1.87421 -0.508624 0
M  V30 1469 C 137.689 3.21877 -1.30431 0
M  V30 1470 C 136.643 3.53002 -2.42019 0
M  V30 1471 C 135.969 4.90172 -2.13626 0
M  V30 1472 C 137.269 3.53643 -3.84362 0
M  V30 1473 H 138.963 1.81383 -2.38203 0
M  V30 1474 H 136.509 0.871237 -1.14654 0
M  V30 1475 H 138.462 4.00404 -1.31357 0
M  V30 1476 H 137.186 3.24968 -0.326049 0
M  V30 1477 H 135.845 2.76818 -2.40349 0
M  V30 1478 H 135.493 4.89869 -1.14182 0
M  V30 1479 H 135.193 5.11962 -2.88389 0
M  V30 1480 H 136.717 5.71028 -2.1624 0
M  V30 1481 H 138.131 4.22203 -3.87837 0
M  V30 1482 H 136.528 3.86961 -4.58673 0
M  V30 1483 H 137.598 2.52954 -4.13693 0
M  V30 1484 N 138.941 1.26152 0.944643 0
M  V30 1485 C 140.189 1.11271 1.6871 0
M  V30 1486 C 140.51 -0.345166 1.91921 0
M  V30 1487 O 139.78 -1.24387 1.51343 0
M  V30 1488 H 138.36 0.408783 0.625224 0
M  V30 1489 H 141.022 1.58427 1.1352 0
M  V30 1490 H 140.118 1.62879 2.66227 0
M  V30 1491 N 140.419 -1.14872 1.07899 0
M  V30 1492 C 141.667 -1.85422 0.803941 0
M  V30 1493 C 141.988 -1.83051 -0.67211 0
M  V30 1494 O 141.258 -1.27532 -1.48703 0
M  V30 1495 H 139.838 -0.686537 0.294408 0
M  V30 1496 H 142.5 -1.39226 1.3639 0
M  V30 1497 H 141.596 -2.90399 1.14346 0
M  V30 1498 N 141.898 -0.863906 -1.31812 0
M  V30 1499 C 142.861 -0.320212 -2.26952 0
M  V30 1500 C 143.861 0.525369 -1.51975 0
M  V30 1501 O 145.051 0.335547 -1.70938 0
M  V30 1502 C 142.183 0.545919 -3.365 0
M  V30 1503 H 143.376 -1.16004 -2.76556 0
M  V30 1504 H 140.929 -0.638995 -1.42641 0
M  V30 1505 H 141.664 1.40718 -2.92179 0
M  V30 1506 H 141.449 -0.0594674 -3.92055 0
M  V30 1507 H 142.939 0.918796 -4.07367 0
M  V30 1508 N 143.376 1.44774 -0.622745 0
M  V30 1509 C 144.286 2.34433 0.0886031 0
M  V30 1510 C 145.302 1.52131 0.844529 0
M  V30 1511 O 146.478 1.84886 0.798691 0
M  V30 1512 C 143.543 3.29986 1.0635 0
M  V30 1513 C 142.604 4.28195 0.307873 0
M  V30 1514 C 141.837 5.19183 1.23633 0
M  V30 1515 O 142.06 5.13918 2.47476 0
M  V30 1516 O 140.994 5.97515 0.725189 0
M  V30 1517 H 144.82 2.96693 -0.648599 0
M  V30 1518 H 142.405 1.44408 -0.382957 0
M  V30 1519 H 144.287 3.88825 1.6246 0
M  V30 1520 H 142.962 2.70269 1.78146 0
M  V30 1521 H 141.869 3.72927 -0.296064 0
M  V30 1522 H 143.202 4.90808 -0.3699 0
M  V30 1523 N 144.854 0.36279 1.53368 0
M  V30 1524 C 146.094 -0.227882 2.03126 0
M  V30 1525 C 146.458 -1.4622 1.24434 0
M  V30 1526 O 147.659 -2.12831 1.64184 0
M  V30 1527 C 145.93 -0.515427 3.53664 0
M  V30 1528 S 147.489 -1.08017 4.25297 0
M  V30 1529 H 144.307 -0.0665377 0.70788 0
M  V30 1530 H 146.909 0.50501 1.88865 0
M  V30 1531 H 145.613 0.390436 4.08539 0
M  V30 1532 H 145.144 -1.27747 3.72081 0
M  V30 1533 H 147.159 -2.36462 4.36234 0
M  V30 1534 N 146.332 -1.57332 0.0918853 0
M  V30 1535 C 147.557 -1.98995 -0.584442 0
M  V30 1536 C 147.982 -0.970528 -1.61128 0
M  V30 1537 O 147.34 0.0613904 -1.81196 0
M  V30 1538 C 147.388 -3.39636 -1.21161 0
M  V30 1539 O 146.492 -3.40447 -2.32744 0
M  V30 1540 H 145.833 -0.647165 -0.148572 0
M  V30 1541 H 148.363 -2.03873 0.172347 0
M  V30 1542 H 148.373 -3.7726 -1.55367 0
M  V30 1543 H 147.048 -4.13356 -0.459313 0
M  V30 1544 H 145.625 -3.14614 -2.0018 0
M  V30 1545 N 147.81 0.181792 -1.56548 0
M  V30 1546 C 148.74 1.22765 -1.98623 0
M  V30 1547 C 149.721 1.46747 -0.860189 0
M  V30 1548 O 150.906 1.58259 -1.12551 0
M  V30 1549 C 148.036 2.56894 -2.33715 0
M  V30 1550 C 146.99 2.475 -3.49182 0
M  V30 1551 C 146.316 3.86023 -3.69986 0
M  V30 1552 C 147.616 1.98866 -4.82959 0
M  V30 1553 H 149.31 0.877942 -2.86239 0
M  V30 1554 H 146.856 0.42088 -1.37712 0
M  V30 1555 H 148.809 3.30253 -2.61746 0
M  V30 1556 H 147.533 2.93632 -1.42997 0
M  V30 1557 H 146.192 1.76596 -3.21262 0
M  V30 1558 H 145.84 4.20136 -2.76576 0
M  V30 1559 H 145.54 3.80609 -4.47672 0
M  V30 1560 H 147.064 4.60984 -4.00407 0
M  V30 1561 H 148.478 2.61992 -5.09934 0
M  V30 1562 H 146.875 2.04424 -5.64208 0
M  V30 1563 H 147.945 0.942465 -4.75653 0
M  V30 1564 N 149.288 1.51039 0.449983 0
M  V30 1565 C 150.536 1.62759 1.19808 0
M  V30 1566 C 150.857 0.339981 1.92013 0
M  V30 1567 O 150.127 -0.643606 1.85026 0
M  V30 1568 H 148.707 0.599811 0.445237 0
M  V30 1569 H 151.369 1.87914 0.517138 0
M  V30 1570 H 150.465 2.44911 1.93455 0
M  V30 1571 N 150.766 -0.704594 1.40972 0
M  V30 1572 C 151.698 -1.82974 1.38033 0
M  V30 1573 C 152.711 -1.60305 0.283931 0
M  V30 1574 O 153.9 -1.69975 0.545042 0
M  V30 1575 C 151 -3.19578 1.12795 0
M  V30 1576 C 150.173 -3.69352 2.34302 0
M  V30 1577 C 149.232 -4.84601 2.05058 0
M  V30 1578 O 148.258 -4.96682 2.7802 0
M  V30 1579 N 149.46 -5.71194 1.03528 0
M  V30 1580 H 152.225 -1.85991 2.35005 0
M  V30 1581 H 149.786 -0.886567 1.35468 0
M  V30 1582 H 151.778 -3.9429 0.911987 0
M  V30 1583 H 150.348 -3.11642 0.24452 0
M  V30 1584 H 149.568 -2.85649 2.71659 0
M  V30 1585 H 150.856 -3.99345 3.1528 0
M  V30 1586 H 150.254 -5.64054 0.431217 0
M  V30 1587 H 148.811 -6.45843 0.879205 0
M  V30 1588 N 152.244 -1.26651 -0.937939 0
M  V30 1589 C 153.493 -1.11775 -1.67897 0
M  V30 1590 C 153.806 0.33794 -1.92659 0
M  V30 1591 O 155.012 0.607434 -2.64618 0
M  V30 1592 C 153.468 -1.9523 -3.02346 0
M  V30 1593 C 153.076 -3.45393 -2.8532 0
M  V30 1594 C 154.82 -1.88972 -3.80118 0
M  V30 1595 C 152.727 -4.21083 -4.15263 0
M  V30 1596 H 151.657 -0.414696 -0.629717 0
M  V30 1597 H 154.308 -1.50988 -1.04283 0
M  V30 1598 H 152.69 -1.48853 -3.66959 0
M  V30 1599 H 153.864 -3.99561 -2.29537 0
M  V30 1600 H 152.179 -3.52921 -2.20988 0
M  V30 1601 H 154.776 -2.42805 -4.76392 0
M  V30 1602 H 155.119 -0.86113 -4.07296 0
M  V30 1603 H 155.652 -2.33189 -3.22285 0
M  V30 1604 H 152.391 -5.24425 -3.93267 0
M  V30 1605 H 151.911 -3.71695 -4.70747 0
M  V30 1606 H 153.59 -4.29706 -4.83696 0
M  V30 1607 N 153.722 1.14298 -1.08507 0
M  V30 1608 C 154.968 1.85633 -0.816581 0
M  V30 1609 C 155.301 1.82784 0.656021 0
M  V30 1610 O 154.576 1.25926 1.48233 0
M  V30 1611 C 154.859 3.34223 -1.34041 0
M  V30 1612 C 154.712 3.45639 -2.87843 0
M  V30 1613 C 156.031 4.29356 -0.9665 0
M  V30 1614 H 153.15 0.67402 -0.298104 0
M  V30 1615 H 155.792 1.34214 -1.34487 0
M  V30 1616 H 153.942 3.78144 -0.89104 0
M  V30 1617 H 155.614 3.10498 -3.41158 0
M  V30 1618 H 153.857 2.86817 -3.25451 0
M  V30 1619 H 154.528 4.50089 -3.19569 0
M  V30 1620 H 157.004 3.93457 -1.35391 0
M  V30 1621 H 155.88 5.3178 -1.3602 0
M  V30 1622 H 156.141 4.41919 0.126362 0
M  V30 1623 N 155.201 0.870884 1.31352 0
M  V30 1624 C 156.426 0.495957 2.01383 0
M  V30 1625 C 156.851 -0.904324 1.64935 0
M  V30 1626 O 156.209 -1.59687 0.858466 0
M  V30 1627 C 156.257 0.661433 3.54482 0
M  V30 1628 O 155.361 -0.298851 4.11316 0
M  V30 1629 H 154.702 0.197158 0.634054 0
M  V30 1630 H 157.232 1.17455 1.67527 0
M  V30 1631 H 157.242 0.555072 4.04207 0
M  V30 1632 H 155.917 1.68246 3.8035 0
M  V30 1633 H 154.494 -0.147368 3.72609 0
M  V30 1634 N 156.679 -1.44442 0.630414 0
M  V30 1635 C 157.904 -2.06927 0.139944 0
M  V30 1636 C 158.329 -1.46795 -1.17613 0
M  V30 1637 O 157.687 -0.569144 -1.72135 0
M  V30 1638 C 157.735 -3.6058 0.0379581 0
M  V30 1639 O 156.839 -3.99937 -1.0062 0
M  V30 1640 H 156.18 -0.658608 0.0844483 0
M  V30 1641 H 158.71 -1.85327 0.866891 0
M  V30 1642 H 158.72 -4.07714 -0.152856 0
M  V30 1643 H 157.395 -4.03728 0.998809 0
M  V30 1644 H 155.972 -3.64436 -0.79001 0
M  V30 1645 N 158.157 -0.370918 -1.53173 0
M  V30 1646 C 159.089 0.507823 -2.23503 0
M  V30 1647 C 160.102 1.04182 -1.251 0
M  V30 1648 O 161.291 0.947286 -1.5129 0
M  V30 1649 C 158.391 1.71447 -2.92334 0
M  V30 1650 C 157.564 1.31105 -4.17289 0
M  V30 1651 C 156.623 2.38035 -4.69282 0
M  V30 1652 O 155.649 2.00204 -5.32829 0
M  V30 1653 N 156.851 3.69697 -4.47554 0
M  V30 1654 H 159.616 -0.0946382 -2.99551 0
M  V30 1655 H 157.177 -0.196358 -1.60705 0
M  V30 1656 H 159.169 2.42469 -3.24023 0
M  V30 1657 H 157.739 2.22368 -2.19707 0
M  V30 1658 H 156.959 0.430462 -3.91843 0
M  V30 1659 H 158.247 1.0179 -4.98514 0
M  V30 1660 H 157.645 4.03205 -3.9679 0
M  V30 1661 H 156.202 4.36807 -4.8378 0
M  V30 1662 N 159.635 1.57281 -0.100228 0
M  V30 1663 C 160.881 1.94826 0.563101 0
M  V30 1664 C 161.214 0.982475 1.67514 0
M  V30 1665 O 160.489 0.0164069 1.94493 0
M  V30 1666 C 160.772 3.42453 1.11346 0
M  V30 1667 C 160.625 4.498 0.00612081 0
M  V30 1668 C 161.944 3.91506 2.01024 0
M  V30 1669 H 159.063 0.708428 0.203221 0
M  V30 1670 H 161.705 1.8922 -0.171979 0
M  V30 1671 H 159.855 3.47361 1.7399 0
M  V30 1672 H 161.527 4.57 -0.628357 0
M  V30 1673 H 159.77 4.28756 -0.659581 0
M  V30 1674 H 160.441 5.50306 0.432109 0
M  V30 1675 H 162.917 3.88784 1.48278 0
M  V30 1676 H 161.793 4.95358 2.36457 0
M  V30 1677 H 162.054 3.31099 2.92961 0
M  V30 1678 N 161.113 -0.173488 1.56642 0
M  V30 1679 C 162.043 -1.2171 1.99271 0
M  V30 1680 C 163.024 -1.46289 0.867959 0
M  V30 1681 O 164.209 -1.5766 1.13388 0
M  V30 1682 C 161.339 -2.55651 2.35074 0
M  V30 1683 C 160.293 -2.45645 3.50489 0
M  V30 1684 C 159.619 -3.84056 3.72028 0
M  V30 1685 C 160.919 -1.96302 4.84007 0
M  V30 1686 H 162.613 -0.86275 2.867 0
M  V30 1687 H 160.159 -0.413571 1.37933 0
M  V30 1688 H 162.112 -3.2886 2.63494 0
M  V30 1689 H 160.836 -2.92869 1.44552 0
M  V30 1690 H 159.495 -1.7489 3.22194 0
M  V30 1691 H 159.143 -4.18664 2.788 0
M  V30 1692 H 158.843 -3.7823 4.49684 0
M  V30 1693 H 160.367 -4.58854 4.02846 0
M  V30 1694 H 161.781 -2.59284 5.11317 0
M  V30 1695 H 160.178 -2.01429 5.65284 0
M  V30 1696 H 161.248 -0.917226 4.76146 0
M  V30 1697 N 162.591 -1.51276 -0.441967 0
M  V30 1698 C 163.819 -1.67516 -1.21434 0
M  V30 1699 C 164.234 -0.37055 -1.85128 0
M  V30 1700 O 163.591 0.650498 -1.70513 0
M  V30 1701 C 163.642 -2.78748 -2.30177 0
M  V30 1702 O 163.363 -4.04154 -1.69089 0
M  V30 1703 C 164.864 -3.06217 -3.20541 0
M  V30 1704 H 162.084 -0.562276 -0.366178 0
M  V30 1705 H 164.628 -1.97666 -0.524244 0
M  V30 1706 H 162.783 -2.5121 -2.94911 0
M  V30 1707 H 163.197 -4.65894 -2.40922 0
M  V30 1708 H 164.671 -3.8764 -3.92987 0
M  V30 1709 H 165.148 -2.18439 -3.81026 0
M  V30 1710 H 165.754 -3.35397 -2.61513 0
M  V30 1711 N 164.069 0.697108 -1.41344 0
M  V30 1712 C 164.999 1.82353 -1.45841 0
M  V30 1713 C 165.98 1.67115 -0.317247 0
M  V30 1714 O 167.165 1.86871 -0.528474 0
M  V30 1715 C 164.295 3.20476 -1.33838 0
M  V30 1716 C 163.249 3.50415 -2.4575 0
M  V30 1717 C 162.575 4.87878 -2.18813 0
M  V30 1718 C 163.875 3.49546 -3.88091 0
M  V30 1719 H 165.569 1.78846 -2.40113 0
M  V30 1720 H 163.115 0.859028 -1.15571 0
M  V30 1721 H 165.068 3.98988 -1.35596 0
M  V30 1722 H 163.792 3.24604 -0.360498 0
M  V30 1723 H 162.451 2.74253 -2.43271 0
M  V30 1724 H 162.099 4.8863 -1.19371 0
M  V30 1725 H 161.799 5.08875 -2.93803 0
M  V30 1726 H 163.323 5.68702 -2.22284 0
M  V30 1727 H 164.737 4.18066 -3.92293 0
M  V30 1728 H 163.134 3.82075 -4.62751 0
M  V30 1729 H 164.204 2.48552 -4.16353 0
M  V30 1730 N 165.547 1.27147 0.931209 0
M  V30 1731 C 166.958 1.12044 1.49342 0
M  V30 1732 C 167.309 -0.295795 1.93957 0
M  V30 1733 O 166.434 -1.18835 1.80852 0
M  V30 1734 C 167.029 2.02781 2.71414 0
M  V30 1735 C 165.588 1.91794 3.2387 0
M  V30 1736 C 164.735 1.95543 1.96617 0
M  V30 1737 H 167.686 1.40091 0.745672 0
M  V30 1738 H 167.707 1.58156 3.46074 0
M  V30 1739 H 167.219 3.05848 2.38911 0
M  V30 1740 H 165.32 0.916992 3.6114 0
M  V30 1741 H 165.433 2.77852 3.90302 0
M  V30 1742 H 163.797 1.39722 2.12955 0
M  V30 1743 H 164.58 3.00259 1.66432 0
M  V30 1744 N 167.025 -1.13721 1.09112 0
M  V30 1745 C 167.955 -2.21148 0.749385 0
M  V30 1746 C 168.936 -1.6792 -0.271475 0
M  V30 1747 O 170.121 -1.93693 -0.140251 0
M  V30 1748 C 167.251 -3.46905 0.165659 0
M  V30 1749 C 166.205 -4.13203 1.11567 0
M  V30 1750 C 165.531 -5.33248 0.393809 0
M  V30 1751 C 166.831 -4.60912 2.45678 0
M  V30 1752 H 168.525 -2.4999 1.64758 0
M  V30 1753 H 166.071 -1.20156 0.793626 0
M  V30 1754 H 168.024 -4.21313 -0.085466 0
M  V30 1755 H 166.748 -3.17449 -0.767714 0
M  V30 1756 H 165.407 -3.40758 1.35202 0
M  V30 1757 H 165.055 -5.00054 -0.543599 0
M  V30 1758 H 164.755 -5.78552 1.02721 0
M  V30 1759 H 166.279 -6.10413 0.150908 0
M  V30 1760 H 167.693 -5.26759 2.26269 0
M  V30 1761 H 166.09 -5.16944 3.04776 0
M  V30 1762 H 167.16 -3.75603 3.06677 0
M  V30 1763 N 168.503 -0.877838 -1.30888 0
M  V30 1764 C 169.436 -0.283995 -2.26426 0
M  V30 1765 C 170.414 0.591361 -1.51465 0
M  V30 1766 O 171.598 0.54304 -1.80509 0
M  V30 1767 C 168.725 0.597129 -3.33395 0
M  V30 1768 C 167.771 -0.207937 -4.25993 0
M  V30 1769 S 168.604 -1.59158 -5.11301 0
M  V30 1770 C 169.76 -0.716791 -6.21782 0
M  V30 1771 H 169.993 -1.09383 -2.76446 0
M  V30 1772 H 167.526 -0.676828 -1.38775 0
M  V30 1773 H 169.484 1.09978 -3.95493 0
M  V30 1774 H 168.145 1.38099 -2.82113 0
M  V30 1775 H 167.338 0.464163 -5.01858 0
M  V30 1776 H 166.94 -0.642963 -3.68432 0
M  V30 1777 H 169.232 0.0692833 -6.77465 0
M  V30 1778 H 170.175 -1.44682 -6.93161 0
M  V30 1779 H 170.583 -0.280855 -5.63801 0
M  V30 1780 N 169.982 1.44106 -0.638065 0
M  V30 1781 C 170.912 2.33448 0.0494287 0
M  V30 1782 C 171.893 1.48606 0.827672 0
M  V30 1783 O 173.078 1.77308 0.792173 0
M  V30 1784 C 170.208 3.31771 1.02691 0
M  V30 1785 C 169.162 4.26485 0.359823 0
M  V30 1786 C 168.488 5.14729 1.44769 0
M  V30 1787 C 169.788 5.17056 -0.738296 0
M  V30 1788 H 171.482 2.91183 -0.696636 0
M  V30 1789 H 169.028 1.40014 -0.336456 0
M  V30 1790 H 170.981 3.93161 1.51666 0
M  V30 1791 H 169.705 2.7226 1.80395 0
M  V30 1792 H 168.364 3.66437 -0.10934 0
M  V30 1793 H 168.012 4.51566 2.21578 0
M  V30 1794 H 167.712 5.78913 1.00668 0
M  V30 1795 H 169.236 5.78991 1.93911 0
M  V30 1796 H 170.65 5.72342 -0.331354 0
M  V30 1797 H 169.047 5.89879 -1.10286 0
M  V30 1798 H 170.117 4.57652 -1.60258 0
M  V30 1799 N 171.46 0.379036 1.52974 0
M  V30 1800 C 172.407 -0.461048 2.26148 0
M  V30 1801 C 173.377 -1.06637 1.27349 0
M  V30 1802 O 174.562 -1.09633 1.56157 0
M  V30 1803 C 171.702 -1.58782 3.06402 0
M  V30 1804 C 170.815 -1.00636 4.20115 0
M  V30 1805 C 169.95 -2.10334 4.87784 0
M  V30 1806 C 168.989 -1.49724 5.93506 0
M  V30 1807 N 168.126 -2.5331 6.54812 0
M  V30 1808 H 172.966 0.169429 2.97518 0
M  V30 1809 H 170.503 0.0953806 1.4679 0
M  V30 1810 H 172.461 -2.25174 3.51215 0
M  V30 1811 H 171.091 -2.18876 2.37261 0
M  V30 1812 H 170.143 -0.232332 3.7969 0
M  V30 1813 H 171.455 -0.523343 4.96047 0
M  V30 1814 H 170.609 -2.84519 5.35849 0
M  V30 1815 H 169.348 -2.61992 4.11353 0
M  V30 1816 H 168.353 -0.740598 5.44789 0
M  V30 1817 H 169.578 -0.988732 6.71864 0
M  V30 1818 H 167.524 -3.04156 5.81227 0
M  V30 1819 H 167.441 -2.09734 7.26325 0
M  V30 1820 H 168.709 -3.27155 7.07524 0
M  V30 1821 N 172.938 -1.57226 0.108567 0
M  V30 1822 C 174.349 -1.8195 -0.418464 0
M  V30 1823 C 174.7 -1.02508 -1.67292 0
M  V30 1824 O 173.825 -0.258496 -2.14851 0
M  V30 1825 C 174.42 -3.30028 -0.765979 0
M  V30 1826 C 172.979 -3.55469 -1.23769 0
M  V30 1827 C 172.126 -2.7625 -0.241106 0
M  V30 1828 H 175.077 -1.55149 0.33384 0
M  V30 1829 H 175.098 -3.44086 -1.62434 0
M  V30 1830 H 174.61 -3.87821 0.147219 0
M  V30 1831 H 172.711 -3.03022 -2.16814 0
M  V30 1832 H 172.824 -4.6408 -1.19022 0
M  V30 1833 H 171.188 -2.44133 -0.72602 0
M  V30 1834 H 171.971 -3.36797 0.665007 0
M  V30 1835 N 174.416 0.165178 -1.56732 0
M  V30 1836 C 175.664 0.879068 -1.8198 0
M  V30 1837 C 175.985 1.82514 -0.686561 0
M  V30 1838 O 175.255 1.93694 0.293146 0
M  V30 1839 H 173.835 0.327608 -0.671329 0
M  V30 1840 H 176.497 0.163526 -1.94213 0
M  V30 1841 H 175.593 1.45228 -2.76252 0
M  V30 1842 N 175.894 1.51508 0.433938 0
M  V30 1843 C 176.841 1.73068 1.52696 0
M  V30 1844 C 177.811 0.572441 1.55924 0
M  V30 1845 O 178.996 0.807253 1.72882 0
M  V30 1846 C 176.136 1.86474 2.90381 0
M  V30 1847 C 175.249 3.14037 2.96656 0
M  V30 1848 C 174.384 3.18019 4.25485 0
M  V30 1849 C 173.423 4.39882 4.2564 0
M  V30 1850 N 172.56 4.41394 5.45999 0
M  V30 1851 H 177.4 2.66366 1.33615 0
M  V30 1852 H 174.937 1.32008 0.649018 0
M  V30 1853 H 176.895 1.92229 3.70275 0
M  V30 1854 H 175.525 0.965809 3.08013 0
M  V30 1855 H 174.577 3.17575 2.09404 0
M  V30 1856 H 175.889 4.0394 2.92633 0
M  V30 1857 H 175.043 3.22708 5.13755 0
M  V30 1858 H 173.782 2.2601 4.3217 0
M  V30 1859 H 172.787 4.35366 3.35763 0
M  V30 1860 H 174.012 5.33159 4.20617 0
M  V30 1861 H 171.958 3.52258 5.53399 0
M  V30 1862 H 171.875 5.25111 5.4387 0
M  V30 1863 H 173.143 4.50281 6.36292 0
M  V30 1864 N 177.372 -0.689602 1.41712 0
M  V30 1865 C 178.783 -1.26973 1.36875 0
M  V30 1866 C 179.134 -1.96124 0.054748 0
M  V30 1867 O 178.259 -1.99141 -0.84687 0
M  V30 1868 C 178.854 -2.30912 2.47922 0
M  V30 1869 C 177.413 -2.84486 2.46464 0
M  V30 1870 C 176.56 -1.58603 2.27465 0
M  V30 1871 H 179.511 -0.48396 1.51141 0
M  V30 1872 H 179.532 -3.12331 2.17323 0
M  V30 1873 H 179.044 -1.80554 3.43543 0
M  V30 1874 H 177.145 -3.39005 1.54617 0
M  V30 1875 H 177.258 -3.34511 3.42986 0
M  V30 1876 H 175.622 -1.84632 1.75451 0
M  V30 1877 H 176.405 -1.10233 3.25121 0
M  V30 1878 N 178.85 -1.27639 -0.924453 0
M  V30 1879 C 179.813 -1.10681 -2.00705 0
M  V30 1880 C 180.813 -0.0497823 -1.60723 0
M  V30 1881 O 182.003 -0.294654 -1.7169 0
M  V30 1882 C 179.135 -0.687164 -3.33902 0
M  V30 1883 H 180.328 -2.06817 -2.17179 0
M  V30 1884 H 177.881 -1.10473 -1.10569 0
M  V30 1885 H 178.616 0.275439 -3.23128 0
M  V30 1886 H 178.401 -1.45061 -3.6428 0
M  V30 1887 H 179.891 -0.590853 -4.13399 0
M  V30 1888 N 180.328 1.1314 -1.09713 0
M  V30 1889 C 181.576 1.84119 -0.833338 0
M  V30 1890 C 181.897 1.84097 0.642904 0
M  V30 1891 O 181.167 1.29881 1.46655 0
M  V30 1892 H 179.747 0.681766 -0.305293 0
M  V30 1893 H 182.409 1.37038 -1.38588 0
M  V30 1894 H 181.505 2.88543 -1.18951 0
M  V30 1895 N 181.806 0.884767 1.30421 0
M  V30 1896 C 183.222 0.57874 1.48737 0
M  V30 1897 C 183.422 -0.883567 1.81095 0
M  V30 1898 O 182.478 -1.6648 1.89844 0
M  V30 1899 C 183.791 1.49171 2.61091 0
M  V30 1900 C 185.339 1.49532 2.74971 0
M  V30 1901 C 185.814 2.39421 3.90438 0
M  V30 1902 N 187.305 2.37383 3.97748 0
M  V30 1903 C 188.04 3.03647 4.86401 0
M  V30 1904 N 187.536 3.79136 5.79852 0
M  V30 1905 N 189.329 2.9288 4.79768 0
M  V30 1906 H 181.48 1.83075 1.0769 0
M  V30 1907 H 183.743 0.783637 0.533495 0
M  V30 1908 H 183.449 2.53291 2.44001 0
M  V30 1909 H 183.323 1.20113 3.57565 0
M  V30 1910 H 185.71 0.46163 2.91467 0
M  V30 1911 H 185.791 1.8262 1.79119 0
M  V30 1912 H 185.435 3.42874 3.74699 0
M  V30 1913 H 185.365 2.03649 4.85628 0
M  V30 1914 H 187.856 1.82525 3.30897 0
M  V30 1915 H 188.169 4.26789 6.4426 0
M  V30 1916 H 186.514 3.83243 5.79784 0
M  V30 1917 H 189.705 2.33433 4.05742 0
M  V30 1918 H 189.878 3.448 5.4865 0
M  V30 1919 N 183.284 -1.43765 0.645699 0
M  V30 1920 C 184.532 -2.01499 0.155731 0
M  V30 1921 C 184.853 -1.51151 -1.232 0
M  V30 1922 O 184.123 -0.721044 -1.82148 0
M  V30 1923 H 182.703 -0.745003 0.0545817 0
M  V30 1924 H 185.365 -1.76075 0.835677 0
M  V30 1925 H 184.461 -3.1181 0.134577 0
M  V30 1926 N 184.763 -0.387143 -1.52771 0
M  V30 1927 C 185.991 0.195869 -2.05971 0
M  V30 1928 C 186.406 1.40691 -1.25903 0
M  V30 1929 O 185.763 1.79931 -0.305134 0
M  V30 1930 C 185.814 0.56812 -3.57008 0
M  V30 1931 O 185.535 -0.594803 -4.34043 0
M  V30 1932 C 187.036 1.20723 -4.26545 0
M  V30 1933 H 184.256 0.0300578 -0.670326 0
M  V30 1934 H 186.8 -0.551749 -1.96916 0
M  V30 1935 H 184.955 1.26564 -3.66143 0
M  V30 1936 H 185.369 -0.289322 -5.23701 0
M  V30 1937 H 186.843 1.41807 -5.33474 0
M  V30 1938 H 187.32 2.17395 -3.81623 0
M  V30 1939 H 187.926 0.550535 -4.21722 0
M  V30 1940 N 186.241 1.57166 -0.116904 0
M  V30 1941 C 187.49 1.94298 0.541407 0
M  V30 1942 C 187.803 1.00236 1.67964 0
M  V30 1943 O 189.009 1.26826 2.40057 0
M  V30 1944 C 187.465 3.45306 1.01449 0
M  V30 1945 C 187.073 4.47899 -0.0951738 0
M  V30 1946 C 188.817 3.91361 1.6443 0
M  V30 1947 C 186.724 5.90083 0.394491 0
M  V30 1948 H 185.654 0.725308 0.206019 0
M  V30 1949 H 188.305 1.82446 -0.196419 0
M  V30 1950 H 186.687 3.52385 1.80667 0
M  V30 1951 H 187.861 4.52486 -0.871374 0
M  V30 1952 H 186.176 4.11583 -0.631505 0
M  V30 1953 H 188.773 4.95004 2.02176 0
M  V30 1954 H 189.116 3.3122 2.52189 0
M  V30 1955 H 189.649 3.87073 0.917559 0
M  V30 1956 H 186.388 6.53974 -0.447004 0
M  V30 1957 H 185.908 5.88921 1.13722 0
M  V30 1958 H 187.587 6.41307 0.856399 0
M  V30 1959 N 187.719 -0.156864 1.56817 0
M  V30 1960 C 188.947 -0.886316 1.86955 0
M  V30 1961 C 189.362 -1.75185 0.703975 0
M  V30 1962 O 188.719 -1.79555 -0.326552 0
M  V30 1963 C 188.77 -1.75117 3.16253 0
M  V30 1964 O 188.491 -0.920537 4.2832 0
M  V30 1965 C 189.992 -2.58905 3.59837 0
M  V30 1966 H 187.212 -0.25678 0.619923 0
M  V30 1967 H 189.756 -0.152615 2.0393 0
M  V30 1968 H 187.911 -2.43805 3.01062 0
M  V30 1969 H 188.325 -1.51337 5.02192 0
M  V30 1970 H 189.799 -3.1518 4.53172 0
M  V30 1971 H 190.276 -3.34472 2.84649 0
M  V30 1972 H 190.882 -1.95526 3.7769 0
M  V30 1973 N 189.197 -1.51736 -0.425897 0
M  V30 1974 C 190.443 -1.65214 -1.1761 0
M  V30 1975 C 190.776 -0.372778 -1.90589 0
M  V30 1976 O 190.051 0.628139 -1.84078 0
M  V30 1977 C 190.334 -2.86312 -2.18398 0
M  V30 1978 C 190.187 -4.24254 -1.49426 0
M  V30 1979 C 191.506 -3.02925 -3.19256 0
M  V30 1980 H 188.625 -0.601263 -0.426206 0
M  V30 1981 H 191.267 -1.8425 -0.463882 0
M  V30 1982 H 189.417 -2.70213 -2.79137 0
M  V30 1983 H 191.089 -4.52046 -0.919362 0
M  V30 1984 H 189.332 -4.26426 -0.796432 0
M  V30 1985 H 190.003 -5.05001 -2.22885 0
M  V30 1986 H 192.479 -3.1781 -2.68581 0
M  V30 1987 H 191.355 -3.89199 -3.8706 0
M  V30 1988 H 191.616 -2.15497 -3.86023 0
M  V30 1989 N 190.675 0.682077 -1.42076 0
M  V30 1990 C 191.9 1.47558 -1.45744 0
M  V30 1991 C 192.325 1.87977 -0.0680981 0
M  V30 1992 O 191.683 1.55522 0.9318 0
M  V30 1993 C 191.731 2.70575 -2.38373 0
M  V30 1994 O 190.835 3.68573 -1.85007 0
M  V30 1995 H 190.176 0.443585 -0.494093 0
M  V30 1996 H 192.706 0.837238 -1.86686 0
M  V30 1997 H 192.716 3.18729 -2.54707 0
M  V30 1998 H 191.391 2.40495 -3.39315 0
M  V30 1999 H 189.968 3.2757 -1.78192 0
M  V30 2000 N 192.153 1.28127 0.917671 0
M  V30 2001 C 193.116 1.11744 2.00115 0
M  V30 2002 C 194.116 0.0583052 1.60694 0
M  V30 2003 O 195.306 0.303755 1.71531 0
M  V30 2004 C 192.438 0.704862 3.33533 0
M  V30 2005 H 193.631 2.07966 2.16079 0
M  V30 2006 H 191.184 1.11058 1.09981 0
M  V30 2007 H 191.919 -0.258299 3.2327 0
M  V30 2008 H 191.704 1.4699 3.63505 0
M  V30 2009 H 193.194 0.612768 4.1308 0
M  V30 2010 N 193.631 -1.12557 1.10312 0
M  V30 2011 C 194.563 -2.17971 0.708625 0
M  V30 2012 C 195.576 -1.60806 -0.254027 0
M  V30 2013 O 196.765 -1.78458 -0.0386891 0
M  V30 2014 C 193.865 -3.38891 0.0248198 0
M  V30 2015 C 193.038 -4.25548 1.01132 0
M  V30 2016 C 192.097 -5.24972 0.35924 0
M  V30 2017 O 191.123 -5.60174 1.00965 0
M  V30 2018 N 192.325 -5.73747 -0.882847 0
M  V30 2019 H 195.09 -2.52427 1.61557 0
M  V30 2020 H 192.651 -1.27967 0.991771 0
M  V30 2021 H 194.643 -4.02485 -0.422852 0
M  V30 2022 H 193.213 -3.02596 -0.784514 0
M  V30 2023 H 192.433 -3.58589 1.6373 0
M  V30 2024 H 193.721 -4.80294 1.67914 0
M  V30 2025 H 193.119 -5.4731 -1.43065 0
M  V30 2026 H 191.676 -6.39234 -1.27369 0
M  V30 2027 N 195.109 -0.891671 -1.2995 0
M  V30 2028 C 196.019 -0.367691 -2.31701 0
M  V30 2029 C 197.035 0.533486 -1.6562 0
M  V30 2030 O 198.211 0.424997 -1.96865 0
M  V30 2031 C 195.276 0.403406 -3.44345 0
M  V30 2032 C 194.337 -0.528328 -4.26037 0
M  V30 2033 C 193.57 0.206063 -5.33302 0
M  V30 2034 O 193.793 1.43119 -5.52153 0
M  V30 2035 O 192.727 -0.447281 -6.00236 0
M  V30 2036 H 196.553 -1.21163 -2.78484 0
M  V30 2037 H 194.138 -0.655725 -1.34241 0
M  V30 2038 H 196.02 0.839753 -4.12948 0
M  V30 2039 H 194.695 1.22354 -2.99685 0
M  V30 2040 H 193.602 -1.01362 -3.60106 0
M  V30 2041 H 194.935 -1.31465 -4.74318 0
M  V30 2042 N 196.587 1.43421 -0.653314 0
M  V30 2043 C 197.517 2.33487 0.0246656 0
M  V30 2044 C 198.498 1.49475 0.811863 0
M  V30 2045 O 199.683 1.78139 0.773322 0
M  V30 2046 C 196.813 3.32841 0.99166 0
M  V30 2047 C 195.767 4.26842 0.314568 0
M  V30 2048 C 195.093 5.16236 1.39302 0
M  V30 2049 C 196.393 5.16243 -0.793095 0
M  V30 2050 H 198.087 2.90427 -0.727481 0
M  V30 2051 H 195.633 1.39649 -0.351287 0
M  V30 2052 H 197.586 3.94747 1.47487 0
M  V30 2053 H 196.31 2.74158 1.77497 0
M  V30 2054 H 194.969 3.663 -0.148199 0
M  V30 2055 H 194.617 4.53891 2.16776 0
M  V30 2056 H 194.317 5.79948 0.945223 0
M  V30 2057 H 195.841 5.81015 1.87759 0
M  V30 2058 H 197.255 5.71958 -0.392039 0
M  V30 2059 H 195.652 5.88676 -1.16536 0
M  V30 2060 H 196.722 4.55927 -1.65103 0
M  V30 2061 N 198.065 0.39524 1.52563 0
M  V30 2062 C 199.012 -0.437036 2.26624 0
M  V30 2063 C 199.982 -1.05281 1.28472 0
M  V30 2064 O 201.167 -1.07971 1.57311 0
M  V30 2065 C 198.307 -1.55524 3.08069 0
M  V30 2066 C 197.42 -0.961745 4.21158 0
M  V30 2067 C 196.555 -2.05149 4.89987 0
M  V30 2068 C 195.594 -1.4342 5.95061 0
M  V30 2069 N 194.731 -2.46351 6.57462 0
M  V30 2070 H 199.571 0.200976 2.97322 0
M  V30 2071 H 197.108 0.110944 1.46681 0
M  V30 2072 H 199.066 -2.21437 3.53584 0
M  V30 2073 H 197.696 -2.16348 2.3957 0
M  V30 2074 H 196.748 -0.192048 3.79915 0
M  V30 2075 H 198.06 -0.470701 4.96574 0
M  V30 2076 H 197.214 -2.78819 5.38837 0
M  V30 2077 H 195.953 -2.57615 4.14109 0
M  V30 2078 H 194.958 -0.682774 5.45544 0
M  V30 2079 H 196.183 -0.917416 6.72875 0
M  V30 2080 H 194.129 -2.97975 5.8442 0
M  V30 2081 H 194.046 -2.02019 7.28508 0
M  V30 2082 H 195.314 -3.19633 7.10954 0
M  V30 2083 N 199.544 -1.57102 0.125237 0
M  V30 2084 C 200.821 -1.86953 -0.575142 0
M  V30 2085 C 201.201 -1.02749 -1.84407 0
M  V30 2086 O 200.549 -0.108144 -2.28244 0
M  V30 2087 C 200.759 -3.38198 -0.861583 0
M  V30 2088 C 202.107 -4.06937 -1.21192 0
M  V30 2089 O 203.131 -3.43252 -0.951645 0
M  V30 2090 O 201.99 -5.19364 -1.70068 0
M  V30 2091 H 199.084 -0.774147 -0.290906 0
M  V30 2092 H 201.63 -1.68942 0.160211 0
M  V30 2093 H 200.402 -3.91282 0.0373647 0
M  V30 2094 H 200.025 -3.61661 -1.65188 0
M  V30 2095 N 201.022 0.148545 -1.56898 0
M  V30 2096 C 201.97 1.20265 -1.99096 0
M  V30 2097 C 202.964 1.44559 -0.883123 0
M  V30 2098 O 204.17 1.4487 -1.0683 0
M  V30 2099 H 200.545 0.404786 -0.63376 0
M  V30 2100 H 202.516 0.82004 -2.86911 0
M  V30 2101 C 201.265 2.52886 -2.3863 0
M  V30 2102 H 200.588 2.35021 -3.23427 0
M  V30 2103 H 202.028 3.25274 -2.7198 0
M  V30 2104 C 200.487 3.13315 -1.23837 0
M  V30 2105 O 201.017 3.98077 -0.538268 0
M  V30 2106 N 199.223 2.72742 -1.00301 0
M  V30 2107 H 198.77 2.03912 -1.5741 0
M  V30 2108 H 198.728 3.13507 -0.236838 0
M  V30 2109 N 202.5 1.5196 0.417844 0
M  V30 2110 C 203.916 1.40569 0.755816 0
M  V30 2111 C 204.116 0.503316 1.95113 0
M  V30 2112 O 203.172 -0.0341925 2.52477 0
M  V30 2113 C 204.485 2.82947 1.01791 0
M  V30 2114 C 206.033 2.92231 1.12116 0
M  V30 2115 C 206.508 4.35559 1.41608 0
M  V30 2116 N 207.999 4.38753 1.48491 0
M  V30 2117 C 208.734 5.46705 1.7292 0
M  V30 2118 N 208.23 6.64788 1.95011 0
M  V30 2119 N 210.023 5.34209 1.74863 0
M  V30 2120 H 202.174 2.09168 -0.369098 0
M  V30 2121 H 204.437 0.942409 -0.102809 0
M  V30 2122 H 204.143 3.5106 0.212081 0
M  V30 2123 H 204.017 3.23462 1.94042 0
M  V30 2124 H 206.404 2.24304 1.9176 0
M  V30 2125 H 206.485 2.55185 0.177225 0
M  V30 2126 H 206.129 5.04042 0.624848 0
M  V30 2127 H 206.059 4.70133 2.37239 0
M  V30 2128 H 208.55 3.5363 1.33244 0
M  V30 2129 H 208.863 7.42845 2.13076 0
M  V30 2130 H 207.208 6.67869 1.92293 0
M  V30 2131 H 210.399 4.40937 1.57137 0
M  V30 2132 H 210.572 6.18415 1.93563 0
M  V30 2133 N 203.978 -0.674533 1.42435 0
M  V30 2134 C 205.224 -1.43671 1.43131 0
M  V30 2135 C 205.557 -1.94142 0.0476021 0
M  V30 2136 O 204.832 -1.70924 -0.928188 0
M  V30 2137 C 205.115 -2.63355 2.45594 0
M  V30 2138 C 204.968 -2.18514 3.93156 0
M  V30 2139 C 206.287 -3.65571 2.45043 0
M  V30 2140 H 203.406 -0.521077 0.521198 0
M  V30 2141 H 206.048 -0.766551 1.7385 0
M  V30 2142 H 204.198 -3.2053 2.19528 0
M  V30 2143 H 205.87 -1.66504 4.30202 0
M  V30 2144 H 204.113 -1.50086 4.07009 0
M  V30 2145 H 204.784 -3.04484 4.60428 0
M  V30 2146 H 207.26 -3.18113 2.68223 0
M  V30 2147 H 206.136 -4.46893 3.18713 0
M  V30 2148 H 206.397 -4.16716 1.47649 0
M  V30 2149 N 205.456 -1.28612 -0.910864 0
M  V30 2150 C 206.702 -1.16106 -1.66274 0
M  V30 2151 C 207.035 0.289113 -1.92036 0
M  V30 2152 O 206.31 1.21 -1.52281 0
M  V30 2153 C 206.593 -1.96309 -3.01885 0
M  V30 2154 C 206.446 -3.49405 -2.8326 0
M  V30 2155 C 207.765 -1.78076 -4.02463 0
M  V30 2156 H 204.884 -0.423152 -0.603417 0
M  V30 2157 H 207.526 -1.57961 -1.05586 0
M  V30 2158 H 205.676 -1.60742 -3.53687 0
M  V30 2159 H 207.348 -3.94894 -2.38446 0
M  V30 2160 H 205.591 -3.74893 -2.18261 0
M  V30 2161 H 206.262 -4.00784 -3.79574 0
M  V30 2162 H 208.738 -2.0912 -3.59733 0
M  V30 2163 H 207.614 -2.36561 -4.95308 0
M  V30 2164 H 207.875 -0.733008 -4.35981 0
M  V30 2165 N 206.934 1.1197 -1.10907 0
M  V30 2166 C 208.162 1.87402 -0.876824 0
M  V30 2167 C 208.577 1.79894 0.573025 0
M  V30 2168 O 207.934 1.17629 1.39534 0
M  V30 2169 C 207.985 3.36428 -1.32282 0
M  V30 2170 O 207.706 3.43765 -2.71582 0
M  V30 2171 C 209.207 4.28783 -1.12518 0
M  V30 2172 H 206.427 0.592793 -0.314384 0
M  V30 2173 H 208.971 1.41649 -1.47499 0
M  V30 2174 H 207.126 3.79706 -0.768229 0
M  V30 2175 H 207.54 4.3652 -2.90776 0
M  V30 2176 H 209.014 5.31613 -1.48633 0
M  V30 2177 H 209.491 4.39153 -0.0642394 0
M  V30 2178 H 210.097 3.91291 -1.66648 0
M  V30 2179 N 208.412 0.89855 1.29475 0
M  V30 2180 C 209.345 0.319981 2.25945 0
M  V30 2181 C 210.323 -0.567189 1.52387 0
M  V30 2182 O 211.507 -0.514254 1.8135 0
M  V30 2183 C 208.634 -0.544013 3.34303 0
M  V30 2184 C 207.68 0.275682 4.25608 0
M  V30 2185 S 208.513 1.67272 5.08704 0
M  V30 2186 C 209.669 0.815621 6.20563 0
M  V30 2187 H 209.902 1.13767 2.74671 0
M  V30 2188 H 207.435 0.69882 1.3768 0
M  V30 2189 H 209.393 -1.03673 3.97193 0
M  V30 2190 H 208.054 -1.33593 2.84274 0
M  V30 2191 H 207.247 -0.384263 5.02533 0
M  V30 2192 H 206.849 0.701496 3.67362 0
M  V30 2193 H 209.141 0.0385042 6.77489 0
M  V30 2194 H 210.084 1.55691 6.90772 0
M  V30 2195 H 210.492 0.370516 5.63283 0
M  V30 2196 N 209.89 -1.43072 0.660911 0
M  V30 2197 C 210.8 -2.34585 -0.0264163 0
M  V30 2198 C 211.816 -1.54316 -0.803898 0
M  V30 2199 O 212.992 -1.86939 -0.749391 0
M  V30 2200 C 210.057 -3.32689 -0.975639 0
M  V30 2201 C 209.118 -4.2886 -0.194236 0
M  V30 2202 C 208.351 -5.22278 -1.09825 0
M  V30 2203 O 208.574 -5.20299 -2.33763 0
M  V30 2204 O 207.508 -5.99228 -0.566513 0
M  V30 2205 H 211.334 -2.94869 0.727034 0
M  V30 2206 H 208.919 -1.43342 0.42111 0
M  V30 2207 H 210.801 -3.92995 -1.52094 0
M  V30 2208 H 209.476 -2.74898 -1.70918 0
M  V30 2209 H 208.383 -3.72011 0.394835 0
M  V30 2210 H 209.716 -4.89655 0.499899 0
M  V30 2211 N 211.368 -0.403325 -1.52352 0
M  V30 2212 C 212.614 0.174605 -2.02047 0
M  V30 2213 C 212.947 1.45282 -1.28867 0
M  V30 2214 O 212.222 1.90483 -0.393257 0
M  V30 2215 C 212.505 0.428238 -3.57545 0
M  V30 2216 C 212.358 -0.866248 -4.4138 0
M  V30 2217 C 213.677 1.21287 -4.23057 0
M  V30 2218 H 210.796 0.0619851 -0.734389 0
M  V30 2219 H 213.438 -0.53565 -1.82293 0
M  V30 2220 H 211.588 1.03327 -3.74507 0
M  V30 2221 H 213.26 -1.50265 -4.3614 0
M  V30 2222 H 211.503 -1.47851 -4.07827 0
M  V30 2223 H 212.174 -0.643249 -5.48239 0
M  V30 2224 H 214.65 0.700703 -4.10158 0
M  V30 2225 H 213.526 1.35909 -5.31808 0
M  V30 2226 H 213.787 2.23193 -3.81625 0
M  V30 2227 N 212.846 1.57033 -0.133567 0
M  V30 2228 C 213.756 2.19632 0.824564 0
M  V30 2229 C 214.772 1.17666 1.28182 0
M  V30 2230 O 215.948 1.50193 1.3418 0
M  V30 2231 C 213.013 2.79499 2.05137 0
M  V30 2232 C 212.074 3.96548 1.64464 0
M  V30 2233 C 211.307 4.5355 2.81297 0
M  V30 2234 O 211.53 4.09438 3.97136 0
M  V30 2235 O 210.464 5.44018 2.57542 0
M  V30 2236 H 214.29 3.01991 0.321766 0
M  V30 2237 H 211.875 1.49112 0.0927889 0
M  V30 2238 H 213.757 3.17602 2.7696 0
M  V30 2239 H 212.432 2.00162 2.54395 0
M  V30 2240 H 211.339 3.63186 0.897048 0
M  V30 2241 H 212.672 4.77364 1.19934 0
M  V30 2242 N 214.325 -0.140222 1.56975 0
M  V30 2243 C 215.288 -1.15689 1.97861 0
M  V30 2244 C 216.288 -1.3549 0.865974 0
M  V30 2245 O 217.478 -1.32367 1.13246 0
M  V30 2246 C 214.61 -2.51582 2.30042 0
M  V30 2247 H 215.803 -0.805971 2.88867 0
M  V30 2248 H 213.356 -0.383801 1.51515 0
M  V30 2249 H 214.091 -2.91632 1.41849 0
M  V30 2250 H 213.876 -2.38569 3.11171 0
M  V30 2251 H 215.366 -3.24792 2.62488 0
M  V30 2252 N 215.803 -1.52179 -0.40978 0
M  V30 2253 C 217.219 -1.40968 -0.74835 0
M  V30 2254 C 217.419 -0.513657 -1.94843 0
M  V30 2255 O 216.475 0.0208026 -2.52491 0
M  V30 2256 C 217.788 -2.83483 -1.0029 0
M  V30 2257 C 219.336 -2.92821 -1.10565 0
M  V30 2258 C 219.811 -4.36303 -1.39296 0
M  V30 2259 N 221.302 -4.39535 -1.46162 0
M  V30 2260 C 222.037 -5.47614 -1.70018 0
M  V30 2261 N 221.533 -6.65812 -1.91483 0
M  V30 2262 N 223.326 -5.35129 -1.72027 0
M  V30 2263 H 215.477 -2.0897 0.380186 0
M  V30 2264 H 217.74 -0.94185 0.107805 0
M  V30 2265 H 217.446 -3.51168 -0.193461 0
M  V30 2266 H 217.32 -3.24487 -1.92323 0
M  V30 2267 H 219.707 -2.25318 -1.90568 0
M  V30 2268 H 219.788 -2.55276 -0.16369 0
M  V30 2269 H 219.432 -5.04366 -0.598109 0
M  V30 2270 H 219.362 -4.71385 -2.34743 0
M  V30 2271 H 221.853 -3.54332 -1.31367 0
M  V30 2272 H 222.166 -7.43964 -2.09134 0
M  V30 2273 H 220.511 -6.68879 -1.88749 0
M  V30 2274 H 223.702 -4.41764 -1.54796 0
M  V30 2275 H 223.875 -6.19433 -1.9028 0
M  V30 2276 N 217.281 0.66697 -1.42791 0
M  V30 2277 C 218.229 1.80157 -1.47127 0
M  V30 2278 C 219.223 1.65825 -0.346199 0
M  V30 2279 O 220.429 1.72338 -0.519572 0
M  V30 2280 H 216.804 0.594158 -0.460956 0
M  V30 2281 H 218.775 1.73619 -2.42692 0
M  V30 2282 C 217.524 3.18351 -1.39813 0
M  V30 2283 H 216.847 3.3001 -2.25684 0
M  V30 2284 H 218.287 3.97736 -1.46908 0
M  V30 2285 C 216.746 3.36707 -0.11391 0
M  V30 2286 O 217.276 3.93027 0.830241 0
M  V30 2287 N 215.482 2.90586 -0.0285295 0
M  V30 2288 H 215.029 2.4494 -0.79764 0
M  V30 2289 H 214.987 3.03245 0.830063 0
M  V30 2290 N 218.759 1.29093 0.90403 0
M  V30 2291 C 219.689 1.16401 2.02418 0
M  V30 2292 C 220.67 0.0593085 1.69997 0
M  V30 2293 O 221.855 0.238021 1.92736 0
M  V30 2294 C 218.985 0.835233 3.37107 0
M  V30 2295 C 217.939 1.89578 3.83724 0
M  V30 2296 C 217.265 1.42041 5.15489 0
M  V30 2297 C 218.565 3.30394 4.04521 0
M  V30 2298 H 220.259 2.10109 2.13295 0
M  V30 2299 H 217.805 1.01157 1.02486 0
M  V30 2300 H 219.758 0.733169 4.14973 0
M  V30 2301 H 218.482 -0.137543 3.2631 0
M  V30 2302 H 217.141 1.98715 3.08071 0
M  V30 2303 H 216.789 0.436426 5.01103 0
M  V30 2304 H 216.489 2.12964 5.4765 0
M  V30 2305 H 218.013 1.33176 5.959 0
M  V30 2306 H 219.427 3.24123 4.72882 0
M  V30 2307 H 217.824 3.99237 4.48029 0
M  V30 2308 H 218.894 3.73692 3.09002 0
M  V30 2309 N 220.237 -1.11381 1.11499 0
M  V30 2310 C 221.514 -1.7955 0.775965 0
M  V30 2311 C 221.894 -1.97859 -0.73588 0
M  V30 2312 O 221.242 -1.56376 -1.66609 0
M  V30 2313 C 221.452 -3.13196 1.53977 0
M  V30 2314 C 222.8 -3.88227 1.71944 0
M  V30 2315 O 223.824 -3.22887 1.50407 0
M  V30 2316 O 222.683 -5.05477 2.07738 0
M  V30 2317 H 219.777 -0.777728 0.28119 0
M  V30 2318 H 222.323 -1.18118 1.21845 0
M  V30 2319 H 221.095 -2.95229 2.56818 0
M  V30 2320 H 220.718 -3.82342 1.09088 0
M  V30 2321 N 221.715 -0.905404 -1.28997 0
M  V30 2322 C 222.662 -0.385892 -2.27551 0
M  V30 2323 C 223.632 0.535113 -1.57244 0
M  V30 2324 O 224.817 0.459119 -1.85194 0
M  V30 2325 C 221.957 0.375461 -3.43051 0
M  V30 2326 C 221.07 -0.577092 -4.28128 0
M  V30 2327 C 220.205 0.201879 -5.30816 0
M  V30 2328 C 219.244 -0.744829 -6.07551 0
M  V30 2329 N 218.381 9.42587e-05 -7.021 0
M  V30 2330 H 223.221 -1.23139 -2.71368 0
M  V30 2331 H 220.758 -0.618542 -1.33463 0
M  V30 2332 H 222.716 0.832992 -4.088 0
M  V30 2333 H 221.346 1.18537 -3.00248 0
M  V30 2334 H 220.398 -1.15315 -3.62501 0
M  V30 2335 H 221.71 -1.30152 -4.8152 0
M  V30 2336 H 220.864 0.720351 -6.02408 0
M  V30 2337 H 219.603 0.959413 -4.7817 0
M  V30 2338 H 218.608 -1.27475 -5.34818 0
M  V30 2339 H 219.833 -1.50178 -6.62286 0
M  V30 2340 H 217.779 0.739791 -6.51815 0
M  V30 2341 H 217.696 -0.664321 -7.53076 0
M  V30 2342 H 218.964 0.498644 -7.77903 0
M  V30 2343 N 223.193 1.4272 -0.668489 0
M  V30 2344 C 224.14 2.30796 0.0137489 0
M  V30 2345 C 225.11 1.4561 0.799177 0
M  V30 2346 O 226.295 1.74453 0.772702 0
M  V30 2347 C 223.435 3.31377 0.963507 0
M  V30 2348 C 222.548 4.31655 0.172569 0
M  V30 2349 C 221.683 5.19312 1.1175 0
M  V30 2350 C 220.722 6.11274 0.317886 0
M  V30 2351 N 219.859 6.91504 1.2152 0
M  V30 2352 H 224.699 2.88585 -0.743161 0
M  V30 2353 H 222.236 1.42154 -0.378226 0
M  V30 2354 H 224.194 3.88214 1.52792 0
M  V30 2355 H 222.824 2.75202 1.68712 0
M  V30 2356 H 221.876 3.76988 -0.508374 0
M  V30 2357 H 223.188 4.96779 -0.448527 0
M  V30 2358 H 222.342 5.80851 1.75206 0
M  V30 2359 H 221.081 4.5435 1.77249 0
M  V30 2360 H 220.086 5.48809 -0.329918 0
M  V30 2361 H 221.311 6.78283 -0.332917 0
M  V30 2362 H 219.257 6.29176 1.85671 0
M  V30 2363 H 219.174 7.53209 0.649036 0
M  V30 2364 H 220.442 7.57535 1.83742 0
M  V30 2365 N 224.671 0.411399 1.52136 0
M  V30 2366 C 225.948 -0.222308 1.94333 0
M  V30 2367 C 226.328 -1.6242 1.34844 0
M  V30 2368 O 225.676 -2.22384 0.525145 0
M  V30 2369 C 225.886 -0.226345 3.48265 0
M  V30 2370 C 227.234 -0.444592 4.22266 0
M  V30 2371 O 228.258 -0.305602 3.54887 0
M  V30 2372 O 227.117 -0.718749 5.41753 0
M  V30 2373 H 224.211 -0.143907 0.814383 0
M  V30 2374 H 226.757 0.467506 1.63133 0
M  V30 2375 H 225.529 0.75475 3.83952 0
M  V30 2376 H 225.152 -0.960163 3.85832 0
M  V30 2377 N 226.149 -1.5696 0.141893 0
M  V30 2378 C 227.396 -1.9596 -0.510492 0
M  V30 2379 C 227.724 -1.02648 -1.65208 0
M  V30 2380 O 226.979 -0.0546947 -1.95624 0
M  V30 2381 C 227.278 -3.41242 -1.06249 0
M  V30 2382 C 226.944 -4.50882 -0.0398791 0
M  V30 2383 C 225.606 -4.80595 0.241247 0
M  V30 2384 C 227.958 -5.17058 0.65578 0
M  V30 2385 C 225.286 -5.73792 1.22393 0
M  V30 2386 C 227.638 -6.11313 1.62724 0
M  V30 2387 C 226.302 -6.39407 1.91612 0
M  V30 2388 H 225.572 -0.717068 -0.186802 0
M  V30 2389 H 228.219 -1.90142 0.227643 0
M  V30 2390 H 226.524 -3.43866 -1.87785 0
M  V30 2391 H 228.221 -3.68742 -1.57576 0
M  V30 2392 H 224.811 -4.27754 -0.269174 0
M  V30 2393 H 228.995 -4.94239 0.451779 0
M  V30 2394 H 224.251 -5.93853 1.45424 0
M  V30 2395 H 228.425 -6.61668 2.17183 0
M  V30 2396 H 226.052 -7.11427 2.6791 0
M  V30 2397 N 227.627 0.131896 -1.57047 0
M  V30 2398 C 228.557 1.16384 -2.02428 0
M  V30 2399 C 229.538 1.43936 -0.90644 0
M  V30 2400 O 230.723 1.54599 -1.17528 0
M  V30 2401 C 227.853 2.49328 -2.4177 0
M  V30 2402 C 226.807 2.36266 -3.56879 0
M  V30 2403 C 226.133 3.74057 -3.8208 0
M  V30 2404 C 227.433 1.834 -4.89042 0
M  V30 2405 H 229.127 0.786433 -2.88887 0
M  V30 2406 H 226.673 0.376855 -1.38981 0
M  V30 2407 H 228.626 3.21759 -2.7212 0
M  V30 2408 H 227.35 2.88934 -1.52266 0
M  V30 2409 H 226.009 1.66286 -3.26718 0
M  V30 2410 H 225.657 4.11125 -2.89803 0
M  V30 2411 H 225.357 3.66174 -4.59554 0
M  V30 2412 H 226.881 4.48012 -4.1487 0
M  V30 2413 H 228.295 2.45636 -5.18011 0
M  V30 2414 H 226.692 1.8637 -5.70426 0
M  V30 2415 H 227.762 0.790662 -4.7841 0
M  V30 2416 N 229.106 1.52395 0.401703 0
M  V30 2417 C 230.354 1.66488 1.14569 0
M  V30 2418 C 230.675 0.400897 1.90835 0
M  V30 2419 O 229.945 -0.584415 1.8698 0
M  V30 2420 H 228.525 0.613672 0.425929 0
M  V30 2421 H 231.187 1.89464 0.457093 0
M  V30 2422 H 230.283 2.50942 1.85566 0
M  V30 2423 N 230.584 -0.659388 1.43143 0
M  V30 2424 C 231.531 -1.77249 1.47822 0
M  V30 2425 C 232.501 -1.62818 0.328558 0
M  V30 2426 O 233.686 -1.83151 0.534838 0
M  V30 2427 C 230.826 -3.15371 1.40126 0
M  V30 2428 C 229.939 -3.4098 2.65249 0
M  V30 2429 C 229.074 -4.68915 2.49584 0
M  V30 2430 C 228.113 -4.87608 3.70006 0
M  V30 2431 N 227.25 -6.06796 3.53189 0
M  V30 2432 H 232.09 -1.72584 2.42938 0
M  V30 2433 H 229.627 -0.842297 1.20598 0
M  V30 2434 H 231.585 -3.9521 1.33659 0
M  V30 2435 H 230.215 -3.19121 0.485964 0
M  V30 2436 H 229.267 -2.55282 2.8202 0
M  V30 2437 H 230.579 -3.50681 3.54717 0
M  V30 2438 H 229.733 -5.56871 2.4079 0
M  V30 2439 H 228.472 -4.61524 1.5763 0
M  V30 2440 H 227.477 -3.9809 3.79215 0
M  V30 2441 H 228.702 -4.96834 4.62961 0
M  V30 2442 H 226.648 -6.00549 2.63965 0
M  V30 2443 H 226.565 -6.17428 4.36255 0
M  V30 2444 H 227.833 -6.9739 3.48236 0
M  V30 2445 N 232.062 -1.29571 -0.897171 0
M  V30 2446 C 233.287 -1.20705 -1.68656 0
M  V30 2447 C 233.712 0.228582 -1.86706 0
M  V30 2448 O 233.07 1.16494 -1.3892 0
M  V30 2449 C 233.118 -1.9282 -3.04717 0
M  V30 2450 O 232.222 -1.24697 -3.93096 0
M  V30 2451 H 231.563 -0.418126 -0.515816 0
M  V30 2452 H 234.093 -1.71183 -1.12061 0
M  V30 2453 H 234.103 -2.01372 -3.54843 0
M  V30 2454 H 232.778 -2.97239 -2.90899 0
M  V30 2455 H 231.355 -1.2442 -3.51531 0
M  V30 2456 N 233.54 1.10788 -1.12088 0
M  V30 2457 C 234.817 1.79136 -0.785476 0
M  V30 2458 C 235.197 1.98246 0.725377 0
M  V30 2459 O 234.545 1.57258 1.65778 0
M  V30 2460 C 234.755 3.12375 -1.55636 0
M  V30 2461 C 236.103 3.8731 -1.74001 0
M  V30 2462 O 237.127 3.22085 -1.52117 0
M  V30 2463 O 235.986 5.04369 -2.10415 0
M  V30 2464 H 233.08 0.776226 -0.285311 0
M  V30 2465 H 235.626 1.1747 -1.2247 0
M  V30 2466 H 234.398 2.93863 -2.5838 0
M  V30 2467 H 234.021 3.81758 -1.11114 0
M  V30 2468 N 235.018 0.912232 1.28515 0
M  V30 2469 C 236.429 0.591352 1.77087 0
M  V30 2470 C 236.78 -0.8933 1.74684 0
M  V30 2471 O 235.905 -1.69876 1.34056 0
M  V30 2472 C 236.5 1.06668 3.2157 0
M  V30 2473 C 235.059 0.79675 3.67871 0
M  V30 2474 C 234.206 1.23427 2.48316 0
M  V30 2475 H 237.157 1.09365 1.15 0
M  V30 2476 H 237.178 0.407455 3.78312 0
M  V30 2477 H 236.69 2.14726 3.23287 0
M  V30 2478 H 234.791 -0.270679 3.71616 0
M  V30 2479 H 234.904 1.40343 4.58084 0
M  V30 2480 H 233.268 0.653036 2.46186 0
M  V30 2481 H 234.051 2.32316 2.52753 0
M  V30 2482 N 236.496 -1.42363 0.676048 0
M  V30 2483 C 237.743 -2.01522 0.19883 0
M  V30 2484 C 238.071 -1.53456 -1.19505 0
M  V30 2485 O 237.326 -0.727967 -1.81657 0
M  V30 2486 C 237.625 -3.56929 0.183431 0
M  V30 2487 C 237.291 -4.24431 1.52215 0
M  V30 2488 C 235.953 -4.42585 1.8887 0
M  V30 2489 C 238.305 -4.62459 2.40377 0
M  V30 2490 C 235.633 -4.96039 3.13309 0
M  V30 2491 C 237.985 -5.17294 3.64129 0
M  V30 2492 C 236.649 -5.33661 4.00951 0
M  V30 2493 H 235.919 -0.737419 0.0727571 0
M  V30 2494 H 238.566 -1.70531 0.871281 0
M  V30 2495 H 236.871 -3.87594 -0.572532 0
M  V30 2496 H 238.568 -4.00486 -0.203035 0
M  V30 2497 H 235.158 -4.10661 1.22701 0
M  V30 2498 H 239.342 -4.48105 2.13343 0
M  V30 2499 H 234.598 -5.06896 3.41857 0
M  V30 2500 H 238.772 -5.45704 4.32644 0
M  V30 2501 H 236.399 -5.74845 4.9745 0
M  V30 2502 N 237.974 -0.419461 -1.51915 0
M  V30 2503 C 238.904 0.391813 -2.30189 0
M  V30 2504 C 239.885 1.03699 -1.34836 0
M  V30 2505 O 241.07 1.04403 -1.63748 0
M  V30 2506 C 238.2 1.50312 -3.13087 0
M  V30 2507 C 237.154 0.9824 -4.16573 0
M  V30 2508 C 236.48 2.18809 -4.8788 0
M  V30 2509 C 237.78 0.0292356 -5.22292 0
M  V30 2510 H 239.474 -0.26135 -2.98257 0
M  V30 2511 H 237.02 -0.127134 -1.43438 0
M  V30 2512 H 238.973 2.07773 -3.66617 0
M  V30 2513 H 237.697 2.18431 -2.42807 0
M  V30 2514 H 236.356 0.430119 -3.64068 0
M  V30 2515 H 236.004 2.85507 -4.14119 0
M  V30 2516 H 235.704 1.84615 -5.57845 0
M  V30 2517 H 237.228 2.76858 -5.44226 0
M  V30 2518 H 238.642 0.512976 -5.71 0
M  V30 2519 H 237.039 -0.2244 -5.9968 0
M  V30 2520 H 238.109 -0.912931 -4.76228 0
M  V30 2521 N 239.452 1.56882 -0.150215 0
M  V30 2522 C 240.362 2.20494 0.801222 0
M  V30 2523 C 241.378 1.19019 1.26927 0
M  V30 2524 O 242.554 1.51607 1.32579 0
M  V30 2525 C 239.619 2.81659 2.02161 0
M  V30 2526 C 238.68 3.9827 1.60249 0
M  V30 2527 C 237.913 4.56508 2.7647 0
M  V30 2528 O 238.136 4.13627 3.92771 0
M  V30 2529 O 237.07 5.46719 2.51757 0
M  V30 2530 H 240.896 3.02315 0.289717 0
M  V30 2531 H 238.481 1.49202 0.0769684 0
M  V30 2532 H 240.363 3.20522 2.73576 0
M  V30 2533 H 239.038 2.02849 2.52258 0
M  V30 2534 H 237.945 3.64117 0.858477 0
M  V30 2535 H 239.278 4.78609 1.14864 0
M  V30 2536 N 240.93 -0.123565 1.57115 0
M  V30 2537 C 242.177 -0.832153 1.84612 0
M  V30 2538 C 242.505 -1.80093 0.734627 0
M  V30 2539 O 241.76 -1.93766 -0.27442 0
M  V30 2540 C 242.059 -1.62016 3.18568 0
M  V30 2541 C 241.725 -0.796084 4.43817 0
M  V30 2542 C 240.387 -0.568816 4.77826 0
M  V30 2543 C 242.739 -0.221364 5.2073 0
M  V30 2544 C 240.067 0.243499 5.86194 0
M  V30 2545 C 242.419 0.578117 6.29953 0
M  V30 2546 C 241.083 0.815744 6.62497 0
M  V30 2547 H 240.353 -0.304507 0.675542 0
M  V30 2548 H 243 -0.0947248 1.91266 0
M  V30 2549 H 241.305 -2.42837 3.0747 0
M  V30 2550 H 243.002 -2.17231 3.37064 0
M  V30 2551 H 239.592 -0.983307 4.17168 0
M  V30 2552 H 243.776 -0.384173 4.94811 0
M  V30 2553 H 239.032 0.436871 6.09837 0
M  V30 2554 H 243.206 1.03046 6.88734 0
M  V30 2555 H 240.833 1.44701 7.46301 0
M  V30 2556 N 242.408 -1.52605 -0.393616 0
M  V30 2557 C 243.655 -1.67424 -1.1391 0
M  V30 2558 C 243.983 -0.411859 -1.90089 0
M  V30 2559 O 243.238 0.605626 -1.86093 0
M  V30 2560 C 243.537 -2.85721 -2.14705 0
M  V30 2561 C 243.203 -4.23342 -1.55218 0
M  V30 2562 C 241.865 -4.60771 -1.3872 0
M  V30 2563 C 244.217 -5.09041 -1.11924 0
M  V30 2564 C 241.545 -5.81563 -0.774689 0
M  V30 2565 C 243.897 -6.30452 -0.520853 0
M  V30 2566 C 242.561 -6.66617 -0.343134 0
M  V30 2567 H 241.831 -0.612648 -0.416826 0
M  V30 2568 H 244.478 -1.8674 -0.424315 0
M  V30 2569 H 242.783 -2.60803 -2.92385 0
M  V30 2570 H 244.48 -2.94382 -2.72288 0
M  V30 2571 H 241.07 -3.93855 -1.69045 0
M  V30 2572 H 245.254 -4.80695 -1.23473 0
M  V30 2573 H 240.51 -6.08196 -0.625154 0
M  V30 2574 H 244.684 -6.96175 -0.177065 0
M  V30 2575 H 242.311 -7.60083 0.133571 0
M  V30 2576 N 243.887 0.651787 -1.4349 0
M  V30 2577 C 245.303 0.96762 -1.26922 0
M  V30 2578 C 245.503 2.00602 -0.189982 0
M  V30 2579 O 244.559 2.48793 0.431107 0
M  V30 2580 C 245.872 1.45052 -2.63401 0
M  V30 2581 C 247.42 1.5671 -2.70945 0
M  V30 2582 C 247.895 2.0839 -4.07845 0
M  V30 2583 N 249.386 2.1569 -4.09917 0
M  V30 2584 C 250.121 2.56804 -5.12679 0
M  V30 2585 N 249.617 2.97203 -6.25813 0
M  V30 2586 N 251.41 2.56756 -5.00033 0
M  V30 2587 H 243.561 -0.0353158 -2.12371 0
M  V30 2588 H 245.824 0.0467858 -0.946845 0
M  V30 2589 H 245.53 0.761926 -3.43348 0
M  V30 2590 H 245.404 2.42529 -2.88894 0
M  V30 2591 H 247.791 2.2467 -1.9133 0
M  V30 2592 H 247.872 0.57662 -2.49216 0
M  V30 2593 H 247.516 1.41031 -4.87927 0
M  V30 2594 H 247.446 3.08271 -4.26938 0
M  V30 2595 H 249.937 1.87237 -3.28254 0
M  V30 2596 H 250.25 3.27328 -7.00055 0
M  V30 2597 H 248.595 2.95004 -6.29283 0
M  V30 2598 H 251.786 2.24572 -4.10713 0
M  V30 2599 H 251.959 2.88475 -5.80247 0
M  V30 2600 N 245.365 1.30045 0.890287 0
M  V30 2601 C 246.297 1.11786 2.00091 0
M  V30 2602 C 247.31 0.0626307 1.62679 0
M  V30 2603 O 248.499 0.308112 1.75821 0
M  V30 2604 C 245.599 0.681527 3.31977 0
M  V30 2605 C 244.772 1.81735 3.97858 0
M  V30 2606 C 243.831 1.37045 5.08041 0
M  V30 2607 O 242.857 2.07677 5.29961 0
M  V30 2608 N 244.059 0.246525 5.79976 0
M  V30 2609 H 246.824 2.07441 2.16306 0
M  V30 2610 H 244.385 1.2211 1.06305 0
M  V30 2611 H 246.377 0.365675 4.03045 0
M  V30 2612 H 244.947 -0.182828 3.12065 0
M  V30 2613 H 244.167 2.30159 3.20032 0
M  V30 2614 H 245.455 2.57865 4.38615 0
M  V30 2615 H 244.853 -0.34215 5.64664 0
M  V30 2616 H 243.41 -0.00990438 6.51799 0
M  V30 2617 N 246.843 -1.10192 1.12674 0
M  V30 2618 C 248.091 -1.81845 0.881861 0
M  V30 2619 C 248.412 -1.85737 -0.593867 0
M  V30 2620 O 247.682 -1.33724 -1.4316 0
M  V30 2621 H 246.262 -0.673432 0.323261 0
M  V30 2622 H 248.924 -1.33316 1.42172 0
M  V30 2623 H 248.02 -2.85288 1.2656 0
M  V30 2624 N 248.321 -0.919034 -1.28029 0
M  V30 2625 C 249.598 -0.473668 -1.89778 0
M  V30 2626 C 249.978 1.04783 -1.83259 0
M  V30 2627 O 249.326 1.8982 -1.27202 0
M  V30 2628 C 249.536 -1.00998 -3.34066 0
M  V30 2629 C 250.884 -1.06525 -4.1102 0
M  V30 2630 O 251.908 -0.958996 -3.43048 0
M  V30 2631 O 250.767 -1.22776 -5.3253 0
M  V30 2632 H 247.861 -0.15098 -0.813101 0
M  V30 2633 H 250.407 -1.01016 -1.36359 0
M  V30 2634 H 249.179 -2.05392 -3.33061 0
M  V30 2635 H 248.802 -0.454626 -3.94992 0
M  V30 2636 N 249.799 1.42003 -0.683588 0
M  V30 2637 C 251.047 2.01015 -0.209101 0
M  V30 2638 C 251.368 1.54365 1.19149 0
M  V30 2639 O 250.638 0.769083 1.80172 0
M  V30 2640 H 249.218 0.743294 -0.074315 0
M  V30 2641 H 251.88 1.73798 -0.882066 0
M  V30 2642 H 250.976 3.11343 -0.2172 0
M  V30 2643 N 251.277 0.427512 1.51691 0
M  V30 2644 C 252.224 -0.388867 2.275 0
M  V30 2645 C 253.194 -1.02532 1.30677 0
M  V30 2646 O 254.379 -1.0461 1.59566 0
M  V30 2647 C 251.519 -1.48954 3.11298 0
M  V30 2648 C 250.632 -0.872194 4.23104 0
M  V30 2649 C 249.767 -1.94709 4.94228 0
M  V30 2650 C 248.806 -1.30766 5.97969 0
M  V30 2651 N 247.943 -2.32349 6.62539 0
M  V30 2652 H 252.783 0.263997 2.96828 0
M  V30 2653 H 250.32 0.142033 1.46413 0
M  V30 2654 H 252.278 -2.13887 3.58201 0
M  V30 2655 H 250.908 -2.11217 2.44105 0
M  V30 2656 H 249.96 -0.111419 3.80237 0
M  V30 2657 H 251.272 -0.365264 4.97461 0
M  V30 2658 H 250.426 -2.67327 5.44629 0
M  V30 2659 H 249.165 -2.48773 4.1948 0
M  V30 2660 H 248.17 -0.566902 5.4687 0
M  V30 2661 H 249.395 -0.774483 6.74669 0
M  V30 2662 H 247.341 -2.85511 5.90609 0
M  V30 2663 H 247.258 -1.8652 7.3263 0
M  V30 2664 H 248.526 -3.04481 7.17574 0
M  V30 2665 N 252.755 -1.56801 0.158532 0
M  V30 2666 C 254.001 -1.97559 -0.483957 0
M  V30 2667 C 254.356 -1.04239 -1.61716 0
M  V30 2668 O 253.649 -0.079603 -1.91435 0
M  V30 2669 C 253.843 -3.4235 -1.02623 0
M  V30 2670 C 253.672 -4.49669 0.0528929 0
M  V30 2671 C 252.442 -5.02838 0.498234 0
M  V30 2672 C 254.64 -5.0725 0.848616 0
M  V30 2673 N 252.622 -5.93775 1.559 0
M  V30 2674 C 253.993 -5.94506 1.7596 0
M  V30 2675 C 256.048 -4.89788 0.895121 0
M  V30 2676 C 254.751 -6.66169 2.71314 0
M  V30 2677 C 256.777 -5.62161 1.83654 0
M  V30 2678 C 256.139 -6.49134 2.73503 0
M  V30 2679 H 252.238 -0.768332 -0.145566 0
M  V30 2680 H 254.822 -1.93012 0.255799 0
M  V30 2681 H 252.993 -3.47467 -1.73555 0
M  V30 2682 H 254.725 -3.70145 -1.63629 0
M  V30 2683 H 251.48 -4.73498 0.0983222 0
M  V30 2684 H 251.904 -6.43948 2.08949 0
M  V30 2685 H 256.546 -4.22255 0.21453 0
M  V30 2686 H 254.264 -7.32923 3.40367 0
M  V30 2687 H 257.85 -5.5064 1.87847 0
M  V30 2688 H 256.73 -7.04153 3.45163 0
M  V30 2689 N 254.233 0.115231 -1.57178 0
M  V30 2690 C 255.183 1.14707 -1.97044 0
M  V30 2691 C 256.167 1.36866 -0.845957 0
M  V30 2692 O 257.359 1.37895 -1.10968 0
M  V30 2693 C 254.488 2.47266 -2.38148 0
M  V30 2694 C 253.574 2.28566 -3.57237 0
M  V30 2695 N 253.965 1.79685 -4.72807 0
M  V30 2696 C 252.263 2.59208 -3.62943 0
M  V30 2697 C 252.964 1.74781 -5.54821 0
M  V30 2698 N 251.94 2.19264 -4.97417 0
M  V30 2699 H 255.742 0.761754 -2.83857 0
M  V30 2700 H 253.256 0.322928 -1.59157 0
M  V30 2701 H 255.253 3.219 -2.64927 0
M  V30 2702 H 253.913 2.86552 -1.52702 0
M  V30 2703 H 254.924 1.49177 -4.9595 0
M  V30 2704 H 251.601 3.02154 -2.88113 0
M  V30 2705 H 252.991 1.38212 -6.57531 0
M  V30 2706 N 255.711 1.52812 0.385517 0
M  V30 2707 C 256.641 1.80808 1.47752 0
M  V30 2708 C 257.622 0.660318 1.5676 0
M  V30 2709 O 258.807 0.908246 1.71652 0
M  V30 2710 C 255.937 1.98008 2.85324 0
M  V30 2711 C 254.891 3.13709 2.91154 0
M  V30 2712 C 254.217 3.16169 4.31209 0
M  V30 2713 C 255.517 4.52709 2.60483 0
M  V30 2714 H 257.211 2.72253 1.24573 0
M  V30 2715 H 254.757 1.31003 0.597839 0
M  V30 2716 H 256.71 2.16176 3.61726 0
M  V30 2717 H 255.434 1.03255 3.09848 0
M  V30 2718 H 254.093 2.95329 2.17201 0
M  V30 2719 H 253.741 2.19092 4.52778 0
M  V30 2720 H 253.441 3.93894 4.36029 0
M  V30 2721 H 254.965 3.36496 5.09512 0
M  V30 2722 H 256.379 4.71173 3.26602 0
M  V30 2723 H 254.776 5.32528 2.76648 0
M  V30 2724 H 255.846 4.59186 1.55809 0
M  V30 2725 N 257.189 -0.644168 1.43834 0
M  V30 2726 C 258.435 -1.40603 1.46146 0
M  V30 2727 C 258.768 -1.93997 0.0887717 0
M  V30 2728 O 258.043 -1.72854 -0.891724 0
M  V30 2729 C 258.326 -2.58086 2.51124 0
M  V30 2730 C 258.179 -2.10126 3.97702 0
M  V30 2731 C 259.498 -3.60291 2.52742 0
M  V30 2732 H 256.617 -0.509905 0.532134 0
M  V30 2733 H 259.259 -0.729502 1.75437 0
M  V30 2734 H 257.409 -3.15801 2.26278 0
M  V30 2735 H 259.081 -1.57342 4.33637 0
M  V30 2736 H 257.324 -1.41419 4.10101 0
M  V30 2737 H 257.995 -2.94649 4.66783 0
M  V30 2738 H 260.471 -3.12352 2.7491 0
M  V30 2739 H 259.347 -4.40032 3.28121 0
M  V30 2740 H 259.608 -4.1349 1.56455 0
M  V30 2741 N 258.668 -1.30515 -0.883378 0
M  V30 2742 C 259.898 -1.22182 -1.66599 0
M  V30 2743 C 260.306 0.217507 -1.87946 0
M  V30 2744 O 259.649 1.1554 -1.42815 0
M  V30 2745 C 259.711 -1.88146 -3.06335 0
M  V30 2746 C 259.375 -3.37476 -3.08154 0
M  V30 2747 C 260.372 -4.33443 -2.87094 0
M  V30 2748 C 258.057 -3.7895 -3.29701 0
M  V30 2749 C 260.051 -5.68858 -2.8754 0
M  V30 2750 C 257.738 -5.14482 -3.29776 0
M  V30 2751 C 258.736 -6.09246 -3.0872 0
M  V30 2752 O 258.424 -7.42302 -3.08615 0
M  V30 2753 H 258.156 -0.423898 -0.52658 0
M  V30 2754 H 260.71 -1.72703 -1.11188 0
M  V30 2755 H 258.94 -1.32157 -3.63416 0
M  V30 2756 H 260.629 -1.7391 -3.66756 0
M  V30 2757 H 261.395 -4.02733 -2.70243 0
M  V30 2758 H 257.274 -3.05631 -3.45124 0
M  V30 2759 H 260.818 -6.428 -2.71024 0
M  V30 2760 H 256.715 -5.44832 -3.46163 0
M  V30 2761 H 257.483 -7.5131 -3.24769 0
M  V30 2762 N 260.146 1.09593 -1.13257 0
M  V30 2763 C 261.562 1.33775 -0.870423 0
M  V30 2764 C 261.762 1.95327 0.494926 0
M  V30 2765 O 260.818 2.19853 1.2418 0
M  V30 2766 C 262.131 2.25106 -1.99369 0
M  V30 2767 C 263.679 2.3862 -2.02558 0
M  V30 2768 C 264.154 3.33285 -3.14142 0
M  V30 2769 N 265.645 3.40857 -3.13641 0
M  V30 2770 C 266.38 4.14101 -3.96621 0
M  V30 2771 N 265.876 4.90157 -4.8961 0
M  V30 2772 N 267.669 4.09808 -3.84726 0
M  V30 2773 H 259.82 0.680136 -2.01216 0
M  V30 2774 H 262.083 0.362133 -0.876107 0
M  V30 2775 H 261.789 1.87103 -2.97801 0
M  V30 2776 H 261.663 3.25481 -1.90635 0
M  V30 2777 H 264.05 2.75887 -1.0474 0
M  V30 2778 H 264.131 1.38028 -2.15364 0
M  V30 2779 H 263.775 2.96741 -4.12198 0
M  V30 2780 H 263.705 4.33776 -2.98574 0
M  V30 2781 H 266.196 2.86624 -2.46282 0
M  V30 2782 H 266.509 5.4347 -5.49418 0
M  V30 2783 H 264.854 4.89251 -4.93617 0
M  V30 2784 H 268.045 3.4949 -3.11408 0
M  V30 2785 H 268.218 4.66629 -4.49623 0
M  V30 2786 N 261.624 0.925811 1.2754 0
M  V30 2787 C 262.849 0.580924 1.99098 0
M  V30 2788 C 263.274 -0.833555 1.68622 0
M  V30 2789 O 262.632 -1.55903 0.925422 0
M  V30 2790 C 262.68 0.811186 3.51358 0
M  V30 2791 O 261.784 -0.124129 4.12213 0
M  V30 2792 H 261.125 0.223873 0.625122 0
M  V30 2793 H 263.655 1.24455 1.62395 0
M  V30 2794 H 263.665 0.72601 4.01489 0
M  V30 2795 H 262.34 1.84227 3.72872 0
M  V30 2796 H 260.917 0.0108006 3.72898 0
M  V30 2797 N 263.102 -1.41638 0.69111 0
M  V30 2798 C 264.012 -2.34588 0.0233487 0
M  V30 2799 C 265.028 -1.55987 -0.770984 0
M  V30 2800 O 266.204 -1.88486 -0.709569 0
M  V30 2801 C 263.269 -3.34684 -0.904851 0
M  V30 2802 C 262.33 -4.29176 -0.103225 0
M  V30 2803 C 261.563 -5.2449 -0.987216 0
M  V30 2804 O 261.786 -5.2514 -2.22674 0
M  V30 2805 O 260.72 -6.00295 -0.439281 0
M  V30 2806 H 264.546 -2.93261 0.789416 0
M  V30 2807 H 262.131 -1.42417 0.45142 0
M  V30 2808 H 264.013 -3.96133 -1.43724 0
M  V30 2809 H 262.688 -2.78461 -1.65049 0
M  V30 2810 H 261.595 -3.71089 0.473655 0
M  V30 2811 H 262.928 -4.88484 0.60365 0
M  V30 2812 N 264.58 -0.43555 -1.51462 0
M  V30 2813 C 265.826 0.131709 -2.02372 0
M  V30 2814 C 266.159 1.42516 -1.3192 0
M  V30 2815 O 265.434 1.89606 -0.433573 0
M  V30 2816 C 265.717 0.352301 -3.58373 0
M  V30 2817 C 265.57 -0.959676 -4.39443 0
M  V30 2818 C 266.889 1.12286 -4.25535 0
M  V30 2819 H 264.008 0.0463936 -0.735538 0
M  V30 2820 H 266.65 -0.574197 -1.81116 0
M  V30 2821 H 264.8 0.9536 -3.76615 0
M  V30 2822 H 266.472 -1.59482 -4.32855 0
M  V30 2823 H 264.715 -1.56468 -4.04599 0
M  V30 2824 H 265.386 -0.759394 -5.46752 0
M  V30 2825 H 267.862 0.613545 -4.11552 0
M  V30 2826 H 266.738 1.24598 -5.34571 0
M  V30 2827 H 266.999 2.15048 -3.86273 0
M  V30 2828 N 266.058 1.56714 -0.166846 0
M  V30 2829 C 267.307 1.95922 0.479318 0
M  V30 2830 C 267.62 1.05529 1.6469 0
M  V30 2831 O 268.826 1.34399 2.35901 0
M  V30 2832 C 267.282 3.48359 0.90412 0
M  V30 2833 C 266.89 4.47369 -0.237621 0
M  V30 2834 C 268.634 3.96394 1.51896 0
M  V30 2835 C 266.541 5.91039 0.206561 0
M  V30 2836 H 265.471 0.731495 0.18284 0
M  V30 2837 H 268.122 1.81728 -0.254363 0
M  V30 2838 H 266.504 3.57955 1.69365 0
M  V30 2839 H 267.678 4.49485 -1.01489 0
M  V30 2840 H 265.993 4.09366 -0.762128 0
M  V30 2841 H 268.59 5.01186 1.86325 0
M  V30 2842 H 268.933 3.39075 2.41524 0
M  V30 2843 H 269.466 3.89796 0.79395 0
M  V30 2844 H 266.205 6.52221 -0.654834 0
M  V30 2845 H 265.725 5.9224 0.949282 0
M  V30 2846 H 267.404 6.43707 0.651939 0
M  V30 2847 N 267.536 -0.106894 1.57237 0
M  V30 2848 C 268.483 -1.13049 2.01217 0
M  V30 2849 C 269.453 -1.40471 0.886403 0
M  V30 2850 O 270.638 -1.52133 1.15153 0
M  V30 2851 C 267.778 -2.4487 2.43172 0
M  V30 2852 C 266.891 -2.24281 3.69218 0
M  V30 2853 C 266.026 -3.49417 4.00101 0
M  V30 2854 C 265.065 -3.24038 5.19294 0
M  V30 2855 N 264.202 -4.41409 5.45988 0
M  V30 2856 H 269.042 -0.748456 2.88448 0
M  V30 2857 H 266.579 -0.358054 1.42676 0
M  V30 2858 H 268.537 -3.21786 2.65537 0
M  V30 2859 H 267.167 -2.80944 1.58967 0
M  V30 2860 H 266.219 -1.38224 3.54398 0
M  V30 2861 H 267.531 -2.01512 4.56283 0
M  V30 2862 H 266.685 -4.34746 4.2318 0
M  V30 2863 H 265.424 -3.75229 3.11535 0
M  V30 2864 H 264.429 -2.37102 4.96047 0
M  V30 2865 H 265.654 -2.99584 6.09447 0
M  V30 2866 H 263.6 -4.67319 4.60379 0
M  V30 2867 H 263.517 -4.21788 6.274 0
M  V30 2868 H 264.785 -5.27836 5.73593 0
M  V30 2869 N 269.014 -1.53014 -0.377408 0
M  V30 2870 C 269.962 -1.7927 -1.48206 0
M  V30 2871 C 270.956 -0.661195 -1.55963 0
M  V30 2872 O 272.162 -0.843908 -1.58991 0
M  V30 2873 H 268.537 -0.567425 -0.493491 0
M  V30 2874 H 270.508 -2.71753 -1.2326 0
M  V30 2875 C 269.257 -1.98894 -2.85196 0
M  V30 2876 H 268.58 -2.85395 -2.79981 0
M  V30 2877 H 270.02 -2.21249 -3.61698 0
M  V30 2878 C 268.479 -0.764691 -3.28107 0
M  V30 2879 O 269.009 0.0523226 -4.01666 0
M  V30 2880 N 267.215 -0.591493 -2.84517 0
M  V30 2881 H 266.762 -1.25749 -2.24822 0
M  V30 2882 H 266.72 0.226253 -3.13585 0
M  V30 2883 N 270.492 0.636531 -1.44174 0
M  V30 2884 C 271.44 1.76995 -1.50915 0
M  V30 2885 C 272.434 1.65053 -0.381295 0
M  V30 2886 O 273.64 1.71197 -0.55601 0
M  V30 2887 H 270.015 0.584247 -0.473455 0
M  V30 2888 H 271.986 1.68432 -2.4632 0
M  V30 2889 C 270.735 3.15314 -1.46534 0
M  V30 2890 H 270.058 3.25149 -2.32633 0
M  V30 2891 H 271.498 3.9453 -1.55312 0
M  V30 2892 C 269.957 3.3639 -0.185305 0
M  V30 2893 O 270.487 3.94699 0.746688 0
M  V30 2894 N 268.693 2.9046 -0.0901606 0
M  V30 2895 H 268.24 2.43193 -0.849416 0
M  V30 2896 H 268.198 3.04937 0.765553 0
M  V30 2897 N 271.97 1.30982 0.876444 0
M  V30 2898 C 272.9 1.20668 1.99903 0
M  V30 2899 C 273.881 0.095354 1.69833 0
M  V30 2900 O 275.066 0.27885 1.92188 0
M  V30 2901 C 272.196 0.90655 3.3526 0
M  V30 2902 C 271.15 1.97675 3.79617 0
M  V30 2903 C 270.476 1.52943 5.1236 0
M  V30 2904 C 271.776 3.389 3.97422 0
M  V30 2905 H 273.47 2.14586 2.0879 0
M  V30 2906 H 271.016 1.03308 1.00317 0
M  V30 2907 H 272.969 0.821025 4.13324 0
M  V30 2908 H 271.693 -0.0682969 3.26529 0
M  V30 2909 H 270.352 2.05205 3.03787 0
M  V30 2910 H 270 0.54262 5.00065 0
M  V30 2911 H 269.7 2.24532 5.43009 0
M  V30 2912 H 271.224 1.45786 5.92941 0
M  V30 2913 H 272.638 3.34081 4.659 0
M  V30 2914 H 271.035 4.0865 4.3946 0
M  V30 2915 H 272.105 3.80163 3.01006 0
M  V30 2916 N 273.449 -1.08991 1.13837 0
M  V30 2917 C 274.397 -2.17841 0.815347 0
M  V30 2918 C 275.391 -1.68164 -0.204233 0
M  V30 2919 O 276.597 -1.79897 -0.0609304 0
M  V30 2920 H 272.972 -0.710654 0.245915 0
M  V30 2921 H 274.943 -2.42315 1.74143 0
M  V30 2922 C 273.692 -3.46381 0.302614 0
M  V30 2923 H 273.015 -3.84979 1.0785 0
M  V30 2924 H 274.455 -4.23844 0.115074 0
M  V30 2925 C 272.914 -3.22556 -0.972591 0
M  V30 2926 O 273.444 -3.45599 -2.04754 0
M  V30 2927 N 271.65 -2.76134 -0.905455 0
M  V30 2928 H 271.197 -2.57582 -0.0305421 0
M  V30 2929 H 271.155 -2.60571 -1.75926 0
M  V30 2930 N 274.927 -0.932562 -1.27047 0
M  V30 2931 C 276.338 -0.619451 -1.76124 0
M  V30 2932 C 276.689 0.865397 -1.76083 0
M  V30 2933 O 275.814 1.67722 -1.36742 0
M  V30 2934 C 276.409 -1.11771 -3.19832 0
M  V30 2935 C 274.968 -0.855174 -3.66557 0
M  V30 2936 C 274.115 -1.27362 -2.46321 0
M  V30 2937 H 277.066 -1.11181 -1.13245 0
M  V30 2938 H 277.087 -0.46759 -3.77616 0
M  V30 2939 H 276.599 -2.19842 -3.1983 0
M  V30 2940 H 274.7 0.211524 -3.71999 0
M  V30 2941 H 274.813 -1.47613 -4.55793 0
M  V30 2942 H 273.177 -0.692119 -2.45116 0
M  V30 2943 H 273.96 -2.36307 -2.49025 0
M  V30 2944 N 276.405 1.4127 -0.698611 0
M  V30 2945 C 277.633 2.05503 -0.239992 0
M  V30 2946 C 278.048 1.52584 1.11191 0
M  V30 2947 O 277.405 0.675323 1.69545 0
M  V30 2948 C 277.456 3.60987 -0.192429 0
M  V30 2949 O 277.177 4.1195 -1.49094 0
M  V30 2950 C 278.678 4.42371 0.28681 0
M  V30 2951 H 275.898 0.661748 -0.111045 0
M  V30 2952 H 278.442 1.80987 -0.95205 0
M  V30 2953 H 276.597 3.84533 0.470472 0
M  V30 2954 H 277.011 5.06018 -1.38007 0
M  V30 2955 H 278.485 5.51344 0.26896 0
M  V30 2956 H 278.962 4.18699 1.32619 0
M  V30 2957 H 279.568 4.23897 -0.345201 0
M  V30 2958 N 277.883 0.443576 1.51229 0
M  V30 2959 C 279.129 -0.11321 2.03085 0
M  V30 2960 C 279.484 -1.39841 1.32145 0
M  V30 2961 O 278.777 -1.86723 0.429542 0
M  V30 2962 C 278.971 -0.380579 3.55368 0
M  V30 2963 C 278.8 0.877157 4.41062 0
M  V30 2964 C 277.57 1.4125 4.85156 0
M  V30 2965 C 279.768 1.76503 4.83064 0
M  V30 2966 N 277.75 2.62213 5.55083 0
M  V30 2967 C 279.121 2.82067 5.52122 0
M  V30 2968 C 281.176 1.7787 4.65045 0
M  V30 2969 C 279.879 3.88952 6.05069 0
M  V30 2970 C 281.905 2.83694 5.18914 0
M  V30 2971 C 281.267 3.87978 5.87922 0
M  V30 2972 H 277.366 -0.00210178 0.781997 0
M  V30 2973 H 279.95 0.605641 1.85041 0
M  V30 2974 H 278.121 -1.06847 3.73414 0
M  V30 2975 H 279.853 -0.929274 3.93887 0
M  V30 2976 H 276.608 0.965542 4.63653 0
M  V30 2977 H 277.032 3.23568 5.9467 0
M  V30 2978 H 281.674 0.985744 4.11148 0
M  V30 2979 H 279.392 4.69082 6.58018 0
M  V30 2980 H 282.978 2.85702 5.06819 0
M  V30 2981 H 281.858 4.68517 6.28857 0
M  V30 2982 N 279.361 -1.56624 0.175154 0
M  V30 2983 C 280.308 -2.18149 -0.753634 0
M  V30 2984 C 281.278 -1.12265 -1.22417 0
M  V30 2985 O 282.463 -1.40432 -1.29165 0
M  V30 2986 C 279.603 -2.82933 -1.97592 0
M  V30 2987 C 278.716 -4.03289 -1.5486 0
M  V30 2988 C 277.851 -4.55988 -2.72485 0
M  V30 2989 C 276.89 -5.68746 -2.26262 0
M  V30 2990 N 276.027 -6.15938 -3.36994 0
M  V30 2991 H 280.867 -2.9717 -0.222195 0
M  V30 2992 H 278.404 -1.46774 -0.0979422 0
M  V30 2993 H 280.362 -3.18653 -2.69288 0
M  V30 2994 H 278.992 -2.06509 -2.481 0
M  V30 2995 H 278.044 -3.73364 -0.728246 0
M  V30 2996 H 279.356 -4.849 -1.16933 0
M  V30 2997 H 278.51 -4.9391 -3.52332 0
M  V30 2998 H 277.249 -3.73443 -3.13674 0
M  V30 2999 H 276.254 -5.30372 -1.44863 0
M  V30 3000 H 277.479 -6.53095 -1.86127 0
M  V30 3001 H 275.425 -5.36321 -3.77751 0
M  V30 3002 H 275.342 -6.92548 -3.03172 0
M  V30 3003 H 276.61 -6.58511 -4.17114 0
M  V30 3004 N 280.839 0.0985539 -1.57292 0
M  V30 3005 C 282.255 0.45267 -1.53046 0
M  V30 3006 C 282.455 1.80713 -0.891342 0
M  V30 3007 O 281.511 2.4785 -0.482375 0
M  V30 3008 C 282.824 0.418341 -2.97776 0
M  V30 3009 C 284.372 0.500443 -3.08973 0
M  V30 3010 C 284.847 0.496297 -4.55303 0
M  V30 3011 N 286.338 0.557151 -4.59837 0
M  V30 3012 C 287.073 0.575726 -5.70502 0
M  V30 3013 N 286.569 0.550714 -6.90608 0
M  V30 3014 N 288.362 0.620277 -5.58667 0
M  V30 3015 H 280.513 -0.788673 -1.97215 0
M  V30 3016 H 282.776 -0.293188 -0.901524 0
M  V30 3017 H 282.482 -0.509659 -3.47988 0
M  V30 3018 H 282.356 1.2386 -3.56284 0
M  V30 3019 H 284.743 1.41886 -2.58751 0
M  V30 3020 H 284.824 -0.347894 -2.53423 0
M  V30 3021 H 284.468 -0.418162 -5.06176 0
M  V30 3022 H 284.398 1.3618 -5.08687 0
M  V30 3023 H 286.889 0.581816 -3.73394 0
M  V30 3024 H 287.202 0.568075 -7.70709 0
M  V30 3025 H 285.547 0.517816 -6.93068 0
M  V30 3026 H 288.738 0.637322 -4.63741 0
M  V30 3027 H 288.911 0.631283 -6.44918 0
M  V30 3028 N 282.317 1.53212 0.369288 0
M  V30 3029 C 283.564 1.69215 1.11232 0
M  V30 3030 C 283.892 0.442048 1.8941 0
M  V30 3031 O 283.147 -0.575944 1.87033 0
M  V30 3032 C 283.446 2.89101 2.10132 0
M  V30 3033 C 283.112 4.25758 1.48463 0
M  V30 3034 C 281.774 4.6292 1.31372 0
M  V30 3035 C 284.126 5.10757 1.03811 0
M  V30 3036 C 281.454 5.82722 0.68207 0
M  V30 3037 C 283.806 6.31201 0.420487 0
M  V30 3038 C 282.47 6.67079 0.237038 0
M  V30 3039 H 281.74 0.619201 0.407027 0
M  V30 3040 H 284.387 1.87391 0.394552 0
M  V30 3041 H 282.692 2.65421 2.88199 0
M  V30 3042 H 284.389 2.98676 2.6757 0
M  V30 3043 H 280.979 3.96494 1.62758 0
M  V30 3044 H 285.163 4.82599 1.1581 0
M  V30 3045 H 280.419 6.09113 0.528316 0
M  V30 3046 H 284.593 6.96368 0.0662874 0
M  V30 3047 H 282.22 7.59774 -0.254477 0
M  V30 3048 N 283.795 -0.628877 1.44509 0
M  V30 3049 C 285.02 -1.42048 1.5112 0
M  V30 3050 C 285.445 -1.87594 0.137818 0
M  V30 3051 O 284.803 -1.58873 -0.873437 0
M  V30 3052 C 284.851 -2.61541 2.48251 0
M  V30 3053 O 283.955 -3.61453 1.98559 0
M  V30 3054 H 283.296 -0.424942 0.510216 0
M  V30 3055 H 285.826 -0.767374 1.89664 0
M  V30 3056 H 285.836 -3.09057 2.66361 0
M  V30 3057 H 284.511 -2.27736 3.48007 0
M  V30 3058 H 283.088 -3.20731 1.90227 0
M  V30 3059 N 285.273 -1.31445 -0.869486 0
M  V30 3060 C 286.519 -1.21337 -1.62496 0
M  V30 3061 C 286.852 0.227872 -1.92858 0
M  V30 3062 O 286.127 1.16094 -1.56053 0
M  V30 3063 C 286.41 -2.05814 -2.95487 0
M  V30 3064 C 286.263 -3.5824 -2.72 0
M  V30 3065 C 287.582 -1.9079 -3.96594 0
M  V30 3066 H 284.701 -0.442135 -0.589649 0
M  V30 3067 H 287.343 -1.6124 -1.00507 0
M  V30 3068 H 285.493 -1.71913 -3.48394 0
M  V30 3069 H 287.165 -4.0228 -2.25762 0
M  V30 3070 H 285.408 -3.81647 -2.06224 0
M  V30 3071 H 286.079 -4.12657 -3.66631 0
M  V30 3072 H 288.555 -2.20459 -3.52898 0
M  V30 3073 H 287.431 -2.52199 -4.87531 0
M  V30 3074 H 287.692 -0.871341 -4.33428 0
M  V30 3075 N 286.751 1.08385 -1.14413 0
M  V30 3076 C 288.162 1.62258 -0.923535 0
M  V30 3077 C 288.513 1.88691 0.537595 0
M  V30 3078 O 287.638 1.64454 1.40655 0
M  V30 3079 C 288.233 2.94781 -1.67002 0
M  V30 3080 C 286.792 3.45437 -1.495 0
M  V30 3081 C 285.939 2.19668 -1.69238 0
M  V30 3082 H 288.89 0.916086 -1.2959 0
M  V30 3083 H 288.911 3.63229 -1.13334 0
M  V30 3084 H 288.423 2.7551 -2.73342 0
M  V30 3085 H 286.524 3.6981 -0.455097 0
M  V30 3086 H 286.637 4.22173 -2.2651 0
M  V30 3087 H 285.001 2.28849 -1.11804 0
M  V30 3088 H 285.784 2.02905 -2.7692 0
M  V30 3089 N 288.23 0.939286 1.26551 0
M  V30 3090 C 289.476 0.586715 1.94128 0
M  V30 3091 C 289.809 -0.8717 1.73537 0
M  V30 3092 O 289.084 -1.62339 1.07127 0
M  V30 3093 C 289.367 0.927497 3.4795 0
M  V30 3094 C 289.22 2.44052 3.77834 0
M  V30 3095 C 290.539 0.441569 4.37879 0
M  V30 3096 H 287.658 0.21463 0.705055 0
M  V30 3097 H 290.3 1.17316 1.49455 0
M  V30 3098 H 288.45 0.428431 3.8613 0
M  V30 3099 H 290.122 3.01216 3.4938 0
M  V30 3100 H 288.365 2.8848 3.23978 0
M  V30 3101 H 289.036 2.62947 4.85348 0
M  V30 3102 H 291.512 0.869448 4.06915 0
M  V30 3103 H 290.388 0.708856 5.44304 0
M  V30 3104 H 290.649 -0.658467 4.37169 0
M  V30 3105 N 289.708 -1.40897 0.706093 0
M  V30 3106 C 290.64 -2.29199 0.00815776 0
M  V30 3107 C 291.653 -1.45336 -0.733582 0
M  V30 3108 O 292.842 -1.68727 -0.582537 0
M  V30 3109 C 289.942 -3.23417 -1.01265 0
M  V30 3110 C 289.115 -4.36089 -0.338387 0
M  V30 3111 C 288.174 -5.10811 -1.26326 0
M  V30 3112 O 287.2 -5.64215 -0.751651 0
M  V30 3113 N 288.402 -5.19269 -2.595 0
M  V30 3114 H 291.167 -2.89738 0.766297 0
M  V30 3115 H 288.728 -1.52164 0.55296 0
M  V30 3116 H 290.72 -3.70276 -1.63334 0
M  V30 3117 H 289.29 -2.64112 -1.67223 0
M  V30 3118 H 288.51 -3.91479 0.462352 0
M  V30 3119 H 289.798 -5.08634 0.130031 0
M  V30 3120 H 289.196 -4.77347 -3.03573 0
M  V30 3121 H 287.753 -5.69667 -3.16737 0
M  V30 3122 N 291.186 -0.45159 -1.50991 0
M  V30 3123 C 292.136 0.370861 -2.24964 0
M  V30 3124 C 293.12 0.978074 -1.2776 0
M  V30 3125 O 294.312 0.893854 -1.52772 0
M  V30 3126 C 291.441 1.46344 -3.10545 0
M  V30 3127 C 290.527 0.864924 -4.15187 0
M  V30 3128 N 290.918 -0.00311354 -5.058 0
M  V30 3129 C 289.216 1.13099 -4.31422 0
M  V30 3130 C 289.917 -0.340772 -5.80701 0
M  V30 3131 N 288.893 0.279203 -5.42883 0
M  V30 3132 H 292.695 -0.298134 -2.92384 0
M  V30 3133 H 290.209 -0.264528 -1.60231 0
M  V30 3134 H 292.206 2.06565 -3.62128 0
M  V30 3135 H 290.866 2.13463 -2.4467 0
M  V30 3136 H 291.877 -0.37058 -5.16572 0
M  V30 3137 H 288.554 1.79861 -3.76771 0
M  V30 3138 H 289.944 -1.048 -6.63677 0
M  V30 3139 N 292.664 1.56529 -0.183458 0
M  V30 3140 C 293.911 1.97244 0.458357 0
M  V30 3141 C 294.239 1.06992 1.62428 0
M  V30 3142 O 293.494 0.106542 1.9541 0
M  V30 3143 C 293.793 3.43939 0.971637 0
M  V30 3144 C 293.459 4.5083 -0.0796784 0
M  V30 3145 C 292.121 4.79786 -0.368584 0
M  V30 3146 C 294.473 5.15138 -0.792638 0
M  V30 3147 C 291.801 5.70345 -1.37563 0
M  V30 3148 C 294.153 6.06784 -1.78875 0
M  V30 3149 C 292.817 6.34102 -2.08497 0
M  V30 3150 H 292.087 0.721768 0.167725 0
M  V30 3151 H 294.734 1.89472 -0.277976 0
M  V30 3152 H 293.039 3.48724 1.78602 0
M  V30 3153 H 294.736 3.72791 1.47744 0
M  V30 3154 H 291.326 4.28317 0.155668 0
M  V30 3155 H 295.51 4.92868 -0.582659 0
M  V30 3156 H 290.766 5.89789 -1.61118 0
M  V30 3157 H 294.94 6.55677 -2.3465 0
M  V30 3158 H 292.567 7.04074 -2.86678 0
M  V30 3159 N 294.142 -0.090211 1.57342 0
M  V30 3160 C 295.382 -0.798365 1.88163 0
M  V30 3161 C 295.746 -1.75662 0.775046 0
M  V30 3162 O 296.947 -2.50849 0.965816 0
M  V30 3163 C 295.218 -1.50376 3.24225 0
M  V30 3164 S 296.777 -2.24952 3.76752 0
M  V30 3165 H 293.595 -0.265883 0.659414 0
M  V30 3166 H 296.197 -0.055264 1.95422 0
M  V30 3167 H 294.901 -0.792286 4.0268 0
M  V30 3168 H 294.432 -2.28666 3.20118 0
M  V30 3169 H 296.447 -3.51173 3.5056 0
M  V30 3170 N 295.62 -1.53406 -0.361157 0
M  V30 3171 C 296.868 -1.69467 -1.10115 0
M  V30 3172 C 297.189 -0.451352 -1.89705 0
M  V30 3173 O 296.459 0.534636 -1.88463 0
M  V30 3174 H 295.039 -0.624749 -0.409508 0
M  V30 3175 H 297.701 -1.90609 -0.406699 0
M  V30 3176 H 296.797 -2.55774 -1.78847 0
M  V30 3177 N 297.098 0.621204 -1.44841 0
M  V30 3178 C 298.346 1.37783 -1.47852 0
M  V30 3179 C 298.667 1.94653 -0.116224 0
M  V30 3180 O 297.937 1.76367 0.852737 0
M  V30 3181 H 296.517 0.511453 -0.544449 0
M  V30 3182 H 299.179 0.730446 -1.80694 0
M  V30 3183 H 298.275 2.20414 -2.20961 0
M  V30 3184 N 298.576 1.31904 0.862503 0
M  V30 3185 C 299.524 1.20125 1.9918 0
M  V30 3186 C 300.518 0.107824 1.69056 0
M  V30 3187 O 301.724 0.270223 1.7796 0
M  V30 3188 H 298.099 0.372148 0.65346 0
M  V30 3189 H 300.07 2.15652 2.06244 0
M  V30 3190 C 298.819 0.933099 3.34946 0
M  V30 3191 H 298.142 1.76664 3.5865 0
M  V30 3192 H 299.582 0.890892 4.14535 0
M  V30 3193 C 298.041 -0.364172 3.34926 0
M  V30 3194 O 298.571 -1.37858 3.77304 0
M  V30 3195 N 296.777 -0.383362 2.8806 0
M  V30 3196 H 296.324 0.442651 2.53768 0
M  V30 3197 H 296.282 -1.25123 2.8843 0
M  V30 3198 N 300.054 -1.07777 1.14986 0
M  V30 3199 C 301.465 -1.61766 0.932127 0
M  V30 3200 C 301.816 -1.88974 -0.527581 0
M  V30 3201 O 300.941 -1.65198 -1.39781 0
M  V30 3202 C 301.536 -2.93891 1.68563 0
M  V30 3203 C 300.095 -3.44639 1.5133 0
M  V30 3204 C 299.242 -2.18767 1.704 0
M  V30 3205 H 302.193 -0.909201 1.30074 0
M  V30 3206 H 302.214 -3.62623 1.15259 0
M  V30 3207 H 301.726 -2.74057 2.74799 0
M  V30 3208 H 299.827 -3.69564 0.474702 0
M  V30 3209 H 299.94 -4.20966 2.28746 0
M  V30 3210 H 298.304 -2.28253 1.13016 0
M  V30 3211 H 299.087 -2.01433 2.77992 0
M  V30 3212 N 301.532 -0.945985 -1.26051 0
M  V30 3213 C 302.757 -0.612525 -1.98149 0
M  V30 3214 C 303.182 0.806623 -1.69927 0
M  V30 3215 O 302.54 1.54411 -0.950108 0
M  V30 3216 C 302.588 -0.866981 -3.50023 0
M  V30 3217 O 301.692 0.0585333 -4.12358 0
M  V30 3218 H 301.033 -0.23379 -0.621481 0
M  V30 3219 H 303.563 -1.27023 -1.60395 0
M  V30 3220 H 303.573 -0.789792 -4.00283 0
M  V30 3221 H 302.248 -1.90135 -3.69894 0
M  V30 3222 H 300.825 -0.0701241 -3.72834 0
M  V30 3223 N 303.011 1.40521 -0.713556 0
M  V30 3224 C 304.239 2.05237 -0.261775 0
M  V30 3225 C 304.654 1.53755 1.09567 0
M  V30 3226 O 304.011 0.693268 1.6882 0
M  V30 3227 C 304.062 3.60763 -0.230706 0
M  V30 3228 O 303.783 4.10345 -1.53455 0
M  V30 3229 C 305.284 4.42651 0.239874 0
M  V30 3230 H 302.504 0.660533 -0.118057 0
M  V30 3231 H 305.048 1.79967 -0.971192 0
M  V30 3232 H 303.203 3.8501 0.429661 0
M  V30 3233 H 303.617 5.04526 -1.43366 0
M  V30 3234 H 305.091 5.51599 0.210468 0
M  V30 3235 H 305.568 4.20082 1.28171 0
M  V30 3236 H 306.174 4.23507 -0.390142 0
M  V30 3237 N 304.489 0.459591 1.5075 0
M  V30 3238 C 305.9 0.00171547 1.867 0
M  V30 3239 C 306.251 -1.39934 1.37525 0
M  V30 3240 O 305.376 -2.03523 0.735349 0
M  V30 3241 C 305.971 -0.00366298 3.388 0
M  V30 3242 C 304.53 -0.406026 3.74204 0
M  V30 3243 C 303.677 0.38673 2.7459 0
M  V30 3244 H 306.628 0.674413 1.43657 0
M  V30 3245 H 306.649 -0.808371 3.71814 0
M  V30 3246 H 306.161 1.01617 3.74561 0
M  V30 3247 H 304.262 -1.43063 3.4404 0
M  V30 3248 H 304.375 -0.115362 4.78961 0
M  V30 3249 H 302.739 -0.158019 2.54209 0
M  V30 3250 H 303.522 1.40585 3.13194 0
M  V30 3251 N 305.967 -1.56429 0.191757 0
M  V30 3252 C 307.216 -1.9666 -0.448088 0
M  V30 3253 C 307.529 -1.08136 -1.62991 0
M  V30 3254 O 308.735 -1.38135 -2.33733 0
M  V30 3255 C 307.191 -3.49753 -0.848585 0
M  V30 3256 C 306.799 -4.46935 0.308764 0
M  V30 3257 C 308.543 -3.9876 -1.4557 0
M  V30 3258 C 306.45 -5.91293 -0.112506 0
M  V30 3259 H 305.38 -0.734312 -0.171179 0
M  V30 3260 H 308.031 -1.81301 0.283242 0
M  V30 3261 H 306.413 -3.60604 -1.63649 0
M  V30 3262 H 307.587 -4.47813 1.08627 0
M  V30 3263 H 305.902 -4.08102 0.827158 0
M  V30 3264 H 308.499 -5.04086 -1.78328 0
M  V30 3265 H 308.842 -3.42875 -2.36099 0
M  V30 3266 H 309.375 -3.9101 -0.731836 0
M  V30 3267 H 306.114 -6.51097 0.758514 0
M  V30 3268 H 305.634 -5.93676 -0.854941 0
M  V30 3269 H 307.313 -6.44663 -0.549448 0
M  V30 3270 N 307.445 0.0818655 -1.57387 0
M  V30 3271 C 308.377 1.12484 -1.997 0
M  V30 3272 C 309.39 1.35564 -0.90146 0
M  V30 3273 O 310.579 1.33982 -1.17945 0
M  V30 3274 C 307.679 2.47778 -2.31213 0
M  V30 3275 C 306.852 2.44793 -3.62485 0
M  V30 3276 C 305.911 3.62117 -3.81782 0
M  V30 3277 O 304.937 3.44005 -4.53486 0
M  V30 3278 N 306.139 4.82094 -3.23367 0
M  V30 3279 H 308.904 0.764585 -2.89783 0
M  V30 3280 H 306.465 0.270664 -1.59621 0
M  V30 3281 H 308.457 3.24891 -2.41304 0
M  V30 3282 H 307.027 2.75843 -1.4707 0
M  V30 3283 H 306.247 1.53134 -3.6324 0
M  V30 3284 H 307.535 2.39889 -4.48699 0
M  V30 3285 H 306.933 4.99713 -2.65148 0
M  V30 3286 H 305.49 5.56753 -3.38923 0
M  V30 3287 N 308.923 1.53595 0.353017 0
M  V30 3288 C 310.169 1.70638 1.09593 0
M  V30 3289 C 310.502 0.463286 1.88593 0
M  V30 3290 O 309.777 -0.539597 1.86865 0
M  V30 3291 C 310.06 2.96406 2.04489 0
M  V30 3292 C 309.913 4.30901 1.29014 0
M  V30 3293 C 311.232 3.17812 3.0444 0
M  V30 3294 H 308.351 0.620913 0.397034 0
M  V30 3295 H 310.993 1.86254 0.375446 0
M  V30 3296 H 309.143 2.83223 2.65927 0
M  V30 3297 H 310.815 4.55917 0.702638 0
M  V30 3298 H 309.058 4.29741 0.592071 0
M  V30 3299 H 309.729 5.1506 1.98537 0
M  V30 3300 H 312.205 3.30263 2.53112 0
M  V30 3301 H 311.081 4.07223 3.6805 0
M  V30 3302 H 311.342 2.33669 3.75301 0
M  V30 3303 N 310.401 -0.613514 1.45168 0
M  V30 3304 C 311.333 -1.73825 1.4939 0
M  V30 3305 C 312.346 -1.58175 0.385304 0
M  V30 3306 O 313.535 -1.66165 0.652036 0
M  V30 3307 C 310.635 -3.11758 1.32891 0
M  V30 3308 C 309.808 -3.53704 2.57317 0
M  V30 3309 C 308.867 -4.70579 2.35462 0
M  V30 3310 O 307.893 -4.77996 3.09044 0
M  V30 3311 N 309.095 -5.63454 1.39644 0
M  V30 3312 H 311.86 -1.70669 2.46358 0
M  V30 3313 H 309.421 -0.79862 1.40832 0
M  V30 3314 H 311.413 -3.87692 1.1609 0
M  V30 3315 H 309.983 -3.09456 0.442218 0
M  V30 3316 H 309.203 -2.67794 2.89275 0
M  V30 3317 H 310.491 -3.78486 3.40038 0
M  V30 3318 H 309.889 -5.6017 0.789062 0
M  V30 3319 H 308.446 -6.38944 1.28816 0
M  V30 3320 N 311.879 -1.3236 -0.855495 0
M  V30 3321 C 313.119 -1.24187 -1.62348 0
M  V30 3322 C 313.483 0.193597 -1.91021 0
M  V30 3323 O 314.684 0.39904 -2.65822 0
M  V30 3324 C 312.955 -2.07661 -2.90881 0
M  V30 3325 S 314.514 -2.16505 -3.81669 0
M  V30 3326 H 311.332 -0.442076 -0.556857 0
M  V30 3327 H 313.934 -1.67198 -1.01317 0
M  V30 3328 H 312.638 -3.11018 -2.67761 0
M  V30 3329 H 312.169 -1.65425 -3.56929 0
M  V30 3330 H 314.184 -1.31394 -4.78487 0
M  V30 3331 N 313.357 1.07166 -1.15556 0
M  V30 3332 C 314.582 1.84053 -0.955988 0
M  V30 3333 C 315.007 1.81586 0.490739 0
M  V30 3334 O 314.365 1.21018 1.34997 0
M  V30 3335 C 314.413 3.28957 -1.47714 0
M  V30 3336 O 313.517 4.06795 -0.677593 0
M  V30 3337 H 312.858 0.569842 -0.340847 0
M  V30 3338 H 315.388 1.35178 -1.53584 0
M  V30 3339 H 315.398 3.79788 -1.4908 0
M  V30 3340 H 314.073 3.30068 -2.53037 0
M  V30 3341 H 312.65 3.6561 -0.733721 0
M  V30 3342 N 314.835 0.952656 1.25548 0
M  V30 3343 C 316.112 0.523818 1.88456 0
M  V30 3344 C 316.492 -0.998871 1.85973 0
M  V30 3345 O 315.84 -1.86381 1.3219 0
M  V30 3346 C 316.05 1.0982 3.31271 0
M  V30 3347 C 317.398 1.17385 4.08051 0
M  V30 3348 O 318.422 1.04961 3.40384 0
M  V30 3349 O 317.281 1.36852 5.29088 0
M  V30 3350 H 314.375 0.172485 0.808813 0
M  V30 3351 H 316.921 1.04596 1.33633 0
M  V30 3352 H 315.693 2.1415 3.27499 0
M  V30 3353 H 315.316 0.559191 3.93648 0
M  V30 3354 N 316.313 -1.40141 0.720998 0
M  V30 3355 C 317.543 -2.04798 0.27226 0
M  V30 3356 C 317.951 -1.54442 -1.09289 0
M  V30 3357 O 317.294 -0.698342 -1.69908 0
M  V30 3358 C 317.356 -3.59048 0.18027 0
M  V30 3359 C 317.02 -4.32317 1.48159 0
M  V30 3360 C 318.017 -4.59902 2.42458 0
M  V30 3361 C 315.702 -4.71125 1.74202 0
M  V30 3362 C 317.696 -5.25288 3.61042 0
M  V30 3363 C 315.383 -5.36242 2.93066 0
M  V30 3364 C 316.381 -5.63254 3.86308 0
M  V30 3365 O 316.069 -6.27024 5.03086 0
M  V30 3366 H 315.801 -0.665419 0.119139 0
M  V30 3367 H 318.355 -1.80436 0.981432 0
M  V30 3368 H 316.585 -3.82251 -0.58489 0
M  V30 3369 H 318.274 -4.05221 -0.234618 0
M  V30 3370 H 319.04 -4.30379 2.23604 0
M  V30 3371 H 314.919 -4.49466 1.02477 0
M  V30 3372 H 318.463 -5.46289 4.33837 0
M  V30 3373 H 314.36 -5.65185 3.11826 0
M  V30 3374 H 315.128 -6.4552 5.03235 0
M  V30 3375 N 317.792 -0.46758 -1.50504 0
M  V30 3376 C 319.069 0.15003 -1.95024 0
M  V30 3377 C 319.449 1.57304 -1.40779 0
M  V30 3378 O 318.797 2.20281 -0.607319 0
M  V30 3379 C 319.007 0.0969324 -3.48865 0
M  V30 3380 C 320.355 0.287565 -4.23625 0
M  V30 3381 O 321.379 0.173678 -3.55776 0
M  V30 3382 O 320.238 0.517186 -5.44047 0
M  V30 3383 H 317.332 0.113582 -0.819163 0
M  V30 3384 H 319.878 -0.52773 -1.61286 0
M  V30 3385 H 318.65 -0.896732 -3.80886 0
M  V30 3386 H 318.273 0.816303 -3.8913 0
M  V30 3387 N 319.27 1.56325 -0.20005 0
M  V30 3388 C 320.495 2.02548 0.44597 0
M  V30 3389 C 320.92 1.07922 1.5406 0
M  V30 3390 O 320.278 0.0635775 1.81188 0
M  V30 3391 C 320.326 3.47175 0.974761 0
M  V30 3392 O 319.43 3.55671 2.08739 0
M  V30 3393 H 318.771 0.655862 0.103638 0
M  V30 3394 H 321.301 2.02201 -0.312381 0
M  V30 3395 H 321.311 3.87067 1.2901 0
M  V30 3396 H 319.986 4.15538 0.17347 0
M  V30 3397 H 318.563 3.27657 1.78032 0
M  V30 3398 N 320.748 -0.0735177 1.57428 0
M  V30 3399 C 322.025 -0.805903 1.78226 0
M  V30 3400 C 322.405 -1.95874 0.787189 0
M  V30 3401 O 321.753 -2.2779 -0.180029 0
M  V30 3402 C 321.963 -1.28045 3.24662 0
M  V30 3403 C 323.311 -1.71453 3.88444 0
M  V30 3404 O 324.335 -1.37616 3.28543 0
M  V30 3405 O 323.194 -2.34093 4.93825 0
M  V30 3406 H 320.288 -0.386041 0.73137 0
M  V30 3407 H 322.834 -0.0537269 1.69615 0
M  V30 3408 H 321.606 -0.455476 3.8864 0
M  V30 3409 H 321.229 -2.094 3.37991 0
M  V30 3410 N 322.226 -1.5378 -0.344866 0
M  V30 3411 C 323.474 -1.70625 -1.08311 0
M  V30 3412 C 323.795 -0.471447 -1.89215 0
M  V30 3413 O 323.065 0.514616 -1.8902 0
M  V30 3414 H 321.645 -0.629058 -0.402859 0
M  V30 3415 H 324.307 -1.9103 -0.386459 0
M  V30 3416 H 323.403 -2.57656 -1.76124 0
M  V30 3417 N 323.704 0.605807 -1.45491 0
M  V30 3418 C 324.929 1.39625 -1.53361 0
M  V30 3419 C 325.354 1.87351 -0.167645 0
M  V30 3420 O 324.712 1.60243 0.848051 0
M  V30 3421 C 324.76 2.57559 -2.5238 0
M  V30 3422 O 323.864 3.58248 -2.04285 0
M  V30 3423 H 323.205 0.416771 -0.516912 0
M  V30 3424 H 325.735 0.737103 -1.90861 0
M  V30 3425 H 325.745 3.0478 -2.71244 0
M  V30 3426 H 324.42 2.22171 -3.51586 0
M  V30 3427 H 322.997 3.17664 -1.95305 0
M  V30 3428 N 325.182 1.32811 0.848464 0
M  V30 3429 C 326.132 1.18842 1.94578 0
M  V30 3430 C 327.116 0.0937517 1.60627 0
M  V30 3431 O 328.308 0.320887 1.74067 0
M  V30 3432 C 325.437 0.91999 3.30743 0
M  V30 3433 C 324.523 2.05665 3.70894 0
M  V30 3434 N 324.914 3.30579 3.8282 0
M  V30 3435 C 323.212 1.9612 4.00566 0
M  V30 3436 C 323.913 4.05067 4.17487 0
M  V30 3437 N 322.889 3.33419 4.2934 0
M  V30 3438 H 326.691 2.13536 2.0194 0
M  V30 3439 H 324.205 1.2468 1.0406 0
M  V30 3440 H 326.202 0.800859 4.09136 0
M  V30 3441 H 324.862 -0.0185076 3.24695 0
M  V30 3442 H 325.873 3.65441 3.66978 0
M  V30 3443 H 322.55 1.09871 4.02784 0
M  V30 3444 H 323.94 5.12815 4.34131 0
M  V30 3445 N 326.66 -1.06551 1.16123 0
M  V30 3446 C 327.937 -1.76097 0.85142 0
M  V30 3447 C 328.317 -2.00802 -0.6513 0
M  V30 3448 O 327.665 -1.63302 -1.59827 0
M  V30 3449 C 327.875 -3.06384 1.67122 0
M  V30 3450 C 329.223 -3.80585 1.88255 0
M  V30 3451 O 330.247 -3.16218 1.63966 0
M  V30 3452 O 329.106 -4.96212 2.2899 0
M  V30 3453 H 326.2 -0.765102 0.313923 0
M  V30 3454 H 328.746 -1.12844 1.26745 0
M  V30 3455 H 327.518 -2.84071 2.69108 0
M  V30 3456 H 327.141 -3.77371 1.25206 0
M  V30 3457 N 328.138 -0.959301 -1.25041 0
M  V30 3458 C 329.068 -0.501388 -2.28053 0
M  V30 3459 C 330.049 0.454673 -1.63911 0
M  V30 3460 O 331.234 0.352618 -1.90972 0
M  V30 3461 C 328.364 0.217224 -3.4662 0
M  V30 3462 C 327.318 -0.654034 -4.22973 0
M  V30 3463 C 326.644 0.195589 -5.34342 0
M  V30 3464 C 327.944 -1.93447 -4.85155 0
M  V30 3465 H 329.638 -1.36238 -2.66608 0
M  V30 3466 H 327.184 -0.656534 -1.28163 0
M  V30 3467 H 329.137 0.548732 -4.17812 0
M  V30 3468 H 327.861 1.1125 -3.07068 0
M  V30 3469 H 326.52 -0.968693 -3.5357 0
M  V30 3470 H 326.168 1.09076 -4.91031 0
M  V30 3471 H 325.868 -0.384091 -5.86343 0
M  V30 3472 H 327.392 0.521958 -6.08365 0
M  V30 3473 H 328.806 -1.66908 -5.48466 0
M  V30 3474 H 327.203 -2.46018 -5.47353 0
M  V30 3475 H 328.273 -2.63466 -4.07079 0
M  V30 3476 N 329.616 1.39756 -0.72842 0
M  V30 3477 C 330.865 1.99879 -0.270407 0
M  V30 3478 C 331.178 1.58449 1.14688 0
M  V30 3479 O 332.384 2.11362 1.70407 0
M  V30 3480 C 330.84 3.57292 -0.43252 0
M  V30 3481 C 330.448 4.07688 -1.85727 0
M  V30 3482 C 332.192 4.24485 -0.0359507 0
M  V30 3483 C 330.099 5.5765 -1.96928 0
M  V30 3484 H 329.029 0.747689 -0.0973472 0
M  V30 3485 H 331.68 1.59837 -0.901355 0
M  V30 3486 H 330.062 3.95097 0.267219 0
M  V30 3487 H 331.236 3.81231 -2.58843 0
M  V30 3488 H 329.551 3.53135 -2.20646 0
M  V30 3489 H 332.148 5.34609 -0.0987484 0
M  V30 3490 H 332.491 4.03915 1.00787 0
M  V30 3491 H 333.024 3.9183 -0.686604 0
M  V30 3492 H 329.763 5.8309 -2.99476 0
M  V30 3493 H 329.283 5.8593 -1.28241 0
M  V30 3494 H 330.962 6.22957 -1.74737 0
M  V30 3495 N 331.094 0.475555 1.50254 0
M  V30 3496 C 332.342 -0.077738 2.0195 0
M  V30 3497 C 332.663 -1.39813 1.35931 0
M  V30 3498 O 331.933 -1.89249 0.506123 0
M  V30 3499 H 330.513 -0.031719 0.746326 0
M  V30 3500 H 333.175 0.626995 1.84539 0
M  V30 3501 H 332.271 -0.225995 3.11281 0
M  V30 3502 N 332.573 -1.56217 0.208337 0
M  V30 3503 C 333.801 -2.02337 -0.43215 0
M  V30 3504 C 334.216 -1.08834 -1.54275 0
M  V30 3505 O 333.573 -0.0955462 -1.8225 0
M  V30 3506 C 333.624 -3.48072 -0.976138 0
M  V30 3507 O 333.345 -4.38007 0.0901621 0
M  V30 3508 C 334.846 -4.09773 -1.69119 0
M  V30 3509 H 332.066 -0.662385 -0.10718 0
M  V30 3510 H 334.61 -2.01966 0.320923 0
M  V30 3511 H 332.765 -3.49099 -1.67954 0
M  V30 3512 H 333.179 -5.23543 -0.316701 0
M  V30 3513 H 334.653 -5.13556 -2.02397 0
M  V30 3514 H 335.13 -3.53999 -2.59964 0
M  V30 3515 H 335.736 -4.12556 -1.03332 0
M  V30 3516 N 334.051 0.0651679 -1.57465 0
M  V30 3517 C 335.298 0.763063 -1.87573 0
M  V30 3518 C 335.626 1.77242 -0.800961 0
M  V30 3519 O 334.881 1.94651 0.202316 0
M  V30 3520 C 335.18 1.50081 -3.24362 0
M  V30 3521 C 334.846 0.630816 -4.46466 0
M  V30 3522 C 333.508 0.391082 -4.79608 0
M  V30 3523 C 335.86 0.0279465 -5.21193 0
M  V30 3524 C 333.188 -0.460894 -5.84887 0
M  V30 3525 C 335.54 -0.811522 -6.27373 0
M  V30 3526 C 334.204 -1.06106 -6.59013 0
M  V30 3527 H 333.474 0.279224 -0.686378 0
M  V30 3528 H 336.121 0.0236726 -1.91485 0
M  V30 3529 H 334.426 2.31258 -3.16271 0
M  V30 3530 H 336.123 2.04571 -3.44894 0
M  V30 3531 H 332.713 0.8278 -4.2053 0
M  V30 3532 H 336.897 0.200262 -4.95896 0
M  V30 3533 H 332.153 -0.662907 -6.07796 0
M  V30 3534 H 336.327 -1.28537 -6.84435 0
M  V30 3535 H 333.954 -1.723 -7.40417 0
M  V30 3536 N 335.529 1.53961 0.336706 0
M  V30 3537 C 336.479 1.7881 1.41461 0
M  V30 3538 C 337.463 0.643561 1.47469 0
M  V30 3539 O 338.655 0.903166 1.52223 0
M  V30 3540 C 335.784 2.00722 2.78506 0
M  V30 3541 C 334.87 3.2126 2.76862 0
M  V30 3542 N 335.261 4.42588 2.44845 0
M  V30 3543 C 333.559 3.22568 3.08004 0
M  V30 3544 C 334.26 5.2447 2.51607 0
M  V30 3545 N 333.236 4.61344 2.87511 0
M  V30 3546 H 337.038 2.70205 1.15615 0
M  V30 3547 H 334.552 1.52978 0.545112 0
M  V30 3548 H 336.549 2.1666 3.5618 0
M  V30 3549 H 335.209 1.10573 3.05293 0
M  V30 3550 H 336.22 4.69819 2.17922 0
M  V30 3551 H 332.897 2.42409 3.39918 0
M  V30 3552 H 334.287 6.31324 2.29955 0
M  V30 3553 N 337.007 -0.598083 1.45811 0
M  V30 3554 C 338.235 -1.38322 1.53866 0
M  V30 3555 C 338.65 -1.87992 0.174479 0
M  V30 3556 O 338.007 -1.62756 -0.825627 0
M  V30 3557 C 338.058 -2.58125 2.53089 0
M  V30 3558 O 337.779 -2.10516 3.84206 0
M  V30 3559 C 339.28 -3.50869 2.70935 0
M  V30 3560 H 336.5 -0.423093 0.520801 0
M  V30 3561 H 339.044 -0.728527 1.91083 0
M  V30 3562 H 337.199 -3.19615 2.18917 0
M  V30 3563 H 337.613 -2.88425 4.38077 0
M  V30 3564 H 339.087 -4.31451 3.44317 0
M  V30 3565 H 339.564 -4.01822 1.77301 0
M  V30 3566 H 340.17 -2.95225 3.06141 0
M  V30 3567 N 338.485 -1.33259 -0.841409 0
M  V30 3568 C 339.71 -1.2775 -1.63385 0
M  V30 3569 C 340.135 0.149188 -1.87507 0
M  V30 3570 O 339.493 1.10498 -1.43736 0
M  V30 3571 C 339.541 -2.05571 -2.96265 0
M  V30 3572 O 338.645 -1.41257 -3.87453 0
M  V30 3573 H 337.986 -0.439627 -0.497618 0
M  V30 3574 H 340.516 -1.75782 -1.04699 0
M  V30 3575 H 340.526 -2.16241 -3.45982 0
M  V30 3576 H 339.201 -3.09309 -2.7803 0
M  V30 3577 H 337.778 -1.39217 -3.45938 0
M  V30 3578 N 339.963 1.05934 -1.16686 0
M  V30 3579 C 340.893 2.1546 -0.899949 0
M  V30 3580 C 341.874 1.69391 0.155154 0
M  V30 3581 O 343.059 1.94199 0.00648693 0
M  V30 3582 C 340.189 3.44939 -0.404241 0
M  V30 3583 C 339.143 4.04536 -1.39767 0
M  V30 3584 C 338.469 5.29268 -0.760216 0
M  V30 3585 C 339.769 4.42893 -2.76845 0
M  V30 3586 H 341.463 2.38046 -1.81588 0
M  V30 3587 H 339.009 1.14404 -0.874514 0
M  V30 3588 H 340.962 4.20901 -0.204971 0
M  V30 3589 H 339.686 3.21983 0.547206 0
M  V30 3590 H 338.345 3.30635 -1.58355 0
M  V30 3591 H 337.993 5.02611 0.197831 0
M  V30 3592 H 337.693 5.70101 -1.42332 0
M  V30 3593 H 339.217 6.07924 -0.57105 0
M  V30 3594 H 340.631 5.09921 -2.62019 0
M  V30 3595 H 339.028 4.94721 -3.39663 0
M  V30 3596 H 340.098 3.53584 -3.31823 0
M  V30 3597 N 341.441 0.965919 1.2453 0
M  V30 3598 C 342.404 0.499547 2.2369 0
M  V30 3599 C 343.404 -0.40294 1.5567 0
M  V30 3600 O 344.594 -0.19865 1.73064 0
M  V30 3601 C 341.726 -0.276792 3.39774 0
M  V30 3602 H 342.919 1.37613 2.66463 0
M  V30 3603 H 340.472 0.750324 1.37112 0
M  V30 3604 H 341.207 -1.17055 3.02438 0
M  V30 3605 H 340.992 0.370826 3.90343 0
M  V30 3606 H 342.482 -0.592175 4.1338 0
M  V30 3607 N 342.919 -1.39368 0.735821 0
M  V30 3608 C 343.851 -2.2913 0.0567723 0
M  V30 3609 C 344.864 -1.46859 -0.702589 0
M  V30 3610 O 346.053 -1.69925 -0.546616 0
M  V30 3611 C 343.153 -3.25492 -0.943823 0
M  V30 3612 C 342.326 -4.36709 -0.24581 0
M  V30 3613 C 341.385 -5.13376 -1.15463 0
M  V30 3614 O 340.411 -5.65683 -0.631803 0
M  V30 3615 N 341.613 -5.24656 -2.48427 0
M  V30 3616 H 344.378 -2.88047 0.827582 0
M  V30 3617 H 341.939 -1.50957 0.585112 0
M  V30 3618 H 343.931 -3.73657 -1.55443 0
M  V30 3619 H 342.501 -2.676 -1.61583 0
M  V30 3620 H 341.721 -3.9041 0.545286 0
M  V30 3621 H 343.009 -5.08244 0.237891 0
M  V30 3622 H 342.407 -4.83679 -2.93379 0
M  V30 3623 H 340.964 -5.76258 -3.04582 0
M  V30 3624 N 344.397 -0.483516 -1.5 0
M  V30 3625 C 345.327 0.293829 -2.31644 0
M  V30 3626 C 346.308 0.978864 -1.39112 0
M  V30 3627 O 347.493 0.973644 -1.68029 0
M  V30 3628 C 344.623 1.36897 -3.19181 0
M  V30 3629 C 343.577 0.804833 -4.20365 0
M  V30 3630 C 342.903 1.9792 -4.96721 0
M  V30 3631 C 344.203 -0.192313 -5.21946 0
M  V30 3632 H 345.897 -0.387616 -2.9688 0
M  V30 3633 H 343.443 -0.187856 -1.42769 0
M  V30 3634 H 345.396 1.92037 -3.751 0
M  V30 3635 H 344.12 2.07936 -2.51853 0
M  V30 3636 H 342.779 0.275319 -3.65565 0
M  V30 3637 H 342.427 2.67686 -4.25856 0
M  V30 3638 H 342.127 1.60789 -5.65173 0
M  V30 3639 H 343.651 2.53526 -5.55479 0
M  V30 3640 H 345.065 0.270333 -5.72662 0
M  V30 3641 H 343.462 -0.478543 -5.98189 0
M  V30 3642 H 344.532 -1.11409 -4.71928 0
M  V30 3643 N 345.875 1.56104 -0.216619 0
M  V30 3644 C 346.807 2.17339 0.72776 0
M  V30 3645 C 347.82 1.14109 1.16116 0
M  V30 3646 O 349.009 1.4111 1.09317 0
M  V30 3647 C 346.109 2.73818 1.99693 0
M  V30 3648 C 345.282 4.02168 1.71988 0
M  V30 3649 C 344.341 4.43259 2.83562 0
M  V30 3650 O 343.367 5.10257 2.52244 0
M  V30 3651 N 344.569 4.08535 4.12407 0
M  V30 3652 H 347.334 2.99005 0.203983 0
M  V30 3653 H 344.895 1.61861 -0.0354289 0
M  V30 3654 H 346.887 2.9828 2.73516 0
M  V30 3655 H 345.457 1.96483 2.43132 0
M  V30 3656 H 344.677 3.85612 0.818337 0
M  V30 3657 H 345.965 4.85907 1.50903 0
M  V30 3658 H 345.363 3.54687 4.40696 0
M  V30 3659 H 343.92 4.37901 4.8279 0
M  V30 3660 N 347.353 -0.0568162 1.57498 0
M  V30 3661 C 348.316 -1.05038 2.03715 0
M  V30 3662 C 349.316 -1.30709 0.936577 0
M  V30 3663 O 350.506 -1.26178 1.20103 0
M  V30 3664 C 347.638 -2.39034 2.43055 0
M  V30 3665 H 348.831 -0.651715 2.92733 0
M  V30 3666 H 346.384 -0.302947 1.53336 0
M  V30 3667 H 347.119 -2.83703 1.57108 0
M  V30 3668 H 346.904 -2.21739 3.2338 0
M  V30 3669 H 348.394 -3.10421 2.79336 0
M  V30 3670 N 348.832 -1.54138 -0.328536 0
M  V30 3671 C 350.078 -1.7236 -1.06865 0
M  V30 3672 C 350.411 -0.493231 -1.87832 0
M  V30 3673 O 349.686 0.5098 -1.877 0
M  V30 3674 C 349.969 -2.99621 -1.99747 0
M  V30 3675 C 349.822 -4.32899 -1.22143 0
M  V30 3676 C 351.141 -3.22615 -2.99345 0
M  V30 3677 H 348.26 -0.627151 -0.387105 0
M  V30 3678 H 350.902 -1.86827 -0.345767 0
M  V30 3679 H 349.052 -2.87418 -2.61387 0
M  V30 3680 H 350.724 -4.56978 -0.630017 0
M  V30 3681 H 348.967 -4.30628 -0.523628 0
M  V30 3682 H 349.638 -5.18154 -1.90318 0
M  V30 3683 H 352.114 -3.34248 -2.47826 0
M  V30 3684 H 350.99 -4.13027 -3.61524 0
M  V30 3685 H 351.251 -2.3961 -3.71536 0
M  V30 3686 N 350.31 0.590341 -1.46126 0
M  V30 3687 C 351.721 1.17243 -1.45296 0
M  V30 3688 C 352.072 1.95281 -0.189723 0
M  V30 3689 O 351.197 2.04502 0.707674 0
M  V30 3690 C 351.792 2.13284 -2.6324 0
M  V30 3691 C 350.351 2.66832 -2.65476 0
M  V30 3692 C 349.498 1.42557 -2.3785 0
M  V30 3693 H 352.449 0.378692 -1.54116 0
M  V30 3694 H 352.47 2.96619 -2.38323 0
M  V30 3695 H 351.982 1.56459 -3.55165 0
M  V30 3696 H 350.083 3.27548 -1.77603 0
M  V30 3697 H 350.196 3.10088 -3.65215 0
M  V30 3698 H 348.56 1.72107 -1.87753 0
M  V30 3699 H 349.343 0.875741 -3.31942 0
M  V30 3700 N 351.788 1.33704 0.83433 0
M  V30 3701 C 352.751 1.24244 1.92603 0
M  V30 3702 C 353.751 0.160383 1.59998 0
M  V30 3703 O 354.941 0.412228 1.69252 0
M  V30 3704 C 352.073 0.91555 3.28376 0
M  V30 3705 H 353.266 2.21287 2.02416 0
M  V30 3706 H 350.819 1.17827 1.02696 0
M  V30 3707 H 351.554 -0.0521886 3.24258 0
M  V30 3708 H 351.339 1.69811 3.53422 0
M  V30 3709 H 352.829 0.874231 4.08347 0
M  V30 3710 N 353.266 -1.05314 1.17247 0
M  V30 3711 C 354.176 -2.16538 0.90268 0
M  V30 3712 C 355.192 -1.73523 -0.128707 0
M  V30 3713 O 356.368 -2.01337 0.0502701 0
M  V30 3714 C 353.433 -3.44167 0.418356 0
M  V30 3715 C 352.494 -4.01635 1.51618 0
M  V30 3716 C 351.727 -5.23171 1.05487 0
M  V30 3717 O 351.95 -5.70327 -0.0914715 0
M  V30 3718 O 350.884 -5.72848 1.8474 0
M  V30 3719 H 354.71 -2.42145 1.83302 0
M  V30 3720 H 352.295 -1.15037 0.953246 0
M  V30 3721 H 354.177 -4.21112 0.155726 0
M  V30 3722 H 352.852 -3.20063 -0.48385 0
M  V30 3723 H 351.759 -3.26135 1.83268 0
M  V30 3724 H 353.092 -4.30053 2.39405 0
M  V30 3725 N 354.744 -0.972509 -1.24016 0
M  V30 3726 C 355.991 -0.637034 -1.92219 0
M  V30 3727 C 356.319 0.828418 -1.75976 0
M  V30 3728 O 355.574 1.61206 -1.10955 0
M  V30 3729 C 355.873 -0.963694 -3.44162 0
M  V30 3730 C 355.539 -2.41807 -3.80579 0
M  V30 3731 C 354.201 -2.81556 -3.9023 0
M  V30 3732 C 356.553 -3.36172 -3.98293 0
M  V30 3733 C 353.881 -4.14702 -4.15017 0
M  V30 3734 C 356.233 -4.68952 -4.24578 0
M  V30 3735 C 354.897 -5.08472 -4.32449 0
M  V30 3736 H 354.167 -0.233107 -0.703379 0
M  V30 3737 H 356.814 -1.2249 -1.47202 0
M  V30 3738 H 355.119 -0.29365 -3.90698 0
M  V30 3739 H 356.816 -0.682449 -3.9515 0
M  V30 3740 H 353.406 -2.09988 -3.73635 0
M  V30 3741 H 357.59 -3.06644 -3.90234 0
M  V30 3742 H 352.846 -4.4494 -4.19331 0
M  V30 3743 H 357.02 -5.42037 -4.37229 0
M  V30 3744 H 354.647 -6.11665 -4.51409 0
M  V30 3745 N 356.222 1.38976 -0.743202 0
M  V30 3746 C 357.132 2.3434 -0.110399 0
M  V30 3747 C 358.148 1.58741 0.712559 0
M  V30 3748 O 359.324 1.9099 0.639125 0
M  V30 3749 C 356.389 3.37812 0.780012 0
M  V30 3750 C 355.45 4.29263 -0.0561319 0
M  V30 3751 C 354.683 5.27793 0.791875 0
M  V30 3752 O 354.906 5.33043 2.03031 0
M  V30 3753 O 353.84 6.01512 0.216183 0
M  V30 3754 H 357.666 2.90129 -0.897714 0
M  V30 3755 H 355.251 1.40643 -0.503966 0
M  V30 3756 H 357.133 4.01194 1.28923 0
M  V30 3757 H 355.808 2.84395 1.546 0
M  V30 3758 H 354.715 3.69076 -0.611056 0
M  V30 3759 H 356.048 4.85907 -0.784531 0
M  V30 3760 N 357.7 0.491464 1.49741 0
M  V30 3761 C 358.94 -0.0549118 2.04326 0
M  V30 3762 C 359.304 -1.35148 1.36378 0
M  V30 3763 O 360.505 -1.9815 1.81631 0
M  V30 3764 C 358.776 -0.213841 3.5676 0
M  V30 3765 S 360.335 -0.715839 4.32922 0
M  V30 3766 H 357.153 -0.00630513 0.710972 0
M  V30 3767 H 359.755 0.663257 1.83905 0
M  V30 3768 H 358.459 0.73527 4.0376 0
M  V30 3769 H 357.99 -0.957529 3.81569 0
M  V30 3770 H 360.005 -1.9864 4.54705 0
M  V30 3771 N 359.178 -1.55987 0.224894 0
M  V30 3772 C 360.427 -1.97566 -0.406273 0
M  V30 3773 C 360.74 -1.11569 -1.6066 0
M  V30 3774 O 361.946 -1.43062 -2.3075 0
M  V30 3775 C 360.402 -3.51474 -0.774207 0
M  V30 3776 C 360.01 -4.46179 0.403496 0
M  V30 3777 C 361.754 -4.01758 -1.37079 0
M  V30 3778 C 359.661 -5.91399 0.0129412 0
M  V30 3779 H 358.591 -0.737777 -0.155565 0
M  V30 3780 H 361.242 -1.80659 0.321635 0
M  V30 3781 H 359.624 -3.63994 -1.55963 0
M  V30 3782 H 360.798 -4.45409 1.18101 0
M  V30 3783 H 359.113 -4.06255 0.913536 0
M  V30 3784 H 361.71 -5.07756 -1.67596 0
M  V30 3785 H 362.053 -3.47805 -2.28773 0
M  V30 3786 H 362.586 -3.92475 -0.648733 0
M  V30 3787 H 359.325 -6.49341 0.896451 0
M  V30 3788 H 358.845 -5.95356 -0.728821 0
M  V30 3789 H 360.524 -6.45683 -0.412582 0
M  V30 3790 N 360.656 0.0484629 -1.57525 0
M  V30 3791 C 361.606 1.06246 -2.01732 0
M  V30 3792 C 362.59 1.33155 -0.903245 0
M  V30 3793 O 363.782 1.33065 -1.16717 0
M  V30 3794 C 360.911 2.36943 -2.48421 0
M  V30 3795 C 359.997 2.13208 -3.6661 0
M  V30 3796 N 360.388 1.5947 -4.80003 0
M  V30 3797 C 358.686 2.43581 -3.7361 0
M  V30 3798 C 359.387 1.51092 -5.61735 0
M  V30 3799 N 358.363 1.9797 -5.0627 0
M  V30 3800 H 362.165 0.640675 -2.86832 0
M  V30 3801 H 359.679 0.255134 -1.60383 0
M  V30 3802 H 361.676 3.10374 -2.78341 0
M  V30 3803 H 360.336 2.79818 -1.64718 0
M  V30 3804 H 361.347 1.28008 -5.01831 0
M  V30 3805 H 358.024 2.89662 -3.00669 0
M  V30 3806 H 359.414 1.10199 -6.62801 0
M  V30 3807 N 362.134 1.5431 0.320358 0
M  V30 3808 C 363.545 1.63872 0.894594 0
M  V30 3809 C 363.896 0.534847 1.88769 0
M  V30 3810 O 363.021 -0.331732 2.13842 0
M  V30 3811 C 363.616 2.97049 1.62934 0
M  V30 3812 C 362.175 3.08796 2.15226 0
M  V30 3813 C 361.322 2.59456 0.978671 0
M  V30 3814 H 364.273 1.58398 0.0978544 0
M  V30 3815 H 364.294 2.87388 2.49376 0
M  V30 3816 H 363.806 3.7737 0.906302 0
M  V30 3817 H 361.907 2.33156 2.90636 0
M  V30 3818 H 362.02 4.14649 2.40006 0
M  V30 3819 H 360.384 2.1543 1.35875 0
M  V30 3820 H 361.167 3.42237 0.269895 0
M  V30 3821 N 363.613 -0.582584 1.46437 0
M  V30 3822 C 364.523 -1.71949 1.59595 0
M  V30 3823 C 365.539 -1.67264 0.479443 0
M  V30 3824 O 366.715 -1.87171 0.743579 0
M  V30 3825 C 363.78 -3.08452 1.58298 0
M  V30 3826 C 362.841 -3.244 2.81182 0
M  V30 3827 C 362.074 -4.54391 2.79937 0
M  V30 3828 O 362.297 -5.38287 1.8869 0
M  V30 3829 O 361.231 -4.73588 3.71481 0
M  V30 3830 H 365.057 -1.63795 2.55744 0
M  V30 3831 H 362.642 -0.749643 1.29231 0
M  V30 3832 H 364.524 -3.89732 1.60271 0
M  V30 3833 H 363.199 -3.17043 0.653094 0
M  V30 3834 H 362.106 -2.42613 2.84763 0
M  V30 3835 H 363.439 -3.20699 3.7338 0
M  V30 3836 N 365.091 -1.34144 -0.827227 0
M  V30 3837 C 366.038 -1.25364 -1.93785 0
M  V30 3838 C 367.008 -0.129774 -1.65592 0
M  V30 3839 O 368.193 -0.310024 -1.88264 0
M  V30 3840 C 365.333 -1.01064 -3.2997 0
M  V30 3841 C 364.446 -2.22185 -3.70484 0
M  V30 3842 C 363.581 -1.91203 -4.95595 0
M  V30 3843 C 362.62 -3.08491 -5.28677 0
M  V30 3844 N 361.757 -2.77421 -6.44967 0
M  V30 3845 H 366.597 -2.20347 -2.00627 0
M  V30 3846 H 364.134 -1.09558 -0.981608 0
M  V30 3847 H 366.092 -0.850139 -4.08446 0
M  V30 3848 H 364.722 -0.0975026 -3.22653 0
M  V30 3849 H 363.774 -2.4917 -2.87434 0
M  V30 3850 H 365.086 -3.0983 -3.90905 0
M  V30 3851 H 364.24 -1.71864 -5.81848 0
M  V30 3852 H 362.979 -1.00812 -4.77167 0
M  V30 3853 H 361.984 -3.28431 -4.40923 0
M  V30 3854 H 363.209 -3.99655 -5.49047 0
M  V30 3855 H 361.155 -1.89601 -6.28003 0
M  V30 3856 H 361.072 -3.58598 -6.6554 0
M  V30 3857 H 362.34 -2.61577 -7.34301 0
M  V30 3858 N 366.569 1.04691 -1.17803 0
M  V30 3859 C 367.501 2.12571 -0.857097 0
M  V30 3860 C 368.514 1.62174 0.142647 0
M  V30 3861 O 369.703 1.78301 -0.0843387 0
M  V30 3862 C 366.803 3.37915 -0.258216 0
M  V30 3863 C 365.976 4.1757 -1.30207 0
M  V30 3864 C 365.035 5.2125 -0.720029 0
M  V30 3865 O 364.061 5.51888 -1.39314 0
M  V30 3866 N 365.263 5.78466 0.485507 0
M  V30 3867 H 368.028 2.40698 -1.78562 0
M  V30 3868 H 365.589 1.20831 -1.07757 0
M  V30 3869 H 367.581 4.04442 0.144584 0
M  V30 3870 H 366.151 3.07281 0.574199 0
M  V30 3871 H 365.371 3.46458 -1.88043 0
M  V30 3872 H 366.659 4.67586 -2.00601 0
M  V30 3873 H 366.057 5.55866 1.05022 0
M  V30 3874 H 364.614 6.4649 0.830307 0
M  V30 3875 N 368.047 0.979072 1.23499 0
M  V30 3876 C 368.979 0.476271 2.24197 0
M  V30 3877 C 369.992 -0.421166 1.57258 0
M  V30 3878 O 371.181 -0.225515 1.7707 0
M  V30 3879 C 368.281 -0.330503 3.37285 0
M  V30 3880 C 367.454 0.559744 4.33804 0
M  V30 3881 C 366.513 -0.192954 5.25846 0
M  V30 3882 O 365.539 0.416978 5.67671 0
M  V30 3883 N 366.741 -1.47932 5.61334 0
M  V30 3884 H 369.506 1.34211 2.67969 0
M  V30 3885 H 367.067 0.852189 1.37657 0
M  V30 3886 H 369.059 -0.842361 3.95836 0
M  V30 3887 H 367.629 -1.09734 2.92707 0
M  V30 3888 H 366.849 1.25245 3.73775 0
M  V30 3889 H 368.137 1.1665 4.95248 0
M  V30 3890 H 367.535 -1.9964 5.29302 0
M  V30 3891 H 366.092 -1.93664 6.22364 0
M  V30 3892 N 369.525 -1.3858 0.750561 0
M  V30 3893 C 370.472 -2.30483 0.120835 0
M  V30 3894 C 371.442 -1.50022 -0.712923 0
M  V30 3895 O 372.627 -1.78662 -0.669676 0
M  V30 3896 C 369.767 -3.36431 -0.768666 0
M  V30 3897 C 368.88 -4.31927 0.0793922 0
M  V30 3898 C 368.015 -5.24944 -0.81283 0
M  V30 3899 C 367.054 -6.12088 0.0390447 0
M  V30 3900 N 366.191 -6.97412 -0.809969 0
M  V30 3901 H 371.031 -2.83761 0.91015 0
M  V30 3902 H 368.568 -1.39707 0.460463 0
M  V30 3903 H 370.526 -3.96462 -1.29898 0
M  V30 3904 H 369.156 -2.8457 -1.5238 0
M  V30 3905 H 368.208 -3.73382 0.727303 0
M  V30 3906 H 369.52 -4.93319 0.737401 0
M  V30 3907 H 368.674 -5.90078 -1.41042 0
M  V30 3908 H 367.413 -4.63911 -1.50458 0
M  V30 3909 H 366.418 -5.45952 0.649328 0
M  V30 3910 H 367.643 -6.75189 0.727809 0
M  V30 3911 H 365.589 -6.38931 -1.48672 0
M  V30 3912 H 365.506 -7.55712 -0.208789 0
M  V30 3913 H 366.774 -7.66959 -1.39263 0
M  V30 3914 N 371.003 -0.499398 -1.49478 0
M  V30 3915 C 371.95 0.279881 -2.29097 0
M  V30 3916 C 372.92 0.961805 -1.3542 0
M  V30 3917 O 374.105 0.968777 -1.64376 0
M  V30 3918 C 371.245 1.33932 -3.18051 0
M  V30 3919 C 370.358 0.669333 -4.26783 0
M  V30 3920 C 369.493 1.70907 -5.02955 0
M  V30 3921 C 368.532 1.02087 -6.03527 0
M  V30 3922 N 367.669 2.00474 -6.7287 0
M  V30 3923 H 372.509 -0.405317 -2.95231 0
M  V30 3924 H 370.046 -0.211726 -1.45568 0
M  V30 3925 H 372.004 1.96553 -3.67998 0
M  V30 3926 H 370.634 1.9933 -2.53904 0
M  V30 3927 H 369.686 -0.0701234 -3.80335 0
M  V30 3928 H 370.998 0.127503 -4.98637 0
M  V30 3929 H 370.152 2.41037 -5.56764 0
M  V30 3930 H 368.891 2.28476 -4.30871 0
M  V30 3931 H 367.896 0.305338 -5.48951 0
M  V30 3932 H 369.121 0.451708 -6.77596 0
M  V30 3933 H 367.067 2.57007 -6.03559 0
M  V30 3934 H 366.984 1.51353 -7.40694 0
M  V30 3935 H 368.252 2.69897 -7.31284 0
M  V30 3936 N 372.481 1.55866 -0.233164 0
M  V30 3937 C 373.428 2.20796 0.67215 0
M  V30 3938 C 374.398 1.16731 1.18166 0
M  V30 3939 O 375.583 1.45129 1.23864 0
M  V30 3940 C 372.723 2.90072 1.86955 0
M  V30 3941 C 371.836 4.08759 1.39786 0
M  V30 3942 C 370.971 4.65787 2.55374 0
M  V30 3943 C 370.01 5.76752 2.04998 0
M  V30 3944 N 369.147 6.28021 3.13901 0
M  V30 3945 H 373.987 2.9779 0.111749 0
M  V30 3946 H 371.524 1.47036 0.0434007 0
M  V30 3947 H 373.482 3.28428 2.57276 0
M  V30 3948 H 372.112 2.15575 2.40265 0
M  V30 3949 H 371.164 3.7581 0.589173 0
M  V30 3950 H 372.476 4.88906 0.98856 0
M  V30 3951 H 371.63 5.06646 3.33758 0
M  V30 3952 H 370.369 3.84828 2.99598 0
M  V30 3953 H 369.374 5.35383 1.25079 0
M  V30 3954 H 370.599 6.59553 1.61759 0
M  V30 3955 H 368.545 5.49971 3.57586 0
M  V30 3956 H 368.462 7.03323 2.7726 0
M  V30 3957 H 369.73 6.73538 3.92386 0
M  V30 3958 N 373.959 -0.0401083 1.57549 0
M  V30 3959 C 375.184 -0.748931 1.93406 0
M  V30 3960 C 375.609 -1.68686 0.832274 0
M  V30 3961 O 374.967 -1.80047 -0.212818 0
M  V30 3962 C 375.015 -1.4916 3.28304 0
M  V30 3963 O 374.119 -2.6042 3.19774 0
M  V30 3964 H 373.46 -0.202212 0.63246 0
M  V30 3965 H 375.99 0.00112086 2.046 0
M  V30 3966 H 376 -1.86395 3.62934 0
M  V30 3967 H 374.675 -0.80364 4.08062 0
M  V30 3968 H 373.252 -2.25808 2.96758 0
M  V30 3969 N 375.437 -1.54477 -0.31217 0
M  V30 3970 C 376.667 -1.76948 -1.06645 0
M  V30 3971 C 377.075 -0.523593 -1.81811 0
M  V30 3972 O 376.418 0.51578 -1.76311 0
M  V30 3973 C 376.48 -2.91668 -2.10166 0
M  V30 3974 C 376.144 -4.30165 -1.54296 0
M  V30 3975 C 377.141 -5.10603 -0.978793 0
M  V30 3976 C 374.826 -4.76738 -1.58196 0
M  V30 3977 C 376.82 -6.3573 -0.461048 0
M  V30 3978 C 374.507 -6.01831 -1.06034 0
M  V30 3979 C 375.505 -6.81161 -0.500844 0
M  V30 3980 O 375.193 -8.03899 0.0128958 0
M  V30 3981 H 374.925 -0.594088 -0.322546 0
M  V30 3982 H 377.479 -2.02213 -0.360441 0
M  V30 3983 H 375.709 -2.62001 -2.84416 0
M  V30 3984 H 377.398 -3.01817 -2.71406 0
M  V30 3985 H 378.164 -4.75771 -0.941651 0
M  V30 3986 H 374.043 -4.15027 -2.00683 0
M  V30 3987 H 377.587 -6.97596 -0.0236894 0
M  V30 3988 H 373.484 -6.36152 -1.09459 0
M  V30 3989 H 374.252 -8.18437 -0.101457 0
M  V30 3990 N 376.915 0.57481 -1.46744 0
M  V30 3991 C 377.862 1.68329 -1.57905 0
M  V30 3992 C 378.832 1.60625 -0.422927 0
M  V30 3993 O 380.017 1.79721 -0.640711 0
M  V30 3994 C 377.157 3.06665 -1.58274 0
M  V30 3995 C 376.27 3.24935 -2.84678 0
M  V30 3996 C 375.405 4.53566 -2.76499 0
M  V30 3997 C 374.444 4.65207 -3.97806 0
M  V30 3998 N 373.581 5.85172 -3.87967 0
M  V30 3999 H 378.421 1.58127 -2.52587 0
M  V30 4000 H 375.958 0.770552 -1.25303 0
M  V30 4001 H 377.916 3.86745 -1.56473 0
M  V30 4002 H 376.546 3.15745 -0.671194 0
M  V30 4003 H 375.598 2.38405 -2.96424 0
M  V30 4004 H 376.91 3.29403 -3.7456 0
M  V30 4005 H 376.064 5.41885 -2.72848 0
M  V30 4006 H 374.803 4.51548 -1.8427 0
M  V30 4007 H 373.808 3.75304 -4.0178 0
M  V30 4008 H 375.033 4.68997 -4.9114 0
M  V30 4009 H 372.979 5.84137 -2.98529 0
M  V30 4010 H 372.896 5.90943 -4.71511 0
M  V30 4011 H 374.164 6.759 -3.88303 0
M  V30 4012 N 378.394 1.34581 0.820102 0
M  V30 4013 C 379.342 1.26401 1.95258 0
M  V30 4014 C 380.336 0.161553 1.68628 0
M  V30 4015 O 381.542 0.326703 1.7701 0
M  V30 4016 H 377.917 0.392749 0.64129 0
M  V30 4017 H 379.888 2.22105 1.99279 0
M  V30 4018 C 378.637 1.03919 3.31807 0
M  V30 4019 H 377.96 1.87984 3.52848 0
M  V30 4020 H 379.4 1.02232 4.11491 0
M  V30 4021 C 377.859 -0.257433 3.35915 0
M  V30 4022 O 378.389 -1.25784 3.81499 0
M  V30 4023 N 376.595 -0.291524 2.89134 0
M  V30 4024 H 376.142 0.523161 2.52232 0
M  V30 4025 H 376.1 -1.15883 2.92264 0
M  V30 4026 N 379.872 -1.04064 1.18357 0
M  V30 4027 C 381.097 -1.81454 1.00445 0
M  V30 4028 C 381.522 -1.82823 -0.442423 0
M  V30 4029 O 380.88 -1.24555 -1.31741 0
M  V30 4030 C 380.928 -3.24925 1.56384 0
M  V30 4031 O 380.032 -4.04856 0.785209 0
M  V30 4032 H 379.373 -0.560604 0.355835 0
M  V30 4033 H 381.903 -1.31059 1.57114 0
M  V30 4034 H 381.913 -3.75702 1.59097 0
M  V30 4035 H 380.588 -3.23244 2.61699 0
M  V30 4036 H 379.165 -3.63537 0.830399 0
M  V30 4037 N 381.35 -0.985608 -1.22978 0
M  V30 4038 C 382.598 -0.656087 -1.91154 0
M  V30 4039 C 382.919 0.813561 -1.77218 0
M  V30 4040 O 382.189 1.58244 -1.1548 0
M  V30 4041 H 380.769 -0.239674 -0.707506 0
M  V30 4042 H 383.431 -1.25054 -1.49491 0
M  V30 4043 H 382.527 -0.912253 -2.9847 0
M  V30 4044 N 382.828 1.3818 -0.7579 0
M  V30 4045 C 384.056 2.04301 -0.326937 0
M  V30 4046 C 384.471 1.57163 1.0462 0
M  V30 4047 O 383.828 0.746626 1.66529 0
M  V30 4048 C 383.879 3.59846 -0.345363 0
M  V30 4049 O 383.6 4.05256 -1.66432 0
M  V30 4050 C 385.101 4.4319 0.098927 0
M  V30 4051 H 382.321 0.656443 -0.139012 0
M  V30 4052 H 384.865 1.76786 -1.02796 0
M  V30 4053 H 383.02 3.86182 0.306955 0
M  V30 4054 H 383.434 4.99709 -1.59345 0
M  V30 4055 H 384.908 5.51989 0.0348745 0
M  V30 4056 H 385.385 4.23947 1.14741 0
M  V30 4057 H 385.991 4.22051 -0.52468 0
M  V30 4058 N 384.306 0.507319 1.49211 0
M  V30 4059 C 385.555 -0.0368315 2.01666 0
M  V30 4060 C 385.868 -1.37459 1.39156 0
M  V30 4061 O 387.074 -2.00579 1.82976 0
M  V30 4062 C 385.53 -0.116089 3.59713 0
M  V30 4063 C 385.138 1.2154 4.31198 0
M  V30 4064 C 386.882 -0.610268 4.2009 0
M  V30 4065 C 384.789 1.09796 5.81119 0
M  V30 4066 H 383.719 -0.0175376 0.753796 0
M  V30 4067 H 386.37 0.647691 1.71689 0
M  V30 4068 H 384.752 -0.8652 3.86433 0
M  V30 4069 H 385.926 1.9783 4.16173 0
M  V30 4070 H 384.241 1.64352 3.82593 0
M  V30 4071 H 386.838 -0.715742 5.29888 0
M  V30 4072 H 387.181 -1.61064 3.8388 0
M  V30 4073 H 387.714 0.0824916 3.97714 0
M  V30 4074 H 384.453 2.0728 6.21864 0
M  V30 4075 H 383.973 0.376058 5.9862 0
M  V30 4076 H 385.652 0.779281 6.4229 0
M  V30 4077 N 385.784 -1.5574 0.241426 0
M  V30 4078 C 387.2 -1.59196 -0.113548 0
M  V30 4079 C 387.4 -1.25852 -1.57364 0
M  V30 4080 O 386.456 -1.00322 -2.31715 0
M  V30 4081 C 387.769 -2.99814 0.230695 0
M  V30 4082 C 389.317 -3.12513 0.174547 0
M  V30 4083 C 389.792 -4.55342 0.492744 0
M  V30 4084 N 391.283 -4.61076 0.443043 0
M  V30 4085 C 392.018 -5.6956 0.662484 0
M  V30 4086 N 391.514 -6.86328 0.944761 0
M  V30 4087 N 393.307 -5.58957 0.593564 0
M  V30 4088 H 385.458 -1.75685 1.19368 0
M  V30 4089 H 387.721 -0.81756 0.479896 0
M  V30 4090 H 387.427 -3.28932 1.24485 0
M  V30 4091 H 387.301 -3.74568 -0.444833 0
M  V30 4092 H 389.688 -2.83179 -0.830277 0
M  V30 4093 H 389.769 -2.40045 0.883845 0
M  V30 4094 H 389.413 -4.85396 1.4951 0
M  V30 4095 H 389.343 -5.26062 -0.23797 0
M  V30 4096 H 391.834 -3.77179 0.233374 0
M  V30 4097 H 392.147 -7.64935 1.09977 0
M  V30 4098 H 390.492 -6.88025 0.982175 0
M  V30 4099 H 393.683 -4.66611 0.373123 0
M  V30 4100 H 393.856 -6.43433 0.767981 0
M  V30 4101 N 387.262 0.0317525 -1.57568 0
M  V30 4102 C 388.508 0.724175 -1.8943 0
M  V30 4103 C 388.841 1.75149 -0.838836 0
M  V30 4104 O 388.116 1.93948 0.146422 0
M  V30 4105 C 388.399 1.39615 -3.31933 0
M  V30 4106 C 388.252 0.382537 -4.4817 0
M  V30 4107 C 389.571 2.33084 -3.73309 0
M  V30 4108 H 386.69 0.261797 -0.688935 0
M  V30 4109 H 389.332 -0.013017 -1.89996 0
M  V30 4110 H 387.482 2.02451 -3.31581 0
M  V30 4111 H 389.154 -0.243689 -4.60656 0
M  V30 4112 H 387.397 -0.29844 -4.32772 0
M  V30 4113 H 388.068 0.891145 -5.44759 0
M  V30 4114 H 390.544 1.80295 -3.7501 0
M  V30 4115 H 389.42 2.77084 -4.73831 0
M  V30 4116 H 389.681 3.19643 -3.05419 0
M  V30 4117 N 388.74 1.54641 0.303973 0
M  V30 4118 C 389.687 1.85386 1.37479 0
M  V30 4119 C 390.657 0.702528 1.50512 0
M  V30 4120 O 391.842 0.950867 1.65418 0
M  V30 4121 C 388.982 2.10413 2.73533 0
M  V30 4122 C 388.095 3.38049 2.68974 0
M  V30 4123 C 387.23 3.52934 3.97002 0
M  V30 4124 C 386.269 4.74373 3.86829 0
M  V30 4125 N 385.406 4.8608 5.06627 0
M  V30 4126 H 390.246 2.76732 1.1056 0
M  V30 4127 H 387.783 1.37034 0.534805 0
M  V30 4128 H 389.741 2.22919 3.52652 0
M  V30 4129 H 388.371 1.22338 2.98719 0
M  V30 4130 H 387.423 3.3418 1.81736 0
M  V30 4131 H 388.735 4.27288 2.57346 0
M  V30 4132 H 387.889 3.65088 4.84557 0
M  V30 4133 H 386.628 2.61824 4.1146 0
M  V30 4134 H 385.633 4.62255 2.97658 0
M  V30 4135 H 386.858 5.66888 3.73918 0
M  V30 4136 H 384.804 3.97891 5.21554 0
M  V30 4137 H 384.721 5.69315 4.9741 0
M  V30 4138 H 385.989 5.02587 5.95841 0
M  V30 4139 N 390.218 -0.567019 1.47046 0
M  V30 4140 C 391.467 -1.32091 1.5243 0
M  V30 4141 C 391.78 -1.94704 0.187021 0
M  V30 4142 O 392.986 -2.7124 0.118771 0
M  V30 4143 C 391.442 -2.39479 2.68659 0
M  V30 4144 C 391.05 -1.831 4.08874 0
M  V30 4145 C 392.794 -3.16111 2.83327 0
M  V30 4146 C 390.701 -2.8821 5.16419 0
M  V30 4147 H 389.631 -0.496629 0.56734 0
M  V30 4148 H 392.282 -0.603354 1.73297 0
M  V30 4149 H 390.664 -3.14105 2.41152 0
M  V30 4150 H 391.838 -1.14913 4.46242 0
M  V30 4151 H 390.153 -1.19085 3.99008 0
M  V30 4152 H 392.75 -3.94585 3.60842 0
M  V30 4153 H 393.093 -3.69686 1.91411 0
M  V30 4154 H 393.626 -2.48595 3.10556 0
M  V30 4155 H 390.365 -2.39504 6.10179 0
M  V30 4156 H 389.885 -3.54839 4.8358 0
M  V30 4157 H 391.564 -3.51881 5.42945 0
M  V30 4158 N 391.696 -1.35014 -0.812953 0
M  V30 4159 C 392.936 -1.29289 -1.58315 0
M  V30 4160 C 393.3 0.132727 -1.91541 0
M  V30 4161 O 394.501 0.314269 -2.66957 0
M  V30 4162 C 392.772 -2.1681 -2.84127 0
M  V30 4163 S 394.331 -2.28538 -3.74588 0
M  V30 4164 H 391.149 -0.459569 -0.542511 0
M  V30 4165 H 393.751 -1.70336 -0.959467 0
M  V30 4166 H 392.455 -3.19379 -2.57731 0
M  V30 4167 H 391.986 -1.76697 -3.51485 0
M  V30 4168 H 394.001 -1.4655 -4.74065 0
M  V30 4169 N 393.175 1.03435 -1.18907 0
M  V30 4170 C 394.591 1.28973 -0.940111 0
M  V30 4171 C 394.791 1.97676 0.390691 0
M  V30 4172 O 393.847 2.26127 1.12352 0
M  V30 4173 C 395.16 2.14221 -2.11021 0
M  V30 4174 C 396.708 2.27547 -2.14922 0
M  V30 4175 C 397.183 3.16164 -3.31367 0
M  V30 4176 N 398.674 3.23752 -3.31269 0
M  V30 4177 C 399.409 3.92495 -4.18014 0
M  V30 4178 N 398.905 4.63515 -5.14904 0
M  V30 4179 N 400.698 3.88838 -4.05908 0
M  V30 4180 H 392.849 0.57252 -2.04538 0
M  V30 4181 H 395.112 0.315184 -0.894071 0
M  V30 4182 H 394.818 1.71054 -3.073 0
M  V30 4183 H 394.692 3.14919 -2.0762 0
M  V30 4184 H 397.079 2.69947 -1.19217 0
M  V30 4185 H 397.16 1.26418 -2.22378 0
M  V30 4186 H 396.804 2.74474 -4.27348 0
M  V30 4187 H 396.734 4.17339 -3.21148 0
M  V30 4188 H 399.225 2.73167 -2.61129 0
M  V30 4189 H 399.538 5.13583 -5.77453 0
M  V30 4190 H 397.883 4.62398 -5.18857 0
M  V30 4191 H 401.074 3.32491 -3.29495 0
M  V30 4192 H 401.247 4.4214 -4.73726 0
M  V30 4193 N 394.653 0.992116 1.22453 0
M  V30 4194 C 395.899 0.668523 1.91464 0
M  V30 4195 C 396.232 -0.797313 1.77078 0
M  V30 4196 O 395.507 -1.5765 1.13916 0
M  V30 4197 C 395.79 1.07424 3.43703 0
M  V30 4198 C 395.643 2.59857 3.67143 0
M  V30 4199 C 396.962 0.626891 4.35612 0
M  V30 4200 H 394.081 0.244341 0.695318 0
M  V30 4201 H 396.723 1.2355 1.44345 0
M  V30 4202 H 394.873 0.591816 3.83966 0
M  V30 4203 H 396.545 3.15764 3.3629 0
M  V30 4204 H 394.788 3.01961 3.11451 0
M  V30 4205 H 395.459 2.83296 4.73759 0
M  V30 4206 H 397.935 1.04125 4.02861 0
M  V30 4207 H 396.811 0.939076 5.40807 0
M  V30 4208 H 397.072 -0.472457 4.39568 0
M  V30 4209 N 396.131 -1.37776 0.765217 0
M  V30 4210 C 397.041 -2.34135 0.147666 0
M  V30 4211 C 398.057 -1.59854 -0.687215 0
M  V30 4212 O 399.233 -1.91983 -0.608659 0
M  V30 4213 C 396.298 -3.3901 -0.72617 0
M  V30 4214 C 395.359 -4.2912 0.124417 0
M  V30 4215 C 394.592 -5.28986 -0.707807 0
M  V30 4216 O 394.815 -5.36205 -1.94525 0
M  V30 4217 O 393.749 -6.01779 -0.12046 0
M  V30 4218 H 397.575 -2.88664 0.943758 0
M  V30 4219 H 395.16 -1.39824 0.526277 0
M  V30 4220 H 397.042 -4.03195 -1.22524 0
M  V30 4221 H 395.717 -2.86819 -1.50056 0
M  V30 4222 H 394.624 -3.68057 0.669696 0
M  V30 4223 H 395.957 -4.84598 0.861736 0
M  V30 4224 N 397.609 -0.515225 -1.4894 0
M  V30 4225 C 398.837 0.0206034 -2.0689 0
M  V30 4226 C 399.252 1.29514 -1.37374 0
M  V30 4227 O 398.609 1.76698 -0.456529 0
M  V30 4228 C 398.66 0.26351 -3.60538 0
M  V30 4229 O 398.381 -0.960517 -4.27441 0
M  V30 4230 C 399.882 0.841383 -4.35242 0
M  V30 4231 H 397.102 -0.0268608 -0.670462 0
M  V30 4232 H 399.646 -0.716651 -1.91532 0
M  V30 4233 H 397.801 0.950777 -3.75552 0
M  V30 4234 H 398.215 -0.73212 -5.19365 0
M  V30 4235 H 399.689 0.96085 -5.43573 0
M  V30 4236 H 400.166 1.8427 -3.98674 0
M  V30 4237 H 400.772 0.191143 -4.2487 0
M  V30 4238 N 399.087 1.5561 -0.249682 0
M  V30 4239 C 399.997 2.25143 0.659375 0
M  V30 4240 C 401.013 1.2685 1.19101 0
M  V30 4241 O 402.189 1.59732 1.22669 0
M  V30 4242 C 399.254 2.93945 1.8384 0
M  V30 4243 C 398.315 4.07655 1.34596 0
M  V30 4244 C 397.548 4.73167 2.46878 0
M  V30 4245 O 397.771 4.37768 3.65671 0
M  V30 4246 O 396.705 5.61623 2.16478 0
M  V30 4247 H 400.531 3.03545 0.0968698 0
M  V30 4248 H 398.116 1.49389 -0.018074 0
M  V30 4249 H 399.998 3.37271 2.52638 0
M  V30 4250 H 398.673 2.18481 2.38847 0
M  V30 4251 H 397.58 3.68839 0.625174 0
M  V30 4252 H 398.913 4.84946 0.841941 0
M  V30 4253 N 400.565 -0.0233959 1.57583 0
M  V30 4254 C 401.795 -0.723631 1.93513 0
M  V30 4255 C 402.203 -1.69115 0.848333 0
M  V30 4256 O 401.546 -1.82781 -0.183484 0
M  V30 4257 C 401.608 -1.53075 3.25282 0
M  V30 4258 C 401.272 -0.727388 4.51174 0
M  V30 4259 C 402.269 -0.0251924 5.19894 0
M  V30 4260 C 399.954 -0.680256 4.97672 0
M  V30 4261 C 401.948 0.713374 6.33395 0
M  V30 4262 C 399.635 0.0620523 6.11068 0
M  V30 4263 C 400.633 0.757622 6.78785 0
M  V30 4264 O 400.321 1.48787 7.90011 0
M  V30 4265 H 400.053 -0.208051 0.643188 0
M  V30 4266 H 402.607 0.0167489 2.05393 0
M  V30 4267 H 400.837 -2.31508 3.09744 0
M  V30 4268 H 402.526 -2.11413 3.46496 0
M  V30 4269 H 403.292 -0.0526003 4.84971 0
M  V30 4270 H 399.171 -1.21116 4.44805 0
M  V30 4271 H 402.715 1.25683 6.86185 0
M  V30 4272 H 398.612 0.0913634 6.45435 0
M  V30 4273 H 399.38 1.40213 8.06401 0
M  V30 4274 N 402.043 -1.548 -0.295768 0
M  V30 4275 C 403.268 -1.78653 -1.05346 0
M  V30 4276 C 403.693 -0.546894 -1.79974 0
M  V30 4277 O 403.051 0.502763 -1.7419 0
M  V30 4278 C 403.099 -2.99679 -2.00561 0
M  V30 4279 O 402.203 -2.7317 -3.08953 0
M  V30 4280 H 401.544 -0.59116 -0.302367 0
M  V30 4281 H 404.074 -2.01895 -0.331598 0
M  V30 4282 H 404.084 -3.27793 -2.42932 0
M  V30 4283 H 402.759 -3.89562 -1.4565 0
M  V30 4284 H 401.336 -2.56089 -2.71059 0
M  V30 4285 N 403.521 0.559213 -1.47345 0
M  V30 4286 C 404.768 1.31648 -1.53867 0
M  V30 4287 C 405.096 1.93468 -0.200104 0
M  V30 4288 O 404.351 1.78295 0.806799 0
M  V30 4289 C 404.65 2.44853 -2.6035 0
M  V30 4290 C 404.316 2.00876 -4.03683 0
M  V30 4291 C 402.978 1.88599 -4.42701 0
M  V30 4292 C 405.33 1.67279 -4.93626 0
M  V30 4293 C 402.658 1.41017 -5.69501 0
M  V30 4294 C 405.01 1.21169 -6.20887 0
M  V30 4295 C 403.674 1.07487 -6.58789 0
M  V30 4296 H 402.944 0.481734 -0.56304 0
M  V30 4297 H 405.591 0.627301 -1.80934 0
M  V30 4298 H 403.896 3.19318 -2.27032 0
M  V30 4299 H 405.593 3.03039 -2.62619 0
M  V30 4300 H 402.183 2.11374 -3.72853 0
M  V30 4301 H 406.367 1.75638 -4.64182 0
M  V30 4302 H 401.623 1.29086 -5.97618 0
M  V30 4303 H 405.797 0.942345 -6.89995 0
M  V30 4304 H 403.424 0.703946 -7.56934 0
M  V30 4305 N 404.999 1.35443 0.805782 0
M  V30 4306 C 405.929 1.31095 1.93226 0
M  V30 4307 C 406.91 0.185244 1.69088 0
M  V30 4308 O 408.095 0.380332 1.90439 0
M  V30 4309 C 405.225 1.08299 3.29983 0
M  V30 4310 C 404.179 2.17519 3.68605 0
M  V30 4311 C 403.505 1.79887 5.03532 0
M  V30 4312 C 404.805 3.5949 3.78898 0
M  V30 4313 H 406.499 2.25352 1.97122 0
M  V30 4314 H 404.045 1.0848 0.946996 0
M  V30 4315 H 405.998 1.03897 4.08391 0
M  V30 4316 H 404.722 0.104885 3.26432 0
M  V30 4317 H 403.381 2.2102 2.92482 0
M  V30 4318 H 403.029 0.80693 4.96485 0
M  V30 4319 H 402.729 2.53001 5.30344 0
M  V30 4320 H 404.253 1.77011 5.84379 0
M  V30 4321 H 405.667 3.58307 4.47536 0
M  V30 4322 H 404.064 4.31371 4.1718 0
M  V30 4323 H 405.134 3.95584 2.80431 0
M  V30 4324 N 406.477 -1.02803 1.19454 0
M  V30 4325 C 407.754 -1.73299 0.907013 0
M  V30 4326 C 408.134 -2.02772 -0.587086 0
M  V30 4327 O 407.482 -1.68304 -1.54551 0
M  V30 4328 C 407.692 -3.00912 1.76785 0
M  V30 4329 C 409.04 -3.74403 2.00268 0
M  V30 4330 O 410.064 -3.10841 1.73943 0
M  V30 4331 O 408.923 -4.88675 2.4466 0
M  V30 4332 H 406.017 -0.754727 0.338106 0
M  V30 4333 H 408.563 -1.08754 1.30271 0
M  V30 4334 H 407.335 -2.75366 2.7801 0
M  V30 4335 H 406.958 -3.73197 1.37149 0
M  V30 4336 N 407.956 -0.998596 -1.21925 0
M  V30 4337 C 409.186 -0.695276 -1.94549 0
M  V30 4338 C 409.594 0.745079 -1.73911 0
M  V30 4339 O 408.937 1.51507 -1.03881 0
M  V30 4340 C 408.999 -0.928485 -3.47303 0
M  V30 4341 C 408.663 -2.35443 -3.91683 0
M  V30 4342 C 409.66 -3.33428 -3.98901 0
M  V30 4343 C 407.345 -2.69038 -4.24174 0
M  V30 4344 C 409.339 -4.63079 -4.37992 0
M  V30 4345 C 407.026 -3.98906 -4.62944 0
M  V30 4346 C 408.024 -4.95738 -4.69822 0
M  V30 4347 O 407.712 -6.23285 -5.07711 0
M  V30 4348 H 407.444 -0.255902 -0.625692 0
M  V30 4349 H 409.998 -1.33767 -1.5587 0
M  V30 4350 H 408.228 -0.228917 -3.86022 0
M  V30 4351 H 409.917 -0.619539 -4.01144 0
M  V30 4352 H 410.683 -3.08807 -3.73983 0
M  V30 4353 H 406.562 -1.94367 -4.18022 0
M  V30 4354 H 410.106 -5.38658 -4.43275 0
M  V30 4355 H 406.003 -4.23314 -4.87314 0
M  V30 4356 H 406.771 -6.27306 -5.25766 0
M  V30 4357 N 409.434 1.37368 -0.772513 0
M  V30 4358 C 410.68 1.99969 -0.337681 0
M  V30 4359 C 411.013 1.61184 1.08321 0
M  V30 4360 O 410.288 0.858395 1.74533 0
M  V30 4361 C 410.571 3.56858 -0.482121 0
M  V30 4362 C 410.424 4.0555 -1.94549 0
M  V30 4363 C 411.743 4.39955 0.113143 0
M  V30 4364 H 408.862 0.726464 -0.124171 0
M  V30 4365 H 411.504 1.63034 -0.975699 0
M  V30 4366 H 409.654 3.88452 0.0610361 0
M  V30 4367 H 411.326 3.84518 -2.54841 0
M  V30 4368 H 409.569 3.57715 -2.45403 0
M  V30 4369 H 410.24 5.14587 -1.9976 0
M  V30 4370 H 412.716 4.14623 -0.35031 0
M  V30 4371 H 411.592 5.48897 -0.0180514 0
M  V30 4372 H 411.853 4.25403 1.20354 0
M  V30 4373 N 410.912 0.523116 1.48665 0
M  V30 4374 C 411.845 -0.290518 2.26343 0
M  V30 4375 C 412.823 -0.950913 1.31895 0
M  V30 4376 O 414.007 -0.976662 1.61225 0
M  V30 4377 C 411.134 -1.41088 3.07915 0
M  V30 4378 C 410.18 -0.862597 4.17686 0
M  V30 4379 S 411.013 0.264135 5.34848 0
M  V30 4380 C 412.169 -0.858864 6.19979 0
M  V30 4381 H 412.402 0.368726 2.95005 0
M  V30 4382 H 409.935 0.30878 1.51281 0
M  V30 4383 H 411.893 -2.0527 3.55492 0
M  V30 4384 H 410.554 -2.04182 2.38681 0
M  V30 4385 H 409.747 -1.70287 4.74361 0
M  V30 4386 H 409.349 -0.297595 3.72814 0
M  V30 4387 H 411.641 -1.7591 6.54264 0
M  V30 4388 H 412.584 -0.330244 7.07329 0
M  V30 4389 H 412.992 -1.13617 5.52948 0
M  V30 4390 N 412.39 -1.55475 0.257931 0
M  V30 4391 C 413.638 -1.98813 -0.363009 0
M  V30 4392 C 413.959 -1.14757 -1.57657 0
M  V30 4393 O 413.229 -0.232956 -1.9451 0
M  V30 4394 H 411.809 -0.734308 -0.137113 0
M  V30 4395 H 414.471 -1.9156 0.359281 0
M  V30 4396 H 413.567 -3.04941 -0.664634 0
M  V30 4397 N 413.868 0.0150385 -1.57593 0
M  V30 4398 C 415.116 0.701613 -1.8953 0
M  V30 4399 C 415.437 1.75139 -0.857396 0
M  V30 4400 O 414.707 1.95607 0.107194 0
M  V30 4401 H 413.287 0.26213 -0.699498 0
M  V30 4402 H 415.949 -0.0223304 -1.94887 0
M  V30 4403 H 415.045 1.18236 -2.88837 0
M  V30 4404 N 415.346 1.54954 0.287554 0
M  V30 4405 C 416.586 1.76617 1.02887 0
M  V30 4406 C 416.95 0.547759 1.84021 0
M  V30 4407 O 418.151 0.642365 2.61012 0
M  V30 4408 C 416.422 3.02717 1.89993 0
M  V30 4409 S 417.981 3.45438 2.70588 0
M  V30 4410 H 414.799 0.6207 0.346775 0
M  V30 4411 H 417.401 1.93172 0.30082 0
M  V30 4412 H 416.105 3.89503 1.29287 0
M  V30 4413 H 415.636 2.88787 2.67144 0
M  V30 4414 H 417.651 3.03566 3.92508 0
M  V30 4415 N 416.824 -0.551391 1.4764 0
M  V30 4416 C 417.756 -1.67333 1.56628 0
M  V30 4417 C 418.769 -1.56398 0.452045 0
M  V30 4418 O 419.958 -1.6325 0.721926 0
M  V30 4419 C 417.058 -3.05841 1.45994 0
M  V30 4420 C 416.231 -3.42472 2.72088 0
M  V30 4421 C 415.29 -4.60168 2.55209 0
M  V30 4422 O 414.316 -4.64458 3.2904 0
M  V30 4423 N 415.518 -5.57024 1.63416 0
M  V30 4424 H 418.283 -1.60066 2.53375 0
M  V30 4425 H 415.844 -0.738169 1.44093 0
M  V30 4426 H 417.836 -3.8242 1.32428 0
M  V30 4427 H 416.406 -3.07302 0.573071 0
M  V30 4428 H 415.626 -2.55284 3.00373 0
M  V30 4429 H 416.914 -3.63723 3.55785 0
M  V30 4430 H 416.312 -5.56319 1.02594 0
M  V30 4431 H 414.869 -6.32906 1.558 0
M  V30 4432 N 418.302 -1.35869 -0.798587 0
M  V30 4433 C 419.551 -1.28921 -1.5512 0
M  V30 4434 C 419.864 0.13208 -1.95154 0
M  V30 4435 O 421.07 0.323879 -2.69561 0
M  V30 4436 C 419.526 -2.26141 -2.79979 0
M  V30 4437 C 419.134 -3.73658 -2.47151 0
M  V30 4438 C 420.878 -2.28152 -3.57976 0
M  V30 4439 C 418.785 -4.62679 -3.6835 0
M  V30 4440 H 417.715 -0.479031 -0.582276 0
M  V30 4441 H 420.366 -1.61179 -0.877125 0
M  V30 4442 H 418.748 -1.86865 -3.49138 0
M  V30 4443 H 419.922 -4.21616 -1.85947 0
M  V30 4444 H 418.237 -3.74333 -1.82383 0
M  V30 4445 H 420.834 -2.91875 -4.4801 0
M  V30 4446 H 421.177 -1.28748 -3.95891 0
M  V30 4447 H 421.71 -2.65998 -2.95787 0
M  V30 4448 H 418.449 -5.63111 -3.35538 0
M  V30 4449 H 417.969 -4.19442 -4.28752 0
M  V30 4450 H 419.648 -4.78498 -4.35487 0
M  V30 4451 N 419.78 1.02168 -1.19998 0
M  V30 4452 C 420.728 2.12717 -0.940967 0
M  V30 4453 C 421.722 1.69069 0.105841 0
M  V30 4454 O 422.928 1.79946 -0.0440583 0
M  V30 4455 H 419.303 0.695108 -0.28693 0
M  V30 4456 H 421.274 2.3175 -1.87975 0
M  V30 4457 C 420.023 3.44027 -0.504049 0
M  V30 4458 H 419.346 3.78036 -1.30112 0
M  V30 4459 H 420.786 4.22452 -0.361991 0
M  V30 4460 C 419.245 3.27678 0.782878 0
M  V30 4461 O 419.775 3.56949 1.84256 0
M  V30 4462 N 417.981 2.80943 0.742921 0
M  V30 4463 H 417.528 2.57322 -0.119687 0
M  V30 4464 H 417.486 2.70385 1.60435 0
M  V30 4465 N 421.258 1.00505 1.21394 0
M  V30 4466 C 422.505 0.687774 1.90462 0
M  V30 4467 C 422.833 -0.78147 1.7811 0
M  V30 4468 O 422.088 -1.58208 1.1519 0
M  V30 4469 C 422.387 1.0546 3.41486 0
M  V30 4470 C 422.053 2.51812 3.74034 0
M  V30 4471 C 420.715 2.91804 3.82628 0
M  V30 4472 C 423.067 3.46614 3.8924 0
M  V30 4473 C 420.395 4.2556 4.03876 0
M  V30 4474 C 422.747 4.80044 4.11995 0
M  V30 4475 C 421.411 5.19759 4.18816 0
M  V30 4476 H 420.681 0.251674 0.696951 0
M  V30 4477 H 423.328 1.26349 1.43903 0
M  V30 4478 H 421.633 0.397133 3.89782 0
M  V30 4479 H 423.33 0.786976 3.93202 0
M  V30 4480 H 419.92 2.1982 3.67936 0
M  V30 4481 H 424.104 3.16883 3.81967 0
M  V30 4482 H 419.36 4.55901 4.07387 0
M  V30 4483 H 423.534 5.53439 4.22704 0
M  V30 4484 H 421.161 6.23418 4.35033 0
M  V30 4485 N 422.737 -1.36956 0.779787 0
M  V30 4486 C 423.965 -2.03755 0.359398 0
M  V30 4487 C 424.38 -1.58807 -1.02106 0
M  V30 4488 O 423.737 -0.773024 -1.6532 0
M  V30 4489 C 423.788 -3.59251 0.402568 0
M  V30 4490 O 423.509 -4.02557 1.72858 0
M  V30 4491 C 425.01 -4.43291 -0.0284068 0
M  V30 4492 H 422.23 -0.654148 0.149437 0
M  V30 4493 H 424.774 -1.75128 1.05595 0
M  V30 4494 H 422.929 -3.86621 -0.245478 0
M  V30 4495 H 423.343 -4.97111 1.67275 0
M  V30 4496 H 424.817 -5.51975 0.0529466 0
M  V30 4497 H 425.294 -4.25719 -1.07982 0
M  V30 4498 H 425.9 -4.21163 0.591758 0
M  V30 4499 N 424.215 -0.530993 -1.48385 0
M  V30 4500 C 425.461 0.00274135 -2.028 0
M  V30 4501 C 425.794 1.33838 -1.40716 0
M  V30 4502 O 425.069 1.86465 -0.553277 0
M  V30 4503 C 425.352 0.123676 -3.59888 0
M  V30 4504 C 425.205 -1.2372 -4.3245 0
M  V30 4505 C 426.524 0.849967 -4.31814 0
M  V30 4506 H 423.643 -0.000477758 -0.737 0
M  V30 4507 H 426.285 -0.688217 -1.77098 0
M  V30 4508 H 424.435 0.712157 -3.81917 0
M  V30 4509 H 426.107 -1.86687 -4.21836 0
M  V30 4510 H 424.35 -1.81882 -3.93829 0
M  V30 4511 H 425.021 -1.10557 -5.40815 0
M  V30 4512 H 427.497 0.350572 -4.14621 0
M  V30 4513 H 426.373 0.903486 -5.41413 0
M  V30 4514 H 426.634 1.90047 -3.99167 0
M  V30 4515 N 425.693 1.55336 -0.266172 0
M  V30 4516 C 426.941 1.99003 0.35246 0
M  V30 4517 C 427.262 1.15591 1.57047 0
M  V30 4518 O 426.532 0.243268 1.94384 0
M  V30 4519 H 425.112 0.735025 0.133217 0
M  V30 4520 H 427.774 1.91367 -0.369434 0
M  V30 4521 H 426.87 3.05289 0.648453 0
M  V30 4522 N 427.171 -0.0066808 1.57599 0
M  V30 4523 C 428.417 -0.693947 1.90558 0
M  V30 4524 C 428.75 -1.73792 0.866594 0
M  V30 4525 O 428.025 -1.94156 -0.115548 0
M  V30 4526 C 428.308 -1.34317 3.34112 0
M  V30 4527 C 428.161 -0.311189 4.48722 0
M  V30 4528 C 429.48 -2.27116 3.7697 0
M  V30 4529 H 426.599 -0.250803 0.693013 0
M  V30 4530 H 429.241 0.043242 1.89951 0
M  V30 4531 H 427.391 -1.9715 3.3476 0
M  V30 4532 H 429.063 0.316944 4.6021 0
M  V30 4533 H 427.306 0.367253 4.32243 0
M  V30 4534 H 427.977 -0.804366 5.46108 0
M  V30 4535 H 430.453 -1.74306 3.77831 0
M  V30 4536 H 429.329 -2.69511 4.78179 0
M  V30 4537 H 429.59 -3.14743 3.10466 0
M  V30 4538 N 428.649 -1.55105 -0.279332 0
M  V30 4539 C 429.926 -1.66119 -1.03267 0
M  V30 4540 C 430.306 -0.523525 -2.04505 0
M  V30 4541 O 429.654 0.477194 -2.23462 0
M  V30 4542 C 429.864 -3.05067 -1.69515 0
M  V30 4543 C 431.212 -3.62606 -2.20912 0
M  V30 4544 O 432.236 -3.07659 -1.79512 0
M  V30 4545 O 431.095 -4.58861 -2.96831 0
M  V30 4546 H 428.189 -0.674429 -0.478618 0
M  V30 4547 H 430.735 -1.67446 -0.275694 0
M  V30 4548 H 429.507 -3.79311 -0.9612 0
M  V30 4549 H 429.13 -3.07611 -2.51915 0
M  V30 4550 N 430.127 0.543554 -1.4793 0
M  V30 4551 C 431.374 1.30008 -1.55255 0
M  V30 4552 C 431.702 1.93245 -0.220612 0
M  V30 4553 O 430.957 1.79141 0.787843 0
M  V30 4554 C 431.256 2.42078 -2.62932 0
M  V30 4555 C 430.922 1.96583 -4.0579 0
M  V30 4556 C 429.584 1.83893 -4.44676 0
M  V30 4557 C 431.936 1.62034 -4.95373 0
M  V30 4558 C 429.264 1.34969 -5.70964 0
M  V30 4559 C 431.616 1.14577 -6.22137 0
M  V30 4560 C 430.28 1.00493 -6.59892 0
M  V30 4561 H 429.55 0.475735 -0.568117 0
M  V30 4562 H 432.197 0.608075 -1.81589 0
M  V30 4563 H 430.502 3.16892 -2.30406 0
M  V30 4564 H 432.199 3.00236 -2.65818 0
M  V30 4565 H 428.789 2.07407 -3.75074 0
M  V30 4566 H 432.973 1.70705 -4.66019 0
M  V30 4567 H 428.229 1.2274 -5.98953 0
M  V30 4568 H 432.403 0.869109 -6.90955 0
M  V30 4569 H 430.03 0.623624 -7.57638 0
M  V30 4570 N 431.605 1.3629 0.791371 0
M  V30 4571 C 432.833 1.33562 1.58016 0
M  V30 4572 C 433.248 -0.0835616 1.88615 0
M  V30 4573 O 432.605 -1.0399 1.49974 0
M  V30 4574 C 432.656 2.15517 2.90232 0
M  V30 4575 O 432.377 3.51902 2.60953 0
M  V30 4576 C 433.878 2.20546 3.84544 0
M  V30 4577 H 431.098 0.458226 0.490173 0
M  V30 4578 H 433.642 1.79361 0.982345 0
M  V30 4579 H 431.797 1.73278 3.46487 0
M  V30 4580 H 432.211 3.94644 3.4548 0
M  V30 4581 H 433.685 2.82252 4.74382 0
M  V30 4582 H 434.162 1.20838 4.2225 0
M  V30 4583 H 434.768 2.63013 3.34222 0
M  V30 4584 N 433.083 -1.0153 1.20538 0
M  V30 4585 C 434.331 -1.74803 1.01432 0
M  V30 4586 C 434.652 -1.8963 -0.454456 0
M  V30 4587 O 433.922 -1.43975 -1.32846 0
M  V30 4588 H 432.502 -0.647598 0.372324 0
M  V30 4589 H 435.164 -1.22402 1.5167 0
M  V30 4590 H 434.26 -2.75114 1.47373 0
M  V30 4591 N 434.561 -1.01147 -1.20859 0
M  V30 4592 C 435.786 -0.716698 -1.94623 0
M  V30 4593 C 436.211 0.715415 -1.73964 0
M  V30 4594 O 435.569 1.49157 -1.03062 0
M  V30 4595 C 435.617 -1.0513 -3.44935 0
M  V30 4596 O 434.721 -0.160131 -4.12089 0
M  V30 4597 H 434.062 -0.266404 -0.608214 0
M  V30 4598 H 436.592 -1.35346 -1.53436 0
M  V30 4599 H 436.602 -1.00086 -3.95533 0
M  V30 4600 H 435.277 -2.09475 -3.59295 0
M  V30 4601 H 433.854 -0.267657 -3.71938 0
M  V30 4602 N 436.039 1.36541 -0.78704 0
M  V30 4603 C 436.987 2.31965 -0.171724 0
M  V30 4604 C 437.981 1.55689 0.667631 0
M  V30 4605 O 439.187 1.70969 0.562981 0
M  V30 4606 H 435.562 0.751101 -0.0367545 0
M  V30 4607 H 437.533 2.81428 -0.992017 0
M  V30 4608 C 436.282 3.40968 0.680904 0
M  V30 4609 H 435.605 3.99775 0.0443961 0
M  V30 4610 H 437.045 4.10063 1.07815 0
M  V30 4611 C 435.504 2.82338 1.83813 0
M  V30 4612 O 436.034 2.74311 2.93456 0
M  V30 4613 N 434.24 2.39661 1.6435 0
M  V30 4614 H 433.787 2.46389 0.751668 0
M  V30 4615 H 433.745 2.00779 2.4194 0
M  V30 4616 N 437.518 0.538854 1.48102 0
M  V30 4617 C 438.766 0.00798599 2.02098 0
M  V30 4618 C 439.087 -1.33922 1.41739 0
M  V30 4619 O 438.357 -1.86932 0.585934 0
M  V30 4620 H 436.937 -3.62179e-05 0.747 0
M  V30 4621 H 439.599 0.7047 1.81714 0
M  V30 4622 H 438.695 -0.0937672 3.11959 0
M  V30 4623 N 438.996 -1.55193 0.274407 0
M  V30 4624 C 440.273 -1.91584 -0.394331 0
M  V30 4625 C 440.653 -1.19858 -1.73774 0
M  V30 4626 O 440.001 -0.3252 -2.26174 0
M  V30 4627 C 440.211 -3.4487 -0.535311 0
M  V30 4628 C 441.559 -4.16636 -0.818534 0
M  V30 4629 O 442.583 -3.5076 -0.620146 0
M  V30 4630 O 441.442 -5.33209 -1.19792 0
M  V30 4631 H 438.536 -0.798349 -0.215794 0
M  V30 4632 H 441.082 -1.66646 0.320507 0
M  V30 4633 H 439.854 -3.89145 0.410141 0
M  V30 4634 H 439.477 -3.75759 -1.29964 0
M  V30 4635 N 440.474 -0.00167713 -1.576 0
M  V30 4636 C 441.885 0.54091 -1.78693 0
M  V30 4637 C 442.236 1.7386 -0.909247 0
M  V30 4638 O 441.361 2.16109 -0.112176 0
M  V30 4639 C 441.956 0.98806 -3.24072 0
M  V30 4640 C 440.515 1.47594 -3.46256 0
M  V30 4641 C 439.662 0.42792 -2.73978 0
M  V30 4642 H 442.613 -0.22784 -1.57056 0
M  V30 4643 H 442.634 1.85398 -3.32277 0
M  V30 4644 H 442.146 0.116164 -3.87926 0
M  V30 4645 H 440.247 2.36868 -2.87618 0
M  V30 4646 H 440.36 1.50225 -4.54939 0
M  V30 4647 H 438.724 0.889934 -2.38647 0
M  V30 4648 H 439.507 -0.435038 -3.40532 0
M  V30 4649 N 441.952 1.55251 0.271103 0
M  V30 4650 C 443.177 1.80306 1.02491 0
M  V30 4651 C 443.602 0.575457 1.79081 0
M  V30 4652 O 442.96 -0.474987 1.74967 0
M  V30 4653 C 443.008 3.02832 1.95768 0
M  V30 4654 O 442.112 2.78051 3.04568 0
M  V30 4655 H 441.453 0.595896 0.292923 0
M  V30 4656 H 443.983 2.02397 0.299436 0
M  V30 4657 H 443.993 3.31616 2.37686 0
M  V30 4658 H 442.668 3.9183 1.39434 0
M  V30 4659 H 441.245 2.60369 2.66951 0
M  V30 4660 N 443.43 -0.535701 1.48216 0
M  V30 4661 C 444.655 -1.32149 1.59848 0
M  V30 4662 C 445.08 -1.86338 0.256842 0
M  V30 4663 O 444.438 -1.64107 -0.770632 0
M  V30 4664 C 444.486 -2.45224 2.64381 0
M  V30 4665 O 443.59 -3.48093 2.21144 0
M  V30 4666 H 442.931 -0.391634 0.536208 0
M  V30 4667 H 445.461 -0.645202 1.94161 0
M  V30 4668 H 445.471 -2.91491 2.85476 0
M  V30 4669 H 444.146 -2.05143 3.61786 0
M  V30 4670 H 442.723 -3.07984 2.10239 0
M  V30 4671 N 444.908 -1.36708 -0.784132 0
M  V30 4672 C 446.319 -1.27947 -1.35965 0
M  V30 4673 C 446.67 0.0784013 -1.96043 0
M  V30 4674 O 445.795 0.979989 -1.92938 0
M  V30 4675 C 446.39 -2.31689 -2.47195 0
M  V30 4676 C 444.949 -2.26601 -3.00548 0
M  V30 4677 C 444.096 -2.16184 -1.73666 0
M  V30 4678 H 447.047 -1.4751 -0.585358 0
M  V30 4679 H 447.068 -1.95638 -3.26352 0
M  V30 4680 H 446.58 -3.30506 -2.03439 0
M  V30 4681 H 444.681 -1.31268 -3.48711 0
M  V30 4682 H 444.794 -3.19508 -3.57004 0
M  V30 4683 H 443.158 -1.62524 -1.96107 0
M  V30 4684 H 443.941 -3.16896 -1.32031 0
M  V30 4685 N 446.386 1.0089 -1.21074 0
M  V30 4686 C 447.663 1.71834 -0.934469 0
M  V30 4687 C 448.043 2.0368 0.554753 0
M  V30 4688 O 447.391 1.70742 1.51854 0
M  V30 4689 C 447.601 2.98061 -1.8155 0
M  V30 4690 C 448.949 3.7117 -2.06199 0
M  V30 4691 O 449.973 3.08034 -1.78867 0
M  V30 4692 O 448.832 4.84721 -2.52404 0
M  V30 4693 H 445.926 0.749253 -0.35007 0
M  V30 4694 H 448.472 1.06668 -1.31985 0
M  V30 4695 H 447.244 2.70908 -2.82355 0
M  V30 4696 H 446.867 3.70968 -1.43068 0
M  V30 4697 N 447.864 1.01787 1.20321 0
M  V30 4698 C 449.089 0.727009 1.9424 0
M  V30 4699 C 449.514 -0.706179 1.74341 0
M  V30 4700 O 448.872 -1.48609 1.03852 0
M  V30 4701 C 448.92 1.06958 3.44372 0
M  V30 4702 O 448.024 0.181983 4.11998 0
M  V30 4703 H 447.365 0.269626 0.606793 0
M  V30 4704 H 449.895 1.36158 1.52716 0
M  V30 4705 H 449.905 1.02182 3.94997 0
M  V30 4706 H 448.58 2.11378 3.58179 0
M  V30 4707 H 447.157 0.287378 3.71791 0
M  V30 4708 N 449.342 -1.36122 0.79427 0
M  V30 4709 C 450.272 -2.32551 0.210328 0
M  V30 4710 C 451.253 -1.56884 -0.657386 0
M  V30 4711 O 452.438 -1.85014 -0.590207 0
M  V30 4712 C 449.568 -3.41128 -0.651819 0
M  V30 4713 C 448.522 -4.27842 0.116395 0
M  V30 4714 C 447.848 -5.2763 -0.86666 0
M  V30 4715 C 449.148 -5.05647 1.30837 0
M  V30 4716 H 450.842 -2.81636 1.01594 0
M  V30 4717 H 448.388 -1.35407 0.489981 0
M  V30 4718 H 450.341 -4.07581 -1.07031 0
M  V30 4719 H 449.065 -2.90622 -1.49019 0
M  V30 4720 H 447.724 -3.62952 0.515915 0
M  V30 4721 H 447.372 -4.73395 -1.70019 0
M  V30 4722 H 447.072 -5.86514 -0.35705 0
M  V30 4723 H 448.596 -5.96955 -1.28361 0
M  V30 4724 H 450.01 -5.65113 0.965393 0
M  V30 4725 H 448.407 -5.73967 1.75161 0
M  V30 4726 H 449.477 -4.37006 2.10128 0
M  V30 4727 N 450.82 -0.546701 -1.47814 0
M  V30 4728 C 451.77 0.227042 -2.26867 0
M  V30 4729 C 452.754 0.894844 -1.33721 0
M  V30 4730 O 453.946 0.794887 -1.58147 0
M  V30 4731 C 451.075 1.26299 -3.19223 0
M  V30 4732 C 450.161 0.59913 -4.19847 0
M  V30 4733 N 450.552 -0.324777 -5.04756 0
M  V30 4734 C 448.85 0.854331 -4.37741 0
M  V30 4735 C 449.551 -0.709386 -5.77358 0
M  V30 4736 N 448.527 -0.0666153 -5.43559 0
M  V30 4737 H 452.329 -0.483476 -2.89896 0
M  V30 4738 H 449.843 -0.365893 -1.58224 0
M  V30 4739 H 451.84 1.83116 -3.74532 0
M  V30 4740 H 450.5 1.97471 -2.57751 0
M  V30 4741 H 451.511 -0.698351 -5.1317 0
M  V30 4742 H 448.188 1.55536 -3.87447 0
M  V30 4743 H 449.578 -1.46796 -6.55668 0
M  V30 4744 N 452.299 1.55045 -0.282633 0
M  V30 4745 C 453.529 2.03872 0.334635 0
M  V30 4746 C 453.937 1.16018 1.49454 0
M  V30 4747 O 453.28 0.174449 1.8287 0
M  V30 4748 C 453.342 3.48791 0.870905 0
M  V30 4749 C 453.006 4.56715 -0.161338 0
M  V30 4750 C 454.003 5.10513 -0.983466 0
M  V30 4751 C 451.688 5.01417 -0.297745 0
M  V30 4752 C 453.682 6.07538 -1.92811 0
M  V30 4753 C 451.369 5.98265 -1.24586 0
M  V30 4754 C 452.367 6.51208 -2.05954 0
M  V30 4755 O 452.055 7.46162 -2.99162 0
M  V30 4756 H 451.787 0.671324 0.0793742 0
M  V30 4757 H 454.341 2.01169 -0.41473 0
M  V30 4758 H 452.571 3.48758 1.67047 0
M  V30 4759 H 454.26 3.80916 1.40207 0
M  V30 4760 H 455.026 4.76785 -0.888856 0
M  V30 4761 H 450.905 4.59849 0.325604 0
M  V30 4762 H 454.449 6.48787 -2.56363 0
M  V30 4763 H 450.346 6.31412 -1.34126 0
M  V30 4764 H 451.114 7.63903 -2.93929 0
M  V30 4765 N 453.777 0.010035 1.57597 0
M  V30 4766 C 454.707 -0.976857 2.12084 0
M  V30 4767 C 455.688 -1.35191 1.03235 0
M  V30 4768 O 456.873 -1.43389 1.3097 0
M  V30 4769 C 454.003 -2.26548 2.63236 0
M  V30 4770 C 452.957 -2.03175 3.76701 0
M  V30 4771 C 452.283 -3.38138 4.14206 0
M  V30 4772 C 453.583 -1.38625 5.03568 0
M  V30 4773 H 455.277 -0.523145 2.94794 0
M  V30 4774 H 452.823 -0.250195 1.4181 0
M  V30 4775 H 454.776 -2.95952 2.99984 0
M  V30 4776 H 453.5 -2.74051 1.77661 0
M  V30 4777 H 452.159 -1.36195 3.40362 0
M  V30 4778 H 451.807 -3.83363 3.25641 0
M  V30 4779 H 451.507 -3.23312 4.90656 0
M  V30 4780 H 453.031 -4.08841 4.53521 0
M  V30 4781 H 454.445 -1.98 5.38023 0
M  V30 4782 H 452.842 -1.34256 5.84889 0
M  V30 4783 H 453.912 -0.356722 4.83586 0
M  V30 4784 N 455.255 -1.55392 -0.262866 0
M  V30 4785 C 456.48 -1.80847 -1.01533 0
M  V30 4786 C 456.905 -0.584946 -1.78774 0
M  V30 4787 O 456.263 0.465701 -1.75217 0
M  V30 4788 C 456.311 -3.03866 -1.94159 0
M  V30 4789 O 455.415 -2.79662 -3.03089 0
M  V30 4790 H 454.756 -0.597441 -0.289759 0
M  V30 4791 H 457.286 -2.02553 -0.288698 0
M  V30 4792 H 457.296 -3.32872 -2.35924 0
M  V30 4793 H 455.971 -3.92564 -1.37354 0
M  V30 4794 H 454.548 -2.61781 -2.65566 0
M  V30 4795 N 456.733 0.527833 -1.48498 0
M  V30 4796 C 458.144 1.10975 -1.50138 0
M  V30 4797 C 458.495 1.943 -0.272378 0
M  V30 4798 O 457.62 2.07319 0.620301 0
M  V30 4799 C 458.215 2.01927 -2.72049 0
M  V30 4800 C 456.774 2.55332 -2.76554 0
M  V30 4801 C 455.921 1.32341 -2.43683 0
M  V30 4802 H 458.872 0.312986 -1.55583 0
M  V30 4803 H 458.893 2.86244 -2.50689 0
M  V30 4804 H 458.405 1.41254 -3.61481 0
M  V30 4805 H 456.506 3.19721 -1.91336 0
M  V30 4806 H 456.619 2.94319 -3.78038 0
M  V30 4807 H 454.983 1.63989 -1.94884 0
M  V30 4808 H 455.766 0.734165 -3.35358 0
M  V30 4809 N 458.211 1.37122 0.776871 0
M  V30 4810 C 459.439 1.3523 1.5659 0
M  V30 4811 C 459.854 -0.0635518 1.88693 0
M  V30 4812 O 459.211 -1.02394 1.51069 0
M  V30 4813 C 459.262 2.18583 2.8793 0
M  V30 4814 O 458.983 3.5465 2.57206 0
M  V30 4815 C 460.484 2.24612 3.82183 0
M  V30 4816 H 457.704 0.4634 0.485285 0
M  V30 4817 H 460.248 1.80392 0.963266 0
M  V30 4818 H 458.403 1.76943 3.4463 0
M  V30 4819 H 458.817 3.98286 3.41275 0
M  V30 4820 H 460.291 2.87267 4.71361 0
M  V30 4821 H 460.768 1.25309 4.20944 0
M  V30 4822 H 461.374 2.66543 3.31414 0
M  V30 4823 N 459.689 -1.00246 1.21608 0
M  V30 4824 C 460.937 -1.73717 1.0328 0
M  V30 4825 C 461.258 -1.90102 -0.434318 0
M  V30 4826 O 460.528 -1.45376 -1.31311 0
M  V30 4827 H 459.108 -0.643613 0.379172 0
M  V30 4828 H 461.77 -1.20787 1.52959 0
M  V30 4829 H 460.866 -2.73535 1.50283 0
M  V30 4830 N 461.167 -1.02423 -1.1978 0
M  V30 4831 C 462.413 -0.719051 -1.89625 0
M  V30 4832 C 462.746 0.750083 -1.7913 0
M  V30 4833 O 462.021 1.54574 -1.18056 0
M  V30 4834 C 462.304 -1.16499 -3.40735 0
M  V30 4835 C 462.157 -2.695 -3.60125 0
M  V30 4836 C 463.476 -0.742166 -4.33797 0
M  V30 4837 H 460.595 -0.26269 -0.688595 0
M  V30 4838 H 463.237 -1.27333 -1.41018 0
M  V30 4839 H 461.387 -0.69341 -3.82262 0
M  V30 4840 H 463.059 -3.24569 -3.278 0
M  V30 4841 H 461.302 -3.10113 -3.03336 0
M  V30 4842 H 461.973 -2.95757 -4.66081 0
M  V30 4843 H 464.449 -1.1477 -3.99959 0
M  V30 4844 H 463.325 -1.08213 -5.38127 0
M  V30 4845 H 463.586 0.355747 -4.40666 0
M  V30 4846 N 462.645 1.35699 -0.801477 0
M  V30 4847 C 463.593 2.3177 -0.196317 0
M  V30 4848 C 464.587 1.56388 0.651081 0
M  V30 4849 O 465.793 1.71557 0.544815 0
M  V30 4850 H 462.168 0.750669 -0.0447189 0
M  V30 4851 H 464.139 2.8036 -1.02181 0
M  V30 4852 C 462.888 3.41671 0.644702 0
M  V30 4853 H 462.211 3.998 0.0019921 0
M  V30 4854 H 463.651 4.11184 1.0346 0
M  V30 4855 C 462.11 2.84271 1.80808 0
M  V30 4856 O 462.64 2.77408 2.9053 0
M  V30 4857 N 460.846 2.41391 1.61799 0
M  V30 4858 H 460.393 2.47173 0.725493 0
M  V30 4859 H 460.351 2.03334 2.39797 0
M  V30 4860 N 464.123 0.554532 1.47522 0
M  V30 4861 C 465.033 -0.197865 2.33764 0
M  V30 4862 C 466.049 -0.914576 1.48025 0
M  V30 4863 O 467.225 -0.884067 1.80959 0
M  V30 4864 C 464.29 -1.21628 3.24665 0
M  V30 4865 C 463.351 -0.507283 4.26292 0
M  V30 4866 C 462.584 -1.47718 5.1285 0
M  V30 4867 O 462.807 -2.7118 5.01814 0
M  V30 4868 O 461.741 -1.00313 5.93482 0
M  V30 4869 H 465.567 0.50949 2.99396 0
M  V30 4870 H 463.152 0.315176 1.46038 0
M  V30 4871 H 465.034 -1.80421 3.80823 0
M  V30 4872 H 463.709 -1.9056 2.61665 0
M  V30 4873 H 462.616 0.121778 3.73902 0
M  V30 4874 H 463.949 0.140544 4.91999 0
M  V30 4875 N 465.601 -1.54893 0.290851 0
M  V30 4876 C 466.831 -2.04047 -0.323818 0
M  V30 4877 C 467.239 -1.16809 -1.48837 0
M  V30 4878 O 466.582 -0.184145 -1.82775 0
M  V30 4879 C 466.644 -3.49248 -0.852395 0
M  V30 4880 C 466.308 -4.56623 0.185557 0
M  V30 4881 C 467.305 -5.09985 1.01053 0
M  V30 4882 C 464.99 -5.01252 0.324332 0
M  V30 4883 C 466.984 -6.06507 1.96031 0
M  V30 4884 C 464.671 -5.97596 1.27757 0
M  V30 4885 C 465.669 -6.50107 2.09405 0
M  V30 4886 O 465.357 -7.44565 3.03114 0
M  V30 4887 H 465.089 -0.671735 -0.0758129 0
M  V30 4888 H 467.643 -2.00947 0.425393 0
M  V30 4889 H 465.873 -3.49639 -1.65195 0
M  V30 4890 H 467.562 -3.81654 -1.38185 0
M  V30 4891 H 468.328 -4.76307 0.914129 0
M  V30 4892 H 464.207 -4.60015 -0.301213 0
M  V30 4893 H 467.751 -6.47418 2.598 0
M  V30 4894 H 463.648 -6.30691 1.37473 0
M  V30 4895 H 464.416 -7.62334 2.97976 0
M  V30 4896 N 467.08 -0.0183926 -1.57589 0
M  V30 4897 C 468.01 0.965596 -2.12599 0
M  V30 4898 C 468.991 1.34641 -1.0395 0
M  V30 4899 O 470.176 1.42693 -1.31729 0
M  V30 4900 C 467.306 2.25149 -2.64434 0
M  V30 4901 C 466.26 2.01175 -3.77773 0
M  V30 4902 C 465.586 3.35937 -4.15994 0
M  V30 4903 C 466.886 1.35953 -5.04296 0
M  V30 4904 H 468.58 0.507504 -2.95067 0
M  V30 4905 H 466.126 0.242671 -1.41941 0
M  V30 4906 H 468.079 2.94357 -3.01549 0
M  V30 4907 H 466.803 2.73105 -1.79112 0
M  V30 4908 H 465.462 1.34388 -3.4108 0
M  V30 4909 H 465.11 3.81631 -3.27669 0
M  V30 4910 H 464.81 3.20705 -4.92364 0
M  V30 4911 H 466.334 4.0643 -4.55683 0
M  V30 4912 H 467.748 1.95144 -5.39065 0
M  V30 4913 H 466.145 1.31152 -5.85593 0
M  V30 4914 H 467.215 0.331071 -4.83768 0
M  V30 4915 N 468.558 1.5553 0.254621 0
M  V30 4916 C 469.491 1.84624 1.34124 0
M  V30 4917 C 470.469 0.700693 1.46728 0
M  V30 4918 O 471.653 0.94564 1.63064 0
M  V30 4919 C 468.78 2.02412 2.71564 0
M  V30 4920 C 467.826 3.25028 2.7615 0
M  V30 4921 S 468.659 4.81893 2.33538 0
M  V30 4922 C 469.815 5.02677 3.72917 0
M  V30 4923 H 470.048 2.76501 1.09245 0
M  V30 4924 H 467.581 1.47537 0.455211 0
M  V30 4925 H 469.539 2.13345 3.50705 0
M  V30 4926 H 468.2 1.11391 2.93685 0
M  V30 4927 H 467.393 3.34418 3.77069 0
M  V30 4928 H 466.995 3.12781 2.05046 0
M  V30 4929 H 469.287 4.89546 4.68349 0
M  V30 4930 H 470.23 6.0468 3.68467 0
M  V30 4931 H 470.638 4.30561 3.65072 0
M  V30 4932 N 470.036 -0.519951 1.48776 0
M  V30 4933 C 470.999 -1.60574 1.6355 0
M  V30 4934 C 471.999 -1.52557 0.508234 0
M  V30 4935 O 473.189 -1.56047 0.774262 0
M  V30 4936 C 470.321 -3.00211 1.61512 0
M  V30 4937 H 471.514 -1.4881 2.60376 0
M  V30 4938 H 469.067 -0.742772 1.37523 0
M  V30 4939 H 469.802 -3.17471 0.662009 0
M  V30 4940 H 469.587 -3.07439 2.43359 0
M  V30 4941 H 471.077 -3.79134 1.75064 0
M  V30 4942 N 471.514 -1.37532 -0.769588 0
M  V30 4943 C 472.444 -1.36172 -1.89682 0
M  V30 4944 C 473.425 -0.23001 -1.68538 0
M  V30 4945 O 474.61 -0.43069 -1.89364 0
M  V30 4946 C 471.74 -1.1701 -3.26995 0
M  V30 4947 C 470.694 -2.27216 -3.62708 0
M  V30 4948 C 470.02 -1.93174 -4.98586 0
M  V30 4949 C 471.32 -3.6941 -3.69234 0
M  V30 4950 H 473.014 -2.30499 -1.91078 0
M  V30 4951 H 470.56 -1.10953 -0.917902 0
M  V30 4952 H 472.513 -1.14688 -4.05493 0
M  V30 4953 H 471.237 -0.191395 -3.26039 0
M  V30 4954 H 469.896 -2.28697 -2.86519 0
M  V30 4955 H 469.544 -0.938281 -4.94171 0
M  V30 4956 H 469.244 -2.66973 -5.23449 0
M  V30 4957 H 470.768 -1.92443 -5.79481 0
M  V30 4958 H 472.182 -3.70047 -4.37879 0
M  V30 4959 H 470.579 -4.4228 -4.05597 0
M  V30 4960 H 471.649 -4.0288 -2.69844 0
M  V30 4961 N 472.992 0.995999 -1.22138 0
M  V30 4962 C 474.238 1.7386 -1.05567 0
M  V30 4963 C 474.593 1.8808 0.405418 0
M  V30 4964 O 473.886 1.41062 1.29661 0
M  V30 4965 C 474.08 3.14553 -1.6968 0
M  V30 4966 C 473.909 3.14053 -3.21871 0
M  V30 4967 C 472.679 3.20121 -3.90961 0
M  V30 4968 C 474.877 2.98451 -4.18845 0
M  V30 4969 N 472.859 3.09342 -5.30265 0
M  V30 4970 C 474.23 2.95667 -5.4496 0
M  V30 4971 C 476.285 2.8282 -4.09777 0
M  V30 4972 C 474.988 2.78852 -6.63049 0
M  V30 4973 C 477.014 2.67364 -5.27513 0
M  V30 4974 C 476.376 2.65264 -6.52544 0
M  V30 4975 H 472.475 0.645989 -0.440706 0
M  V30 4976 H 475.059 1.1831 -1.54631 0
M  V30 4977 H 473.23 3.68353 -1.2317 0
M  V30 4978 H 474.962 3.77358 -1.4623 0
M  V30 4979 H 471.717 3.27679 -3.4194 0
M  V30 4980 H 472.141 3.0727 -6.03253 0
M  V30 4981 H 476.783 2.83243 -3.139 0
M  V30 4982 H 474.501 2.77175 -7.59078 0
M  V30 4983 H 478.087 2.56256 -5.22326 0
M  V30 4984 H 476.967 2.5345 -7.42114 0
M  V30 4985 N 474.47 1.03057 1.19235 0
M  V30 4986 C 475.695 0.74757 1.93458 0
M  V30 4987 C 476.12 -0.687648 1.7508 0
M  V30 4988 O 475.478 -1.47499 1.05422 0
M  V30 4989 C 475.526 1.10604 3.43219 0
M  V30 4990 O 474.63 0.225671 4.11782 0
M  V30 4991 H 473.971 0.276047 0.603899 0
M  V30 4992 H 476.501 1.3777 1.51263 0
M  V30 4993 H 476.511 1.06366 3.93891 0
M  V30 4994 H 475.186 2.15165 3.55917 0
M  V30 4995 H 473.763 0.326795 3.71465 0
M  V30 4996 N 475.948 -1.35272 0.808662 0
M  V30 4997 C 477.194 -1.99003 0.390581 0
M  V30 4998 C 477.527 -1.63999 -1.0401 0
M  V30 4999 O 476.802 -0.904368 -1.72196 0
M  V30 5000 C 477.085 -3.55454 0.576566 0
M  V30 5001 C 476.938 -4.00249 2.05233 0
M  V30 5002 C 478.257 -4.401 0.00354277 0
M  V30 5003 H 475.376 -0.722917 0.143388 0
M  V30 5004 H 478.018 -1.6039 1.01858 0
M  V30 5005 H 476.168 -3.88477 0.0419766 0
M  V30 5006 H 477.84 -3.77626 2.64946 0
M  V30 5007 H 476.083 -3.51082 2.54801 0
M  V30 5008 H 476.754 -5.0911 2.13333 0
M  V30 5009 H 479.23 -4.13548 0.460117 0
M  V30 5010 H 478.106 -5.48656 0.163575 0
M  V30 5011 H 478.367 -4.28444 -1.09032 0
M  V30 5012 N 477.426 -0.562348 -1.47226 0
M  V30 5013 C 478.674 -0.0401371 -2.0206 0
M  V30 5014 C 478.995 1.3165 -1.43852 0
M  V30 5015 O 478.265 1.85976 -0.615599 0
M  V30 5016 H 476.845 -0.0118479 -0.746906 0
M  V30 5017 H 479.507 -0.73352 -1.8057 0
M  V30 5018 H 478.603 0.0441254 -3.12069 0
M  V30 5019 N 478.904 1.54736 -0.299062 0
M  V30 5020 C 480.129 2.04975 0.316254 0
M  V30 5021 C 480.554 1.17501 1.46885 0
M  V30 5022 O 479.912 0.178678 1.80417 0
M  V30 5023 C 479.96 3.52672 0.751997 0
M  V30 5024 O 479.064 3.68226 1.85697 0
M  V30 5025 H 478.405 0.661126 0.0617175 0
M  V30 5026 H 480.935 1.99805 -0.440341 0
M  V30 5027 H 480.945 3.94488 1.04133 0
M  V30 5028 H 479.62 4.158 -0.0911482 0
M  V30 5029 H 478.197 3.38316 1.56834 0
M  V30 5030 N 480.382 0.0267497 1.57577 0
M  V30 5031 C 481.628 -0.653371 1.91987 0
M  V30 5032 C 481.961 -1.71915 0.903263 0
M  V30 5033 O 481.236 -1.94358 -0.0743387 0
M  V30 5034 C 481.519 -1.272 3.36886 0
M  V30 5035 C 481.372 -0.215938 4.49281 0
M  V30 5036 C 482.691 -2.19069 3.81703 0
M  V30 5037 H 479.81 -0.236047 0.698177 0
M  V30 5038 H 482.452 0.0835236 1.89816 0
M  V30 5039 H 480.602 -1.90005 3.38866 0
M  V30 5040 H 482.274 0.41449 4.59434 0
M  V30 5041 H 480.517 0.458855 4.31366 0
M  V30 5042 H 481.188 -0.688347 5.47691 0
M  V30 5043 H 483.664 -1.66253 3.81444 0
M  V30 5044 H 482.54 -2.59307 4.83788 0
M  V30 5045 H 482.801 -3.08087 3.17072 0
M  V30 5046 N 481.861 -1.55662 -0.24637 0
M  V30 5047 C 483.107 -1.77782 -0.975779 0
M  V30 5048 C 483.44 -0.592103 -1.84953 0
M  V30 5049 O 482.715 0.409588 -1.90138 0
M  V30 5050 C 482.998 -3.09788 -1.83584 0
M  V30 5051 C 482.851 -4.38764 -0.990241 0
M  V30 5052 C 484.17 -3.38029 -2.81823 0
M  V30 5053 H 481.289 -0.646789 -0.353317 0
M  V30 5054 H 483.931 -1.88398 -0.246248 0
M  V30 5055 H 482.081 -3.00869 -2.45784 0
M  V30 5056 H 483.753 -4.59675 -0.386897 0
M  V30 5057 H 481.996 -4.32798 -0.294626 0
M  V30 5058 H 482.667 -5.27514 -1.62584 0
M  V30 5059 H 485.143 -3.46915 -2.2976 0
M  V30 5060 H 484.019 -4.3161 -3.39122 0
M  V30 5061 H 484.28 -2.58968 -3.58313 0
M  V30 5062 N 483.339 0.512053 -1.4905 0
M  V30 5063 C 484.271 1.63121 -1.6101 0
M  V30 5064 C 485.284 1.55145 -0.493352 0
M  V30 5065 O 486.473 1.61278 -0.764955 0
M  V30 5066 C 483.573 3.01863 -1.54052 0
M  V30 5067 C 482.746 3.35138 -2.81072 0
M  V30 5068 C 481.805 4.5324 -2.67319 0
M  V30 5069 O 480.831 4.55571 -3.41238 0
M  V30 5070 N 482.033 5.52495 -1.78127 0
M  V30 5071 H 484.798 1.53292 -2.5753 0
M  V30 5072 H 482.359 0.699706 -1.45999 0
M  V30 5073 H 484.351 3.78774 -1.42521 0
M  V30 5074 H 482.921 3.05675 -0.654345 0
M  V30 5075 H 482.141 2.4723 -3.07036 0
M  V30 5076 H 483.429 3.54162 -3.65304 0
M  V30 5077 H 482.827 5.53403 -1.17308 0
M  V30 5078 H 481.384 6.28553 -1.72525 0
M  V30 5079 N 484.817 1.37938 0.762283 0
M  V30 5080 C 486.094 1.24196 1.51112 0
M  V30 5081 C 486.474 -0.160409 2.1049 0
M  V30 5082 O 485.822 -1.16904 1.96331 0
M  V30 5083 C 486.032 2.34537 2.58445 0
M  V30 5084 C 487.38 2.7254 3.25588 0
M  V30 5085 O 488.404 2.33783 2.68745 0
M  V30 5086 O 487.263 3.39343 4.28379 0
M  V30 5087 H 484.357 0.485175 0.669727 0
M  V30 5088 H 486.903 1.49743 0.798438 0
M  V30 5089 H 485.675 3.28406 2.12756 0
M  V30 5090 H 485.298 2.10505 3.37303 0
M  V30 5091 N 486.295 -0.989507 1.22664 0
M  V30 5092 C 487.525 -1.7624 1.0781 0
M  V30 5093 C 487.933 -1.85466 -0.374036 0
M  V30 5094 O 487.276 -1.32645 -1.27087 0
M  V30 5095 C 487.338 -3.21007 1.61849 0
M  V30 5096 C 487.002 -3.35316 3.10503 0
M  V30 5097 C 487.999 -3.22362 4.07896 0
M  V30 5098 C 485.684 -3.60258 3.50028 0
M  V30 5099 C 487.678 -3.34139 5.42798 0
M  V30 5100 C 485.365 -3.71676 4.85078 0
M  V30 5101 C 486.363 -3.58625 5.81272 0
M  V30 5102 O 486.051 -3.69655 7.1387 0
M  V30 5103 H 485.783 -0.560209 0.378341 0
M  V30 5104 H 488.337 -1.25252 1.62792 0
M  V30 5105 H 486.567 -3.73202 1.01279 0
M  V30 5106 H 488.256 -3.80024 1.42606 0
M  V30 5107 H 489.022 -3.03 3.78703 0
M  V30 5108 H 484.901 -3.69492 2.75675 0
M  V30 5109 H 488.445 -3.23869 6.17863 0
M  V30 5110 H 484.342 -3.90545 5.1395 0
M  V30 5111 H 485.11 -3.86507 7.21495 0
M  V30 5112 N 487.773 -1.03688 -1.18687 0
M  V30 5113 C 489.05 -0.652397 -1.84399 0
M  V30 5114 C 489.43 0.868386 -1.92412 0
M  V30 5115 O 488.778 1.76832 -1.44716 0
M  V30 5116 C 488.988 -1.3238 -3.22919 0
M  V30 5117 C 490.336 -1.45216 -3.98996 0
M  V30 5118 O 491.36 -1.2816 -3.32345 0
M  V30 5119 O 490.219 -1.72975 -5.18403 0
M  V30 5120 H 487.313 -0.227793 -0.795009 0
M  V30 5121 H 489.859 -1.13553 -1.2611 0
M  V30 5122 H 488.631 -2.36202 -3.11968 0
M  V30 5123 H 488.254 -0.829039 -3.88861 0
M  V30 5124 N 489.251 1.34841 -0.815825 0
M  V30 5125 C 490.476 2.03261 -0.41226 0
M  V30 5126 C 490.901 1.61055 0.971751 0
M  V30 5127 O 490.259 0.7917 1.63101 0
M  V30 5128 C 490.307 3.56914 -0.514289 0
M  V30 5129 O 489.411 4.09728 0.468675 0
M  V30 5130 H 488.752 0.641664 -0.170771 0
M  V30 5131 H 491.282 1.72241 -1.10427 0
M  V30 5132 H 491.292 4.06156 -0.387457 0
M  V30 5133 H 489.967 3.86982 -1.52375 0
M  V30 5134 H 488.544 3.71681 0.301316 0
M  V30 5135 N 490.729 0.570148 1.46925 0
M  V30 5136 C 492.006 -0.0153259 1.95594 0
M  V30 5137 C 492.386 -1.47232 1.51281 0
M  V30 5138 O 491.734 -2.15574 0.757624 0
M  V30 5139 C 491.944 0.143624 3.48704 0
M  V30 5140 C 493.292 0.00494484 4.246 0
M  V30 5141 O 494.316 0.0718214 3.56128 0
M  V30 5142 O 493.175 -0.141175 5.46318 0
M  V30 5143 H 490.269 -0.0568819 0.825041 0
M  V30 5144 H 492.815 0.637583 1.57267 0
M  V30 5145 H 491.587 1.15699 3.73804 0
M  V30 5146 H 491.21 -0.5463 3.93829 0
M  V30 5147 N 492.207 -1.54576 0.307264 0
M  V30 5148 C 493.154 -2.23751 -0.56604 0
M  V30 5149 C 494.124 -1.22235 -1.12462 0
M  V30 5150 O 495.309 -1.50873 -1.16799 0
M  V30 5151 C 492.449 -2.98661 -1.72903 0
M  V30 5152 C 491.562 -4.14963 -1.20124 0
M  V30 5153 C 490.697 -4.77441 -2.3286 0
M  V30 5154 C 489.736 -5.85875 -1.77247 0
M  V30 5155 N 488.873 -6.42282 -2.8358 0
M  V30 5156 H 493.713 -2.97984 0.0304578 0
M  V30 5157 H 491.25 -1.47076 0.0268015 0
M  V30 5158 H 493.208 -3.40329 -2.41313 0
M  V30 5159 H 491.838 -2.26793 -2.29706 0
M  V30 5160 H 490.89 -3.78193 -0.409198 0
M  V30 5161 H 492.202 -4.93066 -0.754171 0
M  V30 5162 H 491.356 -5.21993 -3.09205 0
M  V30 5163 H 490.095 -3.98684 -2.80896 0
M  V30 5164 H 489.1 -5.40741 -0.993926 0
M  V30 5165 H 490.325 -6.6652 -1.30107 0
M  V30 5166 H 488.271 -5.66406 -3.30939 0
M  V30 5167 H 488.188 -7.1575 -2.43388 0
M  V30 5168 H 489.456 -6.91492 -3.59804 0
M  V30 5169 N 493.685 -0.035106 -1.57561 0
M  V30 5170 C 494.615 0.942993 -2.13612 0
M  V30 5171 C 495.596 1.33531 -1.05373 0
M  V30 5172 O 496.781 1.41287 -1.33235 0
M  V30 5173 C 493.911 2.22332 -2.66807 0
M  V30 5174 C 492.865 1.97156 -3.79886 0
M  V30 5175 C 492.191 3.31506 -4.19533 0
M  V30 5176 C 493.491 1.30596 -5.05709 0
M  V30 5177 H 495.185 0.476179 -2.95589 0
M  V30 5178 H 492.731 0.227602 -1.4219 0
M  V30 5179 H 494.684 2.91142 -3.04654 0
M  V30 5180 H 493.408 2.7119 -1.81999 0
M  V30 5181 H 492.067 1.30763 -3.42486 0
M  V30 5182 H 491.715 3.78134 -3.31698 0
M  V30 5183 H 491.415 3.15465 -4.95738 0
M  V30 5184 H 492.939 4.01574 -4.59968 0
M  V30 5185 H 494.353 1.89416 -5.41105 0
M  V30 5186 H 492.75 1.24934 -5.86951 0
M  V30 5187 H 493.82 0.279742 -4.84092 0
M  V30 5188 N 495.163 1.55791 0.238111 0
M  V30 5189 C 496.41 1.78033 0.964907 0
M  V30 5190 C 496.738 0.600984 1.84982 0
M  V30 5191 O 495.993 -0.41536 1.91241 0
M  V30 5192 C 496.292 3.05869 1.84875 0
M  V30 5193 C 495.958 4.36808 1.11846 0
M  V30 5194 C 494.62 4.72388 0.916662 0
M  V30 5195 C 496.972 5.17717 0.60151 0
M  V30 5196 C 494.3 5.86406 0.185756 0
M  V30 5197 C 496.652 6.32494 -0.115972 0
M  V30 5198 C 495.316 6.66688 -0.329168 0
M  V30 5199 H 494.586 0.651469 0.353085 0
M  V30 5200 H 497.233 1.90061 0.234318 0
M  V30 5201 H 495.538 2.88891 2.64668 0
M  V30 5202 H 497.235 3.20278 2.41294 0
M  V30 5203 H 493.825 4.08862 1.28569 0
M  V30 5204 H 498.009 4.90678 0.744932 0
M  V30 5205 H 493.265 6.11399 0.0101886 0
M  V30 5206 H 497.439 6.94425 -0.524127 0
M  V30 5207 H 495.066 7.54884 -0.897474 0
M  V30 5208 N 496.642 -0.504142 1.49319 0
M  V30 5209 C 498.053 -1.08572 1.51885 0
M  V30 5210 C 498.404 -1.93842 0.303255 0
M  V30 5211 O 497.529 -2.0828 -0.58724 0
M  V30 5212 C 498.124 -1.97574 2.75227 0
M  V30 5213 C 496.683 -2.509 2.80581 0
M  V30 5214 C 495.83 -1.28447 2.45757 0
M  V30 5215 H 498.781 -0.288194 1.56061 0
M  V30 5216 H 498.802 -2.82219 2.55211 0
M  V30 5217 H 498.314 -1.35486 3.63683 0
M  V30 5218 H 496.415 -3.16636 1.96398 0
M  V30 5219 H 496.528 -2.88268 3.82673 0
M  V30 5220 H 494.892 -1.60868 1.97468 0
M  V30 5221 H 495.675 -0.68072 3.36483 0
M  V30 5222 N 498.12 -1.38341 -0.754957 0
M  V30 5223 C 499.083 -1.35262 -1.85032 0
M  V30 5224 C 500.083 -0.253393 -1.58791 0
M  V30 5225 O 501.273 -0.510205 -1.66561 0
M  V30 5226 C 498.405 -1.10544 -3.22479 0
M  V30 5227 H 499.598 -2.32712 -1.8917 0
M  V30 5228 H 497.151 -1.23614 -0.956515 0
M  V30 5229 H 497.886 -0.136952 -3.24011 0
M  V30 5230 H 497.671 -1.90127 -3.4292 0
M  V30 5231 H 499.161 -1.11082 -4.02555 0
M  V30 5232 N 499.598 0.982988 -1.23187 0
M  V30 5233 C 500.845 1.72392 -1.06241 0
M  V30 5234 C 501.173 1.9032 0.40108 0
M  V30 5235 O 500.428 1.45084 1.31336 0
M  V30 5236 C 500.727 3.12736 -1.73006 0
M  V30 5237 C 500.393 3.14695 -3.22921 0
M  V30 5238 C 499.055 3.14937 -3.63824 0
M  V30 5239 C 501.407 3.10211 -4.1883 0
M  V30 5240 C 498.735 3.08408 -4.99101 0
M  V30 5241 C 501.087 3.05224 -5.54095 0
M  V30 5242 C 499.751 3.03787 -5.94365 0
M  V30 5243 H 499.021 0.630829 -0.388762 0
M  V30 5244 H 501.668 1.15053 -1.53085 0
M  V30 5245 H 499.973 3.73446 -1.18514 0
M  V30 5246 H 501.67 3.68828 -1.57374 0
M  V30 5247 H 498.26 3.15262 -2.90358 0
M  V30 5248 H 502.444 3.09166 -3.8824 0
M  V30 5249 H 497.7 3.05646 -5.29519 0
M  V30 5250 H 501.874 3.00712 -6.28128 0
M  V30 5251 H 499.501 2.98483 -6.99151 0
M  V30 5252 N 501.076 1.04316 1.18135 0
M  V30 5253 C 502.324 0.746542 1.87806 0
M  V30 5254 C 502.645 -0.728082 1.80898 0
M  V30 5255 O 501.915 -1.52554 1.22899 0
M  V30 5256 H 500.495 0.273157 0.695265 0
M  V30 5257 H 503.157 1.32044 1.43354 0
M  V30 5258 H 502.253 1.05362 2.93778 0
M  V30 5259 N 502.554 -1.34406 0.822964 0
M  V30 5260 C 503.801 -1.98284 0.411057 0
M  V30 5261 C 504.129 -1.65245 -1.02588 0
M  V30 5262 O 503.384 -0.91619 -1.72929 0
M  V30 5263 C 503.683 -3.52981 0.560268 0
M  V30 5264 C 503.349 -4.05931 1.96293 0
M  V30 5265 C 502.011 -4.20103 2.34664 0
M  V30 5266 C 504.363 -4.34412 2.87985 0
M  V30 5267 C 501.691 -4.60082 3.64062 0
M  V30 5268 C 504.043 -4.75838 4.16847 0
M  V30 5269 C 502.707 -4.88215 4.55195 0
M  V30 5270 H 501.977 -0.725573 0.150416 0
M  V30 5271 H 504.624 -1.60349 1.04692 0
M  V30 5272 H 502.929 -3.91477 -0.158982 0
M  V30 5273 H 504.626 -4.00385 0.222087 0
M  V30 5274 H 501.216 -3.95363 1.65487 0
M  V30 5275 H 505.4 -4.23001 2.59584 0
M  V30 5276 H 500.656 -4.67856 3.93599 0
M  V30 5277 H 504.83 -4.96834 4.87984 0
M  V30 5278 H 502.457 -5.18952 5.55512 0
M  V30 5279 N 504.032 -0.577932 -1.46621 0
M  V30 5280 C 505.28 -0.061566 -2.02006 0
M  V30 5281 C 505.601 1.30117 -1.4524 0
M  V30 5282 O 504.871 1.85313 -0.63529 0
M  V30 5283 H 503.451 -0.0197692 -0.746738 0
M  V30 5284 H 506.113 -0.752631 -1.79782 0
M  V30 5285 H 505.209 0.0110238 -3.12098 0
M  V30 5286 N 505.51 1.54411 -0.315457 0
M  V30 5287 C 506.473 2.22713 0.54142 0
M  V30 5288 C 507.473 1.2179 1.04995 0
M  V30 5289 O 508.663 1.46426 0.943667 0
M  V30 5290 C 505.795 2.92485 1.75116 0
M  V30 5291 H 506.988 2.99849 -0.0555508 0
M  V30 5292 H 504.541 1.56159 -0.0664453 0
M  V30 5293 H 505.276 2.19466 2.38758 0
M  V30 5294 H 505.061 3.66483 1.39401 0
M  V30 5295 H 506.551 3.44548 2.35959 0
M  V30 5296 N 506.988 0.0434614 1.5754 0
M  V30 5297 C 507.92 -0.962586 2.08007 0
M  V30 5298 C 508.933 -1.27972 1.00634 0
M  V30 5299 O 510.122 -1.24186 1.28219 0
M  V30 5300 C 507.222 -2.28621 2.50171 0
M  V30 5301 C 506.395 -2.15214 3.80791 0
M  V30 5302 C 505.454 -3.30633 4.09351 0
M  V30 5303 O 504.48 -3.0688 4.79388 0
M  V30 5304 N 505.682 -4.54873 3.60654 0
M  V30 5305 H 508.447 -0.531891 2.94942 0
M  V30 5306 H 506.008 -0.142965 1.61268 0
M  V30 5307 H 508 -3.04689 2.66359 0
M  V30 5308 H 506.57 -2.63283 1.68525 0
M  V30 5309 H 505.79 -1.23785 3.74261 0
M  V30 5310 H 507.078 -2.03475 4.66343 0
M  V30 5311 H 506.476 -4.77063 3.04019 0
M  V30 5312 H 505.033 -5.2806 3.82094 0
M  V30 5313 N 508.466 -1.55915 -0.229846 0
M  V30 5314 C 509.712 -1.78807 -0.956868 0
M  V30 5315 C 510.045 -0.611687 -1.84315 0
M  V30 5316 O 509.32 0.389398 -1.90562 0
M  V30 5317 C 509.603 -3.11718 -1.80288 0
M  V30 5318 C 509.456 -4.3979 -0.943649 0
M  V30 5319 C 510.775 -3.40999 -2.78222 0
M  V30 5320 H 507.894 -0.6505 -0.346437 0
M  V30 5321 H 510.536 -1.88648 -0.226252 0
M  V30 5322 H 508.686 -3.03459 -2.42579 0
M  V30 5323 H 510.358 -4.60059 -0.338121 0
M  V30 5324 H 508.601 -4.33086 -0.248705 0
M  V30 5325 H 509.272 -5.29208 -1.5698 0
M  V30 5326 H 511.748 -3.49332 -2.26067 0
M  V30 5327 H 510.624 -4.35183 -3.34526 0
M  V30 5328 H 510.885 -2.62754 -3.55546 0
M  V30 5329 N 509.944 0.496216 -1.49584 0
M  V30 5330 C 511.355 1.07765 -1.52459 0
M  V30 5331 C 511.706 1.93679 -0.31353 0
M  V30 5332 O 510.831 2.08588 0.576186 0
M  V30 5333 C 511.426 1.96111 -2.76271 0
M  V30 5334 C 509.985 2.49409 -2.81908 0
M  V30 5335 C 509.132 1.27142 -2.46435 0
M  V30 5336 H 512.083 0.279914 -1.56212 0
M  V30 5337 H 512.104 2.80862 -2.56704 0
M  V30 5338 H 511.616 1.33555 -3.64396 0
M  V30 5339 H 509.717 3.1559 -1.98074 0
M  V30 5340 H 509.83 2.86234 -3.84196 0
M  V30 5341 H 508.194 1.59818 -1.98319 0
M  V30 5342 H 508.977 0.662866 -3.3684 0
M  V30 5343 N 511.423 1.38739 0.74761 0
M  V30 5344 C 512.834 1.31507 1.32524 0
M  V30 5345 C 513.185 -0.0263963 1.96182 0
M  V30 5346 O 512.31 -0.92849 1.95469 0
M  V30 5347 C 512.905 2.38162 2.40966 0
M  V30 5348 C 511.464 2.34489 2.94434 0
M  V30 5349 C 510.611 2.20712 1.67873 0
M  V30 5350 H 513.562 1.4901 0.546043 0
M  V30 5351 H 513.583 2.04222 3.21051 0
M  V30 5352 H 513.095 3.35783 1.94605 0
M  V30 5353 H 511.196 1.40467 3.45108 0
M  V30 5354 H 511.309 3.28861 3.48407 0
M  V30 5355 H 509.673 1.67667 1.91729 0
M  V30 5356 H 510.456 3.20285 1.23582 0
M  V30 5357 N 512.901 -0.976442 1.23707 0
M  V30 5358 C 514.178 -1.69296 0.979699 0
M  V30 5359 C 514.558 -2.0508 -0.500555 0
M  V30 5360 O 513.906 -1.74708 -1.47273 0
M  V30 5361 C 514.116 -2.93143 1.89389 0
M  V30 5362 C 515.464 -3.65572 2.15968 0
M  V30 5363 O 516.488 -3.03184 1.86971 0
M  V30 5364 O 515.347 -4.77859 2.65167 0
M  V30 5365 H 512.441 -0.739708 0.369812 0
M  V30 5366 H 514.987 -1.03131 1.34767 0
M  V30 5367 H 513.759 -2.63327 2.89439 0
M  V30 5368 H 513.382 -3.67044 1.52854 0
M  V30 5369 N 514.379 -1.04941 -1.1758 0
M  V30 5370 C 515.625 -0.768896 -1.88307 0
M  V30 5371 C 515.98 0.696361 -1.79356 0
M  V30 5372 O 515.273 1.50245 -1.18899 0
M  V30 5373 C 515.467 -1.18062 -3.37337 0
M  V30 5374 C 515.296 -2.68436 -3.60794 0
M  V30 5375 C 514.066 -3.35709 -3.77661 0
M  V30 5376 C 516.264 -3.66657 -3.60649 0
M  V30 5377 N 514.246 -4.74974 -3.88939 0
M  V30 5378 C 515.617 -4.91638 -3.77747 0
M  V30 5379 C 517.672 -3.60162 -3.43785 0
M  V30 5380 C 516.375 -6.10902 -3.79726 0
M  V30 5381 C 518.401 -4.78863 -3.47051 0
M  V30 5382 C 517.763 -6.02666 -3.64654 0
M  V30 5383 H 513.862 -0.33355 -0.707296 0
M  V30 5384 H 516.446 -1.34085 -1.41171 0
M  V30 5385 H 514.617 -0.636648 -3.83147 0
M  V30 5386 H 516.349 -0.8502 -3.95669 0
M  V30 5387 H 513.104 -2.8611 -3.77409 0
M  V30 5388 H 513.528 -5.47378 -3.98379 0
M  V30 5389 H 518.17 -2.65412 -3.29114 0
M  V30 5390 H 515.888 -7.05998 -3.93182 0
M  V30 5391 H 519.474 -4.75488 -3.35265 0
M  V30 5392 H 518.354 -6.92979 -3.67083 0
M  V30 5393 N 515.857 1.33968 -0.830081 0
M  V30 5394 C 516.789 2.28194 -0.21448 0
M  V30 5395 C 517.802 1.5135 0.599752 0
M  V30 5396 O 518.991 1.73286 0.42826 0
M  V30 5397 C 516.091 3.31221 0.717356 0
M  V30 5398 C 515.264 4.37365 -0.055613 0
M  V30 5399 C 514.323 5.2011 0.798231 0
M  V30 5400 O 513.349 5.68691 0.240616 0
M  V30 5401 N 514.551 5.40523 2.11695 0
M  V30 5402 H 517.316 2.81662 -1.02405 0
M  V30 5403 H 514.877 1.46568 -0.687713 0
M  V30 5404 H 516.869 3.83477 1.29334 0
M  V30 5405 H 515.439 2.78095 1.42765 0
M  V30 5406 H 514.659 3.85727 -0.812936 0
M  V30 5407 H 515.947 5.05397 -0.587444 0
M  V30 5408 H 515.345 5.0274 2.59363 0
M  V30 5409 H 513.902 5.95871 2.64162 0
M  V30 5410 N 517.335 0.585699 1.46312 0
M  V30 5411 C 518.581 0.0725284 2.0267 0
M  V30 5412 C 518.914 -1.28523 1.45586 0
M  V30 5413 O 518.189 -1.84283 0.622101 0
M  V30 5414 C 518.472 0.0099788 3.60099 0
M  V30 5415 C 518.325 1.39685 4.27561 0
M  V30 5416 C 519.644 -0.689117 4.34671 0
M  V30 5417 H 516.763 0.0278307 0.736474 0
M  V30 5418 H 519.405 0.753472 1.74421 0
M  V30 5419 H 517.555 -0.56992 3.84297 0
M  V30 5420 H 519.227 2.02215 4.14617 0
M  V30 5421 H 517.47 1.96374 3.86807 0
M  V30 5422 H 518.141 1.30553 5.36339 0
M  V30 5423 H 520.617 -0.196446 4.15636 0
M  V30 5424 H 519.493 -0.701921 5.44393 0
M  V30 5425 H 519.754 -1.75101 4.05946 0
M  V30 5426 N 518.813 -1.54241 0.323641 0
M  V30 5427 C 520.038 -2.05452 -0.283605 0
M  V30 5428 C 520.463 -1.19823 -1.44997 0
M  V30 5429 O 519.821 -0.207358 -1.8011 0
M  V30 5430 C 519.869 -3.53823 -0.695795 0
M  V30 5431 O 518.973 -3.71134 -1.79815 0
M  V30 5432 H 518.314 -0.662024 -0.0511917 0
M  V30 5433 H 520.844 -1.99079 0.472073 0
M  V30 5434 H 520.854 -3.96094 -0.978434 0
M  V30 5435 H 519.529 -4.15602 0.157287 0
M  V30 5436 H 518.106 -3.40768 -1.51431 0
M  V30 5437 N 520.291 -0.0518155 -1.57515 0
M  V30 5438 C 521.241 0.932017 -2.0808 0
M  V30 5439 C 522.225 1.27141 -0.986098 0
M  V30 5440 O 523.417 1.25373 -1.24943 0
M  V30 5441 C 520.546 2.20665 -2.62986 0
M  V30 5442 C 519.632 1.89462 -3.79427 0
M  V30 5443 N 520.023 1.28621 -4.89173 0
M  V30 5444 C 518.321 2.19327 -3.88345 0
M  V30 5445 C 519.022 1.15062 -5.70207 0
M  V30 5446 N 517.998 1.65372 -5.17835 0
M  V30 5447 H 521.8 0.456964 -2.90326 0
M  V30 5448 H 519.314 0.152619 -1.61681 0
M  V30 5449 H 521.311 2.92044 -2.97516 0
M  V30 5450 H 519.971 2.68776 -1.8218 0
M  V30 5451 H 520.982 0.958341 -5.08956 0
M  V30 5452 H 517.659 2.69955 -3.18482 0
M  V30 5453 H 519.049 0.678243 -6.68468 0
M  V30 5454 N 521.769 1.56035 0.221574 0
M  V30 5455 C 522.679 1.95581 1.29558 0
M  V30 5456 C 523.695 0.859639 1.51282 0
M  V30 5457 O 524.871 1.16321 1.64413 0
M  V30 5458 C 521.936 2.26447 2.62531 0
M  V30 5459 C 520.997 3.49632 2.4911 0
M  V30 5460 C 520.23 3.79017 3.75742 0
M  V30 5461 O 520.453 3.10077 4.78757 0
M  V30 5462 O 519.387 4.72507 3.72855 0
M  V30 5463 H 523.213 2.8711 0.990035 0
M  V30 5464 H 520.798 1.43244 0.424434 0
M  V30 5465 H 522.68 2.47494 3.41064 0
M  V30 5466 H 521.355 1.38092 2.92766 0
M  V30 5467 H 520.262 3.33864 1.68777 0
M  V30 5468 H 521.595 4.3837 2.23814 0
M  V30 5469 N 523.247 -0.488276 1.49845 0
M  V30 5470 C 524.494 -1.24157 1.59973 0
M  V30 5471 C 524.822 -1.92293 0.292182 0
M  V30 5472 O 524.077 -1.81942 -0.720813 0
M  V30 5473 C 524.376 -2.32152 2.71735 0
M  V30 5474 C 524.042 -1.81387 4.12807 0
M  V30 5475 C 522.704 -1.67262 4.51195 0
M  V30 5476 C 525.056 -1.43537 5.01045 0
M  V30 5477 C 522.384 -1.13685 5.7558 0
M  V30 5478 C 524.736 -0.914081 6.25961 0
M  V30 5479 C 523.4 -0.759327 6.63167 0
M  V30 5480 H 522.67 -0.454322 0.585383 0
M  V30 5481 H 525.317 -0.540261 1.83721 0
M  V30 5482 H 523.622 -3.08122 2.42008 0
M  V30 5483 H 525.319 -2.90164 2.76778 0
M  V30 5484 H 521.909 -1.93344 3.82513 0
M  V30 5485 H 526.093 -1.53292 4.72033 0
M  V30 5486 H 521.349 -1.00426 6.03096 0
M  V30 5487 H 525.523 -0.612066 6.93705 0
M  V30 5488 H 523.15 -0.342002 7.5943 0
M  V30 5489 N 524.725 -1.39134 -0.740242 0
M  V30 5490 C 525.688 -1.37217 -1.83587 0
M  V30 5491 C 526.688 -0.270221 -1.58513 0
M  V30 5492 O 527.878 -0.527843 -1.6601 0
M  V30 5493 C 525.01 -1.13959 -3.21288 0
M  V30 5494 H 526.203 -2.34705 -1.86691 0
M  V30 5495 H 523.756 -1.24622 -0.94335 0
M  V30 5496 H 524.491 -0.17131 -3.23847 0
M  V30 5497 H 524.276 -1.93754 -3.40884 0
M  V30 5498 H 525.766 -1.15346 -4.01354 0
M  V30 5499 N 526.204 0.969867 -1.24223 0
M  V30 5500 C 527.134 2.08191 -1.05729 0
M  V30 5501 C 528.115 1.70075 0.0290765 0
M  V30 5502 O 529.3 1.93712 -0.137583 0
M  V30 5503 C 526.43 3.40991 -0.658995 0
M  V30 5504 C 525.384 3.93054 -1.69389 0
M  V30 5505 C 524.71 5.22171 -1.15072 0
M  V30 5506 C 526.01 4.21137 -3.08935 0
M  V30 5507 H 527.704 2.23921 -1.98746 0
M  V30 5508 H 525.25 1.07602 -0.956967 0
M  V30 5509 H 527.203 4.18221 -0.51662 0
M  V30 5510 H 525.927 3.25155 0.30686 0
M  V30 5511 H 524.586 3.17977 -1.82444 0
M  V30 5512 H 524.234 5.02694 -0.175539 0
M  V30 5513 H 523.934 5.57973 -1.84229 0
M  V30 5514 H 525.458 6.02013 -1.02042 0
M  V30 5515 H 526.872 4.8908 -2.99121 0
M  V30 5516 H 525.269 4.68163 -3.75425 0
M  V30 5517 H 526.339 3.27996 -3.57137 0
M  V30 5518 N 527.682 1.05563 1.17022 0
M  V30 5519 C 528.63 0.653887 2.2322 0
M  V30 5520 C 529.624 -0.326642 1.66221 0
M  V30 5521 O 530.83 -0.192301 1.7897 0
M  V30 5522 H 527.205 0.193297 0.726733 0
M  V30 5523 H 529.176 1.5596 2.54399 0
M  V30 5524 C 527.925 0.0485434 3.47666 0
M  V30 5525 H 527.248 0.79413 3.91834 0
M  V30 5526 H 528.688 -0.195133 4.23551 0
M  V30 5527 C 527.147 -1.20583 3.14581 0
M  V30 5528 O 527.677 -2.29475 3.29703 0
M  V30 5529 N 525.883 -1.10493 2.68774 0
M  V30 5530 H 525.43 -0.218795 2.56669 0
M  V30 5531 H 525.388 -1.94507 2.47011 0
M  V30 5532 N 529.16 -1.33526 0.837174 0
M  V30 5533 C 530.407 -1.97837 0.432064 0
M  V30 5534 C 530.735 -1.66324 -1.00829 0
M  V30 5535 O 529.99 -0.93448 -1.71948 0
M  V30 5536 C 530.289 -3.52367 0.597675 0
M  V30 5537 C 529.955 -4.03826 2.00587 0
M  V30 5538 C 528.617 -4.1759 2.39106 0
M  V30 5539 C 530.969 -4.31333 2.92576 0
M  V30 5540 C 528.297 -4.56195 3.68921 0
M  V30 5541 C 530.649 -4.7139 4.2187 0
M  V30 5542 C 529.313 -4.8336 4.60347 0
M  V30 5543 H 528.583 -0.723937 0.158104 0
M  V30 5544 H 531.23 -1.5923 1.06387 0
M  V30 5545 H 529.535 -3.91624 -0.117452 0
M  V30 5546 H 531.232 -4.00126 0.26454 0
M  V30 5547 H 527.822 -3.93586 1.69671 0
M  V30 5548 H 532.006 -4.20224 2.64056 0
M  V30 5549 H 527.262 -4.63655 3.9854 0
M  V30 5550 H 531.436 -4.91631 4.93226 0
M  V30 5551 H 529.063 -5.1303 5.60985 0
M  V30 5552 N 530.638 -0.59345 -1.46 0
M  V30 5553 C 531.586 0.146268 -2.3214 0
M  V30 5554 C 532.58 0.873743 -1.45128 0
M  V30 5555 O 533.786 0.790912 -1.61693 0
M  V30 5556 H 530.161 0.0660349 -0.749095 0
M  V30 5557 H 532.132 -0.598895 -2.92328 0
M  V30 5558 C 530.881 1.1396 -3.28494 0
M  V30 5559 H 530.204 0.589252 -3.95434 0
M  V30 5560 H 531.644 1.62738 -3.91526 0
M  V30 5561 C 530.103 2.20604 -2.54628 0
M  V30 5562 O 530.633 3.28128 -2.31722 0
M  V30 5563 N 528.839 1.95502 -2.15005 0
M  V30 5564 H 528.386 1.0807 -2.33834 0
M  V30 5565 H 528.344 2.67064 -1.65904 0
M  V30 5566 N 532.116 1.54067 -0.331816 0
M  V30 5567 C 533.527 1.86059 0.15454 0
M  V30 5568 C 533.878 1.25331 1.50952 0
M  V30 5569 O 533.003 0.562441 2.08963 0
M  V30 5570 C 533.598 3.37581 0.287192 0
M  V30 5571 C 532.157 3.69493 0.717773 0
M  V30 5572 C 531.304 2.76863 -0.155569 0
M  V30 5573 H 534.255 1.48797 -0.55182 0
M  V30 5574 H 534.276 3.63744 1.11671 0
M  V30 5575 H 533.788 3.81751 -0.699131 0
M  V30 5576 H 531.889 3.3086 1.71354 0
M  V30 5577 H 532.002 4.76315 0.5158 0
M  V30 5578 H 530.366 2.51995 0.370213 0
M  V30 5579 H 531.149 3.23861 -1.13881 0
M  V30 5580 N 533.594 0.0601682 1.57485 0
M  V30 5581 C 534.819 -0.624416 1.97777 0
M  V30 5582 C 535.244 -1.63051 0.937867 0
M  V30 5583 O 534.602 -1.81036 -0.0978845 0
M  V30 5584 C 534.65 -1.27979 3.37126 0
M  V30 5585 O 533.754 -2.39556 3.35688 0
M  V30 5586 H 533.095 -0.161581 0.64404 0
M  V30 5587 H 535.625 0.131237 2.04179 0
M  V30 5588 H 535.635 -1.62937 3.74053 0
M  V30 5589 H 534.31 -0.542501 4.12347 0
M  V30 5590 H 532.887 -2.06478 3.10517 0
M  V30 5591 N 535.072 -1.5615 -0.213296 0
M  V30 5592 C 536.02 -1.93953 -1.28394 0
M  V30 5593 C 537.014 -0.822592 -1.48087 0
M  V30 5594 O 538.22 -1.00748 -1.49164 0
M  V30 5595 H 534.595 -0.61648 -0.430646 0
M  V30 5596 H 536.566 -2.83275 -0.937977 0
M  V30 5597 C 535.315 -2.27969 -2.62537 0
M  V30 5598 H 534.638 -3.13432 -2.48194 0
M  V30 5599 H 536.078 -2.58297 -3.36242 0
M  V30 5600 C 534.537 -1.10775 -3.18167 0
M  V30 5601 O 535.067 -0.373201 -3.99963 0
M  V30 5602 N 533.273 -0.889377 -2.76656 0
M  V30 5603 H 532.82 -1.48843 -2.10246 0
M  V30 5604 H 532.778 -0.107 -3.14218 0
M  V30 5605 N 536.55 0.480323 -1.50102 0
M  V30 5606 C 537.961 1.06142 -1.53593 0
M  V30 5607 C 538.312 1.93335 -0.334055 0
M  V30 5608 O 537.437 2.09188 0.55403 0
M  V30 5609 C 538.032 1.9317 -2.78336 0
M  V30 5610 C 536.591 2.46405 -2.84538 0
M  V30 5611 C 535.738 1.24521 -2.4777 0
M  V30 5612 H 538.689 0.26333 -1.565 0
M  V30 5613 H 538.71 2.78123 -2.59669 0
M  V30 5614 H 538.222 1.29683 -3.65792 0
M  V30 5615 H 536.323 3.13472 -2.01411 0
M  V30 5616 H 536.436 2.82143 -3.87211 0
M  V30 5617 H 534.8 1.57706 -2.00003 0
M  V30 5618 H 535.583 0.627102 -3.37524 0
M  V30 5619 N 538.028 1.39524 0.732853 0
M  V30 5620 C 539.258 1.3994 1.51988 0
M  V30 5621 C 539.666 -0.00727973 1.89199 0
M  V30 5622 O 539.009 -0.989521 1.54771 0
M  V30 5623 C 539.071 2.21026 2.83527 0
M  V30 5624 C 538.735 3.69633 2.68738 0
M  V30 5625 C 539.732 4.62665 2.37143 0
M  V30 5626 C 537.417 4.13244 2.85542 0
M  V30 5627 C 539.411 5.97291 2.22536 0
M  V30 5628 C 537.098 5.47945 2.70554 0
M  V30 5629 C 538.096 6.39783 2.39097 0
M  V30 5630 O 537.784 7.72002 2.24204 0
M  V30 5631 H 537.516 0.479795 0.476206 0
M  V30 5632 H 540.07 1.8399 0.913054 0
M  V30 5633 H 538.3 1.71728 3.46477 0
M  V30 5634 H 539.989 2.13594 3.45156 0
M  V30 5635 H 540.755 4.30272 2.2381 0
M  V30 5636 H 536.634 3.42094 3.09019 0
M  V30 5637 H 540.178 6.68939 1.97905 0
M  V30 5638 H 536.075 5.79928 2.83466 0
M  V30 5639 H 536.843 7.8275 2.39258 0
M  V30 5640 N 539.506 -0.963266 1.24736 0
M  V30 5641 C 540.746 -1.72172 1.10165 0
M  V30 5642 C 541.11 -1.88731 -0.352784 0
M  V30 5643 O 542.311 -2.61549 -0.620107 0
M  V30 5644 C 540.582 -3.0724 1.82589 0
M  V30 5645 S 542.141 -3.98449 1.83803 0
M  V30 5646 H 538.959 -0.591901 0.393922 0
M  V30 5647 H 541.561 -1.14955 1.58132 0
M  V30 5648 H 540.265 -2.92851 2.87518 0
M  V30 5649 H 539.796 -3.69521 1.34973 0
M  V30 5650 H 541.811 -4.87805 0.908883 0
M  V30 5651 N 540.985 -1.06182 -1.16461 0
M  V30 5652 C 541.948 -0.675723 -2.19013 0
M  V30 5653 C 542.948 0.277963 -1.58379 0
M  V30 5654 O 544.138 0.0604962 -1.74095 0
M  V30 5655 C 541.27 0.00591459 -3.40899 0
M  V30 5656 H 542.463 -1.58353 -2.54685 0
M  V30 5657 H 540.016 -0.856908 -1.30716 0
M  V30 5658 H 540.751 0.92652 -3.10783 0
M  V30 5659 H 540.536 -0.67984 -3.86161 0
M  V30 5660 H 542.026 0.26181 -4.16778 0
M  V30 5661 N 542.463 1.3308 -0.844243 0
M  V30 5662 C 543.711 1.97215 -0.441676 0
M  V30 5663 C 544.032 1.67185 1.0037 0
M  V30 5664 O 543.302 0.973588 1.69994 0
M  V30 5665 H 541.882 0.72959 -0.160335 0
M  V30 5666 H 544.544 1.62348 -1.07838 0
M  V30 5667 H 543.64 3.06698 -0.57815 0
M  V30 5668 N 543.941 0.601185 1.45683 0
M  V30 5669 C 545.19 0.0914953 2.01492 0
M  V30 5670 C 545.503 -1.28331 1.47616 0
M  V30 5671 O 546.709 -1.88537 1.95362 0
M  V30 5672 C 545.165 0.11291 3.59723 0
M  V30 5673 C 544.773 1.48717 4.22596 0
M  V30 5674 C 546.517 -0.341871 4.23121 0
M  V30 5675 C 544.424 1.46531 5.7296 0
M  V30 5676 H 543.354 0.0304365 0.753385 0
M  V30 5677 H 546.005 0.755568 1.67223 0
M  V30 5678 H 544.387 -0.617692 3.91153 0
M  V30 5679 H 545.561 2.23897 4.02749 0
M  V30 5680 H 543.876 1.88351 3.71366 0
M  V30 5681 H 546.473 -0.377304 5.33367 0
M  V30 5682 H 546.816 -1.36325 3.93346 0
M  V30 5683 H 547.349 0.335256 3.96385 0
M  V30 5684 H 544.088 2.46408 6.07423 0
M  V30 5685 H 543.608 0.755997 5.95017 0
M  V30 5686 H 545.287 1.18618 6.36034 0
M  V30 5687 N 545.419 -1.53889 0.339982 0
M  V30 5688 C 546.351 -2.22435 -0.55275 0
M  V30 5689 C 547.364 -1.22975 -1.06681 0
M  V30 5690 O 548.553 -1.49351 -0.977575 0
M  V30 5691 C 545.653 -2.8882 -1.77302 0
M  V30 5692 C 544.826 -4.14563 -1.39486 0
M  V30 5693 C 543.885 -4.64391 -2.47442 0
M  V30 5694 O 542.911 -5.28687 -2.10899 0
M  V30 5695 N 544.113 -4.40015 -3.78639 0
M  V30 5696 H 546.878 -2.9968 0.0342669 0
M  V30 5697 H 544.439 -1.61068 0.16394 0
M  V30 5698 H 546.431 -3.19072 -2.48948 0
M  V30 5699 H 545.001 -2.15182 -2.26749 0
M  V30 5700 H 544.221 -3.90896 -0.509321 0
M  V30 5701 H 545.509 -4.96362 -1.11813 0
M  V30 5702 H 544.907 -3.88586 -4.11118 0
M  V30 5703 H 543.464 -4.74881 -4.46465 0
M  V30 5704 N 546.897 -0.0685191 -1.57451 0
M  V30 5705 C 548.145 0.60016 -1.92983 0
M  V30 5706 C 548.466 1.70348 -0.949028 0
M  V30 5707 O 547.736 1.959 0.00335647 0
M  V30 5708 H 546.316 0.224682 -0.712409 0
M  V30 5709 H 548.978 -0.125605 -1.94495 0
M  V30 5710 H 548.074 1.02759 -2.94698 0
M  V30 5711 N 548.375 1.56261 0.205012 0
M  V30 5712 C 549.624 1.79236 0.925058 0
M  V30 5713 C 549.937 0.640011 1.84833 0
M  V30 5714 O 551.143 0.753809 2.60826 0
M  V30 5715 C 549.599 3.17475 1.69522 0
M  V30 5716 C 549.207 4.40482 0.817269 0
M  V30 5717 C 550.951 3.49766 2.4055 0
M  V30 5718 C 548.858 5.69744 1.58573 0
M  V30 5719 H 547.788 0.668287 0.349153 0
M  V30 5720 H 550.439 1.82629 0.178544 0
M  V30 5721 H 548.821 3.08304 2.48526 0
M  V30 5722 H 549.995 4.60752 0.0665988 0
M  V30 5723 H 548.31 4.15827 0.218316 0
M  V30 5724 H 550.907 4.43573 2.98575 0
M  V30 5725 H 551.25 2.73041 3.14252 0
M  V30 5726 H 551.783 3.60341 1.68522 0
M  V30 5727 H 548.522 6.49407 0.891679 0
M  V30 5728 H 548.042 5.53509 2.31059 0
M  V30 5729 H 549.721 6.1051 2.14212 0
M  V30 5730 N 549.853 -0.472356 1.50355 0
M  V30 5731 C 551.099 -1.22634 1.6152 0
M  V30 5732 C 551.432 -1.91645 0.313995 0
M  V30 5733 O 550.707 -1.82059 -0.684446 0
M  V30 5734 C 550.99 -2.27099 2.7946 0
M  V30 5735 C 550.843 -1.62402 4.19459 0
M  V30 5736 C 552.162 -3.28421 2.92964 0
M  V30 5737 H 549.281 -0.444494 0.587873 0
M  V30 5738 H 551.923 -0.520321 1.82737 0
M  V30 5739 H 550.073 -2.87314 2.61501 0
M  V30 5740 H 551.745 -1.05793 4.49005 0
M  V30 5741 H 549.988 -0.927184 4.23776 0
M  V30 5742 H 550.659 -2.38309 4.97909 0
M  V30 5743 H 553.135 -2.78227 3.09401 0
M  V30 5744 H 552.011 -3.98845 3.77113 0
M  V30 5745 H 552.272 -3.92467 2.03525 0
M  V30 5746 N 551.331 -1.39911 -0.725443 0
M  V30 5747 C 552.608 -1.28158 -1.47766 0
M  V30 5748 C 552.988 0.104545 -2.10841 0
M  V30 5749 O 552.336 1.11657 -1.99361 0
M  V30 5750 C 552.546 -2.41306 -2.52135 0
M  V30 5751 C 553.894 -2.81076 -3.18247 0
M  V30 5752 O 554.918 -2.40827 -2.62452 0
M  V30 5753 O 553.777 -3.50581 -4.19231 0
M  V30 5754 H 550.871 -0.502761 -0.656628 0
M  V30 5755 H 553.417 -1.51808 -0.758456 0
M  V30 5756 H 552.189 -3.33932 -2.03974 0
M  V30 5757 H 551.812 -2.19374 -3.31603 0
M  V30 5758 N 552.809 0.956637 -1.25245 0
M  V30 5759 C 553.772 2.03457 -1.05537 0
M  V30 5760 C 554.772 1.60798 -0.00886317 0
M  V30 5761 O 555.962 1.72384 -0.250865 0
M  V30 5762 C 553.094 3.35543 -0.601965 0
M  V30 5763 H 554.287 2.22372 -2.01223 0
M  V30 5764 H 551.84 1.13344 -1.07623 0
M  V30 5765 H 552.575 3.22323 0.357584 0
M  V30 5766 H 552.36 3.67854 -1.35743 0
M  V30 5767 H 553.85 4.14769 -0.485454 0
M  V30 5768 N 554.287 1.06798 1.15896 0
M  V30 5769 C 555.517 0.807522 1.90165 0
M  V30 5770 C 555.925 -0.642417 1.7796 0
M  V30 5771 O 555.268 -1.45193 1.12537 0
M  V30 5772 C 555.33 1.12939 3.41299 0
M  V30 5773 C 554.994 2.57879 3.7729 0
M  V30 5774 C 555.991 3.56118 3.78782 0
M  V30 5775 C 553.676 2.93311 4.07767 0
M  V30 5776 C 555.67 4.87827 4.10248 0
M  V30 5777 C 553.357 4.25219 4.38899 0
M  V30 5778 C 554.355 5.22287 4.4012 0
M  V30 5779 O 554.043 6.51826 4.70508 0
M  V30 5780 H 553.775 0.291946 0.609708 0
M  V30 5781 H 556.329 1.42627 1.47806 0
M  V30 5782 H 554.559 0.45359 3.84031 0
M  V30 5783 H 556.248 0.852363 3.9685 0
M  V30 5784 H 557.014 3.30086 3.55342 0
M  V30 5785 H 552.893 2.18409 4.05979 0
M  V30 5786 H 556.437 5.63586 4.11116 0
M  V30 5787 H 552.334 4.51006 4.61805 0
M  V30 5788 H 553.102 6.56893 4.88298 0
M  V30 5789 N 555.766 -1.3263 0.851289 0
M  V30 5790 C 557.182 -1.50162 0.5407 0
M  V30 5791 C 557.382 -1.78788 -0.929369 0
M  V30 5792 O 556.438 -1.85545 -1.71258 0
M  V30 5793 C 557.751 -2.64803 1.42478 0
M  V30 5794 C 559.299 -2.78688 1.42485 0
M  V30 5795 C 559.774 -3.96405 2.29407 0
M  V30 5796 N 561.265 -4.0366 2.27184 0
M  V30 5797 C 562 -4.93971 2.9117 0
M  V30 5798 N 561.496 -5.89313 3.64256 0
M  V30 5799 N 563.289 -4.87066 2.80576 0
M  V30 5800 H 555.44 -1.12315 1.80275 0
M  V30 5801 H 557.703 -0.553266 0.769806 0
M  V30 5802 H 557.409 -2.50368 2.46999 0
M  V30 5803 H 557.283 -3.60506 1.10974 0
M  V30 5804 H 559.67 -2.92547 0.387304 0
M  V30 5805 H 559.751 -1.83708 1.78002 0
M  V30 5806 H 559.395 -3.83304 3.33228 0
M  V30 5807 H 559.325 -4.90654 1.91224 0
M  V30 5808 H 561.816 -3.35435 1.74045 0
M  V30 5809 H 562.129 -6.54913 4.10255 0
M  V30 5810 H 560.474 -5.8935 3.68364 0
M  V30 5811 H 563.665 -4.11552 2.23031 0
M  V30 5812 H 563.838 -5.57248 3.30725 0
M  V30 5813 N 557.244 -0.608902 -1.45362 0
M  V30 5814 C 558.176 0.147318 -2.28726 0
M  V30 5815 C 559.189 0.830468 -1.40025 0
M  V30 5816 O 560.378 0.695636 -1.64387 0
M  V30 5817 C 557.478 1.22968 -3.15804 0
M  V30 5818 C 556.651 0.633391 -4.3279 0
M  V30 5819 C 555.71 1.60682 -5.01067 0
M  V30 5820 O 554.736 1.13261 -5.57818 0
M  V30 5821 N 555.938 2.94123 -5.00472 0
M  V30 5822 H 558.703 -0.568014 -2.94268 0
M  V30 5823 H 556.264 -0.448479 -1.55564 0
M  V30 5824 H 558.256 1.88072 -3.58345 0
M  V30 5825 H 556.826 1.84752 -2.52162 0
M  V30 5826 H 556.046 -0.195762 -3.93714 0
M  V30 5827 H 557.334 0.215255 -5.08344 0
M  V30 5828 H 556.732 3.3525 -4.55657 0
M  V30 5829 H 555.289 3.54646 -5.46872 0
M  V30 5830 N 558.722 1.53707 -0.348139 0
M  V30 5831 C 559.685 2.23812 0.494058 0
M  V30 5832 C 560.685 1.23989 1.02388 0
M  V30 5833 O 561.875 1.48395 0.912396 0
M  V30 5834 C 559.007 2.96133 1.68872 0
M  V30 5835 H 560.2 2.99663 -0.119141 0
M  V30 5836 H 557.753 1.55983 -0.0995539 0
M  V30 5837 H 558.488 2.24481 2.34049 0
M  V30 5838 H 558.273 3.69357 1.31596 0
M  V30 5839 H 559.763 3.49475 2.28597 0
M  V30 5840 N 560.2 0.0768682 1.57412 0
M  V30 5841 C 561.13 -0.886026 2.16037 0
M  V30 5842 C 562.111 -1.30691 1.08876 0
M  V30 5843 O 563.296 -1.37705 1.36934 0
M  V30 5844 C 560.426 -2.1518 2.72608 0
M  V30 5845 C 559.38 -1.87015 3.8498 0
M  V30 5846 C 558.706 -3.20266 4.28175 0
M  V30 5847 C 560.006 -1.17143 5.08994 0
M  V30 5848 H 561.7 -0.397642 2.96748 0
M  V30 5849 H 559.246 -0.189823 1.42743 0
M  V30 5850 H 561.199 -2.82962 3.12266 0
M  V30 5851 H 559.923 -2.66269 1.89125 0
M  V30 5852 H 558.582 -1.21636 3.45833 0
M  V30 5853 H 558.23 -3.69207 3.41607 0
M  V30 5854 H 557.93 -3.0221 5.03927 0
M  V30 5855 H 559.454 -3.89237 4.70454 0
M  V30 5856 H 560.868 -1.75003 5.45937 0
M  V30 5857 H 559.265 -1.09328 5.90057 0
M  V30 5858 H 560.335 -0.151295 4.84664 0
M  V30 5859 N 561.678 -1.56367 -0.196722 0
M  V30 5860 C 563.089 -1.70462 -0.761545 0
M  V30 5861 C 563.44 -0.683161 -1.83922 0
M  V30 5862 O 562.565 0.160753 -2.15802 0
M  V30 5863 C 563.16 -3.09057 -1.38814 0
M  V30 5864 C 561.719 -3.24922 -1.90007 0
M  V30 5865 C 560.866 -2.66412 -0.769399 0
M  V30 5866 H 563.817 -1.58675 0.0283263 0
M  V30 5867 H 563.838 -3.06296 -2.2575 0
M  V30 5868 H 563.35 -3.83378 -0.603559 0
M  V30 5869 H 561.451 -2.55514 -2.71189 0
M  V30 5870 H 561.564 -4.3241 -2.06297 0
M  V30 5871 H 559.928 -2.25546 -1.18326 0
M  V30 5872 H 560.711 -3.433 0.00291773 0
M  V30 5873 N 563.156 0.464375 -1.50603 0
M  V30 5874 C 564.088 1.57916 -1.66118 0
M  V30 5875 C 565.101 1.53497 -0.54246 0
M  V30 5876 O 566.29 1.58763 -0.815877 0
M  V30 5877 C 563.39 2.96809 -1.63577 0
M  V30 5878 C 562.563 3.26026 -2.91592 0
M  V30 5879 C 561.622 4.44506 -2.81604 0
M  V30 5880 O 560.648 4.44484 -3.55559 0
M  V30 5881 N 561.85 5.46549 -1.95614 0
M  V30 5882 H 564.615 1.45022 -2.62276 0
M  V30 5883 H 562.176 0.652903 -1.48151 0
M  V30 5884 H 564.168 3.74048 -1.54499 0
M  V30 5885 H 562.738 3.03438 -0.751262 0
M  V30 5886 H 561.958 2.37337 -3.14746 0
M  V30 5887 H 563.246 3.42361 -3.76386 0
M  V30 5888 H 562.644 5.49391 -1.34854 0
M  V30 5889 H 561.201 6.22746 -1.92435 0
M  V30 5890 N 564.634 1.40294 0.718013 0
M  V30 5891 C 565.88 1.38645 1.48005 0
M  V30 5892 C 566.213 -0.0121202 1.94196 0
M  V30 5893 O 565.488 -0.980309 1.67989 0
M  V30 5894 C 565.771 2.37379 2.70782 0
M  V30 5895 C 565.624 3.8625 2.30501 0
M  V30 5896 C 566.943 2.33685 3.72933 0
M  V30 5897 H 564.062 0.504928 0.536858 0
M  V30 5898 H 566.704 1.71411 0.819649 0
M  V30 5899 H 564.854 2.09568 3.27129 0
M  V30 5900 H 566.526 4.24879 1.79655 0
M  V30 5901 H 564.769 4.02202 1.6253 0
M  V30 5902 H 565.44 4.50847 3.18498 0
M  V30 5903 H 567.916 2.58314 3.2621 0
M  V30 5904 H 566.792 3.0482 4.56482 0
M  V30 5905 H 567.053 1.34765 4.21059 0
M  V30 5906 N 566.112 -0.949982 1.2575 0
M  V30 5907 C 567.528 -1.22191 1.02672 0
M  V30 5908 C 567.728 -1.99898 -0.253588 0
M  V30 5909 O 566.784 -2.33329 -0.965076 0
M  V30 5910 C 568.097 -1.99175 2.25277 0
M  V30 5911 C 569.645 -2.12201 2.30087 0
M  V30 5912 C 570.12 -2.92586 3.5236 0
M  V30 5913 N 571.611 -3.00163 3.52784 0
M  V30 5914 C 572.346 -3.62766 4.44059 0
M  V30 5915 N 571.842 -4.26943 5.45611 0
M  V30 5916 N 573.635 -3.59953 4.3173 0
M  V30 5917 H 565.786 -0.430258 2.07996 0
M  V30 5918 H 568.049 -0.252844 0.91366 0
M  V30 5919 H 567.755 -1.49479 3.18354 0
M  V30 5920 H 567.629 -2.99868 2.28821 0
M  V30 5921 H 570.016 -2.61093 1.3753 0
M  V30 5922 H 570.097 -1.10799 2.30559 0
M  V30 5923 H 569.741 -2.44383 4.45241 0
M  V30 5924 H 569.671 -3.94224 3.49134 0
M  V30 5925 H 572.162 -2.54529 2.79327 0
M  V30 5926 H 572.475 -4.72583 6.11461 0
M  V30 5927 H 570.82 -4.25557 5.49478 0
M  V30 5928 H 574.011 -3.09003 3.51617 0
M  V30 5929 H 574.184 -4.08455 5.03059 0
M  V30 5930 N 567.59 -1.07411 -1.15328 0
M  V30 5931 C 568.52 -0.716472 -2.22236 0
M  V30 5932 C 569.501 0.296373 -1.67498 0
M  V30 5933 O 570.686 0.168989 -1.93463 0
M  V30 5934 C 567.816 -0.114142 -3.47112 0
M  V30 5935 C 566.77 -1.05421 -4.14814 0
M  V30 5936 C 566.096 -0.314604 -5.33774 0
M  V30 5937 C 567.396 -2.38808 -4.64508 0
M  V30 5938 H 569.09 -1.61029 -2.52408 0
M  V30 5939 H 566.636 -0.775702 -1.21321 0
M  V30 5940 H 568.589 0.148001 -4.2114 0
M  V30 5941 H 567.313 0.814755 -3.16274 0
M  V30 5942 H 565.972 -1.30128 -3.42728 0
M  V30 5943 H 565.62 0.617772 -4.99192 0
M  V30 5944 H 565.32 -0.941209 -5.80013 0
M  V30 5945 H 566.844 -0.0602747 -6.1057 0
M  V30 5946 H 568.258 -2.18424 -5.3006 0
M  V30 5947 H 566.655 -2.97069 -5.21412 0
M  V30 5948 H 567.725 -3.01067 -3.80114 0
M  V30 5949 N 569.068 1.32177 -0.85831 0
M  V30 5950 C 570.298 2.01021 -0.476889 0
M  V30 5951 C 570.706 1.64653 0.931995 0
M  V30 5952 O 570.049 0.865713 1.62022 0
M  V30 5953 C 570.111 3.55413 -0.540528 0
M  V30 5954 C 569.775 4.1522 -1.90895 0
M  V30 5955 C 570.772 4.3318 -2.87491 0
M  V30 5956 C 568.457 4.51212 -2.20709 0
M  V30 5957 C 570.451 4.86306 -4.1205 0
M  V30 5958 C 568.138 5.04042 -3.45521 0
M  V30 5959 C 569.136 5.21538 -4.41007 0
M  V30 5960 O 568.824 5.73238 -5.63608 0
M  V30 5961 H 568.556 0.650059 -0.18547 0
M  V30 5962 H 571.11 1.69648 -1.15796 0
M  V30 5963 H 569.34 3.86196 0.19741 0
M  V30 5964 H 571.029 4.05526 -0.174191 0
M  V30 5965 H 571.795 4.05704 -2.65762 0
M  V30 5966 H 567.674 4.36878 -1.4717 0
M  V30 5967 H 571.218 4.99877 -4.86589 0
M  V30 5968 H 567.115 5.30952 -3.67098 0
M  V30 5969 H 567.883 5.91625 -5.65617 0
M  V30 5970 N 570.547 0.616602 1.45037 0
M  V30 5971 C 571.795 0.115103 2.01772 0
M  V30 5972 C 572.116 -1.2622 1.48639 0
M  V30 5973 O 571.386 -1.83563 0.684199 0
M  V30 5974 H 569.966 0.0395607 0.745952 0
M  V30 5975 H 572.628 0.800032 1.77723 0
M  V30 5976 H 571.724 0.0717274 3.12018 0
M  V30 5977 N 572.025 -1.5352 0.356285 0
M  V30 5978 C 573.436 -1.86282 -0.12492 0
M  V30 5979 C 573.787 -1.27717 -1.48939 0
M  V30 5980 O 572.912 -0.595614 -2.08042 0
M  V30 5981 C 573.507 -3.37995 -0.23345 0
M  V30 5982 C 572.066 -3.70588 -0.658899 0
M  V30 5983 C 571.213 -2.76581 0.199596 0
M  V30 5984 H 574.164 -1.47901 0.575423 0
M  V30 5985 H 574.185 -3.65475 -1.0587 0
M  V30 5986 H 573.697 -3.8059 0.759776 0
M  V30 5987 H 571.798 -3.33544 -1.66069 0
M  V30 5988 H 571.911 -4.77076 -0.439957 0
M  V30 5989 H 570.275 -2.52552 -0.330076 0
M  V30 5990 H 571.058 -3.22008 1.19019 0
M  V30 5991 N 573.503 -0.0852151 -1.57369 0
M  V30 5992 C 574.731 0.58946 -1.98325 0
M  V30 5993 C 575.146 1.62333 -0.96403 0
M  V30 5994 O 574.503 1.82438 0.0476395 0
M  V30 5995 C 574.554 1.24604 -3.39347 0
M  V30 5996 O 574.275 0.253532 -4.37366 0
M  V30 5997 C 575.776 2.00726 -3.95252 0
M  V30 5998 H 572.996 0.158783 -0.651942 0
M  V30 5999 H 575.54 -0.161584 -2.03861 0
M  V30 6000 H 573.695 1.94808 -3.34856 0
M  V30 6001 H 574.109 0.726207 -5.19448 0
M  V30 6002 H 575.583 2.42039 -4.96106 0
M  V30 6003 H 576.06 2.86919 -3.32527 0
M  V30 6004 H 576.666 1.3536 -4.03185 0
M  V30 6005 N 574.981 1.5647 0.188427 0
M  V30 6006 C 575.929 1.95971 1.25293 0
M  V30 6007 C 576.923 0.846047 1.4676 0
M  V30 6008 O 578.129 1.03109 1.47542 0
M  V30 6009 H 574.504 0.623253 0.420784 0
M  V30 6010 H 576.475 2.84731 0.892792 0
M  V30 6011 C 575.224 2.32116 2.58877 0
M  V30 6012 H 574.547 3.17341 2.43176 0
M  V30 6013 H 575.987 2.63613 3.3209 0
M  V30 6014 C 574.446 1.15823 3.16365 0
M  V30 6015 O 574.976 0.436785 3.99318 0
M  V30 6016 N 573.182 0.933278 2.75206 0
M  V30 6017 H 572.729 1.52169 2.07852 0
M  V30 6018 H 572.687 0.156976 3.14008 0
M  V30 6019 N 576.459 -0.456382 1.50847 0
M  V30 6020 C 577.706 -1.20736 1.62571 0
M  V30 6021 C 578.034 -1.9163 0.332904 0
M  V30 6022 O 577.289 -1.8343 -0.682058 0
M  V30 6023 C 577.588 -2.26336 2.76599 0
M  V30 6024 C 577.254 -1.7259 4.16562 0
M  V30 6025 C 575.916 -1.57654 4.54641 0
M  V30 6026 C 578.268 -1.32877 5.03977 0
M  V30 6027 C 575.596 -1.0145 5.77862 0
M  V30 6028 C 577.948 -0.7811 6.27759 0
M  V30 6029 C 576.612 -0.618488 6.64628 0
M  V30 6030 H 575.882 -0.441803 0.594888 0
M  V30 6031 H 578.529 -0.501169 1.84826 0
M  V30 6032 H 576.834 -3.0292 2.48489 0
M  V30 6033 H 578.531 -2.84227 2.82871 0
M  V30 6034 H 575.121 -1.85187 3.86528 0
M  V30 6035 H 579.305 -1.43245 4.75179 0
M  V30 6036 H 574.561 -0.876109 6.0509 0
M  V30 6037 H 578.735 -0.464783 6.94847 0
M  V30 6038 H 576.362 -0.180838 7.59985 0
M  V30 6039 N 577.937 -1.40673 -0.710563 0
M  V30 6040 C 578.9 -1.4108 -1.80635 0
M  V30 6041 C 579.9 -0.303783 -1.57904 0
M  V30 6042 O 581.09 -0.562937 -1.64853 0
M  V30 6043 C 578.222 -1.20748 -3.18799 0
M  V30 6044 H 579.415 -2.38612 -1.81671 0
M  V30 6045 H 576.968 -1.26595 -0.916704 0
M  V30 6046 H 577.703 -0.239964 -3.23411 0
M  V30 6047 H 577.488 -2.00941 -3.36698 0
M  V30 6048 H 578.978 -1.23833 -3.98817 0
M  V30 6049 N 579.415 0.9433 -1.26252 0
M  V30 6050 C 580.826 1.50404 -1.10614 0
M  V30 6051 C 581.177 1.93666 0.31429 0
M  V30 6052 O 580.302 1.79709 1.20555 0
M  V30 6053 C 580.897 2.73336 -2.00182 0
M  V30 6054 C 579.456 3.25686 -1.88695 0
M  V30 6055 C 578.603 1.98474 -1.93658 0
M  V30 6056 H 581.554 0.759006 -1.39373 0
M  V30 6057 H 581.575 3.47567 -1.54847 0
M  V30 6058 H 581.087 2.41818 -3.03555 0
M  V30 6059 H 579.188 3.61998 -0.882489 0
M  V30 6060 H 579.301 3.92935 -2.74115 0
M  V30 6061 H 577.665 2.14278 -1.37684 0
M  V30 6062 H 578.448 1.6929 -2.98657 0
M  V30 6063 N 580.893 1.08022 1.14757 0
M  V30 6064 C 582.142 0.802468 1.8505 0
M  V30 6065 C 582.455 -0.674061 1.83619 0
M  V30 6066 O 583.661 -1.06683 2.49662 0
M  V30 6067 C 582.117 1.38551 3.32162 0
M  V30 6068 C 581.725 2.89354 3.42021 0
M  V30 6069 C 583.469 1.18608 4.07594 0
M  V30 6070 C 581.376 3.40815 4.83321 0
M  V30 6071 H 580.306 0.296518 0.693248 0
M  V30 6072 H 582.957 1.30114 1.29393 0
M  V30 6073 H 581.339 0.814556 3.87532 0
M  V30 6074 H 582.513 3.52552 2.96722 0
M  V30 6075 H 580.828 3.08165 2.80041 0
M  V30 6076 H 583.425 1.54525 5.11885 0
M  V30 6077 H 583.768 0.125599 4.1611 0
M  V30 6078 H 584.301 1.72375 3.58513 0
M  V30 6079 H 581.04 4.46418 4.79991 0
M  V30 6080 H 580.56 2.82374 5.29174 0
M  V30 6081 H 582.239 3.37171 5.522 0
M  V30 6082 N 582.371 -1.3172 0.865308 0
M  V30 6083 C 583.62 -1.96145 0.470098 0
M  V30 6084 C 583.933 -1.69182 -0.981674 0
M  V30 6085 O 585.139 -2.27431 -1.48281 0
M  V30 6086 C 583.595 -3.51129 0.789732 0
M  V30 6087 C 583.203 -3.86938 2.25795 0
M  V30 6088 C 584.947 -4.2197 0.462765 0
M  V30 6089 C 582.854 -5.35012 2.52024 0
M  V30 6090 H 581.784 -0.734105 0.172065 0
M  V30 6091 H 584.435 -1.49959 1.05757 0
M  V30 6092 H 582.817 -3.95781 0.131571 0
M  V30 6093 H 583.991 -3.5326 2.95879 0
M  V30 6094 H 582.306 -3.29149 2.55049 0
M  V30 6095 H 584.903 -5.30904 0.636019 0
M  V30 6096 H 585.246 -4.12005 -0.59645 0
M  V30 6097 H 585.779 -3.82936 1.07727 0
M  V30 6098 H 582.518 -5.50008 3.56611 0
M  V30 6099 H 582.038 -5.70058 1.8653 0
M  V30 6100 H 583.717 -6.0222 2.36515 0
M  V30 6101 N 583.85 -0.624285 -1.44708 0
M  V30 6102 C 584.798 0.0969952 -2.32398 0
M  V30 6103 C 585.792 0.842762 -1.46949 0
M  V30 6104 O 586.998 0.756436 -1.63334 0
M  V30 6105 H 583.373 0.0501306 -0.750327 0
M  V30 6106 H 585.344 -0.660767 -2.90992 0
M  V30 6107 C 584.093 1.06967 -3.30837 0
M  V30 6108 H 583.416 0.505242 -3.96595 0
M  V30 6109 H 584.856 1.54397 -3.94889 0
M  V30 6110 C 583.315 2.15153 -2.5925 0
M  V30 6111 O 583.845 3.23139 -2.3863 0
M  V30 6112 N 582.051 1.90898 -2.19103 0
M  V30 6113 H 581.598 1.03086 -2.36074 0
M  V30 6114 H 581.556 2.63485 -1.71531 0
M  V30 6115 N 585.328 1.53329 -0.364422 0
M  V30 6116 C 586.278 2.22472 0.499024 0
M  V30 6117 C 587.262 1.21952 1.0496 0
M  V30 6118 O 588.454 1.47405 0.979836 0
M  V30 6119 C 585.583 3.01659 1.6388 0
M  V30 6120 C 584.669 4.09555 1.10116 0
M  V30 6121 N 585.06 5.04988 0.286414 0
M  V30 6122 C 583.358 4.2424 1.37608 0
M  V30 6123 C 584.059 5.81699 -0.00781682 0
M  V30 6124 N 583.035 5.40394 0.589494 0
M  V30 6125 H 586.837 2.93611 -0.130284 0
M  V30 6126 H 584.351 1.61483 -0.172377 0
M  V30 6127 H 586.348 3.4971 2.26954 0
M  V30 6128 H 585.008 2.32051 2.27118 0
M  V30 6129 H 586.019 5.17847 -0.0742839 0
M  V30 6130 H 582.696 3.65858 2.01133 0
M  V30 6131 H 584.086 6.68587 -0.666394 0
M  V30 6132 N 586.806 0.0935595 1.57322 0
M  V30 6133 C 588.052 -0.571355 1.94585 0
M  V30 6134 C 588.385 -1.67929 0.975366 0
M  V30 6135 O 587.66 -1.94498 0.00816206 0
M  V30 6136 C 587.943 -1.12797 3.41978 0
M  V30 6137 C 587.796 -0.0251881 4.49793 0
M  V30 6138 C 589.115 -2.02682 3.90651 0
M  V30 6139 H 586.234 -0.206223 0.70756 0
M  V30 6140 H 588.876 0.163956 1.89291 0
M  V30 6141 H 587.026 -1.75461 3.4662 0
M  V30 6142 H 588.698 0.608979 4.57263 0
M  V30 6143 H 586.941 0.641399 4.29032 0
M  V30 6144 H 587.612 -0.455433 5.50118 0
M  V30 6145 H 590.088 -1.49925 3.88152 0
M  V30 6146 H 588.964 -2.38555 4.94351 0
M  V30 6147 H 589.225 -2.94362 3.29854 0
M  V30 6148 N 588.284 -1.56567 -0.180126 0
M  V30 6149 C 589.247 -1.94852 -1.20686 0
M  V30 6150 C 590.247 -0.831212 -1.3765 0
M  V30 6151 O 591.437 -1.09841 -1.35206 0
M  V30 6152 C 588.569 -2.23565 -2.57355 0
M  V30 6153 H 589.762 -2.86722 -0.879225 0
M  V30 6154 H 587.315 -1.50489 -0.422237 0
M  V30 6155 H 588.05 -1.34381 -2.95148 0
M  V30 6156 H 587.835 -3.04999 -2.46411 0
M  V30 6157 H 589.325 -2.54137 -3.31367 0
M  V30 6158 N 589.762 0.448376 -1.51087 0
M  V30 6159 C 591.178 0.783984 -1.39017 0
M  V30 6160 C 591.378 1.96087 -0.463904 0
M  V30 6161 O 590.434 2.52357 0.0850534 0
M  V30 6162 C 591.747 1.07471 -2.80839 0
M  V30 6163 C 593.295 1.17981 -2.89913 0
M  V30 6164 C 593.77 1.50354 -4.32617 0
M  V30 6165 N 595.261 1.57301 -4.35673 0
M  V30 6166 C 595.996 1.839 -5.4311 0
M  V30 6167 N 595.492 2.08365 -6.60724 0
M  V30 6168 N 597.285 1.8559 -5.30578 0
M  V30 6169 H 589.436 -0.326881 -2.0987 0
M  V30 6170 H 591.699 -0.0838006 -0.944289 0
M  V30 6171 H 591.405 0.282768 -3.50561 0
M  V30 6172 H 591.279 2.00519 -3.19487 0
M  V30 6173 H 593.666 1.9624 -2.20395 0
M  V30 6174 H 593.747 0.228603 -2.54776 0
M  V30 6175 H 593.391 0.726273 -5.0268 0
M  V30 6176 H 593.321 2.46663 -4.65258 0
M  V30 6177 H 595.812 1.40342 -3.50874 0
M  V30 6178 H 596.125 2.27999 -7.38401 0
M  V30 6179 H 594.47 2.0571 -6.63859 0
M  V30 6180 H 597.661 1.65989 -4.37682 0
M  V30 6181 H 597.834 2.05983 -6.1439 0
M  V30 6182 N 591.24 1.41047 0.703093 0
M  V30 6183 C 592.487 1.4 1.46309 0
M  V30 6184 C 592.815 0.00654574 1.94499 0
M  V30 6185 O 592.07 -0.980255 1.6938 0
M  V30 6186 C 592.369 2.34686 2.6955 0
M  V30 6187 C 592.035 3.81684 2.40058 0
M  V30 6188 C 590.697 4.21731 2.31725 0
M  V30 6189 C 593.049 4.74525 2.15581 0
M  V30 6190 C 590.377 5.52637 1.97001 0
M  V30 6191 C 592.729 6.05744 1.82366 0
M  V30 6192 C 591.393 6.44819 1.72524 0
M  V30 6193 H 590.663 0.512295 0.535382 0
M  V30 6194 H 593.31 1.73792 0.804275 0
M  V30 6195 H 591.615 1.94122 3.40329 0
M  V30 6196 H 593.312 2.31152 3.27673 0
M  V30 6197 H 589.902 3.49963 2.47435 0
M  V30 6198 H 594.086 4.44395 2.20968 0
M  V30 6199 H 589.342 5.81802 1.87928 0
M  V30 6200 H 593.516 6.77189 1.62444 0
M  V30 6201 H 591.143 7.46168 1.45385 0
M  V30 6202 N 592.718 -0.936591 1.26751 0
M  V30 6203 C 593.681 -2.01752 1.08761 0
M  V30 6204 C 594.681 -1.60763 0.0344435 0
M  V30 6205 O 595.871 -1.71963 0.278258 0
M  V30 6206 C 593.003 -3.34543 0.655271 0
M  V30 6207 H 594.196 -2.19143 2.04735 0
M  V30 6208 H 591.749 -1.11618 1.09413 0
M  V30 6209 H 592.484 -3.22851 -0.30626 0
M  V30 6210 H 592.269 -3.65647 1.41578 0
M  V30 6211 H 593.759 -4.13944 0.551378 0
M  V30 6212 N 594.196 -1.08629 -1.14182 0
M  V30 6213 C 595.159 -0.722027 -2.1753 0
M  V30 6214 C 596.159 0.244305 -1.58933 0
M  V30 6215 O 597.349 0.0235545 -1.74184 0
M  V30 6216 C 594.481 -0.0663966 -3.40835 0
M  V30 6217 H 595.674 -1.63719 -2.51269 0
M  V30 6218 H 593.227 -0.884442 -1.28869 0
M  V30 6219 H 593.962 0.860389 -3.12678 0
M  V30 6220 H 593.747 -0.761598 -3.84632 0
M  V30 6221 H 595.237 0.173346 -4.1724 0
M  V30 6222 N 595.674 1.31259 -0.872281 0
M  V30 6223 C 596.606 2.27396 -0.28697 0
M  V30 6224 C 597.619 1.53181 0.551297 0
M  V30 6225 O 598.808 1.74561 0.372914 0
M  V30 6226 C 595.908 3.33335 0.611617 0
M  V30 6227 C 595.081 4.36966 -0.194729 0
M  V30 6228 C 594.14 5.22387 0.632358 0
M  V30 6229 O 593.166 5.69169 0.0595691 0
M  V30 6230 N 594.368 5.46985 1.94391 0
M  V30 6231 H 597.133 2.78261 -1.11314 0
M  V30 6232 H 594.694 1.44306 -0.733994 0
M  V30 6233 H 596.686 3.87398 1.17068 0
M  V30 6234 H 595.256 2.82496 1.33846 0
M  V30 6235 H 594.476 3.82945 -0.935241 0
M  V30 6236 H 595.764 5.03273 -0.747935 0
M  V30 6237 H 595.162 5.10737 2.43237 0
M  V30 6238 H 593.719 6.03973 2.45071 0
M  V30 6239 N 597.152 0.631951 1.44375 0
M  V30 6240 C 598.115 -0.0628142 2.29114 0
M  V30 6241 C 599.115 -0.771494 1.41084 0
M  V30 6242 O 600.305 -0.615959 1.62947 0
M  V30 6243 C 597.437 -1.09953 3.22681 0
M  V30 6244 H 598.63 0.682509 2.92031 0
M  V30 6245 H 596.183 0.392128 1.51301 0
M  V30 6246 H 596.918 -1.87481 2.64616 0
M  V30 6247 H 596.703 -0.595286 3.87555 0
M  V30 6248 H 598.193 -1.58538 3.86336 0
M  V30 6249 N 598.631 -1.53133 0.372548 0
M  V30 6250 C 599.594 -2.24569 -0.458389 0
M  V30 6251 C 600.594 -1.25603 -1.00402 0
M  V30 6252 O 601.784 -1.49827 -0.888672 0
M  V30 6253 C 598.916 -2.98783 -1.6414 0
M  V30 6254 H 600.109 -2.99436 0.166799 0
M  V30 6255 H 597.662 -1.55805 0.124357 0
M  V30 6256 H 598.397 -2.28176 -2.30448 0
M  V30 6257 H 598.182 -3.71404 -1.25704 0
M  V30 6258 H 599.672 -3.53068 -2.23008 0
M  V30 6259 N 600.109 -0.101901 -1.5727 0
M  V30 6260 C 601.059 0.865346 -2.1094 0
M  V30 6261 C 602.043 1.2394 -1.02605 0
M  V30 6262 O 603.235 1.21334 -1.28868 0
M  V30 6263 C 600.364 2.12187 -2.69874 0
M  V30 6264 C 599.45 1.77295 -3.85263 0
M  V30 6265 N 599.841 1.12993 -4.93017 0
M  V30 6266 C 598.139 2.06862 -3.95126 0
M  V30 6267 C 598.84 0.968631 -5.73579 0
M  V30 6268 N 597.816 1.48814 -5.22834 0
M  V30 6269 H 601.618 0.364368 -2.91633 0
M  V30 6270 H 599.132 0.101104 -1.62085 0
M  V30 6271 H 601.129 2.82431 -3.06657 0
M  V30 6272 H 599.789 2.62844 -1.90639 0
M  V30 6273 H 600.8 0.795935 -5.11747 0
M  V30 6274 H 597.477 2.59686 -3.26909 0
M  V30 6275 H 598.867 0.465231 -6.70287 0
M  V30 6276 N 601.587 1.56661 0.17182 0
M  V30 6277 C 602.519 1.92934 1.2373 0
M  V30 6278 C 603.532 0.822385 1.40502 0
M  V30 6279 O 604.721 1.10083 1.40514 0
M  V30 6280 C 601.821 2.16651 2.60607 0
M  V30 6281 C 600.994 3.47878 2.6514 0
M  V30 6282 C 600.053 3.60429 3.83377 0
M  V30 6283 O 599.079 4.33051 3.69398 0
M  V30 6284 N 600.281 2.95241 4.99813 0
M  V30 6285 H 603.046 2.84931 0.929205 0
M  V30 6286 H 600.607 1.5781 0.361588 0
M  V30 6287 H 602.599 2.22312 3.38171 0
M  V30 6288 H 601.169 1.3104 2.83809 0
M  V30 6289 H 600.389 3.53879 1.73675 0
M  V30 6290 H 601.677 4.34232 2.6518 0
M  V30 6291 H 601.075 2.3611 5.14071 0
M  V30 6292 H 599.632 3.06499 5.75241 0
M  V30 6293 N 603.065 -0.440357 1.51323 0
M  V30 6294 C 604.313 -1.18769 1.63518 0
M  V30 6295 C 604.634 -1.91793 0.352201 0
M  V30 6296 O 603.904 -1.85432 -0.631811 0
M  V30 6297 H 602.484 -0.441408 0.602634 0
M  V30 6298 H 605.146 -0.505162 1.8824 0
M  V30 6299 H 604.242 -1.91892 2.46138 0
M  V30 6300 N 604.543 -1.41418 -0.695603 0
M  V30 6301 C 605.771 -1.4413 -1.48439 0
M  V30 6302 C 606.186 -0.0465698 -1.88743 0
M  V30 6303 O 605.543 0.934117 -1.56782 0
M  V30 6304 C 605.594 -2.34998 -2.74696 0
M  V30 6305 O 605.315 -3.69043 -2.36091 0
M  V30 6306 C 606.816 -2.46513 -3.68438 0
M  V30 6307 H 604.036 -0.490905 -0.457442 0
M  V30 6308 H 606.58 -1.85702 -0.856454 0
M  V30 6309 H 604.735 -1.96735 -3.33728 0
M  V30 6310 H 605.149 -4.17505 -3.17474 0
M  V30 6311 H 606.623 -3.1426 -4.53811 0
M  V30 6312 H 607.1 -1.49638 -4.12922 0
M  V30 6313 H 607.706 -2.85412 -3.1531 0
M  V30 6314 N 606.021 0.929856 -1.27246 0
M  V30 6315 C 606.984 2.01172 -1.09829 0
M  V30 6316 C 607.984 1.60743 -0.0429687 0
M  V30 6317 O 609.174 1.71813 -0.287373 0
M  V30 6318 C 606.306 3.34191 -0.673003 0
M  V30 6319 H 607.499 2.18054 -2.05895 0
M  V30 6320 H 605.052 1.11036 -1.10003 0
M  V30 6321 H 605.787 3.23009 0.289134 0
M  V30 6322 H 605.572 3.64892 -1.43515 0
M  V30 6323 H 607.062 4.13646 -0.573323 0
M  V30 6324 N 607.499 1.09233 1.13605 0
M  V30 6325 C 608.724 0.849067 1.89224 0
M  V30 6326 C 609.149 -0.593875 1.78479 0
M  V30 6327 O 608.507 -1.41703 1.13092 0
M  V30 6328 C 608.555 1.28642 3.36873 0
M  V30 6329 O 607.659 0.44363 4.10007 0
M  V30 6330 H 607 0.30767 0.588417 0
M  V30 6331 H 609.53 1.45595 1.43748 0
M  V30 6332 H 609.54 1.27096 3.87699 0
M  V30 6333 H 608.215 2.33729 3.44011 0
M  V30 6334 H 606.792 0.523241 3.69211 0
M  V30 6335 N 608.977 -1.30795 0.87923 0
M  V30 6336 C 609.909 -2.27241 0.299025 0
M  V30 6337 C 610.922 -1.53472 -0.543166 0
M  V30 6338 O 612.111 -1.74756 -0.363651 0
M  V30 6339 C 609.211 -3.33655 -0.593931 0
M  V30 6340 C 608.384 -4.36857 0.2179 0
M  V30 6341 C 607.443 -5.22715 -0.604646 0
M  V30 6342 O 606.469 -5.69192 -0.0293838 0
M  V30 6343 N 607.671 -5.48008 -1.91488 0
M  V30 6344 H 610.436 -2.77667 1.12788 0
M  V30 6345 H 607.997 -1.43914 0.741637 0
M  V30 6346 H 609.989 -3.88013 -1.15012 0
M  V30 6347 H 608.559 -2.83202 -1.32346 0
M  V30 6348 H 607.779 -3.82444 0.955536 0
M  V30 6349 H 609.067 -5.02869 0.774614 0
M  V30 6350 H 608.465 -5.1202 -2.40525 0
M  V30 6351 H 607.022 -6.05264 -2.41864 0
M  V30 6352 N 610.455 -0.639598 -1.44038 0
M  V30 6353 C 611.685 -0.154586 -2.06021 0
M  V30 6354 C 612.093 1.17951 -1.47933 0
M  V30 6355 O 611.436 1.73627 -0.59994 0
M  V30 6356 C 611.498 0.0255459 -3.59491 0
M  V30 6357 C 611.162 -1.2317 -4.40089 0
M  V30 6358 C 612.159 -2.15735 -4.73027 0
M  V30 6359 C 609.844 -1.46949 -4.80324 0
M  V30 6360 C 611.838 -3.30382 -5.45093 0
M  V30 6361 C 609.525 -2.61891 -5.52138 0
M  V30 6362 C 610.523 -3.53433 -5.84443 0
M  V30 6363 O 610.211 -4.6637 -6.54793 0
M  V30 6364 H 609.943 -0.0808543 -0.671147 0
M  V30 6365 H 612.497 -0.876541 -1.85758 0
M  V30 6366 H 610.727 0.802733 -3.78276 0
M  V30 6367 H 612.416 0.466184 -4.03214 0
M  V30 6368 H 613.182 -1.98602 -4.42473 0
M  V30 6369 H 609.061 -0.765815 -4.54595 0
M  V30 6370 H 612.605 -4.01856 -5.70226 0
M  V30 6371 H 608.502 -2.78964 -5.82108 0
M  V30 6372 H 609.27 -4.6546 -6.73267 0
M  V30 6373 N 611.933 1.52934 -0.380664 0
M  V30 6374 C 613.18 2.01467 0.204278 0
M  V30 6375 C 613.508 1.26744 1.47533 0
M  V30 6376 O 612.763 0.353723 1.92477 0
M  V30 6377 C 613.062 3.5349 0.527199 0
M  V30 6378 C 612.728 4.46171 -0.651295 0
M  V30 6379 C 611.39 4.71227 -0.974619 0
M  V30 6380 C 613.742 5.00909 -1.44012 0
M  V30 6381 C 611.07 5.4827 -2.08847 0
M  V30 6382 C 613.422 5.7917 -2.5445 0
M  V30 6383 C 612.086 6.02507 -2.87301 0
M  V30 6384 H 611.356 0.73722 0.0747504 0
M  V30 6385 H 614.003 1.84411 -0.516234 0
M  V30 6386 H 612.308 3.68574 1.32892 0
M  V30 6387 H 614.005 3.88529 0.992283 0
M  V30 6388 H 610.595 4.26829 -0.389276 0
M  V30 6389 H 614.779 4.81485 -1.20357 0
M  V30 6390 H 610.035 5.64567 -2.34679 0
M  V30 6391 H 614.209 6.20588 -3.1598 0
M  V30 6392 H 611.836 6.61989 -3.7373 0
M  V30 6393 N 613.412 0.11024 1.57214 0
M  V30 6394 C 614.345 -0.880224 2.1054 0
M  V30 6395 C 615.323 -1.26658 1.01964 0
M  V30 6396 O 616.507 -1.36917 1.29561 0
M  V30 6397 C 613.634 -2.17676 2.59489 0
M  V30 6398 C 612.68 -1.93914 3.79868 0
M  V30 6399 S 613.513 -1.16336 5.2271 0
M  V30 6400 C 614.669 -2.47188 5.75021 0
M  V30 6401 H 614.902 -0.426614 2.94223 0
M  V30 6402 H 612.435 -0.10336 1.54054 0
M  V30 6403 H 614.393 -2.92175 2.88347 0
M  V30 6404 H 613.054 -2.60156 1.76005 0
M  V30 6405 H 612.247 -2.8996 4.12236 0
M  V30 6406 H 611.849 -1.27539 3.51582 0
M  V30 6407 H 614.141 -3.43079 5.84211 0
M  V30 6408 H 615.084 -2.19377 6.7326 0
M  V30 6409 H 615.492 -2.56154 5.03036 0
M  V30 6410 N 614.89 -1.56749 -0.16351 0
M  V30 6411 C 615.82 -2.00042 -1.20438 0
M  V30 6412 C 616.801 -0.877256 -1.45733 0
M  V30 6413 O 617.986 -1.1439 -1.56935 0
M  V30 6414 C 615.116 -2.36697 -2.54149 0
M  V30 6415 C 614.07 -3.52046 -2.43408 0
M  V30 6416 C 613.396 -3.74466 -3.81679 0
M  V30 6417 C 614.696 -4.85247 -1.93216 0
M  V30 6418 H 616.39 -2.87244 -0.844477 0
M  V30 6419 H 613.936 -1.38194 -0.40478 0
M  V30 6420 H 615.889 -2.65582 -3.27176 0
M  V30 6421 H 614.613 -1.46414 -2.91943 0
M  V30 6422 H 613.272 -3.23301 -1.72834 0
M  V30 6423 H 612.92 -2.81461 -4.1688 0
M  V30 6424 H 612.62 -4.52084 -3.75359 0
M  V30 6425 H 614.144 -4.0576 -4.5628 0
M  V30 6426 H 615.558 -5.12957 -2.56023 0
M  V30 6427 H 613.955 -5.66556 -1.97825 0
M  V30 6428 H 615.025 -4.7672 -0.88689 0
M  V30 6429 N 616.368 0.432326 -1.51554 0
M  V30 6430 C 617.298 1.53242 -1.76179 0
M  V30 6431 C 618.279 1.58717 -0.611801 0
M  V30 6432 O 619.464 1.74364 -0.855033 0
M  V30 6433 C 616.594 2.91278 -1.89141 0
M  V30 6434 C 615.548 3.00663 -3.04608 0
M  V30 6435 C 614.874 4.40728 -3.02759 0
M  V30 6436 C 616.174 2.74281 -4.44485 0
M  V30 6437 H 617.868 1.32886 -2.68294 0
M  V30 6438 H 615.414 0.637841 -1.29103 0
M  V30 6439 H 617.367 3.68203 -2.04951 0
M  V30 6440 H 616.091 3.12877 -0.936785 0
M  V30 6441 H 614.75 2.26179 -2.88511 0
M  V30 6442 H 614.398 4.59301 -2.05065 0
M  V30 6443 H 614.098 4.47936 -3.80299 0
M  V30 6444 H 615.622 5.19619 -3.20669 0
M  V30 6445 H 617.036 3.40936 -4.60907 0
M  V30 6446 H 615.433 2.92893 -5.23769 0
M  V30 6447 H 616.503 1.69856 -4.54177 0
M  V30 6448 N 617.846 1.41785 0.688094 0
M  V30 6449 C 618.776 1.47 1.8142 0
M  V30 6450 C 619.757 0.327881 1.6691 0
M  V30 6451 O 620.942 0.540362 1.86531 0
M  V30 6452 C 618.072 1.35876 3.19617 0
M  V30 6453 C 617.026 2.47976 3.48844 0
M  V30 6454 C 616.352 2.21915 4.86475 0
M  V30 6455 C 617.652 3.90309 3.47068 0
M  V30 6456 H 619.346 2.41247 1.77314 0
M  V30 6457 H 616.892 1.16116 0.851651 0
M  V30 6458 H 618.845 1.38134 3.98117 0
M  V30 6459 H 617.569 0.38116 3.24368 0
M  V30 6460 H 616.228 2.45013 2.72698 0
M  V30 6461 H 615.876 1.2248 4.8786 0
M  V30 6462 H 615.576 2.97037 5.06994 0
M  V30 6463 H 617.1 2.25901 5.67275 0
M  V30 6464 H 618.514 3.94947 4.1556 0
M  V30 6465 H 616.911 4.65175 3.7912 0
M  V30 6466 H 617.981 4.17927 2.45896 0
M  V30 6467 N 619.324 -0.923095 1.27737 0
M  V30 6468 C 620.254 -2.04124 1.13383 0
M  V30 6469 C 621.235 -1.70066 0.0340658 0
M  V30 6470 O 622.42 -1.93068 0.209383 0
M  V30 6471 C 619.55 -3.3831 0.785097 0
M  V30 6472 C 618.504 -3.86496 1.8386 0
M  V30 6473 C 617.83 -5.1754 1.34373 0
M  V30 6474 C 619.13 -4.09381 3.24353 0
M  V30 6475 H 620.824 -2.1639 2.06919 0
M  V30 6476 H 618.37 -1.03976 0.996243 0
M  V30 6477 H 620.323 -4.16016 0.671485 0
M  V30 6478 H 619.047 -3.2607 -0.185969 0
M  V30 6479 H 617.706 -3.10987 1.9412 0
M  V30 6480 H 617.354 -5.01696 0.361989 0
M  V30 6481 H 617.054 -5.50751 2.04811 0
M  V30 6482 H 618.578 -5.97811 1.24315 0
M  V30 6483 H 619.992 -4.77641 3.17067 0
M  V30 6484 H 618.389 -4.53906 3.92542 0
M  V30 6485 H 619.459 -3.14515 3.69064 0
M  V30 6486 N 620.802 -1.09834 -1.13024 0
M  V30 6487 C 622.03 -0.858902 -1.8823 0
M  V30 6488 C 622.445 0.590164 -1.79339 0
M  V30 6489 O 621.802 1.4065 -1.16292 0
M  V30 6490 C 621.853 -1.29066 -3.37675 0
M  V30 6491 O 621.574 -2.6829 -3.46341 0
M  V30 6492 C 623.075 -1.08421 -4.29837 0
M  V30 6493 H 620.295 -0.308713 -0.595766 0
M  V30 6494 H 622.839 -1.4614 -1.4305 0
M  V30 6495 H 620.994 -0.731961 -3.80422 0
M  V30 6496 H 621.408 -2.86598 -4.39274 0
M  V30 6497 H 622.882 -1.43553 -5.33007 0
M  V30 6498 H 623.359 -0.0223315 -4.39194 0
M  V30 6499 H 623.965 -1.62907 -3.92863 0
M  V30 6500 N 622.28 1.30327 -0.886154 0
M  V30 6501 C 623.557 1.90922 -0.425217 0
M  V30 6502 C 623.937 1.80533 1.09413 0
M  V30 6503 O 623.285 1.2233 1.92996 0
M  V30 6504 C 623.495 3.36529 -0.924638 0
M  V30 6505 C 624.843 4.13598 -0.960305 0
M  V30 6506 O 625.867 3.45377 -0.871382 0
M  V30 6507 O 624.726 5.35482 -1.09184 0
M  V30 6508 H 621.82 0.81668 -0.130238 0
M  V30 6509 H 624.366 1.38886 -0.975132 0
M  V30 6510 H 623.138 3.38181 -1.96849 0
M  V30 6511 H 622.761 3.96021 -0.353955 0
M  V30 6512 N 623.758 0.647228 1.43697 0
M  V30 6513 C 625.006 0.157876 2.01482 0
M  V30 6514 C 625.327 -1.23039 1.51282 0
M  V30 6515 O 624.597 -1.82071 0.722982 0
M  V30 6516 H 623.177 0.0553745 0.744945 0
M  V30 6517 H 625.839 0.83755 1.75986 0
M  V30 6518 H 624.935 0.137895 3.11795 0
M  V30 6519 N 625.236 -1.5273 0.388769 0
M  V30 6520 C 626.199 -2.25043 -0.434544 0
M  V30 6521 C 627.199 -1.26661 -0.990644 0
M  V30 6522 O 628.389 -1.50762 -0.872731 0
M  V30 6523 C 625.521 -3.00507 -1.60961 0
M  V30 6524 H 626.714 -2.99242 0.198549 0
M  V30 6525 H 624.267 -1.55664 0.140875 0
M  V30 6526 H 625.002 -2.30607 -2.28015 0
M  V30 6527 H 624.787 -3.72716 -1.21757 0
M  V30 6528 H 626.277 -3.55413 -2.19251 0
M  V30 6529 N 626.714 -0.118576 -1.57153 0
M  V30 6530 C 627.96 0.540326 -1.95469 0
M  V30 6531 C 628.293 1.66356 -1.00196 0
M  V30 6532 O 627.568 1.94461 -0.039104 0
M  V30 6533 C 627.851 1.07342 -3.43729 0
M  V30 6534 C 627.704 -0.0463732 -4.49776 0
M  V30 6535 C 629.023 1.96442 -3.93826 0
M  V30 6536 H 626.142 0.19494 -0.710751 0
M  V30 6537 H 628.784 -0.19405 -1.89006 0
M  V30 6538 H 626.934 1.69925 -3.49368 0
M  V30 6539 H 628.606 -0.681648 -4.56236 0
M  V30 6540 H 626.849 -0.709574 -4.27957 0
M  V30 6541 H 627.52 0.367856 -5.50773 0
M  V30 6542 H 629.996 1.43731 -3.90488 0
M  V30 6543 H 628.872 2.3066 -4.98084 0
M  V30 6544 H 629.133 2.89077 -3.34495 0
M  V30 6545 N 628.193 1.56834 0.155195 0
M  V30 6546 C 629.421 1.87049 0.884326 0
M  V30 6547 C 629.836 0.705839 1.7511 0
M  V30 6548 O 629.193 -0.324641 1.79589 0
M  V30 6549 C 629.244 3.1644 1.74781 0
M  V30 6550 O 628.965 4.28417 0.915978 0
M  V30 6551 C 630.466 3.60113 2.58522 0
M  V30 6552 H 627.686 0.620196 0.25612 0
M  V30 6553 H 630.23 2.03946 0.150445 0
M  V30 6554 H 628.385 3.01321 2.43484 0
M  V30 6555 H 628.799 5.02353 1.50803 0
M  V30 6556 H 630.273 4.53508 3.14698 0
M  V30 6557 H 630.75 2.85005 3.34169 0
M  V30 6558 H 631.356 3.77898 1.95124 0
M  V30 6559 N 629.671 -0.424282 1.51781 0
M  V30 6560 C 630.948 -1.18464 1.55646 0
M  V30 6561 C 631.328 -2.08529 0.328438 0
M  V30 6562 O 630.676 -2.17969 -0.685693 0
M  V30 6563 C 630.886 -1.97514 2.87731 0
M  V30 6564 C 632.234 -2.54106 3.40169 0
M  V30 6565 O 633.258 -2.07711 2.89369 0
M  V30 6566 O 632.117 -3.38759 4.28841 0
M  V30 6567 H 629.211 -0.540055 0.626314 0
M  V30 6568 H 631.757 -0.432291 1.64102 0
M  V30 6569 H 630.529 -1.31444 3.68562 0
M  V30 6570 H 630.152 -2.79787 2.82498 0
M  V30 6571 N 631.149 -1.42148 -0.680565 0
M  V30 6572 C 632.395 -1.42521 -1.44277 0
M  V30 6573 C 632.728 -0.0393718 -1.9416 0
M  V30 6574 O 632.003 0.935425 -1.70529 0
M  V30 6575 C 632.286 -2.44475 -2.64394 0
M  V30 6576 C 632.139 -3.92226 -2.20179 0
M  V30 6577 C 633.458 -2.43491 -3.66606 0
M  V30 6578 H 630.577 -0.518985 -0.523282 0
M  V30 6579 H 633.219 -1.73524 -0.773914 0
M  V30 6580 H 631.369 -2.18168 -3.21458 0
M  V30 6581 H 633.041 -4.29493 -1.68327 0
M  V30 6582 H 631.284 -4.0637 -1.5181 0
M  V30 6583 H 631.955 -4.59133 -3.06433 0
M  V30 6584 H 634.431 -2.66872 -3.19247 0
M  V30 6585 H 633.307 -3.16816 -4.4824 0
M  V30 6586 H 633.568 -1.45881 -4.17338 0
M  V30 6587 N 632.627 0.916307 -1.28225 0
M  V30 6588 C 633.537 2.05165 -1.13775 0
M  V30 6589 C 634.553 1.73879 -0.0649418 0
M  V30 6590 O 635.729 1.99531 -0.273722 0
M  V30 6591 C 632.794 3.37385 -0.798267 0
M  V30 6592 C 631.855 3.82296 -1.95316 0
M  V30 6593 C 631.088 5.08206 -1.62978 0
M  V30 6594 O 631.311 5.6781 -0.542948 0
M  V30 6595 O 630.245 5.48768 -2.47261 0
M  V30 6596 H 634.071 2.20273 -2.09078 0
M  V30 6597 H 631.656 1.0373 -1.07519 0
M  V30 6598 H 633.538 4.16773 -0.62278 0
M  V30 6599 H 632.213 3.23458 0.125139 0
M  V30 6600 H 631.12 3.03746 -2.18378 0
M  V30 6601 H 632.453 4.00782 -2.85718 0
M  V30 6602 N 634.105 1.10431 1.1244 0
M  V30 6603 C 635.068 0.756542 2.16354 0
M  V30 6604 C 636.068 -0.21899 1.59302 0
M  V30 6605 O 637.258 0.00415969 1.742 0
M  V30 6606 C 634.39 0.120612 3.40687 0
M  V30 6607 H 635.583 1.67696 2.48632 0
M  V30 6608 H 633.136 0.904832 1.27446 0
M  V30 6609 H 633.871 -0.810536 3.14008 0
M  V30 6610 H 633.656 0.822693 3.83372 0
M  V30 6611 H 635.146 -0.106945 4.17463 0
M  V30 6612 N 635.583 -1.29855 0.893053 0
M  V30 6613 C 636.811 -1.99976 0.530788 0
M  V30 6614 C 637.226 -1.66889 -0.882799 0
M  V30 6615 O 636.583 -0.910352 -1.58173 0
M  V30 6616 C 636.634 -3.54547 0.705587 0
M  V30 6617 O 636.355 -3.86458 2.06353 0
M  V30 6618 C 637.856 -4.41937 0.347387 0
M  V30 6619 H 635.076 -0.639129 0.204339 0
M  V30 6620 H 637.62 -1.65549 1.20057 0
M  V30 6621 H 635.775 -3.87311 0.0830685 0
M  V30 6622 H 636.189 -4.81146 2.08803 0
M  V30 6623 H 637.663 -5.4954 0.520557 0
M  V30 6624 H 638.14 -4.33339 -0.715139 0
M  V30 6625 H 638.746 -4.14633 0.946567 0
M  V30 6626 N 637.061 -0.65484 -1.43351 0
M  V30 6627 C 638.477 -0.32255 -1.56307 0
M  V30 6628 C 638.677 1.17324 -1.63821 0
M  V30 6629 O 637.733 1.95813 -1.59417 0
M  V30 6630 C 639.046 -1.03533 -2.82314 0
M  V30 6631 C 640.594 -1.01574 -2.9606 0
M  V30 6632 C 641.069 -1.70945 -4.24902 0
M  V30 6633 N 642.56 -1.67716 -4.3177 0
M  V30 6634 C 643.295 -2.18265 -5.30234 0
M  V30 6635 N 642.791 -2.7711 -6.34966 0
M  V30 6636 N 644.584 -2.08756 -5.21898 0
M  V30 6637 H 636.735 -1.62549 -1.36717 0
M  V30 6638 H 638.998 -0.683676 -0.656727 0
M  V30 6639 H 638.704 -2.09045 -2.8283 0
M  V30 6640 H 638.578 -0.587913 -3.7259 0
M  V30 6641 H 640.965 0.0309834 -2.95084 0
M  V30 6642 H 641.046 -1.50186 -2.07069 0
M  V30 6643 H 640.69 -2.75574 -4.26639 0
M  V30 6644 H 640.62 -1.19797 -5.12793 0
M  V30 6645 H 643.111 -1.24777 -3.56706 0
M  V30 6646 H 643.424 -3.13353 -7.06421 0
M  V30 6647 H 641.769 -2.81171 -6.35585 0
M  V30 6648 H 644.96 -1.62488 -4.38994 0
M  V30 6649 H 645.133 -2.48459 -5.98475 0
M  V30 6650 N 638.539 1.52521 -0.396863 0
M  V30 6651 C 639.449 2.30403 0.44178 0
M  V30 6652 C 640.465 1.37625 1.06468 0
M  V30 6653 O 641.641 1.70697 1.06886 0
M  V30 6654 C 638.706 3.1013 1.54986 0
M  V30 6655 C 637.767 4.18628 0.951279 0
M  V30 6656 C 637 4.94543 2.00655 0
M  V30 6657 O 637.223 4.70629 3.22281 0
M  V30 6658 O 636.157 5.797 1.61962 0
M  V30 6659 H 639.983 3.03087 -0.192892 0
M  V30 6660 H 637.568 1.48537 -0.16038 0
M  V30 6661 H 639.45 3.59816 2.19341 0
M  V30 6662 H 638.125 2.40251 2.16935 0
M  V30 6663 H 637.032 3.73119 0.270773 0
M  V30 6664 H 638.365 4.90763 0.375887 0
M  V30 6665 N 640.017 0.126909 1.57088 0
M  V30 6666 C 640.98 -0.806097 2.14557 0
M  V30 6667 C 641.98 -1.18918 1.08236 0
M  V30 6668 O 643.17 -1.11339 1.33975 0
M  V30 6669 C 640.302 -2.09116 2.69227 0
M  V30 6670 H 641.495 -0.306522 2.98329 0
M  V30 6671 H 639.048 -0.122393 1.5582 0
M  V30 6672 H 639.783 -2.63486 1.89065 0
M  V30 6673 H 639.568 -1.82588 3.46993 0
M  V30 6674 H 641.058 -2.75794 3.13572 0
M  V30 6675 N 641.495 -1.56914 -0.146875 0
M  V30 6676 C 642.741 -1.83628 -0.860741 0
M  V30 6677 C 643.074 -0.708528 -1.80813 0
M  V30 6678 O 642.349 0.287838 -1.92358 0
M  V30 6679 C 642.632 -3.20836 -1.63511 0
M  V30 6680 C 642.485 -4.44174 -0.709199 0
M  V30 6681 C 643.804 -3.55268 -2.59756 0
M  V30 6682 H 640.923 -0.667949 -0.311468 0
M  V30 6683 H 643.565 -1.89582 -0.125936 0
M  V30 6684 H 641.715 -3.15891 -2.26153 0
M  V30 6685 H 643.387 -4.61205 -0.0937781 0
M  V30 6686 H 641.63 -4.33796 -0.0187856 0
M  V30 6687 H 642.301 -5.36785 -1.28707 0
M  V30 6688 H 644.777 -3.60824 -2.07232 0
M  V30 6689 H 643.653 -4.52303 -3.10987 0
M  V30 6690 H 643.914 -2.81231 -3.41118 0
M  V30 6691 N 642.974 0.416227 -1.52004 0
M  V30 6692 C 644.22 1.16555 -1.6596 0
M  V30 6693 C 644.553 1.90347 -0.384906 0
M  V30 6694 O 643.828 1.84474 0.616405 0
M  V30 6695 C 644.111 2.1657 -2.87696 0
M  V30 6696 C 643.964 1.46722 -4.25197 0
M  V30 6697 C 645.283 3.17321 -3.04951 0
M  V30 6698 H 642.402 0.422369 -0.603965 0
M  V30 6699 H 645.044 0.452141 -1.84542 0
M  V30 6700 H 643.194 2.77411 -2.71985 0
M  V30 6701 H 644.866 0.89056 -4.52622 0
M  V30 6702 H 643.109 0.769263 -4.26925 0
M  V30 6703 H 643.78 2.19665 -5.0641 0
M  V30 6704 H 646.256 2.66552 -3.19514 0
M  V30 6705 H 645.132 3.84573 -3.91656 0
M  V30 6706 H 645.393 3.84643 -2.17951 0
M  V30 6707 N 644.452 1.42507 0.673017 0
M  V30 6708 C 645.868 1.25472 0.986355 0
M  V30 6709 C 646.068 0.160181 2.00862 0
M  V30 6710 O 645.124 -0.467993 2.48125 0
M  V30 6711 C 646.437 2.61219 1.48947 0
M  V30 6712 C 647.985 2.68589 1.60715 0
M  V30 6713 C 648.46 4.04707 2.14422 0
M  V30 6714 N 649.951 4.0667 2.21752 0
M  V30 6715 C 650.686 5.0881 2.64386 0
M  V30 6716 N 650.182 6.21332 3.0646 0
M  V30 6717 N 651.975 4.96166 2.64151 0
M  V30 6718 H 644.126 2.124 -0.00378532 0
M  V30 6719 H 646.389 0.946046 0.0608367 0
M  V30 6720 H 646.095 3.42179 0.812812 0
M  V30 6721 H 645.969 2.85261 2.46791 0
M  V30 6722 H 648.356 1.87974 2.27486 0
M  V30 6723 H 648.437 2.48333 0.613552 0
M  V30 6724 H 648.081 4.8578 1.48258 0
M  V30 6725 H 648.011 4.22315 3.14575 0
M  V30 6726 H 650.502 3.25438 1.92089 0
M  V30 6727 H 650.815 6.95118 3.37684 0
M  V30 6728 H 649.16 6.24835 3.04313 0
M  V30 6729 H 652.351 4.07334 2.30644 0
M  V30 6730 H 652.524 5.759 2.97057 0
M  V30 6731 N 645.93 -0.909495 1.28709 0
M  V30 6732 C 646.893 -1.99399 1.13016 0
M  V30 6733 C 647.893 -1.60654 0.068536 0
M  V30 6734 O 649.083 -1.71334 0.314671 0
M  V30 6735 C 646.215 -3.33078 0.726085 0
M  V30 6736 H 647.408 -2.14751 2.09338 0
M  V30 6737 H 644.961 -1.09272 1.11756 0
M  V30 6738 H 645.696 -3.23428 -0.23771 0
M  V30 6739 H 645.481 -3.62562 1.49302 0
M  V30 6740 H 646.971 -4.12681 0.639058 0
M  V30 6741 N 647.408 -1.11026 -1.11852 0
M  V30 6742 C 648.633 -0.879064 -1.87849 0
M  V30 6743 C 649.058 0.565406 -1.79401 0
M  V30 6744 O 648.416 1.39886 -1.15333 0
M  V30 6745 C 648.464 -1.33985 -3.34784 0
M  V30 6746 O 647.568 -0.508803 -4.09249 0
M  V30 6747 H 646.909 -0.316992 -0.583448 0
M  V30 6748 H 649.439 -1.47863 -1.41413 0
M  V30 6749 H 649.449 -1.33248 -3.85628 0
M  V30 6750 H 648.124 -2.39172 -3.40249 0
M  V30 6751 H 646.701 -0.581913 -3.68332 0
M  V30 6752 N 648.886 1.2938 -0.899927 0
M  V30 6753 C 649.834 2.29675 -0.367698 0
M  V30 6754 C 650.828 1.60787 0.533282 0
M  V30 6755 O 652.034 1.75126 0.416058 0
M  V30 6756 H 648.409 0.745284 -0.100279 0
M  V30 6757 H 650.38 2.72008 -1.22696 0
M  V30 6758 C 649.129 3.45512 0.389483 0
M  V30 6759 H 648.452 3.98713 -0.294575 0
M  V30 6760 H 649.892 4.17725 0.726744 0
M  V30 6761 C 648.351 2.969 1.59223 0
M  V30 6762 O 648.881 2.98195 2.69152 0
M  V30 6763 N 647.087 2.52728 1.43447 0
M  V30 6764 H 646.634 2.51873 0.540148 0
M  V30 6765 H 646.592 2.20561 2.24054 0
M  V30 6766 N 650.364 0.662433 1.43002 0
M  V30 6767 C 651.294 -0.00979809 2.33498 0
M  V30 6768 C 652.275 -0.802329 1.49989 0
M  V30 6769 O 653.46 -0.761964 1.78627 0
M  V30 6770 C 650.59 -0.970446 3.33466 0
M  V30 6771 C 649.544 -0.287383 4.27034 0
M  V30 6772 C 648.87 -1.36012 5.17112 0
M  V30 6773 C 650.17 0.82595 5.15728 0
M  V30 6774 H 651.864 0.745959 2.89958 0
M  V30 6775 H 649.41 0.360172 1.39423 0
M  V30 6776 H 651.363 -1.44971 3.95679 0
M  V30 6777 H 650.087 -1.75748 2.75282 0
M  V30 6778 H 648.746 0.17152 3.66199 0
M  V30 6779 H 648.394 -2.13882 4.55262 0
M  V30 6780 H 648.094 -0.908276 5.80538 0
M  V30 6781 H 649.618 -1.84056 5.82199 0
M  V30 6782 H 651.032 0.42845 5.71697 0
M  V30 6783 H 649.429 1.20282 5.87922 0
M  V30 6784 H 650.499 1.68003 4.54866 0
M  V30 6785 N 651.842 -1.52309 0.404946 0
M  V30 6786 C 653.253 -1.86585 -0.0655926 0
M  V30 6787 C 653.604 -1.3239 -1.44801 0
M  V30 6788 O 652.729 -0.6615 -2.06042 0
M  V30 6789 C 653.324 -3.38566 -0.125801 0
M  V30 6790 C 651.883 -3.72497 -0.540666 0
M  V30 6791 C 651.03 -2.75806 0.287487 0
M  V30 6792 H 653.981 -1.45995 0.622185 0
M  V30 6793 H 654.002 -3.68658 -0.941888 0
M  V30 6794 H 653.514 -3.77981 0.880473 0
M  V30 6795 H 651.615 -3.38659 -1.55373 0
M  V30 6796 H 651.728 -4.78234 -0.287956 0
M  V30 6797 H 650.092 -2.53474 -0.249561 0
M  V30 6798 H 650.875 -3.18059 1.29203 0
M  V30 6799 N 653.32 -0.135238 -1.57019 0
M  V30 6800 C 654.253 0.846618 -2.11914 0
M  V30 6801 C 655.231 1.25019 -1.03966 0
M  V30 6802 O 656.415 1.34838 -1.31723 0
M  V30 6803 C 653.542 2.1352 -2.6292 0
M  V30 6804 C 652.588 1.87846 -3.82905 0
M  V30 6805 S 653.421 1.08005 -5.24495 0
M  V30 6806 C 654.577 2.38008 -5.78881 0
M  V30 6807 H 654.81 0.379752 -2.94865 0
M  V30 6808 H 652.343 0.0788387 -1.54199 0
M  V30 6809 H 654.301 2.87551 -2.92958 0
M  V30 6810 H 652.962 2.57323 -1.80121 0
M  V30 6811 H 652.155 2.83365 -4.16797 0
M  V30 6812 H 651.757 1.21929 -3.53567 0
M  V30 6813 H 654.049 3.33742 -5.89595 0
M  V30 6814 H 654.992 2.08638 -6.76665 0
M  V30 6815 H 655.4 2.48119 -5.07048 0
M  V30 6816 N 654.798 1.5699 0.138552 0
M  V30 6817 C 656.023 1.88344 0.86841 0
M  V30 6818 C 656.448 0.725159 1.7356 0
M  V30 6819 O 655.806 -0.324992 1.78363 0
M  V30 6820 C 655.854 3.18334 1.69398 0
M  V30 6821 O 654.958 3.02863 2.79907 0
M  V30 6822 H 654.299 0.618577 0.241367 0
M  V30 6823 H 656.829 2.04207 0.126826 0
M  V30 6824 H 656.839 3.50567 2.08726 0
M  V30 6825 H 655.514 4.02238 1.05725 0
M  V30 6826 H 654.091 2.82056 2.43924 0
M  V30 6827 N 656.276 -0.40816 1.52223 0
M  V30 6828 C 657.522 -1.15673 1.66576 0
M  V30 6829 C 657.855 -1.90141 0.394996 0
M  V30 6830 O 657.13 -1.84798 -0.606613 0
M  V30 6831 C 657.413 -2.15042 2.88841 0
M  V30 6832 C 657.266 -1.44465 4.25969 0
M  V30 6833 C 658.585 -3.15699 3.0663 0
M  V30 6834 H 655.704 -0.41916 0.606196 0
M  V30 6835 H 658.346 -0.442348 1.84779 0
M  V30 6836 H 656.496 -2.75964 2.73452 0
M  V30 6837 H 658.168 -0.866544 4.53088 0
M  V30 6838 H 656.411 -0.746612 4.27327 0
M  V30 6839 H 657.082 -2.16976 5.07568 0
M  V30 6840 H 659.558 -2.64854 3.20923 0
M  V30 6841 H 658.434 -3.82491 3.9369 0
M  V30 6842 H 658.695 -3.83481 2.19987 0
M  V30 6843 N 657.755 -1.42862 -0.66545 0
M  V30 6844 C 659.004 -1.43119 -1.42126 0
M  V30 6845 C 659.317 -0.0545297 -1.95524 0
M  V30 6846 O 660.523 0.0654747 -2.71421 0
M  V30 6847 C 658.979 -2.51797 -2.5715 0
M  V30 6848 C 658.587 -3.95514 -2.10411 0
M  V30 6849 C 660.331 -2.61233 -3.346 0
M  V30 6850 C 658.238 -4.95682 -3.22573 0
M  V30 6851 H 657.168 -0.532349 -0.533966 0
M  V30 6852 H 659.819 -1.68806 -0.719506 0
M  V30 6853 H 658.201 -2.19292 -3.29738 0
M  V30 6854 H 659.375 -4.3742 -1.44915 0
M  V30 6855 H 657.69 -3.90012 -1.45874 0
M  V30 6856 H 660.287 -3.33248 -4.18151 0
M  V30 6857 H 660.63 -1.65896 -3.81817 0
M  V30 6858 H 661.163 -2.9298 -2.69087 0
M  V30 6859 H 657.902 -5.92529 -2.80338 0
M  V30 6860 H 657.422 -4.58399 -3.86821 0
M  V30 6861 H 659.101 -5.17828 -3.87896 0
M  V30 6862 N 659.233 0.902656 -1.29189 0
M  V30 6863 C 660.482 1.6475 -1.16362 0
M  V30 6864 C 660.795 1.93517 0.284682 0
M  V30 6865 O 662.001 2.66192 0.534229 0
M  V30 6866 C 660.457 2.96848 -2.03493 0
M  V30 6867 C 660.065 2.75687 -3.5313 0
M  V30 6868 C 661.809 3.74762 -1.99383 0
M  V30 6869 C 659.716 4.03492 -4.32375 0
M  V30 6870 H 658.646 0.618041 -0.431904 0
M  V30 6871 H 661.297 1.0008 -1.53806 0
M  V30 6872 H 659.679 3.62715 -1.58916 0
M  V30 6873 H 660.853 2.18431 -4.05739 0
M  V30 6874 H 659.168 2.11171 -3.58881 0
M  V30 6875 H 661.765 4.69515 -2.5585 0
M  V30 6876 H 662.108 4.04767 -0.973123 0
M  V30 6877 H 662.641 3.15732 -2.41988 0
M  V30 6878 H 659.38 3.78656 -5.3507 0
M  V30 6879 H 658.9 4.60318 -3.84535 0
M  V30 6880 H 660.579 4.71662 -4.42881 0
M  V30 6881 N 660.711 1.11618 1.11262 0
M  V30 6882 C 661.957 0.867463 1.83311 0
M  V30 6883 C 662.29 -0.605366 1.84524 0
M  V30 6884 O 661.565 -1.44704 1.29965 0
M  V30 6885 C 661.848 1.43207 3.30399 0
M  V30 6886 C 661.701 2.97265 3.3757 0
M  V30 6887 C 663.02 1.08454 4.26528 0
M  V30 6888 H 660.139 0.316578 0.665543 0
M  V30 6889 H 662.781 1.38137 1.30454 0
M  V30 6890 H 660.931 0.994982 3.75543 0
M  V30 6891 H 662.603 3.49591 3.00971 0
M  V30 6892 H 660.846 3.33237 2.77733 0
M  V30 6893 H 661.517 3.31859 4.41105 0
M  V30 6894 H 663.993 1.4619 3.89574 0
M  V30 6895 H 662.869 1.50633 5.27826 0
M  V30 6896 H 663.13 -0.00444568 4.421 0
M  V30 6897 N 662.189 -1.289 0.906776 0
M  V30 6898 C 663.437 -1.94883 0.535266 0
M  V30 6899 C 663.758 -1.71784 -0.922791 0
M  V30 6900 O 663.028 -1.05359 -1.65156 0
M  V30 6901 H 661.608 -0.721109 0.194962 0
M  V30 6902 H 664.27 -1.57018 1.15461 0
M  V30 6903 H 663.366 -3.03591 0.723821 0
M  V30 6904 N 663.667 -0.670007 -1.42649 0
M  V30 6905 C 664.913 -0.190568 -2.01903 0
M  V30 6906 C 665.246 1.19817 -1.52832 0
M  V30 6907 O 664.521 1.80342 -0.728485 0
M  V30 6908 C 664.804 -0.21991 -3.59428 0
M  V30 6909 C 664.657 -1.64376 -4.18689 0
M  V30 6910 C 665.976 0.434519 -4.3795 0
M  V30 6911 H 663.095 -0.0707219 -0.733599 0
M  V30 6912 H 665.737 -0.853883 -1.69732 0
M  V30 6913 H 663.887 0.344894 -3.86966 0
M  V30 6914 H 665.559 -2.26044 -4.02122 0
M  V30 6915 H 663.802 -2.18591 -3.747 0
M  V30 6916 H 664.473 -1.61601 -5.27815 0
M  V30 6917 H 666.949 -0.0462156 -4.16074 0
M  V30 6918 H 665.825 0.38333 -5.4756 0
M  V30 6919 H 666.086 1.51135 -4.15464 0
M  V30 6920 N 665.145 1.52092 -0.413018 0
M  V30 6921 C 666.393 2.01456 0.161178 0
M  V30 6922 C 666.714 1.30034 1.45314 0
M  V30 6923 O 665.984 0.427435 1.9118 0
M  V30 6924 H 664.564 0.744376 0.0625526 0
M  V30 6925 H 667.226 1.86974 -0.550151 0
M  V30 6926 H 666.322 3.1008 0.354517 0
M  V30 6927 N 666.623 0.143563 1.56945 0
M  V30 6928 C 667.871 -0.507402 1.95627 0
M  V30 6929 C 668.192 -1.65626 1.02922 0
M  V30 6930 O 667.462 -1.95693 0.0901136 0
M  V30 6931 H 666.042 -0.190436 0.722318 0
M  V30 6932 H 668.704 0.218257 1.93674 0
M  V30 6933 H 667.8 -0.885816 2.99265 0
M  V30 6934 N 668.101 -1.57061 -0.130224 0
M  V30 6935 C 669.064 -1.98593 -1.14426 0
M  V30 6936 C 670.064 -0.874584 -1.34936 0
M  V30 6937 O 671.254 -1.14086 -1.31643 0
M  V30 6938 C 668.386 -2.31639 -2.50112 0
M  V30 6939 H 669.579 -2.89374 -0.787561 0
M  V30 6940 H 667.132 -1.51756 -0.374146 0
M  V30 6941 H 667.867 -1.43703 -2.90723 0
M  V30 6942 H 667.652 -3.12684 -2.36583 0
M  V30 6943 H 669.142 -2.64551 -3.23114 0
M  V30 6944 N 669.579 0.400081 -1.52437 0
M  V30 6945 C 670.856 1.15973 -1.57511 0
M  V30 6946 C 671.236 2.0798 -0.361572 0
M  V30 6947 O 670.584 2.19032 0.650929 0
M  V30 6948 C 670.794 1.92912 -2.90837 0
M  V30 6949 C 672.142 2.48662 -3.44169 0
M  V30 6950 O 673.166 2.03081 -2.92637 0
M  V30 6951 O 672.025 3.31894 -4.34176 0
M  V30 6952 H 669.119 0.530023 -0.634827 0
M  V30 6953 H 671.665 0.40613 -1.64769 0
M  V30 6954 H 670.437 1.25564 -3.70607 0
M  V30 6955 H 670.06 2.75257 -2.86913 0
M  V30 6956 N 671.057 1.43213 0.657864 0
M  V30 6957 C 672.304 1.44584 1.41781 0
M  V30 6958 C 672.632 0.0684208 1.9438 0
M  V30 6959 O 671.887 -0.925872 1.72413 0
M  V30 6960 C 672.186 2.43143 2.61947 0
M  V30 6961 C 671.852 3.89128 2.27794 0
M  V30 6962 C 670.514 4.28889 2.18191 0
M  V30 6963 C 672.866 4.81144 2.00375 0
M  V30 6964 C 670.194 5.58625 1.79319 0
M  V30 6965 C 672.546 6.11239 1.63003 0
M  V30 6966 C 671.21 6.49981 1.51922 0
M  V30 6967 H 670.48 0.529069 0.518813 0
M  V30 6968 H 673.127 1.76263 0.748577 0
M  V30 6969 H 671.432 2.04851 3.33981 0
M  V30 6970 H 673.129 2.4146 3.20153 0
M  V30 6971 H 669.719 3.57657 2.36176 0
M  V30 6972 H 673.903 4.512 2.06718 0
M  V30 6973 H 669.159 5.87486 1.69323 0
M  V30 6974 H 673.333 6.82014 1.40817 0
M  V30 6975 H 670.96 7.50416 1.21572 0
M  V30 6976 N 672.536 -0.895792 1.29666 0
M  V30 6977 C 673.446 -2.03329 1.17024 0
M  V30 6978 C 674.462 -1.73753 0.0925962 0
M  V30 6979 O 675.638 -1.99071 0.305431 0
M  V30 6980 C 672.703 -3.36072 0.851841 0
M  V30 6981 C 671.764 -3.7914 2.01373 0
M  V30 6982 C 670.997 -5.05549 1.71043 0
M  V30 6983 O 671.22 -5.66874 0.633213 0
M  V30 6984 O 670.154 -5.44764 2.5596 0
M  V30 6985 H 673.98 -2.16918 2.12556 0
M  V30 6986 H 671.565 -1.02007 1.09156 0
M  V30 6987 H 673.447 -4.15729 0.689006 0
M  V30 6988 H 672.122 -3.23616 -0.0736634 0
M  V30 6989 H 671.029 -3.00233 2.23183 0
M  V30 6990 H 672.362 -3.96186 2.92058 0
M  V30 6991 N 674.014 -1.12206 -1.10668 0
M  V30 6992 C 674.977 -0.790867 -2.15123 0
M  V30 6993 C 675.977 0.193618 -1.5963 0
M  V30 6994 O 677.167 -0.0318728 -1.74171 0
M  V30 6995 C 674.299 -0.174797 -3.40452 0
M  V30 6996 H 675.492 -1.7163 -2.45933 0
M  V30 6997 H 673.045 -0.924993 -1.2599 0
M  V30 6998 H 673.78 0.760478 -3.15257 0
M  V30 6999 H 673.565 -0.88358 -3.82015 0
M  V30 7000 H 675.055 0.0405162 -4.1758 0
M  V30 7001 N 675.492 1.28418 -0.913599 0
M  V30 7002 C 676.425 2.25557 -0.346328 0
M  V30 7003 C 677.403 1.53038 0.549366 0
M  V30 7004 O 678.587 1.81937 0.493055 0
M  V30 7005 C 675.714 3.34915 0.504961 0
M  V30 7006 C 674.76 4.25257 -0.325334 0
M  V30 7007 S 675.593 5.06718 -1.73198 0
M  V30 7008 C 676.749 6.19569 -0.887988 0
M  V30 7009 H 676.982 2.73325 -1.16965 0
M  V30 7010 H 674.515 1.36855 -0.714841 0
M  V30 7011 H 676.473 3.98376 0.990301 0
M  V30 7012 H 675.134 2.85814 1.30267 0
M  V30 7013 H 674.327 5.02947 0.325589 0
M  V30 7014 H 673.929 3.66519 -0.744321 0
M  V30 7015 H 676.221 6.77398 -0.117568 0
M  V30 7016 H 677.164 6.88908 -1.63742 0
M  V30 7017 H 677.572 5.62812 -0.436228 0
M  V30 7018 N 676.97 0.677563 1.42291 0
M  V30 7019 C 677.88 0.000962654 2.346 0
M  V30 7020 C 678.896 -0.785833 1.55244 0
M  V30 7021 O 680.072 -0.727523 1.87801 0
M  V30 7022 C 677.137 -0.936746 3.33805 0
M  V30 7023 C 676.198 -0.144173 4.29058 0
M  V30 7024 C 675.431 -1.03722 5.23524 0
M  V30 7025 O 675.654 -2.27675 5.22992 0
M  V30 7026 O 674.588 -0.496542 5.99848 0
M  V30 7027 H 678.414 0.761397 2.94001 0
M  V30 7028 H 675.999 0.43781 1.42841 0
M  V30 7029 H 677.881 -1.47497 3.94744 0
M  V30 7030 H 676.556 -1.67698 2.76874 0
M  V30 7031 H 675.463 0.438224 3.71524 0
M  V30 7032 H 676.796 0.55701 4.89038 0
M  V30 7033 N 678.448 -1.51871 0.421078 0
M  V30 7034 C 679.38 -2.25052 -0.434065 0
M  V30 7035 C 680.393 -1.28458 -1.00013 0
M  V30 7036 O 681.582 -1.54323 -0.897033 0
M  V30 7037 C 678.682 -2.97813 -1.61743 0
M  V30 7038 C 677.855 -4.21374 -1.17315 0
M  V30 7039 C 676.914 -4.76854 -2.22478 0
M  V30 7040 O 675.94 -5.39123 -1.82577 0
M  V30 7041 N 677.142 -4.59467 -3.54782 0
M  V30 7042 H 679.907 -2.99077 0.193073 0
M  V30 7043 H 677.468 -1.59972 0.249088 0
M  V30 7044 H 679.46 -3.3182 -2.31685 0
M  V30 7045 H 678.03 -2.26899 -2.15024 0
M  V30 7046 H 677.25 -3.93046 -0.3014 0
M  V30 7047 H 678.538 -5.01591 -0.853444 0
M  V30 7048 H 677.936 -4.09832 -3.89941 0
M  V30 7049 H 676.493 -4.9788 -4.20665 0
M  V30 7050 N 679.926 -0.151884 -1.56866 0
M  V30 7051 C 680.856 0.781943 -2.20018 0
M  V30 7052 C 681.837 1.25347 -1.14987 0
M  V30 7053 O 683.022 1.31015 -1.43348 0
M  V30 7054 C 680.152 2.01928 -2.82564 0
M  V30 7055 C 679.106 1.68434 -3.93464 0
M  V30 7056 C 678.432 2.99472 -4.42968 0
M  V30 7057 C 679.732 0.927244 -5.14003 0
M  V30 7058 H 681.426 0.255607 -2.98307 0
M  V30 7059 H 678.972 0.121502 -1.43486 0
M  V30 7060 H 680.925 2.67741 -3.25411 0
M  V30 7061 H 679.649 2.56943 -2.01614 0
M  V30 7062 H 678.308 1.04998 -3.51242 0
M  V30 7063 H 677.956 3.52488 -3.58834 0
M  V30 7064 H 677.656 2.77823 -5.17772 0
M  V30 7065 H 679.18 3.66348 -4.88489 0
M  V30 7066 H 680.594 1.48756 -5.53665 0
M  V30 7067 H 678.991 0.810513 -5.94601 0
M  V30 7068 H 680.061 -0.0801163 -4.84834 0
M  V30 7069 N 681.404 1.57128 0.121893 0
M  V30 7070 C 682.681 1.75664 0.860327 0
M  V30 7071 C 683.061 0.726585 1.98202 0
M  V30 7072 O 682.409 -0.24999 2.27128 0
M  V30 7073 C 682.619 3.20571 1.37968 0
M  V30 7074 C 683.967 3.82988 1.83317 0
M  V30 7075 O 684.991 3.24156 1.47654 0
M  V30 7076 O 683.85 4.86393 2.49168 0
M  V30 7077 H 680.944 0.719153 0.408348 0
M  V30 7078 H 683.49 1.6937 0.105859 0
M  V30 7079 H 682.262 3.87056 0.57477 0
M  V30 7080 H 681.885 3.31392 2.19694 0
M  V30 7081 N 682.882 -0.391992 1.52647 0
M  V30 7082 C 683.845 -1.46135 1.7657 0
M  V30 7083 C 684.845 -1.47701 0.635698 0
M  V30 7084 O 686.035 -1.48924 0.903728 0
M  V30 7085 C 683.167 -2.85443 1.86374 0
M  V30 7086 H 684.36 -1.26208 2.72051 0
M  V30 7087 H 681.913 -0.623549 1.43323 0
M  V30 7088 H 682.648 -3.10718 0.928685 0
M  V30 7089 H 682.433 -2.85708 2.68539 0
M  V30 7090 H 683.923 -3.62933 2.06566 0
M  V30 7091 N 684.36 -1.4356 -0.65026 0
M  V30 7092 C 685.637 -1.35811 -1.40765 0
M  V30 7093 C 686.017 -0.00736379 -2.11099 0
M  V30 7094 O 685.365 1.00932 -2.05 0
M  V30 7095 C 685.575 -2.54332 -2.3899 0
M  V30 7096 C 686.923 -2.97551 -3.02901 0
M  V30 7097 O 687.947 -2.544 -2.49317 0
M  V30 7098 O 686.806 -3.72311 -4.00059 0
M  V30 7099 H 683.9 -0.536861 -0.629054 0
M  V30 7100 H 686.446 -1.55615 -0.676919 0
M  V30 7101 H 685.218 -3.44274 -1.85986 0
M  V30 7102 H 684.841 -2.36643 -3.19509 0
M  V30 7103 N 685.838 0.888903 -1.30139 0
M  V30 7104 C 687.086 1.63713 -1.18501 0
M  V30 7105 C 687.407 1.9324 0.261399 0
M  V30 7106 O 686.677 1.56608 1.17689 0
M  V30 7107 H 685.257 0.606861 -0.435579 0
M  V30 7108 H 687.919 1.06525 -1.63213 0
M  V30 7109 H 687.015 2.58894 -1.743 0
M  V30 7110 N 687.317 1.12792 1.10072 0
M  V30 7111 C 688.565 0.883796 1.81751 0
M  V30 7112 C 688.886 -0.591891 1.858 0
M  V30 7113 O 688.156 -1.43017 1.33876 0
M  V30 7114 H 686.736 0.323978 0.673088 0
M  V30 7115 H 689.398 1.42314 1.33164 0
M  V30 7116 H 688.494 1.26863 2.85153 0
M  V30 7117 N 688.795 -1.27931 0.920396 0
M  V30 7118 C 690.206 -1.76707 0.602616 0
M  V30 7119 C 690.557 -1.75249 -0.882159 0
M  V30 7120 O 689.682 -1.35135 -1.69019 0
M  V30 7121 C 690.277 -3.20884 1.08714 0
M  V30 7122 C 688.836 -3.67356 0.820157 0
M  V30 7123 C 687.983 -2.47525 1.25006 0
M  V30 7124 H 690.934 -1.14301 1.10095 0
M  V30 7125 H 690.955 -3.78045 0.431535 0
M  V30 7126 H 690.467 -3.21913 2.1678 0
M  V30 7127 H 688.568 -3.7178 -0.247012 0
M  V30 7128 H 688.681 -4.57181 1.43257 0
M  V30 7129 H 687.045 -2.45765 0.668698 0
M  V30 7130 H 687.828 -2.51269 2.3392 0
M  V30 7131 N 690.273 -0.685099 -1.4193 0
M  V30 7132 C 691.203 -0.0273506 -2.33484 0
M  V30 7133 C 692.184 0.778366 -1.51246 0
M  V30 7134 O 693.369 0.733449 -1.79817 0
M  V30 7135 C 690.499 0.917272 -3.34968 0
M  V30 7136 C 689.453 0.21941 -4.27437 0
M  V30 7137 C 688.779 1.27768 -5.1921 0
M  V30 7138 C 690.079 -0.907894 -5.14349 0
M  V30 7139 H 691.773 -0.791994 -2.88735 0
M  V30 7140 H 689.319 -0.382308 -1.38832 0
M  V30 7141 H 691.272 1.38657 -3.97935 0
M  V30 7142 H 689.996 1.71346 -2.78043 0
M  V30 7143 H 688.655 -0.229757 -3.65879 0
M  V30 7144 H 688.303 2.06612 -4.58607 0
M  V30 7145 H 688.003 0.815803 -5.81909 0
M  V30 7146 H 689.527 1.7477 -5.85054 0
M  V30 7147 H 690.941 -0.519348 -5.70943 0
M  V30 7148 H 689.338 -1.2962 -5.85934 0
M  V30 7149 H 690.408 -1.75218 -4.52136 0
M  V30 7150 N 691.751 1.51645 -0.429126 0
M  V30 7151 C 692.701 2.24388 0.404217 0
M  V30 7152 C 693.685 1.26294 0.996933 0
M  V30 7153 O 694.877 1.51428 0.916434 0
M  V30 7154 C 692.006 3.08338 1.50938 0
M  V30 7155 C 691.092 4.13857 0.926464 0
M  V30 7156 N 691.483 5.05749 0.0719732 0
M  V30 7157 C 689.781 4.29695 1.19491 0
M  V30 7158 C 690.482 5.81143 -0.254528 0
M  V30 7159 N 689.458 5.42408 0.359763 0
M  V30 7160 H 693.26 2.92794 -0.254697 0
M  V30 7161 H 690.774 1.60606 -0.240712 0
M  V30 7162 H 692.771 3.59022 2.11918 0
M  V30 7163 H 691.431 2.41475 2.17072 0
M  V30 7164 H 692.442 5.17066 -0.293854 0
M  V30 7165 H 689.119 3.74059 1.85434 0
M  V30 7166 H 690.509 6.65159 -0.949365 0
M  V30 7167 N 693.229 0.160201 1.56784 0
M  V30 7168 C 694.457 -0.494165 2.00912 0
M  V30 7169 C 694.872 -1.57548 1.04038 0
M  V30 7170 O 694.229 -1.82457 0.0394581 0
M  V30 7171 C 694.28 -1.08271 3.44905 0
M  V30 7172 O 694.001 -0.0445704 4.38077 0
M  V30 7173 C 695.502 -1.8164 4.04378 0
M  V30 7174 H 692.722 -0.127498 0.658776 0
M  V30 7175 H 695.266 0.258665 2.02858 0
M  V30 7176 H 693.421 -1.78609 3.4377 0
M  V30 7177 H 693.835 -0.477544 5.22322 0
M  V30 7178 H 695.309 -2.18094 5.07089 0
M  V30 7179 H 695.786 -2.70727 3.45838 0
M  V30 7180 H 696.392 -1.15969 4.09184 0
M  V30 7181 N 694.707 -1.5719 -0.113559 0
M  V30 7182 C 696.123 -1.52607 -0.467253 0
M  V30 7183 C 696.323 -0.874058 -1.81556 0
M  V30 7184 O 695.379 -0.458703 -2.48299 0
M  V30 7185 C 696.692 -2.97363 -0.446736 0
M  V30 7186 C 698.24 -3.08482 -0.529903 0
M  V30 7187 C 698.715 -4.54809 -0.539721 0
M  V30 7188 N 700.206 -4.59284 -0.601005 0
M  V30 7189 C 700.941 -5.69927 -0.630138 0
M  V30 7190 N 700.437 -6.90051 -0.616589 0
M  V30 7191 N 702.23 -5.5805 -0.673558 0
M  V30 7192 H 694.381 -1.97958 0.769819 0
M  V30 7193 H 696.644 -0.90428 0.284572 0
M  V30 7194 H 696.35 -3.48458 0.47643 0
M  V30 7195 H 696.224 -3.55086 -1.27254 0
M  V30 7196 H 698.611 -2.57386 -1.44349 0
M  V30 7197 H 698.692 -2.53744 0.323695 0
M  V30 7198 H 698.336 -5.06552 0.369843 0
M  V30 7199 H 698.266 -5.07364 -1.41028 0
M  V30 7200 H 700.757 -3.72822 -0.617419 0
M  V30 7201 H 701.07 -7.70132 -0.641592 0
M  V30 7202 H 699.415 -6.92543 -0.583927 0
M  V30 7203 H 702.606 -4.63112 -0.681544 0
M  V30 7204 H 702.779 -6.44286 -0.692794 0
M  V30 7205 N 696.185 0.383891 -1.52853 0
M  V30 7206 C 697.41 1.154 -1.7233 0
M  V30 7207 C 697.835 1.82809 -0.44298 0
M  V30 7208 O 697.193 1.71026 0.601645 0
M  V30 7209 C 697.241 2.17386 -2.87708 0
M  V30 7210 O 696.345 3.24082 -2.55038 0
M  V30 7211 H 695.686 0.335709 -0.572883 0
M  V30 7212 H 698.216 0.44662 -1.99666 0
M  V30 7213 H 698.226 2.61296 -3.1335 0
M  V30 7214 H 696.901 1.6771 -3.80587 0
M  V30 7215 H 695.478 2.85273 -2.40153 0
M  V30 7216 N 697.663 1.43903 0.642637 0
M  V30 7217 C 698.911 1.45791 1.39962 0
M  V30 7218 C 699.232 0.0873144 1.94804 0
M  V30 7219 O 698.502 -0.878825 1.75081 0
M  V30 7220 H 697.082 0.536797 0.519479 0
M  V30 7221 H 699.744 1.7959 0.757189 0
M  V30 7222 H 698.84 2.17665 2.2367 0
M  V30 7223 N 699.141 -0.881989 1.30609 0
M  V30 7224 C 700.073 -1.99375 1.13058 0
M  V30 7225 C 701.086 -1.62636 0.0729879 0
M  V30 7226 O 702.275 -1.75621 0.319301 0
M  V30 7227 C 699.375 -3.31536 0.702651 0
M  V30 7228 C 698.548 -3.96693 1.84265 0
M  V30 7229 C 697.607 -5.07158 1.40277 0
M  V30 7230 O 696.633 -5.28628 2.11048 0
M  V30 7231 N 697.835 -5.79808 0.283449 0
M  V30 7232 H 700.6 -2.14981 2.08814 0
M  V30 7233 H 698.161 -1.05526 1.22784 0
M  V30 7234 H 700.153 -4.02804 0.391331 0
M  V30 7235 H 698.723 -3.12175 -0.162954 0
M  V30 7236 H 697.943 -3.1856 2.32192 0
M  V30 7237 H 699.231 -4.36964 2.60653 0
M  V30 7238 H 698.629 -5.64871 -0.306189 0
M  V30 7239 H 697.186 -6.51792 0.0315985 0
M  V30 7240 N 700.619 -1.13374 -1.09472 0
M  V30 7241 C 701.582 -0.813639 -2.14272 0
M  V30 7242 C 702.582 0.176677 -1.59826 0
M  V30 7243 O 703.772 -0.0503441 -1.74127 0
M  V30 7244 C 700.904 -0.210897 -3.40247 0
M  V30 7245 H 702.097 -1.74229 -2.44099 0
M  V30 7246 H 699.65 -0.938304 -1.25002 0
M  V30 7247 H 700.385 0.726998 -3.16046 0
M  V30 7248 H 700.17 -0.924048 -3.81056 0
M  V30 7249 H 701.66 -0.00377603 -4.176 0
M  V30 7250 N 702.098 1.27442 -0.927168 0
M  V30 7251 C 703.061 2.2512 -0.430525 0
M  V30 7252 C 704.061 1.54357 0.450619 0
M  V30 7253 O 705.251 1.72371 0.251774 0
M  V30 7254 C 702.383 3.38763 0.381144 0
M  V30 7255 H 703.576 2.70569 -1.29354 0
M  V30 7256 H 701.129 1.39355 -0.707806 0
M  V30 7257 H 701.864 2.98695 1.263 0
M  V30 7258 H 701.649 3.91298 -0.250618 0
M  V30 7259 H 703.139 4.11364 0.719012 0
M  V30 7260 N 703.576 0.692616 1.41565 0
M  V30 7261 C 704.539 0.0344174 2.29174 0
M  V30 7262 C 705.539 -0.710961 1.44229 0
M  V30 7263 O 706.729 -0.546293 1.65412 0
M  V30 7264 C 703.861 -0.961682 3.27054 0
M  V30 7265 H 705.054 0.805755 2.88873 0
M  V30 7266 H 702.607 0.455947 1.49502 0
M  V30 7267 H 703.342 -1.76089 2.72329 0
M  V30 7268 H 703.127 -0.430375 3.89731 0
M  V30 7269 H 704.617 -1.4201 3.92712 0
M  V30 7270 N 705.054 -1.51416 0.437162 0
M  V30 7271 C 706.47 -1.59349 0.0894459 0
M  V30 7272 C 706.67 -1.44809 -1.40116 0
M  V30 7273 O 705.726 -1.28924 -2.17106 0
M  V30 7274 C 707.039 -2.9446 0.609398 0
M  V30 7275 C 708.587 -3.07769 0.569824 0
M  V30 7276 C 709.062 -4.45404 1.06675 0
M  V30 7277 N 710.553 -4.51723 1.02473 0
M  V30 7278 C 711.288 -5.56544 1.3801 0
M  V30 7279 N 710.784 -6.68784 1.80831 0
M  V30 7280 N 712.577 -5.46901 1.29828 0
M  V30 7281 H 704.728 -1.59112 1.40703 0
M  V30 7282 H 706.991 -0.750031 0.579791 0
M  V30 7283 H 706.697 -3.1047 1.65231 0
M  V30 7284 H 706.571 -3.77184 0.0342236 0
M  V30 7285 H 708.958 -2.91428 -0.464107 0
M  V30 7286 H 709.039 -2.26885 1.1814 0
M  V30 7287 H 708.683 -4.62492 2.09914 0
M  V30 7288 H 708.613 -5.24827 0.431712 0
M  V30 7289 H 711.104 -3.71165 0.710258 0
M  V30 7290 H 711.417 -7.44787 2.06185 0
M  V30 7291 H 709.762 -6.69992 1.84757 0
M  V30 7292 H 712.953 -4.581 0.962397 0
M  V30 7293 H 713.126 -6.2848 1.57851 0
M  V30 7294 N 706.532 -0.168513 -1.56696 0
M  V30 7295 C 707.809 0.523367 -1.88468 0
M  V30 7296 C 708.189 1.81503 -1.07796 0
M  V30 7297 O 707.537 2.27859 -0.171045 0
M  V30 7298 C 707.747 0.767991 -3.40445 0
M  V30 7299 C 709.095 1.09924 -4.10124 0
M  V30 7300 O 710.119 0.856625 -3.45746 0
M  V30 7301 O 708.978 1.55681 -5.23856 0
M  V30 7302 H 706.072 0.269447 -0.781874 0
M  V30 7303 H 708.618 -0.206739 -1.68436 0
M  V30 7304 H 707.39 -0.145254 -3.9103 0
M  V30 7305 H 707.013 1.55151 -3.66079 0
M  V30 7306 N 708.01 1.57248 0.105221 0
M  V30 7307 C 709.259 1.84756 0.809198 0
M  V30 7308 C 709.572 0.756262 1.80389 0
M  V30 7309 O 710.778 0.918158 2.55504 0
M  V30 7310 C 709.234 3.27613 1.48989 0
M  V30 7311 C 708.842 4.44788 0.535484 0
M  V30 7312 C 710.586 3.64356 2.17819 0
M  V30 7313 C 708.493 5.78676 1.22019 0
M  V30 7314 H 707.423 0.689139 0.305946 0
M  V30 7315 H 710.074 1.83395 0.0620371 0
M  V30 7316 H 708.456 3.23485 2.28415 0
M  V30 7317 H 709.63 4.60243 -0.226557 0
M  V30 7318 H 707.945 4.16374 -0.0465769 0
M  V30 7319 H 710.542 4.61663 2.69761 0
M  V30 7320 H 710.885 2.92474 2.96251 0
M  V30 7321 H 711.418 3.70328 1.45264 0
M  V30 7322 H 708.157 6.53763 0.476875 0
M  V30 7323 H 707.677 5.67083 1.9539 0
M  V30 7324 H 709.356 6.22897 1.74952 0
M  V30 7325 N 709.488 -0.375779 1.53054 0
M  V30 7326 C 710.734 -1.12114 1.68992 0
M  V30 7327 C 711.067 -1.8926 0.435238 0
M  V30 7328 O 710.342 -1.86044 -0.567278 0
M  V30 7329 C 710.625 -2.08867 2.93337 0
M  V30 7330 C 710.478 -1.35397 4.28938 0
M  V30 7331 C 711.797 -3.09124 3.13257 0
M  V30 7332 H 708.916 -0.406207 0.614951 0
M  V30 7333 H 711.558 -0.403054 1.85676 0
M  V30 7334 H 709.708 -2.70102 2.79244 0
M  V30 7335 H 711.38 -0.770242 4.54824 0
M  V30 7336 H 709.623 -0.655801 4.28814 0
M  V30 7337 H 710.294 -2.06161 5.12056 0
M  V30 7338 H 712.77 -2.57987 3.26469 0
M  V30 7339 H 711.646 -3.74054 4.01715 0
M  V30 7340 H 711.907 -3.78729 2.28072 0
M  V30 7341 N 710.966 -1.44241 -0.634997 0
M  V30 7342 C 711.898 -1.46793 -1.76024 0
M  V30 7343 C 712.911 -0.361781 -1.58729 0
M  V30 7344 O 714.1 -0.627297 -1.67114 0
M  V30 7345 C 711.2 -1.28248 -3.13697 0
M  V30 7346 C 710.373 -2.52038 -3.57485 0
M  V30 7347 C 709.432 -2.2845 -4.74022 0
M  V30 7348 O 708.458 -3.01915 -4.82531 0
M  V30 7349 N 709.66 -1.31264 -5.65464 0
M  V30 7350 H 712.425 -2.43797 -1.74307 0
M  V30 7351 H 709.986 -1.39631 -0.819438 0
M  V30 7352 H 711.978 -1.10321 -3.89373 0
M  V30 7353 H 710.548 -0.39623 -3.10079 0
M  V30 7354 H 709.768 -2.85268 -2.72059 0
M  V30 7355 H 711.056 -3.34382 -3.83492 0
M  V30 7356 H 710.454 -0.705817 -5.6128 0
M  V30 7357 H 709.011 -1.19316 -6.40786 0
M  V30 7358 N 712.444 0.87505 -1.31075 0
M  V30 7359 C 713.691 1.62768 -1.20469 0
M  V30 7360 C 714.019 1.93034 0.23834 0
M  V30 7361 O 713.274 1.55693 1.18567 0
M  V30 7362 C 713.573 2.96948 -1.98888 0
M  V30 7363 C 713.239 2.86195 -3.4843 0
M  V30 7364 C 711.901 2.82969 -3.89207 0
M  V30 7365 C 714.253 2.73599 -4.43614 0
M  V30 7366 C 711.581 2.64999 -5.23443 0
M  V30 7367 C 713.933 2.57166 -5.77969 0
M  V30 7368 C 712.597 2.52321 -6.17973 0
M  V30 7369 H 711.867 0.595611 -0.440827 0
M  V30 7370 H 714.514 1.01665 -1.62285 0
M  V30 7371 H 712.819 3.62058 -1.49737 0
M  V30 7372 H 714.516 3.54164 -1.88067 0
M  V30 7373 H 711.106 2.8952 -3.16032 0
M  V30 7374 H 715.29 2.7515 -4.13045 0
M  V30 7375 H 710.546 2.5967 -5.53517 0
M  V30 7376 H 714.72 2.46396 -6.51354 0
M  V30 7377 H 712.347 2.38156 -7.21932 0
M  V30 7378 N 713.922 1.13953 1.08869 0
M  V30 7379 C 715.168 0.906151 1.8143 0
M  V30 7380 C 715.501 -0.566089 1.85766 0
M  V30 7381 O 714.776 -1.41915 1.33006 0
M  V30 7382 C 715.059 1.50183 3.27287 0
M  V30 7383 C 714.912 3.04359 3.31189 0
M  V30 7384 C 716.231 1.17477 4.24131 0
M  V30 7385 H 713.35 0.330624 0.658678 0
M  V30 7386 H 715.992 1.40873 1.27495 0
M  V30 7387 H 714.142 1.07442 3.73348 0
M  V30 7388 H 715.814 3.55896 2.93488 0
M  V30 7389 H 714.057 3.39053 2.70602 0
M  V30 7390 H 714.728 3.41141 4.33966 0
M  V30 7391 H 717.204 1.5442 3.86385 0
M  V30 7392 H 716.08 1.61795 5.24513 0
M  V30 7393 H 716.341 0.0893312 4.4201 0
M  V30 7394 N 715.4 -1.26948 0.933913 0
M  V30 7395 C 716.811 -1.76058 0.621324 0
M  V30 7396 C 717.162 -1.76175 -0.863522 0
M  V30 7397 O 716.287 -1.36921 -1.67576 0
M  V30 7398 C 716.882 -3.19713 1.12111 0
M  V30 7399 C 715.441 -3.66465 0.859074 0
M  V30 7400 C 714.588 -2.46186 1.27624 0
M  V30 7401 H 717.539 -1.13127 1.11301 0
M  V30 7402 H 717.56 -3.77566 0.471608 0
M  V30 7403 H 717.072 -3.19596 2.20182 0
M  V30 7404 H 715.173 -3.72021 -0.207566 0
M  V30 7405 H 715.286 -4.55636 1.48098 0
M  V30 7406 H 713.65 -2.45042 0.694727 0
M  V30 7407 H 714.433 -2.48774 2.36572 0
M  V30 7408 N 716.879 -0.700114 -1.41195 0
M  V30 7409 C 718.109 -0.241828 -2.0518 0
M  V30 7410 C 718.517 1.1157 -1.52803 0
M  V30 7411 O 717.86 1.70926 -0.673042 0
M  V30 7412 C 717.922 -0.12695 -3.59276 0
M  V30 7413 C 717.586 -1.41725 -4.34469 0
M  V30 7414 C 718.583 -2.35604 -4.63451 0
M  V30 7415 C 716.268 -1.67189 -4.73659 0
M  V30 7416 C 718.262 -3.53204 -5.3059 0
M  V30 7417 C 715.949 -2.85073 -5.40534 0
M  V30 7418 C 716.947 -3.77904 -5.68927 0
M  V30 7419 O 716.635 -4.93723 -6.34424 0
M  V30 7420 H 716.367 -0.109247 -0.667114 0
M  V30 7421 H 718.921 -0.954538 -1.81873 0
M  V30 7422 H 717.151 0.641571 -3.81341 0
M  V30 7423 H 718.84 0.294748 -4.04828 0
M  V30 7424 H 719.606 -2.1719 -4.33651 0
M  V30 7425 H 715.485 -0.957935 -4.50937 0
M  V30 7426 H 719.029 -4.25679 -5.52669 0
M  V30 7427 H 714.926 -3.03402 -5.69752 0
M  V30 7428 H 715.694 -4.93597 -6.5292 0
M  V30 7429 N 718.357 1.51182 -0.445186 0
M  V30 7430 C 719.773 1.59299 -0.0978954 0
M  V30 7431 C 719.973 1.4555 1.39346 0
M  V30 7432 O 719.029 1.30073 2.16419 0
M  V30 7433 C 720.342 2.94133 -0.625005 0
M  V30 7434 C 721.89 3.07463 -0.586137 0
M  V30 7435 C 722.365 4.44832 -1.09035 0
M  V30 7436 N 723.856 4.51173 -1.04867 0
M  V30 7437 C 724.591 5.55804 -1.40959 0
M  V30 7438 N 724.087 6.67816 -1.84375 0
M  V30 7439 N 725.88 5.46205 -1.32726 0
M  V30 7440 H 718.031 1.58363 -1.41544 0
M  V30 7441 H 720.294 0.746946 -0.58376 0
M  V30 7442 H 720 3.09589 -1.66876 0
M  V30 7443 H 719.874 3.77161 -0.0542262 0
M  V30 7444 H 722.261 2.9167 0.448646 0
M  V30 7445 H 722.342 2.26255 -1.19341 0
M  V30 7446 H 721.986 4.61372 -2.12364 0
M  V30 7447 H 721.916 5.24591 -0.459539 0
M  V30 7448 H 724.407 3.70783 -0.729932 0
M  V30 7449 H 724.72 7.43683 -2.10131 0
M  V30 7450 H 723.065 6.69003 -1.88308 0
M  V30 7451 H 726.256 4.57583 -0.986678 0
M  V30 7452 H 726.429 6.27634 -1.61182 0
M  V30 7453 N 719.835 0.176821 1.56605 0
M  V30 7454 C 721.251 -0.179278 1.5859 0
M  V30 7455 C 721.451 -1.62433 1.19238 0
M  V30 7456 O 720.507 -2.35665 0.906552 0
M  V30 7457 C 721.82 0.106524 3.00511 0
M  V30 7458 C 723.368 0.0451731 3.12967 0
M  V30 7459 C 723.843 0.304038 4.5699 0
M  V30 7460 N 725.334 0.252008 4.62514 0
M  V30 7461 C 726.069 0.426404 5.71812 0
M  V30 7462 N 725.565 0.660155 6.89648 0
M  V30 7463 N 727.358 0.361926 5.60934 0
M  V30 7464 H 719.509 1.12001 1.8047 0
M  V30 7465 H 721.772 0.445679 0.836704 0
M  V30 7466 H 721.478 1.10778 3.33798 0
M  V30 7467 H 721.352 -0.599337 3.72408 0
M  V30 7468 H 723.739 -0.946662 2.79504 0
M  V30 7469 H 723.82 0.78383 2.43495 0
M  V30 7470 H 723.464 1.29311 4.91163 0
M  V30 7471 H 723.394 -0.455294 5.24628 0
M  V30 7472 H 725.885 0.0772102 3.77821 0
M  V30 7473 H 726.198 0.782529 7.68828 0
M  V30 7474 H 724.543 0.696835 6.91498 0
M  V30 7475 H 727.734 0.17986 4.67754 0
M  V30 7476 H 727.907 0.501263 6.46058 0
M  V30 7477 N 721.313 -1.57302 -0.09688 0
M  V30 7478 C 722.56 -1.85997 -0.800699 0
M  V30 7479 C 722.888 -0.765089 -1.7882 0
M  V30 7480 O 722.143 0.241492 -1.94204 0
M  V30 7481 C 722.442 -3.21272 -1.56586 0
M  V30 7482 C 722.108 -4.45104 -0.72064 0
M  V30 7483 C 720.77 -4.78723 -0.487632 0
M  V30 7484 C 723.122 -5.2103 -0.132948 0
M  V30 7485 C 720.45 -5.85697 0.34296 0
M  V30 7486 C 722.802 -6.28881 0.684957 0
M  V30 7487 C 721.466 -6.61017 0.928073 0
M  V30 7488 H 720.736 -0.680613 -0.292997 0
M  V30 7489 H 723.383 -1.91399 -0.0622474 0
M  V30 7490 H 721.688 -3.11547 -2.37583 0
M  V30 7491 H 723.385 -3.40702 -2.11478 0
M  V30 7492 H 719.975 -4.18777 -0.912359 0
M  V30 7493 H 724.159 -4.95392 -0.300132 0
M  V30 7494 H 719.415 -6.09008 0.540317 0
M  V30 7495 H 723.589 -6.86886 1.14721 0
M  V30 7496 H 721.216 -7.43738 1.57348 0
M  V30 7497 N 722.791 0.367657 -1.53252 0
M  V30 7498 C 723.723 1.47032 -1.75824 0
M  V30 7499 C 724.736 1.49736 -0.63898 0
M  V30 7500 O 725.925 1.53253 -0.915193 0
M  V30 7501 C 723.025 2.85805 -1.82122 0
M  V30 7502 C 722.198 3.06822 -3.11736 0
M  V30 7503 C 721.257 4.25698 -3.09302 0
M  V30 7504 O 720.283 4.20972 -3.83107 0
M  V30 7505 N 721.485 5.33002 -2.29977 0
M  V30 7506 H 724.25 1.28048 -2.70968 0
M  V30 7507 H 721.811 0.557363 -1.52004 0
M  V30 7508 H 723.803 3.63465 -1.77975 0
M  V30 7509 H 722.373 2.98046 -0.942716 0
M  V30 7510 H 721.593 2.1684 -3.29202 0
M  V30 7511 H 722.881 3.17731 -3.97397 0
M  V30 7512 H 722.279 5.39703 -1.69521 0
M  V30 7513 H 720.836 6.09247 -2.3165 0
M  V30 7514 N 724.269 1.44576 0.627338 0
M  V30 7515 C 725.217 1.52039 1.76031 0
M  V30 7516 C 726.211 0.391796 1.64807 0
M  V30 7517 O 727.417 0.5669 1.7084 0
M  V30 7518 H 723.792 0.477165 0.581221 0
M  V30 7519 H 725.763 2.47387 1.6686 0
M  V30 7520 C 724.512 1.48539 3.14375 0
M  V30 7521 H 723.835 2.34699 3.23661 0
M  V30 7522 H 725.275 1.57821 3.93534 0
M  V30 7523 C 723.734 0.20672 3.36265 0
M  V30 7524 O 724.264 -0.72154 3.95167 0
M  V30 7525 N 722.47 0.108654 2.90397 0
M  V30 7526 H 722.017 0.864884 2.42647 0
M  V30 7527 H 721.975 -0.746121 3.05418 0
M  V30 7528 N 725.747 -0.868086 1.31537 0
M  V30 7529 C 726.71 -1.95703 1.19302 0
M  V30 7530 C 727.71 -1.60355 0.119612 0
M  V30 7531 O 728.9 -1.70247 0.36902 0
M  V30 7532 C 726.032 -3.30599 0.831684 0
M  V30 7533 H 727.225 -2.07982 2.16064 0
M  V30 7534 H 724.778 -1.05661 1.15176 0
M  V30 7535 H 725.513 -3.2402 -0.134694 0
M  V30 7536 H 725.298 -3.57629 1.60761 0
M  V30 7537 H 726.788 -4.10439 0.770026 0
M  V30 7538 N 727.225 -1.14528 -1.08264 0
M  V30 7539 C 728.636 -0.925261 -1.6216 0
M  V30 7540 C 728.987 0.535587 -1.88748 0
M  V30 7541 O 728.112 1.4048 -1.64604 0
M  V30 7542 C 728.707 -1.67316 -2.94603 0
M  V30 7543 C 727.266 -1.49868 -3.45278 0
M  V30 7544 C 726.413 -1.69471 -2.19487 0
M  V30 7545 H 729.364 -1.29687 -0.914707 0
M  V30 7546 H 729.385 -1.13721 -3.63109 0
M  V30 7547 H 728.897 -2.73635 -2.75219 0
M  V30 7548 H 726.998 -0.459032 -3.69762 0
M  V30 7549 H 727.111 -2.2696 -4.21931 0
M  V30 7550 H 725.475 -1.12048 -2.2873 0
M  V30 7551 H 726.258 -2.77136 -2.0261 0
M  V30 7552 N 728.703 1.26451 -0.940633 0
M  V30 7553 C 730.119 1.4608 -0.642859 0
M  V30 7554 C 730.319 1.84765 0.803998 0
M  V30 7555 O 729.375 1.96902 1.58069 0
M  V30 7556 C 730.688 2.54359 -1.60381 0
M  V30 7557 C 732.236 2.6821 -1.61345 0
M  V30 7558 C 732.711 3.79659 -2.56169 0
M  V30 7559 N 734.202 3.87051 -2.54452 0
M  V30 7560 C 734.937 4.72739 -3.24507 0
M  V30 7561 N 734.433 5.6282 -4.03987 0
M  V30 7562 N 736.226 4.66581 -3.13462 0
M  V30 7563 H 728.377 0.996289 -1.87584 0
M  V30 7564 H 730.64 0.498921 -0.80609 0
M  V30 7565 H 730.346 2.32758 -2.6366 0
M  V30 7566 H 730.22 3.52005 -1.35545 0
M  V30 7567 H 732.607 2.89184 -0.587913 0
M  V30 7568 H 732.688 1.7101 -1.90235 0
M  V30 7569 H 732.332 3.59438 -3.58841 0
M  V30 7570 H 732.262 4.76315 -2.2457 0
M  V30 7571 H 734.753 3.22649 -1.96739 0
M  V30 7572 H 735.066 6.25095 -4.54396 0
M  V30 7573 H 733.411 5.62574 -4.08088 0
M  V30 7574 H 736.602 3.9521 -2.50852 0
M  V30 7575 H 736.775 5.33141 -3.68327 0
M  V30 7576 N 730.181 0.707592 1.40822 0
M  V30 7577 C 731.091 0.0507246 2.34545 0
M  V30 7578 C 732.107 -0.752727 1.56876 0
M  V30 7579 O 733.283 -0.687524 1.89302 0
M  V30 7580 C 730.348 -0.865731 3.35717 0
M  V30 7581 C 729.409 -0.0531313 4.29267 0
M  V30 7582 C 728.642 -0.925939 5.25606 0
M  V30 7583 O 728.865 -2.16531 5.27703 0
M  V30 7584 O 727.799 -0.369194 6.00767 0
M  V30 7585 H 731.625 0.823587 2.9232 0
M  V30 7586 H 729.21 0.46801 1.4188 0
M  V30 7587 H 731.092 -1.39091 3.97783 0
M  V30 7588 H 729.767 -1.61788 2.80368 0
M  V30 7589 H 728.674 0.516931 3.70511 0
M  V30 7590 H 730.007 0.660617 4.87747 0
M  V30 7591 N 731.66 -1.50943 0.453197 0
M  V30 7592 C 732.623 -2.26684 -0.338705 0
M  V30 7593 C 733.623 -1.30748 -0.936032 0
M  V30 7594 O 734.813 -1.54327 -0.808002 0
M  V30 7595 C 731.945 -3.07063 -1.48071 0
M  V30 7596 H 733.138 -2.98131 0.325289 0
M  V30 7597 H 730.691 -1.54926 0.206771 0
M  V30 7598 H 731.426 -2.4007 -2.18029 0
M  V30 7599 H 731.211 -3.77545 -1.0584 0
M  V30 7600 H 732.701 -3.64393 -2.0398 0
M  V30 7601 N 733.138 -0.185124 -1.56509 0
M  V30 7602 C 734.068 0.735098 -2.21627 0
M  V30 7603 C 735.049 1.2288 -1.1762 0
M  V30 7604 O 736.234 1.27945 -1.46095 0
M  V30 7605 C 733.364 1.95889 -2.86783 0
M  V30 7606 C 732.318 1.6005 -3.96948 0
M  V30 7607 C 731.644 2.90009 -4.4922 0
M  V30 7608 C 732.944 0.818008 -5.15855 0
M  V30 7609 H 734.638 0.192274 -2.98782 0
M  V30 7610 H 732.184 0.0910393 -1.43712 0
M  V30 7611 H 734.137 2.60779 -3.31017 0
M  V30 7612 H 732.861 2.52608 -2.07018 0
M  V30 7613 H 731.52 0.975237 -3.5339 0
M  V30 7614 H 731.168 3.44797 -3.6623 0
M  V30 7615 H 730.868 2.66778 -5.23549 0
M  V30 7616 H 732.392 3.55904 -4.9615 0
M  V30 7617 H 733.806 1.36979 -5.56695 0
M  V30 7618 H 732.203 0.684207 -5.96187 0
M  V30 7619 H 733.273 -0.182939 -4.84555 0
M  V30 7620 N 734.616 1.57351 0.0885366 0
M  V30 7621 C 735.579 2.01557 1.09121 0
M  V30 7622 C 736.579 0.910052 1.3257 0
M  V30 7623 O 737.769 1.17537 1.28572 0
M  V30 7624 C 734.901 2.38189 2.43883 0
M  V30 7625 H 736.094 2.91361 0.710562 0
M  V30 7626 H 733.647 1.52694 0.333779 0
M  V30 7627 H 734.382 1.5136 2.86811 0
M  V30 7628 H 734.167 3.18846 2.28209 0
M  V30 7629 H 735.657 2.73025 3.15986 0
M  V30 7630 N 736.094 -0.359525 1.53444 0
M  V30 7631 C 737.026 -1.46098 1.76602 0
M  V30 7632 C 738.039 -1.49395 0.646912 0
M  V30 7633 O 739.228 -1.52765 0.923307 0
M  V30 7634 C 736.328 -2.84836 1.83635 0
M  V30 7635 C 735.501 -3.05164 3.13358 0
M  V30 7636 C 734.56 -4.24051 3.11556 0
M  V30 7637 O 733.586 -4.18935 3.85334 0
M  V30 7638 N 734.788 -5.31775 2.328 0
M  V30 7639 H 737.553 -1.2661 2.71643 0
M  V30 7640 H 735.114 -0.549294 1.52297 0
M  V30 7641 H 737.106 -3.62516 1.799 0
M  V30 7642 H 735.676 -2.97542 0.958509 0
M  V30 7643 H 734.896 -2.15091 3.30348 0
M  V30 7644 H 736.184 -3.15619 3.99076 0
M  V30 7645 H 735.582 -5.38796 1.7238 0
M  V30 7646 H 734.139 -6.0801 2.34877 0
M  V30 7647 N 737.572 -1.44907 -0.619662 0
M  V30 7648 C 738.8 -1.51795 -1.40591 0
M  V30 7649 C 739.215 -0.146553 -1.8823 0
M  V30 7650 O 738.572 0.849698 -1.61513 0
M  V30 7651 C 738.623 -2.49229 -2.61853 0
M  V30 7652 O 738.344 -3.81039 -2.16197 0
M  V30 7653 C 739.845 -2.65696 -3.54853 0
M  V30 7654 H 737.065 -0.514463 -0.430777 0
M  V30 7655 H 739.609 -1.8998 -0.756813 0
M  V30 7656 H 737.764 -2.14149 -3.2283 0
M  V30 7657 H 738.178 -4.33747 -2.94896 0
M  V30 7658 H 739.652 -3.37874 -4.36515 0
M  V30 7659 H 740.129 -1.71316 -4.0441 0
M  V30 7660 H 740.735 -3.01724 -2.99737 0
M  V30 7661 N 739.05 0.861098 -1.31996 0
M  V30 7662 C 740.296 1.61721 -1.22369 0
M  V30 7663 C 740.629 1.93 0.215587 0
M  V30 7664 O 739.904 1.56789 1.15098 0
M  V30 7665 C 740.187 2.9417 -2.07691 0
M  V30 7666 C 740.04 2.69714 -3.59965 0
M  V30 7667 C 741.359 3.95372 -1.93312 0
M  V30 7668 H 738.478 0.586822 -0.44588 0
M  V30 7669 H 741.12 0.994788 -1.61876 0
M  V30 7670 H 739.27 3.47292 -1.74128 0
M  V30 7671 H 740.942 2.23196 -4.03709 0
M  V30 7672 H 739.185 2.03789 -3.82952 0
M  V30 7673 H 739.856 3.63996 -4.14983 0
M  V30 7674 H 742.332 3.51487 -2.22701 0
M  V30 7675 H 741.208 4.85916 -2.55298 0
M  V30 7676 H 741.469 4.32865 -0.898922 0
M  V30 7677 N 740.528 1.15101 1.07655 0
M  V30 7678 C 741.458 0.867864 2.16773 0
M  V30 7679 C 742.439 -0.180283 1.69142 0
M  V30 7680 O 743.624 -0.0353152 1.94168 0
M  V30 7681 C 740.754 0.35299 3.45501 0
M  V30 7682 C 739.708 1.33746 4.06566 0
M  V30 7683 C 739.034 0.681562 5.30338 0
M  V30 7684 C 740.334 2.7024 4.46954 0
M  V30 7685 H 742.028 1.78034 2.40716 0
M  V30 7686 H 739.574 0.857435 1.15689 0
M  V30 7687 H 741.527 0.142465 4.21159 0
M  V30 7688 H 740.251 -0.594945 3.21135 0
M  V30 7689 H 738.91 1.53429 3.32949 0
M  V30 7690 H 738.558 -0.272422 5.02262 0
M  V30 7691 H 738.258 1.33853 5.72151 0
M  V30 7692 H 739.782 0.48074 6.08705 0
M  V30 7693 H 741.196 2.5442 5.13754 0
M  V30 7694 H 739.593 3.32282 4.99709 0
M  V30 7695 H 740.663 3.26537 3.58471 0
M  V30 7696 N 742.006 -1.2595 0.947325 0
M  V30 7697 C 742.969 -2.24407 0.466285 0
M  V30 7698 C 743.969 -1.55054 -0.426005 0
M  V30 7699 O 745.159 -1.7275 -0.224319 0
M  V30 7700 C 742.291 -3.39326 -0.327201 0
M  V30 7701 H 743.484 -2.68477 1.33642 0
M  V30 7702 H 741.037 -1.38211 0.729887 0
M  V30 7703 H 741.772 -3.00667 -1.21532 0
M  V30 7704 H 741.557 -3.9085 0.312839 0
M  V30 7705 H 743.047 -4.12455 -0.653477 0
M  V30 7706 N 743.484 -0.715051 -1.40445 0
M  V30 7707 C 744.394 -0.0631624 -2.34515 0
M  V30 7708 C 745.41 0.744397 -1.57273 0
M  V30 7709 O 746.586 0.677475 -1.89663 0
M  V30 7710 C 743.651 0.847915 -3.36172 0
M  V30 7711 C 742.712 0.0303655 -4.29289 0
M  V30 7712 C 741.945 0.898051 -5.2609 0
M  V30 7713 O 742.168 2.13729 -5.28844 0
M  V30 7714 O 741.102 0.337328 -6.00954 0
M  V30 7715 H 744.928 -0.839078 -2.91879 0
M  V30 7716 H 742.513 -0.475527 -1.4163 0
M  V30 7717 H 744.395 1.3698 -3.98515 0
M  V30 7718 H 743.07 1.60299 -2.81222 0
M  V30 7719 H 741.977 -0.536573 -3.70232 0
M  V30 7720 H 743.31 -0.686474 -4.87389 0
M  V30 7721 N 744.962 1.50701 -0.461195 0
M  V30 7722 C 746.208 2.02566 0.0973411 0
M  V30 7723 C 746.541 1.3432 1.40257 0
M  V30 7724 O 745.816 0.465692 1.88843 0
M  V30 7725 C 746.099 3.58919 0.291423 0
M  V30 7726 C 745.952 4.37751 -1.03413 0
M  V30 7727 C 747.271 4.27379 1.05048 0
M  V30 7728 H 744.39 0.73622 0.0339026 0
M  V30 7729 H 747.032 1.80115 -0.604855 0
M  V30 7730 H 745.182 3.78179 0.889539 0
M  V30 7731 H 746.854 4.30085 -1.66806 0
M  V30 7732 H 745.097 4.01885 -1.63313 0
M  V30 7733 H 745.768 5.45384 -0.852085 0
M  V30 7734 H 748.244 4.12534 0.543603 0
M  V30 7735 H 747.12 5.36609 1.15506 0
M  V30 7736 H 747.381 3.89868 2.0846 0
M  V30 7737 N 746.441 0.193421 1.56409 0
M  V30 7738 C 747.852 -0.319471 1.83946 0
M  V30 7739 C 748.203 -1.61505 1.11403 0
M  V30 7740 O 747.328 -2.13139 0.374289 0
M  V30 7741 C 747.923 -0.586411 3.33686 0
M  V30 7742 C 746.482 -1.04368 3.61641 0
M  V30 7743 C 745.629 -0.0913834 2.77149 0
M  V30 7744 H 748.58 0.417242 1.53117 0
M  V30 7745 H 748.601 -1.43591 3.52366 0
M  V30 7746 H 748.113 0.356701 3.86457 0
M  V30 7747 H 746.214 -2.00113 3.14302 0
M  V30 7748 H 746.327 -0.937549 4.69837 0
M  V30 7749 H 744.691 -0.592954 2.47702 0
M  V30 7750 H 745.474 0.846142 3.32709 0
M  V30 7751 N 747.919 -1.57396 -0.0801906 0
M  V30 7752 C 749.147 -1.91055 -0.794075 0
M  V30 7753 C 749.562 -0.788583 -1.71542 0
M  V30 7754 O 748.919 0.238587 -1.80934 0
M  V30 7755 C 748.97 -3.24418 -1.59484 0
M  V30 7756 O 748.691 -4.323 -0.710532 0
M  V30 7757 C 750.192 -3.72037 -2.41046 0
M  V30 7758 H 747.412 -0.63171 -0.226238 0
M  V30 7759 H 749.956 -2.04431 -0.0529685 0
M  V30 7760 H 748.111 -3.12595 -2.2883 0
M  V30 7761 H 748.525 -5.08976 -1.26663 0
M  V30 7762 H 749.999 -4.68006 -2.92702 0
M  V30 7763 H 750.476 -3.00624 -3.2019 0
M  V30 7764 H 751.082 -3.86777 -1.76871 0
M  V30 7765 N 749.397 0.351382 -1.53633 0
M  V30 7766 C 750.329 1.45159 -1.77374 0
M  V30 7767 C 751.342 1.4905 -0.654826 0
M  V30 7768 O 752.531 1.52274 -0.931396 0
M  V30 7769 C 749.631 2.83858 -1.85143 0
M  V30 7770 C 748.804 3.03498 -3.14972 0
M  V30 7771 C 747.863 4.22393 -3.138 0
M  V30 7772 O 746.889 4.16885 -3.87551 0
M  V30 7773 N 748.091 5.30533 -2.35617 0
M  V30 7774 H 750.856 1.25167 -2.72311 0
M  V30 7775 H 748.417 0.54121 -1.52586 0
M  V30 7776 H 750.409 3.61557 -1.8182 0
M  V30 7777 H 748.979 2.9703 -0.974275 0
M  V30 7778 H 748.199 2.13336 -3.31484 0
M  V30 7779 H 749.487 3.13498 -4.00745 0
M  V30 7780 H 748.885 5.37875 -1.75235 0
M  V30 7781 H 747.442 6.06756 -2.38098 0
M  V30 7782 N 750.875 1.45233 0.611969 0
M  V30 7783 C 751.805 1.5641 1.73373 0
M  V30 7784 C 752.786 0.415896 1.64937 0
M  V30 7785 O 753.971 0.638478 1.83404 0
M  V30 7786 C 751.101 1.52627 3.11965 0
M  V30 7787 C 750.055 2.66119 3.35208 0
M  V30 7788 C 749.381 2.4739 4.74028 0
M  V30 7789 C 750.681 4.08157 3.25891 0
M  V30 7790 H 752.375 2.50307 1.64277 0
M  V30 7791 H 749.921 1.20467 0.788904 0
M  V30 7792 H 751.874 1.59043 3.90235 0
M  V30 7793 H 750.598 0.552564 3.21892 0
M  V30 7794 H 749.257 2.59123 2.59327 0
M  V30 7795 H 748.905 1.48168 4.80682 0
M  V30 7796 H 748.605 3.23494 4.90536 0
M  V30 7797 H 750.129 2.55653 5.54503 0
M  V30 7798 H 751.543 4.1642 3.9404 0
M  V30 7799 H 749.94 4.84617 3.5393 0
M  V30 7800 H 751.01 4.30374 2.23397 0
M  V30 7801 N 752.353 -0.854086 1.3245 0
M  V30 7802 C 753.599 -1.61069 1.23225 0
M  V30 7803 C 753.932 -1.93111 -0.205349 0
M  V30 7804 O 753.207 -1.57397 -1.14265 0
M  V30 7805 C 753.49 -2.93065 2.09249 0
M  V30 7806 C 753.343 -2.67801 3.6139 0
M  V30 7807 C 754.662 -3.94341 1.95406 0
M  V30 7808 H 751.781 -0.584449 0.448986 0
M  V30 7809 H 754.423 -0.986189 1.62402 0
M  V30 7810 H 752.573 -3.46364 1.75967 0
M  V30 7811 H 754.245 -2.21052 4.04887 0
M  V30 7812 H 752.488 -2.01756 3.84027 0
M  V30 7813 H 753.159 -3.6179 4.16907 0
M  V30 7814 H 755.635 -3.50301 2.24562 0
M  V30 7815 H 754.511 -4.84555 2.57872 0
M  V30 7816 H 754.772 -4.32382 0.921865 0
M  V30 7817 N 753.831 -1.1567 -1.07043 0
M  V30 7818 C 755.056 -0.957946 -1.83952 0
M  V30 7819 C 755.481 0.488807 -1.81638 0
M  V30 7820 O 754.839 1.34869 -1.21162 0
M  V30 7821 C 754.887 -1.48064 -3.288 0
M  V30 7822 O 753.991 -0.681921 -4.06723 0
M  V30 7823 H 753.332 -0.341453 -0.569479 0
M  V30 7824 H 755.862 -1.53728 -1.35015 0
M  V30 7825 H 755.872 -1.49484 -3.7963 0
M  V30 7826 H 754.547 -2.53388 -3.29799 0
M  V30 7827 H 753.124 -0.737612 -3.65532 0
M  V30 7828 N 755.309 1.25446 -0.953992 0
M  V30 7829 C 756.539 1.96929 -0.624688 0
M  V30 7830 C 756.947 1.71112 0.807292 0
M  V30 7831 O 756.29 0.983512 1.55154 0
M  V30 7832 C 756.352 3.50425 -0.802676 0
M  V30 7833 C 756.016 3.99916 -2.21169 0
M  V30 7834 C 757.013 4.10662 -3.18831 0
M  V30 7835 C 754.698 4.33598 -2.53571 0
M  V30 7836 C 756.692 4.54401 -4.46988 0
M  V30 7837 C 754.379 4.77024 -3.81958 0
M  V30 7838 C 755.377 4.87388 -4.78478 0
M  V30 7839 O 755.065 5.29851 -6.04577 0
M  V30 7840 H 754.797 0.634511 -0.233179 0
M  V30 7841 H 757.351 1.60591 -1.28061 0
M  V30 7842 H 755.581 3.86596 -0.0896044 0
M  V30 7843 H 757.27 4.03117 -0.47452 0
M  V30 7844 H 758.036 3.84872 -2.95124 0
M  V30 7845 H 753.915 4.24757 -1.79171 0
M  V30 7846 H 757.459 4.62406 -5.22328 0
M  V30 7847 H 753.356 5.02258 -4.05471 0
M  V30 7848 H 754.124 5.48039 -6.07944 0
M  V30 7849 N 756.787 0.722489 1.40064 0
M  V30 7850 C 758.034 0.264979 2.00759 0
M  V30 7851 C 758.362 -1.14395 1.57302 0
M  V30 7852 O 757.617 -1.79165 0.787298 0
M  V30 7853 C 757.916 0.300682 3.56133 0
M  V30 7854 C 757.582 1.66087 4.19197 0
M  V30 7855 C 756.244 2.03319 4.36136 0
M  V30 7856 C 758.596 2.55452 4.54306 0
M  V30 7857 C 755.924 3.29448 4.8547 0
M  V30 7858 C 758.276 3.8094 5.05042 0
M  V30 7859 C 756.94 4.1828 5.2019 0
M  V30 7860 H 756.21 0.0969625 0.734629 0
M  V30 7861 H 758.857 0.926877 1.67575 0
M  V30 7862 H 757.162 -0.44479 3.89267 0
M  V30 7863 H 758.859 -0.0712542 4.00937 0
M  V30 7864 H 755.449 1.36137 4.06405 0
M  V30 7865 H 759.633 2.27961 4.40849 0
M  V30 7866 H 754.889 3.58338 4.95382 0
M  V30 7867 H 759.063 4.50351 5.31184 0
M  V30 7868 H 756.69 5.16081 5.58179 0
M  V30 7869 N 758.265 -1.50454 0.469181 0
M  V30 7870 C 759.681 -1.59124 0.123226 0
M  V30 7871 C 759.881 -1.47749 -1.37013 0
M  V30 7872 O 758.937 -1.335 -2.14322 0
M  V30 7873 C 760.25 -2.93101 0.67172 0
M  V30 7874 C 761.798 -3.06491 0.634978 0
M  V30 7875 C 762.273 -4.43041 1.16098 0
M  V30 7876 N 763.764 -4.49448 1.12031 0
M  V30 7877 C 764.499 -5.53491 1.49784 0
M  V30 7878 N 763.995 -6.64798 1.94976 0
M  V30 7879 N 765.788 -5.44025 1.41399 0
M  V30 7880 H 757.939 -1.56091 1.44046 0
M  V30 7881 H 760.202 -0.737564 0.59557 0
M  V30 7882 H 759.908 -3.06895 1.7178 0
M  V30 7883 H 759.782 -3.77027 0.114222 0
M  V30 7884 H 762.169 -2.92346 -0.402187 0
M  V30 7885 H 762.25 -2.24328 1.22926 0
M  V30 7886 H 761.894 -4.57935 2.19677 0
M  V30 7887 H 761.824 -5.23794 0.542939 0
M  V30 7888 H 764.315 -3.69575 0.788828 0
M  V30 7889 H 764.628 -7.40246 2.21936 0
M  V30 7890 H 762.973 -6.65923 1.98927 0
M  V30 7891 H 766.164 -4.55955 1.05935 0
M  V30 7892 H 766.337 -6.2499 1.71147 0
M  V30 7893 N 759.743 -0.201713 -1.56304 0
M  V30 7894 C 760.706 0.702811 -2.18159 0
M  V30 7895 C 761.706 1.13619 -1.13787 0
M  V30 7896 O 762.896 1.0482 -1.39134 0
M  V30 7897 C 760.028 1.96032 -2.78898 0
M  V30 7898 H 761.221 0.163836 -2.99452 0
M  V30 7899 H 758.774 0.04791 -1.56227 0
M  V30 7900 H 759.509 2.54165 -2.01421 0
M  V30 7901 H 759.294 1.65824 -3.55309 0
M  V30 7902 H 760.784 2.60519 -3.26373 0
M  V30 7903 N 761.222 1.57436 0.0718424 0
M  V30 7904 C 762.154 2.00412 1.1121 0
M  V30 7905 C 763.167 0.910074 1.34987 0
M  V30 7906 O 764.356 1.18796 1.33228 0
M  V30 7907 C 761.456 2.32786 2.46301 0
M  V30 7908 C 760.629 3.64036 2.4248 0
M  V30 7909 C 759.688 3.8408 3.59679 0
M  V30 7910 O 758.714 4.55667 3.4111 0
M  V30 7911 N 759.916 3.2643 4.80025 0
M  V30 7912 H 762.681 2.90264 0.746118 0
M  V30 7913 H 760.242 1.59791 0.260495 0
M  V30 7914 H 762.234 2.43368 3.23348 0
M  V30 7915 H 760.804 1.48824 2.74901 0
M  V30 7916 H 760.024 3.64208 1.50818 0
M  V30 7917 H 761.312 4.50217 2.37027 0
M  V30 7918 H 760.71 2.68325 4.98014 0
M  V30 7919 H 759.267 3.42461 5.54584 0
M  V30 7920 N 762.7 -0.34323 1.53817 0
M  V30 7921 C 763.948 -1.0813 1.70741 0
M  V30 7922 C 764.269 -1.89165 0.473461 0
M  V30 7923 O 763.539 -1.89075 -0.512605 0
M  V30 7924 H 762.119 -0.40219 0.629486 0
M  V30 7925 H 764.781 -0.384426 1.91071 0
M  V30 7926 H 763.877 -1.7585 2.57843 0
M  V30 7927 N 764.178 -1.45556 -0.604258 0
M  V30 7928 C 765.424 -1.50958 -1.3632 0
M  V30 7929 C 765.779 -0.15051 -1.9181 0
M  V30 7930 O 765.072 0.838035 -1.72301 0
M  V30 7931 C 765.266 -2.52697 -2.52743 0
M  V30 7932 C 765.095 -3.98364 -2.08654 0
M  V30 7933 C 763.865 -4.66295 -1.94671 0
M  V30 7934 C 766.063 -4.86801 -1.6592 0
M  V30 7935 N 764.045 -5.96669 -1.44428 0
M  V30 7936 C 765.416 -6.06829 -1.27115 0
M  V30 7937 C 767.471 -4.73634 -1.53542 0
M  V30 7938 C 766.174 -7.15149 -0.771676 0
M  V30 7939 C 768.2 -5.82005 -1.04998 0
M  V30 7940 C 767.562 -7.01191 -0.671599 0
M  V30 7941 H 763.661 -0.607329 -0.492621 0
M  V30 7942 H 766.245 -1.82048 -0.69041 0
M  V30 7943 H 764.416 -2.23554 -3.17614 0
M  V30 7944 H 766.148 -2.48227 -3.19633 0
M  V30 7945 H 762.903 -4.21496 -2.15959 0
M  V30 7946 H 763.327 -6.66003 -1.21528 0
M  V30 7947 H 767.969 -3.81898 -1.81421 0
M  V30 7948 H 765.687 -8.06671 -0.480442 0
M  V30 7949 H 769.273 -5.73851 -0.958423 0
M  V30 7950 H 768.153 -7.83619 -0.301752 0
M  V30 7951 N 765.656 0.84705 -1.32902 0
M  V30 7952 C 766.619 1.9378 -1.224 0
M  V30 7953 C 767.619 1.60144 -0.145108 0
M  V30 7954 O 768.809 1.69638 -0.396058 0
M  V30 7955 C 765.941 3.29234 -0.884174 0
M  V30 7956 H 767.134 2.04518 -2.19345 0
M  V30 7957 H 764.687 1.03816 -1.16842 0
M  V30 7958 H 765.422 3.24193 0.0831277 0
M  V30 7959 H 765.207 3.55026 -1.6643 0
M  V30 7960 H 766.697 4.09162 -0.835226 0
M  V30 7961 N 767.134 1.16236 1.06428 0
M  V30 7962 C 768.545 0.950942 1.60667 0
M  V30 7963 C 768.896 -0.505491 1.89576 0
M  V30 7964 O 768.021 -1.37843 1.66818 0
M  V30 7965 C 768.616 1.71982 2.91904 0
M  V30 7966 C 767.175 1.55342 3.4285 0
M  V30 7967 C 766.322 1.72942 2.16763 0
M  V30 7968 H 769.273 1.31126 0.893959 0
M  V30 7969 H 769.294 1.19483 3.61253 0
M  V30 7970 H 768.806 2.77978 2.70831 0
M  V30 7971 H 766.907 0.5178 3.68985 0
M  V30 7972 H 767.02 2.33643 4.18267 0
M  V30 7973 H 765.384 1.15673 2.26918 0
M  V30 7974 H 766.167 2.80324 1.98175 0
M  V30 7975 N 768.612 -1.24939 0.960631 0
M  V30 7976 C 769.542 -2.28 0.503815 0
M  V30 7977 C 770.523 -1.63959 -0.452928 0
M  V30 7978 O 771.708 -1.91009 -0.350585 0
M  V30 7979 C 768.838 -3.46643 -0.213535 0
M  V30 7980 C 767.792 -4.22903 0.658535 0
M  V30 7981 C 767.118 -5.34363 -0.189902 0
M  V30 7982 C 768.418 -4.84949 1.93963 0
M  V30 7983 H 770.112 -2.66462 1.36521 0
M  V30 7984 H 767.658 -1.28093 0.657897 0
M  V30 7985 H 769.611 -4.1787 -0.544286 0
M  V30 7986 H 768.335 -3.07187 -1.10923 0
M  V30 7987 H 766.994 -3.53467 0.972455 0
M  V30 7988 H 766.642 -4.91147 -1.08553 0
M  V30 7989 H 766.342 -5.86302 0.390331 0
M  V30 7990 H 767.866 -6.0842 -0.515484 0
M  V30 7991 H 769.28 -5.48288 1.67491 0
M  V30 7992 H 767.677 -5.47091 2.46601 0
M  V30 7993 H 768.747 -4.06799 2.639 0
M  V30 7994 N 770.09 -0.729906 -1.39679 0
M  V30 7995 C 771.037 -0.0866063 -2.30637 0
M  V30 7996 C 772.007 0.735115 -1.48947 0
M  V30 7997 O 773.192 0.696125 -1.77648 0
M  V30 7998 C 770.332 0.818524 -3.35252 0
M  V30 7999 C 769.445 -0.0152635 -4.31997 0
M  V30 8000 C 768.58 0.890669 -5.2368 0
M  V30 8001 C 767.619 0.0518246 -6.12078 0
M  V30 8002 N 766.756 0.913411 -6.96133 0
M  V30 8003 H 771.596 -0.867925 -2.85081 0
M  V30 8004 H 769.133 -0.439673 -1.40376 0
M  V30 8005 H 771.091 1.3577 -3.9449 0
M  V30 8006 H 769.721 1.56587 -2.82277 0
M  V30 8007 H 768.773 -0.671794 -3.74421 0
M  V30 8008 H 770.085 -0.664086 -4.9436 0
M  V30 8009 H 769.239 1.49787 -5.87919 0
M  V30 8010 H 767.978 1.57328 -4.61627 0
M  V30 8011 H 766.983 -0.568209 -5.46856 0
M  V30 8012 H 768.208 -0.627497 -6.76195 0
M  V30 8013 H 766.154 1.58141 -6.36653 0
M  V30 8014 H 766.071 0.320952 -7.55318 0
M  V30 8015 H 767.339 1.50633 -7.64807 0
M  V30 8016 N 771.568 1.50203 -0.477153 0
M  V30 8017 C 772.979 1.86685 -0.0235041 0
M  V30 8018 C 773.33 1.39148 1.38319 0
M  V30 8019 O 772.455 0.759051 2.02651 0
M  V30 8020 C 773.05 3.38781 -0.0358767 0
M  V30 8021 C 771.609 3.74652 0.362327 0
M  V30 8022 C 770.756 2.7412 -0.41875 0
M  V30 8023 H 773.707 1.4286 -0.691133 0
M  V30 8024 H 773.728 3.72732 0.764924 0
M  V30 8025 H 773.24 3.73349 -1.05981 0
M  V30 8026 H 771.341 3.45686 1.39039 0
M  V30 8027 H 771.454 4.79063 0.059457 0
M  V30 8028 H 769.818 2.54376 0.128341 0
M  V30 8029 H 770.601 3.11532 -1.44231 0
M  V30 8030 N 773.046 0.209999 1.56195 0
M  V30 8031 C 773.976 -0.699746 2.22769 0
M  V30 8032 C 774.957 -1.20993 1.1956 0
M  V30 8033 O 776.142 -1.25605 1.48112 0
M  V30 8034 C 773.272 -1.91302 2.89863 0
M  V30 8035 C 772.226 -1.53715 3.99444 0
M  V30 8036 C 771.552 -2.82826 4.53777 0
M  V30 8037 C 772.852 -0.735836 5.17091 0
M  V30 8038 H 774.546 -0.144716 2.9905 0
M  V30 8039 H 772.092 -0.0681645 1.43839 0
M  V30 8040 H 774.045 -2.5548 3.35124 0
M  V30 8041 H 772.769 -2.49283 2.11011 0
M  V30 8042 H 771.428 -0.918892 3.54897 0
M  V30 8043 H 771.076 -3.38927 3.71669 0
M  V30 8044 H 770.776 -2.58415 5.27727 0
M  V30 8045 H 772.3 -3.47966 5.01749 0
M  V30 8046 H 773.714 -1.28105 5.58804 0
M  V30 8047 H 772.111 -0.589272 5.972 0
M  V30 8048 H 773.181 0.260004 4.84202 0
M  V30 8049 N 774.524 -1.57472 -0.0634922 0
M  V30 8050 C 775.935 -1.76303 -0.614337 0
M  V30 8051 C 776.286 -0.836578 -1.77471 0
M  V30 8052 O 775.411 -0.0227184 -2.16388 0
M  V30 8053 C 776.006 -3.19709 -1.12122 0
M  V30 8054 C 774.565 -3.39856 -1.61786 0
M  V30 8055 C 773.712 -2.71975 -0.540845 0
M  V30 8056 H 776.663 -1.57864 0.162702 0
M  V30 8057 H 776.684 -3.24326 -1.98979 0
M  V30 8058 H 776.196 -3.87114 -0.276472 0
M  V30 8059 H 774.297 -2.77578 -2.48558 0
M  V30 8060 H 774.41 -4.48338 -1.68908 0
M  V30 8061 H 772.774 -2.34763 -0.987854 0
M  V30 8062 H 773.557 -3.4204 0.293856 0
M  V30 8063 N 776.003 0.335068 -1.53997 0
M  V30 8064 C 777.414 0.910191 -1.6301 0
M  V30 8065 C 777.765 1.89271 -0.516809 0
M  V30 8066 O 776.89 2.13516 0.352123 0
M  V30 8067 C 777.485 1.65761 -2.9548 0
M  V30 8068 C 776.044 2.18163 -3.06728 0
M  V30 8069 C 775.191 1.00338 -2.5851 0
M  V30 8070 H 778.142 0.112965 -1.58297 0
M  V30 8071 H 778.163 2.52107 -2.84995 0
M  V30 8072 H 777.675 0.94227 -3.76488 0
M  V30 8073 H 775.776 2.92847 -2.30372 0
M  V30 8074 H 775.889 2.43952 -4.1234 0
M  V30 8075 H 774.253 1.37925 -2.14124 0
M  V30 8076 H 775.036 0.30254 -3.41964 0
M  V30 8077 N 777.481 1.45874 0.596531 0
M  V30 8078 C 778.706 1.54247 1.38646 0
M  V30 8079 C 779.131 0.179571 1.87241 0
M  V30 8080 O 778.489 -0.837831 1.6078 0
M  V30 8081 C 778.537 2.54015 2.55946 0
M  V30 8082 O 777.641 2.06561 3.5694 0
M  V30 8083 H 776.982 0.519555 0.413471 0
M  V30 8084 H 779.512 1.91327 0.724936 0
M  V30 8085 H 779.522 2.73179 3.03047 0
M  V30 8086 H 778.197 3.52994 2.19928 0
M  V30 8087 H 776.774 1.97324 3.16414 0
M  V30 8088 N 778.959 -0.83999 1.33349 0
M  V30 8089 C 779.922 -1.93128 1.23426 0
M  V30 8090 C 780.922 -1.60065 0.153599 0
M  V30 8091 O 782.112 -1.69425 0.405049 0
M  V30 8092 C 779.244 -3.28761 0.901622 0
M  V30 8093 H 780.437 -2.03352 2.20427 0
M  V30 8094 H 777.99 -1.03194 1.17391 0
M  V30 8095 H 778.725 -3.24233 -0.0659337 0
M  V30 8096 H 778.51 -3.54138 1.68311 0
M  V30 8097 H 780 -4.08714 0.856913 0
M  V30 8098 N 780.437 -1.16799 -1.0581 0
M  V30 8099 C 781.384 -0.87902 -2.13405 0
M  V30 8100 C 782.354 0.174541 -1.6518 0
M  V30 8101 O 783.539 0.0386843 -1.90761 0
M  V30 8102 C 780.679 -0.391616 -3.42871 0
M  V30 8103 C 779.792 -1.50857 -4.04804 0
M  V30 8104 C 778.927 -0.975682 -5.22163 0
M  V30 8105 C 777.966 -2.06851 -5.76089 0
M  V30 8106 N 777.103 -1.55085 -6.84758 0
M  V30 8107 H 781.943 -1.80043 -2.37463 0
M  V30 8108 H 779.48 -0.898083 -1.16503 0
M  V30 8109 H 781.438 -0.0906247 -4.17102 0
M  V30 8110 H 780.068 0.49284 -3.19016 0
M  V30 8111 H 779.12 -1.92542 -3.28073 0
M  V30 8112 H 780.432 -2.33305 -4.40874 0
M  V30 8113 H 779.586 -0.628165 -6.03439 0
M  V30 8114 H 778.325 -0.120566 -4.87551 0
M  V30 8115 H 777.33 -2.42467 -4.93447 0
M  V30 8116 H 778.555 -2.92768 -6.12751 0
M  V30 8117 H 776.501 -0.718345 -6.52055 0
M  V30 8118 H 776.418 -2.31145 -7.19797 0
M  V30 8119 H 777.686 -1.23206 -7.69702 0
M  V30 8120 N 781.915 1.24427 -0.967243 0
M  V30 8121 C 783.192 1.87831 -0.545776 0
M  V30 8122 C 783.572 1.87126 0.977099 0
M  V30 8123 O 782.92 1.34357 1.84826 0
M  V30 8124 C 783.13 3.29967 -1.13679 0
M  V30 8125 C 784.478 4.06654 -1.22139 0
M  V30 8126 O 785.502 3.39136 -1.08926 0
M  V30 8127 O 784.361 5.27455 -1.43017 0
M  V30 8128 H 781.455 0.806745 -0.181912 0
M  V30 8129 H 784.001 1.32403 -1.06148 0
M  V30 8130 H 782.773 3.24977 -2.17958 0
M  V30 8131 H 782.396 3.92969 -0.605093 0
M  V30 8132 N 783.393 0.737304 1.3929 0
M  V30 8133 C 784.804 0.355966 1.83275 0
M  V30 8134 C 785.155 -1.11295 1.6158 0
M  V30 8135 O 784.28 -1.85871 1.10819 0
M  V30 8136 C 784.875 0.63931 3.32713 0
M  V30 8137 C 783.434 0.31144 3.75109 0
M  V30 8138 C 782.581 0.900765 2.62262 0
M  V30 8139 H 785.532 0.934763 1.28249 0
M  V30 8140 H 785.553 -0.0881293 3.80398 0
M  V30 8141 H 785.065 1.70847 3.48472 0
M  V30 8142 H 783.166 -0.751791 3.64937 0
M  V30 8143 H 783.279 0.795611 4.72448 0
M  V30 8144 H 781.643 0.327239 2.52589 0
M  V30 8145 H 782.426 1.97463 2.80826 0
M  V30 8146 N 784.871 -1.49948 0.485112 0
M  V30 8147 C 785.834 -2.27351 -0.290546 0
M  V30 8148 C 786.834 -1.32704 -0.908087 0
M  V30 8149 O 788.024 -1.56007 -0.775085 0
M  V30 8150 C 785.156 -3.10135 -1.41524 0
M  V30 8151 H 786.349 -2.97374 0.388454 0
M  V30 8152 H 783.902 -1.54453 0.239586 0
M  V30 8153 H 784.637 -2.44641 -2.12888 0
M  V30 8154 H 784.422 -3.79705 -0.978074 0
M  V30 8155 H 785.912 -3.68638 -1.96204 0
M  V30 8156 N 786.349 -0.21828 -1.56081 0
M  V30 8157 C 787.281 0.725447 -2.17416 0
M  V30 8158 C 788.294 1.15995 -1.14233 0
M  V30 8159 O 789.483 1.09166 -1.41227 0
M  V30 8160 C 786.583 1.99401 -2.7403 0
M  V30 8161 C 785.756 1.7156 -4.02351 0
M  V30 8162 C 784.815 2.8309 -4.43561 0
M  V30 8163 O 783.841 2.51701 -5.10525 0
M  V30 8164 N 785.043 4.11972 -4.08973 0
M  V30 8165 H 787.808 0.200801 -2.99027 0
M  V30 8166 H 785.369 -0.0371514 -1.61857 0
M  V30 8167 H 787.361 2.73198 -2.98571 0
M  V30 8168 H 785.931 2.42923 -1.96742 0
M  V30 8169 H 785.151 0.814233 -3.85699 0
M  V30 8170 H 786.439 1.50385 -4.86068 0
M  V30 8171 H 785.837 4.40319 -3.55156 0
M  V30 8172 H 784.394 4.82323 -4.38415 0
M  V30 8173 N 787.827 1.57504 0.0551401 0
M  V30 8174 C 788.79 2.03826 1.04821 0
M  V30 8175 C 789.79 0.937968 1.30609 0
M  V30 8176 O 790.98 1.20237 1.2605 0
M  V30 8177 C 788.112 2.43309 2.38775 0
M  V30 8178 H 789.305 2.92802 0.6486 0
M  V30 8179 H 786.858 1.53368 0.301315 0
M  V30 8180 H 787.593 1.5741 2.83536 0
M  V30 8181 H 787.378 3.23615 2.21395 0
M  V30 8182 H 788.868 2.79666 3.10124 0
M  V30 8183 N 789.305 -0.326896 1.54172 0
M  V30 8184 C 790.716 -0.901533 1.63491 0
M  V30 8185 C 791.067 -1.88994 0.52684 0
M  V30 8186 O 790.192 -2.137 -0.340794 0
M  V30 8187 C 790.787 -1.64192 2.96355 0
M  V30 8188 C 789.346 -2.16533 3.07881 0
M  V30 8189 C 788.493 -0.98966 2.59039 0
M  V30 8190 H 791.444 -0.104568 1.58355 0
M  V30 8191 H 791.465 -2.50592 2.86328 0
M  V30 8192 H 790.977 -0.922291 3.76982 0
M  V30 8193 H 789.078 -2.91622 2.31922 0
M  V30 8194 H 789.191 -2.41762 4.13628 0
M  V30 8195 H 787.555 -1.36787 2.14852 0
M  V30 8196 H 788.338 -0.284401 3.4212 0
M  V30 8197 N 790.784 -1.46188 -0.588786 0
M  V30 8198 C 791.716 -1.52319 -1.71265 0
M  V30 8199 C 792.729 -0.412096 -1.57498 0
M  V30 8200 O 793.918 -0.680146 -1.65034 0
M  V30 8201 C 791.018 -1.38164 -3.09458 0
M  V30 8202 C 790.191 -2.63284 -3.49286 0
M  V30 8203 C 789.25 -2.43415 -4.66514 0
M  V30 8204 O 788.276 -3.17113 -4.72682 0
M  V30 8205 N 789.478 -1.49187 -5.61002 0
M  V30 8206 H 792.243 -2.49219 -1.66463 0
M  V30 8207 H 789.804 -1.42167 -0.774601 0
M  V30 8208 H 791.796 -1.22653 -3.85666 0
M  V30 8209 H 790.366 -0.494678 -3.08661 0
M  V30 8210 H 789.586 -2.93779 -2.62845 0
M  V30 8211 H 790.874 -3.46413 -3.7266 0
M  V30 8212 H 790.272 -0.884027 -5.5875 0
M  V30 8213 H 788.829 -1.39642 -6.36666 0
M  V30 8214 N 792.262 0.832906 -1.33792 0
M  V30 8215 C 793.225 1.92471 -1.24449 0
M  V30 8216 C 794.225 1.59981 -0.162085 0
M  V30 8217 O 795.415 1.69208 -0.414029 0
M  V30 8218 C 792.547 3.28278 -0.919044 0
M  V30 8219 H 793.74 2.0218 -2.21502 0
M  V30 8220 H 791.293 1.0257 -1.17936 0
M  V30 8221 H 792.028 3.24263 0.048738 0
M  V30 8222 H 791.813 3.53241 -1.70187 0
M  V30 8223 H 793.303 4.08253 -0.878576 0
M  V30 8224 O 793.779 1.29052 0.970973 0
M  V30 8225 H 794.47 1.09654 1.59674 0
M  V30 END ATOM
M  V30 BEGIN BOND
M  V30 END BOND
M  V30 END CTAB
M  END
$$$$
