drugbank_target|P61073 C-X-C chemokine receptor type 4 (DB00452; DB05501; DB06809; DB12698)
 OpenBabel12092119433D

  0  0  0     0  0            999 V3000
M  V30 BEGIN CTAB
M  V30 COUNTS 5655 5727 0 0 0
M  V30 BEGIN ATOM
M  V30 1 H -0.908 1.98254 -0.117106 0
M  V30 2 N 0 1.576 0 0
M  V30 3 C 0.933 2.03868 1.02534 0
M  V30 4 C 1.911 0.928543 1.3348 0
M  V30 5 O 3.095 1.19667 1.45644 0
M  V30 6 C 0.222 2.43627 2.35294 0
M  V30 7 C -0.732 3.65373 2.2001 0
M  V30 8 S 0.101 5.13292 1.52614 0
M  V30 9 C 1.257 5.56322 2.86805 0
M  V30 10 H 1.49 2.90518 0.631377 0
M  V30 11 H -0.977 1.52953 0.210867 0
M  V30 12 H 0.981 2.67203 3.11629 0
M  V30 13 H -0.358 1.57376 2.7183 0
M  V30 14 H -1.165 3.90944 3.18086 0
M  V30 15 H -1.563 3.418 1.51819 0
M  V30 16 H 0.729 5.58782 3.83104 0
M  V30 17 H 1.672 6.56266 2.65933 0
M  V30 18 H 2.08 4.83886 2.90714 0
M  V30 19 N 1.4781 -0.272755 1.55222 0
M  V30 20 C 2.3881 -1.35918 1.91216 0
M  V30 21 C 3.4041 -1.54026 0.809436 0
M  V30 22 O 4.5801 -1.68148 1.10852 0
M  V30 23 C 1.6451 -2.69834 2.17693 0
M  V30 24 C 0.7061 -2.6047 3.41253 0
M  V30 25 C -0.0609 -3.88 3.66458 0
M  V30 26 O 0.1621 -4.88693 2.94169 0
M  V30 27 O -0.9039 -3.88189 4.59992 0
M  V30 28 H 2.9221 -1.0839 2.83699 0
M  V30 29 H 0.5071 -0.471301 1.41771 0
M  V30 30 H 2.3891 -3.49017 2.36147 0
M  V30 31 H 1.0641 -2.97148 1.28392 0
M  V30 32 H -0.0289 -1.79663 3.28134 0
M  V30 33 H 1.3041 -2.38106 4.30774 0
M  V30 34 N 2.9562 -1.48159 -0.537278 0
M  V30 35 C 4.2042 -1.55497 -1.29094 0
M  V30 36 C 4.5252 -0.227454 -1.93669 0
M  V30 37 O 3.7952 0.750386 -1.80959 0
M  V30 38 H 2.3752 -0.572832 -0.47945 0
M  V30 39 H 5.0372 -1.84579 -0.625818 0
M  V30 40 H 4.1332 -2.33216 -2.07405 0
M  V30 41 N 4.4343 0.785586 -1.36625 0
M  V30 42 C 5.6833 1.53883 -1.30396 0
M  V30 43 C 5.9963 1.95271 0.113452 0
M  V30 44 O 7.2023 2.69858 0.298142 0
M  V30 45 C 5.6583 2.77808 -2.28802 0
M  V30 46 C 5.2663 2.43574 -3.75999 0
M  V30 47 C 7.0103 3.55783 -2.31558 0
M  V30 48 C 4.9173 3.63919 -4.66173 0
M  V30 49 H 3.8473 0.577678 -0.484566 0
M  V30 50 H 6.4983 0.861705 -1.62009 0
M  V30 51 H 4.8803 3.47339 -1.90188 0
M  V30 52 H 6.0543 1.81916 -4.23371 0
M  V30 53 H 4.3693 1.78803 -3.76056 0
M  V30 54 H 6.9663 4.45205 -2.96137 0
M  V30 55 H 7.3093 3.94644 -1.3252 0
M  V30 56 H 7.8423 2.93235 -2.68809 0
M  V30 57 H 4.5813 3.3015 -5.66287 0
M  V30 58 H 4.1013 4.2473 -4.23515 0
M  V30 59 H 5.7803 4.30901 -4.82632 0
M  V30 60 N 5.9124 1.20967 1.01018 0
M  V30 61 C 7.1374 1.0503 1.78839 0
M  V30 62 C 7.5624 -0.395752 1.8389 0
M  V30 63 O 6.9204 -1.28529 1.27867 0
M  V30 64 C 6.9684 1.64602 3.2084 0
M  V30 65 O 6.0724 0.887988 4.02726 0
M  V30 66 H 5.4134 0.369987 0.551367 0
M  V30 67 H 7.9434 1.60399 1.27018 0
M  V30 68 H 7.9534 1.68607 3.71532 0
M  V30 69 H 6.6284 2.69841 3.16479 0
M  V30 70 H 5.2054 0.922648 3.61305 0
M  V30 71 N 7.3905 -1.2043 1.01659 0
M  V30 72 C 8.6395 -1.89118 0.701237 0
M  V30 73 C 8.9525 -1.79705 -0.772358 0
M  V30 74 O 10.1585 -2.43528 -1.20026 0
M  V30 75 C 8.6145 -3.39168 1.20388 0
M  V30 76 C 8.2225 -3.57166 2.70438 0
M  V30 77 C 9.9665 -4.1341 0.963953 0
M  V30 78 C 7.8735 -5.01042 3.14183 0
M  V30 79 H 6.8035 -0.708267 0.2586 0
M  V30 80 H 9.4545 -1.36239 1.22927 0
M  V30 81 H 7.8365 -3.91369 0.603824 0
M  V30 82 H 9.0105 -3.15351 3.35992 0
M  V30 83 H 7.3255 -2.96294 2.92572 0
M  V30 84 H 9.9225 -5.19491 1.26621 0
M  V30 85 H 10.2655 -4.16181 -0.099578 0
M  V30 86 H 10.7985 -3.67309 1.52738 0
M  V30 87 H 7.5375 -5.03426 4.19812 0
M  V30 88 H 7.0575 -5.43668 2.53348 0
M  V30 89 H 8.7365 -5.69623 3.0682 0
M  V30 90 N 8.8686 -0.792821 -1.36206 0
M  V30 91 C 10.0986 -0.378275 -2.03107 0
M  V30 92 C 10.5066 1.01119 -1.59911 0
M  V30 93 O 9.8496 1.66052 -0.785658 0
M  V30 94 C 9.9116 -0.366535 -3.57627 0
M  V30 95 C 9.5756 -1.70416 -4.24037 0
M  V30 96 C 10.5726 -2.6602 -4.46687 0
M  V30 97 C 8.2576 -1.98439 -4.6144 0
M  V30 98 C 10.2516 -3.8784 -5.05825 0
M  V30 99 C 7.9386 -3.20525 -5.20295 0
M  V30 100 C 8.9366 -4.15044 -5.42427 0
M  V30 101 O 8.6246 -5.34978 -6.00045 0
M  V30 102 H 8.3566 -0.153543 -0.658332 0
M  V30 103 H 10.9106 -1.07383 -1.75094 0
M  V30 104 H 9.1406 0.385539 -3.84773 0
M  V30 105 H 10.8296 0.0238088 -4.05893 0
M  V30 106 H 11.5956 -2.45658 -4.18183 0
M  V30 107 H 7.4746 -1.25686 -4.43536 0
M  V30 108 H 11.0186 -4.61628 -5.23015 0
M  V30 109 H 6.9156 -3.40764 -5.48225 0
M  V30 110 H 7.6836 -5.36088 -6.18508 0
M  V30 111 N 10.3467 1.47872 -0.545128 0
M  V30 112 C 11.5747 2.06889 -0.021084 0
M  V30 113 C 11.9897 1.39955 1.2672 0
M  V30 114 O 11.3467 0.492036 1.75742 0
M  V30 115 C 11.3977 3.60996 0.190817 0
M  V30 116 O 11.1187 4.25419 -1.04644 0
M  V30 117 C 12.6197 4.36849 0.753521 0
M  V30 118 H 9.8397 0.669785 -0.0403635 0
M  V30 119 H 12.3837 1.90049 -0.755095 0
M  V30 120 H 10.5387 3.77391 0.87492 0
M  V30 121 H 10.9527 5.17785 -0.836611 0
M  V30 122 H 12.4267 5.45399 0.851139 0
M  V30 123 H 12.9037 4.02306 1.762 0
M  V30 124 H 13.5097 4.25169 0.105503 0
M  V30 125 N 11.8248 0.280983 1.55075 0
M  V30 126 C 13.0498 -0.340154 2.04592 0
M  V30 127 C 13.4748 -1.48246 1.15779 0
M  V30 128 O 12.8328 -1.80614 0.15761 0
M  V30 129 C 12.8808 -0.793104 3.5177 0
M  V30 130 O 11.9848 -1.89981 3.66034 0
M  V30 131 H 11.3258 -0.0694289 0.66036 0
M  V30 132 H 13.8558 0.416993 2.00306 0
M  V30 133 H 13.8658 -1.08729 3.93245 0
M  V30 134 H 12.5408 0.0426163 4.15878 0
M  V30 135 H 11.1178 -1.60771 3.36463 0
M  V30 136 N 13.3029 -1.57598 0.00835791 0
M  V30 137 C 14.5799 -1.82172 -0.712235 0
M  V30 138 C 14.9599 -0.887873 -1.9152 0
M  V30 139 O 14.3079 0.06146 -2.28417 0
M  V30 140 C 14.5179 -3.30875 -1.11008 0
M  V30 141 C 15.8659 -3.96826 -1.51044 0
M  V30 142 O 16.8899 -3.35248 -1.20364 0
M  V30 143 O 15.7489 -5.05318 -2.08125 0
M  V30 144 H 12.8429 -0.750435 -0.347529 0
M  V30 145 H 15.3889 -1.69665 0.0344523 0
M  V30 146 H 14.1609 -3.90481 -0.252982 0
M  V30 147 H 13.7839 -3.48412 -1.9156 0
M  V30 148 N 14.781 0.264519 -1.55364 0
M  V30 149 C 15.729 1.34702 -1.89626 0
M  V30 150 C 16.723 1.50712 -0.773459 0
M  V30 151 O 17.929 1.52395 -0.957897 0
M  V30 152 H 14.304 0.450682 -0.601988 0
M  V30 153 H 16.275 1.0306 -2.80038 0
M  V30 154 C 15.024 2.6989 -2.19214 0
M  V30 155 H 14.347 2.58365 -3.05103 0
M  V30 156 H 15.787 3.44553 -2.47102 0
M  V30 157 C 14.246 3.21637 -1.00254 0
M  V30 158 O 14.776 4.00973 -0.241501 0
M  V30 159 N 12.982 2.7943 -0.797938 0
M  V30 160 H 12.529 2.15026 -1.4185 0
M  V30 161 H 12.487 3.144 -0.00363422 0
M  V30 162 N 16.2591 1.48442 0.529413 0
M  V30 163 C 17.4891 1.59919 1.30804 0
M  V30 164 C 17.8971 0.258792 1.87422 0
M  V30 165 O 17.2401 -0.762096 1.67146 0
M  V30 166 C 17.3021 2.58693 2.49636 0
M  V30 167 C 16.9661 4.03745 2.14101 0
M  V30 168 C 17.9631 4.9141 1.6974 0
M  V30 169 C 15.6481 4.49285 2.24607 0
M  V30 170 C 17.6421 6.22645 1.36351 0
M  V30 171 C 15.3291 5.8054 1.9083 0
M  V30 172 C 16.3271 6.67043 1.46773 0
M  V30 173 O 16.0151 7.95856 1.1344 0
M  V30 174 H 15.7471 0.541981 0.404021 0
M  V30 175 H 18.3011 1.95 0.645309 0
M  V30 176 H 16.5311 2.18734 3.18892 0
M  V30 177 H 18.2201 2.59999 3.11698 0
M  V30 178 H 18.9861 4.57465 1.61094 0
M  V30 179 H 14.8651 3.82142 2.57854 0
M  V30 180 H 18.4091 6.90119 1.01891 0
M  V30 181 H 14.3061 6.14022 1.99117 0
M  V30 182 H 15.0741 8.08613 1.26832 0
M  V30 183 N 17.7372 -0.778329 1.37039 0
M  V30 184 C 18.9652 -1.56734 1.35063 0
M  V30 185 C 19.3802 -1.88686 -0.0655597 0
M  V30 186 O 18.7372 -1.5096 -1.02554 0
M  V30 187 C 18.7882 -2.88163 2.18276 0
M  V30 188 O 18.5092 -2.57583 3.54376 0
M  V30 189 C 20.0102 -3.82422 2.24206 0
M  V30 190 H 17.2302 -0.485778 0.462883 0
M  V30 191 H 19.7742 -0.965185 1.8029 0
M  V30 192 H 17.9292 -3.44818 1.76576 0
M  V30 193 H 18.3432 -3.41699 3.97922 0
M  V30 194 H 19.8172 -4.71667 2.86765 0
M  V30 195 H 20.2942 -4.21078 1.24861 0
M  V30 196 H 20.9002 -3.31697 2.6619 0
M  V30 197 N 19.2153 -1.21501 -1.00376 0
M  V30 198 C 20.1253 -0.991447 -2.12621 0
M  V30 199 C 21.1413 0.0568446 -1.73907 0
M  V30 200 O 22.3173 -0.13348 -2.00957 0
M  V30 201 C 19.3823 -0.560312 -3.42142 0
M  V30 202 C 18.4433 -1.68096 -3.95022 0
M  V30 203 C 17.6763 -1.2703 -5.18362 0
M  V30 204 O 17.8993 -0.144438 -5.70217 0
M  V30 205 O 16.8333 -2.08269 -5.64719 0
M  V30 206 H 20.6593 -1.93158 -2.34358 0
M  V30 207 H 18.2443 -0.999999 -1.10997 0
M  V30 208 H 20.1263 -0.329724 -4.20108 0
M  V30 209 H 18.8013 0.351089 -3.2179 0
M  V30 210 H 17.7083 -1.96597 -3.18278 0
M  V30 211 H 19.0413 -2.56983 -4.19786 0
M  V30 212 N 20.6934 1.19889 -1.02296 0
M  V30 213 C 21.6034 2.26571 -0.608508 0
M  V30 214 C 22.6194 1.70299 0.356964 0
M  V30 215 O 23.7954 2.00235 0.216326 0
M  V30 216 C 20.8604 3.46677 0.0402814 0
M  V30 217 C 19.9214 4.18153 -0.97194 0
M  V30 218 C 19.1544 5.32525 -0.354016 0
M  V30 219 O 19.3774 5.64112 0.844604 0
M  V30 220 O 18.3114 5.92242 -1.07391 0
M  V30 221 H 22.1374 2.64251 -1.49684 0
M  V30 222 H 19.7224 1.26629 -0.792809 0
M  V30 223 H 21.6044 4.19475 0.402324 0
M  V30 224 H 20.2794 3.10858 0.902707 0
M  V30 225 H 19.1864 3.47499 -1.38546 0
M  V30 226 H 20.5194 4.57927 -1.80454 0
M  V30 227 N 22.1715 0.800033 1.35784 0
M  V30 228 C 23.1045 0.151499 2.27697 0
M  V30 229 C 24.0825 -0.678663 1.4776 0
M  V30 230 O 25.2665 -0.647358 1.77035 0
M  V30 231 C 22.3935 -0.790492 3.29346 0
M  V30 232 C 21.4395 -0.0407832 4.26481 0
M  V30 233 S 22.2725 1.29077 5.19711 0
M  V30 234 C 23.4285 0.353055 6.24903 0
M  V30 235 H 23.6615 0.930796 2.82353 0
M  V30 236 H 21.1945 0.594767 1.42485 0
M  V30 237 H 23.1525 -1.3285 3.88409 0
M  V30 238 H 21.8135 -1.54312 2.73581 0
M  V30 239 H 21.0065 -0.755971 4.98298 0
M  V30 240 H 20.6085 0.427063 3.71554 0
M  V30 241 H 22.9005 -0.464147 6.75908 0
M  V30 242 H 23.8435 1.04023 7.00418 0
M  V30 243 H 24.2515 -0.0483344 5.64479 0
M  V30 244 N 23.6496 -1.47581 0.552962 0
M  V30 245 C 24.8976 -2.02082 0.0272703 0
M  V30 246 C 25.2186 -1.4301 -1.32563 0
M  V30 247 O 24.4886 -0.603745 -1.86365 0
M  V30 248 H 23.0686 -0.746966 0.00709182 0
M  V30 249 H 25.7306 -1.81033 0.722008 0
M  V30 250 H 24.8266 -3.12034 -0.0639951 0
M  V30 251 N 25.1277 -0.289203 -1.54924 0
M  V30 252 C 26.3527 0.329299 -2.04769 0
M  V30 253 C 26.7777 1.4763 -1.16564 0
M  V30 254 O 26.1357 1.80527 -0.167186 0
M  V30 255 C 26.1837 0.774438 -3.52186 0
M  V30 256 O 25.2877 1.88038 -3.67036 0
M  V30 257 H 24.6287 0.0659259 -0.660719 0
M  V30 258 H 27.1587 -0.42761 -2.00082 0
M  V30 259 H 27.1687 1.06642 -3.93816 0
M  V30 260 H 25.8437 -0.0646707 -4.1585 0
M  V30 261 H 24.4207 1.58985 -3.3731 0
M  V30 262 N 26.6058 1.57591 -0.0167156 0
M  V30 263 C 27.8538 1.90906 0.663285 0
M  V30 264 C 28.1748 0.892509 1.73376 0
M  V30 265 O 27.4448 -0.0677623 1.95783 0
M  V30 266 H 26.0248 0.704637 0.247983 0
M  V30 267 H 28.6868 1.94803 -0.0615909 0
M  V30 268 H 27.7828 2.9116 1.12393 0
M  V30 269 N 28.0839 -0.256276 1.55502 0
M  V30 270 C 29.3609 -1.00789 1.67633 0
M  V30 271 C 29.7409 -2.03706 0.553826 0
M  V30 272 O 29.0889 -2.24145 -0.443969 0
M  V30 273 C 29.2989 -1.64968 3.07549 0
M  V30 274 C 30.6469 -2.15505 3.65845 0
M  V30 275 O 31.6709 -1.74925 3.1029 0
M  V30 276 O 30.5299 -2.89986 4.63217 0
M  V30 277 H 27.6239 -0.468553 0.681459 0
M  V30 278 H 30.1699 -0.250806 1.67836 0
M  V30 279 H 28.9419 -0.904785 3.80696 0
M  V30 280 H 28.5649 -2.47321 3.11317 0
M  V30 281 N 29.562 -1.4872 -0.521534 0
M  V30 282 C 30.792 -1.6061 -1.29954 0
M  V30 283 C 31.2 -0.268728 -1.87282 0
M  V30 284 O 30.543 0.753221 -1.67548 0
M  V30 285 C 30.605 -2.60013 -2.48261 0
M  V30 286 C 30.269 -4.04874 -2.11957 0
M  V30 287 C 31.266 -4.92304 -1.67132 0
M  V30 288 C 28.951 -4.5047 -2.22221 0
M  V30 289 C 30.945 -6.2336 -1.33047 0
M  V30 290 C 28.632 -5.81544 -1.87748 0
M  V30 291 C 29.63 -6.67812 -1.43234 0
M  V30 292 O 29.318 -7.96446 -1.09217 0
M  V30 293 H 29.05 -0.544116 -0.401141 0
M  V30 294 H 31.604 -1.95339 -0.634958 0
M  V30 295 H 29.834 -2.20422 -3.17728 0
M  V30 296 H 31.523 -2.61648 -3.10315 0
M  V30 297 H 32.289 -4.58312 -1.58665 0
M  V30 298 H 28.168 -3.83504 -2.55823 0
M  V30 299 H 31.712 -6.90649 -0.982299 0
M  V30 300 H 27.609 -6.15069 -1.95858 0
M  V30 301 H 28.377 -8.09275 -1.22542 0
M  V30 302 N 31.0401 0.771051 -1.3745 0
M  V30 303 C 32.3171 1.519 -1.23231 0
M  V30 304 C 32.6971 2.10383 0.173809 0
M  V30 305 O 32.0451 1.95583 1.18151 0
M  V30 306 C 32.2551 2.59933 -2.32886 0
M  V30 307 C 33.6031 3.27316 -2.70461 0
M  V30 308 O 34.6271 2.70228 -2.32068 0
M  V30 309 O 33.4861 4.30531 -3.36608 0
M  V30 310 H 30.5801 0.672803 -0.480901 0
M  V30 311 H 33.1261 0.807957 -1.49232 0
M  V30 312 H 31.8981 2.14842 -3.27045 0
M  V30 313 H 31.5211 3.38637 -2.08353 0
M  V30 314 N 32.5182 1.22032 0.997298 0
M  V30 315 C 33.7432 1.06921 1.77715 0
M  V30 316 C 34.1682 -0.376226 1.84299 0
M  V30 317 O 33.5262 -1.27165 1.29223 0
M  V30 318 C 33.5742 1.67996 3.19076 0
M  V30 319 O 32.6782 0.930653 4.01762 0
M  V30 320 H 32.0192 0.375814 0.547412 0
M  V30 321 H 34.5492 1.61737 1.25309 0
M  V30 322 H 34.5592 1.72538 3.69723 0
M  V30 323 H 33.2342 2.73182 3.13599 0
M  V30 324 H 31.8112 0.960917 3.60307 0
M  V30 325 N 33.9963 -1.19345 1.0293 0
M  V30 326 C 34.9293 -2.21347 0.555029 0
M  V30 327 C 35.9073 -1.57492 -0.404351 0
M  V30 328 O 37.0913 -1.85741 -0.321352 0
M  V30 329 C 34.2183 -3.38163 -0.19064 0
M  V30 330 C 33.2643 -4.20375 0.720236 0
M  V30 331 S 34.0973 -4.88371 2.19668 0
M  V30 332 C 35.2533 -6.08597 1.46153 0
M  V30 333 H 35.4863 -2.61235 1.41929 0
M  V30 334 H 33.0193 -1.29598 0.839272 0
M  V30 335 H 34.9773 -4.05871 -0.614724 0
M  V30 336 H 33.6383 -2.9671 -1.03063 0
M  V30 337 H 32.8313 -5.03793 0.14455 0
M  V30 338 H 32.4333 -3.57987 1.08266 0
M  V30 339 H 34.7253 -6.73354 0.748357 0
M  V30 340 H 35.6683 -6.7065 2.27233 0
M  V30 341 H 36.0763 -5.56297 0.958842 0
M  V30 342 N 35.4744 -0.807222 -1.35358 0
M  V30 343 C 36.4214 -0.216037 -2.29787 0
M  V30 344 C 37.3914 0.650278 -1.52842 0
M  V30 345 O 38.5764 0.595227 -1.81278 0
M  V30 346 C 35.7164 0.628893 -3.39321 0
M  V30 347 C 34.8294 -0.257927 -4.31229 0
M  V30 348 C 33.9644 0.595069 -5.27856 0
M  V30 349 C 33.0034 -0.292111 -6.11403 0
M  V30 350 N 32.1404 0.520895 -7.00165 0
M  V30 351 H 36.9804 -1.02671 -2.79755 0
M  V30 352 H 34.5174 -0.517839 -1.37684 0
M  V30 353 H 36.4754 1.13393 -4.01494 0
M  V30 354 H 35.1054 1.40482 -2.90628 0
M  V30 355 H 34.1574 -0.881076 -3.70056 0
M  V30 356 H 35.4694 -0.940759 -4.89848 0
M  V30 357 H 34.6234 1.16522 -5.95405 0
M  V30 358 H 33.3624 1.31146 -4.69736 0
M  V30 359 H 32.3674 -0.874525 -5.428 0
M  V30 360 H 33.5924 -1.00638 -6.71602 0
M  V30 361 H 31.5384 1.22125 -6.44532 0
M  V30 362 H 31.4554 -0.103877 -7.55929 0
M  V30 363 H 32.7234 1.0743 -7.72062 0
M  V30 364 N 36.9525 1.47285 -0.560781 0
M  V30 365 C 37.8625 2.33846 0.187954 0
M  V30 366 C 38.8785 1.48412 0.908293 0
M  V30 367 O 40.0545 1.81332 0.876388 0
M  V30 368 C 37.1195 3.25178 1.2025 0
M  V30 369 C 36.1805 4.26504 0.489208 0
M  V30 370 C 35.4135 5.13472 1.45542 0
M  V30 371 O 35.6365 5.02959 2.6905 0
M  V30 372 O 34.5705 5.93902 0.977963 0
M  V30 373 H 38.3965 2.99177 -0.522177 0
M  V30 374 H 35.9815 1.45903 -0.321364 0
M  V30 375 H 37.8635 3.81584 1.78805 0
M  V30 376 H 36.5385 2.6247 1.89449 0
M  V30 377 H 35.4455 3.73847 -0.137627 0
M  V30 378 H 36.7785 4.91935 -0.161399 0
M  V30 379 N 38.4306 0.297415 1.54768 0
M  V30 380 C 39.8416 -0.195947 1.85669 0
M  V30 381 C 40.1926 -1.53707 1.21937 0
M  V30 382 O 39.3176 -2.10164 0.515754 0
M  V30 383 C 39.9126 -0.362318 3.36857 0
M  V30 384 C 38.4716 -0.799901 3.67802 0
M  V30 385 C 37.6186 0.0938578 2.77141 0
M  V30 386 H 40.5696 0.518538 1.4999 0
M  V30 387 H 40.5906 -1.19745 3.61167 0
M  V30 388 H 40.1026 0.613921 3.83214 0
M  V30 389 H 38.2036 -1.78682 3.26961 0
M  V30 390 H 38.3166 -0.621773 4.75048 0
M  V30 391 H 36.6806 -0.426254 2.51108 0
M  V30 392 H 37.4636 1.06639 3.26318 0
M  V30 393 N 39.9087 -1.5758 0.0250728 0
M  V30 394 C 41.1487 -1.93497 -0.65865 0
M  V30 395 C 41.5127 -0.901409 -1.69525 0
M  V30 396 O 42.7137 -1.14664 -2.43116 0
M  V30 397 C 40.9847 -3.34352 -1.26267 0
M  V30 398 S 42.5437 -3.92191 -1.96803 0
M  V30 399 H 39.3617 -0.67709 -0.216958 0
M  V30 400 H 41.9637 -1.95303 0.0877692 0
M  V30 401 H 40.6677 -4.07395 -0.495741 0
M  V30 402 H 40.1987 -3.3598 -2.04648 0
M  V30 403 H 42.2137 -3.75298 -3.24601 0
M  V30 404 N 41.3868 0.248026 -1.55636 0
M  V30 405 C 42.6338 0.976224 -1.77415 0
M  V30 406 C 42.9618 1.85361 -0.589193 0
M  V30 407 O 42.2168 1.90973 0.427529 0
M  V30 408 C 42.5158 1.86819 -3.04686 0
M  V30 409 C 42.1818 1.14625 -4.36087 0
M  V30 410 C 40.8438 0.946723 -4.71795 0
M  V30 411 C 43.1958 0.634463 -5.17324 0
M  V30 412 C 40.5238 0.223091 -5.86276 0
M  V30 413 C 42.8758 -0.0756959 -6.32555 0
M  V30 414 C 41.5398 -0.286711 -6.66884 0
M  V30 415 H 40.8098 0.357226 -0.649208 0
M  V30 416 H 43.4568 0.246415 -1.89908 0
M  V30 417 H 41.7618 2.66502 -2.872 0
M  V30 418 H 43.4588 2.43329 -3.18735 0
M  V30 419 H 40.0488 1.3117 -4.08035 0
M  V30 420 H 44.2328 0.77616 -4.90193 0
M  V30 421 H 39.4888 0.0491185 -6.1138 0
M  V30 422 H 43.6628 -0.479899 -6.94745 0
M  V30 423 H 41.2898 -0.849389 -7.5544 0
M  V30 424 N 42.8649 1.48995 0.513639 0
M  V30 425 C 44.2809 1.35478 0.843682 0
M  V30 426 C 44.4809 0.378213 1.97919 0
M  V30 427 O 43.5369 -0.194689 2.51748 0
M  V30 428 C 44.8499 2.75901 1.1958 0
M  V30 429 C 46.3979 2.84509 1.30474 0
M  V30 430 C 46.8729 4.25671 1.69021 0
M  V30 431 N 48.3639 4.28422 1.76094 0
M  V30 432 C 49.0989 5.34601 2.07338 0
M  V30 433 N 48.5949 6.5104 2.36894 0
M  V30 434 N 50.3879 5.22007 2.08483 0
M  V30 435 H 42.5389 2.11092 -0.235328 0
M  V30 436 H 44.8019 0.947039 -0.0426669 0
M  V30 437 H 44.5079 3.49001 0.434913 0
M  V30 438 H 44.3819 3.10467 2.1422 0
M  V30 439 H 46.7689 2.11655 2.05637 0
M  V30 440 H 46.8499 2.53542 0.339155 0
M  V30 441 H 46.4939 4.99048 0.944135 0
M  V30 442 H 46.4239 4.54094 2.66658 0
M  V30 443 H 48.9149 3.44441 1.55464 0
M  V30 444 H 49.2279 7.2779 2.59887 0
M  V30 445 H 47.5729 6.54287 2.34378 0
M  V30 446 H 50.7639 4.30051 1.84861 0
M  V30 447 H 50.9369 6.04854 2.325 0
M  V30 448 N 44.343 -0.763751 1.37857 0
M  V30 449 C 45.253 -1.90817 1.36478 0
M  V30 450 C 46.269 -1.71997 0.263248 0
M  V30 451 O 47.445 -1.95095 0.499979 0
M  V30 452 C 44.51 -3.2605 1.17864 0
M  V30 453 C 43.571 -3.57467 2.3773 0
M  V30 454 C 42.804 -4.86249 2.19995 0
M  V30 455 O 43.027 -5.57884 1.18836 0
M  V30 456 O 41.961 -5.16911 3.08361 0
M  V30 457 H 45.787 -1.94933 2.32884 0
M  V30 458 H 43.372 -0.907619 1.1867 0
M  V30 459 H 45.254 -4.06924 1.09504 0
M  V30 460 H 43.929 -3.22769 0.245372 0
M  V30 461 H 42.836 -2.76796 2.51664 0
M  V30 462 H 44.169 -3.655 3.29652 0
M  V30 463 N 45.8211 -1.22559 -0.990812 0
M  V30 464 C 46.7311 -1.01394 -2.11557 0
M  V30 465 C 47.7471 0.0383962 -1.73958 0
M  V30 466 O 48.9231 -0.154787 -2.00804 0
M  V30 467 C 45.9881 -0.596569 -3.41529 0
M  V30 468 C 45.0491 -1.72276 -3.93217 0
M  V30 469 C 44.2821 -1.32521 -5.16985 0
M  V30 470 O 44.5051 -0.204909 -5.70032 0
M  V30 471 O 43.4391 -2.14247 -5.62478 0
M  V30 472 H 47.2651 -1.95633 -2.32296 0
M  V30 473 H 44.8501 -1.01172 -1.0993 0
M  V30 474 H 46.7321 -0.374263 -4.19735 0
M  V30 475 H 45.4071 0.316939 -3.22145 0
M  V30 476 H 44.3141 -1.99961 -3.16174 0
M  V30 477 H 45.6471 -2.61421 -4.17037 0
M  V30 478 N 47.2992 1.18797 -1.03562 0
M  V30 479 C 48.2472 2.24297 -0.615905 0
M  V30 480 C 49.2412 1.65643 0.354808 0
M  V30 481 O 50.4472 1.78618 0.22265 0
M  V30 482 H 46.8222 0.729909 -0.180934 0
M  V30 483 H 48.7932 2.5701 -1.5162 0
M  V30 484 C 47.5422 3.47698 0.0104735 0
M  V30 485 H 46.8652 3.93125 -0.727509 0
M  V30 486 H 48.3052 4.23159 0.266995 0
M  V30 487 C 46.7642 3.12489 1.25905 0
M  V30 488 O 47.2942 3.25761 2.35038 0
M  V30 489 N 45.5002 2.6686 1.15039 0
M  V30 490 H 45.0472 2.56261 0.262328 0
M  V30 491 H 45.0052 2.43674 1.98672 0
M  V30 492 N 48.7773 0.814389 1.34928 0
M  V30 493 C 49.7403 0.235759 2.27984 0
M  V30 494 C 50.7403 -0.581412 1.49921 0
M  V30 495 O 51.9303 -0.398758 1.69575 0
M  V30 496 C 49.0623 -0.670433 3.34242 0
M  V30 497 H 50.2553 1.05659 2.80671 0
M  V30 498 H 47.8083 0.585614 1.44915 0
M  V30 499 H 48.5433 -1.51466 2.86755 0
M  V30 500 H 48.3283 -0.0860822 3.92005 0
M  V30 501 H 49.8183 -1.06935 4.03676 0
M  V30 502 N 50.2554 -1.46986 0.568584 0
M  V30 503 C 51.2034 -2.31858 -0.185649 0
M  V30 504 C 52.1974 -1.43624 -0.898249 0
M  V30 505 O 53.4034 -1.60327 -0.818242 0
M  V30 506 H 49.7784 -0.747866 -0.0787399 0
M  V30 507 H 51.7494 -2.93303 0.549191 0
M  V30 508 C 50.4984 -3.26513 -1.19519 0
M  V30 509 H 49.8214 -3.94377 -0.656285 0
M  V30 510 H 51.2614 -3.88707 -1.6936 0
M  V30 511 C 49.7204 -2.50847 -2.24894 0
M  V30 512 O 50.2504 -2.26119 -3.32014 0
M  V30 513 N 48.4564 -2.11656 -1.99124 0
M  V30 514 H 48.0034 -2.31966 -1.12024 0
M  V30 515 H 47.9614 -1.61347 -2.69842 0
M  V30 516 N 51.7335 -0.305618 -1.54608 0
M  V30 517 C 52.9805 0.302298 -2.00231 0
M  V30 518 C 53.3085 1.5354 -1.19398 0
M  V30 519 O 52.5635 1.93973 -0.259423 0
M  V30 520 C 52.8625 0.698983 -3.50498 0
M  V30 521 C 52.5285 -0.432903 -4.48817 0
M  V30 522 C 51.1905 -0.743622 -4.75419 0
M  V30 523 C 53.5425 -1.19409 -5.07337 0
M  V30 524 C 50.8705 -1.81857 -5.57804 0
M  V30 525 C 53.2225 -2.25899 -5.90891 0
M  V30 526 C 51.8865 -2.57572 -6.15803 0
M  V30 527 H 51.1565 0.110619 -0.732697 0
M  V30 528 H 53.8035 -0.425674 -1.86709 0
M  V30 529 H 52.1085 1.50711 -3.61654 0
M  V30 530 H 53.8055 1.1806 -3.83227 0
M  V30 531 H 50.3955 -0.18063 -4.28219 0
M  V30 532 H 54.5795 -0.967295 -4.86782 0
M  V30 533 H 49.8355 -2.06864 -5.75341 0
M  V30 534 H 54.0095 -2.85335 -6.35261 0
M  V30 535 H 51.6365 -3.40998 -6.7943 0
M  V30 536 N 53.2116 1.57565 -0.0334293 0
M  V30 537 C 54.1596 2.1164 0.96496 0
M  V30 538 C 55.1536 1.04398 1.33407 0
M  V30 539 O 56.3596 1.22828 1.3158 0
M  V30 540 H 52.7346 0.676222 0.32898 0
M  V30 541 H 54.7056 2.94455 0.483614 0
M  V30 542 C 53.4546 2.66207 2.23672 0
M  V30 543 H 52.7776 3.48378 1.96145 0
M  V30 544 H 54.2176 3.07685 2.9173 0
M  V30 545 C 52.6766 1.59151 2.96939 0
M  V30 546 O 53.2066 0.993858 3.89211 0
M  V30 547 N 51.4126 1.31093 2.59351 0
M  V30 548 H 50.9596 1.7988 1.84393 0
M  V30 549 H 50.9176 0.596889 3.08682 0
M  V30 550 N 54.6897 -0.239769 1.55765 0
M  V30 551 C 55.6367 -1.29696 1.90913 0
M  V30 552 C 56.6067 -1.47478 0.764164 0
M  V30 553 O 57.7917 -1.61345 1.01845 0
M  V30 554 C 54.9317 -2.64598 2.21544 0
M  V30 555 C 54.0447 -2.54765 3.48882 0
M  V30 556 C 53.1797 -3.82069 3.69049 0
M  V30 557 C 52.2187 -3.66883 4.89963 0
M  V30 558 N 51.3557 -4.86094 5.06614 0
M  V30 559 H 56.1957 -0.990224 2.81067 0
M  V30 560 H 53.7327 -0.477684 1.39128 0
M  V30 561 H 55.6907 -3.43132 2.3731 0
M  V30 562 H 54.3207 -2.93405 1.34585 0
M  V30 563 H 53.3727 -1.67763 3.41409 0
M  V30 564 H 54.6847 -2.39457 4.37563 0
M  V30 565 H 53.8387 -4.69046 3.84812 0
M  V30 566 H 52.5777 -4.00282 2.78614 0
M  V30 567 H 51.5827 -2.78289 4.74168 0
M  V30 568 H 52.8077 -3.50157 5.81865 0
M  V30 569 H 50.7537 -5.04655 4.19117 0
M  V30 570 H 50.6707 -4.73443 5.89396 0
M  V30 571 H 51.9387 -5.74549 5.26795 0
M  V30 572 N 56.1678 -1.49265 -0.50573 0
M  V30 573 C 57.4168 -1.57761 -1.25675 0
M  V30 574 C 57.7298 -0.267371 -1.93764 0
M  V30 575 O 58.9358 -0.230827 -2.70517 0
M  V30 576 C 57.3918 -2.78332 -2.28165 0
M  V30 577 C 56.9998 -4.16096 -1.66037 0
M  V30 578 C 58.7438 -2.96155 -3.04125 0
M  V30 579 C 56.6508 -5.27895 -2.6661 0
M  V30 580 H 55.5808 -0.587391 -0.472745 0
M  V30 581 H 58.2318 -1.75644 -0.53118 0
M  V30 582 H 56.6138 -2.53934 -3.03865 0
M  V30 583 H 57.7878 -4.50612 -0.963622 0
M  V30 584 H 56.1028 -4.03591 -1.02484 0
M  V30 585 H 58.6998 -3.76849 -3.79327 0
M  V30 586 H 59.0428 -2.06534 -3.61455 0
M  V30 587 H 59.5758 -3.2057 -2.35541 0
M  V30 588 H 56.3148 -6.1956 -2.14068 0
M  V30 589 H 55.8348 -4.97839 -3.34539 0
M  V30 590 H 57.5138 -5.57031 -3.29129 0
M  V30 591 N 57.6459 0.756429 -1.3826 0
M  V30 592 C 58.8929 1.51547 -1.34312 0
M  V30 593 C 59.2209 1.94382 0.0677144 0
M  V30 594 O 58.4759 1.65514 1.04421 0
M  V30 595 C 58.7749 2.78313 -2.24224 0
M  V30 596 C 58.4409 2.54455 -3.72241 0
M  V30 597 C 57.1029 2.47657 -4.12576 0
M  V30 598 C 59.4549 2.3354 -4.65949 0
M  V30 599 C 56.7829 2.17956 -5.44713 0
M  V30 600 C 59.1349 2.05359 -5.9834 0
M  V30 601 C 57.7989 1.97016 -6.37762 0
M  V30 602 H 57.0689 0.55455 -0.491482 0
M  V30 603 H 59.7159 0.870039 -1.70595 0
M  V30 604 H 58.0209 3.47492 -1.80987 0
M  V30 605 H 59.7179 3.36259 -2.18474 0
M  V30 606 H 56.3079 2.60616 -3.40261 0
M  V30 607 H 60.4919 2.37772 -4.35635 0
M  V30 608 H 55.7479 2.10003 -5.74203 0
M  V30 609 H 59.9219 1.88179 -6.70494 0
M  V30 610 H 57.5489 1.73766 -7.40074 0
M  V30 611 N 59.124 1.23083 0.984299 0
M  V30 612 C 60.054 1.03292 2.09411 0
M  V30 613 C 61.035 -0.048923 1.7003 0
M  V30 614 O 62.22 0.114967 1.93859 0
M  V30 615 C 59.35 0.619155 3.41736 0
M  V30 616 C 58.304 1.64791 3.95004 0
M  V30 617 C 57.63 1.0897 5.23478 0
M  V30 618 C 58.93 3.03999 4.24714 0
M  V30 619 H 60.624 1.96119 2.26225 0
M  V30 620 H 58.17 0.944344 1.08711 0
M  V30 621 H 60.123 0.467777 4.18796 0
M  V30 622 H 58.847 -0.344786 3.24775 0
M  V30 623 H 57.506 1.78721 3.20085 0
M  V30 624 H 57.154 0.11686 5.02864 0
M  V30 625 H 56.854 1.77704 5.60085 0
M  V30 626 H 58.378 0.950093 6.03163 0
M  V30 627 H 59.792 2.93393 4.92538 0
M  V30 628 H 58.189 3.69936 4.72512 0
M  V30 629 H 59.259 3.53285 3.32142 0
M  V30 630 N 60.6021 -1.18246 1.0419 0
M  V30 631 C 62.0131 -1.69914 0.773698 0
M  V30 632 C 62.3641 -1.83085 -0.705297 0
M  V30 633 O 61.4891 -1.51123 -1.5489 0
M  V30 634 C 62.0841 -3.08619 1.39784 0
M  V30 635 C 60.6431 -3.57494 1.17792 0
M  V30 636 C 59.7901 -2.34013 1.48773 0
M  V30 637 H 62.7411 -1.02904 1.20816 0
M  V30 638 H 62.7621 -3.71958 0.801714 0
M  V30 639 H 62.2741 -2.99001 2.47426 0
M  V30 640 H 60.3751 -3.72406 0.120295 0
M  V30 641 H 60.4881 -4.40852 1.87581 0
M  V30 642 H 58.8521 -2.37986 0.907463 0
M  V30 643 H 59.6351 -2.27013 2.57527 0
M  V30 644 N 62.0802 -0.821533 -1.34494 0
M  V30 645 C 63.3082 -0.421884 -2.02553 0
M  V30 646 C 63.7232 0.971745 -1.61872 0
M  V30 647 O 63.0802 1.62864 -0.823496 0
M  V30 648 C 63.1312 -0.51285 -3.57844 0
M  V30 649 O 62.8522 -1.85155 -3.97051 0
M  V30 650 C 64.3532 -0.107921 -4.43169 0
M  V30 651 H 61.5732 -0.169482 -0.649243 0
M  V30 652 H 64.1172 -1.1093 -1.71798 0
M  V30 653 H 62.2722 0.126474 -3.87193 0
M  V30 654 H 62.6862 -1.82482 -4.91732 0
M  V30 655 H 64.1602 -0.222657 -5.51551 0
M  V30 656 H 64.6372 0.948401 -4.28838 0
M  V30 657 H 65.2432 -0.720989 -4.19144 0
M  V30 658 N 63.5583 1.46682 -0.576371 0
M  V30 659 C 64.8073 2.01619 -0.0572825 0
M  V30 660 C 65.1203 1.45417 1.30818 0
M  V30 661 O 66.3263 1.92133 1.91825 0
M  V30 662 C 64.7823 3.59863 -0.0518371 0
M  V30 663 C 64.3903 4.25059 -1.41523 0
M  V30 664 C 66.1343 4.2248 0.413639 0
M  V30 665 C 64.0413 5.75364 -1.36785 0
M  V30 666 H 62.9713 0.753794 -0.0176448 0
M  V30 667 H 65.6223 1.68481 -0.727076 0
M  V30 668 H 64.0043 3.90048 0.683994 0
M  V30 669 H 65.1783 4.06491 -2.17029 0
M  V30 670 H 63.4933 3.7451 -1.8202 0
M  V30 671 H 66.0903 5.3265 0.467779 0
M  V30 672 H 66.4333 3.90976 1.42982 0
M  V30 673 H 66.9663 3.96897 -0.267929 0
M  V30 674 H 63.7053 6.11518 -2.36063 0
M  V30 675 H 63.2253 5.96214 -0.654895 0
M  V30 676 H 64.9043 6.37955 -1.07805 0
M  V30 677 N 65.0364 0.313813 1.54444 0
M  V30 678 C 66.2664 -0.293491 2.04505 0
M  V30 679 C 66.6744 -1.47086 1.19005 0
M  V30 680 O 66.0174 -1.82481 0.211257 0
M  V30 681 C 66.0794 -0.800455 3.50475 0
M  V30 682 C 65.7434 0.253322 4.56297 0
M  V30 683 C 66.7404 1.08612 5.08428 0
M  V30 684 C 64.4254 0.398708 5.00715 0
M  V30 685 C 66.4194 2.05013 6.0353 0
M  V30 686 C 64.1064 1.36614 5.95634 0
M  V30 687 C 65.1044 2.19033 6.46926 0
M  V30 688 O 64.7924 3.14134 7.39983 0
M  V30 689 H 64.5244 -0.0658325 0.672787 0
M  V30 690 H 67.0784 0.455177 2.00293 0
M  V30 691 H 65.3084 -1.59987 3.52053 0
M  V30 692 H 66.9974 -1.32504 3.83663 0
M  V30 693 H 67.7634 0.984736 4.74898 0
M  V30 694 H 63.6424 -0.23289 4.60411 0
M  V30 695 H 67.1864 2.69382 6.4349 0
M  V30 696 H 63.0834 1.4682 6.28581 0
M  V30 697 H 63.8514 3.0926 7.57826 0
M  V30 698 N 66.5145 -1.57545 0.0417849 0
M  V30 699 C 67.7395 -1.97035 -0.647455 0
M  V30 700 C 68.1645 -0.918775 -1.64135 0
M  V30 701 O 67.5225 0.119006 -1.80909 0
M  V30 702 C 67.5705 -3.35609 -1.31905 0
M  V30 703 O 66.6745 -3.3287 -2.43457 0
M  V30 704 H 66.0155 -0.64211 -0.169086 0
M  V30 705 H 68.5455 -2.04318 0.107399 0
M  V30 706 H 68.5555 -3.72126 -1.67291 0
M  V30 707 H 67.2305 -4.11685 -0.590586 0
M  V30 708 H 65.8075 -3.08087 -2.10088 0
M  V30 709 N 67.9926 0.231505 -1.5589 0
M  V30 710 C 69.2416 0.955346 -1.7764 0
M  V30 711 C 69.5546 1.85893 -0.608546 0
M  V30 712 O 70.7606 2.62067 -0.70943 0
M  V30 713 C 69.2166 1.74886 -3.14552 0
M  V30 714 C 68.8246 0.891915 -4.39032 0
M  V30 715 C 70.5686 2.46452 -3.45633 0
M  V30 716 C 68.4756 1.68221 -5.66971 0
M  V30 717 H 67.4056 0.360446 -0.662265 0
M  V30 718 H 70.0566 0.209516 -1.823 0
M  V30 719 H 68.4386 2.53723 -3.04041 0
M  V30 720 H 69.6126 0.144793 -4.60572 0
M  V30 721 H 67.9276 0.288863 -4.15397 0
M  V30 722 H 70.5246 3.06061 -4.38441 0
M  V30 723 H 70.8676 3.18841 -2.67668 0
M  V30 724 H 71.4006 1.74613 -3.57428 0
M  V30 725 H 68.1396 1.00178 -6.478 0
M  V30 726 H 67.6596 2.4042 -5.49507 0
M  V30 727 H 69.3386 2.24544 -6.06786 0
M  V30 728 N 69.4707 1.49531 0.497807 0
M  V30 729 C 70.7197 1.58426 1.24837 0
M  V30 730 C 71.0327 0.277643 1.93619 0
M  V30 731 O 72.2387 0.24517 2.70391 0
M  V30 732 C 70.6947 2.79538 2.26686 0
M  V30 733 C 70.3027 4.16971 1.63828 0
M  V30 734 C 72.0467 2.97764 3.0255 0
M  V30 735 C 69.9537 5.29301 2.63807 0
M  V30 736 H 68.8837 0.58989 0.469623 0
M  V30 737 H 71.5347 1.75923 0.521857 0
M  V30 738 H 69.9167 2.55542 3.02514 0
M  V30 739 H 71.0907 4.51116 0.939711 0
M  V30 740 H 69.4057 4.04129 1.00342 0
M  V30 741 H 72.0027 3.78856 3.77323 0
M  V30 742 H 72.3457 2.08448 3.60354 0
M  V30 743 H 72.8787 3.21815 2.33838 0
M  V30 744 H 69.6177 6.20687 2.10779 0
M  V30 745 H 69.1377 4.99606 3.31894 0
M  V30 746 H 70.8167 5.58768 3.2617 0
M  V30 747 N 70.9488 -0.749086 1.3866 0
M  V30 748 C 72.1958 -1.50833 1.35114 0
M  V30 749 C 72.5238 -1.94415 -0.0574049 0
M  V30 750 O 71.7788 -1.66065 -1.03541 0
M  V30 751 C 72.0778 -2.7712 2.25697 0
M  V30 752 C 71.7438 -2.52477 3.73585 0
M  V30 753 C 70.4058 -2.45466 4.13884 0
M  V30 754 C 72.7578 -2.31066 4.67181 0
M  V30 755 C 70.0858 -2.15064 5.45861 0
M  V30 756 C 72.4378 -2.02183 5.9942 0
M  V30 757 C 71.1018 -1.93631 6.38798 0
M  V30 758 H 70.3718 -0.551936 0.494416 0
M  V30 759 H 73.0188 -0.860979 1.71054 0
M  V30 760 H 71.3238 -3.46528 1.82827 0
M  V30 761 H 73.0208 -3.35096 2.20254 0
M  V30 762 H 69.6108 -2.58807 3.41638 0
M  V30 763 H 73.7948 -2.35459 4.3689 0
M  V30 764 H 69.0508 -2.06954 5.75308 0
M  V30 765 H 73.2248 -1.8462 6.71482 0
M  V30 766 H 70.8518 -1.69839 7.40985 0
M  V30 767 N 72.4269 -1.23603 -0.977757 0
M  V30 768 C 73.3569 -1.04401 -2.0886 0
M  V30 769 C 74.3379 0.0399052 -1.70053 0
M  V30 770 O 75.5229 -0.125246 -1.93796 0
M  V30 771 C 72.6529 -0.637269 -3.41403 0
M  V30 772 C 71.6069 -1.66883 -3.94124 0
M  V30 773 C 70.9329 -1.11745 -5.22893 0
M  V30 774 C 72.2329 -3.06247 -4.23096 0
M  V30 775 H 73.9269 -1.97316 -2.25182 0
M  V30 776 H 71.4729 -0.950096 -1.08209 0
M  V30 777 H 73.4259 -0.48998 -4.18542 0
M  V30 778 H 72.1499 0.327557 -3.24953 0
M  V30 779 H 70.8089 -1.80416 -3.19133 0
M  V30 780 H 70.4569 -0.143527 -5.02795 0
M  V30 781 H 70.1569 -1.80672 -5.59134 0
M  V30 782 H 71.6809 -0.982067 -6.02651 0
M  V30 783 H 73.0949 -2.96001 -4.90975 0
M  V30 784 H 71.4919 -3.72436 -4.70544 0
M  V30 785 H 72.5619 -3.55041 -3.30263 0
M  V30 786 N 73.905 1.17692 -1.04816 0
M  V30 787 C 75.133 1.91786 -0.776254 0
M  V30 788 C 75.548 1.76604 0.667577 0
M  V30 789 O 74.905 1.10067 1.45573 0
M  V30 790 C 74.956 3.42967 -1.14263 0
M  V30 791 O 74.677 3.57678 -2.52978 0
M  V30 792 C 76.178 4.34144 -0.896311 0
M  V30 793 H 73.398 0.608624 -0.282519 0
M  V30 794 H 75.942 1.49268 -1.39783 0
M  V30 795 H 74.097 3.83245 -0.565874 0
M  V30 796 H 74.511 4.51319 -2.67229 0
M  V30 797 H 75.985 5.38744 -1.20244 0
M  V30 798 H 76.462 4.38876 0.168636 0
M  V30 799 H 77.068 3.99574 -1.45672 0
M  V30 800 N 75.3831 0.828654 1.34056 0
M  V30 801 C 76.6311 0.41863 1.97717 0
M  V30 802 C 76.9521 -1.02314 1.66002 0
M  V30 803 O 76.2221 -1.71119 0.953683 0
M  V30 804 H 74.8021 0.151809 0.731412 0
M  V30 805 H 77.4641 1.05936 1.63596 0
M  V30 806 H 76.5601 0.542318 3.07352 0
M  V30 807 N 76.8612 -1.46375 0.584142 0
M  V30 808 C 78.1102 -2.01585 0.0679741 0
M  V30 809 C 78.4232 -1.46109 -1.30045 0
M  V30 810 O 79.6292 -1.93148 -1.90804 0
M  V30 811 C 78.0852 -3.5983 0.0709207 0
M  V30 812 C 77.6932 -4.24303 1.43775 0
M  V30 813 C 79.4372 -4.22693 -0.391228 0
M  V30 814 C 77.3442 -5.74631 1.39834 0
M  V30 815 H 76.2742 -0.753689 0.0216421 0
M  V30 816 H 78.9252 -1.68093 0.736001 0
M  V30 817 H 77.3072 -3.90405 -0.663299 0
M  V30 818 H 78.4812 -4.05335 2.19181 0
M  V30 819 H 76.7962 -3.73539 1.84004 0
M  V30 820 H 79.3932 -5.3289 -0.439524 0
M  V30 821 H 79.7362 -3.91728 -1.40906 0
M  V30 822 H 80.2692 -3.96749 0.288974 0
M  V30 823 H 77.0082 -6.10258 2.39303 0
M  V30 824 H 76.5282 -5.95858 0.686505 0
M  V30 825 H 78.2072 -6.37375 1.11187 0
M  V30 826 N 78.3393 -0.321999 -1.54275 0
M  V30 827 C 79.5853 0.281461 -2.00837 0
M  V30 828 C 79.9183 1.51909 -1.20985 0
M  V30 829 O 79.1933 1.923 -0.291733 0
M  V30 830 C 79.4763 0.617162 -3.54772 0
M  V30 831 C 79.3293 -0.631064 -4.45351 0
M  V30 832 C 80.6483 1.43542 -4.16033 0
M  V30 833 H 77.7673 0.100826 -0.730071 0
M  V30 834 H 80.4093 -0.438268 -1.84876 0
M  V30 835 H 78.5593 1.23034 -3.68504 0
M  V30 836 H 80.2313 -1.26934 -4.43492 0
M  V30 837 H 78.4743 -1.26025 -4.15091 0
M  V30 838 H 79.1453 -0.351735 -5.50878 0
M  V30 839 H 81.6213 0.917134 -4.05867 0
M  V30 840 H 80.4973 1.63907 -5.23856 0
M  V30 841 H 80.7583 2.43108 -3.69257 0
M  V30 842 N 79.8174 1.5752 -0.0501392 0
M  V30 843 C 81.0654 1.9227 0.622642 0
M  V30 844 C 81.3864 0.929083 1.71444 0
M  V30 845 O 80.6564 -0.0262186 1.95882 0
M  V30 846 H 79.2364 0.709739 0.232981 0
M  V30 847 H 81.8984 1.94628 -0.102898 0
M  V30 848 H 80.9944 2.93479 1.06191 0
M  V30 849 N 81.2955 -0.223234 1.56011 0
M  V30 850 C 82.2435 -1.29627 1.93131 0
M  V30 851 C 83.2375 -1.48608 0.813146 0
M  V30 852 O 84.4435 -1.49802 0.997966 0
M  V30 853 H 80.8185 -0.434563 0.613726 0
M  V30 854 H 82.7895 -0.955995 2.82672 0
M  V30 855 C 81.5385 -2.63983 2.26292 0
M  V30 856 H 80.8615 -2.50185 3.11846 0
M  V30 857 H 82.3015 -3.3788 2.56151 0
M  V30 858 C 80.7605 -3.18866 1.08747 0
M  V30 859 O 81.2905 -4.00192 0.347727 0
M  V30 860 N 79.4965 -2.77217 0.871743 0
M  V30 861 H 79.0435 -2.1119 1.47501 0
M  V30 862 H 79.0015 -3.1428 0.0869905 0
M  V30 863 N 82.7736 -1.49793 -0.48987 0
M  V30 864 C 84.0216 -1.59525 -1.24081 0
M  V30 865 C 84.3426 -0.288953 -1.92847 0
M  V30 866 O 83.6126 0.692436 -1.83254 0
M  V30 867 H 82.1926 -0.587796 -0.460983 0
M  V30 868 H 84.8546 -1.86477 -0.566778 0
M  V30 869 H 83.9506 -2.39696 -1.99881 0
M  V30 870 N 84.2517 0.741722 -1.39055 0
M  V30 871 C 85.1817 1.869 -1.39966 0
M  V30 872 C 86.1627 1.6804 -0.26392 0
M  V30 873 O 87.3477 1.88458 -0.468755 0
M  V30 874 C 84.4777 3.24572 -1.23574 0
M  V30 875 C 83.4317 3.58056 -2.34477 0
M  V30 876 C 82.7577 4.94593 -2.0318 0
M  V30 877 C 84.0577 3.61716 -3.76774 0
M  V30 878 H 85.7517 1.86395 -2.34302 0
M  V30 879 H 83.2977 0.895361 -1.1278 0
M  V30 880 H 85.2507 4.031 -1.22834 0
M  V30 881 H 83.9747 3.25587 -0.257045 0
M  V30 882 H 82.6337 2.81854 -2.34423 0
M  V30 883 H 82.2817 4.92181 -1.03765 0
M  V30 884 H 81.9817 5.17964 -2.77465 0
M  V30 885 H 83.5057 5.75486 -2.04079 0
M  V30 886 H 84.9197 4.30335 -3.78794 0
M  V30 887 H 83.3167 3.96603 -4.50362 0
M  V30 888 H 84.3867 2.61672 -4.08235 0
M  V30 889 N 85.7298 1.2412 0.971189 0
M  V30 890 C 86.9758 1.08041 1.71625 0
M  V30 891 C 87.3088 -0.380407 1.90438 0
M  V30 892 O 86.5838 -1.28127 1.46334 0
M  V30 893 C 86.8668 1.81682 3.10908 0
M  V30 894 C 86.7198 3.35493 2.99608 0
M  V30 895 C 88.0388 1.58671 4.10501 0
M  V30 896 H 85.1578 0.39388 0.622919 0
M  V30 897 H 87.7998 1.52743 1.13003 0
M  V30 898 H 85.9498 1.43684 3.60953 0
M  V30 899 H 87.6218 3.83068 2.57015 0
M  V30 900 H 85.8648 3.64052 2.35899 0
M  V30 901 H 86.5358 3.82217 3.98264 0
M  V30 902 H 89.0118 1.91719 3.69301 0
M  V30 903 H 87.8878 2.1266 5.06031 0
M  V30 904 H 88.1488 0.524161 4.38982 0
M  V30 905 N 87.2079 -1.17134 1.05439 0
M  V30 906 C 88.4569 -1.86791 0.761049 0
M  V30 907 C 88.7699 -1.82072 -0.714795 0
M  V30 908 O 89.9759 -2.47223 -1.12218 0
M  V30 909 C 88.4319 -3.35166 1.31117 0
M  V30 910 C 88.0399 -3.48381 2.81664 0
M  V30 911 C 89.7839 -4.10134 1.09499 0
M  V30 912 C 87.6909 -4.90793 3.29964 0
M  V30 913 H 86.6209 -0.699681 0.281002 0
M  V30 914 H 89.2719 -1.3226 1.27199 0
M  V30 915 H 87.6539 -3.8925 0.72803 0
M  V30 916 H 88.8279 -3.04502 3.45855 0
M  V30 917 H 87.1429 -2.86836 3.01851 0
M  V30 918 H 89.7399 -5.152 1.43084 0
M  V30 919 H 90.0829 -4.16287 0.0328772 0
M  V30 920 H 90.6159 -3.62264 1.64346 0
M  V30 921 H 87.3549 -4.89816 4.35616 0
M  V30 922 H 86.8749 -5.35333 2.70516 0
M  V30 923 H 88.5539 -5.59573 3.24787 0
M  V30 924 N 88.686 -0.835752 -1.33615 0
M  V30 925 C 89.616 -0.281739 -2.31794 0
M  V30 926 C 90.597 0.608833 -1.58831 0
M  V30 927 O 91.782 0.533035 -1.86741 0
M  V30 928 C 88.912 0.546612 -3.42971 0
M  V30 929 C 87.866 -0.247904 -4.27281 0
M  V30 930 C 87.192 0.704001 -5.30045 0
M  V30 931 C 88.492 -1.46324 -5.01385 0
M  V30 932 H 90.186 -1.10206 -2.78379 0
M  V30 933 H 87.732 -0.531388 -1.33837 0
M  V30 934 H 89.685 0.944467 -4.1068 0
M  V30 935 H 88.409 1.40011 -2.95067 0
M  V30 936 H 87.068 -0.627281 -3.61194 0
M  V30 937 H 86.716 1.55381 -4.78399 0
M  V30 938 H 86.416 0.176524 -5.87335 0
M  V30 939 H 87.94 1.09944 -6.0062 0
M  V30 940 H 89.354 -1.13871 -5.61877 0
M  V30 941 H 87.751 -1.92728 -5.6831 0
M  V30 942 H 88.821 -2.23467 -4.30338 0
M  V30 943 N 90.1641 1.46063 -0.591896 0
M  V30 944 C 91.4101 2.02638 -0.0811191 0
M  V30 945 C 91.7431 1.4613 1.27905 0
M  V30 946 O 91.0181 0.629908 1.84017 0
M  V30 947 C 91.3011 3.60091 -0.0252436 0
M  V30 948 C 91.1541 4.26965 -1.41496 0
M  V30 949 C 92.4731 4.3496 0.670685 0
M  V30 950 H 89.5921 0.73635 -0.0309524 0
M  V30 951 H 92.2341 1.741 -0.760859 0
M  V30 952 H 90.3841 3.84535 0.553624 0
M  V30 953 H 92.0561 4.13756 -2.0397 0
M  V30 954 H 90.2991 3.85971 -1.98011 0
M  V30 955 H 90.9701 5.35781 -1.32825 0
M  V30 956 H 93.4461 4.15716 0.178825 0
M  V30 957 H 92.3221 5.44686 0.678837 0
M  V30 958 H 92.5831 4.06685 1.73379 0
M  V30 959 N 91.6422 0.330177 1.54103 0
M  V30 960 C 92.5752 -0.575477 2.20825 0
M  V30 961 C 93.5532 -1.11064 1.18758 0
M  V30 962 O 94.7372 -1.17341 1.47524 0
M  V30 963 C 91.8642 -1.79032 2.87516 0
M  V30 964 C 90.9102 -1.38581 4.03358 0
M  V30 965 S 91.7432 -0.416911 5.33875 0
M  V30 966 C 92.8992 -1.63889 6.04062 0
M  V30 967 H 93.1322 -0.00872114 2.97299 0
M  V30 968 H 90.6652 0.114254 1.53977 0
M  V30 969 H 92.6232 -2.48734 3.2656 0
M  V30 970 H 91.2842 -2.32827 2.10832 0
M  V30 971 H 90.4772 -2.29123 4.48908 0
M  V30 972 H 90.0792 -0.768419 3.66021 0
M  V30 973 H 92.3712 -2.57536 6.26643 0
M  V30 974 H 93.3142 -1.22542 6.97416 0
M  V30 975 H 93.7222 -1.82887 5.34053 0
M  V30 976 N 93.1203 -1.57491 0.0584922 0
M  V30 977 C 94.3683 -1.92597 -0.612436 0
M  V30 978 C 94.6893 -0.938162 -1.70949 0
M  V30 979 O 93.9593 0.0158301 -1.95894 0
M  V30 980 H 92.5393 -0.710964 -0.229214 0
M  V30 981 H 95.2013 -1.94571 0.113218 0
M  V30 982 H 94.2973 -2.94038 -1.04633 0
M  V30 983 N 94.5984 0.214957 -1.56127 0
M  V30 984 C 95.8284 0.953707 -1.8327 0
M  V30 985 C 96.2364 1.78181 -0.636262 0
M  V30 986 O 95.5794 1.79191 0.404516 0
M  V30 987 C 95.6414 1.91516 -3.0424 0
M  V30 988 C 95.3054 1.27094 -4.38972 0
M  V30 989 C 96.3024 0.657575 -5.15725 0
M  V30 990 C 93.9874 1.28073 -4.85698 0
M  V30 991 C 95.9814 0.0625968 -6.37369 0
M  V30 992 C 93.6684 0.681914 -6.07283 0
M  V30 993 C 94.6664 0.0739046 -6.8296 0
M  V30 994 O 94.3544 -0.515582 -8.02245 0
M  V30 995 H 94.0864 0.284764 -0.613095 0
M  V30 996 H 96.6404 0.233283 -2.04071 0
M  V30 997 H 94.8704 2.67475 -2.79274 0
M  V30 998 H 96.5594 2.52001 -3.18198 0
M  V30 999 H 97.3254 0.642288 -4.80728 0
M  V30 1000 H 93.2044 1.74337 -4.26764 0
M  V30 1001 H 96.7484 -0.412593 -6.96379 0
M  V30 1002 H 92.6454 0.694636 -6.41752 0
M  V30 1003 H 93.4134 -0.410544 -8.1747 0
M  V30 1004 N 96.0765 1.50051 0.48192 0
M  V30 1005 C 97.0085 1.64263 1.59844 0
M  V30 1006 C 98.0215 0.52451 1.54119 0
M  V30 1007 O 99.2105 0.797293 1.59704 0
M  V30 1008 C 96.3105 1.60102 2.98698 0
M  V30 1009 C 95.4835 2.87767 3.29407 0
M  V30 1010 C 94.5425 2.76397 4.47762 0
M  V30 1011 O 93.5685 3.50348 4.48603 0
M  V30 1012 N 94.7705 1.89222 5.48794 0
M  V30 1013 H 97.5355 2.60566 1.48073 0
M  V30 1014 H 95.0965 1.47379 0.670149 0
M  V30 1015 H 97.0885 1.50123 3.75826 0
M  V30 1016 H 95.6585 0.715798 3.04294 0
M  V30 1017 H 94.8785 3.11954 2.40994 0
M  V30 1018 H 96.1665 3.72365 3.4673 0
M  V30 1019 H 95.5645 1.28434 5.50928 0
M  V30 1020 H 94.1215 1.85154 6.24949 0
M  V30 1021 N 97.5546 -0.734337 1.39446 0
M  V30 1022 C 98.5016 -1.84835 1.38219 0
M  V30 1023 C 99.4716 -1.64331 0.24179 0
M  V30 1024 O 100.657 -1.85728 0.437002 0
M  V30 1025 C 97.7966 -3.22355 1.23212 0
M  V30 1026 C 96.9096 -3.5456 2.46801 0
M  V30 1027 C 96.0446 -4.81485 2.24377 0
M  V30 1028 C 95.0836 -5.06536 3.43639 0
M  V30 1029 N 94.2206 -6.24665 3.20528 0
M  V30 1030 H 99.0606 -1.85219 2.33448 0
M  V30 1031 H 96.5976 -0.905039 1.15963 0
M  V30 1032 H 98.5556 -4.0174 1.12522 0
M  V30 1033 H 97.1856 -3.21248 0.316121 0
M  V30 1034 H 96.2376 -2.69872 2.68092 0
M  V30 1035 H 97.5496 -3.6899 3.3563 0
M  V30 1036 H 96.7036 -5.68852 2.10933 0
M  V30 1037 H 95.4426 -4.6923 1.32944 0
M  V30 1038 H 94.4476 -4.17632 3.5758 0
M  V30 1039 H 95.6726 -5.20676 4.35974 0
M  V30 1040 H 93.6186 -6.13696 2.3176 0
M  V30 1041 H 93.5356 -6.39685 4.02913 0
M  V30 1042 H 94.8036 -7.14868 3.10779 0
M  V30 1043 N 99.0327 -1.24633 -0.964593 0
M  V30 1044 C 99.9797 -1.04144 -2.05968 0
M  V30 1045 C 100.95 0.046262 -1.66036 0
M  V30 1046 O 102.135 -0.108972 -1.90489 0
M  V30 1047 C 99.2747 -0.65563 -3.38815 0
M  V30 1048 C 98.3877 -1.81714 -3.91923 0
M  V30 1049 C 97.5227 -1.37662 -5.13052 0
M  V30 1050 C 96.5617 -2.50788 -5.58365 0
M  V30 1051 N 95.6987 -2.07582 -6.70712 0
M  V30 1052 H 100.539 -1.9787 -2.22827 0
M  V30 1053 H 98.0757 -0.9855 -1.09208 0
M  V30 1054 H 100.034 -0.412954 -4.15151 0
M  V30 1055 H 98.6637 0.244627 -3.21872 0
M  V30 1056 H 97.7157 -2.1734 -3.12198 0
M  V30 1057 H 99.0277 -2.66705 -4.21509 0
M  V30 1058 H 98.1817 -1.093 -5.96773 0
M  V30 1059 H 96.9207 -0.497293 -4.85158 0
M  V30 1060 H 95.9257 -2.79906 -4.73215 0
M  V30 1061 H 97.1507 -3.39283 -5.88272 0
M  V30 1062 H 95.0967 -1.22051 -6.44546 0
M  V30 1063 H 95.0137 -2.86125 -6.99763 0
M  V30 1064 H 96.2817 -1.82369 -7.57867 0
M  V30 1065 N 100.511 1.16574 -1.06058 0
M  V30 1066 C 101.441 2.23057 -0.690488 0
M  V30 1067 C 102.422 1.67141 0.315901 0
M  V30 1068 O 103.607 1.93253 0.191556 0
M  V30 1069 C 100.737 3.47222 -0.073625 0
M  V30 1070 C 99.6908 4.16016 -1.00573 0
M  V30 1071 C 99.0168 5.34104 -0.252289 0
M  V30 1072 C 100.317 4.67264 -2.33371 0
M  V30 1073 H 102.011 2.54271 -1.58072 0
M  V30 1074 H 99.5568 1.22218 -0.76149 0
M  V30 1075 H 101.51 4.20939 0.19714 0
M  V30 1076 H 100.234 3.15302 0.85161 0
M  V30 1077 H 98.8928 3.44223 -1.2612 0
M  V30 1078 H 98.5408 4.98437 0.675988 0
M  V30 1079 H 98.2408 5.81072 -0.873455 0
M  V30 1080 H 99.7648 6.10599 0.0109857 0
M  V30 1081 H 101.179 5.32573 -2.12223 0
M  V30 1082 H 99.5758 5.24843 -2.90963 0
M  V30 1083 H 100.646 3.83602 -2.96611 0
M  V30 1084 N 101.989 0.842826 1.3317 0
M  V30 1085 C 103.405 0.531128 1.50503 0
M  V30 1086 C 103.605 -0.940734 1.78192 0
M  V30 1087 O 102.661 -1.72436 1.84451 0
M  V30 1088 C 103.974 1.40789 2.65705 0
M  V30 1089 C 105.522 1.40708 2.79589 0
M  V30 1090 C 105.997 2.26878 3.97857 0
M  V30 1091 N 107.488 2.24609 4.05099 0
M  V30 1092 C 108.223 2.88019 4.95815 0
M  V30 1093 N 107.719 3.60496 5.9162 0
M  V30 1094 N 109.512 2.77469 4.88843 0
M  V30 1095 H 101.663 1.79557 1.1346 0
M  V30 1096 H 103.926 0.766267 0.558156 0
M  V30 1097 H 103.632 2.454 2.51936 0
M  V30 1098 H 103.506 1.08677 3.61205 0
M  V30 1099 H 105.893 0.368668 2.92788 0
M  V30 1100 H 105.974 1.76829 1.84838 0
M  V30 1101 H 105.618 3.3078 3.85418 0
M  V30 1102 H 105.548 1.88096 4.91861 0
M  V30 1103 H 108.039 1.71906 3.36536 0
M  V30 1104 H 108.352 4.06076 6.57512 0
M  V30 1105 H 106.697 3.64604 5.91683 0
M  V30 1106 H 109.888 2.20406 4.12963 0
M  V30 1107 H 110.061 3.2717 5.59342 0
M  V30 1108 N 103.467 -1.45747 0.599634 0
M  V30 1109 C 104.692 -2.07178 0.0960198 0
M  V30 1110 C 105.117 -1.44268 -1.207 0
M  V30 1111 O 104.475 -0.532503 -1.73303 0
M  V30 1112 C 104.523 -3.60579 -0.0385348 0
M  V30 1113 O 103.627 -3.97713 -1.0908 0
M  V30 1114 H 102.968 -0.660251 0.0704593 0
M  V30 1115 H 105.498 -1.87124 0.827385 0
M  V30 1116 H 105.508 -4.07298 -0.239304 0
M  V30 1117 H 104.183 -4.05756 0.912947 0
M  V30 1118 H 102.76 -3.62678 -0.867135 0
M  V30 1119 N 104.945 -0.338344 -1.53925 0
M  V30 1120 C 105.878 0.563758 -2.21127 0
M  V30 1121 C 106.856 1.10433 -1.19345 0
M  V30 1122 O 108.04 1.16557 -1.48144 0
M  V30 1123 C 105.167 1.77505 -2.88461 0
M  V30 1124 C 104.213 1.3644 -4.04087 0
M  V30 1125 S 105.046 0.388593 -5.34088 0
M  V30 1126 C 106.202 1.60683 -6.04923 0
M  V30 1127 H 106.435 -0.00704546 -2.97299 0
M  V30 1128 H 103.968 -0.122418 -1.53914 0
M  V30 1129 H 105.926 2.46999 -3.27875 0
M  V30 1130 H 104.587 2.31706 -2.12064 0
M  V30 1131 H 103.78 2.26739 -4.50117 0
M  V30 1132 H 103.382 0.748998 -3.66423 0
M  V30 1133 H 105.674 2.54209 -6.28 0
M  V30 1134 H 106.617 1.18842 -6.98056 0
M  V30 1135 H 107.025 1.80052 -5.35015 0
M  V30 1136 N 106.423 1.57458 -0.0668435 0
M  V30 1137 C 107.651 1.97624 0.612565 0
M  V30 1138 C 108.066 0.94502 1.63447 0
M  V30 1139 O 107.423 -0.0689276 1.8237 0
M  V30 1140 C 107.474 3.37869 1.28555 0
M  V30 1141 O 107.195 4.3704 0.304557 0
M  V30 1142 C 108.696 3.92882 2.05325 0
M  V30 1143 H 105.916 0.650045 0.166381 0
M  V30 1144 H 108.46 2.04035 -0.137782 0
M  V30 1145 H 106.615 3.3256 1.98702 0
M  V30 1146 H 107.029 5.18565 0.786779 0
M  V30 1147 H 108.503 4.93247 2.47812 0
M  V30 1148 H 108.98 3.29156 2.9078 0
M  V30 1149 H 109.586 4.01577 1.40056 0
M  V30 1150 N 107.901 -0.206675 1.56239 0
M  V30 1151 C 109.178 -0.954051 1.70755 0
M  V30 1152 C 109.558 -2.01841 0.618353 0
M  V30 1153 O 108.906 -2.25444 -0.372434 0
M  V30 1154 C 109.116 -1.551 3.12642 0
M  V30 1155 C 110.464 -2.03757 3.72516 0
M  V30 1156 O 111.488 -1.64965 3.15698 0
M  V30 1157 O 110.347 -2.75103 4.72208 0
M  V30 1158 H 107.441 -0.446636 0.696021 0
M  V30 1159 H 109.987 -0.197283 1.68549 0
M  V30 1160 H 108.759 -0.783212 3.83382 0
M  V30 1161 H 108.382 -2.37291 3.19028 0
M  V30 1162 N 109.379 -1.50304 -0.473955 0
M  V30 1163 C 110.326 -1.68959 -1.57231 0
M  V30 1164 C 111.296 -0.530899 -1.57387 0
M  V30 1165 O 112.481 -0.761133 -1.74961 0
M  V30 1166 C 109.621 -1.7871 -2.95223 0
M  V30 1167 C 108.734 -3.06061 -3.04878 0
M  V30 1168 C 107.869 -3.06626 -4.33767 0
M  V30 1169 C 106.908 -4.28443 -4.37154 0
M  V30 1170 N 106.045 -4.26763 -5.5751 0
M  V30 1171 H 110.885 -2.6273 -1.40631 0
M  V30 1172 H 108.422 -1.30241 -0.683789 0
M  V30 1173 H 110.38 -1.82344 -3.75242 0
M  V30 1174 H 109.01 -0.883806 -3.10465 0
M  V30 1175 H 108.062 -3.11911 -2.17751 0
M  V30 1176 H 109.374 -3.96039 -3.0324 0
M  V30 1177 H 108.528 -3.08973 -5.22131 0
M  V30 1178 H 107.267 -2.14473 -4.3801 0
M  V30 1179 H 106.272 -4.2631 -3.47188 0
M  V30 1180 H 107.497 -5.2182 -4.34605 0
M  V30 1181 H 105.443 -3.37462 -5.62544 0
M  V30 1182 H 105.36 -5.10507 -5.57601 0
M  V30 1183 H 106.628 -4.33253 -6.48006 0
M  V30 1184 N 110.857 0.726932 -1.39834 0
M  V30 1185 C 112.087 1.51393 -1.40583 0
M  V30 1186 C 112.495 1.892 -0.000740625 0
M  V30 1187 O 111.838 1.55189 0.982951 0
M  V30 1188 C 111.9 2.82588 -2.22226 0
M  V30 1189 C 111.564 2.67169 -3.70769 0
M  V30 1190 C 112.561 2.3518 -4.63666 0
M  V30 1191 C 110.246 2.83788 -4.14451 0
M  V30 1192 C 112.24 2.20002 -5.98229 0
M  V30 1193 C 109.927 2.68229 -5.49087 0
M  V30 1194 C 110.925 2.36382 -6.4079 0
M  V30 1195 O 110.613 2.2093 -7.72946 0
M  V30 1196 H 110.345 0.474168 -0.48181 0
M  V30 1197 H 112.899 0.905247 -1.84376 0
M  V30 1198 H 111.129 3.45746 -1.73195 0
M  V30 1199 H 112.818 3.44247 -2.15055 0
M  V30 1200 H 113.584 2.21984 -4.31217 0
M  V30 1201 H 109.463 3.07566 -3.43401 0
M  V30 1202 H 113.007 1.95067 -6.69772 0
M  V30 1203 H 108.904 2.81006 -5.81125 0
M  V30 1204 H 109.672 2.35937 -7.83757 0
M  V30 1205 N 112.336 1.25143 0.95797 0
M  V30 1206 C 113.752 1.01892 1.22842 0
M  V30 1207 C 113.952 -0.266311 1.99732 0
M  V30 1208 O 113.008 -0.979913 2.3271 0
M  V30 1209 C 114.321 2.24004 2.00606 0
M  V30 1210 C 115.869 2.28731 2.13662 0
M  V30 1211 C 116.344 3.5049 2.94823 0
M  V30 1212 N 117.835 3.50866 3.02403 0
M  V30 1213 C 118.57 4.4174 3.65586 0
M  V30 1214 N 118.066 5.42882 4.30408 0
M  V30 1215 N 119.859 4.29429 3.62694 0
M  V30 1216 H 112.01 2.07718 0.443493 0
M  V30 1217 H 114.273 0.912031 0.258657 0
M  V30 1218 H 113.979 3.17395 1.51503 0
M  V30 1219 H 113.853 2.26907 3.01319 0
M  V30 1220 H 116.24 1.35865 2.61963 0
M  V30 1221 H 116.321 2.29848 1.12265 0
M  V30 1222 H 115.965 4.43676 2.47213 0
M  V30 1223 H 115.895 3.46617 3.96439 0
M  V30 1224 H 118.386 2.777 2.56302 0
M  V30 1225 H 118.699 6.0844 4.76467 0
M  V30 1226 H 117.044 5.46758 4.29047 0
M  V30 1227 H 120.235 3.49643 3.11236 0
M  V30 1228 H 120.408 5.00448 4.1165 0
M  V30 1229 N 113.814 -1.1601 1.06675 0
M  V30 1230 C 114.744 -2.22688 0.702307 0
M  V30 1231 C 115.725 -1.67306 -0.307032 0
M  V30 1232 O 116.91 -1.93352 -0.181305 0
M  V30 1233 C 114.04 -3.47178 0.092038 0
M  V30 1234 C 112.994 -4.15477 1.02777 0
M  V30 1235 C 112.32 -5.33963 0.28061 0
M  V30 1236 C 113.62 -4.66019 2.35846 0
M  V30 1237 H 115.314 -2.53429 1.59419 0
M  V30 1238 H 112.86 -1.21813 0.767961 0
M  V30 1239 H 114.813 -4.21037 -0.174814 0
M  V30 1240 H 113.537 -3.15749 -0.834877 0
M  V30 1241 H 112.196 -3.43549 1.27944 0
M  V30 1242 H 111.844 -4.98788 -0.649545 0
M  V30 1243 H 111.544 -5.806 0.904258 0
M  V30 1244 H 113.068 -6.10596 0.021396 0
M  V30 1245 H 114.482 -5.3144 2.15045 0
M  V30 1246 H 112.879 -5.23293 2.93743 0
M  V30 1247 H 113.949 -3.82023 2.98641 0
M  V30 1248 N 115.292 -0.849877 -1.32721 0
M  V30 1249 C 116.242 -0.262892 -2.26479 0
M  V30 1250 C 117.226 0.588493 -1.49752 0
M  V30 1251 O 118.418 0.438659 -1.71478 0
M  V30 1252 C 115.547 0.551818 -3.38836 0
M  V30 1253 C 114.633 -0.311689 -4.22953 0
M  V30 1254 N 115.024 -1.39567 -4.86163 0
M  V30 1255 C 113.322 -0.100611 -4.45887 0
M  V30 1256 C 114.023 -1.92651 -5.48872 0
M  V30 1257 N 112.999 -1.22637 -5.29586 0
M  V30 1258 H 116.801 -1.09166 -2.72873 0
M  V30 1259 H 114.315 -0.695486 -1.46754 0
M  V30 1260 H 116.312 0.988713 -4.05006 0
M  V30 1261 H 114.972 1.37844 -2.93988 0
M  V30 1262 H 115.983 -1.77859 -4.86402 0
M  V30 1263 H 112.66 0.691681 -4.11731 0
M  V30 1264 H 114.05 -2.83487 -6.09167 0
M  V30 1265 N 116.77 1.45427 -0.607355 0
M  V30 1266 C 117.7 2.3329 0.0989352 0
M  V30 1267 C 118.681 1.46816 0.859007 0
M  V30 1268 O 119.866 1.75588 0.829604 0
M  V30 1269 C 116.996 3.29518 1.09705 0
M  V30 1270 C 115.95 4.25626 0.450206 0
M  V30 1271 C 115.276 5.11542 1.55655 0
M  V30 1272 C 116.576 5.18505 -0.628455 0
M  V30 1273 H 118.27 2.92595 -0.634716 0
M  V30 1274 H 115.816 1.40696 -0.306681 0
M  V30 1275 H 117.769 3.89855 1.59971 0
M  V30 1276 H 116.493 2.68372 1.86129 0
M  V30 1277 H 115.152 3.66586 -0.0315886 0
M  V30 1278 H 114.8 4.46765 2.31107 0
M  V30 1279 H 114.5 5.76647 1.12925 0
M  V30 1280 H 116.024 5.74748 2.06148 0
M  V30 1281 H 117.438 5.72916 -0.209877 0
M  V30 1282 H 115.835 5.92085 -0.977489 0
M  V30 1283 H 116.905 4.60948 -1.50514 0
M  V30 1284 N 118.248 0.346503 1.53744 0
M  V30 1285 C 119.473 -0.253074 2.0585 0
M  V30 1286 C 119.898 -1.43202 1.21962 0
M  V30 1287 O 119.256 -1.79783 0.234073 0
M  V30 1288 C 119.304 -0.643193 3.54817 0
M  V30 1289 O 118.408 -1.74286 3.73762 0
M  V30 1290 H 117.749 -0.0413583 0.662711 0
M  V30 1291 H 120.279 0.501574 1.98357 0
M  V30 1292 H 120.289 -0.919526 3.97503 0
M  V30 1293 H 118.964 0.218966 4.15323 0
M  V30 1294 H 117.541 -1.46356 3.42979 0
M  V30 1295 N 119.726 -1.57421 0.075193 0
M  V30 1296 C 120.972 -1.93905 -0.594025 0
M  V30 1297 C 121.305 -0.955701 -1.69056 0
M  V30 1298 O 120.58 0.0145373 -1.94495 0
M  V30 1299 C 120.863 -3.40638 -1.1678 0
M  V30 1300 C 120.716 -4.49733 -0.0776792 0
M  V30 1301 C 122.035 -3.88259 -2.07228 0
M  V30 1302 H 119.154 -0.705105 -0.214466 0
M  V30 1303 H 121.796 -1.8947 0.141854 0
M  V30 1304 H 119.946 -3.44549 -1.79494 0
M  V30 1305 H 121.618 -4.57942 0.555573 0
M  V30 1306 H 119.861 -4.29751 0.591286 0
M  V30 1307 H 120.532 -5.49549 -0.519603 0
M  V30 1308 H 123.008 -3.86376 -1.54445 0
M  V30 1309 H 121.884 -4.91533 -2.44308 0
M  V30 1310 H 122.145 -3.26396 -2.98191 0
M  V30 1311 N 121.204 0.198386 -1.56346 0
M  V30 1312 C 122.167 1.22952 -1.93431 0
M  V30 1313 C 123.167 1.38611 -0.815092 0
M  V30 1314 O 124.357 1.36479 -1.08255 0
M  V30 1315 C 121.489 2.59946 -2.20546 0
M  V30 1316 H 122.682 0.912626 -2.85677 0
M  V30 1317 H 120.235 0.43977 -1.49986 0
M  V30 1318 H 120.97 2.96696 -1.30927 0
M  V30 1319 H 120.755 2.49953 -3.02102 0
M  V30 1320 H 122.245 3.3431 -2.50253 0
M  V30 1321 N 122.682 1.50554 0.465978 0
M  V30 1322 C 123.959 1.5232 1.22712 0
M  V30 1323 C 124.339 0.270807 2.09356 0
M  V30 1324 O 123.687 -0.745541 2.15995 0
M  V30 1325 C 123.897 2.82175 2.05374 0
M  V30 1326 C 125.245 3.33033 2.6339 0
M  V30 1327 O 126.269 2.83531 2.15612 0
M  V30 1328 O 125.128 4.19336 3.50456 0
M  V30 1329 H 122.222 0.611183 0.557122 0
M  V30 1330 H 124.768 1.62847 0.477381 0
M  V30 1331 H 123.54 3.64797 1.41558 0
M  V30 1332 H 123.163 2.74675 2.87471 0
M  V30 1333 N 124.16 -0.719506 1.40217 0
M  V30 1334 C 125.09 -1.8465 1.42922 0
M  V30 1335 C 126.071 -1.67599 0.29062 0
M  V30 1336 O 127.256 -1.87688 0.498677 0
M  V30 1337 C 124.386 -3.22565 1.28722 0
M  V30 1338 C 123.34 -3.54281 2.40144 0
M  V30 1339 C 122.666 -4.91298 2.11023 0
M  V30 1340 C 123.966 -3.55676 3.82481 0
M  V30 1341 H 125.66 -1.82644 2.37237 0
M  V30 1342 H 123.206 -0.877305 1.1419 0
M  V30 1343 H 125.159 -4.01095 1.29232 0
M  V30 1344 H 123.883 -3.25137 0.308811 0
M  V30 1345 H 122.542 -2.78088 2.38877 0
M  V30 1346 H 122.19 -4.90468 1.11582 0
M  V30 1347 H 121.89 -5.13485 2.8567 0
M  V30 1348 H 123.414 -5.72166 2.13209 0
M  V30 1349 H 124.828 -4.24254 3.85592 0
M  V30 1350 H 123.225 -3.89388 4.56614 0
M  V30 1351 H 124.295 -2.55144 4.12346 0
M  V30 1352 N 125.638 -1.25649 -0.95132 0
M  V30 1353 C 126.568 -1.08808 -2.06599 0
M  V30 1354 C 127.549 0.00382547 -1.701 0
M  V30 1355 O 128.734 -0.166325 -1.93486 0
M  V30 1356 C 125.864 -0.709542 -3.39975 0
M  V30 1357 C 124.818 -1.75206 -3.90496 0
M  V30 1358 C 124.144 -1.22811 -5.20405 0
M  V30 1359 C 125.444 -3.15153 -4.16504 0
M  V30 1360 H 127.138 -2.02048 -2.20946 0
M  V30 1361 H 124.684 -0.972835 -1.06169 0
M  V30 1362 H 126.637 -0.578649 -4.17408 0
M  V30 1363 H 125.361 0.258556 -3.25575 0
M  V30 1364 H 124.02 -1.87145 -3.15234 0
M  V30 1365 H 123.668 -0.250145 -5.02378 0
M  V30 1366 H 123.368 -1.92492 -5.55176 0
M  V30 1367 H 124.892 -1.10968 -6.00432 0
M  V30 1368 H 126.306 -3.06349 -4.84586 0
M  V30 1369 H 124.703 -3.82333 -4.62538 0
M  V30 1370 H 125.773 -3.61966 -3.22658 0
M  V30 1371 N 127.117 1.15442 -1.07289 0
M  V30 1372 C 128.364 1.86213 -0.795668 0
M  V30 1373 C 128.692 1.82291 0.678238 0
M  V30 1374 O 127.947 1.24057 1.51355 0
M  V30 1375 C 128.246 3.3489 -1.24834 0
M  V30 1376 C 127.912 3.59007 -2.72809 0
M  V30 1377 C 126.574 3.65298 -3.13227 0
M  V30 1378 C 128.926 3.68762 -3.68326 0
M  V30 1379 C 126.254 3.78854 -4.4798 0
M  V30 1380 C 128.606 3.83842 -5.0284 0
M  V30 1381 C 127.27 3.88378 -5.4288 0
M  V30 1382 H 126.54 0.681403 -0.291155 0
M  V30 1383 H 129.187 1.36435 -1.34379 0
M  V30 1384 H 127.492 3.8687 -0.619595 0
M  V30 1385 H 129.189 3.88052 -1.01076 0
M  V30 1386 H 125.779 3.5475 -2.40521 0
M  V30 1387 H 129.963 3.63202 -3.38227 0
M  V30 1388 H 125.219 3.80623 -4.78472 0
M  V30 1389 H 129.393 3.90332 -5.76727 0
M  V30 1390 H 127.02 3.98635 -6.47298 0
M  V30 1391 N 128.595 0.856903 1.32268 0
M  V30 1392 C 129.841 0.462069 1.97466 0
M  V30 1393 C 130.174 -0.980298 1.67642 0
M  V30 1394 O 129.449 -1.68824 0.965858 0
M  V30 1395 C 129.732 0.704336 3.53145 0
M  V30 1396 C 129.585 2.19529 3.9259 0
M  V30 1397 C 130.904 0.1622 4.39801 0
M  V30 1398 H 128.023 0.169357 0.717278 0
M  V30 1399 H 130.665 1.07574 1.56614 0
M  V30 1400 H 128.815 0.181999 3.88073 0
M  V30 1401 H 130.487 2.78387 3.67829 0
M  V30 1402 H 128.73 2.67292 3.41668 0
M  V30 1403 H 129.401 2.31549 5.01088 0
M  V30 1404 H 131.877 0.608905 4.11621 0
M  V30 1405 H 130.753 0.361265 5.4771 0
M  V30 1406 H 131.014 -0.935158 4.32096 0
M  V30 1407 N 130.073 -1.45103 0.615059 0
M  V30 1408 C 131.322 -2.01396 0.110718 0
M  V30 1409 C 131.635 -1.48834 -1.26916 0
M  V30 1410 O 132.841 -1.97152 -1.86664 0
M  V30 1411 C 131.297 -3.59599 0.14723 0
M  V30 1412 C 130.905 -4.21158 1.52743 0
M  V30 1413 C 132.649 -4.23428 -0.30148 0
M  V30 1414 C 130.556 -5.71535 1.51992 0
M  V30 1415 H 129.486 -0.753061 0.0376241 0
M  V30 1416 H 132.137 -1.66494 0.77149 0
M  V30 1417 H 130.519 -3.91724 -0.580339 0
M  V30 1418 H 131.693 -4.00594 2.2773 0
M  V30 1419 H 130.008 -3.69552 1.91886 0
M  V30 1420 H 132.605 -5.33703 -0.326392 0
M  V30 1421 H 132.948 -3.94629 -1.32565 0
M  V30 1422 H 133.481 -3.96047 0.373065 0
M  V30 1423 H 130.22 -6.05044 2.52193 0
M  V30 1424 H 129.74 -5.94268 0.81274 0
M  V30 1425 H 131.419 -6.34873 1.24681 0
M  V30 1426 N 131.551 -0.354651 -1.53558 0
M  V30 1427 C 132.779 0.239515 -2.05509 0
M  V30 1428 C 133.194 1.4333 -1.2289 0
M  V30 1429 O 132.551 1.80538 -0.266899 0
M  V30 1430 C 132.602 0.643719 -3.55723 0
M  V30 1431 O 132.323 -0.502602 -4.35207 0
M  V30 1432 C 133.824 1.29743 -4.23889 0
M  V30 1433 H 131.044 0.0442697 -0.669538 0
M  V30 1434 H 133.588 -0.509856 -1.98042 0
M  V30 1435 H 131.743 1.34302 -3.63376 0
M  V30 1436 H 132.157 -0.178172 -5.24197 0
M  V30 1437 H 133.631 1.53091 -5.30346 0
M  V30 1438 H 134.108 2.25441 -3.76926 0
M  V30 1439 H 134.714 0.639865 -4.20459 0
M  V30 1440 N 133.029 1.57378 -0.0835403 0
M  V30 1441 C 133.959 2.1641 0.87686 0
M  V30 1442 C 134.94 1.09429 1.30228 0
M  V30 1443 O 136.125 1.37516 1.37124 0
M  V30 1444 C 133.255 2.73517 2.14022 0
M  V30 1445 C 132.209 3.85769 1.85381 0
M  V30 1446 C 131.535 4.29529 3.18448 0
M  V30 1447 C 132.835 5.09486 1.14984 0
M  V30 1448 H 134.529 2.96914 0.385059 0
M  V30 1449 H 132.075 1.42823 0.18377 0
M  V30 1450 H 134.028 3.13463 2.81636 0
M  V30 1451 H 132.752 1.90252 2.65465 0
M  V30 1452 H 131.411 3.46345 1.20169 0
M  V30 1453 H 131.059 3.43169 3.67755 0
M  V30 1454 H 130.759 5.05204 3.00071 0
M  V30 1455 H 132.283 4.72099 3.8724 0
M  V30 1456 H 133.697 5.46674 1.72687 0
M  V30 1457 H 132.094 5.90515 1.06826 0
M  V30 1458 H 133.164 4.84724 0.130749 0
M  V30 1459 N 134.507 -0.190092 1.56449 0
M  V30 1460 C 135.918 -0.754312 1.70784 0
M  V30 1461 C 136.269 -1.83631 0.690951 0
M  V30 1462 O 135.394 -2.15868 -0.151604 0
M  V30 1463 C 135.989 -1.37503 3.09642 0
M  V30 1464 C 134.548 -1.88628 3.25725 0
M  V30 1465 C 133.695 -0.758098 2.66736 0
M  V30 1466 H 136.646 0.0350524 1.58661 0
M  V30 1467 H 136.667 -2.2445 3.0725 0
M  V30 1468 H 136.179 -0.587302 3.83631 0
M  V30 1469 H 134.28 -2.70103 2.56661 0
M  V30 1470 H 134.393 -2.04462 4.3328 0
M  V30 1471 H 132.757 -1.17369 2.26046 0
M  V30 1472 H 133.54 0.0174705 3.43296 0
M  V30 1473 N 135.985 -1.50799 -0.457987 0
M  V30 1474 C 137.232 -1.62442 -1.20908 0
M  V30 1475 C 137.56 -0.330865 -1.91665 0
M  V30 1476 O 136.815 0.68401 -1.83357 0
M  V30 1477 C 137.114 -2.76358 -2.2663 0
M  V30 1478 C 136.78 -4.16378 -1.73033 0
M  V30 1479 C 135.442 -4.54473 -1.58138 0
M  V30 1480 C 137.794 -5.03836 -1.33413 0
M  V30 1481 C 135.122 -5.77754 -1.02065 0
M  V30 1482 C 137.474 -6.27676 -0.78778 0
M  V30 1483 C 136.138 -6.64562 -0.625561 0
M  V30 1484 H 135.408 -0.594417 -0.442435 0
M  V30 1485 H 138.055 -1.84772 -0.503136 0
M  V30 1486 H 136.36 -2.48167 -3.03184 0
M  V30 1487 H 138.057 -2.82568 -2.84528 0
M  V30 1488 H 134.647 -3.86331 -1.85598 0
M  V30 1489 H 138.831 -4.75026 -1.4375 0
M  V30 1490 H 134.087 -6.04997 -0.882547 0
M  V30 1491 H 138.261 -6.94797 -0.472177 0
M  V30 1492 H 135.888 -7.59965 -0.188926 0
M  V30 1493 N 137.463 0.71206 -1.40597 0
M  V30 1494 C 138.709 1.47292 -1.40274 0
M  V30 1495 C 139.064 1.92399 -0.00576812 0
M  V30 1496 O 138.357 1.65507 0.965297 0
M  V30 1497 C 138.551 2.71039 -2.32965 0
M  V30 1498 C 138.38 2.38035 -3.81536 0
M  V30 1499 C 137.15 2.29203 -4.50327 0
M  V30 1500 C 139.348 2.02076 -4.72938 0
M  V30 1501 N 137.33 1.88911 -5.84111 0
M  V30 1502 C 138.701 1.72412 -5.95545 0
M  V30 1503 C 140.756 1.88742 -4.60739 0
M  V30 1504 C 139.459 1.30756 -7.07316 0
M  V30 1505 C 141.485 1.4849 -5.72455 0
M  V30 1506 C 140.847 1.19726 -6.94151 0
M  V30 1507 H 136.946 0.536919 -0.568544 0
M  V30 1508 H 139.53 0.825424 -1.76337 0
M  V30 1509 H 137.701 3.33533 -1.99023 0
M  V30 1510 H 139.433 3.37404 -2.23474 0
M  V30 1511 H 136.188 2.47059 -4.04053 0
M  V30 1512 H 136.612 1.71293 -6.54972 0
M  V30 1513 H 141.254 2.0964 -3.67166 0
M  V30 1514 H 138.972 1.08601 -8.00769 0
M  V30 1515 H 142.558 1.38747 -5.65014 0
M  V30 1516 H 141.438 0.890482 -7.79128 0
M  V30 1517 N 138.941 1.26152 0.944643 0
M  V30 1518 C 139.904 1.07474 2.0244 0
M  V30 1519 C 140.904 0.0242064 1.60782 0
M  V30 1520 O 142.094 0.267302 1.72137 0
M  V30 1521 C 139.226 0.633956 3.34953 0
M  V30 1522 H 140.419 2.03336 2.20442 0
M  V30 1523 H 137.972 1.087 1.12312 0
M  V30 1524 H 138.707 -0.326811 3.22649 0
M  V30 1525 H 138.492 1.39247 3.66542 0
M  V30 1526 H 139.982 0.52501 4.14287 0
M  V30 1527 N 140.419 -1.14872 1.07899 0
M  V30 1528 C 141.665 -1.86064 0.806725 0
M  V30 1529 C 141.998 -1.82434 -0.665706 0
M  V30 1530 O 141.273 -1.25138 -1.48899 0
M  V30 1531 C 141.556 -3.34929 1.32267 0
M  V30 1532 C 141.409 -3.47161 2.86006 0
M  V30 1533 C 142.728 -4.29863 0.943717 0
M  V30 1534 H 139.847 -0.675591 0.294526 0
M  V30 1535 H 142.489 -1.34925 1.33773 0
M  V30 1536 H 140.639 -3.78611 0.870974 0
M  V30 1537 H 142.311 -3.12302 3.39507 0
M  V30 1538 H 140.554 -2.88539 3.23925 0
M  V30 1539 H 141.225 -4.51777 3.17177 0
M  V30 1540 H 143.701 -3.9417 1.33302 0
M  V30 1541 H 142.577 -5.32494 1.33198 0
M  V30 1542 H 142.838 -4.41846 -0.149796 0
M  V30 1543 N 141.898 -0.863906 -1.31812 0
M  V30 1544 C 143.175 -0.39275 -1.91616 0
M  V30 1545 C 143.555 1.12461 -1.7865 0
M  V30 1546 O 142.903 1.95045 -1.19037 0
M  V30 1547 C 143.113 -0.867385 -3.38049 0
M  V30 1548 C 144.461 -0.889966 -4.15168 0
M  V30 1549 O 145.485 -0.812635 -3.46806 0
M  V30 1550 O 144.344 -1.00079 -5.37258 0
M  V30 1551 H 141.438 -0.116358 -0.818773 0
M  V30 1552 H 143.984 -0.951418 -1.40521 0
M  V30 1553 H 142.756 -1.91081 -3.41473 0
M  V30 1554 H 142.379 -0.286687 -3.96565 0
M  V30 1555 N 143.376 1.44774 -0.622745 0
M  V30 1556 C 144.339 2.29069 0.0774015 0
M  V30 1557 C 145.339 1.4059 0.780461 0
M  V30 1558 O 146.529 1.62551 0.626322 0
M  V30 1559 C 143.661 3.21974 1.12006 0
M  V30 1560 H 144.854 2.92459 -0.663901 0
M  V30 1561 H 142.407 1.51548 -0.382486 0
M  V30 1562 H 143.142 2.63417 1.89162 0
M  V30 1563 H 142.927 3.87168 0.619951 0
M  V30 1564 H 144.417 3.85318 1.60995 0
M  V30 1565 N 144.854 0.36279 1.53368 0
M  V30 1566 C 146.1 -0.228113 2.01513 0
M  V30 1567 C 146.433 -1.48648 1.2497 0
M  V30 1568 O 145.708 -1.91459 0.342616 0
M  V30 1569 C 145.991 -0.522884 3.56284 0
M  V30 1570 C 145.844 0.74892 4.43521 0
M  V30 1571 C 147.163 -1.32461 4.19693 0
M  V30 1572 H 144.282 -0.0814343 0.732487 0
M  V30 1573 H 146.924 0.48713 1.83649 0
M  V30 1574 H 145.074 -1.1322 3.71636 0
M  V30 1575 H 146.746 1.38648 4.39971 0
M  V30 1576 H 144.989 1.36986 4.11603 0
M  V30 1577 H 145.66 0.497667 5.49752 0
M  V30 1578 H 148.136 -0.809203 4.08156 0
M  V30 1579 H 147.012 -1.49961 5.28018 0
M  V30 1580 H 147.273 -2.33232 3.75573 0
M  V30 1581 N 146.332 -1.57332 0.0918853 0
M  V30 1582 C 147.295 -2.12708 -0.85369 0
M  V30 1583 C 148.295 -1.05561 -1.213 0
M  V30 1584 O 149.485 -1.31461 -1.14296 0
M  V30 1585 C 146.617 -2.64503 -2.15061 0
M  V30 1586 H 147.81 -2.97573 -0.3729 0
M  V30 1587 H 145.363 -1.55509 -0.157072 0
M  V30 1588 H 146.098 -1.83149 -2.67632 0
M  V30 1589 H 145.883 -3.4284 -1.90272 0
M  V30 1590 H 147.373 -3.07351 -2.82711 0
M  V30 1591 N 147.81 0.181792 -1.56548 0
M  V30 1592 C 148.758 1.24461 -1.965 0
M  V30 1593 C 149.752 1.464 -0.852261 0
M  V30 1594 O 150.958 1.47103 -1.03733 0
M  V30 1595 H 147.333 0.418138 -0.625031 0
M  V30 1596 H 149.304 0.880714 -2.85107 0
M  V30 1597 C 148.053 2.57891 -2.33212 0
M  V30 1598 H 147.376 2.41829 -3.18369 0
M  V30 1599 H 148.816 3.3097 -2.65019 0
M  V30 1600 C 147.275 3.15871 -1.17163 0
M  V30 1601 O 147.805 3.9913 -0.453708 0
M  V30 1602 N 146.011 2.74808 -0.944936 0
M  V30 1603 H 145.558 2.07205 -1.53049 0
M  V30 1604 H 145.516 3.13939 -0.170286 0
M  V30 1605 N 149.288 1.51039 0.449983 0
M  V30 1606 C 150.534 1.64287 1.19923 0
M  V30 1607 C 150.889 0.348701 1.89214 0
M  V30 1608 O 150.182 -0.654751 1.80065 0
M  V30 1609 C 150.376 2.77556 2.25161 0
M  V30 1610 C 150.205 4.17862 1.66198 0
M  V30 1611 C 148.975 4.83976 1.45243 0
M  V30 1612 C 151.173 5.01388 1.14519 0
M  V30 1613 N 149.155 6.08433 0.817437 0
M  V30 1614 C 150.526 6.16743 0.634705 0
M  V30 1615 C 152.581 4.87008 1.03574 0
M  V30 1616 C 151.284 7.19295 0.0255452 0
M  V30 1617 C 153.31 5.89757 0.440489 0
M  V30 1618 C 152.672 7.04375 -0.0595112 0
M  V30 1619 H 148.771 0.655161 0.426952 0
M  V30 1620 H 151.355 1.88228 0.49781 0
M  V30 1621 H 149.526 2.553 2.92706 0
M  V30 1622 H 151.258 2.80049 2.92155 0
M  V30 1623 H 148.013 4.41627 1.71063 0
M  V30 1624 H 148.437 6.75017 0.517747 0
M  V30 1625 H 153.079 3.9866 1.4082 0
M  V30 1626 H 150.797 8.07302 -0.359071 0
M  V30 1627 H 154.383 5.80698 0.35788 0
M  V30 1628 H 153.263 7.82521 -0.512882 0
M  V30 1629 N 150.766 -0.704594 1.40972 0
M  V30 1630 C 151.996 -1.49138 1.42974 0
M  V30 1631 C 152.404 -1.89175 0.0308406 0
M  V30 1632 O 151.747 -1.56734 -0.958138 0
M  V30 1633 C 151.809 -2.79016 2.26694 0
M  V30 1634 C 151.473 -2.61236 3.74973 0
M  V30 1635 C 152.47 -2.27773 4.67349 0
M  V30 1636 C 150.155 -2.77158 4.18914 0
M  V30 1637 C 152.149 -2.10457 6.01653 0
M  V30 1638 C 149.836 -2.59459 5.53285 0
M  V30 1639 C 150.834 -2.26158 6.4447 0
M  V30 1640 O 150.522 -2.08605 7.76363 0
M  V30 1641 H 150.254 -0.466443 0.489292 0
M  V30 1642 H 152.808 -0.8758 1.85793 0
M  V30 1643 H 151.038 -3.42947 1.78673 0
M  V30 1644 H 152.727 -3.40782 2.20504 0
M  V30 1645 H 153.493 -2.15095 4.34694 0
M  V30 1646 H 149.372 -3.02064 3.48251 0
M  V30 1647 H 152.916 -1.84387 6.72791 0
M  V30 1648 H 148.813 -2.71725 5.85522 0
M  V30 1649 H 149.581 -2.23439 7.87412 0
M  V30 1650 N 152.244 -1.26651 -0.937939 0
M  V30 1651 C 153.491 -1.12387 -1.6845 0
M  V30 1652 C 153.819 0.332208 -1.91642 0
M  V30 1653 O 153.074 1.2602 -1.49725 0
M  V30 1654 C 153.373 -1.84168 -3.06295 0
M  V30 1655 C 153.039 -3.34056 -3.02849 0
M  V30 1656 C 151.701 -3.74942 -3.01616 0
M  V30 1657 C 154.053 -4.29741 -2.9491 0
M  V30 1658 C 151.381 -5.09894 -2.90215 0
M  V30 1659 C 153.733 -5.64738 -2.8505 0
M  V30 1660 C 152.397 -6.0493 -2.82162 0
M  V30 1661 H 151.667 -0.411252 -0.616403 0
M  V30 1662 H 154.314 -1.57134 -1.09459 0
M  V30 1663 H 152.619 -1.319 -3.6893 0
M  V30 1664 H 154.316 -1.70569 -3.62915 0
M  V30 1665 H 150.906 -3.01534 -3.0459 0
M  V30 1666 H 155.09 -3.99133 -2.94969 0
M  V30 1667 H 150.346 -5.40194 -2.86358 0
M  V30 1668 H 154.52 -6.38561 -2.77872 0
M  V30 1669 H 152.147 -7.09457 -2.73084 0
M  V30 1670 N 153.722 1.14298 -1.08507 0
M  V30 1671 C 154.97 1.84993 -0.813763 0
M  V30 1672 C 155.291 1.83405 0.662393 0
M  V30 1673 O 154.561 1.28319 1.48024 0
M  V30 1674 H 153.141 0.684966 -0.298045 0
M  V30 1675 H 155.803 1.385 -1.37126 0
M  V30 1676 H 154.899 2.89788 -1.15884 0
M  V30 1677 N 155.201 0.870884 1.31352 0
M  V30 1678 C 156.149 0.316445 2.30437 0
M  V30 1679 C 157.143 -0.568965 1.59559 0
M  V30 1680 O 158.349 -0.454964 1.74155 0
M  V30 1681 H 154.724 0.0836521 0.747333 0
M  V30 1682 H 156.695 1.16606 2.74673 0
M  V30 1683 C 155.444 -0.46635 3.44558 0
M  V30 1684 H 154.767 0.205687 3.99271 0
M  V30 1685 H 156.207 -0.819614 4.16003 0
M  V30 1686 C 154.666 -1.65797 2.9328 0
M  V30 1687 O 155.196 -2.75728 2.92125 0
M  V30 1688 N 153.402 -1.49041 2.4947 0
M  V30 1689 H 152.949 -0.59612 2.50608 0
M  V30 1690 H 152.907 -2.28911 2.15516 0
M  V30 1691 N 156.679 -1.44442 0.630414 0
M  V30 1692 C 157.926 -2.02052 0.134617 0
M  V30 1693 C 158.254 -1.49576 -1.24327 0
M  V30 1694 O 157.509 -0.669806 -1.83881 0
M  V30 1695 C 157.808 -3.57332 0.0697835 0
M  V30 1696 C 157.474 -4.29058 1.38635 0
M  V30 1697 C 156.136 -4.4837 1.74694 0
M  V30 1698 C 158.488 -4.69872 2.25543 0
M  V30 1699 C 155.816 -5.05756 2.97369 0
M  V30 1700 C 158.168 -5.28616 3.47487 0
M  V30 1701 C 156.832 -5.46147 3.8377 0
M  V30 1702 H 156.102 -0.739361 0.0492598 0
M  V30 1703 H 158.749 -1.73217 0.816586 0
M  V30 1704 H 157.054 -3.85577 -0.695553 0
M  V30 1705 H 158.751 -3.99637 -0.330344 0
M  V30 1706 H 155.341 -4.14357 1.09574 0
M  V30 1707 H 159.525 -4.54666 1.98979 0
M  V30 1708 H 154.781 -5.17515 3.25558 0
M  V30 1709 H 158.955 -5.59192 4.15063 0
M  V30 1710 H 156.582 -5.9038 4.7891 0
M  V30 1711 N 158.157 -0.370918 -1.53173 0
M  V30 1712 C 159.087 0.464847 -2.28826 0
M  V30 1713 C 160.068 1.07936 -1.31468 0
M  V30 1714 O 161.253 1.0956 -1.60344 0
M  V30 1715 C 158.383 1.60196 -3.08147 0
M  V30 1716 C 157.337 1.11443 -4.13237 0
M  V30 1717 C 156.663 2.3422 -4.80672 0
M  V30 1718 C 157.963 0.195384 -5.21934 0
M  V30 1719 H 159.657 -0.166329 -2.98938 0
M  V30 1720 H 157.203 -0.0814359 -1.4377 0
M  V30 1721 H 159.156 2.19332 -3.59822 0
M  V30 1722 H 157.88 2.26045 -2.35735 0
M  V30 1723 H 156.539 0.545727 -3.62515 0
M  V30 1724 H 156.187 2.98537 -4.04827 0
M  V30 1725 H 155.887 2.02269 -5.51689 0
M  V30 1726 H 157.411 2.94032 -5.35143 0
M  V30 1727 H 158.825 0.694375 -5.69079 0
M  V30 1728 H 157.222 -0.0335027 -6.00091 0
M  V30 1729 H 158.292 -0.760961 -4.78892 0
M  V30 1730 N 159.635 1.57281 -0.100228 0
M  V30 1731 C 160.875 1.96419 0.56558 0
M  V30 1732 C 161.239 0.981265 1.65031 0
M  V30 1733 O 162.44 1.26133 2.37369 0
M  V30 1734 C 160.711 3.39996 1.10171 0
M  V30 1735 S 162.27 4.01134 1.77867 0
M  V30 1736 H 159.088 0.68667 0.184406 0
M  V30 1737 H 161.69 1.94662 -0.180851 0
M  V30 1738 H 160.394 4.09296 0.300803 0
M  V30 1739 H 159.925 3.45361 1.88385 0
M  V30 1740 H 161.94 3.90358 3.06326 0
M  V30 1741 N 161.113 -0.173488 1.56642 0
M  V30 1742 C 162.06 -1.21482 1.96242 0
M  V30 1743 C 163.03 -1.44104 0.826027 0
M  V30 1744 O 164.215 -1.5688 1.08597 0
M  V30 1745 C 161.355 -2.54964 2.32567 0
M  V30 1746 C 160.468 -2.39739 3.59373 0
M  V30 1747 C 159.603 -3.66072 3.84921 0
M  V30 1748 C 158.642 -3.45771 5.05083 0
M  V30 1749 N 157.779 -4.64169 5.26775 0
M  V30 1750 H 162.619 -0.870123 2.85014 0
M  V30 1751 H 160.156 -0.418245 1.41029 0
M  V30 1752 H 162.114 -3.32758 2.5165 0
M  V30 1753 H 160.744 -2.87433 1.46908 0
M  V30 1754 H 159.796 -1.53131 3.48217 0
M  V30 1755 H 161.108 -2.20683 4.47326 0
M  V30 1756 H 160.262 -4.52303 4.0436 0
M  V30 1757 H 159.001 -3.88105 2.9534 0
M  V30 1758 H 158.006 -2.57927 4.85545 0
M  V30 1759 H 159.231 -3.25163 5.96193 0
M  V30 1760 H 157.177 -4.86425 4.40144 0
M  V30 1761 H 157.094 -4.48019 6.08946 0
M  V30 1762 H 158.362 -5.51689 5.5069 0
M  V30 1763 N 162.591 -1.51276 -0.441967 0
M  V30 1764 C 163.554 -1.7167 -1.51862 0
M  V30 1765 C 164.554 -0.586793 -1.49711 0
M  V30 1766 O 165.744 -0.854276 -1.51815 0
M  V30 1767 C 162.876 -1.76889 -2.91416 0
M  V30 1768 H 164.069 -2.67754 -1.35084 0
M  V30 1769 H 161.622 -1.41196 -0.670333 0
M  V30 1770 H 162.357 -0.826026 -3.13604 0
M  V30 1771 H 162.142 -2.59001 -2.94382 0
M  V30 1772 H 163.632 -1.94522 -3.69528 0
M  V30 1773 N 164.069 0.697108 -1.41344 0
M  V30 1774 C 165.315 1.4593 -1.40827 0
M  V30 1775 C 165.648 1.94193 -0.0167098 0
M  V30 1776 O 164.923 1.69425 0.955263 0
M  V30 1777 C 165.206 2.67229 -2.41373 0
M  V30 1778 C 165.059 2.24741 -3.8963 0
M  V30 1779 C 166.378 3.69423 -2.39196 0
M  V30 1780 H 163.497 0.529303 -0.512842 0
M  V30 1781 H 166.139 0.794112 -1.72609 0
M  V30 1782 H 164.289 3.23982 -2.14401 0
M  V30 1783 H 165.961 1.73327 -4.27499 0
M  V30 1784 H 164.204 1.56542 -4.0457 0
M  V30 1785 H 164.875 3.1177 -4.55525 0
M  V30 1786 H 167.351 3.2234 -2.63128 0
M  V30 1787 H 166.227 4.51907 -3.11563 0
M  V30 1788 H 166.488 4.19012 -1.41001 0
M  V30 1789 N 165.547 1.27147 0.931209 0
M  V30 1790 C 166.497 1.06227 2.01742 0
M  V30 1791 C 167.481 -0.00859065 1.60898 0
M  V30 1792 O 168.673 0.209537 1.75755 0
M  V30 1793 C 165.802 0.707787 3.35924 0
M  V30 1794 C 164.888 1.81661 3.83223 0
M  V30 1795 N 165.279 3.05564 4.03069 0
M  V30 1796 C 163.577 1.70249 4.12227 0
M  V30 1797 C 164.278 3.77697 4.42403 0
M  V30 1798 N 163.254 3.0544 4.49675 0
M  V30 1799 H 167.056 2.00261 2.15111 0
M  V30 1800 H 164.57 1.1781 1.11779 0
M  V30 1801 H 166.567 0.539043 4.134 0
M  V30 1802 H 165.227 -0.224964 3.2392 0
M  V30 1803 H 166.238 3.41363 3.89476 0
M  V30 1804 H 162.915 0.840329 4.08956 0
M  V30 1805 H 164.305 4.84168 4.65866 0
M  V30 1806 N 167.025 -1.13721 1.09112 0
M  V30 1807 C 168.271 -1.85198 0.826414 0
M  V30 1808 C 168.604 -1.83129 -0.646319 0
M  V30 1809 O 167.879 -1.2671 -1.47563 0
M  V30 1810 C 168.162 -3.33507 1.35812 0
M  V30 1811 C 168.015 -3.44108 2.89672 0
M  V30 1812 C 169.334 -4.28838 0.989256 0
M  V30 1813 H 166.453 -0.67243 0.301675 0
M  V30 1814 H 169.095 -1.33499 1.35197 0
M  V30 1815 H 167.245 -3.77666 0.911082 0
M  V30 1816 H 168.917 -3.08684 3.428 0
M  V30 1817 H 167.16 -2.85087 3.26967 0
M  V30 1818 H 167.831 -4.48388 3.21951 0
M  V30 1819 H 170.307 -3.92734 1.37475 0
M  V30 1820 H 169.183 -5.31051 1.38838 0
M  V30 1821 H 169.444 -4.4198 -0.102924 0
M  V30 1822 N 168.503 -0.877838 -1.30888 0
M  V30 1823 C 169.752 -0.488793 -1.95688 0
M  V30 1824 C 170.065 0.965485 -1.70111 0
M  V30 1825 O 171.271 1.46104 -2.28836 0
M  V30 1826 C 169.727 -0.823201 -3.50359 0
M  V30 1827 C 169.335 -2.29477 -3.84765 0
M  V30 1828 C 171.079 -0.503009 -4.21509 0
M  V30 1829 C 168.986 -2.57118 -5.32583 0
M  V30 1830 H 167.916 -0.179062 -0.732429 0
M  V30 1831 H 170.567 -1.07183 -1.48943 0
M  V30 1832 H 168.949 -0.169331 -3.95638 0
M  V30 1833 H 170.123 -2.99236 -3.5042 0
M  V30 1834 H 168.438 -2.58178 -3.267 0
M  V30 1835 H 171.035 -0.68665 -5.30273 0
M  V30 1836 H 171.378 0.557109 -4.12555 0
M  V30 1837 H 171.911 -1.11376 -3.8189 0
M  V30 1838 H 168.65 -3.61843 -5.4658 0
M  V30 1839 H 168.17 -1.91961 -5.68253 0
M  V30 1840 H 169.849 -2.42251 -5.99936 0
M  V30 1841 N 169.982 1.44106 -0.638065 0
M  V30 1842 C 171.212 2.06037 -0.152394 0
M  V30 1843 C 171.62 1.47808 1.18108 0
M  V30 1844 O 170.963 0.598092 1.73691 0
M  V30 1845 C 171.025 3.59488 0.0293714 0
M  V30 1846 C 170.689 4.4022 -1.22702 0
M  V30 1847 C 171.686 4.73256 -2.15232 0
M  V30 1848 C 169.371 4.8048 -1.46437 0
M  V30 1849 C 171.365 5.45444 -3.29802 0
M  V30 1850 C 169.052 5.52417 -2.61303 0
M  V30 1851 C 170.05 5.84819 -3.52811 0
M  V30 1852 O 169.738 6.55289 -4.65673 0
M  V30 1853 H 169.47 0.671233 -0.0801401 0
M  V30 1854 H 172.024 1.85851 -0.874563 0
M  V30 1855 H 170.254 3.78191 0.806758 0
M  V30 1856 H 171.943 4.03164 0.470475 0
M  V30 1857 H 172.709 4.42684 -1.98131 0
M  V30 1858 H 168.588 4.54676 -0.760977 0
M  V30 1859 H 172.132 5.70653 -4.01249 0
M  V30 1860 H 168.029 5.82404 -2.78344 0
M  V30 1861 H 168.797 6.73762 -4.64744 0
M  V30 1862 N 171.46 0.379036 1.52974 0
M  V30 1863 C 172.688 -0.20679 2.05864 0
M  V30 1864 C 173.103 -1.41356 1.25155 0
M  V30 1865 O 172.46 -1.8009 0.295588 0
M  V30 1866 C 172.511 -0.587045 3.56702 0
M  V30 1867 O 172.232 0.571776 4.34353 0
M  V30 1868 C 173.733 -1.22983 4.25899 0
M  V30 1869 H 170.953 -0.0336123 0.670158 0
M  V30 1870 H 173.497 0.541298 1.97206 0
M  V30 1871 H 171.652 -1.28504 3.65466 0
M  V30 1872 H 172.066 0.261544 5.23847 0
M  V30 1873 H 173.54 -1.44635 5.32715 0
M  V30 1874 H 174.017 -2.19416 3.80465 0
M  V30 1875 H 174.623 -0.572892 4.21424 0
M  V30 1876 N 172.938 -1.57226 0.108567 0
M  V30 1877 C 174.184 -1.95121 -0.552761 0
M  V30 1878 C 174.517 -0.991345 -1.66991 0
M  V30 1879 O 173.792 -0.0267211 -1.94482 0
M  V30 1880 C 174.075 -3.43039 -1.09528 0
M  V30 1881 C 173.928 -4.49797 0.0177332 0
M  V30 1882 C 175.247 -3.92567 -1.98945 0
M  V30 1883 H 172.366 -0.709496 -0.199461 0
M  V30 1884 H 175.008 -1.89126 0.182011 0
M  V30 1885 H 173.158 -3.48279 -1.72146 0
M  V30 1886 H 174.83 -4.56661 0.652584 0
M  V30 1887 H 173.073 -4.284 0.682309 0
M  V30 1888 H 173.744 -5.50528 -0.402919 0
M  V30 1889 H 176.22 -3.89565 -1.46214 0
M  V30 1890 H 175.096 -4.96605 -2.33827 0
M  V30 1891 H 175.357 -3.32648 -2.91201 0
M  V30 1892 N 174.416 0.165178 -1.56732 0
M  V30 1893 C 175.364 1.22369 -1.97809 0
M  V30 1894 C 176.358 1.45488 -0.867741 0
M  V30 1895 O 177.564 1.45995 -1.05288 0
M  V30 1896 H 173.939 0.411486 -0.629431 0
M  V30 1897 H 175.91 0.850425 -2.86025 0
M  V30 1898 C 174.659 2.55403 -2.35934 0
M  V30 1899 H 173.982 2.38438 -3.20916 0
M  V30 1900 H 175.422 3.2814 -2.68514 0
M  V30 1901 C 173.881 3.14611 -1.20506 0
M  V30 1902 O 174.411 3.98626 -0.496016 0
M  V30 1903 N 172.617 2.7379 -0.97403 0
M  V30 1904 H 172.164 2.0557 -1.55238 0
M  V30 1905 H 172.122 3.1374 -0.203573 0
M  V30 1906 N 175.894 1.51508 0.433938 0
M  V30 1907 C 176.824 1.76016 1.53429 0
M  V30 1908 C 177.805 0.610112 1.58782 0
M  V30 1909 O 178.99 0.853177 1.74455 0
M  V30 1910 C 176.12 1.88831 2.9148 0
M  V30 1911 C 175.074 3.04288 3.00987 0
M  V30 1912 C 174.4 3.0229 4.4105 0
M  V30 1913 C 175.7 4.44193 2.74754 0
M  V30 1914 H 177.394 2.68152 1.33171 0
M  V30 1915 H 174.94 1.29035 0.639214 0
M  V30 1916 H 176.893 2.04559 3.6842 0
M  V30 1917 H 175.617 0.933455 3.12976 0
M  V30 1918 H 174.276 2.8827 2.26486 0
M  V30 1919 H 173.924 2.04576 4.59519 0
M  V30 1920 H 173.624 3.79822 4.4834 0
M  V30 1921 H 175.148 3.20116 5.1996 0
M  V30 1922 H 176.562 4.60544 3.41426 0
M  V30 1923 H 174.959 5.23457 2.9345 0
M  V30 1924 H 176.029 4.53996 1.70339 0
M  V30 1925 N 177.372 -0.689602 1.41712 0
M  V30 1926 C 178.602 -1.47613 1.44548 0
M  V30 1927 C 179.01 -1.89132 0.0509034 0
M  V30 1928 O 178.353 -1.57741 -0.94146 0
M  V30 1929 C 178.415 -2.76596 2.2964 0
M  V30 1930 C 178.079 -2.57245 3.77722 0
M  V30 1931 C 179.076 -2.22804 4.69739 0
M  V30 1932 C 176.761 -2.727 4.2183 0
M  V30 1933 C 178.755 -2.04064 6.03851 0
M  V30 1934 C 176.442 -2.53576 5.56006 0
M  V30 1935 C 177.44 -2.1931 6.46832 0
M  V30 1936 O 177.128 -2.00359 7.78532 0
M  V30 1937 H 176.86 -0.461227 0.494212 0
M  V30 1938 H 179.414 -0.856045 1.86711 0
M  V30 1939 H 177.644 -3.41033 1.82301 0
M  V30 1940 H 179.333 -3.38424 2.24107 0
M  V30 1941 H 180.099 -2.10473 4.36951 0
M  V30 1942 H 175.978 -2.98353 3.51435 0
M  V30 1943 H 179.522 -1.77241 6.74708 0
M  V30 1944 H 175.419 -2.65499 5.88371 0
M  V30 1945 H 176.187 -2.15075 7.89737 0
M  V30 1946 N 178.85 -1.27639 -0.924453 0
M  V30 1947 C 180.075 -1.17101 -1.71179 0
M  V30 1948 C 180.5 0.268134 -1.86179 0
M  V30 1949 O 179.858 1.19415 -1.36418 0
M  V30 1950 C 179.906 -1.86313 -3.08739 0
M  V30 1951 O 179.01 -1.16331 -3.95652 0
M  V30 1952 H 178.351 -0.407091 -0.524569 0
M  V30 1953 H 180.881 -1.68767 -1.15666 0
M  V30 1954 H 180.891 -1.938 -3.59034 0
M  V30 1955 H 179.566 -2.91001 -2.97138 0
M  V30 1956 H 178.143 -1.16935 -3.54091 0
M  V30 1957 N 180.328 1.1314 -1.09713 0
M  V30 1958 C 181.553 1.88862 -0.857081 0
M  V30 1959 C 181.978 1.78729 0.586304 0
M  V30 1960 O 181.336 1.13692 1.41222 0
M  V30 1961 C 181.384 3.36325 -1.30069 0
M  V30 1962 O 180.488 4.09815 -0.461007 0
M  V30 1963 H 179.829 0.587108 -0.310162 0
M  V30 1964 H 182.359 1.43129 -1.46203 0
M  V30 1965 H 182.369 3.87157 -1.28738 0
M  V30 1966 H 181.044 3.43017 -2.35185 0
M  V30 1967 H 179.621 3.68986 -0.538888 0
M  V30 1968 N 181.806 0.884767 1.30421 0
M  V30 1969 C 183.052 0.503851 1.96441 0
M  V30 1970 C 183.385 -0.944518 1.69684 0
M  V30 1971 O 182.66 -1.66737 1.00145 0
M  V30 1972 C 182.943 0.779085 3.51571 0
M  V30 1973 C 182.796 2.27807 3.87846 0
M  V30 1974 C 184.115 0.255452 4.39358 0
M  V30 1975 H 181.234 0.184533 0.713524 0
M  V30 1976 H 183.876 1.10872 1.54297 0
M  V30 1977 H 182.026 0.264274 3.876 0
M  V30 1978 H 183.698 2.86127 3.61841 0
M  V30 1979 H 181.941 2.74479 3.35922 0
M  V30 1980 H 182.612 2.42125 4.96064 0
M  V30 1981 H 185.088 0.696079 4.10236 0
M  V30 1982 H 183.964 0.477361 5.4682 0
M  V30 1983 H 184.225 -0.843293 4.33983 0
M  V30 1984 N 183.284 -1.43765 0.645699 0
M  V30 1985 C 184.214 -2.33471 -0.0370477 0
M  V30 1986 C 185.195 -1.49042 -0.819779 0
M  V30 1987 O 186.38 -1.77726 -0.782758 0
M  V30 1988 C 183.51 -3.32311 -1.0093 0
M  V30 1989 C 182.464 -4.2667 -0.337201 0
M  V30 1990 C 181.79 -5.1549 -1.42037 0
M  V30 1991 C 183.09 -5.16657 0.765706 0
M  V30 1992 H 184.784 -2.90809 0.712069 0
M  V30 1993 H 182.33 -1.39834 0.343876 0
M  V30 1994 H 184.283 -3.9396 -1.49578 0
M  V30 1995 H 183.007 -2.73213 -1.78948 0
M  V30 1996 H 181.666 -3.66374 0.128771 0
M  V30 1997 H 181.314 -4.52735 -2.1918 0
M  V30 1998 H 181.014 -5.79438 -0.975966 0
M  V30 1999 H 182.538 -5.80012 -1.90838 0
M  V30 2000 H 183.952 -5.72158 0.361702 0
M  V30 2001 H 182.349 -5.89286 1.13413 0
M  V30 2002 H 183.419 -4.56796 1.62683 0
M  V30 2003 N 184.763 -0.387143 -1.52771 0
M  V30 2004 C 186.012 0.19697 -2.00736 0
M  V30 2005 C 186.325 1.48082 -1.27793 0
M  V30 2006 O 187.531 2.14485 -1.66458 0
M  V30 2007 C 185.987 0.401568 -3.57653 0
M  V30 2008 C 185.595 -0.868907 -4.39493 0
M  V30 2009 C 187.339 0.942164 -4.13912 0
M  V30 2010 C 185.246 -0.632705 -5.88006 0
M  V30 2011 H 184.176 0.0773827 -0.750019 0
M  V30 2012 H 186.827 -0.50921 -1.76293 0
M  V30 2013 H 185.209 1.16954 -3.78335 0
M  V30 2014 H 186.383 -1.64133 -4.30577 0
M  V30 2015 H 184.698 -1.33429 -3.94443 0
M  V30 2016 H 187.295 1.13455 -5.22525 0
M  V30 2017 H 187.638 1.9106 -3.69867 0
M  V30 2018 H 188.171 0.233814 -3.97112 0
M  V30 2019 H 184.91 -1.57208 -6.36369 0
M  V30 2020 H 184.43 0.100825 -5.99715 0
M  V30 2021 H 186.109 -0.26642 -6.46451 0
M  V30 2022 N 186.241 1.57166 -0.116904 0
M  V30 2023 C 187.171 2.18222 0.830759 0
M  V30 2024 C 188.152 1.12167 1.27877 0
M  V30 2025 O 189.337 1.40394 1.34176 0
M  V30 2026 C 186.467 2.77996 2.08172 0
M  V30 2027 C 185.421 3.89614 1.77157 0
M  V30 2028 C 184.747 4.36187 3.09265 0
M  V30 2029 C 186.047 5.1181 1.04151 0
M  V30 2030 H 187.741 2.97664 0.321992 0
M  V30 2031 H 185.287 1.4318 0.153434 0
M  V30 2032 H 187.24 3.19366 2.74924 0
M  V30 2033 H 185.964 1.9584 2.6137 0
M  V30 2034 H 184.623 3.48816 1.12796 0
M  V30 2035 H 184.271 3.50893 3.60393 0
M  V30 2036 H 183.971 5.11455 2.89288 0
M  V30 2037 H 185.495 4.80207 3.77139 0
M  V30 2038 H 186.909 5.50214 1.61052 0
M  V30 2039 H 185.306 5.92648 0.942762 0
M  V30 2040 H 186.376 4.84892 0.0279022 0
M  V30 2041 N 187.719 -0.156864 1.56817 0
M  V30 2042 C 188.682 -1.17781 1.96622 0
M  V30 2043 C 189.682 -1.36401 0.851555 0
M  V30 2044 O 190.872 -1.33561 1.11836 0
M  V30 2045 C 188.004 -2.54008 2.27361 0
M  V30 2046 H 189.197 -0.836564 2.87996 0
M  V30 2047 H 186.75 -0.39985 1.51099 0
M  V30 2048 H 187.485 -2.9312 1.38748 0
M  V30 2049 H 187.27 -2.41856 3.08623 0
M  V30 2050 H 188.76 -3.27558 2.59029 0
M  V30 2051 N 189.197 -1.51736 -0.425897 0
M  V30 2052 C 190.444 -1.6497 -1.17436 0
M  V30 2053 C 190.772 -0.371445 -1.9092 0
M  V30 2054 O 190.027 0.644963 -1.84767 0
M  V30 2055 C 190.326 -2.81103 -2.20717 0
M  V30 2056 C 189.992 -4.19954 -1.64162 0
M  V30 2057 C 188.654 -4.57725 -1.48462 0
M  V30 2058 C 191.006 -5.06552 -1.22696 0
M  V30 2059 C 188.334 -5.79789 -0.897873 0
M  V30 2060 C 190.686 -6.29205 -0.654464 0
M  V30 2061 C 189.35 -6.6574 -0.484456 0
M  V30 2062 H 188.62 -0.603668 -0.429727 0
M  V30 2063 H 191.267 -1.85798 -0.463829 0
M  V30 2064 H 189.572 -2.54542 -2.97852 0
M  V30 2065 H 191.269 -2.8854 -2.78471 0
M  V30 2066 H 187.859 -3.90181 -1.77361 0
M  V30 2067 H 192.043 -4.77968 -1.33642 0
M  V30 2068 H 187.299 -6.06733 -0.75402 0
M  V30 2069 H 191.473 -6.95643 -0.324694 0
M  V30 2070 H 189.1 -7.60195 -0.0276833 0
M  V30 2071 N 190.675 0.682077 -1.42076 0
M  V30 2072 C 191.924 1.43786 -1.41451 0
M  V30 2073 C 192.237 1.95574 -0.0317074 0
M  V30 2074 O 193.443 2.71326 0.0971462 0
M  V30 2075 C 191.899 2.60071 -2.48779 0
M  V30 2076 C 191.507 2.15013 -3.93031 0
M  V30 2077 C 193.251 3.37626 -2.57311 0
M  V30 2078 C 191.158 3.28336 -4.91883 0
M  V30 2079 H 190.088 0.540143 -0.526082 0
M  V30 2080 H 192.739 0.739157 -1.67955 0
M  V30 2081 H 191.121 3.32275 -2.15429 0
M  V30 2082 H 192.295 1.5001 -4.35699 0
M  V30 2083 H 190.61 1.50416 -3.88284 0
M  V30 2084 H 193.207 4.22012 -3.28345 0
M  V30 2085 H 193.55 3.83727 -1.61429 0
M  V30 2086 H 194.083 2.72488 -2.89819 0
M  V30 2087 H 190.822 2.87234 -5.89217 0
M  V30 2088 H 190.342 3.92145 -4.53853 0
M  V30 2089 H 192.021 3.93913 -5.13265 0
M  V30 2090 N 192.153 1.28127 0.917671 0
M  V30 2091 C 193.378 1.18007 1.70555 0
M  V30 2092 C 193.803 -0.258257 1.86319 0
M  V30 2093 O 193.161 -1.1869 1.37049 0
M  V30 2094 C 193.209 1.87948 3.07746 0
M  V30 2095 O 192.313 1.18427 3.9503 0
M  V30 2096 H 191.654 0.409867 0.522403 0
M  V30 2097 H 194.184 1.69379 1.1477 0
M  V30 2098 H 194.194 1.95701 3.58001 0
M  V30 2099 H 192.869 2.92573 2.95591 0
M  V30 2100 H 191.446 1.18811 3.53466 0
M  V30 2101 N 193.631 -1.12557 1.10312 0
M  V30 2102 C 194.561 -2.20341 0.772798 0
M  V30 2103 C 195.542 -1.68198 -0.25365 0
M  V30 2104 O 196.727 -1.93831 -0.119699 0
M  V30 2105 C 193.857 -3.46709 0.202443 0
M  V30 2106 C 192.811 -4.11996 1.15943 0
M  V30 2107 C 192.137 -5.328 0.450345 0
M  V30 2108 C 193.437 -4.5828 2.50552 0
M  V30 2109 H 195.131 -2.48229 1.674 0
M  V30 2110 H 192.677 -1.19308 0.806326 0
M  V30 2111 H 194.63 -4.2138 -0.0407752 0
M  V30 2112 H 193.354 -3.18245 -0.734001 0
M  V30 2113 H 192.013 -3.39305 1.38808 0
M  V30 2114 H 191.661 -5.00602 -0.490531 0
M  V30 2115 H 191.361 -5.7743 1.08851 0
M  V30 2116 H 192.885 -6.10219 0.215642 0
M  V30 2117 H 194.299 -5.2433 2.31843 0
M  V30 2118 H 192.696 -5.13683 3.10242 0
M  V30 2119 H 193.766 -3.72329 3.10643 0
M  V30 2120 N 195.109 -0.891671 -1.2995 0
M  V30 2121 C 196.386 -0.433307 -1.9074 0
M  V30 2122 C 196.766 1.08646 -1.80995 0
M  V30 2123 O 196.114 1.92476 -1.23147 0
M  V30 2124 C 196.324 -0.938895 -3.36134 0
M  V30 2125 C 197.672 -0.977829 -4.13187 0
M  V30 2126 O 198.696 -0.886015 -3.45005 0
M  V30 2127 O 197.555 -1.11453 -5.35015 0
M  V30 2128 H 194.649 -0.133699 -0.816121 0
M  V30 2129 H 197.195 -0.981011 -1.38471 0
M  V30 2130 H 195.967 -1.98281 -3.37343 0
M  V30 2131 H 195.59 -0.37074 -3.95868 0
M  V30 2132 N 196.587 1.43421 -0.653314 0
M  V30 2133 C 198.003 1.56341 -0.320886 0
M  V30 2134 C 198.203 1.63696 1.17499 0
M  V30 2135 O 197.259 1.59208 1.95982 0
M  V30 2136 C 198.572 2.82424 -1.03233 0
M  V30 2137 C 200.12 2.96168 -1.01259 0
M  V30 2138 C 200.595 4.25084 -1.70492 0
M  V30 2139 N 202.086 4.31948 -1.67257 0
M  V30 2140 C 202.821 5.30466 -2.17701 0
M  V30 2141 N 202.317 6.35261 -2.76434 0
M  V30 2142 N 204.11 5.2212 -2.082 0
M  V30 2143 H 196.261 1.3689 -1.62403 0
M  V30 2144 H 198.524 0.657455 -0.682977 0
M  V30 2145 H 198.23 2.83053 -2.08744 0
M  V30 2146 H 198.104 3.72653 -0.583948 0
M  V30 2147 H 200.491 2.9508 0.0341235 0
M  V30 2148 H 200.572 2.07229 -1.49966 0
M  V30 2149 H 200.216 4.26932 -2.7512 0
M  V30 2150 H 200.146 5.1292 -1.19251 0
M  V30 2151 H 202.637 3.56838 -1.24398 0
M  V30 2152 H 202.95 7.06754 -3.12601 0
M  V30 2153 H 201.295 6.35884 -2.80495 0
M  V30 2154 H 204.486 4.39166 -1.62021 0
M  V30 2155 H 204.659 5.98739 -2.47822 0
M  V30 2156 N 198.065 0.39524 1.52563 0
M  V30 2157 C 199.295 -0.184675 2.05773 0
M  V30 2158 C 199.703 -1.40571 1.26635 0
M  V30 2159 O 199.046 -1.81105 0.30769 0
M  V30 2160 C 199.108 -0.613551 3.54226 0
M  V30 2161 C 198.772 0.49484 4.54313 0
M  V30 2162 C 199.769 1.3541 5.01956 0
M  V30 2163 C 197.454 0.663565 4.97898 0
M  V30 2164 C 199.448 2.36716 5.91814 0
M  V30 2165 C 197.135 1.67996 5.87555 0
M  V30 2166 C 198.133 2.53017 6.34406 0
M  V30 2167 O 197.821 3.52917 7.22291 0
M  V30 2168 H 197.553 -0.030077 0.675331 0
M  V30 2169 H 200.107 0.560708 1.97599 0
M  V30 2170 H 198.337 -1.411 3.60038 0
M  V30 2171 H 200.026 -1.11981 3.90148 0
M  V30 2172 H 200.792 1.23509 4.6901 0
M  V30 2173 H 196.671 0.0114913 4.60999 0
M  V30 2174 H 200.215 3.03113 6.28306 0
M  V30 2175 H 196.112 1.79933 6.19915 0
M  V30 2176 H 196.88 3.48996 7.40367 0
M  V30 2177 N 199.544 -1.57102 0.125237 0
M  V30 2178 C 200.474 -2.18659 -0.819174 0
M  V30 2179 C 201.455 -1.12843 -1.27281 0
M  V30 2180 O 202.64 -1.41104 -1.33429 0
M  V30 2181 C 199.77 -2.79096 -2.06695 0
M  V30 2182 C 198.724 -3.90548 -1.75088 0
M  V30 2183 C 198.05 -4.37821 -3.06948 0
M  V30 2184 C 199.35 -5.12356 -1.01435 0
M  V30 2185 H 201.044 -2.9783 -0.306202 0
M  V30 2186 H 198.59 -1.4326 -0.145839 0
M  V30 2187 H 200.543 -3.2082 -2.73226 0
M  V30 2188 H 199.267 -1.97223 -2.60328 0
M  V30 2189 H 197.926 -3.49409 -1.10944 0
M  V30 2190 H 197.574 -3.52799 -3.58527 0
M  V30 2191 H 197.274 -5.12982 -2.86571 0
M  V30 2192 H 198.798 -4.822 -3.74587 0
M  V30 2193 H 200.212 -5.5106 -1.58132 0
M  V30 2194 H 198.609 -5.9314 -0.911319 0
M  V30 2195 H 199.679 -4.849 -0.00218681 0
M  V30 2196 N 201.022 0.148545 -1.56898 0
M  V30 2197 C 201.985 1.16736 -1.97244 0
M  V30 2198 C 202.985 1.35947 -0.858777 0
M  V30 2199 O 204.175 1.32966 -1.12542 0
M  V30 2200 C 201.307 2.52798 -2.28705 0
M  V30 2201 H 202.5 0.821279 -2.88435 0
M  V30 2202 H 200.053 0.391831 -1.51309 0
M  V30 2203 H 200.788 2.92381 -1.403 0
M  V30 2204 H 200.573 2.40216 -3.09901 0
M  V30 2205 H 202.063 3.26179 -2.60762 0
M  V30 2206 N 202.5 1.5196 0.417844 0
M  V30 2207 C 203.749 1.6482 1.16264 0
M  V30 2208 C 204.062 0.379886 1.91876 0
M  V30 2209 O 205.268 0.388154 2.68711 0
M  V30 2210 C 203.724 2.91161 2.1155 0
M  V30 2211 C 203.332 4.25068 1.41495 0
M  V30 2212 C 205.076 3.13383 2.86341 0
M  V30 2213 C 202.983 5.42541 2.35379 0
M  V30 2214 H 201.913 0.613954 0.437694 0
M  V30 2215 H 204.564 1.78442 0.427871 0
M  V30 2216 H 202.946 2.71218 2.88543 0
M  V30 2217 H 204.12 4.55463 0.699263 0
M  V30 2218 H 202.435 4.0888 0.787792 0
M  V30 2219 H 205.032 3.98324 3.5671 0
M  V30 2220 H 205.375 2.27256 3.48798 0
M  V30 2221 H 205.908 3.33757 2.1645 0
M  V30 2222 H 202.647 6.30987 1.77582 0
M  V30 2223 H 202.167 5.16497 3.04945 0
M  V30 2224 H 203.846 5.75272 2.96093 0
M  V30 2225 N 203.978 -0.674533 1.42435 0
M  V30 2226 C 205.224 -1.43671 1.43131 0
M  V30 2227 C 205.557 -1.94142 0.0476021 0
M  V30 2228 O 204.832 -1.70924 -0.928188 0
M  V30 2229 C 205.115 -2.63355 2.45594 0
M  V30 2230 C 204.968 -2.18514 3.93156 0
M  V30 2231 C 206.287 -3.65571 2.45043 0
M  V30 2232 H 203.406 -0.521077 0.521198 0
M  V30 2233 H 206.048 -0.766551 1.7385 0
M  V30 2234 H 204.198 -3.2053 2.19528 0
M  V30 2235 H 205.87 -1.66504 4.30202 0
M  V30 2236 H 204.113 -1.50086 4.07009 0
M  V30 2237 H 204.784 -3.04484 4.60428 0
M  V30 2238 H 207.26 -3.18113 2.68223 0
M  V30 2239 H 206.136 -4.46893 3.18713 0
M  V30 2240 H 206.397 -4.16716 1.47649 0
M  V30 2241 N 205.456 -1.28612 -0.910864 0
M  V30 2242 C 206.406 -1.09423 -2.00026 0
M  V30 2243 C 207.39 -0.0170079 -1.60891 0
M  V30 2244 O 208.582 -0.237472 -1.754 0
M  V30 2245 C 205.711 -0.76114 -3.34756 0
M  V30 2246 C 204.797 -1.87735 -3.80285 0
M  V30 2247 N 205.188 -3.11938 -3.98156 0
M  V30 2248 C 203.486 -1.76786 -4.09467 0
M  V30 2249 C 204.187 -3.84687 -4.36338 0
M  V30 2250 N 203.163 -3.12555 -4.44759 0
M  V30 2251 H 206.965 -2.03658 -2.11898 0
M  V30 2252 H 204.479 -1.19573 -1.09891 0
M  V30 2253 H 206.476 -0.604743 -4.12491 0
M  V30 2254 H 205.136 0.173403 -3.24237 0
M  V30 2255 H 206.147 -3.47516 -3.83996 0
M  V30 2256 H 202.824 -0.905284 -4.07567 0
M  V30 2257 H 204.214 -4.91518 -4.58104 0
M  V30 2258 N 206.934 1.1197 -1.10907 0
M  V30 2259 C 207.897 2.16031 -0.765707 0
M  V30 2260 C 208.897 1.59393 0.212235 0
M  V30 2261 O 210.087 1.74196 -0.0115441 0
M  V30 2262 C 207.219 3.40632 -0.135053 0
M  V30 2263 H 208.412 2.47919 -1.68748 0
M  V30 2264 H 205.965 1.27061 -0.910226 0
M  V30 2265 H 206.7 3.14348 0.797218 0
M  V30 2266 H 206.485 3.8302 -0.838937 0
M  V30 2267 H 207.975 4.17505 0.0892469 0
M  V30 2268 N 208.412 0.89855 1.29475 0
M  V30 2269 C 209.64 0.539261 1.99749 0
M  V30 2270 C 210.055 -0.875716 1.67262 0
M  V30 2271 O 209.412 -1.57786 0.917049 0
M  V30 2272 C 209.463 0.72061 3.54245 0
M  V30 2273 O 209.184 2.07989 3.8558 0
M  V30 2274 C 210.685 0.366118 4.41786 0
M  V30 2275 H 207.905 0.207047 0.638258 0
M  V30 2276 H 210.449 1.20758 1.65039 0
M  V30 2277 H 208.604 0.0994862 3.87272 0
M  V30 2278 H 209.018 2.10841 4.80257 0
M  V30 2279 H 210.492 0.543848 5.49314 0
M  V30 2280 H 210.969 -0.696763 4.33638 0
M  V30 2281 H 211.575 0.964135 4.14228 0
M  V30 2282 N 209.89 -1.43072 0.660911 0
M  V30 2283 C 210.838 -2.32569 -0.0378199 0
M  V30 2284 C 211.832 -1.49046 -0.805092 0
M  V30 2285 O 213.038 -1.65206 -0.714624 0
M  V30 2286 H 209.413 -0.75136 -0.031019 0
M  V30 2287 H 211.384 -2.89216 0.734609 0
M  V30 2288 C 210.133 -3.33453 -0.985124 0
M  V30 2289 H 209.456 -3.97752 -0.404147 0
M  V30 2290 H 210.896 -3.98691 -1.44297 0
M  V30 2291 C 209.355 -2.64642 -2.08486 0
M  V30 2292 O 209.885 -2.46776 -3.16961 0
M  V30 2293 N 208.091 -2.23891 -1.8526 0
M  V30 2294 H 207.638 -2.38621 -0.970449 0
M  V30 2295 H 207.596 -1.78181 -2.59034 0
M  V30 2296 N 211.368 -0.403325 -1.52352 0
M  V30 2297 C 212.593 0.176499 -2.06648 0
M  V30 2298 C 213.018 1.38577 -1.27193 0
M  V30 2299 O 212.376 1.7879 -0.300637 0
M  V30 2300 C 212.424 0.511061 -3.5696 0
M  V30 2301 O 211.528 1.60294 -3.79973 0
M  V30 2302 H 210.869 0.0167337 -0.663789 0
M  V30 2303 H 213.399 -0.574848 -1.96359 0
M  V30 2304 H 213.409 0.771362 -4.00642 0
M  V30 2305 H 212.084 -0.37296 -4.14224 0
M  V30 2306 H 210.661 1.33526 -3.48174 0
M  V30 2307 N 212.846 1.57033 -0.133567 0
M  V30 2308 C 213.778 2.13176 0.841944 0
M  V30 2309 C 214.791 1.07794 1.22001 0
M  V30 2310 O 215.98 1.35117 1.16643 0
M  V30 2311 C 213.08 2.62847 2.13926 0
M  V30 2312 C 212.253 3.92486 1.93064 0
M  V30 2313 C 211.312 4.27605 3.0666 0
M  V30 2314 O 210.338 4.96168 2.78937 0
M  V30 2315 N 211.54 3.861 4.33483 0
M  V30 2316 H 214.305 2.97503 0.362192 0
M  V30 2317 H 211.866 1.61821 0.05042 0
M  V30 2318 H 213.858 2.83363 2.88942 0
M  V30 2319 H 212.428 1.83319 2.53205 0
M  V30 2320 H 211.648 3.80732 1.02159 0
M  V30 2321 H 212.936 4.77225 1.76447 0
M  V30 2322 H 212.334 3.30828 4.58878 0
M  V30 2323 H 210.891 4.11694 5.05323 0
M  V30 2324 N 214.325 -0.140222 1.56975 0
M  V30 2325 C 215.741 -0.493088 1.51792 0
M  V30 2326 C 215.941 -1.83013 0.843116 0
M  V30 2327 O 214.997 -2.49041 0.416493 0
M  V30 2328 C 216.31 -0.497144 2.96562 0
M  V30 2329 C 217.858 -0.582186 3.07538 0
M  V30 2330 C 218.333 -0.616838 4.53827 0
M  V30 2331 N 219.824 -0.678873 4.58198 0
M  V30 2332 C 220.559 -0.726782 5.68775 0
M  V30 2333 N 220.055 -0.733623 6.88905 0
M  V30 2334 N 221.848 -0.768179 5.56826 0
M  V30 2335 H 213.999 0.736108 1.99237 0
M  V30 2336 H 216.262 0.269182 0.90898 0
M  V30 2337 H 215.968 0.417217 3.49217 0
M  V30 2338 H 215.842 -1.33263 3.52875 0
M  V30 2339 H 218.229 -1.48697 2.54899 0
M  V30 2340 H 218.31 0.280581 2.54257 0
M  V30 2341 H 217.954 0.283812 5.07106 0
M  V30 2342 H 217.884 -1.49619 5.04898 0
M  V30 2343 H 220.375 -0.68061 3.7172 0
M  V30 2344 H 220.688 -0.772215 7.68932 0
M  V30 2345 H 219.033 -0.701389 6.91452 0
M  V30 2346 H 222.224 -0.760051 4.61888 0
M  V30 2347 H 222.397 -0.80205 6.43017 0
M  V30 2348 N 215.803 -1.52179 -0.40978 0
M  V30 2349 C 217.214 -1.58377 -0.988615 0
M  V30 2350 C 217.565 -0.423879 -1.91566 0
M  V30 2351 O 216.69 0.455844 -2.11544 0
M  V30 2352 C 217.285 -2.87044 -1.79976 0
M  V30 2353 C 215.844 -2.95722 -2.32863 0
M  V30 2354 C 214.991 -2.53309 -1.12828 0
M  V30 2355 H 217.942 -1.57558 -0.190039 0
M  V30 2356 H 217.963 -2.7236 -2.65707 0
M  V30 2357 H 217.475 -3.71444 -1.12478 0
M  V30 2358 H 215.576 -2.15814 -3.03735 0
M  V30 2359 H 215.689 -3.99951 -2.63773 0
M  V30 2360 H 214.053 -2.07142 -1.48204 0
M  V30 2361 H 214.836 -3.40082 -0.46897 0
M  V30 2362 N 217.281 0.66697 -1.42791 0
M  V30 2363 C 218.697 0.981027 -1.25889 0
M  V30 2364 C 218.897 2.00793 -0.168695 0
M  V30 2365 O 217.953 2.48321 0.45747 0
M  V30 2366 C 219.266 1.47838 -2.61848 0
M  V30 2367 C 220.814 1.59575 -2.69267 0
M  V30 2368 C 221.289 2.12704 -4.05612 0
M  V30 2369 N 222.78 2.20026 -4.07606 0
M  V30 2370 C 223.515 2.62227 -5.09926 0
M  V30 2371 N 223.011 3.03824 -6.22626 0
M  V30 2372 N 224.804 2.62045 -4.97281 0
M  V30 2373 H 216.955 -0.0127891 -2.12396 0
M  V30 2374 H 219.218 0.0568258 -0.946295 0
M  V30 2375 H 218.924 0.798299 -3.4252 0
M  V30 2376 H 218.798 2.45579 -2.86305 0
M  V30 2377 H 221.185 2.26687 -1.88936 0
M  V30 2378 H 221.266 0.60302 -2.48591 0
M  V30 2379 H 220.91 1.46198 -4.86404 0
M  V30 2380 H 220.84 3.12782 -4.23645 0
M  V30 2381 H 223.331 1.90708 -3.2625 0
M  V30 2382 H 223.644 3.34734 -6.96544 0
M  V30 2383 H 221.989 3.01662 -6.26119 0
M  V30 2384 H 225.18 2.28916 -4.08308 0
M  V30 2385 H 225.353 2.94613 -5.77154 0
M  V30 2386 N 218.759 1.29093 0.90403 0
M  V30 2387 C 219.706 1.13853 2.00764 0
M  V30 2388 C 220.676 0.0330084 1.66067 0
M  V30 2389 O 221.861 0.199733 1.89752 0
M  V30 2390 C 219.001 0.816537 3.35301 0
M  V30 2391 C 218.114 2.00206 3.82807 0
M  V30 2392 C 217.249 1.61983 5.059 0
M  V30 2393 C 216.288 2.77143 5.45764 0
M  V30 2394 N 215.425 2.39346 6.60044 0
M  V30 2395 H 220.265 2.08276 2.13132 0
M  V30 2396 H 217.802 1.03648 1.04381 0
M  V30 2397 H 219.76 0.610557 4.12708 0
M  V30 2398 H 218.39 -0.090779 3.22672 0
M  V30 2399 H 217.442 2.31988 3.01473 0
M  V30 2400 H 218.754 2.86512 4.08304 0
M  V30 2401 H 217.908 1.37649 5.90879 0
M  V30 2402 H 216.647 0.728202 4.82233 0
M  V30 2403 H 215.652 3.02165 4.59322 0
M  V30 2404 H 216.877 3.66964 5.71414 0
M  V30 2405 H 214.823 1.52665 6.37989 0
M  V30 2406 H 214.74 3.19185 6.85315 0
M  V30 2407 H 216.008 2.1832 7.48303 0
M  V30 2408 N 220.237 -1.11381 1.11499 0
M  V30 2409 C 221.167 -2.19509 0.796125 0
M  V30 2410 C 222.148 -1.68458 -0.235796 0
M  V30 2411 O 223.333 -1.93947 -0.0991344 0
M  V30 2412 C 220.463 -3.46475 0.239205 0
M  V30 2413 C 219.417 -4.10744 1.20307 0
M  V30 2414 C 218.743 -5.32293 0.50683 0
M  V30 2415 C 220.043 -4.55597 2.55399 0
M  V30 2416 H 221.737 -2.46439 1.70024 0
M  V30 2417 H 219.283 -1.18446 0.818935 0
M  V30 2418 H 221.236 -4.214 0.00392006 0
M  V30 2419 H 219.96 -3.19006 -0.700206 0
M  V30 2420 H 218.619 -3.37813 1.42399 0
M  V30 2421 H 218.267 -5.01095 -0.437408 0
M  V30 2422 H 217.967 -5.76243 1.1497 0
M  V30 2423 H 219.491 -6.09956 0.280351 0
M  V30 2424 H 220.905 -5.21841 2.37391 0
M  V30 2425 H 219.302 -5.10363 3.15673 0
M  V30 2426 H 220.372 -3.69013 3.14575 0
M  V30 2427 N 221.715 -0.905404 -1.28997 0
M  V30 2428 C 222.645 -0.404212 -2.29975 0
M  V30 2429 C 223.626 0.523784 -1.61835 0
M  V30 2430 O 224.811 0.433298 -1.89304 0
M  V30 2431 C 221.941 0.364042 -3.45387 0
M  V30 2432 C 220.895 -0.474048 -4.25367 0
M  V30 2433 C 220.221 0.422045 -5.33032 0
M  V30 2434 C 221.521 -1.72696 -4.92923 0
M  V30 2435 H 223.215 -1.24807 -2.72146 0
M  V30 2436 H 220.761 -0.601585 -1.30832 0
M  V30 2437 H 222.714 0.725447 -4.15109 0
M  V30 2438 H 221.438 1.24174 -3.02074 0
M  V30 2439 H 220.097 -0.81786 -3.57361 0
M  V30 2440 H 219.745 1.29804 -4.85963 0
M  V30 2441 H 219.445 -0.135057 -5.87445 0
M  V30 2442 H 220.969 0.779517 -6.05604 0
M  V30 2443 H 222.383 -1.43495 -5.55051 0
M  V30 2444 H 220.78 -2.22582 -5.57295 0
M  V30 2445 H 221.85 -2.45964 -4.17887 0
M  V30 2446 N 223.193 1.4272 -0.668489 0
M  V30 2447 C 224.156 2.292 0.00448567 0
M  V30 2448 C 225.156 1.43001 0.735339 0
M  V30 2449 O 226.346 1.64461 0.57429 0
M  V30 2450 C 223.478 3.25375 1.01705 0
M  V30 2451 H 224.671 2.90199 -0.756608 0
M  V30 2452 H 222.224 1.50254 -0.430506 0
M  V30 2453 H 222.959 2.69301 1.80686 0
M  V30 2454 H 222.744 3.88944 0.496463 0
M  V30 2455 H 224.234 3.90245 1.48655 0
M  V30 2456 N 224.671 0.411399 1.52136 0
M  V30 2457 C 225.581 -0.419774 2.30814 0
M  V30 2458 C 226.597 -1.0515 1.38634 0
M  V30 2459 O 227.773 -1.05252 1.71709 0
M  V30 2460 C 224.838 -1.52019 3.11594 0
M  V30 2461 C 223.899 -0.91129 4.19516 0
M  V30 2462 C 223.132 -1.95927 4.96436 0
M  V30 2463 O 223.355 -3.17775 4.73683 0
M  V30 2464 O 222.289 -1.56423 5.81219 0
M  V30 2465 H 226.115 0.221805 3.02889 0
M  V30 2466 H 223.7 0.174547 1.48377 0
M  V30 2467 H 225.582 -2.15898 3.61892 0
M  V30 2468 H 224.257 -2.14633 2.42311 0
M  V30 2469 H 223.164 -0.235157 3.7336 0
M  V30 2470 H 224.497 -0.32904 4.91099 0
M  V30 2471 N 226.149 -1.5696 0.141893 0
M  V30 2472 C 227.096 -2.16501 -0.799737 0
M  V30 2473 C 228.066 -1.09643 -1.24771 0
M  V30 2474 O 229.251 -1.3766 -1.32115 0
M  V30 2475 C 226.391 -2.78679 -2.03549 0
M  V30 2476 C 225.504 -3.99914 -1.6338 0
M  V30 2477 C 224.639 -4.50106 -2.82096 0
M  V30 2478 C 223.678 -5.63819 -2.38275 0
M  V30 2479 N 222.815 -6.08651 -3.49983 0
M  V30 2480 H 227.655 -2.96632 -0.285179 0
M  V30 2481 H 225.192 -1.46533 -0.129053 0
M  V30 2482 H 227.15 -3.1287 -2.75986 0
M  V30 2483 H 225.78 -2.012 -2.52425 0
M  V30 2484 H 224.832 -3.71735 -0.807279 0
M  V30 2485 H 226.144 -4.82311 -1.27192 0
M  V30 2486 H 225.298 -4.86325 -3.62729 0
M  V30 2487 H 224.037 -3.66706 -3.21525 0
M  V30 2488 H 223.042 -5.2718 -1.56081 0
M  V30 2489 H 224.267 -6.49 -1.99938 0
M  V30 2490 H 222.213 -5.28188 -3.89042 0
M  V30 2491 H 222.13 -6.85961 -3.17794 0
M  V30 2492 H 223.398 -6.49515 -4.30988 0
M  V30 2493 N 227.627 0.131896 -1.57047 0
M  V30 2494 C 228.873 0.843179 -1.84441 0
M  V30 2495 C 229.206 1.80129 -0.725749 0
M  V30 2496 O 228.481 1.92624 0.269469 0
M  V30 2497 C 228.764 1.60442 -3.22382 0
M  V30 2498 C 228.617 0.666782 -4.4483 0
M  V30 2499 C 229.936 2.56354 -3.5773 0
M  V30 2500 H 227.055 0.305081 -0.670891 0
M  V30 2501 H 229.697 0.107839 -1.89694 0
M  V30 2502 H 227.847 2.23128 -3.18035 0
M  V30 2503 H 229.519 0.0497646 -4.61273 0
M  V30 2504 H 227.762 -0.022609 -4.33794 0
M  V30 2505 H 228.433 1.23579 -5.37989 0
M  V30 2506 H 230.909 2.0378 -3.62785 0
M  V30 2507 H 229.785 3.06657 -4.5525 0
M  V30 2508 H 230.046 3.38419 -2.84473 0
M  V30 2509 N 229.106 1.52395 0.401703 0
M  V30 2510 C 230.352 1.67065 1.14966 0
M  V30 2511 C 230.685 0.403052 1.89971 0
M  V30 2512 O 229.96 -0.598774 1.85054 0
M  V30 2513 C 230.243 2.8975 2.13815 0
M  V30 2514 C 230.096 4.26578 1.42658 0
M  V30 2515 C 231.415 3.07965 3.14397 0
M  V30 2516 H 228.534 0.607968 0.416587 0
M  V30 2517 H 231.176 1.84965 0.434511 0
M  V30 2518 H 229.326 2.74619 2.74803 0
M  V30 2519 H 230.998 4.53451 0.847329 0
M  V30 2520 H 229.241 4.27639 0.72849 0
M  V30 2521 H 229.912 5.08483 2.14823 0
M  V30 2522 H 232.388 3.22043 2.63491 0
M  V30 2523 H 231.264 3.95308 3.80819 0
M  V30 2524 H 231.525 2.21611 3.82545 0
M  V30 2525 N 230.584 -0.659388 1.43143 0
M  V30 2526 C 231.814 -1.44513 1.47646 0
M  V30 2527 C 232.222 -1.88981 0.0910095 0
M  V30 2528 O 231.565 -1.59702 -0.907789 0
M  V30 2529 C 231.627 -2.71663 2.35456 0
M  V30 2530 C 231.291 -2.49175 3.83094 0
M  V30 2531 C 232.288 -2.1279 4.74359 0
M  V30 2532 C 229.973 -2.63691 4.27519 0
M  V30 2533 C 231.967 -1.9121 6.08044 0
M  V30 2534 C 229.654 -2.41726 5.61259 0
M  V30 2535 C 230.652 -2.0554 6.51339 0
M  V30 2536 O 230.34 -1.838 7.82606 0
M  V30 2537 H 230.072 -0.45064 0.503884 0
M  V30 2538 H 232.626 -0.816248 1.88485 0
M  V30 2539 H 230.856 -3.37089 1.89493 0
M  V30 2540 H 232.545 -3.33595 2.31235 0
M  V30 2541 H 233.311 -2.01157 4.41317 0
M  V30 2542 H 229.19 -2.90832 3.57684 0
M  V30 2543 H 232.734 -1.62889 6.78316 0
M  V30 2544 H 228.631 -2.52959 5.9387 0
M  V30 2545 H 229.399 -1.98275 7.94122 0
M  V30 2546 N 232.062 -1.29571 -0.897171 0
M  V30 2547 C 233.308 -1.17863 -1.65034 0
M  V30 2548 C 233.641 0.268729 -1.92332 0
M  V30 2549 O 232.916 1.19378 -1.53555 0
M  V30 2550 C 233.199 -1.995 -2.99786 0
M  V30 2551 C 233.052 -3.5239 -2.79538 0
M  V30 2552 C 234.371 -1.82335 -4.00552 0
M  V30 2553 H 231.49 -0.429528 -0.598895 0
M  V30 2554 H 234.132 -1.59072 -1.03905 0
M  V30 2555 H 232.282 -1.64485 -3.51962 0
M  V30 2556 H 233.954 -3.97401 -2.34244 0
M  V30 2557 H 232.197 -3.77187 -2.14273 0
M  V30 2558 H 232.868 -4.04787 -3.75302 0
M  V30 2559 H 235.344 -2.12924 -3.57495 0
M  V30 2560 H 234.22 -2.41801 -4.92771 0
M  V30 2561 H 234.481 -0.779209 -4.35179 0
M  V30 2562 N 233.54 1.10788 -1.12088 0
M  V30 2563 C 234.788 1.8231 -0.872205 0
M  V30 2564 C 235.109 1.85419 0.603709 0
M  V30 2565 O 234.379 1.32963 1.43867 0
M  V30 2566 H 232.959 0.675137 -0.319686 0
M  V30 2567 H 235.621 1.34068 -1.41463 0
M  V30 2568 H 234.717 2.85955 -1.25045 0
M  V30 2569 N 235.018 0.912232 1.28515 0
M  V30 2570 C 236.264 0.545405 1.95328 0
M  V30 2571 C 236.597 -0.908313 1.71649 0
M  V30 2572 O 235.872 -1.64575 1.03659 0
M  V30 2573 C 236.155 0.853483 3.4984 0
M  V30 2574 C 236.008 2.35982 3.82926 0
M  V30 2575 C 237.327 0.348589 4.38717 0
M  V30 2576 H 234.446 0.199626 0.709449 0
M  V30 2577 H 237.088 1.1412 1.5191 0
M  V30 2578 H 235.238 0.34643 3.86952 0
M  V30 2579 H 236.91 2.93738 3.55691 0
M  V30 2580 H 235.153 2.81543 3.30024 0
M  V30 2581 H 235.824 2.52593 4.90816 0
M  V30 2582 H 238.3 0.78294 4.08668 0
M  V30 2583 H 237.176 0.593242 5.45685 0
M  V30 2584 H 237.437 -0.751049 4.35674 0
M  V30 2585 N 236.496 -1.42363 0.676048 0
M  V30 2586 C 237.742 -2.02336 0.207809 0
M  V30 2587 C 238.097 -1.52506 -1.17302 0
M  V30 2588 O 237.39 -0.718048 -1.77636 0
M  V30 2589 C 237.584 -3.56929 0.183431 0
M  V30 2590 C 237.413 -4.21762 1.56036 0
M  V30 2591 C 236.183 -4.56881 2.15842 0
M  V30 2592 C 238.381 -4.49267 2.50327 0
M  V30 2593 N 236.363 -5.069 3.46303 0
M  V30 2594 C 237.734 -5.00851 3.65443 0
M  V30 2595 C 239.789 -4.31257 2.48841 0
M  V30 2596 C 238.492 -5.36317 4.79329 0
M  V30 2597 C 240.518 -4.678 3.61824 0
M  V30 2598 C 239.88 -5.19537 4.75668 0
M  V30 2599 H 235.979 -0.772583 0.120993 0
M  V30 2600 H 238.563 -1.73203 0.889306 0
M  V30 2601 H 236.734 -3.85576 -0.467483 0
M  V30 2602 H 238.466 -4.03603 -0.297808 0
M  V30 2603 H 235.221 -4.4268 1.68319 0
M  V30 2604 H 235.645 -5.36338 4.13123 0
M  V30 2605 H 240.287 -3.90511 1.62051 0
M  V30 2606 H 238.005 -5.75995 5.66794 0
M  V30 2607 H 241.591 -4.55541 3.61903 0
M  V30 2608 H 240.471 -5.47287 5.61646 0
M  V30 2609 N 237.974 -0.419461 -1.51915 0
M  V30 2610 C 239.223 0.154346 -2.01109 0
M  V30 2611 C 239.536 1.45338 -1.30905 0
M  V30 2612 O 240.742 2.10906 -1.7097 0
M  V30 2613 C 239.198 0.325615 -3.58424 0
M  V30 2614 C 238.806 -0.961934 -4.37551 0
M  V30 2615 C 240.55 0.854155 -4.15818 0
M  V30 2616 C 238.457 -0.757287 -5.86531 0
M  V30 2617 H 237.387 0.0614563 -0.751491 0
M  V30 2618 H 240.038 -0.54649 -1.75173 0
M  V30 2619 H 238.42 1.08903 -3.80731 0
M  V30 2620 H 239.594 -1.7323 -4.26999 0
M  V30 2621 H 237.909 -1.41766 -3.91524 0
M  V30 2622 H 240.506 1.02346 -5.24814 0
M  V30 2623 H 240.849 1.83172 -3.73837 0
M  V30 2624 H 241.382 0.149528 -3.97519 0
M  V30 2625 H 238.121 -1.70671 -6.32892 0
M  V30 2626 H 237.641 -0.0264061 -5.99794 0
M  V30 2627 H 239.32 -0.403482 -6.45741 0
M  V30 2628 N 239.452 1.56882 -0.150215 0
M  V30 2629 C 240.863 1.82995 0.370076 0
M  V30 2630 C 241.214 1.06907 1.64515 0
M  V30 2631 O 240.339 0.315369 2.1409 0
M  V30 2632 C 240.934 3.31942 0.678208 0
M  V30 2633 C 239.493 3.58625 1.14301 0
M  V30 2634 C 238.64 2.76792 0.167778 0
M  V30 2635 H 241.591 1.54209 -0.374858 0
M  V30 2636 H 241.612 3.48272 1.53254 0
M  V30 2637 H 241.124 3.87294 -0.249991 0
M  V30 2638 H 239.225 3.08664 2.08704 0
M  V30 2639 H 239.338 4.67073 1.06676 0
M  V30 2640 H 237.702 2.45972 0.661037 0
M  V30 2641 H 238.485 3.34916 -0.754069 0
M  V30 2642 N 240.93 -0.123565 1.57115 0
M  V30 2643 C 241.893 -1.13583 1.99076 0
M  V30 2644 C 242.893 -1.34564 0.880296 0
M  V30 2645 O 244.083 -1.31158 1.14644 0
M  V30 2646 C 241.215 -2.49128 2.32698 0
M  V30 2647 H 242.408 -0.775287 2.89706 0
M  V30 2648 H 239.961 -0.36771 1.51913 0
M  V30 2649 H 240.696 -2.90111 1.44934 0
M  V30 2650 H 240.481 -2.35255 3.13684 0
M  V30 2651 H 241.971 -3.2199 2.65918 0
M  V30 2652 N 242.408 -1.52605 -0.393616 0
M  V30 2653 C 243.338 -1.80022 -1.48709 0
M  V30 2654 C 244.319 -0.651995 -1.57108 0
M  V30 2655 O 245.504 -0.89913 -1.72132 0
M  V30 2656 C 242.634 -1.96492 -2.86371 0
M  V30 2657 C 241.588 -3.12161 -2.92813 0
M  V30 2658 C 240.914 -3.13877 -4.3288 0
M  V30 2659 C 242.214 -4.51322 -2.6288 0
M  V30 2660 H 243.908 -2.71589 -1.26015 0
M  V30 2661 H 241.454 -1.30684 -0.604778 0
M  V30 2662 H 243.407 -2.14255 -3.62867 0
M  V30 2663 H 242.131 -1.01611 -3.10391 0
M  V30 2664 H 240.79 -2.94173 -2.18764 0
M  V30 2665 H 240.438 -2.16687 -4.53933 0
M  V30 2666 H 240.138 -3.91576 -4.38112 0
M  V30 2667 H 241.662 -3.33789 -5.1129 0
M  V30 2668 H 243.076 -4.69435 -3.29096 0
M  V30 2669 H 241.473 -5.31053 -2.79468 0
M  V30 2670 H 242.543 -4.58353 -1.58242 0
M  V30 2671 N 243.887 0.651787 -1.4349 0
M  V30 2672 C 244.817 1.77621 -1.51569 0
M  V30 2673 C 245.798 1.66022 -0.370253 0
M  V30 2674 O 246.983 1.85095 -0.587658 0
M  V30 2675 C 244.113 3.16056 -1.43966 0
M  V30 2676 C 243.067 3.4242 -2.56774 0
M  V30 2677 C 242.393 4.8067 -2.34223 0
M  V30 2678 C 243.693 3.37023 -3.99015 0
M  V30 2679 H 245.387 1.71117 -2.45681 0
M  V30 2680 H 242.933 0.821825 -1.18246 0
M  V30 2681 H 244.886 3.94472 -1.48221 0
M  V30 2682 H 243.61 3.23293 -0.463586 0
M  V30 2683 H 242.269 2.66375 -2.51873 0
M  V30 2684 H 241.917 4.84585 -1.34856 0
M  V30 2685 H 241.617 4.9927 -3.09844 0
M  V30 2686 H 243.141 5.61342 -2.40265 0
M  V30 2687 H 244.555 4.05374 -4.05395 0
M  V30 2688 H 242.952 3.67159 -4.74673 0
M  V30 2689 H 244.022 2.3518 -4.2405 0
M  V30 2690 N 245.365 1.30045 0.890287 0
M  V30 2691 C 246.295 1.18541 2.01172 0
M  V30 2692 C 247.276 0.0773356 1.69924 0
M  V30 2693 O 248.461 0.25845 1.92473 0
M  V30 2694 C 245.591 0.870941 3.36202 0
M  V30 2695 C 244.545 1.93637 3.81692 0
M  V30 2696 C 243.871 1.475 5.13953 0
M  V30 2697 C 245.171 3.34666 4.00994 0
M  V30 2698 H 246.865 2.12359 2.11054 0
M  V30 2699 H 244.411 1.02238 1.01407 0
M  V30 2700 H 246.364 0.777141 4.14172 0
M  V30 2701 H 245.088 -0.102926 3.26438 0
M  V30 2702 H 243.747 2.01972 3.05946 0
M  V30 2703 H 243.395 0.489551 5.00612 0
M  V30 2704 H 243.095 2.1876 5.4536 0
M  V30 2705 H 244.619 1.39489 5.94454 0
M  V30 2706 H 246.033 3.2912 4.69417 0
M  V30 2707 H 244.43 4.03966 4.43769 0
M  V30 2708 H 245.5 3.76949 3.05021 0
M  V30 2709 N 246.843 -1.10192 1.12674 0
M  V30 2710 C 248.071 -1.85983 0.906527 0
M  V30 2711 C 248.486 -1.80783 -0.544333 0
M  V30 2712 O 247.843 -1.19834 -1.37645 0
M  V30 2713 C 247.894 -3.34281 1.37618 0
M  V30 2714 O 247.615 -3.39401 2.77017 0
M  V30 2715 C 249.116 -4.26938 1.19325 0
M  V30 2716 H 246.336 -0.587716 0.323775 0
M  V30 2717 H 248.88 -1.39284 1.49734 0
M  V30 2718 H 247.035 -3.78436 0.828539 0
M  V30 2719 H 247.449 -4.31838 2.97684 0
M  V30 2720 H 248.923 -5.29181 1.57071 0
M  V30 2721 H 249.4 -4.38995 0.134097 0
M  V30 2722 H 250.006 -3.8859 1.72852 0
M  V30 2723 N 248.321 -0.919034 -1.28029 0
M  V30 2724 C 249.57 -0.550802 -1.94034 0
M  V30 2725 C 249.883 0.910877 -1.73096 0
M  V30 2726 O 251.089 1.3875 -2.33368 0
M  V30 2727 C 249.545 -0.934249 -3.47563 0
M  V30 2728 C 249.153 -2.41602 -3.7727 0
M  V30 2729 C 250.897 -0.636854 -4.19696 0
M  V30 2730 C 248.804 -2.73932 -5.24133 0
M  V30 2731 H 247.734 -0.202273 -0.726362 0
M  V30 2732 H 250.385 -1.11867 -1.45458 0
M  V30 2733 H 248.767 -0.295115 -3.94899 0
M  V30 2734 H 249.941 -3.10233 -3.40723 0
M  V30 2735 H 248.256 -2.68441 -3.18321 0
M  V30 2736 H 250.853 -0.855005 -5.2782 0
M  V30 2737 H 251.196 0.425575 -4.14119 0
M  V30 2738 H 251.729 -1.23469 -3.78154 0
M  V30 2739 H 248.468 -3.79049 -5.34792 0
M  V30 2740 H 247.988 -2.09942 -5.61858 0
M  V30 2741 H 249.667 -2.61215 -5.91925 0
M  V30 2742 N 249.799 1.42003 -0.683588 0
M  V30 2743 C 251.21 1.84501 -0.285736 0
M  V30 2744 C 251.561 1.57213 1.17382 0
M  V30 2745 O 250.686 1.03642 1.89966 0
M  V30 2746 C 251.281 3.34912 -0.511821 0
M  V30 2747 C 249.84 3.76025 -0.168005 0
M  V30 2748 C 248.987 2.6551 -0.799983 0
M  V30 2749 H 251.938 1.31724 -0.885119 0
M  V30 2750 H 251.959 3.79784 0.233292 0
M  V30 2751 H 251.471 3.54741 -1.57418 0
M  V30 2752 H 249.572 3.61801 0.890567 0
M  V30 2753 H 249.685 4.75141 -0.614661 0
M  V30 2754 H 248.049 2.53654 -0.230568 0
M  V30 2755 H 248.832 2.8816 -1.86597 0
M  V30 2756 N 251.277 0.427512 1.51691 0
M  V30 2757 C 252.554 -0.201684 1.94557 0
M  V30 2758 C 252.934 -1.60981 1.36559 0
M  V30 2759 O 252.282 -2.21814 0.548702 0
M  V30 2760 C 252.492 -0.189394 3.48486 0
M  V30 2761 C 253.84 -0.39978 4.22714 0
M  V30 2762 O 254.864 -0.267945 3.55191 0
M  V30 2763 O 253.723 -0.661249 5.42485 0
M  V30 2764 H 250.817 -0.135261 0.815864 0
M  V30 2765 H 253.363 0.484782 1.62628 0
M  V30 2766 H 252.135 0.795431 3.8313 0
M  V30 2767 H 251.758 -0.919187 3.86829 0
M  V30 2768 N 252.755 -1.56801 0.158532 0
M  V30 2769 C 254.002 -1.9649 -0.489679 0
M  V30 2770 C 254.33 -1.04394 -1.6411 0
M  V30 2771 O 253.585 -0.0754401 -1.95555 0
M  V30 2772 C 253.884 -3.4235 -1.02623 0
M  V30 2773 C 253.55 -4.50899 0.00794526 0
M  V30 2774 C 252.212 -4.80312 0.292207 0
M  V30 2775 C 254.564 -5.16333 0.710584 0
M  V30 2776 C 251.892 -5.72461 1.28472 0
M  V30 2777 C 254.244 -6.09553 1.69199 0
M  V30 2778 C 252.908 -6.37339 1.98383 0
M  V30 2779 H 252.178 -0.719009 -0.179186 0
M  V30 2780 H 254.825 -1.8989 0.247798 0
M  V30 2781 H 253.13 -3.45838 -1.84128 0
M  V30 2782 H 254.827 -3.70393 -1.53656 0
M  V30 2783 H 251.417 -4.28015 -0.22379 0
M  V30 2784 H 255.601 -4.93732 0.504174 0
M  V30 2785 H 250.857 -5.92278 1.51714 0
M  V30 2786 H 255.031 -6.59327 2.24189 0
M  V30 2787 H 252.658 -7.08546 2.7544 0
M  V30 2788 N 254.233 0.115231 -1.57178 0
M  V30 2789 C 255.482 0.820945 -1.84237 0
M  V30 2790 C 255.795 1.80866 -0.744761 0
M  V30 2791 O 257.001 2.56083 -0.901871 0
M  V30 2792 C 255.457 1.51072 -3.26658 0
M  V30 2793 C 255.065 0.563795 -4.44438 0
M  V30 2794 C 256.809 2.20134 -3.62962 0
M  V30 2795 C 254.716 1.25701 -5.77887 0
M  V30 2796 H 253.646 0.310328 -0.687177 0
M  V30 2797 H 256.297 0.0737134 -1.83352 0
M  V30 2798 H 254.679 2.30471 -3.22024 0
M  V30 2799 H 255.853 -0.197247 -4.60378 0
M  V30 2800 H 254.168 -0.0200638 -4.16395 0
M  V30 2801 H 256.765 2.72696 -4.59936 0
M  V30 2802 H 257.108 2.98107 -2.90582 0
M  V30 2803 H 257.641 1.47619 -3.69396 0
M  V30 2804 H 254.38 0.518493 -6.53446 0
M  V30 2805 H 253.9 1.98997 -5.65827 0
M  V30 2806 H 255.579 1.78915 -6.2177 0
M  V30 2807 N 255.711 1.52812 0.385517 0
M  V30 2808 C 256.958 1.68026 1.1302 0
M  V30 2809 C 257.286 0.421934 1.89868 0
M  V30 2810 O 256.541 -0.595749 1.86412 0
M  V30 2811 C 256.84 2.86856 2.13187 0
M  V30 2812 C 256.506 4.24159 1.5297 0
M  V30 2813 C 255.168 4.61501 1.36274 0
M  V30 2814 C 257.52 5.09627 1.09223 0
M  V30 2815 C 254.848 5.81966 0.743837 0
M  V30 2816 C 257.2 6.30719 0.487411 0
M  V30 2817 C 255.864 6.6679 0.307777 0
M  V30 2818 H 255.134 0.614849 0.413571 0
M  V30 2819 H 257.781 1.86962 0.414405 0
M  V30 2820 H 256.086 2.6235 2.90998 0
M  V30 2821 H 257.783 2.95821 2.70722 0
M  V30 2822 H 254.373 3.94746 1.66954 0
M  V30 2823 H 258.557 4.81343 1.20922 0
M  V30 2824 H 253.813 6.08519 0.592891 0
M  V30 2825 H 257.987 6.96259 0.140143 0
M  V30 2826 H 255.614 7.60001 -0.173879 0
M  V30 2827 N 257.189 -0.644168 1.43834 0
M  V30 2828 C 258.152 -1.73857 1.49353 0
M  V30 2829 C 259.152 -1.56315 0.377112 0
M  V30 2830 O 260.342 -1.62048 0.639226 0
M  V30 2831 C 257.474 -3.12819 1.35488 0
M  V30 2832 H 258.667 -1.70342 2.46827 0
M  V30 2833 H 256.22 -0.856652 1.30733 0
M  V30 2834 H 256.955 -3.2194 0.390569 0
M  V30 2835 H 256.74 -3.26958 2.16428 0
M  V30 2836 H 258.23 -3.92606 1.42302 0
M  V30 2837 N 258.668 -1.30515 -0.883378 0
M  V30 2838 C 259.616 -1.16941 -2.01066 0
M  V30 2839 C 260.61 -0.0809148 -1.69207 0
M  V30 2840 O 261.816 -0.241877 -1.78367 0
M  V30 2841 H 258.191 -0.361705 -0.659298 0
M  V30 2842 H 260.162 -2.12344 -2.09649 0
M  V30 2843 C 258.911 -0.879694 -3.36388 0
M  V30 2844 H 258.234 -1.70936 -3.61415 0
M  V30 2845 H 259.674 -0.82483 -4.159 0
M  V30 2846 C 258.133 0.417409 -3.34304 0
M  V30 2847 O 258.663 1.43843 -3.75063 0
M  V30 2848 N 256.869 0.429141 -2.87414 0
M  V30 2849 H 256.416 -0.402222 -2.5444 0
M  V30 2850 H 256.374 1.29696 -2.86403 0
M  V30 2851 N 260.146 1.09593 -1.13257 0
M  V30 2852 C 261.392 1.82003 -0.89458 0
M  V30 2853 C 261.725 1.85402 0.577906 0
M  V30 2854 O 261 1.32099 1.42759 0
M  V30 2855 C 261.283 3.28237 -1.48096 0
M  V30 2856 C 261.136 3.3312 -3.02244 0
M  V30 2857 C 262.455 4.24871 -1.14774 0
M  V30 2858 H 259.574 0.66077 -0.326424 0
M  V30 2859 H 262.216 1.28389 -1.40058 0
M  V30 2860 H 260.366 3.74024 -1.05062 0
M  V30 2861 H 262.038 2.95748 -3.54021 0
M  V30 2862 H 260.281 2.72756 -3.37323 0
M  V30 2863 H 260.952 4.3613 -3.38371 0
M  V30 2864 H 263.428 3.87361 -1.51957 0
M  V30 2865 H 262.304 5.25532 -1.58452 0
M  V30 2866 H 262.565 4.42058 -0.0611849 0
M  V30 2867 N 261.624 0.925811 1.2754 0
M  V30 2868 C 262.849 0.580924 1.99098 0
M  V30 2869 C 263.274 -0.833555 1.68622 0
M  V30 2870 O 262.632 -1.55903 0.925422 0
M  V30 2871 C 262.68 0.811186 3.51358 0
M  V30 2872 O 261.784 -0.124129 4.12213 0
M  V30 2873 H 261.125 0.223873 0.625122 0
M  V30 2874 H 263.655 1.24455 1.62395 0
M  V30 2875 H 263.665 0.72601 4.01489 0
M  V30 2876 H 262.34 1.84227 3.72872 0
M  V30 2877 H 260.917 0.0108006 3.72898 0
M  V30 2878 N 263.102 -1.41638 0.69111 0
M  V30 2879 C 264.012 -2.34588 0.0233487 0
M  V30 2880 C 265.028 -1.55987 -0.770984 0
M  V30 2881 O 266.204 -1.88486 -0.709569 0
M  V30 2882 C 263.269 -3.34684 -0.904851 0
M  V30 2883 C 262.33 -4.29176 -0.103225 0
M  V30 2884 C 261.563 -5.2449 -0.987216 0
M  V30 2885 O 261.786 -5.2514 -2.22674 0
M  V30 2886 O 260.72 -6.00295 -0.439281 0
M  V30 2887 H 264.546 -2.93261 0.789416 0
M  V30 2888 H 262.131 -1.42417 0.45142 0
M  V30 2889 H 264.013 -3.96133 -1.43724 0
M  V30 2890 H 262.688 -2.78461 -1.65049 0
M  V30 2891 H 261.595 -3.71089 0.473655 0
M  V30 2892 H 262.928 -4.88484 0.60365 0
M  V30 2893 N 264.58 -0.43555 -1.51462 0
M  V30 2894 C 265.543 0.365137 -2.26273 0
M  V30 2895 C 266.543 0.951227 -1.29647 0
M  V30 2896 O 267.733 0.825958 -1.53374 0
M  V30 2897 C 264.865 1.51645 -3.05314 0
M  V30 2898 H 266.058 -0.290474 -2.9849 0
M  V30 2899 H 263.611 -0.188676 -1.55157 0
M  V30 2900 H 264.346 2.20816 -2.3751 0
M  V30 2901 H 264.131 1.10238 -3.76284 0
M  V30 2902 H 265.621 2.08218 -3.61987 0
M  V30 2903 N 266.058 1.56714 -0.166846 0
M  V30 2904 C 267.335 1.88412 0.525373 0
M  V30 2905 C 267.715 1.07602 1.81618 0
M  V30 2906 O 267.063 0.168621 2.27877 0
M  V30 2907 C 267.273 3.40363 0.771613 0
M  V30 2908 C 268.621 4.10007 1.1036 0
M  V30 2909 O 269.645 3.45655 0.860304 0
M  V30 2910 O 268.504 5.2369 1.56239 0
M  V30 2911 H 265.598 0.781587 0.270278 0
M  V30 2912 H 268.144 1.68458 -0.204946 0
M  V30 2913 H 266.916 3.91046 -0.141093 0
M  V30 2914 H 266.539 3.65914 1.55541 0
M  V30 2915 N 267.536 -0.106894 1.57237 0
M  V30 2916 C 268.813 -0.843526 1.76477 0
M  V30 2917 C 269.193 -1.97499 0.745464 0
M  V30 2918 O 268.541 -2.27357 -0.228306 0
M  V30 2919 C 268.751 -1.34903 3.21873 0
M  V30 2920 C 270.099 -1.79654 3.8472 0
M  V30 2921 O 271.123 -1.44554 3.2555 0
M  V30 2922 O 269.982 -2.44515 4.88748 0
M  V30 2923 H 267.076 -0.401468 0.723016 0
M  V30 2924 H 269.622 -0.0896927 1.69463 0
M  V30 2925 H 268.394 -0.53781 3.87586 0
M  V30 2926 H 268.017 -2.16522 3.33473 0
M  V30 2927 N 269.014 -1.53014 -0.377408 0
M  V30 2928 C 270.43 -1.42523 -0.718281 0
M  V30 2929 C 270.63 -0.55487 -1.9371 0
M  V30 2930 O 269.686 -0.0327593 -2.52479 0
M  V30 2931 C 270.999 -2.85546 -0.942539 0
M  V30 2932 C 272.547 -2.95101 -1.04329 0
M  V30 2933 C 273.022 -4.3916 -1.3001 0
M  V30 2934 N 274.513 -4.42536 -1.36806 0
M  V30 2935 C 275.248 -5.51097 -1.58364 0
M  V30 2936 N 274.744 -6.69724 -1.77317 0
M  V30 2937 N 276.537 -5.38657 -1.60638 0
M  V30 2938 H 268.688 -2.08116 0.424426 0
M  V30 2939 H 270.951 -0.939352 0.127759 0
M  V30 2940 H 270.657 -3.51499 -0.118929 0
M  V30 2941 H 270.531 -3.28493 -1.85397 0
M  V30 2942 H 272.918 -2.29309 -1.85745 0
M  V30 2943 H 272.999 -2.55566 -0.109505 0
M  V30 2944 H 272.643 -5.05521 -0.490991 0
M  V30 2945 H 272.573 -4.76258 -2.24691 0
M  V30 2946 H 275.064 -3.57039 -1.23821 0
M  V30 2947 H 275.377 -7.48233 -1.93306 0
M  V30 2948 H 273.722 -6.72732 -1.74518 0
M  V30 2949 H 276.913 -4.44948 -1.45391 0
M  V30 2950 H 277.086 -6.2333 -1.77098 0
M  V30 2951 N 270.492 0.636531 -1.44174 0
M  V30 2952 C 271.722 1.42146 -1.49927 0
M  V30 2953 C 272.13 1.88812 -0.121063 0
M  V30 2954 O 271.473 1.61126 0.882267 0
M  V30 2955 C 271.535 2.67883 -2.39748 0
M  V30 2956 C 271.199 2.43048 -3.8701 0
M  V30 2957 C 272.196 2.05216 -4.77684 0
M  V30 2958 C 269.881 2.56856 -4.3166 0
M  V30 2959 C 271.875 1.81512 -6.11009 0
M  V30 2960 C 269.562 2.32766 -5.65034 0
M  V30 2961 C 270.56 1.95152 -6.54526 0
M  V30 2962 O 270.248 1.71326 -7.85431 0
M  V30 2963 H 269.98 0.442567 -0.51099 0
M  V30 2964 H 272.534 0.786158 -1.8976 0
M  V30 2965 H 270.764 3.34032 -1.94832 0
M  V30 2966 H 272.453 3.29874 -2.36513 0
M  V30 2967 H 273.219 1.94111 -4.44462 0
M  V30 2968 H 269.098 2.85104 -3.62266 0
M  V30 2969 H 272.642 1.52077 -6.80822 0
M  V30 2970 H 268.539 2.43479 -5.97819 0
M  V30 2971 H 269.307 1.85616 -7.97176 0
M  V30 2972 N 271.97 1.30982 0.876444 0
M  V30 2973 C 273.219 1.19658 1.62373 0
M  V30 2974 C 273.532 -0.245636 1.94052 0
M  V30 2975 O 274.738 -0.48049 2.67214 0
M  V30 2976 C 273.194 2.09433 2.92687 0
M  V30 2977 C 272.802 3.58613 2.68516 0
M  V30 2978 C 274.546 2.06893 3.70669 0
M  V30 2979 C 272.453 4.40416 3.94699 0
M  V30 2980 H 271.383 0.444268 0.609214 0
M  V30 2981 H 274.034 1.55791 0.969605 0
M  V30 2982 H 272.416 1.66191 3.59439 0
M  V30 2983 H 273.59 4.10058 2.10212 0
M  V30 2984 H 271.905 3.63063 2.03898 0
M  V30 2985 H 274.502 2.65258 4.64265 0
M  V30 2986 H 274.845 1.05448 4.02724 0
M  V30 2987 H 275.378 2.48301 3.10792 0
M  V30 2988 H 272.117 5.42591 3.67798 0
M  V30 2989 H 271.637 3.93731 4.52477 0
M  V30 2990 H 273.316 4.52294 4.62644 0
M  V30 2991 N 273.449 -1.08991 1.13837 0
M  V30 2992 C 274.689 -1.82867 0.913183 0
M  V30 2993 C 275.053 -1.83936 -0.550604 0
M  V30 2994 O 276.254 -2.53515 -0.893515 0
M  V30 2995 C 274.525 -3.24843 1.49036 0
M  V30 2996 S 276.084 -4.15669 1.40588 0
M  V30 2997 H 272.902 -0.630278 0.329046 0
M  V30 2998 H 275.504 -1.31049 1.45073 0
M  V30 2999 H 274.208 -3.21644 2.54899 0
M  V30 3000 H 273.739 -3.81734 0.950947 0
M  V30 3001 H 275.754 -4.94686 0.387353 0
M  V30 3002 N 274.927 -0.932562 -1.27047 0
M  V30 3003 C 276.204 -0.49377 -1.89265 0
M  V30 3004 C 276.584 1.02833 -1.8436 0
M  V30 3005 O 275.932 1.88461 -1.29209 0
M  V30 3006 C 276.142 -1.04536 -3.32976 0
M  V30 3007 C 277.49 -1.10879 -4.09867 0
M  V30 3008 O 278.514 -0.995327 -3.42011 0
M  V30 3009 O 277.373 -1.28417 -5.31198 0
M  V30 3010 H 274.467 -0.159596 -0.811454 0
M  V30 3011 H 277.013 -1.02457 -1.3528 0
M  V30 3012 H 275.785 -2.08913 -3.30864 0
M  V30 3013 H 275.408 -0.496494 -3.94488 0
M  V30 3014 N 276.405 1.4127 -0.698611 0
M  V30 3015 C 277.821 1.55241 -0.370462 0
M  V30 3016 C 278.021 1.67351 1.12231 0
M  V30 3017 O 277.077 1.65363 1.90818 0
M  V30 3018 C 278.39 2.78997 -1.12165 0
M  V30 3019 C 279.938 2.92797 -1.1063 0
M  V30 3020 C 280.413 4.19445 -1.8393 0
M  V30 3021 N 281.904 4.26409 -1.80914 0
M  V30 3022 C 282.639 5.23271 -2.34467 0
M  V30 3023 N 282.135 6.26145 -2.96504 0
M  V30 3024 N 283.928 5.15232 -2.24706 0
M  V30 3025 H 276.079 1.31654 -1.66676 0
M  V30 3026 H 278.342 0.635393 -0.703548 0
M  V30 3027 H 278.048 2.76268 -2.17644 0
M  V30 3028 H 277.922 3.70606 -0.702209 0
M  V30 3029 H 280.309 2.95039 -0.0597713 0
M  V30 3030 H 280.39 2.02353 -1.56483 0
M  V30 3031 H 280.034 4.17964 -2.88563 0
M  V30 3032 H 279.964 5.08866 -1.35509 0
M  V30 3033 H 282.455 3.527 -1.35687 0
M  V30 3034 H 282.768 6.96451 -3.34927 0
M  V30 3035 H 281.113 6.26638 -3.00583 0
M  V30 3036 H 284.304 4.33789 -1.7591 0
M  V30 3037 H 284.477 5.90552 -2.66745 0
M  V30 3038 N 277.883 0.443576 1.51229 0
M  V30 3039 C 279.13 -0.120796 2.02139 0
M  V30 3040 C 279.458 -1.42166 1.32736 0
M  V30 3041 O 278.713 -1.90849 0.43301 0
M  V30 3042 C 279.012 -0.380579 3.55368 0
M  V30 3043 C 278.678 0.83523 4.43097 0
M  V30 3044 C 277.34 1.16864 4.66794 0
M  V30 3045 C 279.692 1.64601 4.94526 0
M  V30 3046 C 277.02 2.31339 5.39165 0
M  V30 3047 C 279.372 2.78181 5.68153 0
M  V30 3048 C 278.036 3.11969 5.90112 0
M  V30 3049 H 277.306 -0.0442023 0.73968 0
M  V30 3050 H 279.953 0.592046 1.82118 0
M  V30 3051 H 278.258 -1.17538 3.73754 0
M  V30 3052 H 279.955 -0.830777 3.923 0
M  V30 3053 H 276.545 0.565437 4.24854 0
M  V30 3054 H 280.729 1.40163 4.76097 0
M  V30 3055 H 275.985 2.57823 5.5438 0
M  V30 3056 H 280.159 3.41371 6.06992 0
M  V30 3057 H 277.786 4.00784 6.45969 0
M  V30 3058 N 279.361 -1.56624 0.175154 0
M  V30 3059 C 280.591 -2.01082 -0.474283 0
M  V30 3060 C 280.999 -1.05447 -1.57091 0
M  V30 3061 O 280.342 -0.0480595 -1.83637 0
M  V30 3062 C 280.404 -3.41963 -1.10911 0
M  V30 3063 C 280.068 -4.56742 -0.153666 0
M  V30 3064 C 281.065 -5.16076 0.629448 0
M  V30 3065 C 278.75 -5.02277 -0.0483776 0
M  V30 3066 C 280.744 -6.19377 1.50501 0
M  V30 3067 C 278.431 -6.05427 0.830768 0
M  V30 3068 C 279.429 -6.63849 1.60605 0
M  V30 3069 O 279.117 -7.64998 2.47049 0
M  V30 3070 H 278.849 -0.664261 -0.125432 0
M  V30 3071 H 281.403 -2.03549 0.275163 0
M  V30 3072 H 279.633 -3.36422 -1.90676 0
M  V30 3073 H 281.322 -3.70352 -1.66114 0
M  V30 3074 H 282.088 -4.81776 0.558297 0
M  V30 3075 H 277.967 -4.56513 -0.641611 0
M  V30 3076 H 281.511 -6.64906 2.1106 0
M  V30 3077 H 277.408 -6.39151 0.903107 0
M  V30 3078 H 278.176 -7.82336 2.40607 0
M  V30 3079 N 280.839 0.0985539 -1.57292 0
M  V30 3080 C 282.25 0.653457 -1.74891 0
M  V30 3081 C 282.601 1.7929 -0.796838 0
M  V30 3082 O 281.726 2.16385 0.0254886 0
M  V30 3083 C 282.321 1.19216 -3.17133 0
M  V30 3084 C 280.88 1.69316 -3.36168 0
M  V30 3085 C 280.027 0.601294 -2.70702 0
M  V30 3086 H 282.978 -0.127497 -1.58187 0
M  V30 3087 H 282.999 2.06154 -3.19814 0
M  V30 3088 H 282.511 0.362635 -3.86402 0
M  V30 3089 H 280.612 2.5468 -2.71972 0
M  V30 3090 H 280.725 1.78853 -4.44464 0
M  V30 3091 H 279.089 1.0399 -2.32504 0
M  V30 3092 H 279.872 -0.217592 -3.4261 0
M  V30 3093 N 282.317 1.53212 0.369288 0
M  V30 3094 C 283.265 1.80054 1.47253 0
M  V30 3095 C 284.259 0.669456 1.55611 0
M  V30 3096 O 285.465 0.852328 1.58541 0
M  V30 3097 H 281.84 0.570034 0.490475 0
M  V30 3098 H 283.811 2.72403 1.21817 0
M  V30 3099 C 282.56 2.00403 2.84137 0
M  V30 3100 H 281.883 2.86876 2.78464 0
M  V30 3101 H 283.323 2.23164 3.60519 0
M  V30 3102 C 281.782 0.782081 3.27697 0
M  V30 3103 O 282.312 -0.0310205 4.01688 0
M  V30 3104 N 280.518 0.606573 2.84199 0
M  V30 3105 H 280.065 1.26939 2.24152 0
M  V30 3106 H 280.023 -0.20962 3.137 0
M  V30 3107 N 283.795 -0.628877 1.44509 0
M  V30 3108 C 285.072 -1.38733 1.37886 0
M  V30 3109 C 285.452 -2.11065 0.0387008 0
M  V30 3110 O 284.8 -2.06476 -0.97878 0
M  V30 3111 C 285.01 -2.35188 2.57852 0
M  V30 3112 C 286.358 -2.9845 3.02014 0
M  V30 3113 O 287.382 -2.45513 2.58073 0
M  V30 3114 O 286.241 -3.94487 3.78209 0
M  V30 3115 H 283.335 -0.621015 0.54614 0
M  V30 3116 H 285.881 -0.653744 1.56602 0
M  V30 3117 H 284.653 -1.80855 3.46998 0
M  V30 3118 H 284.276 -3.1596 2.4136 0
M  V30 3119 N 285.273 -1.31445 -0.869486 0
M  V30 3120 C 286.203 -1.21727 -1.99261 0
M  V30 3121 C 287.184 -0.104359 -1.6978 0
M  V30 3122 O 288.369 -0.289038 -1.92037 0
M  V30 3123 C 285.499 -0.924317 -3.34774 0
M  V30 3124 C 284.453 -1.99685 -3.78563 0
M  V30 3125 C 283.779 -1.55658 -5.11541 0
M  V30 3126 C 285.079 -3.41003 -3.95619 0
M  V30 3127 H 286.773 -2.1569 -2.07649 0
M  V30 3128 H 284.319 -1.03839 -0.997675 0
M  V30 3129 H 286.272 -0.842934 -4.12883 0
M  V30 3130 H 284.996 0.0509793 -3.2656 0
M  V30 3131 H 283.655 -2.06813 -3.02694 0
M  V30 3132 H 283.303 -0.569132 -4.9977 0
M  V30 3133 H 283.003 -2.27409 -5.41811 0
M  V30 3134 H 284.527 -1.48928 -5.92159 0
M  V30 3135 H 285.941 -3.36547 -4.64122 0
M  V30 3136 H 284.338 -4.10975 -4.37286 0
M  V30 3137 H 285.408 -3.81754 -2.98985 0
M  V30 3138 N 286.751 1.08385 -1.14413 0
M  V30 3139 C 287.997 1.81212 -0.923793 0
M  V30 3140 C 288.352 1.84555 0.543814 0
M  V30 3141 O 287.645 1.31056 1.39767 0
M  V30 3142 C 287.839 3.26273 -1.45879 0
M  V30 3143 C 287.668 3.37063 -2.97689 0
M  V30 3144 C 286.438 3.4824 -3.66138 0
M  V30 3145 C 288.636 3.28698 -3.95553 0
M  V30 3146 N 286.618 3.47824 -5.05858 0
M  V30 3147 C 287.989 3.35276 -5.21527 0
M  V30 3148 C 290.044 3.12437 -3.8767 0
M  V30 3149 C 288.747 3.27267 -6.40538 0
M  V30 3150 C 290.773 3.05757 -5.06228 0
M  V30 3151 C 290.135 3.12938 -6.3107 0
M  V30 3152 H 286.234 0.6769 -0.391574 0
M  V30 3153 H 288.818 1.29455 -1.45429 0
M  V30 3154 H 286.989 3.76474 -0.95507 0
M  V30 3155 H 288.721 3.87165 -1.17835 0
M  V30 3156 H 285.476 3.52141 -3.16692 0
M  V30 3157 H 285.9 3.51171 -5.78798 0
M  V30 3158 H 290.542 3.05747 -2.92025 0
M  V30 3159 H 288.26 3.32718 -7.36427 0
M  V30 3160 H 291.846 2.94295 -5.01878 0
M  V30 3161 H 290.726 3.078 -7.21269 0
M  V30 3162 N 288.23 0.939286 1.26551 0
M  V30 3163 C 289.476 0.586715 1.94128 0
M  V30 3164 C 289.809 -0.8717 1.73537 0
M  V30 3165 O 289.084 -1.62339 1.07127 0
M  V30 3166 C 289.367 0.927497 3.4795 0
M  V30 3167 C 289.22 2.44052 3.77834 0
M  V30 3168 C 290.539 0.441569 4.37879 0
M  V30 3169 H 287.658 0.21463 0.705055 0
M  V30 3170 H 290.3 1.17316 1.49455 0
M  V30 3171 H 288.45 0.428431 3.8613 0
M  V30 3172 H 290.122 3.01216 3.4938 0
M  V30 3173 H 288.365 2.8848 3.23978 0
M  V30 3174 H 289.036 2.62947 4.85348 0
M  V30 3175 H 291.512 0.869448 4.06915 0
M  V30 3176 H 290.388 0.708856 5.44304 0
M  V30 3177 H 290.649 -0.658467 4.37169 0
M  V30 3178 N 289.708 -1.40897 0.706093 0
M  V30 3179 C 290.954 -2.01352 0.241889 0
M  V30 3180 C 291.287 -1.55832 -1.15888 0
M  V30 3181 O 290.562 -0.774145 -1.7843 0
M  V30 3182 C 290.845 -3.58752 0.311311 0
M  V30 3183 C 290.698 -4.1437 1.74978 0
M  V30 3184 C 292.017 -4.38914 -0.322922 0
M  V30 3185 H 289.136 -0.731562 0.0893687 0
M  V30 3186 H 291.778 -1.67504 0.896802 0
M  V30 3187 H 289.928 -3.87718 -0.246302 0
M  V30 3188 H 291.6 -3.96239 2.36205 0
M  V30 3189 H 289.843 -3.69016 2.28057 0
M  V30 3190 H 290.514 -5.23532 1.74981 0
M  V30 3191 H 292.99 -4.15822 0.152089 0
M  V30 3192 H 291.866 -5.48358 -0.243855 0
M  V30 3193 H 292.127 -4.19176 -1.40513 0
M  V30 3194 N 291.186 -0.45159 -1.50991 0
M  V30 3195 C 292.432 0.110237 -2.025 0
M  V30 3196 C 292.765 1.41109 -1.33424 0
M  V30 3197 O 292.04 1.89135 -0.453659 0
M  V30 3198 C 292.323 0.314271 -3.58726 0
M  V30 3199 C 292.176 -1.00623 -4.38401 0
M  V30 3200 C 293.495 1.07767 -4.26702 0
M  V30 3201 H 290.614 0.0385897 -0.735989 0
M  V30 3202 H 293.256 -0.593374 -1.80497 0
M  V30 3203 H 291.406 0.913601 -3.77605 0
M  V30 3204 H 293.078 -1.64064 -4.31139 0
M  V30 3205 H 291.321 -1.6075 -4.02917 0
M  V30 3206 H 291.992 -0.817341 -5.45915 0
M  V30 3207 H 294.468 0.56986 -4.12179 0
M  V30 3208 H 293.344 1.18921 -5.35863 0
M  V30 3209 H 293.605 2.10939 -3.88532 0
M  V30 3210 N 292.664 1.56529 -0.183458 0
M  V30 3211 C 293.911 1.97244 0.458357 0
M  V30 3212 C 294.239 1.06992 1.62428 0
M  V30 3213 O 293.494 0.106542 1.9541 0
M  V30 3214 C 293.793 3.43939 0.971637 0
M  V30 3215 C 293.459 4.5083 -0.0796784 0
M  V30 3216 C 292.121 4.79786 -0.368584 0
M  V30 3217 C 294.473 5.15138 -0.792638 0
M  V30 3218 C 291.801 5.70345 -1.37563 0
M  V30 3219 C 294.153 6.06784 -1.78875 0
M  V30 3220 C 292.817 6.34102 -2.08497 0
M  V30 3221 H 292.087 0.721768 0.167725 0
M  V30 3222 H 294.734 1.89472 -0.277976 0
M  V30 3223 H 293.039 3.48724 1.78602 0
M  V30 3224 H 294.736 3.72791 1.47744 0
M  V30 3225 H 291.326 4.28317 0.155668 0
M  V30 3226 H 295.51 4.92868 -0.582659 0
M  V30 3227 H 290.766 5.89789 -1.61118 0
M  V30 3228 H 294.94 6.55677 -2.3465 0
M  V30 3229 H 292.567 7.04074 -2.86678 0
M  V30 3230 N 294.142 -0.090211 1.57342 0
M  V30 3231 C 295.074 -1.13541 1.99101 0
M  V30 3232 C 296.087 -1.3604 0.894258 0
M  V30 3233 O 297.276 -1.34606 1.17233 0
M  V30 3234 C 294.376 -2.49001 2.29895 0
M  V30 3235 C 293.549 -2.46712 3.61182 0
M  V30 3236 C 292.608 -3.64136 3.79857 0
M  V30 3237 O 291.634 -3.46405 4.51655 0
M  V30 3238 N 292.836 -4.83802 3.20806 0
M  V30 3239 H 295.601 -0.779942 2.89373 0
M  V30 3240 H 293.162 -0.279125 1.59476 0
M  V30 3241 H 295.154 -3.26166 2.39578 0
M  V30 3242 H 293.724 -2.76619 1.45605 0
M  V30 3243 H 292.944 -1.55058 3.62423 0
M  V30 3244 H 294.232 -2.42265 4.4742 0
M  V30 3245 H 293.63 -5.01112 2.62494 0
M  V30 3246 H 292.187 -5.58543 3.35966 0
M  V30 3247 N 295.62 -1.53406 -0.361157 0
M  V30 3248 C 296.867 -1.69802 -1.10333 0
M  V30 3249 C 297.195 -0.452087 -1.89173 0
M  V30 3250 O 296.45 0.566017 -1.87336 0
M  V30 3251 C 296.749 -2.90211 -2.08596 0
M  V30 3252 C 296.415 -4.26539 -1.46203 0
M  V30 3253 C 295.077 -4.6361 -1.28915 0
M  V30 3254 C 297.429 -5.113 -1.01101 0
M  V30 3255 C 294.757 -5.83075 -0.651157 0
M  V30 3256 C 297.109 -6.31415 -0.387007 0
M  V30 3257 C 295.773 -6.67195 -0.201657 0
M  V30 3258 H 295.043 -0.621351 -0.403737 0
M  V30 3259 H 297.69 -1.87598 -0.384609 0
M  V30 3260 H 295.995 -2.66946 -2.86788 0
M  V30 3261 H 297.692 -3.00091 -2.65982 0
M  V30 3262 H 294.282 -3.97352 -1.60653 0
M  V30 3263 H 298.466 -4.83206 -1.13249 0
M  V30 3264 H 293.722 -6.09385 -0.496006 0
M  V30 3265 H 297.896 -6.96394 -0.0293563 0
M  V30 3266 H 295.523 -7.59628 0.294766 0
M  V30 3267 N 297.098 0.621204 -1.44841 0
M  V30 3268 C 298.03 1.74615 -1.48466 0
M  V30 3269 C 299.043 1.58377 -0.37691 0
M  V30 3270 O 300.232 1.66508 -0.643215 0
M  V30 3271 C 297.332 3.12459 -1.31236 0
M  V30 3272 C 296.505 3.55064 -2.55438 0
M  V30 3273 C 295.564 4.71821 -2.32963 0
M  V30 3274 O 294.59 4.79628 -3.06505 0
M  V30 3275 N 295.792 5.64186 -1.36654 0
M  V30 3276 H 298.557 1.71973 -2.45449 0
M  V30 3277 H 296.118 0.806077 -1.40407 0
M  V30 3278 H 298.11 3.88302 -1.14032 0
M  V30 3279 H 296.68 3.09686 -0.4258 0
M  V30 3280 H 295.9 2.69324 -2.87851 0
M  V30 3281 H 297.188 3.80284 -3.38026 0
M  V30 3282 H 296.586 5.6058 -0.759344 0
M  V30 3283 H 295.143 6.39618 -1.25425 0
M  V30 3284 N 298.576 1.31904 0.862503 0
M  V30 3285 C 299.526 1.16772 1.95827 0
M  V30 3286 C 300.51 0.0767098 1.60717 0
M  V30 3287 O 301.702 0.302407 1.74398 0
M  V30 3288 C 298.831 0.884858 3.317 0
M  V30 3289 C 297.917 2.0172 3.73055 0
M  V30 3290 N 298.308 3.265 3.86305 0
M  V30 3291 C 296.606 1.91861 4.02623 0
M  V30 3292 C 297.307 4.00616 4.2176 0
M  V30 3293 N 296.283 3.28847 4.32852 0
M  V30 3294 H 300.085 2.11382 2.04193 0
M  V30 3295 H 297.599 1.2357 1.05377 0
M  V30 3296 H 299.596 0.757419 4.09962 0
M  V30 3297 H 298.256 -0.0529448 3.24657 0
M  V30 3298 H 299.267 3.61529 3.70833 0
M  V30 3299 H 295.944 1.05593 4.03926 0
M  V30 3300 H 297.334 5.08182 4.39546 0
M  V30 3301 N 300.054 -1.07777 1.14986 0
M  V30 3302 C 301.303 -1.79669 0.916617 0
M  V30 3303 C 301.616 -1.87474 -0.557917 0
M  V30 3304 O 302.822 -2.55845 -0.908617 0
M  V30 3305 C 301.278 -3.22848 1.59051 0
M  V30 3306 C 300.886 -3.23257 3.10176 0
M  V30 3307 C 302.63 -3.99379 1.43864 0
M  V30 3308 C 300.537 -4.61063 3.70372 0
M  V30 3309 H 299.467 -0.673349 0.33929 0
M  V30 3310 H 302.118 -1.21003 1.37951 0
M  V30 3311 H 300.5 -3.8168 1.0553 0
M  V30 3312 H 301.674 -2.74095 3.70417 0
M  V30 3313 H 299.989 -2.60222 3.25074 0
M  V30 3314 H 302.586 -5.0122 1.86232 0
M  V30 3315 H 302.929 -4.14511 0.385564 0
M  V30 3316 H 303.462 -3.47032 1.94457 0
M  V30 3317 H 300.201 -4.51135 4.7556 0
M  V30 3318 H 299.721 -5.1048 3.14913 0
M  V30 3319 H 301.4 -5.30034 3.71043 0
M  V30 3320 N 301.532 -0.945985 -1.26051 0
M  V30 3321 C 302.465 -0.403619 -2.24602 0
M  V30 3322 C 303.443 0.510241 -1.54387 0
M  V30 3323 O 304.627 0.446593 -1.83133 0
M  V30 3324 C 301.754 0.419564 -3.36091 0
M  V30 3325 C 300.8 -0.433454 -4.24292 0
M  V30 3326 S 301.633 -1.86037 -5.02146 0
M  V30 3327 C 302.789 -1.04538 -6.17108 0
M  V30 3328 H 303.022 -1.23883 -2.7026 0
M  V30 3329 H 300.555 -0.749438 -1.34992 0
M  V30 3330 H 302.513 0.888595 -4.00767 0
M  V30 3331 H 301.174 1.22951 -2.89036 0
M  V30 3332 H 300.367 0.197486 -5.03613 0
M  V30 3333 H 299.969 -0.837357 -3.64506 0
M  V30 3334 H 302.261 -0.289923 -6.76879 0
M  V30 3335 H 303.204 -1.81222 -6.84518 0
M  V30 3336 H 303.612 -0.579319 -5.61519 0
M  V30 3337 N 303.011 1.40521 -0.713556 0
M  V30 3338 C 304.257 2.01221 -0.252564 0
M  V30 3339 C 304.59 1.56444 1.1506 0
M  V30 3340 O 303.865 0.783597 1.78017 0
M  V30 3341 C 304.148 3.58582 -0.330332 0
M  V30 3342 C 304.001 4.13437 -1.77173 0
M  V30 3343 C 305.32 4.39079 0.299641 0
M  V30 3344 H 302.439 0.731077 -0.0932471 0
M  V30 3345 H 305.081 1.67026 -0.905673 0
M  V30 3346 H 303.231 3.87844 0.225737 0
M  V30 3347 H 304.903 3.9498 -2.38303 0
M  V30 3348 H 303.146 3.67801 -2.3001 0
M  V30 3349 H 303.817 5.22597 -1.77755 0
M  V30 3350 H 306.293 4.15735 -0.174139 0
M  V30 3351 H 305.169 5.4848 0.214771 0
M  V30 3352 H 305.43 4.19915 1.38288 0
M  V30 3353 N 304.489 0.459591 1.5075 0
M  V30 3354 C 305.737 -0.0991532 2.01857 0
M  V30 3355 C 306.058 -1.41247 1.34441 0
M  V30 3356 O 305.328 -1.89775 0.486022 0
M  V30 3357 H 303.908 -0.039633 0.745948 0
M  V30 3358 H 306.57 0.607387 1.85194 0
M  V30 3359 H 305.666 -0.258998 3.11023 0
M  V30 3360 N 305.967 -1.56429 0.191757 0
M  V30 3361 C 306.897 -2.21937 -0.725696 0
M  V30 3362 C 307.878 -1.1814 -1.2238 0
M  V30 3363 O 309.063 -1.46636 -1.27325 0
M  V30 3364 C 306.193 -2.87611 -1.94672 0
M  V30 3365 C 305.147 -3.97623 -1.58366 0
M  V30 3366 C 304.473 -4.50446 -2.88102 0
M  V30 3367 C 305.773 -5.16197 -0.796133 0
M  V30 3368 H 307.467 -2.98861 -0.179606 0
M  V30 3369 H 305.013 -1.43749 -0.0849464 0
M  V30 3370 H 306.966 -3.3212 -2.59373 0
M  V30 3371 H 305.69 -2.08087 -2.51728 0
M  V30 3372 H 304.349 -3.53801 -0.960247 0
M  V30 3373 H 303.997 -3.67688 -3.43241 0
M  V30 3374 H 303.697 -5.24675 -2.64556 0
M  V30 3375 H 305.221 -4.97654 -3.53798 0
M  V30 3376 H 306.635 -5.57271 -1.34618 0
M  V30 3377 H 305.032 -5.96471 -0.658928 0
M  V30 3378 H 306.102 -4.84473 0.203478 0
M  V30 3379 N 307.445 0.0818655 -1.57387 0
M  V30 3380 C 308.694 0.781681 -1.85937 0
M  V30 3381 C 309.007 1.79246 -0.782957 0
M  V30 3382 O 310.213 2.54112 -0.955987 0
M  V30 3383 C 308.669 1.44109 -3.29789 0
M  V30 3384 C 308.277 0.469396 -4.45534 0
M  V30 3385 C 310.021 2.12386 -3.67549 0
M  V30 3386 C 307.928 1.13415 -5.80423 0
M  V30 3387 H 306.858 0.295682 -0.693605 0
M  V30 3388 H 309.509 0.0348051 -1.83467 0
M  V30 3389 H 307.891 2.23588 -3.2684 0
M  V30 3390 H 309.065 -0.294856 -4.59856 0
M  V30 3391 H 307.38 -0.108383 -4.16259 0
M  V30 3392 H 309.977 2.62878 -4.65617 0
M  V30 3393 H 310.32 2.91877 -2.96839 0
M  V30 3394 H 310.853 1.39751 -3.72444 0
M  V30 3395 H 307.592 0.379771 -6.54399 0
M  V30 3396 H 307.112 1.8695 -5.69921 0
M  V30 3397 H 308.791 1.65686 -6.25426 0
M  V30 3398 N 308.923 1.53595 0.353017 0
M  V30 3399 C 309.853 1.83902 1.43883 0
M  V30 3400 C 310.834 0.693421 1.55324 0
M  V30 3401 O 312.019 0.944452 1.69687 0
M  V30 3402 C 309.149 2.04016 2.8106 0
M  V30 3403 C 308.103 3.19814 2.84434 0
M  V30 3404 C 307.429 3.25244 4.24406 0
M  V30 3405 C 308.729 4.58133 2.50822 0
M  V30 3406 H 310.423 2.74835 1.1877 0
M  V30 3407 H 307.969 1.32242 0.569917 0
M  V30 3408 H 309.922 2.238 3.57059 0
M  V30 3409 H 308.646 1.09804 3.07588 0
M  V30 3410 H 307.305 2.9987 2.10887 0
M  V30 3411 H 306.953 2.28646 4.48029 0
M  V30 3412 H 306.653 4.03054 4.27576 0
M  V30 3413 H 308.177 3.47228 5.0226 0
M  V30 3414 H 309.591 4.77995 3.16534 0
M  V30 3415 H 307.988 5.38276 2.6529 0
M  V30 3416 H 309.058 4.62387 1.46034 0
M  V30 3417 N 310.401 -0.613514 1.45168 0
M  V30 3418 C 311.812 -1.19539 1.43413 0
M  V30 3419 C 312.163 -1.95558 0.158632 0
M  V30 3420 O 311.288 -2.0335 -0.740119 0
M  V30 3421 C 311.883 -2.17445 2.59813 0
M  V30 3422 C 310.442 -2.71022 2.61197 0
M  V30 3423 C 309.589 -1.46323 2.35552 0
M  V30 3424 H 312.54 -0.403163 1.53494 0
M  V30 3425 H 312.561 -3.00373 2.33574 0
M  V30 3426 H 312.073 -1.62089 3.52631 0
M  V30 3427 H 310.174 -3.30332 1.7237 0
M  V30 3428 H 310.287 -3.15859 3.60236 0
M  V30 3429 H 308.651 -1.75072 1.84992 0
M  V30 3430 H 309.434 -0.92844 3.30507 0
M  V30 3431 N 311.879 -1.3236 -0.855495 0
M  V30 3432 C 313.127 -1.22629 -1.60644 0
M  V30 3433 C 313.448 0.212136 -1.93843 0
M  V30 3434 O 312.718 1.13666 -1.59552 0
M  V30 3435 H 311.298 -0.450882 -0.595579 0
M  V30 3436 H 313.96 -1.65871 -1.02337 0
M  V30 3437 H 313.056 -1.80832 -2.54374 0
M  V30 3438 N 313.357 1.07166 -1.15556 0
M  V30 3439 C 314.606 1.79181 -0.926132 0
M  V30 3440 C 314.919 1.87768 0.547967 0
M  V30 3441 O 316.125 2.56323 0.895036 0
M  V30 3442 C 314.581 3.22 -1.60761 0
M  V30 3443 C 314.189 3.21607 -3.11886 0
M  V30 3444 C 315.933 3.9861 -1.4598 0
M  V30 3445 C 313.84 4.59092 -3.72812 0
M  V30 3446 H 312.77 0.67154 -0.342856 0
M  V30 3447 H 315.421 1.2027 -1.3859 0
M  V30 3448 H 313.803 3.81115 -1.07553 0
M  V30 3449 H 314.977 2.72127 -3.71865 0
M  V30 3450 H 313.292 2.58495 -3.2645 0
M  V30 3451 H 315.889 5.00225 -1.88888 0
M  V30 3452 H 316.232 4.143 -0.407541 0
M  V30 3453 H 316.765 3.45996 -1.96295 0
M  V30 3454 H 313.504 4.48606 -4.77946 0
M  V30 3455 H 313.024 5.08803 -3.17616 0
M  V30 3456 H 314.703 5.28059 -3.73848 0
M  V30 3457 N 314.835 0.952656 1.25548 0
M  V30 3458 C 316.081 0.607272 1.93494 0
M  V30 3459 C 316.414 -0.853245 1.74452 0
M  V30 3460 O 315.689 -1.61194 1.08843 0
M  V30 3461 C 315.972 0.96435 3.46947 0
M  V30 3462 C 315.825 2.48045 3.75225 0
M  V30 3463 C 317.144 0.487987 4.37386 0
M  V30 3464 H 314.263 0.222096 0.702739 0
M  V30 3465 H 316.905 1.18895 1.48203 0
M  V30 3466 H 315.055 0.469361 3.85654 0
M  V30 3467 H 316.727 3.04905 3.46166 0
M  V30 3468 H 314.97 2.919 3.209 0
M  V30 3469 H 315.641 2.6808 4.82532 0
M  V30 3470 H 318.117 0.912558 4.0597 0
M  V30 3471 H 316.993 0.766547 5.43521 0
M  V30 3472 H 317.254 -0.612063 4.37843 0
M  V30 3473 N 316.313 -1.40141 0.720998 0
M  V30 3474 C 317.562 -2.0002 0.259804 0
M  V30 3475 C 317.875 -1.57839 -1.15526 0
M  V30 3476 O 319.081 -2.10455 -1.71525 0
M  V30 3477 C 317.537 -3.57516 0.413566 0
M  V30 3478 C 317.145 -4.08667 1.83562 0
M  V30 3479 C 318.889 -4.24498 0.0134387 0
M  V30 3480 C 316.796 -5.58686 1.93968 0
M  V30 3481 H 315.726 -0.748195 0.0933806 0
M  V30 3482 H 318.377 -1.60313 0.892866 0
M  V30 3483 H 316.759 -3.9495 -0.288169 0
M  V30 3484 H 317.933 -3.82598 2.56817 0
M  V30 3485 H 316.248 -3.543 2.1877 0
M  V30 3486 H 318.845 -5.34654 0.0703954 0
M  V30 3487 H 319.188 -4.03375 -1.02927 0
M  V30 3488 H 319.721 -3.92188 0.665815 0
M  V30 3489 H 316.46 -5.8467 2.96379 0
M  V30 3490 H 315.98 -5.86602 1.25131 0
M  V30 3491 H 317.659 -6.23875 1.71431 0
M  V30 3492 N 317.792 -0.46758 -1.50504 0
M  V30 3493 C 318.722 0.318381 -2.31319 0
M  V30 3494 C 319.703 0.993564 -1.38066 0
M  V30 3495 O 320.888 0.991411 -1.66987 0
M  V30 3496 C 318.018 1.40275 -3.17711 0
M  V30 3497 C 316.972 0.849373 -4.19487 0
M  V30 3498 C 316.298 2.03177 -4.94594 0
M  V30 3499 C 317.598 -0.136942 -5.2212 0
M  V30 3500 H 319.292 -0.356106 -2.97275 0
M  V30 3501 H 316.838 -0.172703 -1.42961 0
M  V30 3502 H 318.791 1.96004 -3.73042 0
M  V30 3503 H 317.515 2.10596 -2.49634 0
M  V30 3504 H 316.174 0.314076 -3.65252 0
M  V30 3505 H 315.822 2.72187 -4.22993 0
M  V30 3506 H 315.522 1.66774 -5.63436 0
M  V30 3507 H 317.046 2.59403 -5.52759 0
M  V30 3508 H 318.46 0.331056 -5.72343 0
M  V30 3509 H 316.857 -0.41507 -5.98663 0
M  V30 3510 H 317.927 -1.06398 -4.73083 0
M  V30 3511 N 319.27 1.56325 -0.20005 0
M  V30 3512 C 320.495 2.02548 0.44597 0
M  V30 3513 C 320.92 1.07922 1.5406 0
M  V30 3514 O 320.278 0.0635775 1.81188 0
M  V30 3515 C 320.326 3.47175 0.974761 0
M  V30 3516 O 319.43 3.55671 2.08739 0
M  V30 3517 H 318.771 0.655862 0.103638 0
M  V30 3518 H 321.301 2.02201 -0.312381 0
M  V30 3519 H 321.311 3.87067 1.2901 0
M  V30 3520 H 319.986 4.15538 0.17347 0
M  V30 3521 H 318.563 3.27657 1.78032 0
M  V30 3522 N 320.748 -0.0735177 1.57428 0
M  V30 3523 C 321.988 -0.778363 1.89 0
M  V30 3524 C 322.352 -1.7483 0.793634 0
M  V30 3525 O 323.553 -2.49811 0.992367 0
M  V30 3526 C 321.824 -1.46929 3.25802 0
M  V30 3527 S 323.383 -2.20943 3.79117 0
M  V30 3528 H 320.201 -0.258874 0.662197 0
M  V30 3529 H 322.803 -0.0345338 1.95469 0
M  V30 3530 H 321.507 -0.749532 4.03497 0
M  V30 3531 H 321.038 -2.25258 3.22525 0
M  V30 3532 H 323.053 -3.47435 3.54265 0
M  V30 3533 N 322.226 -1.5378 -0.344866 0
M  V30 3534 C 323.456 -1.74646 -1.10374 0
M  V30 3535 C 323.864 -0.48491 -1.8288 0
M  V30 3536 O 323.207 0.553062 -1.75177 0
M  V30 3537 C 323.269 -2.87145 -2.16306 0
M  V30 3538 C 322.933 -4.26795 -1.63386 0
M  V30 3539 C 323.93 -5.08412 -1.08688 0
M  V30 3540 C 321.615 -4.73276 -1.68272 0
M  V30 3541 C 323.609 -6.34609 -0.595792 0
M  V30 3542 C 321.296 -5.99446 -1.18776 0
M  V30 3543 C 322.294 -6.79946 -0.645215 0
M  V30 3544 O 321.982 -8.03745 -0.157626 0
M  V30 3545 H 321.714 -0.587112 -0.335075 0
M  V30 3546 H 324.268 -2.01403 -0.403252 0
M  V30 3547 H 322.498 -2.55909 -2.89909 0
M  V30 3548 H 324.187 -2.95992 -2.77747 0
M  V30 3549 H 324.953 -4.73666 -1.04236 0
M  V30 3550 H 320.832 -4.10677 -2.09442 0
M  V30 3551 H 324.376 -6.97389 -0.171654 0
M  V30 3552 H 320.273 -6.33687 -1.22928 0
M  V30 3553 H 321.041 -8.18038 -0.275037 0
M  V30 3554 N 323.704 0.605807 -1.45491 0
M  V30 3555 C 324.944 1.37606 -1.51142 0
M  V30 3556 C 325.308 1.91413 -0.150075 0
M  V30 3557 O 326.509 2.68677 -0.0812828 0
M  V30 3558 C 324.78 2.49197 -2.56195 0
M  V30 3559 S 326.339 3.36953 -2.81083 0
M  V30 3560 H 323.157 0.469118 -0.534275 0
M  V30 3561 H 325.759 0.698845 -1.82583 0
M  V30 3562 H 324.463 2.0802 -3.53773 0
M  V30 3563 H 323.994 3.21717 -2.26411 0
M  V30 3564 H 326.009 4.47395 -2.14598 0
M  V30 3565 N 325.182 1.32811 0.848464 0
M  V30 3566 C 326.431 1.23075 1.59798 0
M  V30 3567 C 326.744 -0.204419 1.94529 0
M  V30 3568 O 327.95 -0.423701 2.68173 0
M  V30 3569 C 326.406 2.15594 2.88179 0
M  V30 3570 C 326.014 3.64228 2.60849 0
M  V30 3571 C 327.758 2.14709 3.66197 0
M  V30 3572 C 325.665 4.48689 3.85269 0
M  V30 3573 H 324.595 0.457091 0.599653 0
M  V30 3574 H 327.246 1.57813 0.936342 0
M  V30 3575 H 325.628 1.73778 3.55833 0
M  V30 3576 H 326.802 4.14424 2.01467 0
M  V30 3577 H 325.117 3.67306 1.96151 0
M  V30 3578 H 327.714 2.75046 4.58534 0
M  V30 3579 H 328.057 1.13966 4.00397 0
M  V30 3580 H 328.59 2.54837 3.05455 0
M  V30 3581 H 325.329 5.5027 3.56207 0
M  V30 3582 H 324.849 4.03241 4.44024 0
M  V30 3583 H 326.528 4.62006 4.52946 0
M  V30 3584 N 326.66 -1.06551 1.16123 0
M  V30 3585 C 327.909 -1.78687 0.935622 0
M  V30 3586 C 328.222 -1.88056 -0.538001 0
M  V30 3587 O 329.428 -2.56794 -0.88143 0
M  V30 3588 C 327.884 -3.21143 1.62466 0
M  V30 3589 C 327.492 -3.19949 3.13587 0
M  V30 3590 C 329.236 -3.9783 1.48092 0
M  V30 3591 C 327.143 -4.57108 3.75241 0
M  V30 3592 H 326.073 -0.669712 0.346412 0
M  V30 3593 H 328.724 -1.19534 1.39226 0
M  V30 3594 H 327.106 -3.80539 1.09572 0
M  V30 3595 H 328.28 -2.70151 3.73303 0
M  V30 3596 H 326.595 -2.5676 3.27816 0
M  V30 3597 H 329.192 -4.99217 1.91538 0
M  V30 3598 H 329.535 -4.14078 0.429507 0
M  V30 3599 H 330.068 -3.4495 1.98127 0
M  V30 3600 H 326.807 -4.46065 4.80319 0
M  V30 3601 H 326.327 -5.07111 3.20309 0
M  V30 3602 H 328.006 -5.26069 3.76644 0
M  V30 3603 N 328.138 -0.959301 -1.25041 0
M  V30 3604 C 329.387 -0.612254 -1.92183 0
M  V30 3605 C 329.7 0.855347 -1.75907 0
M  V30 3606 O 330.906 1.31256 -2.37664 0
M  V30 3607 C 329.362 -1.04435 -3.44414 0
M  V30 3608 C 328.97 -2.53482 -3.69393 0
M  V30 3609 C 330.714 -0.770055 -4.17457 0
M  V30 3610 C 328.621 -2.90468 -5.15153 0
M  V30 3611 H 327.551 -0.225279 -0.719559 0
M  V30 3612 H 330.202 -1.16438 -1.41825 0
M  V30 3613 H 328.584 -0.4206 -3.9376 0
M  V30 3614 H 329.758 -3.20916 -3.30681 0
M  V30 3615 H 328.073 -2.78432 -3.0962 0
M  V30 3616 H 330.67 -1.02249 -5.24832 0
M  V30 3617 H 331.013 0.293611 -4.15263 0
M  V30 3618 H 331.546 -1.35437 -3.74034 0
M  V30 3619 H 328.285 -3.95871 -5.22462 0
M  V30 3620 H 327.805 -2.27711 -5.54894 0
M  V30 3621 H 329.484 -2.79914 -5.83315 0
M  V30 3622 N 329.616 1.39756 -0.72842 0
M  V30 3623 C 330.841 2.05472 -0.282159 0
M  V30 3624 C 331.266 1.54549 1.07221 0
M  V30 3625 O 330.624 0.686372 1.67805 0
M  V30 3626 C 330.672 3.59462 -0.286264 0
M  V30 3627 O 329.776 4.05918 0.728298 0
M  V30 3628 H 329.117 0.651226 -0.129618 0
M  V30 3629 H 331.647 1.78915 -0.992499 0
M  V30 3630 H 331.657 4.07798 -0.128373 0
M  V30 3631 H 330.332 3.95889 -1.27456 0
M  V30 3632 H 328.909 3.69012 0.537081 0
M  V30 3633 N 331.094 0.475555 1.50254 0
M  V30 3634 C 332.041 -0.316293 2.28622 0
M  V30 3635 C 333.011 -0.983227 1.33873 0
M  V30 3636 O 334.196 -0.994805 1.62814 0
M  V30 3637 C 331.336 -1.38975 3.1588 0
M  V30 3638 C 330.449 -0.737146 4.25664 0
M  V30 3639 C 329.584 -1.78887 5.00173 0
M  V30 3640 C 328.623 -1.11676 6.01826 0
M  V30 3641 N 327.76 -2.11154 6.69596 0
M  V30 3642 H 332.6 0.358297 2.95838 0
M  V30 3643 H 330.137 0.188541 1.45887 0
M  V30 3644 H 332.095 -2.02383 3.64825 0
M  V30 3645 H 330.725 -2.03344 2.50701 0
M  V30 3646 H 329.777 0.0096065 3.80399 0
M  V30 3647 H 331.089 -0.206816 4.98371 0
M  V30 3648 H 330.243 -2.49865 5.52859 0
M  V30 3649 H 328.982 -2.35302 4.27182 0
M  V30 3650 H 327.987 -0.392633 5.48396 0
M  V30 3651 H 329.212 -0.55945 6.76792 0
M  V30 3652 H 327.158 -2.66577 5.99394 0
M  V30 3653 H 327.075 -1.63118 7.38193 0
M  V30 3654 H 328.343 -2.81497 7.26897 0
M  V30 3655 N 332.573 -1.56217 0.208337 0
M  V30 3656 C 333.503 -2.22694 -0.702116 0
M  V30 3657 C 334.484 -1.19432 -1.2112 0
M  V30 3658 O 335.669 -1.47978 -1.25762 0
M  V30 3659 C 332.799 -2.8966 -1.9161 0
M  V30 3660 C 331.753 -3.9928 -1.5414 0
M  V30 3661 C 331.079 -4.53476 -2.83308 0
M  V30 3662 C 332.379 -5.17012 -0.741339 0
M  V30 3663 H 334.073 -2.99034 -0.147898 0
M  V30 3664 H 331.619 -1.43831 -0.0696951 0
M  V30 3665 H 333.572 -3.34852 -2.55836 0
M  V30 3666 H 332.296 -2.10746 -2.49507 0
M  V30 3667 H 330.955 -3.54799 -0.922668 0
M  V30 3668 H 330.603 -3.71308 -3.39322 0
M  V30 3669 H 330.303 -5.27451 -2.58976 0
M  V30 3670 H 331.827 -5.01378 -3.485 0
M  V30 3671 H 333.241 -5.58667 -1.28699 0
M  V30 3672 H 331.638 -5.97137 -0.595627 0
M  V30 3673 H 332.708 -4.8423 0.254851 0
M  V30 3674 N 334.051 0.0651679 -1.57465 0
M  V30 3675 C 335.276 0.779605 -1.9219 0
M  V30 3676 C 335.701 1.69988 -0.805333 0
M  V30 3677 O 335.059 1.79685 0.241435 0
M  V30 3678 C 335.107 1.54364 -3.2589 0
M  V30 3679 O 334.211 2.65474 -3.1559 0
M  V30 3680 H 333.552 0.212249 -0.629163 0
M  V30 3681 H 336.082 0.0314294 -2.04576 0
M  V30 3682 H 336.092 1.92146 -3.59922 0
M  V30 3683 H 334.767 0.868457 -4.06732 0
M  V30 3684 H 333.344 2.30501 -2.93128 0
M  V30 3685 N 335.529 1.53961 0.336706 0
M  V30 3686 C 336.479 1.7881 1.41461 0
M  V30 3687 C 337.463 0.643561 1.47469 0
M  V30 3688 O 338.655 0.903166 1.52223 0
M  V30 3689 C 335.784 2.00722 2.78506 0
M  V30 3690 C 334.87 3.2126 2.76862 0
M  V30 3691 N 335.261 4.42588 2.44845 0
M  V30 3692 C 333.559 3.22568 3.08004 0
M  V30 3693 C 334.26 5.2447 2.51607 0
M  V30 3694 N 333.236 4.61344 2.87511 0
M  V30 3695 H 337.038 2.70205 1.15615 0
M  V30 3696 H 334.552 1.52978 0.545112 0
M  V30 3697 H 336.549 2.1666 3.5618 0
M  V30 3698 H 335.209 1.10573 3.05293 0
M  V30 3699 H 336.22 4.69819 2.17922 0
M  V30 3700 H 332.897 2.42409 3.39918 0
M  V30 3701 H 334.287 6.31324 2.29955 0
M  V30 3702 N 337.007 -0.598083 1.45811 0
M  V30 3703 C 338.232 -1.3881 1.54099 0
M  V30 3704 C 338.657 -1.8726 0.177578 0
M  V30 3705 O 338.015 -1.6069 -0.839541 0
M  V30 3706 C 338.063 -2.56217 2.53743 0
M  V30 3707 O 337.167 -3.5716 2.06182 0
M  V30 3708 H 336.508 -0.414024 0.519115 0
M  V30 3709 H 339.038 -0.726971 1.91249 0
M  V30 3710 H 339.048 -3.03337 2.72856 0
M  V30 3711 H 337.723 -2.20303 3.5276 0
M  V30 3712 H 336.3 -3.16624 1.96987 0
M  V30 3713 N 338.485 -1.33259 -0.841409 0
M  V30 3714 C 339.432 -1.23302 -1.95103 0
M  V30 3715 C 340.402 -0.112204 -1.65721 0
M  V30 3716 O 341.587 -0.290038 -1.88583 0
M  V30 3717 C 338.727 -0.975583 -3.31023 0
M  V30 3718 C 337.84 -2.18243 -3.72819 0
M  V30 3719 C 336.975 -1.85936 -4.97595 0
M  V30 3720 C 336.014 -3.02866 -5.3192 0
M  V30 3721 N 335.151 -2.70565 -6.47873 0
M  V30 3722 H 339.991 -2.18207 -2.02952 0
M  V30 3723 H 337.528 -1.0851 -0.993173 0
M  V30 3724 H 339.486 -0.80677 -4.09325 0
M  V30 3725 H 338.116 -0.0632755 -3.22738 0
M  V30 3726 H 337.168 -2.46107 -2.90061 0
M  V30 3727 H 338.48 -3.05666 -3.94169 0
M  V30 3728 H 337.634 -1.65684 -5.83638 0
M  V30 3729 H 336.373 -0.957452 -4.78209 0
M  V30 3730 H 335.378 -3.23736 -4.44382 0
M  V30 3731 H 336.603 -3.93809 -5.53255 0
M  V30 3732 H 334.549 -1.8293 -6.29978 0
M  V30 3733 H 334.466 -3.51519 -6.69306 0
M  V30 3734 H 335.734 -2.53774 -7.37034 0
M  V30 3735 N 339.963 1.05934 -1.16686 0
M  V30 3736 C 341.211 1.78447 -0.948744 0
M  V30 3737 C 341.532 1.87813 0.524523 0
M  V30 3738 O 340.802 1.38945 1.38098 0
M  V30 3739 H 339.382 0.660971 -0.348033 0
M  V30 3740 H 342.044 1.27947 -1.47022 0
M  V30 3741 H 341.14 2.80394 -1.37061 0
M  V30 3742 N 341.441 0.965919 1.2453 0
M  V30 3743 C 342.391 0.465731 2.23193 0
M  V30 3744 C 343.375 -0.451277 1.54442 0
M  V30 3745 O 344.567 -0.282489 1.74731 0
M  V30 3746 C 341.696 -0.244511 3.42428 0
M  V30 3747 C 340.782 0.691222 4.18429 0
M  V30 3748 N 341.173 1.82771 4.71623 0
M  V30 3749 C 339.471 0.501649 4.4317 0
M  V30 3750 C 340.172 2.41285 5.29298 0
M  V30 3751 N 339.148 1.69819 5.16394 0
M  V30 3752 H 342.95 1.33291 2.61937 0
M  V30 3753 H 340.464 0.824789 1.39896 0
M  V30 3754 H 342.461 -0.620056 4.12263 0
M  V30 3755 H 341.121 -1.10815 3.05205 0
M  V30 3756 H 342.132 2.20929 4.68413 0
M  V30 3757 H 338.809 -0.318177 4.16286 0
M  V30 3758 H 340.199 3.37181 5.8117 0
M  V30 3759 N 342.919 -1.39368 0.735821 0
M  V30 3760 C 343.851 -2.2913 0.0567723 0
M  V30 3761 C 344.864 -1.46859 -0.702589 0
M  V30 3762 O 346.053 -1.69925 -0.546616 0
M  V30 3763 C 343.153 -3.25492 -0.943823 0
M  V30 3764 C 342.326 -4.36709 -0.24581 0
M  V30 3765 C 341.385 -5.13376 -1.15463 0
M  V30 3766 O 340.411 -5.65683 -0.631803 0
M  V30 3767 N 341.613 -5.24656 -2.48427 0
M  V30 3768 H 344.378 -2.88047 0.827582 0
M  V30 3769 H 341.939 -1.50957 0.585112 0
M  V30 3770 H 343.931 -3.73657 -1.55443 0
M  V30 3771 H 342.501 -2.676 -1.61583 0
M  V30 3772 H 341.721 -3.9041 0.545286 0
M  V30 3773 H 343.009 -5.08244 0.237891 0
M  V30 3774 H 342.407 -4.83679 -2.93379 0
M  V30 3775 H 340.964 -5.76258 -3.04582 0
M  V30 3776 N 344.397 -0.483516 -1.5 0
M  V30 3777 C 345.344 0.304164 -2.28787 0
M  V30 3778 C 346.314 0.976114 -1.34392 0
M  V30 3779 O 347.499 0.986156 -1.63339 0
M  V30 3780 C 344.639 1.37298 -3.16612 0
M  V30 3781 C 343.752 0.714561 -4.26049 0
M  V30 3782 C 342.887 1.76232 -5.01114 0
M  V30 3783 C 341.926 1.08483 -6.0241 0
M  V30 3784 N 341.063 2.076 -6.70706 0
M  V30 3785 H 345.903 -0.373981 -2.95644 0
M  V30 3786 H 343.44 -0.196275 -1.45785 0
M  V30 3787 H 345.398 2.00445 -3.65893 0
M  V30 3788 H 344.028 2.02012 -2.51776 0
M  V30 3789 H 343.08 -0.0297798 -3.80388 0
M  V30 3790 H 344.392 0.180383 -4.98474 0
M  V30 3791 H 343.546 2.46929 -5.54176 0
M  V30 3792 H 342.285 2.33033 -4.28424 0
M  V30 3793 H 341.29 0.363545 -5.48597 0
M  V30 3794 H 342.515 0.523551 -6.77079 0
M  V30 3795 H 340.461 2.63394 -6.00799 0
M  V30 3796 H 340.378 1.59201 -7.39047 0
M  V30 3797 H 341.646 2.77639 -7.2838 0
M  V30 3798 N 345.875 1.56104 -0.216619 0
M  V30 3799 C 347.291 1.58995 0.13886 0
M  V30 3800 C 347.491 1.23333 1.59346 0
M  V30 3801 O 346.547 0.966234 2.33281 0
M  V30 3802 C 347.86 3.00143 -0.182968 0
M  V30 3803 C 349.408 3.12751 -0.124807 0
M  V30 3804 C 349.883 4.56068 -0.420241 0
M  V30 3805 N 351.374 4.61723 -0.369634 0
M  V30 3806 C 352.109 5.70542 -0.571789 0
M  V30 3807 N 351.605 6.87744 -0.835453 0
M  V30 3808 N 353.398 5.59831 -0.504563 0
M  V30 3809 H 345.549 1.77562 -1.16557 0
M  V30 3810 H 347.812 0.825091 -0.466828 0
M  V30 3811 H 347.518 3.30871 -1.19237 0
M  V30 3812 H 347.392 3.73813 0.504367 0
M  V30 3813 H 349.779 2.81822 0.875223 0
M  V30 3814 H 349.86 2.41421 -0.845544 0
M  V30 3815 H 349.504 4.87713 -1.41769 0
M  V30 3816 H 349.434 5.25617 0.321631 0
M  V30 3817 H 351.925 3.77502 -0.173338 0
M  V30 3818 H 352.238 7.66587 -0.977938 0
M  V30 3819 H 350.583 6.895 -0.872592 0
M  V30 3820 H 353.774 4.67145 -0.298842 0
M  V30 3821 H 353.947 6.44573 -0.665519 0
M  V30 3822 N 347.353 -0.0568162 1.57498 0
M  V30 3823 C 348.3 -1.06591 2.04712 0
M  V30 3824 C 349.27 -1.3758 0.930644 0
M  V30 3825 O 350.455 -1.48392 1.19935 0
M  V30 3826 C 347.595 -2.3701 2.50839 0
M  V30 3827 C 346.708 -2.12421 3.76167 0
M  V30 3828 C 345.843 -3.36511 4.11015 0
M  V30 3829 C 344.882 -3.07353 5.2934 0
M  V30 3830 N 344.019 -4.23816 5.59754 0
M  V30 3831 H 348.859 -0.65631 2.90683 0
M  V30 3832 H 346.396 -0.312481 1.43743 0
M  V30 3833 H 348.354 -3.13175 2.7564 0
M  V30 3834 H 346.984 -2.75744 1.67825 0
M  V30 3835 H 346.036 -1.2688 3.58616 0
M  V30 3836 H 347.348 -1.86894 4.62463 0
M  V30 3837 H 346.502 -4.21062 4.36797 0
M  V30 3838 H 345.241 -3.65128 3.23315 0
M  V30 3839 H 344.246 -2.212 5.03339 0
M  V30 3840 H 345.471 -2.80043 6.1867 0
M  V30 3841 H 343.417 -4.52436 4.75014 0
M  V30 3842 H 343.334 -4.01614 6.40501 0
M  V30 3843 H 344.602 -5.0932 5.90096 0
M  V30 3844 N 348.832 -1.54138 -0.328536 0
M  V30 3845 C 349.795 -1.82462 -1.38709 0
M  V30 3846 C 350.795 -0.696229 -1.44946 0
M  V30 3847 O 351.985 -0.964535 -1.4506 0
M  V30 3848 C 349.117 -1.98018 -2.77492 0
M  V30 3849 H 350.31 -2.77037 -1.14851 0
M  V30 3850 H 347.863 -1.45779 -0.563751 0
M  V30 3851 H 348.598 -1.05637 -3.06613 0
M  V30 3852 H 348.383 -2.80124 -2.74359 0
M  V30 3853 H 349.873 -2.21396 -3.54081 0
M  V30 3854 N 350.31 0.590341 -1.46126 0
M  V30 3855 C 351.24 1.71032 -1.58966 0
M  V30 3856 C 352.221 1.64302 -0.440335 0
M  V30 3857 O 353.406 1.82436 -0.665634 0
M  V30 3858 C 350.536 3.09665 -1.57241 0
M  V30 3859 C 349.49 3.31221 -2.71066 0
M  V30 3860 C 348.816 4.70303 -2.54399 0
M  V30 3861 C 350.116 3.19796 -4.1295 0
M  V30 3862 H 351.81 1.60543 -2.52718 0
M  V30 3863 H 349.356 0.770933 -1.21625 0
M  V30 3864 H 351.309 3.87831 -1.64819 0
M  V30 3865 H 350.033 3.21036 -0.600289 0
M  V30 3866 H 348.692 2.55452 -2.62944 0
M  V30 3867 H 348.34 4.78429 -1.55288 0
M  V30 3868 H 348.04 4.85679 -3.30741 0
M  V30 3869 H 349.564 5.50647 -2.63857 0
M  V30 3870 H 350.978 3.87815 -4.22223 0
M  V30 3871 H 349.375 3.46696 -4.89818 0
M  V30 3872 H 350.445 2.16983 -4.33643 0
M  V30 3873 N 351.788 1.33704 0.83433 0
M  V30 3874 C 352.735 1.24335 1.94447 0
M  V30 3875 C 353.705 0.120991 1.65659 0
M  V30 3876 O 354.89 0.300035 1.88426 0
M  V30 3877 C 352.03 0.993124 3.30501 0
M  V30 3878 C 351.143 2.20217 3.71657 0
M  V30 3879 C 350.278 1.88572 4.96602 0
M  V30 3880 C 349.317 3.05683 5.30306 0
M  V30 3881 N 348.454 2.73997 6.46429 0
M  V30 3882 H 353.294 2.1928 2.01792 0
M  V30 3883 H 350.831 1.09035 0.987404 0
M  V30 3884 H 352.789 0.828467 4.08892 0
M  V30 3885 H 351.419 0.0803902 3.227 0
M  V30 3886 H 350.471 2.47642 2.88752 0
M  V30 3887 H 351.783 3.07752 3.92543 0
M  V30 3888 H 350.937 1.68776 5.82752 0
M  V30 3889 H 349.676 0.982799 4.77695 0
M  V30 3890 H 348.681 3.26088 4.42659 0
M  V30 3891 H 349.906 3.96737 5.51159 0
M  V30 3892 H 347.852 1.86268 6.28999 0
M  V30 3893 H 347.769 3.55064 6.67432 0
M  V30 3894 H 349.037 2.57679 7.35678 0
M  V30 3895 N 353.266 -1.05314 1.17247 0
M  V30 3896 C 354.494 -1.81971 0.984593 0
M  V30 3897 C 354.909 -1.82929 -0.467166 0
M  V30 3898 O 354.266 -1.25564 -1.32438 0
M  V30 3899 C 354.317 -3.28143 1.51672 0
M  V30 3900 O 354.038 -3.27347 2.91163 0
M  V30 3901 C 355.539 -4.21493 1.37326 0
M  V30 3902 H 352.759 -0.573455 0.348411 0
M  V30 3903 H 355.303 -1.32808 1.55506 0
M  V30 3904 H 353.458 -3.74582 0.988302 0
M  V30 3905 H 353.872 -4.18824 3.15732 0
M  V30 3906 H 355.346 -5.22043 1.79375 0
M  V30 3907 H 355.823 -4.38031 0.320169 0
M  V30 3908 H 356.429 -3.80909 1.89178 0
M  V30 3909 N 354.744 -0.972509 -1.24016 0
M  V30 3910 C 355.972 -0.654803 -1.96265 0
M  V30 3911 C 356.387 0.776708 -1.72083 0
M  V30 3912 O 355.744 1.52171 -1.00748 0
M  V30 3913 C 355.795 -0.92592 -3.49441 0
M  V30 3914 O 355.516 -2.30116 -3.72798 0
M  V30 3915 C 357.017 -0.623068 -4.38899 0
M  V30 3916 H 354.237 -0.243907 -0.6251 0
M  V30 3917 H 356.781 -1.30175 -1.57717 0
M  V30 3918 H 354.936 -0.325108 -3.86033 0
M  V30 3919 H 355.35 -2.38483 -4.67147 0
M  V30 3920 H 356.824 -0.863189 -5.45209 0
M  V30 3921 H 357.301 0.442754 -4.36963 0
M  V30 3922 H 357.907 -1.204 -4.07902 0
M  V30 3923 N 356.222 1.38976 -0.743202 0
M  V30 3924 C 357.468 2.0064 -0.295189 0
M  V30 3925 C 357.801 1.5885 1.11716 0
M  V30 3926 O 357.076 0.821181 1.76315 0
M  V30 3927 C 357.359 3.578 -0.406318 0
M  V30 3928 C 357.212 4.09586 -1.85903 0
M  V30 3929 C 358.531 4.39616 0.206439 0
M  V30 3930 H 355.65 0.728935 -0.108733 0
M  V30 3931 H 358.292 1.65067 -0.940897 0
M  V30 3932 H 356.442 3.88235 0.143419 0
M  V30 3933 H 358.114 3.89837 -2.46627 0
M  V30 3934 H 356.357 3.6284 -2.3776 0
M  V30 3935 H 357.028 5.18708 -1.888 0
M  V30 3936 H 359.504 4.15273 -0.262283 0
M  V30 3937 H 358.38 5.48812 0.0983819 0
M  V30 3938 H 358.641 4.22754 1.2935 0
M  V30 3939 N 357.7 0.491464 1.49741 0
M  V30 3940 C 358.949 -0.0582189 2.01616 0
M  V30 3941 C 359.262 -1.38927 1.3769 0
M  V30 3942 O 360.468 -2.02509 1.80838 0
M  V30 3943 C 358.924 -0.154235 3.59569 0
M  V30 3944 C 358.532 1.1696 4.32463 0
M  V30 3945 C 360.276 -0.65479 4.1942 0
M  V30 3946 C 358.183 1.03627 5.8225 0
M  V30 3947 H 357.113 -0.0255317 0.753568 0
M  V30 3948 H 359.764 0.629445 1.72367 0
M  V30 3949 H 358.146 -0.906138 3.85493 0
M  V30 3950 H 359.32 1.93405 4.18248 0
M  V30 3951 H 357.635 1.60285 3.84315 0
M  V30 3952 H 360.232 -0.771903 5.29099 0
M  V30 3953 H 360.575 -1.65127 3.8215 0
M  V30 3954 H 361.108 0.040304 3.9778 0
M  V30 3955 H 357.847 2.00672 6.24028 0
M  V30 3956 H 357.367 0.312546 5.98985 0
M  V30 3957 H 359.046 0.711114 6.4308 0
M  V30 3958 N 359.178 -1.55987 0.224894 0
M  V30 3959 C 360.108 -2.23426 -0.678457 0
M  V30 3960 C 361.089 -1.20709 -1.19847 0
M  V30 3961 O 362.274 -1.49304 -1.24186 0
M  V30 3962 C 359.404 -2.91676 -1.88527 0
M  V30 3963 C 358.358 -4.00893 -1.49896 0
M  V30 3964 C 357.684 -4.56455 -2.78483 0
M  V30 3965 C 358.984 -5.17769 -0.686461 0
M  V30 3966 H 360.678 -2.99175 -0.116173 0
M  V30 3967 H 358.224 -1.43897 -0.054436 0
M  V30 3968 H 360.177 -3.37547 -2.5227 0
M  V30 3969 H 358.901 -2.1338 -2.47258 0
M  V30 3970 H 357.56 -3.55758 -0.884985 0
M  V30 3971 H 357.208 -3.74886 -3.35365 0
M  V30 3972 H 356.908 -5.30169 -2.53368 0
M  V30 3973 H 358.432 -5.05047 -3.43162 0
M  V30 3974 H 359.846 -5.60001 -1.22767 0
M  V30 3975 H 358.243 -5.97735 -0.532259 0
M  V30 3976 H 359.313 -4.83932 0.306196 0
M  V30 3977 N 360.656 0.0484629 -1.57525 0
M  V30 3978 C 361.905 0.742065 -1.87553 0
M  V30 3979 C 362.218 1.77545 -0.820802 0
M  V30 3980 O 363.424 2.52027 -1.00967 0
M  V30 3981 C 361.88 1.37081 -3.32771 0
M  V30 3982 C 361.488 0.374786 -4.4643 0
M  V30 3983 C 363.232 2.04542 -3.71972 0
M  V30 3984 C 361.139 1.01077 -5.82698 0
M  V30 3985 H 360.069 0.280903 -0.699721 0
M  V30 3986 H 362.72 -0.00411877 -1.835 0
M  V30 3987 H 361.102 2.16605 -3.31509 0
M  V30 3988 H 362.276 -0.392331 -4.59127 0
M  V30 3989 H 360.591 -0.196653 -4.15935 0
M  V30 3990 H 363.188 2.52943 -4.71088 0
M  V30 3991 H 363.531 2.85515 -3.02964 0
M  V30 3992 H 364.064 1.31819 -3.75325 0
M  V30 3993 H 360.803 0.240878 -6.55057 0
M  V30 3994 H 360.323 1.74819 -5.73758 0
M  V30 3995 H 362.002 1.52383 -6.28799 0
M  V30 3996 N 362.134 1.5431 0.320358 0
M  V30 3997 C 363.064 1.86912 1.3995 0
M  V30 3998 C 364.045 0.726211 1.53819 0
M  V30 3999 O 365.23 0.980233 1.67646 0
M  V30 4000 C 362.36 2.09932 2.7667 0
M  V30 4001 C 361.314 3.25776 2.77586 0
M  V30 4002 C 360.64 3.34173 4.17412 0
M  V30 4003 C 361.94 4.6335 2.41048 0
M  V30 4004 H 363.634 2.77292 1.12914 0
M  V30 4005 H 361.18 1.33421 0.541738 0
M  V30 4006 H 363.133 2.31324 3.52232 0
M  V30 4007 H 361.857 1.16304 3.0519 0
M  V30 4008 H 360.516 3.04276 2.04479 0
M  V30 4009 H 360.164 2.38098 4.43078 0
M  V30 4010 H 359.864 4.12033 4.18931 0
M  V30 4011 H 361.388 3.57803 4.94782 0
M  V30 4012 H 362.802 4.84602 3.06324 0
M  V30 4013 H 361.199 5.43782 2.53813 0
M  V30 4014 H 362.269 4.65381 1.36193 0
M  V30 4015 N 363.613 -0.582584 1.46437 0
M  V30 4016 C 364.576 -1.67366 1.56592 0
M  V30 4017 C 365.576 -1.54575 0.443072 0
M  V30 4018 O 366.766 -1.59191 0.707381 0
M  V30 4019 C 363.898 -3.06791 1.48634 0
M  V30 4020 H 365.091 -1.5972 2.5383 0
M  V30 4021 H 362.644 -0.800432 1.34249 0
M  V30 4022 H 363.379 -3.19993 0.526763 0
M  V30 4023 H 363.164 -3.17484 2.30101 0
M  V30 4024 H 364.654 -3.86218 1.58826 0
M  V30 4025 N 365.091 -1.34144 -0.827227 0
M  V30 4026 C 366.338 -1.26258 -1.58319 0
M  V30 4027 C 366.666 0.168595 -1.93768 0
M  V30 4028 O 365.921 1.12877 -1.59866 0
M  V30 4029 C 366.22 -2.09464 -2.89585 0
M  V30 4030 C 365.886 -3.58521 -2.73448 0
M  V30 4031 C 364.548 -3.99155 -2.68754 0
M  V30 4032 C 366.9 -4.53189 -2.57428 0
M  V30 4033 C 364.228 -5.32656 -2.45957 0
M  V30 4034 C 366.58 -5.86864 -2.36163 0
M  V30 4035 C 365.244 -6.26667 -2.29879 0
M  V30 4036 H 364.514 -0.462013 -0.579332 0
M  V30 4037 H 367.161 -1.65845 -0.95748 0
M  V30 4038 H 365.466 -1.62692 -3.56425 0
M  V30 4039 H 367.163 -2.00712 -3.47154 0
M  V30 4040 H 363.753 -3.26264 -2.77939 0
M  V30 4041 H 367.937 -4.22696 -2.60081 0
M  V30 4042 H 363.193 -5.62519 -2.39546 0
M  V30 4043 H 367.367 -6.59813 -2.22754 0
M  V30 4044 H 364.994 -7.30049 -2.11975 0
M  V30 4045 N 366.569 1.04691 -1.17803 0
M  V30 4046 C 367.816 1.77782 -0.969532 0
M  V30 4047 C 368.144 1.87926 0.501401 0
M  V30 4048 O 367.399 1.37918 1.38842 0
M  V30 4049 C 367.698 3.21467 -1.56186 0
M  V30 4050 C 367.364 3.3137 -3.05786 0
M  V30 4051 C 366.026 3.3378 -3.46619 0
M  V30 4052 C 368.378 3.31976 -4.01797 0
M  V30 4053 C 365.706 3.34431 -4.82051 0
M  V30 4054 C 368.058 3.34167 -5.37136 0
M  V30 4055 C 366.722 3.34866 -5.77426 0
M  V30 4056 H 365.992 0.650549 -0.354777 0
M  V30 4057 H 368.639 1.23006 -1.46772 0
M  V30 4058 H 366.944 3.79203 -0.985515 0
M  V30 4059 H 368.641 3.76652 -1.37602 0
M  V30 4060 H 365.231 3.3021 -2.73238 0
M  V30 4061 H 369.415 3.29311 -3.71306 0
M  V30 4062 H 364.671 3.33285 -5.12573 0
M  V30 4063 H 368.845 3.33585 -6.11305 0
M  V30 4064 H 366.472 3.35124 -6.82346 0
M  V30 4065 N 368.047 0.979072 1.23499 0
M  V30 4066 C 369.01 0.523244 2.23147 0
M  V30 4067 C 370.01 -0.386406 1.56088 0
M  V30 4068 O 371.2 -0.180283 1.73265 0
M  V30 4069 C 368.332 -0.240739 3.40049 0
M  V30 4070 H 369.525 1.40432 2.64989 0
M  V30 4071 H 367.078 0.764824 1.36309 0
M  V30 4072 H 367.813 -1.13841 3.03662 0
M  V30 4073 H 367.598 0.412207 3.89927 0
M  V30 4074 H 369.088 -0.548297 4.13985 0
M  V30 4075 N 369.525 -1.3858 0.750561 0
M  V30 4076 C 370.765 -2.02032 0.310258 0
M  V30 4077 C 371.129 -1.58288 -1.08668 0
M  V30 4078 O 372.33 -2.14049 -1.62593 0
M  V30 4079 C 370.601 -3.54856 0.425647 0
M  V30 4080 S 372.16 -4.38748 0.0674797 0
M  V30 4081 H 368.978 -0.700705 0.120554 0
M  V30 4082 H 371.58 -1.69134 0.980512 0
M  V30 4083 H 370.284 -3.84182 1.44335 0
M  V30 4084 H 369.815 -3.92527 -0.261894 0
M  V30 4085 H 371.83 -4.82835 -1.14388 0
M  V30 4086 N 371.003 -0.499398 -1.49478 0
M  V30 4087 C 372.249 0.0377587 -2.03365 0
M  V30 4088 C 372.604 1.3484 -1.37244 0
M  V30 4089 O 371.897 1.85 -0.498547 0
M  V30 4090 C 372.091 0.248424 -3.56536 0
M  V30 4091 C 371.92 -1.04025 -4.37503 0
M  V30 4092 C 370.69 -1.59159 -4.79579 0
M  V30 4093 C 372.888 -1.9431 -4.76181 0
M  V30 4094 N 370.87 -2.82634 -5.44969 0
M  V30 4095 C 372.241 -3.02364 -5.41272 0
M  V30 4096 C 374.296 -1.95008 -4.58123 0
M  V30 4097 C 372.999 -4.1114 -5.90217 0
M  V30 4098 C 375.025 -3.02758 -5.08027 0
M  V30 4099 C 374.387 -4.09531 -5.73118 0
M  V30 4100 H 370.486 -0.026923 -0.781536 0
M  V30 4101 H 373.07 -0.673901 -1.82665 0
M  V30 4102 H 371.241 0.929139 -3.77123 0
M  V30 4103 H 372.973 0.782445 -3.97064 0
M  V30 4104 H 369.728 -1.13696 -4.5975 0
M  V30 4105 H 370.152 -3.45416 -5.82252 0
M  V30 4106 H 374.794 -1.13766 -4.07207 0
M  V30 4107 H 372.512 -4.93181 -6.40155 0
M  V30 4108 H 376.098 -3.04315 -4.95866 0
M  V30 4109 H 374.978 -4.91534 -6.11035 0
M  V30 4110 N 372.481 1.55866 -0.233164 0
M  V30 4111 C 373.411 2.23783 0.666599 0
M  V30 4112 C 374.392 1.21343 1.19205 0
M  V30 4113 O 375.577 1.4996 1.23392 0
M  V30 4114 C 372.707 2.92671 1.86978 0
M  V30 4115 C 371.661 4.01682 1.47768 0
M  V30 4116 C 370.987 4.57926 2.76058 0
M  V30 4117 C 372.287 5.18126 0.658993 0
M  V30 4118 H 373.981 2.99232 0.100306 0
M  V30 4119 H 371.527 1.43924 0.046804 0
M  V30 4120 H 373.48 3.3888 2.50476 0
M  V30 4121 H 372.204 2.14688 2.46123 0
M  V30 4122 H 370.863 3.56222 0.866106 0
M  V30 4123 H 370.511 3.76659 3.33372 0
M  V30 4124 H 370.211 5.31505 2.50552 0
M  V30 4125 H 371.735 5.06859 3.40479 0
M  V30 4126 H 373.149 5.60644 1.19795 0
M  V30 4127 H 371.546 5.98009 0.500552 0
M  V30 4128 H 372.616 4.83763 -0.331856 0
M  V30 4129 N 373.959 -0.0401083 1.57549 0
M  V30 4130 C 375.37 -0.588097 1.77196 0
M  V30 4131 C 375.721 -1.76209 0.862832 0
M  V30 4132 O 374.846 -2.16331 0.0548389 0
M  V30 4133 C 375.441 -1.07363 3.21339 0
M  V30 4134 C 374 -1.56723 3.42221 0
M  V30 4135 C 373.147 -0.50041 2.72747 0
M  V30 4136 H 376.098 0.186119 1.57605 0
M  V30 4137 H 376.119 -1.94143 3.27244 0
M  V30 4138 H 375.631 -0.218975 3.87482 0
M  V30 4139 H 373.732 -2.4441 2.81237 0
M  V30 4140 H 373.845 -1.62234 4.50796 0
M  V30 4141 H 372.209 -0.952894 2.36203 0
M  V30 4142 H 372.992 0.344599 3.41566 0
M  V30 4143 N 375.437 -1.54477 -0.31217 0
M  V30 4144 C 376.667 -1.76948 -1.06645 0
M  V30 4145 C 377.075 -0.523593 -1.81811 0
M  V30 4146 O 376.418 0.51578 -1.76311 0
M  V30 4147 C 376.48 -2.91668 -2.10166 0
M  V30 4148 C 376.144 -4.30165 -1.54296 0
M  V30 4149 C 377.141 -5.10603 -0.978793 0
M  V30 4150 C 374.826 -4.76738 -1.58196 0
M  V30 4151 C 376.82 -6.3573 -0.461048 0
M  V30 4152 C 374.507 -6.01831 -1.06034 0
M  V30 4153 C 375.505 -6.81161 -0.500844 0
M  V30 4154 O 375.193 -8.03899 0.0128958 0
M  V30 4155 H 374.925 -0.594088 -0.322546 0
M  V30 4156 H 377.479 -2.02213 -0.360441 0
M  V30 4157 H 375.709 -2.62001 -2.84416 0
M  V30 4158 H 377.398 -3.01817 -2.71406 0
M  V30 4159 H 378.164 -4.75771 -0.941651 0
M  V30 4160 H 374.043 -4.15027 -2.00683 0
M  V30 4161 H 377.587 -6.97596 -0.0236894 0
M  V30 4162 H 373.484 -6.36152 -1.09459 0
M  V30 4163 H 374.252 -8.18437 -0.101457 0
M  V30 4164 N 376.915 0.57481 -1.46744 0
M  V30 4165 C 378.145 1.35659 -1.55821 0
M  V30 4166 C 378.553 1.88129 -0.201036 0
M  V30 4167 O 377.896 1.64723 0.813134 0
M  V30 4168 C 377.958 2.57473 -2.50894 0
M  V30 4169 C 377.622 2.26415 -3.9697 0
M  V30 4170 C 378.619 1.84771 -4.85958 0
M  V30 4171 C 376.304 2.38316 -4.42166 0
M  V30 4172 C 378.298 1.55434 -6.18158 0
M  V30 4173 C 375.985 2.08591 -5.74398 0
M  V30 4174 C 376.983 1.67216 -6.62214 0
M  V30 4175 O 376.671 1.37859 -7.91991 0
M  V30 4176 H 376.403 0.420496 -0.529301 0
M  V30 4177 H 378.957 0.704967 -1.92923 0
M  V30 4178 H 377.187 3.25468 -2.08824 0
M  V30 4179 H 378.876 3.19546 -2.50291 0
M  V30 4180 H 379.642 1.75085 -4.52295 0
M  V30 4181 H 375.521 2.69483 -3.74032 0
M  V30 4182 H 379.065 1.23065 -6.86659 0
M  V30 4183 H 374.962 2.17905 -6.07608 0
M  V30 4184 H 375.73 1.51638 -8.04331 0
M  V30 4185 N 378.394 1.34581 0.820102 0
M  V30 4186 C 379.643 1.26437 1.57151 0
M  V30 4187 C 379.956 -0.163111 1.94919 0
M  V30 4188 O 381.162 -0.366722 2.69012 0
M  V30 4189 C 379.618 2.21658 2.83541 0
M  V30 4190 C 379.226 3.69679 2.53065 0
M  V30 4191 C 380.97 2.22428 3.61561 0
M  V30 4192 C 378.877 4.56761 3.75664 0
M  V30 4193 H 377.807 0.469707 0.589823 0
M  V30 4194 H 380.458 1.59763 0.902656 0
M  V30 4195 H 378.84 1.81287 3.52067 0
M  V30 4196 H 380.014 4.18605 1.92631 0
M  V30 4197 H 378.329 3.71384 1.88316 0
M  V30 4198 H 380.926 2.8471 4.52597 0
M  V30 4199 H 381.269 1.22434 3.97889 0
M  V30 4200 H 381.802 2.61259 2.99981 0
M  V30 4201 H 378.541 5.57702 3.44454 0
M  V30 4202 H 378.061 4.12568 4.35371 0
M  V30 4203 H 379.74 4.71509 4.43044 0
M  V30 4204 N 379.872 -1.04064 1.18357 0
M  V30 4205 C 381.12 -1.76915 0.977013 0
M  V30 4206 C 381.441 -1.88624 -0.494577 0
M  V30 4207 O 380.711 -1.41125 -1.3587 0
M  V30 4208 H 379.291 -0.65535 0.358504 0
M  V30 4209 H 381.953 -1.25592 1.49039 0
M  V30 4210 H 381.049 -2.78178 1.41504 0
M  V30 4211 N 381.35 -0.985608 -1.22978 0
M  V30 4212 C 382.599 -0.652881 -1.90841 0
M  V30 4213 C 382.912 0.817842 -1.77681 0
M  V30 4214 O 384.118 1.26185 -2.40395 0
M  V30 4215 C 382.574 -1.11717 -3.42122 0
M  V30 4216 C 382.182 -2.6126 -3.63933 0
M  V30 4217 C 383.926 -0.85843 -4.1573 0
M  V30 4218 C 381.833 -3.0133 -5.08876 0
M  V30 4219 H 380.763 -0.240491 -0.714619 0
M  V30 4220 H 383.414 -1.1942 -1.39324 0
M  V30 4221 H 381.796 -0.504027 -3.92779 0
M  V30 4222 H 382.97 -3.27858 -3.23799 0
M  V30 4223 H 381.285 -2.84937 -3.03644 0
M  V30 4224 H 383.882 -1.13359 -5.22546 0
M  V30 4225 H 384.225 0.205461 -4.15793 0
M  V30 4226 H 384.758 -1.43341 -3.71077 0
M  V30 4227 H 381.497 -4.06864 -5.13947 0
M  V30 4228 H 381.017 -2.3943 -5.49939 0
M  V30 4229 H 382.696 -2.92224 -5.77247 0
M  V30 4230 N 382.828 1.3818 -0.7579 0
M  V30 4231 C 384.053 2.04827 -0.325679 0
M  V30 4232 C 384.478 1.56788 1.03919 0
M  V30 4233 O 383.836 0.721811 1.66312 0
M  V30 4234 C 383.884 3.58774 -0.362447 0
M  V30 4235 O 382.988 4.07372 0.642033 0
M  V30 4236 H 382.329 0.64833 -0.143402 0
M  V30 4237 H 384.859 1.7677 -1.03023 0
M  V30 4238 H 384.869 4.07434 -0.214844 0
M  V30 4239 H 383.544 3.93096 -1.35824 0
M  V30 4240 H 382.121 3.70068 0.458688 0
M  V30 4241 N 384.306 0.507319 1.49211 0
M  V30 4242 C 385.555 -0.0368315 2.01666 0
M  V30 4243 C 385.868 -1.37459 1.39156 0
M  V30 4244 O 387.074 -2.00579 1.82976 0
M  V30 4245 C 385.53 -0.116089 3.59713 0
M  V30 4246 C 385.138 1.2154 4.31198 0
M  V30 4247 C 386.882 -0.610268 4.2009 0
M  V30 4248 C 384.789 1.09796 5.81119 0
M  V30 4249 H 383.719 -0.0175376 0.753796 0
M  V30 4250 H 386.37 0.647691 1.71689 0
M  V30 4251 H 384.752 -0.8652 3.86433 0
M  V30 4252 H 385.926 1.9783 4.16173 0
M  V30 4253 H 384.241 1.64352 3.82593 0
M  V30 4254 H 386.838 -0.715742 5.29888 0
M  V30 4255 H 387.181 -1.61064 3.8388 0
M  V30 4256 H 387.714 0.0824916 3.97714 0
M  V30 4257 H 384.453 2.0728 6.21864 0
M  V30 4258 H 383.973 0.376058 5.9862 0
M  V30 4259 H 385.652 0.779281 6.4229 0
M  V30 4260 N 385.784 -1.5574 0.241426 0
M  V30 4261 C 387.061 -1.90704 -0.434881 0
M  V30 4262 C 387.441 -1.16145 -1.76277 0
M  V30 4263 O 386.789 -0.277152 -2.26813 0
M  V30 4264 C 386.999 -3.43657 -0.608343 0
M  V30 4265 C 388.347 -4.14806 -0.906725 0
M  V30 4266 O 389.371 -3.49366 -0.694408 0
M  V30 4267 O 388.23 -5.30548 -1.31075 0
M  V30 4268 H 385.324 -0.793592 -0.23268 0
M  V30 4269 H 387.87 -1.67288 0.285086 0
M  V30 4270 H 386.642 -3.89927 0.327505 0
M  V30 4271 H 386.265 -3.72918 -1.37906 0
M  V30 4272 N 387.262 0.0317525 -1.57568 0
M  V30 4273 C 388.487 0.738664 -1.938 0
M  V30 4274 C 388.912 1.68242 -0.841208 0
M  V30 4275 O 388.27 1.80157 0.203267 0
M  V30 4276 C 388.318 1.47417 -3.29091 0
M  V30 4277 O 387.422 2.5872 -3.2115 0
M  V30 4278 H 386.763 0.198856 -0.633524 0
M  V30 4279 H 389.293 -0.0119713 -2.04596 0
M  V30 4280 H 389.303 1.84468 -3.63917 0
M  V30 4281 H 387.978 0.781988 -4.08482 0
M  V30 4282 H 386.555 2.24231 -2.97951 0
M  V30 4283 N 388.74 1.54641 0.303973 0
M  V30 4284 C 389.987 1.7378 1.03955 0
M  V30 4285 C 390.315 0.521986 1.87365 0
M  V30 4286 O 389.57 -0.496099 1.89308 0
M  V30 4287 C 389.869 2.97753 1.97681 0
M  V30 4288 C 389.535 4.31671 1.30271 0
M  V30 4289 C 388.197 4.68075 1.11619 0
M  V30 4290 C 390.549 5.147 0.82055 0
M  V30 4291 C 387.877 5.8509 0.434304 0
M  V30 4292 C 390.229 6.32416 0.152395 0
M  V30 4293 C 388.893 6.67484 -0.0461067 0
M  V30 4294 H 388.163 0.635908 0.380398 0
M  V30 4295 H 390.81 1.88896 0.314718 0
M  V30 4296 H 389.115 2.77406 2.76682 0
M  V30 4297 H 390.812 3.09756 2.54661 0
M  V30 4298 H 387.402 4.03041 1.45795 0
M  V30 4299 H 391.586 4.87077 0.952374 0
M  V30 4300 H 386.842 6.10806 0.269495 0
M  V30 4301 H 391.016 6.96023 -0.229126 0
M  V30 4302 H 388.643 7.58011 -0.576494 0
M  V30 4303 N 390.218 -0.567019 1.47046 0
M  V30 4304 C 391.467 -1.32091 1.5243 0
M  V30 4305 C 391.78 -1.94704 0.187021 0
M  V30 4306 O 392.986 -2.7124 0.118771 0
M  V30 4307 C 391.442 -2.39479 2.68659 0
M  V30 4308 C 391.05 -1.831 4.08874 0
M  V30 4309 C 392.794 -3.16111 2.83327 0
M  V30 4310 C 390.701 -2.8821 5.16419 0
M  V30 4311 H 389.631 -0.496629 0.56734 0
M  V30 4312 H 392.282 -0.603354 1.73297 0
M  V30 4313 H 390.664 -3.14105 2.41152 0
M  V30 4314 H 391.838 -1.14913 4.46242 0
M  V30 4315 H 390.153 -1.19085 3.99008 0
M  V30 4316 H 392.75 -3.94585 3.60842 0
M  V30 4317 H 393.093 -3.69686 1.91411 0
M  V30 4318 H 393.626 -2.48595 3.10556 0
M  V30 4319 H 390.365 -2.39504 6.10179 0
M  V30 4320 H 389.885 -3.54839 4.8358 0
M  V30 4321 H 391.564 -3.51881 5.42945 0
M  V30 4322 N 391.696 -1.35014 -0.812953 0
M  V30 4323 C 392.626 -1.30069 -1.93919 0
M  V30 4324 C 393.607 -0.176275 -1.69184 0
M  V30 4325 O 394.792 -0.370227 -1.90638 0
M  V30 4326 C 391.922 -1.06547 -3.30552 0
M  V30 4327 C 390.876 -2.15561 -3.69753 0
M  V30 4328 C 390.202 -1.77214 -5.04479 0
M  V30 4329 C 391.502 -3.57476 -3.808 0
M  V30 4330 H 393.196 -2.24303 -1.98314 0
M  V30 4331 H 390.742 -1.07977 -0.952736 0
M  V30 4332 H 392.695 -1.01729 -4.08937 0
M  V30 4333 H 391.419 -0.0875719 -3.26483 0
M  V30 4334 H 390.078 -2.19466 -2.9365 0
M  V30 4335 H 389.726 -0.780589 -4.96906 0
M  V30 4336 H 389.426 -2.50184 -5.31678 0
M  V30 4337 H 390.95 -1.7391 -5.8531 0
M  V30 4338 H 392.364 -3.55929 -4.4943 0
M  V30 4339 H 390.761 -4.29152 -4.19462 0
M  V30 4340 H 391.831 -3.94091 -2.82525 0
M  V30 4341 N 393.175 1.03435 -1.18907 0
M  V30 4342 C 394.105 2.13503 -0.945448 0
M  V30 4343 C 395.086 1.69682 0.119189 0
M  V30 4344 O 396.271 1.94169 -0.034707 0
M  V30 4345 C 393.401 3.44004 -0.477316 0
M  V30 4346 C 392.355 4.0148 -1.48316 0
M  V30 4347 C 391.681 5.27537 -0.872311 0
M  V30 4348 C 392.981 4.36921 -2.86177 0
M  V30 4349 H 394.675 2.34141 -1.86597 0
M  V30 4350 H 392.221 1.12523 -0.898584 0
M  V30 4351 H 394.174 4.20372 -0.294204 0
M  V30 4352 H 392.898 3.23072 0.478786 0
M  V30 4353 H 391.557 3.27201 -1.65332 0
M  V30 4354 H 391.205 5.02917 0.0911752 0
M  V30 4355 H 390.905 5.66954 -1.54393 0
M  V30 4356 H 392.429 6.06576 -0.699871 0
M  V30 4357 H 393.843 5.04248 -2.72776 0
M  V30 4358 H 392.24 4.87405 -3.50081 0
M  V30 4359 H 393.31 3.46466 -3.39248 0
M  V30 4360 N 394.653 0.992116 1.22453 0
M  V30 4361 C 395.563 0.55065 2.28046 0
M  V30 4362 C 396.579 -0.400189 1.69335 0
M  V30 4363 O 397.755 -0.267215 1.99619 0
M  V30 4364 C 394.82 -0.128496 3.46462 0
M  V30 4365 C 393.881 0.865208 4.20491 0
M  V30 4366 C 393.114 0.218377 5.33253 0
M  V30 4367 O 393.337 -0.987894 5.6178 0
M  V30 4368 O 392.271 0.922845 5.94783 0
M  V30 4369 H 396.097 1.4291 2.67975 0
M  V30 4370 H 393.682 0.760326 1.28606 0
M  V30 4371 H 395.564 -0.508947 4.18315 0
M  V30 4372 H 394.239 -0.981526 3.0846 0
M  V30 4373 H 393.146 1.29658 3.50913 0
M  V30 4374 H 394.479 1.68741 4.62371 0
M  V30 4375 N 396.131 -1.37776 0.765217 0
M  V30 4376 C 397.38 -1.99092 0.323307 0
M  V30 4377 C 397.693 -1.61434 -1.10446 0
M  V30 4378 O 398.899 -2.15805 -1.64743 0
M  V30 4379 C 397.355 -3.56019 0.527098 0
M  V30 4380 C 396.963 -4.0262 1.96471 0
M  V30 4381 C 398.707 -4.2424 0.148483 0
M  V30 4382 C 396.614 -5.52233 2.11644 0
M  V30 4383 H 395.544 -0.744846 0.117137 0
M  V30 4384 H 398.195 -1.57391 0.943417 0
M  V30 4385 H 396.577 -3.95667 -0.162372 0
M  V30 4386 H 397.751 -3.74234 2.68859 0
M  V30 4387 H 396.066 -3.47161 2.29931 0
M  V30 4388 H 398.663 -5.34159 0.240456 0
M  V30 4389 H 399.006 -4.06446 -0.900422 0
M  V30 4390 H 399.539 -3.89872 0.79025 0
M  V30 4391 H 396.278 -5.74945 3.1483 0
M  V30 4392 H 395.798 -5.82324 1.4373 0
M  V30 4393 H 397.477 -6.18106 1.91193 0
M  V30 4394 N 397.609 -0.515225 -1.4894 0
M  V30 4395 C 398.858 0.0261361 -2.01683 0
M  V30 4396 C 399.171 1.36719 -1.39883 0
M  V30 4397 O 400.377 1.99606 -1.84037 0
M  V30 4398 C 398.833 0.0970111 -3.59769 0
M  V30 4399 C 398.441 -1.23825 -4.30548 0
M  V30 4400 C 400.185 0.587981 -4.20408 0
M  V30 4401 C 398.092 -1.12877 -5.80528 0
M  V30 4402 H 397.022 0.0135398 -0.753878 0
M  V30 4403 H 399.673 -0.656787 -1.71343 0
M  V30 4404 H 398.055 0.844694 -3.86886 0
M  V30 4405 H 399.229 -2.00034 -4.15118 0
M  V30 4406 H 397.544 -1.66379 -3.81716 0
M  V30 4407 H 400.141 0.68763 -5.3026 0
M  V30 4408 H 400.484 1.59026 -3.84729 0
M  V30 4409 H 401.017 -0.103582 -3.97665 0
M  V30 4410 H 397.756 -2.10575 -6.20756 0
M  V30 4411 H 397.276 -0.407799 -5.98412 0
M  V30 4412 H 398.955 -0.813332 -6.41868 0
M  V30 4413 N 399.087 1.5561 -0.249682 0
M  V30 4414 C 400.034 2.21496 0.648694 0
M  V30 4415 C 401.004 1.17977 1.16921 0
M  V30 4416 O 402.189 1.46434 1.22318 0
M  V30 4417 C 399.329 2.92039 1.83868 0
M  V30 4418 C 398.442 4.10219 1.35442 0
M  V30 4419 C 397.577 4.6847 2.50419 0
M  V30 4420 C 396.616 5.78893 1.98869 0
M  V30 4421 N 395.753 6.31315 3.07223 0
M  V30 4422 H 400.593 2.97892 0.0801582 0
M  V30 4423 H 398.13 1.47074 0.0278031 0
M  V30 4424 H 400.088 3.31138 2.53778 0
M  V30 4425 H 398.718 2.18111 2.37965 0
M  V30 4426 H 397.77 3.76413 0.54928 0
M  V30 4427 H 399.082 4.89927 0.936649 0
M  V30 4428 H 398.236 5.10158 3.28366 0
M  V30 4429 H 396.975 3.87984 2.95499 0
M  V30 4430 H 395.98 5.3668 1.19393 0
M  V30 4431 H 397.205 6.61232 1.54755 0
M  V30 4432 H 395.151 5.53733 3.51732 0
M  V30 4433 H 395.068 7.06224 2.69784 0
M  V30 4434 H 396.336 6.77662 3.8522 0
M  V30 4435 N 400.565 -0.0233959 1.57583 0
M  V30 4436 C 401.497 -1.04994 2.03737 0
M  V30 4437 C 402.51 -1.32125 0.951152 0
M  V30 4438 O 403.699 -1.29512 1.22837 0
M  V30 4439 C 400.799 -2.39026 2.40249 0
M  V30 4440 C 399.972 -2.31171 3.7132 0
M  V30 4441 C 399.031 -3.47698 3.94959 0
M  V30 4442 O 398.057 -3.26937 4.65941 0
M  V30 4443 N 399.259 -4.6976 3.41037 0
M  V30 4444 H 402.024 -0.656507 2.92421 0
M  V30 4445 H 399.585 -0.211235 1.60516 0
M  V30 4446 H 401.577 -3.15712 2.53196 0
M  V30 4447 H 400.147 -2.70194 1.57207 0
M  V30 4448 H 399.367 -1.39547 3.68674 0
M  V30 4449 H 400.655 -2.23071 4.57293 0
M  V30 4450 H 400.053 -4.89528 2.83512 0
M  V30 4451 H 398.61 -5.43791 3.59353 0
M  V30 4452 N 402.043 -1.548 -0.295768 0
M  V30 4453 C 403.291 -1.73985 -1.02828 0
M  V30 4454 C 403.612 -0.531406 -1.87619 0
M  V30 4455 O 402.882 0.454221 -1.90561 0
M  V30 4456 H 401.462 -0.641556 -0.382642 0
M  V30 4457 H 404.124 -1.92163 -0.325489 0
M  V30 4458 H 403.22 -2.63129 -1.67838 0
M  V30 4459 N 403.521 0.559213 -1.47345 0
M  V30 4460 C 404.761 1.32728 -1.55444 0
M  V30 4461 C 405.125 1.90838 -0.210895 0
M  V30 4462 O 406.326 2.68282 -0.166719 0
M  V30 4463 C 404.597 2.4092 -2.63993 0
M  V30 4464 S 406.156 3.2784 -2.91661 0
M  V30 4465 H 402.974 0.451883 -0.548929 0
M  V30 4466 H 405.576 0.640404 -1.84714 0
M  V30 4467 H 404.28 1.9666 -3.60212 0
M  V30 4468 H 403.811 3.14351 -2.36531 0
M  V30 4469 H 405.826 4.40341 -2.28722 0
M  V30 4470 N 404.999 1.35443 0.805782 0
M  V30 4471 C 405.909 1.30546 1.94923 0
M  V30 4472 C 406.925 0.210233 1.72725 0
M  V30 4473 O 408.101 0.43975 1.9654 0
M  V30 4474 C 405.166 1.07782 3.29521 0
M  V30 4475 C 404.227 2.26625 3.64609 0
M  V30 4476 C 403.46 2.04938 4.92784 0
M  V30 4477 O 403.683 1.01624 5.61274 0
M  V30 4478 O 402.617 2.9232 5.26149 0
M  V30 4479 H 406.443 2.26779 2.02002 0
M  V30 4480 H 404.028 1.15823 0.943682 0
M  V30 4481 H 405.91 0.969392 4.10098 0
M  V30 4482 H 404.585 0.146003 3.23371 0
M  V30 4483 H 403.492 2.43033 2.84404 0
M  V30 4484 H 404.825 3.18257 3.75464 0
M  V30 4485 N 406.477 -1.02803 1.19454 0
M  V30 4486 C 407.724 -1.76217 0.997693 0
M  V30 4487 C 408.052 -1.887 -0.47144 0
M  V30 4488 O 407.307 -1.4011 -1.3663 0
M  V30 4489 C 407.606 -3.18941 1.6128 0
M  V30 4490 C 407.272 -3.26463 3.11019 0
M  V30 4491 C 405.934 -3.28223 3.51885 0
M  V30 4492 C 408.286 -3.25542 4.07028 0
M  V30 4493 C 405.614 -3.26719 4.8731 0
M  V30 4494 C 407.966 -3.25579 5.42385 0
M  V30 4495 C 406.63 -3.25637 5.82681 0
M  V30 4496 H 405.9 -0.644823 0.365082 0
M  V30 4497 H 408.547 -1.20655 1.4871 0
M  V30 4498 H 406.852 -3.77587 1.04572 0
M  V30 4499 H 408.549 -3.74415 1.43577 0
M  V30 4500 H 405.139 -3.25822 2.78457 0
M  V30 4501 H 409.323 -3.23362 3.76498 0
M  V30 4502 H 404.579 -3.25089 5.1781 0
M  V30 4503 H 408.753 -3.23817 6.16535 0
M  V30 4504 H 406.38 -3.24226 6.87591 0
M  V30 4505 N 407.956 -0.998596 -1.21925 0
M  V30 4506 C 408.866 -0.562736 -2.27751 0
M  V30 4507 C 409.882 0.391203 -1.69545 0
M  V30 4508 O 411.058 0.256625 -1.99758 0
M  V30 4509 C 408.123 0.11012 -3.46525 0
M  V30 4510 C 407.184 -0.887495 -4.20026 0
M  V30 4511 C 406.417 -0.246654 -5.3313 0
M  V30 4512 O 406.64 0.958088 -5.62296 0
M  V30 4513 O 405.574 -0.954374 -5.94286 0
M  V30 4514 H 409.4 -1.44329 -2.67213 0
M  V30 4515 H 406.985 -0.767135 -1.28201 0
M  V30 4516 H 408.867 0.486756 -4.18579 0
M  V30 4517 H 407.542 0.965154 -3.08976 0
M  V30 4518 H 406.449 -1.31517 -3.5022 0
M  V30 4519 H 407.782 -1.71191 -4.6147 0
M  V30 4520 N 409.434 1.37368 -0.772513 0
M  V30 4521 C 410.382 2.32134 -0.147111 0
M  V30 4522 C 411.376 1.54972 0.684106 0
M  V30 4523 O 412.582 1.70363 0.581083 0
M  V30 4524 H 408.957 0.751449 -0.028786 0
M  V30 4525 H 410.928 2.82464 -0.962112 0
M  V30 4526 C 409.677 3.40226 0.71703 0
M  V30 4527 H 409 3.99706 0.0867951 0
M  V30 4528 H 410.44 4.08897 1.12159 0
M  V30 4529 C 408.899 2.80372 1.86797 0
M  V30 4530 O 409.429 2.71183 2.96349 0
M  V30 4531 N 407.635 2.37904 1.66883 0
M  V30 4532 H 407.182 2.45578 0.777759 0
M  V30 4533 H 407.14 1.98202 2.44056 0
M  V30 4534 N 410.912 0.523116 1.48665 0
M  V30 4535 C 412.14 -0.0096312 2.06898 0
M  V30 4536 C 412.555 -1.28784 1.38059 0
M  V30 4537 O 411.912 -1.76453 0.465893 0
M  V30 4538 C 411.963 -0.244386 3.60673 0
M  V30 4539 O 411.684 0.983172 4.26925 0
M  V30 4540 C 413.185 -0.818289 4.35682 0
M  V30 4541 H 410.405 0.0304161 0.67031 0
M  V30 4542 H 412.949 0.726799 1.91149 0
M  V30 4543 H 411.104 -0.930847 3.76051 0
M  V30 4544 H 411.518 0.759653 5.1897 0
M  V30 4545 H 412.992 -0.93201 5.44075 0
M  V30 4546 H 413.469 -1.82153 3.99646 0
M  V30 4547 H 414.075 -0.168609 4.24966 0
M  V30 4548 N 412.39 -1.55475 0.257931 0
M  V30 4549 C 413.636 -1.99502 -0.364266 0
M  V30 4550 C 413.969 -1.146 -1.56782 0
M  V30 4551 O 413.244 -0.211968 -1.93342 0
M  V30 4552 C 413.527 -3.51917 -0.763333 0
M  V30 4553 C 413.38 -4.4758 0.446371 0
M  V30 4554 C 414.699 -4.09742 -1.60623 0
M  V30 4555 H 411.818 -0.725277 -0.130929 0
M  V30 4556 H 414.46 -1.8653 0.361446 0
M  V30 4557 H 412.61 -3.63101 -1.38166 0
M  V30 4558 H 414.282 -4.48362 1.08487 0
M  V30 4559 H 412.525 -4.19947 1.08753 0
M  V30 4560 H 413.196 -5.51862 0.123645 0
M  V30 4561 H 415.672 -4.01727 -1.08418 0
M  V30 4562 H 414.548 -5.16631 -1.85429 0
M  V30 4563 H 414.809 -3.58889 -2.58169 0
M  V30 4564 N 413.868 0.0150385 -1.57593 0
M  V30 4565 C 414.818 1.01943 -2.0394 0
M  V30 4566 C 415.802 1.31209 -0.931286 0
M  V30 4567 O 416.994 1.30559 -1.19513 0
M  V30 4568 C 414.123 2.31621 -2.53391 0
M  V30 4569 C 413.209 2.05384 -3.7105 0
M  V30 4570 N 413.6 1.49253 -4.83278 0
M  V30 4571 C 411.898 2.35601 -3.78693 0
M  V30 4572 C 412.599 1.39143 -5.64813 0
M  V30 4573 N 411.575 1.87187 -5.10355 0
M  V30 4574 H 415.377 0.57969 -2.88126 0
M  V30 4575 H 412.891 0.221056 -1.60888 0
M  V30 4576 H 414.888 3.044 -2.84862 0
M  V30 4577 H 413.548 2.76261 -1.70616 0
M  V30 4578 H 414.559 1.17334 -5.04433 0
M  V30 4579 H 411.236 2.8322 -3.06746 0
M  V30 4580 H 412.626 0.961153 -6.6499 0
M  V30 4581 N 415.346 1.54954 0.287554 0
M  V30 4582 C 416.293 1.86834 1.35505 0
M  V30 4583 C 417.263 0.718452 1.49758 0
M  V30 4584 O 418.448 0.968358 1.644 0
M  V30 4585 C 415.588 2.13303 2.71286 0
M  V30 4586 C 414.701 3.40883 2.65373 0
M  V30 4587 C 413.836 3.57125 3.93236 0
M  V30 4588 C 412.875 4.78449 3.81776 0
M  V30 4589 N 412.012 4.91426 5.01443 0
M  V30 4590 H 416.852 2.77889 1.07619 0
M  V30 4591 H 414.389 1.37593 0.520241 0
M  V30 4592 H 416.347 2.26646 3.50267 0
M  V30 4593 H 414.977 1.25499 2.97405 0
M  V30 4594 H 414.029 3.36088 1.78182 0
M  V30 4595 H 415.341 4.29993 2.52799 0
M  V30 4596 H 414.495 3.70207 4.80658 0
M  V30 4597 H 413.234 2.66173 4.0866 0
M  V30 4598 H 412.239 4.65386 2.92738 0
M  V30 4599 H 413.464 5.70822 3.67884 0
M  V30 4600 H 411.41 4.03401 5.17304 0
M  V30 4601 H 411.327 5.74559 4.91343 0
M  V30 4602 H 412.595 5.08879 5.90477 0
M  V30 4603 N 416.824 -0.551391 1.4764 0
M  V30 4604 C 418.07 -1.30789 1.55774 0
M  V30 4605 C 418.425 -1.91143 0.219562 0
M  V30 4606 O 417.718 -1.7521 -0.775375 0
M  V30 4607 C 417.912 -2.43469 2.61644 0
M  V30 4608 C 417.741 -1.94157 4.05627 0
M  V30 4609 C 416.511 -1.77734 4.7301 0
M  V30 4610 C 418.709 -1.48262 4.92466 0
M  V30 4611 N 416.691 -1.22823 6.01488 0
M  V30 4612 C 418.062 -1.05156 6.11017 0
M  V30 4613 C 420.117 -1.36367 4.78862 0
M  V30 4614 C 418.82 -0.513357 7.17466 0
M  V30 4615 C 420.846 -0.839484 5.85411 0
M  V30 4616 C 420.208 -0.418377 7.03156 0
M  V30 4617 H 416.307 -0.470406 0.624694 0
M  V30 4618 H 418.891 -0.624331 1.84419 0
M  V30 4619 H 417.062 -3.09348 2.34859 0
M  V30 4620 H 418.794 -3.10477 2.59589 0
M  V30 4621 H 415.549 -2.00623 4.29007 0
M  V30 4622 H 415.973 -0.974393 6.69951 0
M  V30 4623 H 420.615 -1.67535 3.88191 0
M  V30 4624 H 418.333 -0.189318 8.07878 0
M  V30 4625 H 421.919 -0.750921 5.76934 0
M  V30 4626 H 420.799 -0.0190538 7.84198 0
M  V30 4627 N 418.302 -1.35869 -0.798587 0
M  V30 4628 C 419.551 -1.28921 -1.5512 0
M  V30 4629 C 419.864 0.13208 -1.95154 0
M  V30 4630 O 421.07 0.323879 -2.69561 0
M  V30 4631 C 419.526 -2.26141 -2.79979 0
M  V30 4632 C 419.134 -3.73658 -2.47151 0
M  V30 4633 C 420.878 -2.28152 -3.57976 0
M  V30 4634 C 418.785 -4.62679 -3.6835 0
M  V30 4635 H 417.715 -0.479031 -0.582276 0
M  V30 4636 H 420.366 -1.61179 -0.877125 0
M  V30 4637 H 418.748 -1.86865 -3.49138 0
M  V30 4638 H 419.922 -4.21616 -1.85947 0
M  V30 4639 H 418.237 -3.74333 -1.82383 0
M  V30 4640 H 420.834 -2.91875 -4.4801 0
M  V30 4641 H 421.177 -1.28748 -3.95891 0
M  V30 4642 H 421.71 -2.65998 -2.95787 0
M  V30 4643 H 418.449 -5.63111 -3.35538 0
M  V30 4644 H 417.969 -4.19442 -4.28752 0
M  V30 4645 H 419.648 -4.78498 -4.35487 0
M  V30 4646 N 419.78 1.02168 -1.19998 0
M  V30 4647 C 421.005 1.79833 -1.03319 0
M  V30 4648 C 421.43 1.83504 0.413281 0
M  V30 4649 O 420.788 1.26635 1.29743 0
M  V30 4650 C 420.836 3.22396 -1.61533 0
M  V30 4651 O 419.94 4.03555 -0.849519 0
M  V30 4652 H 419.281 0.554872 -0.364709 0
M  V30 4653 H 421.811 1.28542 -1.59179 0
M  V30 4654 H 421.821 3.73124 -1.65054 0
M  V30 4655 H 420.496 3.19039 -2.66809 0
M  V30 4656 H 419.073 3.62169 -0.888129 0
M  V30 4657 N 421.258 1.00505 1.21394 0
M  V30 4658 C 422.507 0.683159 1.89778 0
M  V30 4659 C 422.82 -0.789471 1.7896 0
M  V30 4660 O 424.026 -1.22344 2.42372 0
M  V30 4661 C 422.482 1.17146 3.40301 0
M  V30 4662 C 422.09 2.67017 3.5973 0
M  V30 4663 C 423.834 0.924461 4.14311 0
M  V30 4664 C 421.741 3.09387 5.04017 0
M  V30 4665 H 420.671 0.25183 0.710702 0
M  V30 4666 H 423.322 1.21622 1.37406 0
M  V30 4667 H 421.704 0.566451 3.91928 0
M  V30 4668 H 422.878 3.32968 3.18542 0
M  V30 4669 H 421.193 2.89732 2.99073 0
M  V30 4670 H 423.79 1.21658 5.20676 0
M  V30 4671 H 424.133 -0.139286 4.16067 0
M  V30 4672 H 424.666 1.49226 3.6875 0
M  V30 4673 H 421.405 4.14989 5.07409 0
M  V30 4674 H 420.925 2.48149 5.46061 0
M  V30 4675 H 422.604 3.01371 5.72525 0
M  V30 4676 N 422.737 -1.36956 0.779787 0
M  V30 4677 C 423.965 -2.03755 0.359398 0
M  V30 4678 C 424.38 -1.58807 -1.02106 0
M  V30 4679 O 423.737 -0.773024 -1.6532 0
M  V30 4680 C 423.788 -3.59251 0.402568 0
M  V30 4681 O 423.509 -4.02557 1.72858 0
M  V30 4682 C 425.01 -4.43291 -0.0284068 0
M  V30 4683 H 422.23 -0.654148 0.149437 0
M  V30 4684 H 424.774 -1.75128 1.05595 0
M  V30 4685 H 422.929 -3.86621 -0.245478 0
M  V30 4686 H 423.343 -4.97111 1.67275 0
M  V30 4687 H 424.817 -5.51975 0.0529466 0
M  V30 4688 H 425.294 -4.25719 -1.07982 0
M  V30 4689 H 425.9 -4.21163 0.591758 0
M  V30 4690 N 424.215 -0.530993 -1.48385 0
M  V30 4691 C 425.125 0.23503 -2.3342 0
M  V30 4692 C 426.141 0.93801 -1.46552 0
M  V30 4693 O 427.317 0.912745 -1.7953 0
M  V30 4694 C 424.382 1.26778 -3.22689 0
M  V30 4695 C 423.443 0.575038 -4.25431 0
M  V30 4696 C 422.676 1.55858 -5.10435 0
M  V30 4697 O 422.899 2.79129 -4.97437 0
M  V30 4698 O 421.833 1.09742 -5.91811 0
M  V30 4699 H 425.659 -0.461794 -3.00169 0
M  V30 4700 H 423.244 -0.291903 -1.46521 0
M  V30 4701 H 425.126 1.86457 -3.77904 0
M  V30 4702 H 423.801 1.94699 -2.586 0
M  V30 4703 H 422.708 -0.0622782 -3.74048 0
M  V30 4704 H 424.041 -0.062253 -4.92161 0
M  V30 4705 N 425.693 1.55336 -0.266172 0
M  V30 4706 C 426.656 2.20878 0.612001 0
M  V30 4707 C 427.656 1.18388 1.08816 0
M  V30 4708 O 428.846 1.4335 0.989774 0
M  V30 4709 C 425.978 2.86765 1.84332 0
M  V30 4710 H 427.171 2.99873 0.0398718 0
M  V30 4711 H 424.724 1.56291 -0.0167309 0
M  V30 4712 H 425.459 2.11759 2.45619 0
M  V30 4713 H 425.244 3.61862 1.5099 0
M  V30 4714 H 426.734 3.36867 2.46801 0
M  V30 4715 N 427.171 -0.0066808 1.57599 0
M  V30 4716 C 428.101 -0.999296 2.11036 0
M  V30 4717 C 429.082 -1.36278 1.01795 0
M  V30 4718 O 430.267 -1.4477 1.29442 0
M  V30 4719 C 427.397 -2.29328 2.60818 0
M  V30 4720 C 426.351 -2.07159 3.74525 0
M  V30 4721 C 425.677 -3.42512 4.10596 0
M  V30 4722 C 426.977 -1.43959 5.02069 0
M  V30 4723 H 428.671 -0.554382 2.94223 0
M  V30 4724 H 426.217 -0.265221 1.41536 0
M  V30 4725 H 428.17 -2.99117 2.96828 0
M  V30 4726 H 426.894 -2.7592 1.74745 0
M  V30 4727 H 425.553 -1.39797 3.38899 0
M  V30 4728 H 425.201 -3.86795 3.21556 0
M  V30 4729 H 424.901 -3.28498 4.87199 0
M  V30 4730 H 426.425 -4.13628 4.4916 0
M  V30 4731 H 427.839 -2.03696 5.35893 0
M  V30 4732 H 426.236 -1.40452 5.83432 0
M  V30 4733 H 427.306 -0.407992 4.83181 0
M  V30 4734 N 428.649 -1.55105 -0.279332 0
M  V30 4735 C 429.612 -1.86783 -1.32834 0
M  V30 4736 C 430.612 -0.74199 -1.42657 0
M  V30 4737 O 431.802 -1.0102 -1.41918 0
M  V30 4738 C 428.934 -2.06746 -2.71052 0
M  V30 4739 H 430.127 -2.8055 -1.05979 0
M  V30 4740 H 427.68 -1.47499 -0.517087 0
M  V30 4741 H 428.415 -1.15339 -3.03097 0
M  V30 4742 H 428.2 -2.88711 -2.65309 0
M  V30 4743 H 429.69 -2.32549 -3.46858 0
M  V30 4744 N 430.127 0.543554 -1.4793 0
M  V30 4745 C 431.374 1.30008 -1.55255 0
M  V30 4746 C 431.702 1.93245 -0.220612 0
M  V30 4747 O 430.957 1.79141 0.787843 0
M  V30 4748 C 431.256 2.42078 -2.62932 0
M  V30 4749 C 430.922 1.96583 -4.0579 0
M  V30 4750 C 429.584 1.83893 -4.44676 0
M  V30 4751 C 431.936 1.62034 -4.95373 0
M  V30 4752 C 429.264 1.34969 -5.70964 0
M  V30 4753 C 431.616 1.14577 -6.22137 0
M  V30 4754 C 430.28 1.00493 -6.59892 0
M  V30 4755 H 429.55 0.475735 -0.568117 0
M  V30 4756 H 432.197 0.608075 -1.81589 0
M  V30 4757 H 430.502 3.16892 -2.30406 0
M  V30 4758 H 432.199 3.00236 -2.65818 0
M  V30 4759 H 428.789 2.07407 -3.75074 0
M  V30 4760 H 432.973 1.70705 -4.66019 0
M  V30 4761 H 428.229 1.2274 -5.98953 0
M  V30 4762 H 432.403 0.869109 -6.90955 0
M  V30 4763 H 430.03 0.623624 -7.57638 0
M  V30 4764 N 431.605 1.3629 0.791371 0
M  V30 4765 C 432.852 1.30412 1.54916 0
M  V30 4766 C 433.18 -0.117162 1.94147 0
M  V30 4767 O 432.435 -1.08599 1.62803 0
M  V30 4768 C 432.734 2.17068 2.8393 0
M  V30 4769 C 432.4 3.65645 2.63846 0
M  V30 4770 C 431.062 4.0614 2.58077 0
M  V30 4771 C 433.414 4.59855 2.45322 0
M  V30 4772 C 430.742 5.3899 2.31748 0
M  V30 4773 C 433.094 5.9292 2.2052 0
M  V30 4774 C 431.758 6.32542 2.13183 0
M  V30 4775 H 431.028 0.47721 0.566879 0
M  V30 4776 H 433.675 1.68325 0.913172 0
M  V30 4777 H 431.98 1.72085 3.51986 0
M  V30 4778 H 433.677 2.09846 3.4171 0
M  V30 4779 H 430.267 3.33518 2.69191 0
M  V30 4780 H 434.451 4.29443 2.48782 0
M  V30 4781 H 429.707 5.68672 2.24548 0
M  V30 4782 H 433.881 6.65487 2.05182 0
M  V30 4783 H 431.508 7.35412 1.92544 0
M  V30 4784 N 433.083 -1.0153 1.20538 0
M  V30 4785 C 434.033 -2.08482 0.922991 0
M  V30 4786 C 435.017 -1.60469 -0.117702 0
M  V30 4787 O 436.209 -1.76772 0.0898465 0
M  V30 4788 C 433.338 -3.39952 0.478312 0
M  V30 4789 C 432.424 -3.94662 1.5525 0
M  V30 4790 N 432.815 -4.22866 2.77521 0
M  V30 4791 C 431.113 -4.22825 1.41897 0
M  V30 4792 C 431.814 -4.67002 3.4682 0
M  V30 4793 N 430.79 -4.69356 2.74237 0
M  V30 4794 H 434.592 -2.28199 1.85209 0
M  V30 4795 H 432.106 -1.19512 1.09957 0
M  V30 4796 H 434.103 -4.16105 0.257408 0
M  V30 4797 H 432.763 -3.21648 -0.444148 0
M  V30 4798 H 433.774 -4.11732 3.1416 0
M  V30 4799 H 430.451 -4.13714 0.561015 0
M  V30 4800 H 431.841 -4.97632 4.51455 0
M  V30 4801 N 434.561 -1.01147 -1.20859 0
M  V30 4802 C 435.801 -0.706331 -1.91808 0
M  V30 4803 C 436.165 0.749736 -1.76757 0
M  V30 4804 O 437.366 1.16716 -2.42138 0
M  V30 4805 C 435.637 -1.12371 -3.39275 0
M  V30 4806 S 437.196 -0.939764 -4.28619 0
M  V30 4807 H 434.014 -0.257665 -0.662669 0
M  V30 4808 H 436.616 -1.29766 -1.46223 0
M  V30 4809 H 435.32 -2.17943 -3.47749 0
M  V30 4810 H 434.851 -0.524952 -3.89882 0
M  V30 4811 H 436.866 0.159556 -4.95943 0
M  V30 4812 N 436.039 1.36541 -0.78704 0
M  V30 4813 C 437.279 2.01138 -0.363714 0
M  V30 4814 C 437.643 1.61114 1.04433 0
M  V30 4815 O 438.844 2.18285 1.56861 0
M  V30 4816 C 437.115 3.53603 -0.519582 0
M  V30 4817 S 438.674 4.38415 -0.183782 0
M  V30 4818 H 435.492 0.697263 -0.13909 0
M  V30 4819 H 438.094 1.66475 -1.02501 0
M  V30 4820 H 436.798 3.8022 -1.5447 0
M  V30 4821 H 436.329 3.93084 0.15773 0
M  V30 4822 H 438.344 4.85698 1.01547 0
M  V30 4823 N 437.518 0.538854 1.48102 0
M  V30 4824 C 438.448 -0.207654 2.32575 0
M  V30 4825 C 439.429 -0.926559 1.4265 0
M  V30 4826 O 440.614 -0.91061 1.71527 0
M  V30 4827 C 437.744 -1.24957 3.24042 0
M  V30 4828 C 436.698 -0.648263 4.23062 0
M  V30 4829 C 436.024 -1.79348 5.03725 0
M  V30 4830 C 437.324 0.385897 5.20872 0
M  V30 4831 H 439.018 0.497534 2.95237 0
M  V30 4832 H 436.564 0.240715 1.41974 0
M  V30 4833 H 438.517 -1.77983 3.81969 0
M  V30 4834 H 437.241 -1.98446 2.59397 0
M  V30 4835 H 435.9 -0.139452 3.66335 0
M  V30 4836 H 435.548 -2.51696 4.35498 0
M  V30 4837 H 435.248 -1.39702 5.70751 0
M  V30 4838 H 436.772 -2.32735 5.64506 0
M  V30 4839 H 438.186 -0.057607 5.73271 0
M  V30 4840 H 436.583 0.700227 5.96001 0
M  V30 4841 H 437.653 1.28848 4.67468 0
M  V30 4842 N 438.996 -1.55193 0.274407 0
M  V30 4843 C 439.944 -2.23924 -0.629362 0
M  V30 4844 C 440.938 -1.23602 -1.1584 0
M  V30 4845 O 442.144 -1.41535 -1.11211 0
M  V30 4846 H 438.519 -0.718637 -0.221507 0
M  V30 4847 H 440.49 -2.98388 -0.0268322 0
M  V30 4848 C 439.239 -2.97329 -1.80252 0
M  V30 4849 H 438.562 -3.74313 -1.40462 0
M  V30 4850 H 440.002 -3.48743 -2.41152 0
M  V30 4851 C 438.461 -2.0276 -2.69054 0
M  V30 4852 O 438.991 -1.57836 -3.69392 0
M  V30 4853 N 437.197 -1.69275 -2.36208 0
M  V30 4854 H 436.744 -2.06004 -1.54661 0
M  V30 4855 H 436.702 -1.06271 -2.95895 0
M  V30 4856 N 440.474 -0.00167713 -1.576 0
M  V30 4857 C 441.885 0.54091 -1.78693 0
M  V30 4858 C 442.236 1.7386 -0.909247 0
M  V30 4859 O 441.361 2.16109 -0.112176 0
M  V30 4860 C 441.956 0.98806 -3.24072 0
M  V30 4861 C 440.515 1.47594 -3.46256 0
M  V30 4862 C 439.662 0.42792 -2.73978 0
M  V30 4863 H 442.613 -0.22784 -1.57056 0
M  V30 4864 H 442.634 1.85398 -3.32277 0
M  V30 4865 H 442.146 0.116164 -3.87926 0
M  V30 4866 H 440.247 2.36868 -2.87618 0
M  V30 4867 H 440.36 1.50225 -4.54939 0
M  V30 4868 H 438.724 0.889934 -2.38647 0
M  V30 4869 H 439.507 -0.435038 -3.40532 0
M  V30 4870 N 441.952 1.55251 0.271103 0
M  V30 4871 C 443.201 1.75151 1.00025 0
M  V30 4872 C 443.514 0.561041 1.87381 0
M  V30 4873 O 444.72 0.642506 2.63788 0
M  V30 4874 C 443.176 3.09999 1.82835 0
M  V30 4875 C 442.784 4.3662 1.00336 0
M  V30 4876 C 444.528 3.39249 2.55168 0
M  V30 4877 C 442.435 5.62506 1.82595 0
M  V30 4878 H 441.365 0.652877 0.377183 0
M  V30 4879 H 444.016 1.81708 0.255843 0
M  V30 4880 H 442.398 2.97485 2.61378 0
M  V30 4881 H 443.572 4.60055 0.261959 0
M  V30 4882 H 441.887 4.14527 0.394486 0
M  V30 4883 H 444.484 4.3051 3.1712 0
M  V30 4884 H 444.827 2.59467 3.2555 0
M  V30 4885 H 445.36 3.52869 1.83653 0
M  V30 4886 H 442.099 6.45041 1.16631 0
M  V30 4887 H 441.619 5.43211 2.54327 0
M  V30 4888 H 443.298 6.00875 2.39913 0
M  V30 4889 N 443.43 -0.535701 1.48216 0
M  V30 4890 C 444.36 -1.65014 1.65204 0
M  V30 4891 C 445.341 -1.62554 0.501011 0
M  V30 4892 O 446.526 -1.7984 0.732886 0
M  V30 4893 C 443.656 -3.03616 1.68626 0
M  V30 4894 C 442.61 -3.20932 2.83172 0
M  V30 4895 C 441.936 -4.60537 2.71679 0
M  V30 4896 C 443.236 -3.04249 4.24535 0
M  V30 4897 H 444.93 -1.51053 2.58502 0
M  V30 4898 H 442.476 -0.725262 1.24402 0
M  V30 4899 H 444.429 -3.81446 1.79099 0
M  V30 4900 H 443.153 -3.18587 0.719026 0
M  V30 4901 H 441.812 -2.45517 2.72244 0
M  V30 4902 H 441.46 -4.72336 1.72937 0
M  V30 4903 H 441.16 -4.73069 3.48538 0
M  V30 4904 H 442.684 -5.40475 2.84112 0
M  V30 4905 H 444.098 -3.71877 4.36326 0
M  V30 4906 H 442.495 -3.28278 5.02348 0
M  V30 4907 H 443.565 -2.00739 4.41397 0
M  V30 4908 N 444.908 -1.36708 -0.784132 0
M  V30 4909 C 446.138 -1.34203 -1.57077 0
M  V30 4910 C 446.546 0.0774945 -1.89041 0
M  V30 4911 O 445.889 1.04628 -1.50992 0
M  V30 4912 C 445.951 -2.10351 -2.91535 0
M  V30 4913 C 445.615 -3.59405 -2.82272 0
M  V30 4914 C 446.612 -4.53545 -2.54151 0
M  V30 4915 C 444.297 -4.02362 -3.00683 0
M  V30 4916 C 446.291 -5.8862 -2.44551 0
M  V30 4917 C 443.978 -5.37526 -2.90704 0
M  V30 4918 C 444.976 -6.30468 -2.62677 0
M  V30 4919 O 444.664 -7.63149 -2.52702 0
M  V30 4920 H 444.396 -0.461791 -0.493685 0
M  V30 4921 H 446.95 -1.80475 -0.980712 0
M  V30 4922 H 445.18 -1.5875 -3.52612 0
M  V30 4923 H 446.869 -2.00636 -3.52845 0
M  V30 4924 H 447.635 -4.21669 -2.39625 0
M  V30 4925 H 443.514 -3.30389 -3.21503 0
M  V30 4926 H 447.058 -6.61133 -2.22596 0
M  V30 4927 H 442.955 -5.69008 -3.04795 0
M  V30 4928 H 443.723 -7.73331 -2.68144 0
M  V30 4929 N 446.386 1.0089 -1.21074 0
M  V30 4930 C 447.349 2.0775 -0.968129 0
M  V30 4931 C 448.349 1.6069 0.0593445 0
M  V30 4932 O 449.539 1.73293 -0.177525 0
M  V30 4933 C 446.671 3.37794 -0.459108 0
M  V30 4934 H 447.864 2.30707 -1.9161 0
M  V30 4935 H 445.417 1.17807 -1.02719 0
M  V30 4936 H 446.152 3.20516 0.49397 0
M  V30 4937 H 445.937 3.7328 -1.20019 0
M  V30 4938 H 447.427 4.16454 -0.309099 0
M  V30 4939 N 447.864 1.01787 1.20321 0
M  V30 4940 C 449.111 0.707936 1.89722 0
M  V30 4941 C 449.439 -0.762535 1.78929 0
M  V30 4942 O 448.694 -1.56977 1.16861 0
M  V30 4943 C 448.993 1.09076 3.40349 0
M  V30 4944 C 448.659 2.55765 3.71342 0
M  V30 4945 C 447.321 2.95845 3.79511 0
M  V30 4946 C 449.673 3.50723 3.85542 0
M  V30 4947 C 447.001 4.2982 3.99339 0
M  V30 4948 C 449.353 4.84387 4.06881 0
M  V30 4949 C 448.017 5.24172 4.1328 0
M  V30 4950 H 447.287 0.259052 0.694243 0
M  V30 4951 H 449.934 1.27868 1.42555 0
M  V30 4952 H 448.239 0.438453 3.89339 0
M  V30 4953 H 449.936 0.828636 3.92345 0
M  V30 4954 H 446.526 2.2371 3.65584 0
M  V30 4955 H 450.71 3.20916 3.78585 0
M  V30 4956 H 445.966 4.60196 4.02529 0
M  V30 4957 H 450.14 5.57891 4.1681 0
M  V30 4958 H 447.767 6.27997 4.28396 0
M  V30 4959 N 449.342 -1.36122 0.79427 0
M  V30 4960 C 450.272 -2.32551 0.210328 0
M  V30 4961 C 451.253 -1.56884 -0.657386 0
M  V30 4962 O 452.438 -1.85014 -0.590207 0
M  V30 4963 C 449.568 -3.41128 -0.651819 0
M  V30 4964 C 448.522 -4.27842 0.116395 0
M  V30 4965 C 447.848 -5.2763 -0.86666 0
M  V30 4966 C 449.148 -5.05647 1.30837 0
M  V30 4967 H 450.842 -2.81636 1.01594 0
M  V30 4968 H 448.388 -1.35407 0.489981 0
M  V30 4969 H 450.341 -4.07581 -1.07031 0
M  V30 4970 H 449.065 -2.90622 -1.49019 0
M  V30 4971 H 447.724 -3.62952 0.515915 0
M  V30 4972 H 447.372 -4.73395 -1.70019 0
M  V30 4973 H 447.072 -5.86514 -0.35705 0
M  V30 4974 H 448.596 -5.96955 -1.28361 0
M  V30 4975 H 450.01 -5.65113 0.965393 0
M  V30 4976 H 448.407 -5.73967 1.75161 0
M  V30 4977 H 449.477 -4.37006 2.10128 0
M  V30 4978 N 450.82 -0.546701 -1.47814 0
M  V30 4979 C 452.068 -0.0187037 -2.02091 0
M  V30 4980 C 452.389 1.33168 -1.42447 0
M  V30 4981 O 451.659 1.86619 -0.595839 0
M  V30 4982 H 450.239 -0.00392531 -0.74699 0
M  V30 4983 H 452.901 -0.714327 -1.81338 0
M  V30 4984 H 451.997 0.0772219 -3.12004 0
M  V30 4985 N 452.299 1.55045 -0.282633 0
M  V30 4986 C 453.262 2.21515 0.588539 0
M  V30 4987 C 454.262 1.19535 1.07554 0
M  V30 4988 O 455.452 1.44391 0.974514 0
M  V30 4989 C 452.584 2.88704 1.8128 0
M  V30 4990 H 453.777 2.99899 0.00806397 0
M  V30 4991 H 451.33 1.56265 -0.0333067 0
M  V30 4992 H 452.065 2.14352 2.43359 0
M  V30 4993 H 451.85 3.63443 1.47144 0
M  V30 4994 H 453.34 3.39465 2.43214 0
M  V30 4995 N 453.777 0.010035 1.57597 0
M  V30 4996 C 454.724 -0.978122 2.09049 0
M  V30 4997 C 455.694 -1.33509 0.988159 0
M  V30 4998 O 456.879 -1.43172 1.26121 0
M  V30 4999 C 454.019 -2.26158 2.60666 0
M  V30 5000 C 453.132 -1.96275 3.84838 0
M  V30 5001 C 452.267 -3.18776 4.24918 0
M  V30 5002 C 451.306 -2.84625 5.41899 0
M  V30 5003 N 450.443 -3.99693 5.77226 0
M  V30 5004 H 455.283 -0.532431 2.93205 0
M  V30 5005 H 452.82 -0.251234 1.44939 0
M  V30 5006 H 454.778 -3.01202 2.88675 0
M  V30 5007 H 453.408 -2.68378 1.79369 0
M  V30 5008 H 452.46 -1.11555 3.63675 0
M  V30 5009 H 453.772 -1.67111 4.69974 0
M  V30 5010 H 452.926 -4.02157 4.54262 0
M  V30 5011 H 451.665 -3.51087 3.38511 0
M  V30 5012 H 450.67 -1.99653 5.12268 0
M  V30 5013 H 451.895 -2.53551 6.29991 0
M  V30 5014 H 449.841 -4.31882 4.93776 0
M  V30 5015 H 449.758 -3.74087 6.56959 0
M  V30 5016 H 451.026 -4.83834 6.11167 0
M  V30 5017 N 455.255 -1.55392 -0.262866 0
M  V30 5018 C 456.502 -1.76476 -0.993109 0
M  V30 5019 C 456.83 -0.571479 -1.85915 0
M  V30 5020 O 456.085 0.445733 -1.90556 0
M  V30 5021 C 456.384 -3.02889 -1.89718 0
M  V30 5022 C 456.05 -4.34974 -1.18781 0
M  V30 5023 C 454.712 -4.7087 -0.991699 0
M  V30 5024 C 457.064 -5.16695 -0.683798 0
M  V30 5025 C 454.392 -5.86036 -0.279024 0
M  V30 5026 C 456.744 -6.32598 0.0153327 0
M  V30 5027 C 455.408 -6.67127 0.223062 0
M  V30 5028 H 454.678 -0.64577 -0.363404 0
M  V30 5029 H 457.325 -1.89664 -0.264525 0
M  V30 5030 H 455.63 -2.84644 -2.6923 0
M  V30 5031 H 457.327 -3.16399 -2.46359 0
M  V30 5032 H 453.917 -4.06765 -1.35058 0
M  V30 5033 H 458.101 -4.8943 -0.8229 0
M  V30 5034 H 453.357 -6.11306 -0.107456 0
M  V30 5035 H 457.531 -6.95171 0.413584 0
M  V30 5036 H 455.158 -7.56216 0.777265 0
M  V30 5037 N 456.733 0.527833 -1.48498 0
M  V30 5038 C 457.68 1.6322 -1.6318 0
M  V30 5039 C 458.65 1.59199 -0.473815 0
M  V30 5040 O 459.835 1.77591 -0.697563 0
M  V30 5041 C 456.975 3.01474 -1.67951 0
M  V30 5042 C 456.088 3.15713 -2.94871 0
M  V30 5043 C 455.223 4.44539 -2.90789 0
M  V30 5044 C 454.262 4.52315 -4.12404 0
M  V30 5045 N 453.399 5.72533 -4.06387 0
M  V30 5046 H 458.239 1.50011 -2.57489 0
M  V30 5047 H 455.776 0.730298 -1.27691 0
M  V30 5048 H 457.734 3.81572 -1.68698 0
M  V30 5049 H 456.364 3.1345 -0.771306 0
M  V30 5050 H 455.416 2.28854 -3.03859 0
M  V30 5051 H 456.728 3.1732 -3.8485 0
M  V30 5052 H 455.882 5.3293 -2.89949 0
M  V30 5053 H 454.621 4.45457 -1.98542 0
M  V30 5054 H 453.626 3.62331 -4.13517 0
M  V30 5055 H 454.851 4.53134 -5.05812 0
M  V30 5056 H 452.797 5.74344 -3.16962 0
M  V30 5057 H 452.714 5.75643 -4.90073 0
M  V30 5058 H 453.982 6.63204 -4.0961 0
M  V30 5059 N 458.211 1.37122 0.776871 0
M  V30 5060 C 459.439 1.3523 1.5659 0
M  V30 5061 C 459.854 -0.0635518 1.88693 0
M  V30 5062 O 459.211 -1.02394 1.51069 0
M  V30 5063 C 459.262 2.18583 2.8793 0
M  V30 5064 O 458.983 3.5465 2.57206 0
M  V30 5065 C 460.484 2.24612 3.82183 0
M  V30 5066 H 457.704 0.4634 0.485285 0
M  V30 5067 H 460.248 1.80392 0.963266 0
M  V30 5068 H 458.403 1.76943 3.4463 0
M  V30 5069 H 458.817 3.98286 3.41275 0
M  V30 5070 H 460.291 2.87267 4.71361 0
M  V30 5071 H 460.768 1.25309 4.20944 0
M  V30 5072 H 461.374 2.66543 3.31414 0
M  V30 5073 N 459.689 -1.00246 1.21608 0
M  V30 5074 C 460.914 -1.78167 1.06167 0
M  V30 5075 C 461.339 -1.84138 -0.384035 0
M  V30 5076 O 460.697 -1.28683 -1.27712 0
M  V30 5077 C 460.745 -3.19786 1.66642 0
M  V30 5078 O 459.849 -4.02153 0.913613 0
M  V30 5079 H 459.19 -0.549 0.37349 0
M  V30 5080 H 461.72 -1.25994 1.61204 0
M  V30 5081 H 461.73 -3.70451 1.70969 0
M  V30 5082 H 460.405 -3.14754 2.7185 0
M  V30 5083 H 458.982 -3.60711 0.945635 0
M  V30 5084 N 461.167 -1.02423 -1.1978 0
M  V30 5085 C 462.13 -0.605703 -2.21052 0
M  V30 5086 C 463.13 0.328209 -1.57415 0
M  V30 5087 O 464.32 0.115853 -1.73814 0
M  V30 5088 C 461.452 0.114366 -3.40708 0
M  V30 5089 H 462.645 -1.5017 -2.59594 0
M  V30 5090 H 460.198 -0.814888 -1.33376 0
M  V30 5091 H 460.933 1.02492 -3.07678 0
M  V30 5092 H 460.718 -0.556641 -3.88129 0
M  V30 5093 H 462.208 0.394272 -4.15735 0
M  V30 5094 N 462.645 1.35699 -0.801477 0
M  V30 5095 C 463.577 2.28598 -0.166028 0
M  V30 5096 C 464.59 1.50044 0.631721 0
M  V30 5097 O 465.779 1.72339 0.464921 0
M  V30 5098 C 462.879 3.29625 0.787451 0
M  V30 5099 C 462.052 4.37384 0.037171 0
M  V30 5100 C 461.111 5.183 0.908375 0
M  V30 5101 O 460.137 5.68053 0.361189 0
M  V30 5102 N 461.339 5.35912 2.23112 0
M  V30 5103 H 464.104 2.83771 -0.964071 0
M  V30 5104 H 461.665 1.47994 -0.656469 0
M  V30 5105 H 463.657 3.80648 1.37439 0
M  V30 5106 H 462.227 2.75004 1.48632 0
M  V30 5107 H 461.447 3.87364 -0.730935 0
M  V30 5108 H 462.735 5.0653 -0.480109 0
M  V30 5109 H 462.133 4.97125 2.69968 0
M  V30 5110 H 460.69 5.90133 2.76741 0
M  V30 5111 N 464.123 0.554532 1.47522 0
M  V30 5112 C 465.073 -0.215008 2.26984 0
M  V30 5113 C 466.057 -0.88774 1.34194 0
M  V30 5114 O 467.249 -0.786489 1.58567 0
M  V30 5115 C 464.378 -1.24604 3.19889 0
M  V30 5116 C 463.464 -0.576857 4.20159 0
M  V30 5117 N 463.855 0.351541 5.04577 0
M  V30 5118 C 462.153 -0.831104 4.38188 0
M  V30 5119 C 462.854 0.739995 5.76974 0
M  V30 5120 N 461.83 0.0954407 5.43516 0
M  V30 5121 H 465.632 0.498843 2.89636 0
M  V30 5122 H 463.146 0.374279 1.58028 0
M  V30 5123 H 465.143 -1.81128 3.75498 0
M  V30 5124 H 463.803 -1.96101 2.58794 0
M  V30 5125 H 464.814 0.725556 5.12792 0
M  V30 5126 H 461.491 -1.53479 3.88266 0
M  V30 5127 H 462.881 1.50271 6.5488 0
M  V30 5128 N 465.601 -1.54893 0.290851 0
M  V30 5129 C 466.564 -2.21824 -0.576784 0
M  V30 5130 C 467.564 -1.20104 -1.06919 0
M  V30 5131 O 468.754 -1.44906 -0.966843 0
M  V30 5132 C 465.886 -2.89662 -1.79747 0
M  V30 5133 H 467.079 -2.99899 0.00784051 0
M  V30 5134 H 464.632 -1.56245 0.0415934 0
M  V30 5135 H 465.367 -2.15639 -2.42219 0
M  V30 5136 H 465.152 -3.64219 -1.45214 0
M  V30 5137 H 466.642 -3.4075 -2.4141 0
M  V30 5138 N 467.08 -0.0183926 -1.57589 0
M  V30 5139 C 468.01 0.965596 -2.12599 0
M  V30 5140 C 468.991 1.34641 -1.0395 0
M  V30 5141 O 470.176 1.42693 -1.31729 0
M  V30 5142 C 467.306 2.25149 -2.64434 0
M  V30 5143 C 466.26 2.01175 -3.77773 0
M  V30 5144 C 465.586 3.35937 -4.15994 0
M  V30 5145 C 466.886 1.35953 -5.04296 0
M  V30 5146 H 468.58 0.507504 -2.95067 0
M  V30 5147 H 466.126 0.242671 -1.41941 0
M  V30 5148 H 468.079 2.94357 -3.01549 0
M  V30 5149 H 466.803 2.73105 -1.79112 0
M  V30 5150 H 465.462 1.34388 -3.4108 0
M  V30 5151 H 465.11 3.81631 -3.27669 0
M  V30 5152 H 464.81 3.20705 -4.92364 0
M  V30 5153 H 466.334 4.0643 -4.55683 0
M  V30 5154 H 467.748 1.95144 -5.39065 0
M  V30 5155 H 466.145 1.31152 -5.85593 0
M  V30 5156 H 467.215 0.331071 -4.83768 0
M  V30 5157 N 468.558 1.5553 0.254621 0
M  V30 5158 C 469.786 1.81046 1.00149 0
M  V30 5159 C 470.201 0.593047 1.79244 0
M  V30 5160 O 469.558 -0.438196 1.77161 0
M  V30 5161 C 469.609 3.04684 1.94551 0
M  V30 5162 O 469.33 4.21725 1.18658 0
M  V30 5163 C 470.831 3.42943 2.80901 0
M  V30 5164 H 468.051 0.602653 0.295044 0
M  V30 5165 H 470.595 2.02576 0.279842 0
M  V30 5166 H 468.75 2.85226 2.62154 0
M  V30 5167 H 469.164 4.91746 1.82445 0
M  V30 5168 H 470.638 4.32576 3.42902 0
M  V30 5169 H 471.115 2.63176 3.51617 0
M  V30 5170 H 471.721 3.64724 2.18762 0
M  V30 5171 N 470.036 -0.519951 1.48776 0
M  V30 5172 C 471.261 -1.30447 1.6124 0
M  V30 5173 C 471.686 -1.86055 0.276591 0
M  V30 5174 O 471.044 -1.64915 -0.753183 0
M  V30 5175 C 471.092 -2.42406 2.66967 0
M  V30 5176 O 470.196 -3.45728 2.24824 0
M  V30 5177 H 469.537 -0.385924 0.540332 0
M  V30 5178 H 472.067 -0.624572 1.94834 0
M  V30 5179 H 472.077 -2.88447 2.88552 0
M  V30 5180 H 470.752 -2.01294 3.63941 0
M  V30 5181 H 469.329 -3.05737 2.13494 0
M  V30 5182 N 471.514 -1.37532 -0.769588 0
M  V30 5183 C 472.76 -1.33057 -1.53048 0
M  V30 5184 C 473.093 0.0841865 -1.94017 0
M  V30 5185 O 472.368 1.04198 -1.64235 0
M  V30 5186 C 472.651 -2.27166 -2.79406 0
M  V30 5187 C 472.504 -3.77429 -2.44677 0
M  V30 5188 C 473.823 -2.19683 -3.81349 0
M  V30 5189 H 470.942 -0.484655 -0.555228 0
M  V30 5190 H 473.584 -1.68251 -0.882702 0
M  V30 5191 H 471.734 -1.97283 -3.34682 0
M  V30 5192 H 473.406 -4.17918 -1.953 0
M  V30 5193 H 471.649 -3.95892 -1.77346 0
M  V30 5194 H 472.32 -4.38716 -3.35011 0
M  V30 5195 H 474.796 -2.46029 -3.35573 0
M  V30 5196 H 473.672 -2.87668 -4.67481 0
M  V30 5197 H 473.933 -1.19045 -4.25771 0
M  V30 5198 N 472.992 0.995999 -1.22138 0
M  V30 5199 C 474.217 1.77601 -1.0711 0
M  V30 5200 C 474.642 1.84339 0.374264 0
M  V30 5201 O 474 1.29359 1.27028 0
M  V30 5202 C 474.048 3.18897 -1.68336 0
M  V30 5203 O 473.152 4.01663 -0.934928 0
M  V30 5204 H 472.493 0.547011 -0.376397 0
M  V30 5205 H 475.023 1.25137 -1.6187 0
M  V30 5206 H 475.033 3.69539 -1.72931 0
M  V30 5207 H 473.708 3.13308 -2.73516 0
M  V30 5208 H 472.285 3.60204 -0.964751 0
M  V30 5209 N 474.47 1.03057 1.19235 0
M  V30 5210 C 475.886 0.747947 1.40989 0
M  V30 5211 C 476.086 -0.666752 1.90149 0
M  V30 5212 O 475.142 -1.43249 2.07933 0
M  V30 5213 C 476.455 1.7855 2.41951 0
M  V30 5214 C 478.003 1.80524 2.55695 0
M  V30 5215 C 478.478 2.83243 3.59913 0
M  V30 5216 N 479.969 2.8207 3.67411 0
M  V30 5217 C 480.704 3.58204 4.47747 0
M  V30 5218 N 480.2 4.44057 5.31775 0
M  V30 5219 N 481.993 3.46738 4.42413 0
M  V30 5220 H 474.144 1.94367 0.856468 0
M  V30 5221 H 476.407 0.840412 0.438647 0
M  V30 5222 H 476.113 2.79973 2.12857 0
M  V30 5223 H 475.987 1.6092 3.41152 0
M  V30 5224 H 478.374 0.79778 2.84112 0
M  V30 5225 H 478.455 2.02229 1.56643 0
M  V30 5226 H 478.099 3.84161 3.32239 0
M  V30 5227 H 478.029 2.58795 4.5862 0
M  V30 5228 H 480.52 2.19803 3.074 0
M  V30 5229 H 480.833 4.98884 5.90199 0
M  V30 5230 H 479.178 4.48129 5.3123 0
M  V30 5231 H 482.369 2.79077 3.75811 0
M  V30 5232 H 482.542 4.06322 5.04783 0
M  V30 5233 N 475.948 -1.35272 0.808662 0
M  V30 5234 C 477.196 -1.98316 0.389233 0
M  V30 5235 C 477.517 -1.64465 -1.04767 0
M  V30 5236 O 476.787 -0.928175 -1.72516 0
M  V30 5237 H 475.367 -0.733585 0.140935 0
M  V30 5238 H 478.029 -1.6515 1.03496 0
M  V30 5239 H 477.125 -3.08123 0.496631 0
M  V30 5240 N 477.426 -0.562348 -1.47226 0
M  V30 5241 C 478.651 -0.0432632 -2.07355 0
M  V30 5242 C 479.076 1.24332 -1.41149 0
M  V30 5243 O 478.434 1.74603 -0.488226 0
M  V30 5244 C 478.482 0.130288 -3.60365 0
M  V30 5245 O 477.586 1.19166 -3.94808 0
M  V30 5246 H 476.927 -0.0536334 -0.66183 0
M  V30 5247 H 479.457 -0.779495 -1.89169 0
M  V30 5248 H 479.467 0.342881 -4.06557 0
M  V30 5249 H 478.142 -0.809389 -4.07948 0
M  V30 5250 H 476.719 0.959153 -3.60354 0
M  V30 5251 N 478.904 1.54736 -0.299062 0
M  V30 5252 C 480.129 2.04975 0.316254 0
M  V30 5253 C 480.554 1.17501 1.46885 0
M  V30 5254 O 479.912 0.178678 1.80417 0
M  V30 5255 C 479.96 3.52672 0.751997 0
M  V30 5256 O 479.064 3.68226 1.85697 0
M  V30 5257 H 478.405 0.661126 0.0617175 0
M  V30 5258 H 480.935 1.99805 -0.440341 0
M  V30 5259 H 480.945 3.94488 1.04133 0
M  V30 5260 H 479.62 4.158 -0.0911482 0
M  V30 5261 H 478.197 3.38316 1.56834 0
M  V30 5262 N 480.382 0.0267497 1.57577 0
M  V30 5263 C 481.312 -0.954308 2.13108 0
M  V30 5264 C 482.293 -1.34088 1.04663 0
M  V30 5265 O 483.478 -1.41992 1.32484 0
M  V30 5266 C 480.608 -2.23744 2.65624 0
M  V30 5267 C 479.562 -1.99168 3.78835 0
M  V30 5268 C 478.888 -3.33726 4.17769 0
M  V30 5269 C 480.188 -1.33277 5.0501 0
M  V30 5270 H 481.882 -0.491848 2.95332 0
M  V30 5271 H 479.428 -0.23514 1.42067 0
M  V30 5272 H 481.381 -2.92754 3.03106 0
M  V30 5273 H 480.105 -2.72151 1.80558 0
M  V30 5274 H 478.764 -1.32577 3.41788 0
M  V30 5275 H 478.412 -3.79888 3.29688 0
M  V30 5276 H 478.112 -3.18089 4.94058 0
M  V30 5277 H 479.636 -4.04008 4.57832 0
M  V30 5278 H 481.05 -1.92283 5.40093 0
M  V30 5279 H 479.447 -1.28045 5.8628 0
M  V30 5280 H 480.517 -0.305411 4.83937 0
M  V30 5281 N 481.861 -1.55662 -0.24637 0
M  V30 5282 C 482.808 -1.90361 -1.30504 0
M  V30 5283 C 483.778 -0.757905 -1.47801 0
M  V30 5284 O 484.963 -1.01161 -1.61775 0
M  V30 5285 C 482.103 -2.2042 -2.65535 0
M  V30 5286 C 481.216 -3.47799 -2.56242 0
M  V30 5287 C 480.351 -3.67426 -3.8363 0
M  V30 5288 C 479.39 -4.88403 -3.68956 0
M  V30 5289 N 478.527 -5.04548 -4.88237 0
M  V30 5290 H 483.367 -2.80645 -1.00213 0
M  V30 5291 H 480.904 -1.38924 -0.483577 0
M  V30 5292 H 482.862 -2.35853 -3.44135 0
M  V30 5293 H 481.492 -1.3334 -2.93973 0
M  V30 5294 H 480.544 -3.40694 -1.69208 0
M  V30 5295 H 481.856 -4.36544 -2.4131 0
M  V30 5296 H 481.01 -3.82821 -4.70673 0
M  V30 5297 H 479.749 -2.76914 -4.01459 0
M  V30 5298 H 478.754 -4.72984 -2.80296 0
M  V30 5299 H 479.979 -5.80375 -3.52621 0
M  V30 5300 H 477.925 -4.16974 -5.06427 0
M  V30 5301 H 477.842 -5.87384 -4.75937 0
M  V30 5302 H 479.11 -5.24355 -5.76777 0
M  V30 5303 N 483.339 0.512053 -1.4905 0
M  V30 5304 C 484.588 1.26343 -1.57227 0
M  V30 5305 C 484.901 1.93876 -0.259155 0
M  V30 5306 O 486.107 2.70612 -0.219358 0
M  V30 5307 C 484.563 2.29343 -2.77362 0
M  V30 5308 C 484.171 1.67799 -4.15388 0
M  V30 5309 C 485.915 3.05378 -2.94864 0
M  V30 5310 C 483.822 2.68845 -5.2676 0
M  V30 5311 H 482.752 0.475231 -0.585382 0
M  V30 5312 H 485.403 0.53862 -1.75417 0
M  V30 5313 H 483.785 3.04938 -2.52643 0
M  V30 5314 H 484.959 0.982715 -4.50199 0
M  V30 5315 H 483.274 1.04194 -4.03153 0
M  V30 5316 H 485.871 3.80921 -3.75238 0
M  V30 5317 H 486.214 3.62327 -2.05 0
M  V30 5318 H 486.747 2.36898 -3.19569 0
M  V30 5319 H 483.486 2.16692 -6.18647 0
M  V30 5320 H 483.006 3.36647 -4.96416 0
M  V30 5321 H 484.685 3.31487 -5.5563 0
M  V30 5322 N 484.817 1.37938 0.762283 0
M  V30 5323 C 485.747 1.37176 1.88958 0
M  V30 5324 C 486.728 0.238945 1.68413 0
M  V30 5325 O 487.913 0.440726 1.89133 0
M  V30 5326 C 485.043 1.18742 3.2637 0
M  V30 5327 C 483.997 2.29136 3.61498 0
M  V30 5328 C 483.323 1.95816 4.97554 0
M  V30 5329 C 484.623 3.71363 3.6727 0
M  V30 5330 H 486.317 2.31509 1.89853 0
M  V30 5331 H 483.863 1.11438 0.912005 0
M  V30 5332 H 485.816 1.16837 4.04879 0
M  V30 5333 H 484.54 0.208683 3.25933 0
M  V30 5334 H 483.199 2.30213 2.85303 0
M  V30 5335 H 482.847 0.964475 4.93667 0
M  V30 5336 H 482.547 2.69745 5.22026 0
M  V30 5337 H 484.071 1.95513 5.78452 0
M  V30 5338 H 485.485 3.72364 4.35911 0
M  V30 5339 H 483.882 4.44425 4.03245 0
M  V30 5340 H 484.952 4.04305 2.67704 0
M  V30 5341 N 486.295 -0.989507 1.22664 0
M  V30 5342 C 487.52 -1.77031 1.08051 0
M  V30 5343 C 487.945 -1.84535 -0.364483 0
M  V30 5344 O 487.303 -1.3003 -1.2634 0
M  V30 5345 C 487.351 -3.18 1.70024 0
M  V30 5346 O 486.455 -4.01161 0.956216 0
M  V30 5347 H 485.796 -0.545008 0.379292 0
M  V30 5348 H 488.326 -1.24277 1.62531 0
M  V30 5349 H 488.336 -3.68616 1.74888 0
M  V30 5350 H 487.011 -3.11853 2.75174 0
M  V30 5351 H 485.588 -3.59687 0.98384 0
M  V30 5352 N 487.773 -1.03688 -1.18687 0
M  V30 5353 C 488.72 -0.624624 -2.22187 0
M  V30 5354 C 489.69 0.365636 -1.62026 0
M  V30 5355 O 490.875 0.260481 -1.89014 0
M  V30 5356 C 488.015 0.0101738 -3.45099 0
M  V30 5357 C 487.128 -1.02709 -4.19613 0
M  V30 5358 C 486.263 -0.361213 -5.2997 0
M  V30 5359 C 485.302 -1.38384 -5.96252 0
M  V30 5360 N 484.439 -0.743196 -6.98155 0
M  V30 5361 H 489.279 -1.51176 -2.56807 0
M  V30 5362 H 486.816 -0.75636 -1.26165 0
M  V30 5363 H 488.774 0.395528 -4.15321 0
M  V30 5364 H 487.404 0.860848 -3.1111 0
M  V30 5365 H 486.456 -1.53043 -3.48256 0
M  V30 5366 H 487.768 -1.80398 -4.65036 0
M  V30 5367 H 486.922 0.0785537 -6.06649 0
M  V30 5368 H 485.661 0.447799 -4.8564 0
M  V30 5369 H 484.666 -1.83378 -5.18317 0
M  V30 5370 H 485.891 -2.19448 -6.42666 0
M  V30 5371 H 483.837 0.0455789 -6.55984 0
M  V30 5372 H 483.754 -1.45784 -7.41811 0
M  V30 5373 H 485.022 -0.327698 -7.78811 0
M  V30 5374 N 489.251 1.34841 -0.815825 0
M  V30 5375 C 490.499 1.98107 -0.399744 0
M  V30 5376 C 490.82 1.65019 1.03894 0
M  V30 5377 O 490.09 0.937311 1.72021 0
M  V30 5378 H 488.67 0.732827 -0.144823 0
M  V30 5379 H 491.332 1.64599 -1.0437 0
M  V30 5380 H 490.428 3.07856 -0.512965 0
M  V30 5381 N 490.729 0.570148 1.46925 0
M  V30 5382 C 491.676 -0.170257 2.30171 0
M  V30 5383 C 492.646 -0.896099 1.39855 0
M  V30 5384 O 493.831 -0.889248 1.68811 0
M  V30 5385 C 490.971 -1.18605 3.24079 0
M  V30 5386 C 490.084 -0.464947 4.29491 0
M  V30 5387 C 489.219 -1.46716 5.10537 0
M  V30 5388 C 488.258 -0.731758 6.0771 0
M  V30 5389 N 487.395 -1.68142 6.81669 0
M  V30 5390 H 492.235 0.545713 2.92961 0
M  V30 5391 H 489.772 0.280938 1.44392 0
M  V30 5392 H 491.73 -1.78771 3.76957 0
M  V30 5393 H 490.36 -1.86989 2.63125 0
M  V30 5394 H 489.412 0.251506 3.79568 0
M  V30 5395 H 490.724 0.110548 4.98677 0
M  V30 5396 H 489.878 -2.14199 5.6763 0
M  V30 5397 H 488.617 -2.07658 4.41282 0
M  V30 5398 H 487.622 -0.0430787 5.49783 0
M  V30 5399 H 488.847 -0.127904 6.7898 0
M  V30 5400 H 486.793 -2.27918 6.15134 0
M  V30 5401 H 486.71 -1.15841 7.47072 0
M  V30 5402 H 487.978 -2.347 7.43328 0
M  V30 5403 N 492.207 -1.54576 0.307264 0
M  V30 5404 C 493.623 -1.59534 -0.0459251 0
M  V30 5405 C 493.823 -1.32414 -1.51884 0
M  V30 5406 O 492.879 -1.1006 -2.27251 0
M  V30 5407 C 494.192 -2.98566 0.357649 0
M  V30 5408 C 495.74 -3.11491 0.306937 0
M  V30 5409 C 496.215 -4.52842 0.685427 0
M  V30 5410 N 497.706 -4.58782 0.638203 0
M  V30 5411 C 498.441 -5.66238 0.903458 0
M  V30 5412 N 497.937 -6.81703 1.23501 0
M  V30 5413 N 499.73 -5.55937 0.830102 0
M  V30 5414 H 491.881 -1.70464 1.26712 0
M  V30 5415 H 494.144 -0.79647 0.514139 0
M  V30 5416 H 493.85 -3.23356 1.38325 0
M  V30 5417 H 493.724 -3.76117 -0.285565 0
M  V30 5418 H 496.111 -2.86446 -0.709424 0
M  V30 5419 H 496.192 -2.36081 0.984861 0
M  V30 5420 H 495.836 -4.78618 1.69963 0
M  V30 5421 H 495.766 -5.26598 -0.0146346 0
M  V30 5422 H 498.257 -3.75849 0.393138 0
M  V30 5423 H 498.57 -7.59582 1.42322 0
M  V30 5424 H 496.915 -6.8324 1.27311 0
M  V30 5425 H 500.106 -4.64608 0.570693 0
M  V30 5426 H 500.279 -6.39597 1.04019 0
M  V30 5427 N 493.685 -0.035106 -1.57561 0
M  V30 5428 C 494.933 0.64096 -1.91667 0
M  V30 5429 C 495.254 1.72323 -0.912681 0
M  V30 5430 O 494.524 1.95849 0.0449089 0
M  V30 5431 H 493.104 0.239743 -0.707483 0
M  V30 5432 H 495.766 -0.084321 -1.94718 0
M  V30 5433 H 494.862 1.08987 -2.92452 0
M  V30 5434 N 495.163 1.55791 0.238111 0
M  V30 5435 C 496.411 1.77681 0.963001 0
M  V30 5436 C 496.732 0.600674 1.85518 0
M  V30 5437 O 496.002 -0.383182 1.92116 0
M  V30 5438 H 494.582 0.655315 0.358568 0
M  V30 5439 H 497.244 1.93239 0.253945 0
M  V30 5440 H 496.34 2.69177 1.57956 0
M  V30 5441 N 496.642 -0.504142 1.49319 0
M  V30 5442 C 497.592 -1.60284 1.62151 0
M  V30 5443 C 498.576 -1.53657 0.477315 0
M  V30 5444 O 499.768 -1.6124 0.730108 0
M  V30 5445 C 496.897 -2.98909 1.68844 0
M  V30 5446 C 495.983 -3.10544 2.8883 0
M  V30 5447 N 496.374 -2.92078 4.12946 0
M  V30 5448 C 494.672 -3.4164 2.86702 0
M  V30 5449 C 495.373 -3.07812 4.93585 0
M  V30 5450 N 494.349 -3.36549 4.26891 0
M  V30 5451 H 498.151 -1.44656 2.55835 0
M  V30 5452 H 495.665 -0.710198 1.46048 0
M  V30 5453 H 497.662 -3.77865 1.76134 0
M  V30 5454 H 496.322 -3.15609 0.762943 0
M  V30 5455 H 497.333 -2.68316 4.42975 0
M  V30 5456 H 494.01 -3.64537 2.03517 0
M  V30 5457 H 495.4 -2.98054 6.02174 0
M  V30 5458 N 498.12 -1.38341 -0.754957 0
M  V30 5459 C 499.345 -1.37882 -1.5493 0
M  V30 5460 C 499.77 0.0296385 -1.88077 0
M  V30 5461 O 499.128 1.01133 -1.50472 0
M  V30 5462 C 499.176 -2.23996 -2.82592 0
M  V30 5463 O 498.28 -1.65612 -3.77686 0
M  V30 5464 H 497.621 -0.470384 -0.468652 0
M  V30 5465 H 500.151 -1.82084 -0.933082 0
M  V30 5466 H 500.161 -2.37806 -3.3153 0
M  V30 5467 H 498.836 -3.26365 -2.57796 0
M  V30 5468 H 497.413 -1.60936 -3.36384 0
M  V30 5469 N 499.598 0.982988 -1.23187 0
M  V30 5470 C 500.823 1.76455 -1.08988 0
M  V30 5471 C 501.248 1.84726 0.354691 0
M  V30 5472 O 500.606 1.30699 1.25649 0
M  V30 5473 C 500.654 3.17094 -1.71708 0
M  V30 5474 O 499.758 4.00648 -0.977477 0
M  V30 5475 H 499.099 0.542988 -0.382177 0
M  V30 5476 H 501.629 1.23413 -1.63188 0
M  V30 5477 H 501.639 3.67684 -1.76841 0
M  V30 5478 H 500.314 3.10389 -2.76823 0
M  V30 5479 H 498.891 3.59161 -1.0029 0
M  V30 5480 N 501.076 1.04316 1.18135 0
M  V30 5481 C 502.322 0.749128 1.88457 0
M  V30 5482 C 502.655 -0.72149 1.803 0
M  V30 5483 O 501.93 -1.52676 1.205 0
M  V30 5484 C 502.213 1.21905 3.38838 0
M  V30 5485 C 502.066 2.75195 3.55792 0
M  V30 5486 C 503.385 0.811085 4.32561 0
M  V30 5487 H 500.504 0.273611 0.684329 0
M  V30 5488 H 503.146 1.29561 1.38975 0
M  V30 5489 H 501.296 0.754137 3.8111 0
M  V30 5490 H 502.968 3.29743 3.22595 0
M  V30 5491 H 501.211 3.14899 2.98364 0
M  V30 5492 H 501.882 3.03135 4.61317 0
M  V30 5493 H 504.358 1.21118 3.98082 0
M  V30 5494 H 503.234 1.16761 5.36338 0
M  V30 5495 H 503.495 -0.285596 4.41177 0
M  V30 5496 N 502.554 -1.34406 0.822964 0
M  V30 5497 C 503.779 -2.0304 0.423034 0
M  V30 5498 C 504.204 -1.61568 -0.963196 0
M  V30 5499 O 503.562 -0.800339 -1.62678 0
M  V30 5500 C 503.61 -3.56636 0.53321 0
M  V30 5501 O 502.714 -4.09971 -0.446939 0
M  V30 5502 H 502.055 -0.64075 0.174171 0
M  V30 5503 H 504.585 -1.71653 1.11339 0
M  V30 5504 H 504.595 -4.05945 0.408991 0
M  V30 5505 H 503.27 -3.86168 1.54425 0
M  V30 5506 H 501.847 -3.71835 -0.281601 0
M  V30 5507 N 504.032 -0.577932 -1.46621 0
M  V30 5508 C 505.26 -0.0671642 -2.06791 0
M  V30 5509 C 505.675 1.23571 -1.42743 0
M  V30 5510 O 505.032 1.74602 -0.531062 0
M  V30 5511 C 505.083 0.110357 -3.61332 0
M  V30 5512 O 504.804 -1.14095 -4.22982 0
M  V30 5513 C 506.305 0.656025 -4.38419 0
M  V30 5514 H 503.525 -0.0552732 -0.66872 0
M  V30 5515 H 506.069 -0.797242 -1.8832 0
M  V30 5516 H 504.224 0.790637 -3.79246 0
M  V30 5517 H 504.638 -0.951742 -5.15793 0
M  V30 5518 H 506.112 0.729438 -5.47159 0
M  V30 5519 H 506.589 1.67195 -4.06131 0
M  V30 5520 H 507.195 0.0107692 -4.25299 0
M  V30 5521 N 505.51 1.54411 -0.315457 0
M  V30 5522 C 506.42 2.27737 0.56329 0
M  V30 5523 C 507.436 1.31787 1.13614 0
M  V30 5524 O 508.612 1.64791 1.15784 0
M  V30 5525 C 505.677 3.01478 1.71207 0
M  V30 5526 C 504.738 4.12997 1.17185 0
M  V30 5527 C 503.971 4.83212 2.26588 0
M  V30 5528 O 504.194 4.52884 3.46775 0
M  V30 5529 O 503.128 5.70299 1.92463 0
M  V30 5530 H 506.954 3.03683 -0.0319614 0
M  V30 5531 H 504.539 1.49178 -0.0814188 0
M  V30 5532 H 506.421 3.47683 2.38106 0
M  V30 5533 H 505.096 2.28414 2.29366 0
M  V30 5534 H 504.003 3.71159 0.468174 0
M  V30 5535 H 505.336 4.8808 0.635501 0
M  V30 5536 N 506.988 0.0434614 1.5754 0
M  V30 5537 C 508.213 -0.645358 1.97104 0
M  V30 5538 C 508.638 -1.64037 0.920521 0
M  V30 5539 O 507.996 -1.80922 -0.11708 0
M  V30 5540 C 508.044 -1.31547 3.35749 0
M  V30 5541 O 507.148 -2.43103 3.33129 0
M  V30 5542 H 506.489 -0.168403 0.64229 0
M  V30 5543 H 509.019 0.109573 2.04306 0
M  V30 5544 H 509.029 -1.66895 3.72304 0
M  V30 5545 H 507.704 -0.586205 4.11748 0
M  V30 5546 H 506.281 -2.0976 3.0831 0
M  V30 5547 N 508.466 -1.55915 -0.229846 0
M  V30 5548 C 509.376 -1.94891 -1.30593 0
M  V30 5549 C 510.392 -0.851604 -1.51736 0
M  V30 5550 O 511.568 -1.15447 -1.65027 0
M  V30 5551 C 508.633 -2.25052 -2.63728 0
M  V30 5552 C 507.694 -3.48306 -2.5096 0
M  V30 5553 C 506.927 -3.77019 -3.77747 0
M  V30 5554 O 507.15 -3.07534 -4.80395 0
M  V30 5555 O 506.084 -4.70523 -3.75356 0
M  V30 5556 H 509.91 -2.86581 -1.00525 0
M  V30 5557 H 507.495 -1.43017 -0.432025 0
M  V30 5558 H 509.377 -2.45682 -3.42372 0
M  V30 5559 H 508.052 -1.36538 -2.93495 0
M  V30 5560 H 506.959 -3.32964 -1.70546 0
M  V30 5561 H 508.292 -4.37177 -2.26136 0
M  V30 5562 N 509.944 0.496216 -1.49584 0
M  V30 5563 C 511.169 1.27865 -1.63295 0
M  V30 5564 C 511.594 1.85592 -0.306156 0
M  V30 5565 O 510.952 1.66092 0.726851 0
M  V30 5566 C 511 2.38128 -2.7079 0
M  V30 5567 O 510.104 3.42108 -2.30296 0
M  V30 5568 H 509.445 0.377279 -0.546403 0
M  V30 5569 H 511.975 0.593497 -1.95803 0
M  V30 5570 H 511.985 2.8382 -2.93104 0
M  V30 5571 H 510.66 1.95479 -3.67098 0
M  V30 5572 H 509.237 3.02301 -2.18331 0
M  V30 5573 N 511.423 1.38739 0.74761 0
M  V30 5574 C 512.648 1.38702 1.54197 0
M  V30 5575 C 513.073 -0.019664 1.8809 0
M  V30 5576 O 512.431 -1.00333 1.51006 0
M  V30 5577 C 512.479 2.25492 2.814 0
M  V30 5578 O 511.583 1.67613 3.76802 0
M  V30 5579 H 510.924 0.472863 0.466151 0
M  V30 5580 H 513.454 1.82577 0.923413 0
M  V30 5581 H 513.464 2.39561 3.30264 0
M  V30 5582 H 512.139 3.27727 2.56062 0
M  V30 5583 H 510.716 1.62718 3.35526 0
M  V30 5584 N 512.901 -0.976442 1.23707 0
M  V30 5585 C 514.126 -1.75875 1.09922 0
M  V30 5586 C 514.551 -1.84911 -0.34489 0
M  V30 5587 O 513.909 -1.31363 -1.24954 0
M  V30 5588 C 513.957 -3.16179 1.73388 0
M  V30 5589 O 513.061 -4.00124 0.99871 0
M  V30 5590 H 512.402 -0.540954 0.385052 0
M  V30 5591 H 514.932 -1.22546 1.6384 0
M  V30 5592 H 514.942 -3.66741 1.78788 0
M  V30 5593 H 513.617 -3.08917 2.78466 0
M  V30 5594 H 512.194 -3.58624 1.02193 0
M  V30 5595 N 514.379 -1.04941 -1.1758 0
M  V30 5596 C 515.626 -0.757989 -1.87779 0
M  V30 5597 C 515.954 0.714827 -1.80888 0
M  V30 5598 O 515.209 1.53824 -1.20982 0
M  V30 5599 C 515.508 -1.18062 -3.37337 0
M  V30 5600 C 515.174 -2.65521 -3.6443 0
M  V30 5601 C 513.836 -3.05804 -3.71534 0
M  V30 5602 C 516.188 -3.60822 -3.76108 0
M  V30 5603 C 513.516 -4.40256 -3.87803 0
M  V30 5604 C 515.868 -4.95005 -3.93895 0
M  V30 5605 C 514.532 -5.34945 -3.99237 0
M  V30 5606 H 513.802 -0.277368 -0.68713 0
M  V30 5607 H 516.449 -1.31603 -1.39115 0
M  V30 5608 H 514.754 -0.541525 -3.8804 0
M  V30 5609 H 516.451 -0.932368 -3.9001 0
M  V30 5610 H 513.041 -2.33324 -3.59524 0
M  V30 5611 H 517.225 -3.30841 -3.69943 0
M  V30 5612 H 512.481 -4.70707 -3.90186 0
M  V30 5613 H 516.655 -5.68746 -4.01872 0
M  V30 5614 H 514.282 -6.39135 -4.11596 0
M  V30 5615 N 515.857 1.33968 -0.830081 0
M  V30 5616 C 516.807 2.26845 -0.229242 0
M  V30 5617 C 517.791 1.48862 0.610659 0
M  V30 5618 O 518.983 1.70808 0.464067 0
M  V30 5619 C 516.112 3.3798 0.602057 0
M  V30 5620 C 515.198 4.23369 -0.248866 0
M  V30 5621 N 515.589 4.88182 -1.32334 0
M  V30 5622 C 513.887 4.45987 -0.0344077 0
M  V30 5623 C 514.588 5.51671 -1.84482 0
M  V30 5624 N 513.564 5.31348 -1.14762 0
M  V30 5625 H 517.366 2.74464 -1.05104 0
M  V30 5626 H 514.88 1.4777 -0.673623 0
M  V30 5627 H 516.877 4.03494 1.04873 0
M  V30 5628 H 515.537 2.9191 1.42193 0
M  V30 5629 H 516.548 4.88988 -1.70619 0
M  V30 5630 H 513.225 4.10658 0.752727 0
M  V30 5631 H 514.615 6.13308 -2.74413 0
M  V30 5632 N 517.335 0.585699 1.46312 0
M  V30 5633 C 518.56 0.0762461 2.0726 0
M  V30 5634 C 518.985 -1.22071 1.43109 0
M  V30 5635 O 518.343 -1.73804 0.515942 0
M  V30 5636 C 518.391 -0.0729404 3.60526 0
M  V30 5637 O 517.495 -1.1287 3.96654 0
M  V30 5638 H 516.836 0.0641558 0.660893 0
M  V30 5639 H 519.366 0.809492 1.87905 0
M  V30 5640 H 519.376 -0.278158 4.07051 0
M  V30 5641 H 518.051 0.874188 4.06609 0
M  V30 5642 H 516.628 -0.901703 3.61834 0
M  V30 5643 N 518.813 -1.54241 0.323641 0
M  V30 5644 C 520.038 -2.05452 -0.283605 0
M  V30 5645 C 520.463 -1.19823 -1.44997 0
M  V30 5646 O 519.821 -0.207358 -1.8011 0
M  V30 5647 C 519.869 -3.53823 -0.695795 0
M  V30 5648 O 518.973 -3.71134 -1.79815 0
M  V30 5649 H 518.314 -0.662024 -0.0511917 0
M  V30 5650 H 520.844 -1.99079 0.472073 0
M  V30 5651 H 520.854 -3.96094 -0.978434 0
M  V30 5652 H 519.529 -4.15602 0.157287 0
M  V30 5653 H 518.106 -3.40768 -1.51431 0
M  V30 5654 O 520.33 -0.191128 -1.60365 0
M  V30 5655 H 521.021 0.395023 -1.89629 0
M  V30 END ATOM
M  V30 BEGIN BOND
M  V30 END BOND
M  V30 END CTAB
M  END
$$$$
