drugbank_target|P13000 ATP-dependent dethiobiotin synthetase BioD 1 (DB01715; DB02927; DB02941; DB03624; DB03775)
 OpenBabel12092119513D

  0  0  0     0  0            999 V3000
M  V30 BEGIN CTAB
M  V30 COUNTS 3400 3439 0 0 0
M  V30 BEGIN ATOM
M  V30 1 H -0.908 1.98254 -0.117106 0
M  V30 2 N 0 1.576 0 0
M  V30 3 C 0.933 2.03868 1.02534 0
M  V30 4 C 1.911 0.928543 1.3348 0
M  V30 5 O 3.095 1.19667 1.45644 0
M  V30 6 C 0.222 2.43627 2.35294 0
M  V30 7 C -0.732 3.65373 2.2001 0
M  V30 8 S 0.101 5.13292 1.52614 0
M  V30 9 C 1.257 5.56322 2.86805 0
M  V30 10 H 1.49 2.90518 0.631377 0
M  V30 11 H -0.977 1.52953 0.210867 0
M  V30 12 H 0.981 2.67203 3.11629 0
M  V30 13 H -0.358 1.57376 2.7183 0
M  V30 14 H -1.165 3.90944 3.18086 0
M  V30 15 H -1.563 3.418 1.51819 0
M  V30 16 H 0.729 5.58782 3.83104 0
M  V30 17 H 1.672 6.56266 2.65933 0
M  V30 18 H 2.08 4.83886 2.90714 0
M  V30 19 N 1.4781 -0.272755 1.55222 0
M  V30 20 C 2.7031 -1.02683 1.80197 0
M  V30 21 C 3.1281 -1.79142 0.573551 0
M  V30 22 O 2.4861 -1.74917 -0.476849 0
M  V30 23 C 2.5341 -1.9609 3.02624 0
M  V30 24 O 1.6381 -3.04863 2.77727 0
M  V30 25 H 0.9791 -0.293557 0.595584 0
M  V30 26 H 3.5091 -0.30159 2.02365 0
M  V30 27 H 3.5191 -2.38039 3.31363 0
M  V30 28 H 2.1941 -1.39851 3.91682 0
M  V30 29 H 0.7711 -2.67228 2.60084 0
M  V30 30 N 2.9562 -1.48159 -0.537278 0
M  V30 31 C 3.9032 -1.62138 -1.64256 0
M  V30 32 C 4.8732 -0.463668 -1.59497 0
M  V30 33 O 6.0582 -0.686241 -1.78032 0
M  V30 34 C 3.1982 -1.66028 -3.02537 0
M  V30 35 C 2.3112 -2.92855 -3.17585 0
M  V30 36 C 1.4462 -2.87952 -4.46382 0
M  V30 37 C 0.4852 -4.09516 -4.54932 0
M  V30 38 N -0.3778 -4.02733 -5.75109 0
M  V30 39 H 4.4622 -2.56529 -1.51647 0
M  V30 40 H 1.9992 -1.27224 -0.738414 0
M  V30 41 H 3.9572 -1.66265 -3.82638 0
M  V30 42 H 2.5872 -0.751331 -3.13934 0
M  V30 43 H 1.6392 -3.02395 -2.30784 0
M  V30 44 H 2.9512 -3.82822 -3.19764 0
M  V30 45 H 2.1052 -2.8655 -5.34765 0
M  V30 46 H 0.8442 -1.95702 -4.46712 0
M  V30 47 H -0.1508 -4.11201 -3.64957 0
M  V30 48 H 1.0742 -5.02917 -4.56346 0
M  V30 49 H -0.9798 -3.13299 -5.76351 0
M  V30 50 H -1.0628 -4.86397 -5.78752 0
M  V30 51 H 0.2052 -4.05379 -6.65799 0
M  V30 52 N 4.4343 0.785586 -1.36625 0
M  V30 53 C 5.8503 1.08419 -1.17122 0
M  V30 54 C 6.0503 2.015 0.00208491 0
M  V30 55 O 5.1063 2.43551 0.666278 0
M  V30 56 C 6.4193 1.69498 -2.48377 0
M  V30 57 C 7.9673 1.81821 -2.54775 0
M  V30 58 C 8.4423 2.46315 -3.86126 0
M  V30 59 N 9.9333 2.53779 -3.87492 0
M  V30 60 C 10.6683 3.045 -4.85868 0
M  V30 61 N 10.1643 3.55499 -5.94637 0
M  V30 62 N 11.9573 3.03247 -4.73284 0
M  V30 63 H 4.1083 0.167264 -2.1174 0
M  V30 64 H 6.3713 0.13682 -0.938075 0
M  V30 65 H 6.0773 1.08571 -3.34522 0
M  V30 66 H 5.9513 2.6896 -2.64462 0
M  V30 67 H 8.3383 2.41884 -1.69045 0
M  V30 68 H 8.4193 0.811532 -2.42586 0
M  V30 69 H 8.0633 1.86895 -4.72263 0
M  V30 70 H 7.9933 3.47561 -3.95612 0
M  V30 71 H 10.4843 2.17672 -3.08913 0
M  V30 72 H 10.7973 3.92562 -6.65669 0
M  V30 73 H 9.1423 3.5364 -5.98301 0
M  V30 74 H 12.3333 2.62696 -3.87438 0
M  V30 75 H 12.5063 3.42467 -5.50109 0
M  V30 76 N 5.9124 1.20967 1.01018 0
M  V30 77 C 7.1424 1.04803 1.78044 0
M  V30 78 C 7.5504 -0.405462 1.84804 0
M  V30 79 O 6.8934 -1.2932 1.30468 0
M  V30 80 C 6.9554 1.56377 3.23707 0
M  V30 81 C 6.6194 3.04767 3.40538 0
M  V30 82 C 7.6164 4.02366 3.29239 0
M  V30 83 C 5.3014 3.43862 3.66147 0
M  V30 84 C 7.2954 5.37049 3.43304 0
M  V30 85 C 4.9824 4.78699 3.79855 0
M  V30 86 C 5.9804 5.75101 3.68439 0
M  V30 87 O 5.6684 7.07493 3.81719 0
M  V30 88 H 5.4004 0.368778 0.56655 0
M  V30 89 H 7.9544 1.60642 1.27997 0
M  V30 90 H 6.1844 0.949297 3.74867 0
M  V30 91 H 7.8734 1.36136 3.8239 0
M  V30 92 H 8.6394 3.73506 3.09384 0
M  V30 93 H 4.5184 2.69364 3.74118 0
M  V30 94 H 8.0624 6.12277 3.34309 0
M  V30 95 H 3.9594 5.07247 3.99213 0
M  V30 96 H 4.7274 7.1483 3.98697 0
M  V30 97 N 7.3905 -1.2043 1.01659 0
M  V30 98 C 8.6375 -1.89797 0.705917 0
M  V30 99 C 8.9655 -1.78848 -0.764439 0
M  V30 100 O 8.2205 -1.16694 -1.57102 0
M  V30 101 C 8.5195 -3.40464 1.08714 0
M  V30 102 C 8.1855 -3.71614 2.5537 0
M  V30 103 C 6.8475 -3.79826 2.95441 0
M  V30 104 C 9.1995 -3.85915 3.50313 0
M  V30 105 C 6.5275 -3.99797 4.29394 0
M  V30 106 C 8.8795 -4.07396 4.83954 0
M  V30 107 C 7.5435 -4.13837 5.23732 0
M  V30 108 H 6.8135 -0.694518 0.258313 0
M  V30 109 H 9.4605 -1.42691 1.27717 0
M  V30 110 H 7.7655 -3.89385 0.434309 0
M  V30 111 H 9.4625 -3.92433 0.824461 0
M  V30 112 H 6.0525 -3.65822 2.23321 0
M  V30 113 H 10.2365 -3.78926 3.20513 0
M  V30 114 H 5.4925 -4.03018 4.59768 0
M  V30 115 H 9.6665 -4.17404 5.57447 0
M  V30 116 H 7.2935 -4.29064 6.27541 0
M  V30 117 N 8.8686 -0.792821 -1.36206 0
M  V30 118 C 10.1146 -0.36733 -1.99446 0
M  V30 119 C 10.4476 1.05917 -1.62774 0
M  V30 120 O 9.7226 1.7324 -0.88421 0
M  V30 121 C 10.0056 -0.535044 -3.56103 0
M  V30 122 C 9.8586 -2.00548 -4.02617 0
M  V30 123 C 11.1776 0.0478191 -4.40074 0
M  V30 124 H 8.2966 -0.134941 -0.724541 0
M  V30 125 H 10.9386 -0.999794 -1.61568 0
M  V30 126 H 9.0886 0.00336329 -3.885 0
M  V30 127 H 10.7606 -2.60521 -3.80692 0
M  V30 128 H 9.0036 -2.50686 -3.54032 0
M  V30 129 H 9.6746 -2.07377 -5.11565 0
M  V30 130 H 12.1506 -0.411822 -4.14057 0
M  V30 131 H 11.0266 -0.0995336 -5.4881 0
M  V30 132 H 11.2876 1.14025 -4.27142 0
M  V30 133 N 10.3467 1.47872 -0.545128 0
M  V30 134 C 11.5747 2.06889 -0.021084 0
M  V30 135 C 11.9897 1.39955 1.2672 0
M  V30 136 O 11.3467 0.492036 1.75742 0
M  V30 137 C 11.3977 3.60996 0.190817 0
M  V30 138 O 11.1187 4.25419 -1.04644 0
M  V30 139 C 12.6197 4.36849 0.753521 0
M  V30 140 H 9.8397 0.669785 -0.0403635 0
M  V30 141 H 12.3837 1.90049 -0.755095 0
M  V30 142 H 10.5387 3.77391 0.87492 0
M  V30 143 H 10.9527 5.17785 -0.836611 0
M  V30 144 H 12.4267 5.45399 0.851139 0
M  V30 145 H 12.9037 4.02306 1.762 0
M  V30 146 H 13.5097 4.25169 0.105503 0
M  V30 147 N 11.8248 0.280983 1.55075 0
M  V30 148 C 13.0728 -0.333455 1.9933 0
M  V30 149 C 13.3938 -1.55937 1.17085 0
M  V30 150 O 12.6638 -1.94143 0.261805 0
M  V30 151 H 11.2438 -0.126197 0.736263 0
M  V30 152 H 13.9058 0.387678 1.91005 0
M  V30 153 H 13.0018 -0.619292 3.05894 0
M  V30 154 N 13.3029 -1.57598 0.00835791 0
M  V30 155 C 14.5309 -1.95214 -0.68549 0
M  V30 156 C 14.9459 -0.883706 -1.66841 0
M  V30 157 O 14.3029 0.136565 -1.81988 0
M  V30 158 C 14.3539 -3.32865 -1.41007 0
M  V30 159 O 14.0749 -4.35609 -0.466552 0
M  V30 160 C 15.5759 -3.84991 -2.19765 0
M  V30 161 H 12.7959 -0.643422 -0.190392 0
M  V30 162 H 15.3399 -2.04406 0.0619607 0
M  V30 163 H 13.4949 -3.24956 -2.10908 0
M  V30 164 H 13.9089 -5.15288 -0.978699 0
M  V30 165 H 15.3829 -4.8371 -2.65948 0
M  V30 166 H 15.8599 -3.18137 -3.02796 0
M  V30 167 H 16.4659 -3.96103 -1.54864 0
M  V30 168 N 14.781 0.264519 -1.55364 0
M  V30 169 C 16.058 1.01677 -1.67096 0
M  V30 170 C 16.438 2.03996 -0.543015 0
M  V30 171 O 15.786 2.23907 0.45585 0
M  V30 172 C 15.996 1.66596 -3.0667 0
M  V30 173 C 17.344 2.17442 -3.64697 0
M  V30 174 O 18.368 1.76568 -3.09358 0
M  V30 175 O 17.227 2.92439 -4.61673 0
M  V30 176 H 14.321 0.472161 -0.678965 0
M  V30 177 H 16.867 0.259703 -1.67701 0
M  V30 178 H 15.639 0.924962 -3.80211 0
M  V30 179 H 15.262 2.48968 -3.10001 0
M  V30 180 N 16.2591 1.48442 0.529413 0
M  V30 181 C 17.4871 1.60151 1.30994 0
M  V30 182 C 17.9021 0.261985 1.86973 0
M  V30 183 O 17.2591 -0.748805 1.66431 0
M  V30 184 C 17.3101 2.64854 2.46038 0
M  V30 185 O 17.0311 3.93608 1.92365 0
M  V30 186 C 18.5321 2.87007 3.37849 0
M  V30 187 H 15.7521 0.539971 0.398338 0
M  V30 188 H 18.2961 1.94273 0.638597 0
M  V30 189 H 16.4511 2.33589 3.09055 0
M  V30 190 H 16.8651 4.51055 2.67675 0
M  V30 191 H 18.3391 3.64068 4.14919 0
M  V30 192 H 18.8161 1.95852 3.93114 0
M  V30 193 H 19.4221 3.19579 2.80623 0
M  V30 194 N 17.7372 -0.778329 1.37039 0
M  V30 195 C 18.6472 -1.92253 1.34446 0
M  V30 196 C 19.6632 -1.72267 0.244991 0
M  V30 197 O 20.8392 -1.95615 0.479258 0
M  V30 198 C 17.9042 -3.27282 1.144 0
M  V30 199 C 16.9652 -3.59969 2.33925 0
M  V30 200 C 16.1982 -4.88555 2.14825 0
M  V30 201 O 16.4212 -5.59113 1.12912 0
M  V30 202 O 15.3552 -5.20153 3.02861 0
M  V30 203 H 19.1812 -1.97392 2.30803 0
M  V30 204 H 16.7662 -0.920154 1.17701 0
M  V30 205 H 18.6482 -4.08062 1.05182 0
M  V30 206 H 17.3232 -3.23011 0.211124 0
M  V30 207 H 16.2302 -2.7945 2.48714 0
M  V30 208 H 17.5632 -3.68976 3.25757 0
M  V30 209 N 19.2153 -1.21501 -1.00376 0
M  V30 210 C 20.4613 -1.03452 -1.74429 0
M  V30 211 C 20.7943 0.430764 -1.89362 0
M  V30 212 O 20.0693 1.31962 -1.42886 0
M  V30 213 C 20.3523 -1.73375 -3.15615 0
M  V30 214 C 20.2053 -3.27431 -3.08397 0
M  V30 215 C 21.5243 -1.47732 -4.14564 0
M  V30 216 H 18.6433 -0.377226 -0.633143 0
M  V30 217 H 21.2853 -1.49693 -1.17013 0
M  V30 218 H 19.4353 -1.34064 -3.64636 0
M  V30 219 H 21.1073 -3.76119 -2.67081 0
M  V30 220 H 19.3503 -3.5767 -2.45468 0
M  V30 221 H 20.0213 -3.71524 -4.08258 0
M  V30 222 H 22.4973 -1.8186 -3.74254 0
M  V30 223 H 21.3733 -1.99169 -5.11491 0
M  V30 224 H 21.6343 -0.407589 -4.40217 0
M  V30 225 N 20.6934 1.19889 -1.02296 0
M  V30 226 C 21.9414 1.89046 -0.714558 0
M  V30 227 C 22.2624 1.79636 0.758681 0
M  V30 228 O 21.5324 1.20292 1.54618 0
M  V30 229 H 20.1124 0.699802 -0.261317 0
M  V30 230 H 22.7744 1.45574 -1.29592 0
M  V30 231 H 21.8704 2.95524 -1.0036 0
M  V30 232 N 22.1715 0.800033 1.35784 0
M  V30 233 C 23.1185 0.203848 2.29898 0
M  V30 234 C 24.0885 -0.658375 1.52495 0
M  V30 235 O 25.2735 -0.604832 1.8096 0
M  V30 236 C 22.4135 -0.64688 3.38983 0
M  V30 237 C 21.5265 0.235054 4.3136 0
M  V30 238 C 20.6615 -0.623054 5.27533 0
M  V30 239 C 19.7005 0.259682 6.11549 0
M  V30 240 N 18.8375 -0.558019 6.99879 0
M  V30 241 H 23.6775 1.01186 2.80295 0
M  V30 242 H 21.2145 0.51053 1.37957 0
M  V30 243 H 23.1725 -1.15521 4.00887 0
M  V30 244 H 21.8025 -1.42021 2.89879 0
M  V30 245 H 20.8545 0.861438 3.70518 0
M  V30 246 H 22.1665 0.914768 4.9034 0
M  V30 247 H 21.3205 -1.19678 5.94779 0
M  V30 248 H 20.0595 -1.33636 4.69034 0
M  V30 249 H 19.0645 0.845726 5.43256 0
M  V30 250 H 20.2895 0.970748 6.72126 0
M  V30 251 H 18.2355 -1.25542 6.43875 0
M  V30 252 H 18.1525 0.0637872 7.55973 0
M  V30 253 H 19.4205 -1.11523 7.71481 0
M  V30 254 N 23.6496 -1.47581 0.552962 0
M  V30 255 C 24.8776 -2.06875 0.0320556 0
M  V30 256 C 25.2926 -1.40625 -1.25976 0
M  V30 257 O 24.6496 -0.501349 -1.75479 0
M  V30 258 C 24.7006 -3.61092 -0.17167 0
M  V30 259 O 24.4216 -4.24858 1.06899 0
M  V30 260 C 25.9226 -4.37242 -0.730344 0
M  V30 261 H 23.1426 -0.669561 0.043915 0
M  V30 262 H 25.6866 -1.89646 0.765163 0
M  V30 263 H 23.8416 -3.7785 -0.854894 0
M  V30 264 H 24.2556 -5.17334 0.864059 0
M  V30 265 H 25.7296 -5.45842 -0.822203 0
M  V30 266 H 26.2066 -4.03235 -1.74064 0
M  V30 267 H 26.8126 -4.25219 -0.0829543 0
M  V30 268 N 25.1277 -0.289203 -1.54924 0
M  V30 269 C 26.3737 0.323998 -2.00195 0
M  V30 270 C 26.7067 1.54441 -1.17735 0
M  V30 271 O 25.9817 1.92875 -0.250878 0
M  V30 272 C 26.2647 0.692276 -3.53383 0
M  V30 273 C 26.1177 -0.536457 -4.46589 0
M  V30 274 C 27.4367 1.52335 -4.12895 0
M  V30 275 H 24.5557 0.116289 -0.727768 0
M  V30 276 H 27.1977 -0.398954 -1.85764 0
M  V30 277 H 25.3477 1.30822 -3.65811 0
M  V30 278 H 27.0197 -1.17499 -4.46085 0
M  V30 279 H 25.2627 -1.17192 -4.1767 0
M  V30 280 H 25.9337 -0.234806 -5.515 0
M  V30 281 H 28.4097 1.00302 -4.0383 0
M  V30 282 H 27.2857 1.74982 -5.20262 0
M  V30 283 H 27.5467 2.50886 -3.64018 0
M  V30 284 N 26.6058 1.57591 -0.0167156 0
M  V30 285 C 27.5688 2.08393 0.954204 0
M  V30 286 C 28.5688 0.996531 1.26198 0
M  V30 287 O 29.7588 1.25858 1.20438 0
M  V30 288 C 26.8908 2.5394 2.27436 0
M  V30 289 H 28.0838 2.95455 0.514451 0
M  V30 290 H 25.6368 1.54582 0.231089 0
M  V30 291 H 26.3718 1.70171 2.76066 0
M  V30 292 H 26.1568 3.33371 2.06412 0
M  V30 293 H 27.6468 2.93512 2.97053 0
M  V30 294 N 28.0839 -0.256276 1.55502 0
M  V30 295 C 29.3089 -1.00766 1.81276 0
M  V30 296 C 29.7339 -1.78524 0.59252 0
M  V30 297 O 29.0919 -1.75413 -0.45827 0
M  V30 298 C 29.1399 -1.92869 3.04687 0
M  V30 299 O 28.2439 -3.019 2.80945 0
M  V30 300 H 27.5849 -0.287224 0.598664 0
M  V30 301 H 30.1149 -0.280109 2.02674 0
M  V30 302 H 30.1249 -2.34511 3.33869 0
M  V30 303 H 28.7999 -1.35689 3.93143 0
M  V30 304 H 27.3769 -2.64454 2.62904 0
M  V30 305 N 29.562 -1.4872 -0.521534 0
M  V30 306 C 30.802 -1.58771 -1.28729 0
M  V30 307 C 31.166 -0.259394 -1.9024 0
M  V30 308 O 32.367 -0.234942 -2.67771 0
M  V30 309 C 30.638 -2.70039 -2.34124 0
M  V30 310 S 32.197 -2.9991 -3.20312 0
M  V30 311 H 29.015 -0.560251 -0.437767 0
M  V30 312 H 31.617 -1.86283 -0.593188 0
M  V30 313 H 30.321 -3.65101 -1.87429 0
M  V30 314 H 29.852 -2.44455 -3.08229 0
M  V30 315 H 31.867 -2.39855 -4.34378 0
M  V30 316 N 31.0401 0.771051 -1.3745 0
M  V30 317 C 32.0031 1.86598 -1.33093 0
M  V30 318 C 33.0031 1.59076 -0.234845 0
M  V30 319 O 34.1931 1.67145 -0.490732 0
M  V30 320 C 31.3251 3.23747 -1.06773 0
M  V30 321 H 32.5181 1.91873 -2.30488 0
M  V30 322 H 30.0711 0.970876 -1.2249 0
M  V30 323 H 30.8061 3.24148 -0.099129 0
M  V30 324 H 30.5911 3.45115 -1.86112 0
M  V30 325 H 32.0811 4.03824 -1.06377 0
M  V30 326 N 32.5182 1.22032 0.997298 0
M  V30 327 C 33.4482 1.01065 2.10495 0
M  V30 328 C 34.4292 -0.0669542 1.69968 0
M  V30 329 O 35.6142 0.0943987 1.9397 0
M  V30 330 C 32.7442 0.582874 3.42374 0
M  V30 331 C 31.6982 1.60592 3.96729 0
M  V30 332 C 31.0242 1.03412 5.24605 0
M  V30 333 C 32.3242 2.99478 4.27914 0
M  V30 334 H 34.0182 1.93708 2.28292 0
M  V30 335 H 31.5642 0.932761 1.09707 0
M  V30 336 H 33.5172 0.423332 4.19268 0
M  V30 337 H 32.2412 -0.379213 3.24391 0
M  V30 338 H 30.9002 1.75316 3.21963 0
M  V30 339 H 30.5482 0.063518 5.0296 0
M  V30 340 H 30.2482 1.71754 5.61938 0
M  V30 341 H 31.7722 0.886066 6.04137 0
M  V30 342 H 33.1862 2.88153 4.95622 0
M  V30 343 H 31.5832 3.64903 4.76409 0
M  V30 344 H 32.6532 3.49742 3.3587 0
M  V30 345 N 33.9963 -1.19345 1.0293 0
M  V30 346 C 34.9263 -2.2481 0.631105 0
M  V30 347 C 35.9073 -1.66245 -0.360104 0
M  V30 348 O 37.0923 -1.92677 -0.242726 0
M  V30 349 C 34.2223 -3.47295 -0.0184607 0
M  V30 350 C 33.1763 -4.18536 0.895073 0
M  V30 351 C 32.5023 -5.34586 0.110592 0
M  V30 352 C 33.8023 -4.73287 2.209 0
M  V30 353 H 35.4963 -2.58372 1.51275 0
M  V30 354 H 33.0423 -1.24194 0.728818 0
M  V30 355 H 34.9953 -4.20268 -0.308675 0
M  V30 356 H 33.7193 -3.12933 -0.934907 0
M  V30 357 H 32.3783 -3.47446 1.16949 0
M  V30 358 H 32.0263 -4.96469 -0.807902 0
M  V30 359 H 31.7263 -5.83183 0.719087 0
M  V30 360 H 33.2503 -6.10355 -0.172871 0
M  V30 361 H 34.6643 -5.38013 1.98028 0
M  V30 362 H 33.0613 -5.32373 2.76946 0
M  V30 363 H 34.1313 -3.91331 2.86336 0
M  V30 364 N 35.4744 -0.807222 -1.35358 0
M  V30 365 C 36.4064 -0.175717 -2.28525 0
M  V30 366 C 37.4194 0.625354 -1.5031 0
M  V30 367 O 38.6084 0.457611 -1.72535 0
M  V30 368 C 35.7084 0.773471 -3.29956 0
M  V30 369 C 34.8814 0.0186296 -4.37396 0
M  V30 370 C 33.9404 0.886395 -5.18681 0
M  V30 371 O 32.9664 0.337106 -5.68201 0
M  V30 372 N 34.1684 2.20839 -5.36852 0
M  V30 373 H 36.9334 -0.976091 -2.83359 0
M  V30 374 H 34.4944 -0.662737 -1.47714 0
M  V30 375 H 36.4864 1.35824 -3.81227 0
M  V30 376 H 35.0564 1.47465 -2.75632 0
M  V30 377 H 34.2764 -0.747349 -3.87051 0
M  V30 378 H 35.5644 -0.501577 -5.06322 0
M  V30 379 H 34.9624 2.67858 -4.98265 0
M  V30 380 H 33.5194 2.74237 -5.91301 0
M  V30 381 N 36.9525 1.47285 -0.560781 0
M  V30 382 C 37.9155 2.28535 0.174488 0
M  V30 383 C 38.9155 1.37153 0.839388 0
M  V30 384 O 40.1055 1.59748 0.694702 0
M  V30 385 C 37.2375 3.16934 1.25561 0
M  V30 386 H 38.4305 2.95012 -0.539262 0
M  V30 387 H 35.9835 1.53034 -0.317865 0
M  V30 388 H 36.7185 2.55157 2.00164 0
M  V30 389 H 36.5035 3.8419 0.783604 0
M  V30 390 H 37.9935 3.78143 1.77193 0
M  V30 391 N 38.4306 0.297415 1.54768 0
M  V30 392 C 39.3936 -0.567375 2.22066 0
M  V30 393 C 40.3936 -1.06409 1.20556 0
M  V30 394 O 41.5836 -0.960691 1.45315 0
M  V30 395 C 38.7156 -1.78517 2.90421 0
M  V30 396 H 39.9086 0.0205534 2.99893 0
M  V30 397 H 37.4616 0.0482163 1.56226 0
M  V30 398 H 38.1966 -2.41303 2.16664 0
M  V30 399 H 37.9816 -1.43669 3.64831 0
M  V30 400 H 39.4716 -2.39964 3.41771 0
M  V30 401 N 39.9087 -1.5758 0.0250728 0
M  V30 402 C 40.8557 -2.09973 -0.958129 0
M  V30 403 C 41.8257 -1.00085 -1.3256 0
M  V30 404 O 43.0107 -1.27481 -1.41962 0
M  V30 405 C 40.1507 -2.62812 -2.2366 0
M  V30 406 C 39.2637 -3.86693 -1.92594 0
M  V30 407 C 38.3987 -4.27941 -3.14707 0
M  V30 408 C 37.4377 -5.44591 -2.79442 0
M  V30 409 N 36.5747 -5.81014 -3.94167 0
M  V30 410 H 41.4147 -2.937 -0.504428 0
M  V30 411 H 38.9517 -1.45172 -0.237392 0
M  V30 412 H 40.9097 -2.91536 -2.98434 0
M  V30 413 H 39.5397 -1.81922 -2.66654 0
M  V30 414 H 38.5917 -3.64723 -1.0808 0
M  V30 415 H 39.9037 -4.71547 -1.62619 0
M  V30 416 H 39.0577 -4.58079 -3.97804 0
M  V30 417 H 37.7967 -3.41845 -3.4784 0
M  V30 418 H 36.8017 -5.1415 -1.94755 0
M  V30 419 H 38.0267 -6.32382 -2.47528 0
M  V30 420 H 35.9727 -4.97874 -4.2715 0
M  V30 421 H 35.8897 -6.60498 -3.67801 0
M  V30 422 H 37.1577 -6.15756 -4.7798 0
M  V30 423 N 41.3868 0.248026 -1.55636 0
M  V30 424 C 42.3498 1.29044 -1.89421 0
M  V30 425 C 43.3498 1.41134 -0.770581 0
M  V30 426 O 44.5398 1.39854 -1.03858 0
M  V30 427 C 41.6718 2.66831 -2.12165 0
M  V30 428 H 42.8648 1.00305 -2.82629 0
M  V30 429 H 40.4178 0.487265 -1.48511 0
M  V30 430 H 41.1528 3.00711 -1.21422 0
M  V30 431 H 40.9378 2.59438 -2.93997 0
M  V30 432 H 42.4278 3.42103 -2.3949 0
M  V30 433 N 42.8649 1.48995 0.513639 0
M  V30 434 C 43.8279 1.64229 1.59879 0
M  V30 435 C 44.8279 0.514696 1.5234 0
M  V30 436 O 46.0179 0.78087 1.55718 0
M  V30 437 C 43.1499 1.62783 2.99524 0
M  V30 438 H 44.3429 2.61004 1.47705 0
M  V30 439 H 41.8959 1.37837 0.736936 0
M  V30 440 H 42.6309 0.675461 3.17188 0
M  V30 441 H 42.4159 2.4466 3.06404 0
M  V30 442 H 43.9059 1.76669 3.78388 0
M  V30 443 N 44.343 -0.763751 1.37857 0
M  V30 444 C 45.591 -1.51957 1.33243 0
M  V30 445 C 45.912 -1.94835 -0.0801709 0
M  V30 446 O 45.182 -1.66894 -1.02582 0
M  V30 447 H 43.762 -0.563626 0.49024 0
M  V30 448 H 46.424 -0.908504 1.7243 0
M  V30 449 H 45.52 -2.41523 1.97669 0
M  V30 450 N 45.8211 -1.22559 -0.990812 0
M  V30 451 C 47.0511 -1.07623 -1.76355 0
M  V30 452 C 47.4591 0.37601 -1.85426 0
M  V30 453 O 46.8021 1.27228 -1.32509 0
M  V30 454 C 46.8641 -1.61507 -3.21179 0
M  V30 455 C 46.5281 -3.10146 -3.35646 0
M  V30 456 C 47.5251 -4.07553 -3.22796 0
M  V30 457 C 45.2101 -3.49644 -3.60631 0
M  V30 458 C 47.2041 -5.42442 -3.34716 0
M  V30 459 C 44.8911 -4.84682 -3.72192 0
M  V30 460 C 45.8891 -5.8089 -3.59243 0
M  V30 461 O 45.5771 -7.13476 -3.70415 0
M  V30 462 H 45.3091 -0.377745 -0.560611 0
M  V30 463 H 47.8631 -1.62658 -1.25425 0
M  V30 464 H 46.0931 -1.00881 -3.73309 0
M  V30 465 H 47.7821 -1.42202 -3.80175 0
M  V30 466 H 48.5481 -3.78381 -3.03403 0
M  V30 467 H 44.4271 -2.75282 -3.69785 0
M  V30 468 H 47.9711 -6.17518 -3.24526 0
M  V30 469 H 43.8681 -5.13534 -3.91092 0
M  V30 470 H 44.6361 -7.21083 -3.87275 0
M  V30 471 N 47.2992 1.18797 -1.03562 0
M  V30 472 C 48.7152 1.40671 -0.753917 0
M  V30 473 C 48.9152 1.9043 0.658686 0
M  V30 474 O 47.9712 2.08538 1.42366 0
M  V30 475 C 49.2842 2.41192 -1.79574 0
M  V30 476 C 50.8322 2.54928 -1.81606 0
M  V30 477 C 51.3072 3.58709 -2.84766 0
M  V30 478 N 52.7982 3.66212 -2.83625 0
M  V30 479 C 53.5332 4.46225 -3.60098 0
M  V30 480 N 53.0292 5.29888 -4.46308 0
M  V30 481 N 54.8222 4.40939 -3.4861 0
M  V30 482 H 46.9732 0.848221 -1.94728 0
M  V30 483 H 49.2362 0.435081 -0.842264 0
M  V30 484 H 48.9422 2.11669 -2.80872 0
M  V30 485 H 48.8162 3.40467 -1.62365 0
M  V30 486 H 51.2032 2.83771 -0.809817 0
M  V30 487 H 51.2842 1.55784 -2.02891 0
M  V30 488 H 50.9282 3.30607 -3.85566 0
M  V30 489 H 50.8582 4.57519 -2.60737 0
M  V30 490 H 53.3492 3.06466 -2.21105 0
M  V30 491 H 53.6622 5.88078 -5.01382 0
M  V30 492 H 52.0072 5.29326 -4.50377 0
M  V30 493 H 55.1982 3.74624 -2.80668 0
M  V30 494 H 55.3712 5.03056 -4.08459 0
M  V30 495 N 48.7773 0.814389 1.34928 0
M  V30 496 C 50.0053 0.411136 2.02774 0
M  V30 497 C 50.4203 -0.980316 1.61354 0
M  V30 498 O 49.7773 -1.63299 0.814847 0
M  V30 499 C 49.8283 0.493865 3.58111 0
M  V30 500 O 49.5493 1.83047 3.98027 0
M  V30 501 C 51.0503 0.0844174 4.4322 0
M  V30 502 H 48.2703 0.166037 0.650133 0
M  V30 503 H 50.8143 1.10018 1.72384 0
M  V30 504 H 48.9693 -0.147006 3.87121 0
M  V30 505 H 49.3833 1.79872 4.92693 0
M  V30 506 H 50.8573 0.193404 5.51661 0
M  V30 507 H 51.3343 -0.97113 4.28329 0
M  V30 508 H 51.9403 0.69875 4.19521 0
M  V30 509 N 50.2554 -1.46986 0.568584 0
M  V30 510 C 51.2184 -2.28624 -0.162366 0
M  V30 511 C 52.2184 -1.37596 -0.832103 0
M  V30 512 O 53.4084 -1.60115 -0.68622 0
M  V30 513 C 50.5404 -3.17596 -1.23878 0
M  V30 514 H 51.7334 -2.94722 0.554899 0
M  V30 515 H 49.2864 -1.52863 0.325976 0
M  V30 516 H 50.0214 -2.56214 -1.98808 0
M  V30 517 H 49.8064 -3.846 -0.763219 0
M  V30 518 H 51.2964 -3.79078 -1.75185 0
M  V30 519 N 51.7335 -0.305618 -1.54608 0
M  V30 520 C 52.9815 0.301701 -1.99835 0
M  V30 521 C 53.3025 1.54054 -1.19551 0
M  V30 522 O 52.5725 1.93702 -0.292658 0
M  V30 523 H 51.1525 0.114468 -0.738178 0
M  V30 524 H 53.8145 -0.418016 -1.90364 0
M  V30 525 H 52.9105 0.570548 -3.06841 0
M  V30 526 N 53.2116 1.57565 -0.0334293 0
M  V30 527 C 54.4416 1.95996 0.653398 0
M  V30 528 C 54.8496 0.908749 1.65947 0
M  V30 529 O 54.1926 -0.117471 1.83324 0
M  V30 530 C 54.2546 3.30589 1.41249 0
M  V30 531 C 53.9186 4.53503 0.564263 0
M  V30 532 C 54.9156 5.19647 -0.16225 0
M  V30 533 C 52.6006 4.99801 0.500398 0
M  V30 534 C 54.5946 6.30412 -0.941255 0
M  V30 535 C 52.2816 6.10448 -0.282308 0
M  V30 536 C 53.2796 6.75612 -1.00184 0
M  V30 537 O 52.9676 7.84134 -1.77171 0
M  V30 538 H 52.6996 0.65027 0.184728 0
M  V30 539 H 55.2536 2.05199 -0.0907841 0
M  V30 540 H 53.4836 3.17888 2.20191 0
M  V30 541 H 55.1726 3.53892 1.98784 0
M  V30 542 H 55.9386 4.84846 -0.12227 0
M  V30 543 H 51.8176 4.48883 1.05002 0
M  V30 544 H 55.3616 6.81208 -1.50339 0
M  V30 545 H 51.2586 6.44686 -0.323989 0
M  V30 546 H 52.0266 8.00822 -1.69194 0
M  V30 547 N 54.6897 -0.239769 1.55765 0
M  V30 548 C 55.6367 -1.29696 1.90913 0
M  V30 549 C 56.6067 -1.47478 0.764164 0
M  V30 550 O 57.7917 -1.61345 1.01845 0
M  V30 551 C 54.9317 -2.64598 2.21544 0
M  V30 552 C 54.0447 -2.54765 3.48882 0
M  V30 553 C 53.1797 -3.82069 3.69049 0
M  V30 554 C 52.2187 -3.66883 4.89963 0
M  V30 555 N 51.3557 -4.86094 5.06614 0
M  V30 556 H 56.1957 -0.990224 2.81067 0
M  V30 557 H 53.7327 -0.477684 1.39128 0
M  V30 558 H 55.6907 -3.43132 2.3731 0
M  V30 559 H 54.3207 -2.93405 1.34585 0
M  V30 560 H 53.3727 -1.67763 3.41409 0
M  V30 561 H 54.6847 -2.39457 4.37563 0
M  V30 562 H 53.8387 -4.69046 3.84812 0
M  V30 563 H 52.5777 -4.00282 2.78614 0
M  V30 564 H 51.5827 -2.78289 4.74168 0
M  V30 565 H 52.8077 -3.50157 5.81865 0
M  V30 566 H 50.7537 -5.04655 4.19117 0
M  V30 567 H 50.6707 -4.73443 5.89396 0
M  V30 568 H 51.9387 -5.74549 5.26795 0
M  V30 569 N 56.1678 -1.49265 -0.50573 0
M  V30 570 C 57.5788 -1.51769 -1.08734 0
M  V30 571 C 57.9298 -0.301192 -1.93874 0
M  V30 572 O 57.0548 0.589456 -2.08217 0
M  V30 573 C 57.6498 -2.75017 -1.97867 0
M  V30 574 C 56.2088 -2.80314 -2.51199 0
M  V30 575 C 55.3558 -2.4562 -1.28709 0
M  V30 576 H 58.3068 -1.56031 -0.289855 0
M  V30 577 H 58.3278 -2.5491 -2.82491 0
M  V30 578 H 57.8398 -3.63539 -1.35873 0
M  V30 579 H 55.9408 -1.96061 -3.16845 0
M  V30 580 H 56.0538 -3.82366 -2.88675 0
M  V30 581 H 54.4178 -1.97297 -1.61078 0
M  V30 582 H 55.2008 -3.36411 -0.6843 0
M  V30 583 N 57.6459 0.756429 -1.3826 0
M  V30 584 C 58.8919 1.51772 -1.34511 0
M  V30 585 C 59.2249 1.94089 0.0656691 0
M  V30 586 O 58.4999 1.65221 1.02626 0
M  V30 587 C 58.7829 2.77226 -2.29821 0
M  V30 588 C 58.6359 2.41065 -3.79747 0
M  V30 589 C 59.9549 3.79236 -2.23312 0
M  V30 590 H 57.0739 0.550578 -0.489931 0
M  V30 591 H 59.7159 0.866607 -1.69086 0
M  V30 592 H 57.8659 3.32784 -2.00467 0
M  V30 593 H 59.5379 1.91303 -4.19763 0
M  V30 594 H 57.7809 1.7356 -3.97567 0
M  V30 595 H 58.4519 3.3081 -4.41892 0
M  V30 596 H 60.9279 3.3321 -2.49219 0
M  V30 597 H 59.8039 4.64714 -2.92116 0
M  V30 598 H 60.0649 4.24615 -1.23102 0
M  V30 599 N 59.124 1.23083 0.984299 0
M  V30 600 C 60.087 1.00979 2.05757 0
M  V30 601 C 61.087 -0.0269573 1.60777 0
M  V30 602 O 62.277 0.212403 1.729 0
M  V30 603 C 59.409 0.527072 3.36801 0
M  V30 604 H 60.602 1.9622 2.26799 0
M  V30 605 H 58.155 1.05072 1.15714 0
M  V30 606 H 58.89 -0.429294 3.21446 0
M  V30 607 H 58.675 1.27515 3.70786 0
M  V30 608 H 60.165 0.392942 4.15747 0
M  V30 609 N 60.6021 -1.18246 1.0419 0
M  V30 610 C 61.8271 -1.92736 0.765996 0
M  V30 611 C 62.2521 -1.75728 -0.67091 0
M  V30 612 O 61.6101 -1.06825 -1.46486 0
M  V30 613 C 61.6581 -3.42148 1.13875 0
M  V30 614 O 60.7621 -4.11548 0.264954 0
M  V30 615 H 60.1031 -0.601238 0.281797 0
M  V30 616 H 62.6331 -1.49942 1.39207 0
M  V30 617 H 62.6431 -3.92858 1.1012 0
M  V30 618 H 61.3181 -3.53848 2.18551 0
M  V30 619 H 59.8951 -3.71137 0.362226 0
M  V30 620 N 62.0802 -0.821533 -1.34494 0
M  V30 621 C 63.3282 -0.408139 -1.97936 0
M  V30 622 C 63.6492 1.03193 -1.65457 0
M  V30 623 O 62.9192 1.71622 -0.944595 0
M  V30 624 H 61.4992 -0.147928 -0.732206 0
M  V30 625 H 64.1612 -1.05067 -1.64155 0
M  V30 626 H 63.2572 -0.52601 -3.07635 0
M  V30 627 N 63.5583 1.46682 -0.576371 0
M  V30 628 C 64.7833 2.07304 -0.0630475 0
M  V30 629 C 65.2083 1.42329 1.2298 0
M  V30 630 O 64.5663 0.504865 1.74129 0
M  V30 631 C 64.6143 3.60472 0.095895 0
M  V30 632 O 63.7183 3.95927 1.15394 0
M  V30 633 H 63.0593 0.661288 -0.0599463 0
M  V30 634 H 65.5893 1.88417 -0.797511 0
M  V30 635 H 65.5993 4.06865 0.304071 0
M  V30 636 H 64.2743 4.07157 -0.84828 0
M  V30 637 H 62.8513 3.61252 0.924724 0
M  V30 638 N 65.0364 0.313813 1.54444 0
M  V30 639 C 65.9464 -0.565714 2.27677 0
M  V30 640 C 66.9624 -1.13754 1.31666 0
M  V30 641 O 68.1384 -1.15959 1.64668 0
M  V30 642 C 65.2034 -1.71528 3.01296 0
M  V30 643 C 64.2644 -1.17624 4.12872 0
M  V30 644 C 63.4974 -2.27102 4.8297 0
M  V30 645 O 63.7204 -3.47256 4.52514 0
M  V30 646 O 62.6544 -1.9307 5.70094 0
M  V30 647 H 66.4804 0.0287296 3.03686 0
M  V30 648 H 64.0654 0.0798312 1.49187 0
M  V30 649 H 65.9474 -2.38476 3.4743 0
M  V30 650 H 64.6224 -2.29608 2.2817 0
M  V30 651 H 63.5294 -0.472124 3.71109 0
M  V30 652 H 64.8624 -0.640695 4.88012 0
M  V30 653 N 66.5145 -1.57545 0.0417849 0
M  V30 654 C 67.4615 -2.10977 -0.935805 0
M  V30 655 C 68.4315 -1.01486 -1.31491 0
M  V30 656 O 69.6165 -1.2898 -1.40602 0
M  V30 657 C 66.7565 -2.65169 -2.2086 0
M  V30 658 C 65.8695 -3.88714 -1.88482 0
M  V30 659 C 65.0045 -4.31254 -3.1015 0
M  V30 660 C 64.0435 -5.47524 -2.7365 0
M  V30 661 N 63.1805 -5.85162 -3.87982 0
M  V30 662 H 68.0205 -2.94218 -0.473249 0
M  V30 663 H 65.5575 -1.45415 -0.221981 0
M  V30 664 H 67.5155 -2.94685 -2.95325 0
M  V30 665 H 66.1455 -1.8474 -2.64709 0
M  V30 666 H 65.1975 -3.65849 -1.04205 0
M  V30 667 H 66.5095 -4.73245 -1.57608 0
M  V30 668 H 65.6635 -4.62273 -3.92923 0
M  V30 669 H 64.4025 -3.45516 -3.44195 0
M  V30 670 H 63.4075 -5.16187 -1.89291 0
M  V30 671 H 64.6325 -6.34971 -2.40807 0
M  V30 672 H 62.5785 -5.02377 -4.21846 0
M  V30 673 H 62.4955 -6.64362 -3.60775 0
M  V30 674 H 63.7635 -6.20791 -4.71422 0
M  V30 675 N 67.9926 0.231505 -1.5589 0
M  V30 676 C 69.2206 0.974505 -1.82513 0
M  V30 677 C 69.6356 1.78344 -0.619591 0
M  V30 678 O 68.9926 1.77792 0.411848 0
M  V30 679 C 69.0436 1.90007 -3.07538 0
M  V30 680 O 68.7646 1.12385 -4.2344 0
M  V30 681 C 70.2656 2.75779 -3.47075 0
M  V30 682 H 67.4856 0.286065 -0.606966 0
M  V30 683 H 70.0296 0.249739 -2.02969 0
M  V30 684 H 68.1846 2.57891 -2.89086 0
M  V30 685 H 68.5986 1.75125 -4.944 0
M  V30 686 H 70.0726 3.36443 -4.37619 0
M  V30 687 H 70.5496 3.47672 -2.68367 0
M  V30 688 H 71.1556 2.13323 -3.67931 0
M  V30 689 N 69.4707 1.49531 0.497807 0
M  V30 690 C 70.8817 1.52344 1.07927 0
M  V30 691 C 71.2327 0.311469 1.93712 0
M  V30 692 O 70.3577 -0.578405 2.08527 0
M  V30 693 C 70.9527 2.76062 1.96405 0
M  V30 694 C 69.5117 2.81643 2.49709 0
M  V30 695 C 68.6587 2.46299 1.27404 0
M  V30 696 H 71.6097 1.56182 0.281576 0
M  V30 697 H 71.6307 2.56405 2.81135 0
M  V30 698 H 71.1427 3.64254 1.33943 0
M  V30 699 H 69.2437 1.97739 3.15801 0
M  V30 700 H 69.3567 3.83891 2.86643 0
M  V30 701 H 67.7207 1.98148 1.60029 0
M  V30 702 H 68.5037 3.36769 0.66645 0
M  V30 703 N 70.9488 -0.749086 1.3866 0
M  V30 704 C 71.8588 -1.89358 1.38494 0
M  V30 705 C 72.8748 -1.71708 0.281476 0
M  V30 706 O 74.0508 -1.94554 0.520643 0
M  V30 707 C 71.1158 -3.24782 1.21316 0
M  V30 708 C 70.1768 -3.54926 2.41508 0
M  V30 709 C 69.4098 -4.83888 2.2514 0
M  V30 710 O 69.6328 -5.56592 1.24746 0
M  V30 711 O 68.5668 -5.13612 3.13826 0
M  V30 712 H 72.3928 -1.92452 2.34938 0
M  V30 713 H 69.9778 -0.894981 1.19626 0
M  V30 714 H 71.8598 -4.05739 1.13814 0
M  V30 715 H 70.5348 -3.2249 0.279592 0
M  V30 716 H 69.4418 -2.74112 2.54585 0
M  V30 717 H 70.7748 -3.61983 3.3351 0
M  V30 718 N 72.4269 -1.23603 -0.977757 0
M  V30 719 C 73.6749 -1.06759 -1.71601 0
M  V30 720 C 73.9959 0.395929 -1.90938 0
M  V30 721 O 73.2659 1.28356 -1.47992 0
M  V30 722 H 71.8459 -0.392062 -0.635843 0
M  V30 723 H 74.5079 -1.55362 -1.1768 0
M  V30 724 H 73.6039 -1.55763 -2.70452 0
M  V30 725 N 73.905 1.17692 -1.04816 0
M  V30 726 C 74.835 2.23777 -0.666791 0
M  V30 727 C 75.816 1.66796 0.33361 0
M  V30 728 O 77.001 1.93039 0.212042 0
M  V30 729 C 74.131 3.47281 -0.0367933 0
M  V30 730 C 73.085 4.17059 -0.961546 0
M  V30 731 C 72.411 5.34342 -0.195626 0
M  V30 732 C 73.711 4.69713 -2.28402 0
M  V30 733 H 75.405 2.55933 -1.55367 0
M  V30 734 H 72.951 1.23019 -0.748484 0
M  V30 735 H 74.904 4.20706 0.241775 0
M  V30 736 H 73.628 3.14381 0.885004 0
M  V30 737 H 72.287 3.45541 -1.22462 0
M  V30 738 H 71.935 4.97692 0.728816 0
M  V30 739 H 71.635 5.81966 -0.811775 0
M  V30 740 H 73.159 6.10553 0.0757473 0
M  V30 741 H 74.573 5.34794 -2.06563 0
M  V30 742 H 72.97 5.279 -2.8538 0
M  V30 743 H 74.04 3.86726 -2.92525 0
M  V30 744 N 75.3831 0.828654 1.34056 0
M  V30 745 C 76.7991 0.515135 1.51058 0
M  V30 746 C 76.9991 -0.959581 1.77184 0
M  V30 747 O 76.0551 -1.74382 1.82612 0
M  V30 748 C 77.3681 1.37963 2.67183 0
M  V30 749 C 78.9161 1.37735 2.81066 0
M  V30 750 C 79.3911 2.22645 4.00241 0
M  V30 751 N 80.8821 2.203 4.07458 0
M  V30 752 C 81.6171 2.82744 4.98842 0
M  V30 753 N 81.1131 3.54201 5.9541 0
M  V30 754 N 82.9061 2.72268 4.91759 0
M  V30 755 H 75.0571 1.78343 1.15358 0
M  V30 756 H 77.3201 0.760304 0.566252 0
M  V30 757 H 77.0261 2.42714 2.54525 0
M  V30 758 H 76.9001 1.0484 3.62338 0
M  V30 759 H 79.2871 0.337593 2.93163 0
M  V30 760 H 79.3681 1.74859 1.86703 0
M  V30 761 H 79.0121 3.26674 3.88905 0
M  V30 762 H 78.9421 1.82869 4.93829 0
M  V30 763 H 81.4331 1.68327 3.38341 0
M  V30 764 H 81.7461 3.9908 6.61782 0
M  V30 765 H 80.0911 3.58308 5.95517 0
M  V30 766 H 83.2821 2.16014 4.15278 0
M  V30 767 H 83.4551 3.21219 5.62781 0
M  V30 768 N 76.8612 -1.46375 0.584142 0
M  V30 769 C 77.8092 -2.32042 -0.161047 0
M  V30 770 C 78.8032 -1.44569 -0.882966 0
M  V30 771 O 80.0092 -1.61186 -0.801191 0
M  V30 772 H 76.3842 -0.748659 -0.0708033 0
M  V30 773 H 78.3552 -2.92704 0.580269 0
M  V30 774 C 77.1042 -3.27762 -1.1605 0
M  V30 775 H 76.4272 -3.95051 -0.614419 0
M  V30 776 H 77.8672 -3.90481 -1.65228 0
M  V30 777 C 76.3262 -2.53218 -2.22221 0
M  V30 778 O 76.8562 -2.29628 -3.29597 0
M  V30 779 N 75.0622 -2.13756 -1.96868 0
M  V30 780 H 74.6092 -2.33142 -1.09557 0
M  V30 781 H 74.5672 -1.642 -2.68115 0
M  V30 782 N 78.3393 -0.321999 -1.54275 0
M  V30 783 C 79.5643 0.285791 -2.05422 0
M  V30 784 C 79.9893 1.45124 -1.19669 0
M  V30 785 O 79.3473 1.80132 -0.205441 0
M  V30 786 C 79.3953 0.69956 -3.53749 0
M  V30 787 O 78.4993 1.8021 -3.70942 0
M  V30 788 H 77.8403 0.0518962 -0.661969 0
M  V30 789 H 80.3703 -0.469954 -1.9913 0
M  V30 790 H 80.3803 0.982649 -3.9599 0
M  V30 791 H 79.0553 -0.152864 -4.15619 0
M  V30 792 H 77.6323 1.51794 -3.40607 0
M  V30 793 N 79.8174 1.5752 -0.0501392 0
M  V30 794 C 81.0944 1.83996 0.663685 0
M  V30 795 C 81.4744 0.938339 1.89099 0
M  V30 796 O 80.8224 -0.00087759 2.285 0
M  V30 797 C 81.0324 3.33702 1.02196 0
M  V30 798 C 82.3804 4.00691 1.40469 0
M  V30 799 O 83.4044 3.38321 1.11433 0
M  V30 800 O 82.2634 5.10658 1.94654 0
M  V30 801 H 79.3574 0.759385 0.32751 0
M  V30 802 H 81.9034 1.69514 -0.0794238 0
M  V30 803 H 80.6754 3.91015 0.149364 0
M  V30 804 H 80.2984 3.53368 1.82255 0
M  V30 805 N 81.2955 -0.223234 1.56011 0
M  V30 806 C 82.2585 -1.26014 1.9145 0
M  V30 807 C 83.2585 -1.3989 0.792937 0
M  V30 808 O 84.4485 -1.38184 1.0607 0
M  V30 809 C 81.5805 -2.63422 2.16383 0
M  V30 810 H 82.7735 -0.95796 2.84189 0
M  V30 811 H 80.3265 -0.463576 1.49267 0
M  V30 812 H 81.0615 -2.98741 1.2619 0
M  V30 813 H 80.8465 -2.54728 2.98088 0
M  V30 814 H 82.3365 -3.38249 2.44903 0
M  V30 815 N 82.7736 -1.49793 -0.48987 0
M  V30 816 C 83.7036 -1.70201 -1.59856 0
M  V30 817 C 84.6846 -0.55076 -1.60937 0
M  V30 818 O 85.8696 -0.787841 -1.77501 0
M  V30 819 C 82.9996 -1.77882 -2.98287 0
M  V30 820 C 81.9536 -2.92907 -3.12073 0
M  V30 821 C 81.2796 -2.85712 -4.51965 0
M  V30 822 C 82.5796 -4.3369 -2.91051 0
M  V30 823 H 84.2736 -2.63025 -1.43032 0
M  V30 824 H 81.8196 -1.26574 -0.686664 0
M  V30 825 H 83.7726 -1.90744 -3.75759 0
M  V30 826 H 82.4966 -0.816653 -3.16225 0
M  V30 827 H 81.1556 -2.79665 -2.37029 0
M  V30 828 H 80.8036 -1.8738 -4.66795 0
M  V30 829 H 80.5036 -3.62921 -4.62128 0
M  V30 830 H 82.0276 -3.00598 -5.31482 0
M  V30 831 H 83.4416 -4.47555 -3.58284 0
M  V30 832 H 81.8386 -5.12205 -3.12675 0
M  V30 833 H 82.9086 -4.47362 -1.87071 0
M  V30 834 N 84.2517 0.741722 -1.39055 0
M  V30 835 C 85.2147 1.83733 -1.37021 0
M  V30 836 C 86.2147 1.58542 -0.268534 0
M  V30 837 O 87.4047 1.66067 -0.526076 0
M  V30 838 C 84.5367 3.2141 -1.13617 0
M  V30 839 H 85.7297 1.86941 -2.34506 0
M  V30 840 H 83.2827 0.944676 -1.24521 0
M  V30 841 H 84.0177 3.23865 -0.167863 0
M  V30 842 H 83.8027 3.4109 -1.93391 0
M  V30 843 H 85.2927 4.01477 -1.14918 0
M  V30 844 N 85.7298 1.2412 0.971189 0
M  V30 845 C 86.6598 1.05508 2.08304 0
M  V30 846 C 87.6408 -0.0308864 1.70072 0
M  V30 847 O 88.8258 0.135521 1.93727 0
M  V30 848 C 85.9558 0.655365 3.4106 0
M  V30 849 C 84.9098 1.68971 3.93234 0
M  V30 850 C 84.2358 1.14516 5.22293 0
M  V30 851 C 85.5358 3.08487 4.21465 0
M  V30 852 H 87.2298 1.98507 2.24132 0
M  V30 853 H 84.7758 0.955821 1.07704 0
M  V30 854 H 86.7288 0.51217 4.18276 0
M  V30 855 H 85.4528 -0.31032 3.25122 0
M  V30 856 H 84.1118 1.82106 3.18171 0
M  V30 857 H 83.7598 0.170189 5.02712 0
M  V30 858 H 83.4598 1.83635 5.58168 0
M  V30 859 H 84.9838 1.01401 6.02121 0
M  V30 860 H 86.3978 2.98601 4.89398 0
M  V30 861 H 84.7948 3.74926 4.68562 0
M  V30 862 H 85.8648 3.56787 3.28376 0
M  V30 863 N 87.2079 -1.17134 1.05439 0
M  V30 864 C 88.1399 -2.2078 0.615539 0
M  V30 865 C 89.1529 -1.59584 -0.322001 0
M  V30 866 O 90.3419 -1.78133 -0.114344 0
M  V30 867 C 87.4419 -3.38691 -0.118938 0
M  V30 868 C 86.6149 -4.29454 0.829924 0
M  V30 869 C 85.6739 -5.26024 0.136258 0
M  V30 870 O 84.6999 -5.63952 0.77115 0
M  V30 871 N 85.9019 -5.69487 -1.1254 0
M  V30 872 H 88.6669 -2.59052 1.50705 0
M  V30 873 H 86.2279 -1.32058 0.936603 0
M  V30 874 H 88.2199 -4.00329 -0.593179 0
M  V30 875 H 86.7899 -2.98996 -0.91215 0
M  V30 876 H 86.0099 -3.65211 1.48373 0
M  V30 877 H 87.2979 -4.86984 1.47392 0
M  V30 878 H 86.6959 -5.4075 -1.6615 0
M  V30 879 H 85.2529 -6.33257 -1.54366 0
M  V30 880 N 88.686 -0.835752 -1.33615 0
M  V30 881 C 90.102 -0.523139 -1.50783 0
M  V30 882 C 90.302 0.950171 -1.77691 0
M  V30 883 O 89.358 1.73411 -1.83534 0
M  V30 884 C 90.671 -1.39378 -2.66448 0
M  V30 885 C 92.219 -1.39223 -2.80332 0
M  V30 886 C 92.694 -2.24765 -3.99055 0
M  V30 887 N 94.185 -2.22458 -4.06284 0
M  V30 888 C 94.92 -2.85386 -4.97336 0
M  V30 889 N 94.416 -3.57354 -5.93523 0
M  V30 890 N 96.209 -2.74872 -4.90308 0
M  V30 891 H 88.36 -1.78952 -1.14411 0
M  V30 892 H 90.623 -0.763297 -0.562212 0
M  V30 893 H 90.329 -2.44061 -2.53234 0
M  V30 894 H 90.203 -1.0676 -3.61776 0
M  V30 895 H 92.59 -0.353136 -2.92979 0
M  V30 896 H 92.671 -1.75846 -1.85773 0
M  V30 897 H 92.315 -3.28732 -3.87167 0
M  V30 898 H 92.245 -1.85485 -4.92852 0
M  V30 899 H 94.736 -1.70119 -3.37443 0
M  V30 900 H 95.049 -4.02584 -6.59656 0
M  V30 901 H 93.394 -3.61461 -5.93608 0
M  V30 902 H 96.585 -2.18213 -4.14126 0
M  V30 903 H 96.758 -3.24199 -5.61069 0
M  V30 904 N 90.1641 1.46063 -0.591896 0
M  V30 905 C 91.1121 2.32124 0.148739 0
M  V30 906 C 92.1061 1.45035 0.875286 0
M  V30 907 O 93.3121 1.61609 0.792632 0
M  V30 908 H 89.6871 0.749024 0.066832 0
M  V30 909 H 91.6581 2.92392 -0.595783 0
M  V30 910 C 90.4071 3.28373 1.1431 0
M  V30 911 H 89.7301 3.95371 0.59346 0
M  V30 912 H 91.1701 3.91352 1.63155 0
M  V30 913 C 89.6291 2.54393 2.20875 0
M  V30 914 O 90.1591 2.31373 3.28374 0
M  V30 915 N 88.3651 2.14797 1.95731 0
M  V30 916 H 87.9121 2.33719 1.08319 0
M  V30 917 H 87.8701 1.65619 2.67241 0
M  V30 918 N 91.6422 0.330177 1.54103 0
M  V30 919 C 92.8672 -0.274893 2.0557 0
M  V30 920 C 93.2922 -1.44487 1.20437 0
M  V30 921 O 92.6502 -1.80021 0.214991 0
M  V30 922 C 92.6982 -0.68079 3.54115 0
M  V30 923 O 91.8022 -1.7824 3.71893 0
M  V30 924 H 91.1432 -0.0483849 0.662235 0
M  V30 925 H 93.6732 0.480508 1.98878 0
M  V30 926 H 93.6832 -0.961635 3.96505 0
M  V30 927 H 92.3582 0.174903 4.15532 0
M  V30 928 H 90.9352 -1.49985 3.41407 0
M  V30 929 N 93.1203 -1.57491 0.0584922 0
M  V30 930 C 94.3453 -1.97711 -0.62652 0
M  V30 931 C 94.7703 -0.936132 -1.63151 0
M  V30 932 O 94.1283 0.099811 -1.81025 0
M  V30 933 C 94.1763 -3.36989 -1.28338 0
M  V30 934 O 93.2803 -3.35433 -2.39913 0
M  V30 935 H 92.6213 -0.643868 -0.162266 0
M  V30 936 H 95.1513 -2.04193 0.129064 0
M  V30 937 H 95.1613 -3.73879 -1.63335 0
M  V30 938 H 93.8363 -4.12289 -0.546889 0
M  V30 939 H 92.4133 -3.10298 -2.06809 0
M  V30 940 N 94.5984 0.214957 -1.56127 0
M  V30 941 C 95.5284 1.2695 -1.95974 0
M  V30 942 C 96.5094 1.48539 -0.828868 0
M  V30 943 O 97.6944 1.60611 -1.09168 0
M  V30 944 C 94.8244 2.61794 -2.28214 0
M  V30 945 C 93.7784 2.54851 -3.43853 0
M  V30 946 C 93.1044 3.93785 -3.61715 0
M  V30 947 C 94.4044 2.09065 -4.78632 0
M  V30 948 H 96.0984 0.93846 -2.84312 0
M  V30 949 H 93.6444 0.449996 -1.36788 0
M  V30 950 H 95.5974 3.35731 -2.54682 0
M  V30 951 H 94.3214 2.96599 -1.36736 0
M  V30 952 H 92.9804 1.8337 -3.17444 0
M  V30 953 H 92.6284 4.25908 -2.67602 0
M  V30 954 H 92.3284 3.90019 -4.39498 0
M  V30 955 H 93.8524 4.69374 -3.90539 0
M  V30 956 H 95.2664 2.7275 -5.04262 0
M  V30 957 H 93.6634 2.16346 -5.59745 0
M  V30 958 H 94.7334 1.04315 -4.73547 0
M  V30 959 N 96.0765 1.50051 0.48192 0
M  V30 960 C 97.0085 1.64263 1.59844 0
M  V30 961 C 98.0215 0.52451 1.54119 0
M  V30 962 O 99.2105 0.797293 1.59704 0
M  V30 963 C 96.3105 1.60102 2.98698 0
M  V30 964 C 95.4835 2.87767 3.29407 0
M  V30 965 C 94.5425 2.76397 4.47762 0
M  V30 966 O 93.5685 3.50348 4.48603 0
M  V30 967 N 94.7705 1.89222 5.48794 0
M  V30 968 H 97.5355 2.60566 1.48073 0
M  V30 969 H 95.0965 1.47379 0.670149 0
M  V30 970 H 97.0885 1.50123 3.75826 0
M  V30 971 H 95.6585 0.715798 3.04294 0
M  V30 972 H 94.8785 3.11954 2.40994 0
M  V30 973 H 96.1665 3.72365 3.4673 0
M  V30 974 H 95.5645 1.28434 5.50928 0
M  V30 975 H 94.1215 1.85154 6.24949 0
M  V30 976 N 97.5546 -0.734337 1.39446 0
M  V30 977 C 98.4846 -1.86155 1.40955 0
M  V30 978 C 99.4656 -1.67898 0.272827 0
M  V30 979 O 100.651 -1.88207 0.478743 0
M  V30 980 C 97.7806 -3.23912 1.25294 0
M  V30 981 C 96.7346 -3.56808 2.36373 0
M  V30 982 C 96.0606 -4.93508 2.058 0
M  V30 983 C 97.3606 -3.59713 3.78687 0
M  V30 984 H 99.0546 -1.8515 2.35287 0
M  V30 985 H 96.6006 -0.889367 1.13253 0
M  V30 986 H 98.5536 -4.02443 1.2497 0
M  V30 987 H 97.2776 -3.25446 0.274308 0
M  V30 988 H 95.9366 -2.80606 2.35914 0
M  V30 989 H 95.5846 -4.91623 1.06374 0
M  V30 990 H 95.2846 -5.16486 2.80208 0
M  V30 991 H 96.8086 -5.74396 2.07128 0
M  V30 992 H 98.2226 -4.2832 3.81071 0
M  V30 993 H 96.6196 -3.94209 4.52459 0
M  V30 994 H 97.6896 -2.59504 4.09617 0
M  V30 995 N 99.0327 -1.24633 -0.964593 0
M  V30 996 C 100.31 -0.995809 -1.68354 0
M  V30 997 C 100.69 0.480964 -2.05548 0
M  V30 998 O 100.038 1.45599 -1.76105 0
M  V30 999 C 100.248 -1.92177 -2.91323 0
M  V30 1000 C 101.596 -2.19446 -3.63495 0
M  V30 1001 O 102.62 -1.89855 -3.01386 0
M  V30 1002 O 101.479 -2.69714 -4.75307 0
M  V30 1003 H 98.5727 -0.376854 -0.736146 0
M  V30 1004 H 101.119 -1.35745 -1.0184 0
M  V30 1005 H 99.8907 -2.91938 -2.60553 0
M  V30 1006 H 99.5137 -1.56349 -3.65569 0
M  V30 1007 N 100.511 1.16574 -1.06058 0
M  V30 1008 C 101.741 1.90675 -0.795397 0
M  V30 1009 C 102.149 1.77547 0.653735 0
M  V30 1010 O 101.492 1.11611 1.45907 0
M  V30 1011 C 101.554 3.42011 -1.10764 0
M  V30 1012 C 101.218 3.78924 -2.55471 0
M  V30 1013 C 102.215 3.81042 -3.53699 0
M  V30 1014 C 99.8998 4.09626 -2.90708 0
M  V30 1015 C 101.894 4.13346 -4.85205 0
M  V30 1016 C 99.5808 4.41597 -4.22416 0
M  V30 1017 C 100.579 4.43436 -5.19474 0
M  V30 1018 O 100.267 4.74649 -6.48817 0
M  V30 1019 H 99.9988 0.611554 -0.288058 0
M  V30 1020 H 102.553 1.48711 -1.41683 0
M  V30 1021 H 100.783 3.84312 -0.429128 0
M  V30 1022 H 102.472 3.97384 -0.827077 0
M  V30 1023 H 103.238 3.57437 -3.27817 0
M  V30 1024 H 99.1168 4.07361 -2.15819 0
M  V30 1025 H 102.661 4.14696 -5.60957 0
M  V30 1026 H 98.5578 4.64667 -4.48056 0
M  V30 1027 H 99.3258 4.9247 -6.5377 0
M  V30 1028 N 101.989 0.842826 1.3317 0
M  V30 1029 C 102.952 0.284065 2.27433 0
M  V30 1030 C 103.952 -0.54948 1.5112 0
M  V30 1031 O 105.142 -0.362699 1.70382 0
M  V30 1032 C 102.274 -0.599384 3.35589 0
M  V30 1033 H 103.467 1.11589 2.78366 0
M  V30 1034 H 101.02 0.616221 1.4364 0
M  V30 1035 H 101.755 -1.45349 2.89904 0
M  V30 1036 H 101.54 -0.00291266 3.921 0
M  V30 1037 H 103.03 -0.983488 4.05854 0
M  V30 1038 N 103.467 -1.45747 0.599634 0
M  V30 1039 C 104.695 -2.06668 0.0978551 0
M  V30 1040 C 105.11 -1.44562 -1.21439 0
M  V30 1041 O 104.467 -0.556923 -1.73795 0
M  V30 1042 C 104.518 -3.61456 -0.0567044 0
M  V30 1043 O 104.239 -4.21242 1.20361 0
M  V30 1044 C 105.74 -4.39345 -0.590869 0
M  V30 1045 H 102.96 -0.667825 0.0651943 0
M  V30 1046 H 105.504 -1.87115 0.82511 0
M  V30 1047 H 103.659 -3.80378 -0.734251 0
M  V30 1048 H 104.073 -5.14323 1.02821 0
M  V30 1049 H 105.547 -5.48182 -0.648131 0
M  V30 1050 H 106.024 -4.08568 -1.61147 0
M  V30 1051 H 106.63 -4.25268 0.0523679 0
M  V30 1052 N 104.945 -0.338344 -1.53925 0
M  V30 1053 C 106.191 0.260143 -2.01125 0
M  V30 1054 C 106.524 1.50617 -1.22589 0
M  V30 1055 O 105.799 1.91979 -0.312113 0
M  V30 1056 C 106.082 0.579499 -3.55407 0
M  V30 1057 C 105.935 -0.678264 -4.44657 0
M  V30 1058 C 107.254 1.39122 -4.17532 0
M  V30 1059 H 104.373 0.0930772 -0.731099 0
M  V30 1060 H 107.015 -0.457852 -1.84401 0
M  V30 1061 H 105.165 1.19118 -3.69788 0
M  V30 1062 H 106.837 -1.31631 -4.42121 0
M  V30 1063 H 105.08 -1.3042 -4.13731 0
M  V30 1064 H 105.751 -0.410143 -5.50474 0
M  V30 1065 H 108.227 0.874035 -4.06817 0
M  V30 1066 H 107.103 1.58342 -5.25565 0
M  V30 1067 H 107.364 2.39178 -3.71815 0
M  V30 1068 N 106.423 1.57458 -0.0668435 0
M  V30 1069 C 107.371 2.13639 0.919851 0
M  V30 1070 C 108.365 1.07204 1.31163 0
M  V30 1071 O 109.571 1.25591 1.28945 0
M  V30 1072 H 105.946 0.683048 0.314562 0
M  V30 1073 H 107.917 2.95415 0.421047 0
M  V30 1074 C 106.666 2.70892 2.17975 0
M  V30 1075 H 105.989 3.5246 1.88711 0
M  V30 1076 H 107.429 3.13803 2.85138 0
M  V30 1077 C 105.888 1.65414 2.93496 0
M  V30 1078 O 106.418 1.07619 3.87015 0
M  V30 1079 N 104.624 1.36564 2.56512 0
M  V30 1080 H 104.171 1.83751 1.80536 0
M  V30 1081 H 104.129 0.66223 3.07347 0
M  V30 1082 N 107.901 -0.206675 1.56239 0
M  V30 1083 C 109.312 -0.772383 1.69974 0
M  V30 1084 C 109.663 -1.84353 0.671436 0
M  V30 1085 O 108.788 -2.15695 -0.174491 0
M  V30 1086 C 109.383 -1.40779 3.08167 0
M  V30 1087 C 107.942 -1.92072 3.23706 0
M  V30 1088 C 107.089 -0.786347 2.65917 0
M  V30 1089 H 110.04 0.0182223 1.5869 0
M  V30 1090 H 110.061 -2.27696 3.04852 0
M  V30 1091 H 109.573 -0.627958 3.82986 0
M  V30 1092 H 107.674 -2.7281 2.53782 0
M  V30 1093 H 107.787 -2.09046 4.31087 0
M  V30 1094 H 106.151 -1.1976 2.24788 0
M  V30 1095 H 106.934 -0.0189416 3.43295 0
M  V30 1096 N 109.379 -1.50304 -0.473955 0
M  V30 1097 C 110.609 -1.64663 -1.24778 0
M  V30 1098 C 111.017 -0.328174 -1.86332 0
M  V30 1099 O 110.36 0.699536 -1.69859 0
M  V30 1100 C 110.422 -2.6778 -2.39863 0
M  V30 1101 C 110.086 -4.11413 -1.98969 0
M  V30 1102 C 111.083 -4.97372 -1.51385 0
M  V30 1103 C 108.768 -4.57312 -2.07777 0
M  V30 1104 C 110.762 -6.27277 -1.13148 0
M  V30 1105 C 108.449 -5.87223 -1.69152 0
M  V30 1106 C 109.447 -6.72031 -1.21915 0
M  V30 1107 O 109.135 -7.99518 -0.838237 0
M  V30 1108 H 108.867 -0.556602 -0.383627 0
M  V30 1109 H 111.421 -1.9726 -0.572491 0
M  V30 1110 H 109.651 -2.30419 -3.10554 0
M  V30 1111 H 111.34 -2.71388 -3.01833 0
M  V30 1112 H 112.106 -4.63128 -1.44004 0
M  V30 1113 H 107.985 -3.91449 -2.43493 0
M  V30 1114 H 111.529 -6.93425 -0.762077 0
M  V30 1115 H 107.426 -6.20989 -1.76191 0
M  V30 1116 H 108.194 -8.12764 -0.967339 0
M  V30 1117 N 110.857 0.726932 -1.39834 0
M  V30 1118 C 112.085 1.51613 -1.40787 0
M  V30 1119 C 112.5 1.88799 -0.00451505 0
M  V30 1120 O 111.857 1.54662 0.968809 0
M  V30 1121 C 111.908 2.79863 -2.28821 0
M  V30 1122 O 111.629 2.44253 -3.63692 0
M  V30 1123 C 113.13 3.73837 -2.38245 0
M  V30 1124 H 110.35 0.468264 -0.480593 0
M  V30 1125 H 112.894 0.897607 -1.83748 0
M  V30 1126 H 111.049 3.38027 -1.89252 0
M  V30 1127 H 111.463 3.26695 -4.1033 0
M  V30 1128 H 112.937 4.60699 -3.04073 0
M  V30 1129 H 113.414 4.16153 -1.40403 0
M  V30 1130 H 114.02 3.21589 -2.78317 0
M  V30 1131 N 112.336 1.25143 0.95797 0
M  V30 1132 C 113.583 1.09692 1.70217 0
M  V30 1133 C 113.911 -0.362654 1.91089 0
M  V30 1134 O 113.166 -1.28386 1.47701 0
M  V30 1135 C 113.465 1.79272 3.09187 0
M  V30 1136 C 113.131 3.29196 3.08125 0
M  V30 1137 C 111.793 3.70096 3.07543 0
M  V30 1138 C 114.145 4.24995 3.0171 0
M  V30 1139 C 111.473 5.05213 2.9829 0
M  V30 1140 C 113.825 5.60132 2.93999 0
M  V30 1141 C 112.489 6.00365 2.9175 0
M  V30 1142 H 111.759 0.401393 0.622868 0
M  V30 1143 H 114.406 1.55372 1.11945 0
M  V30 1144 H 112.711 1.26014 3.70982 0
M  V30 1145 H 114.408 1.64773 3.65583 0
M  V30 1146 H 110.998 2.96651 3.09348 0
M  V30 1147 H 115.182 3.9439 3.01281 0
M  V30 1148 H 110.438 5.35569 2.94916 0
M  V30 1149 H 114.612 6.3406 2.87996 0
M  V30 1150 H 112.239 7.05023 2.84336 0
M  V30 1151 N 113.814 -1.1601 1.06675 0
M  V30 1152 C 114.777 -2.18724 0.685001 0
M  V30 1153 C 115.777 -1.58496 -0.271246 0
M  V30 1154 O 116.967 -1.74119 -0.0531156 0
M  V30 1155 C 114.099 -3.40899 0.00853648 0
M  V30 1156 H 115.292 -2.54011 1.59431 0
M  V30 1157 H 112.845 -1.30352 0.862441 0
M  V30 1158 H 113.58 -3.11173 -0.913337 0
M  V30 1159 H 113.365 -3.8587 0.696204 0
M  V30 1160 H 114.855 -4.16886 -0.24414 0
M  V30 1161 N 115.292 -0.849877 -1.32721 0
M  V30 1162 C 116.202 -0.293791 -2.32753 0
M  V30 1163 C 117.218 0.585906 -1.63839 0
M  V30 1164 O 118.394 0.487413 -1.95413 0
M  V30 1165 C 115.459 0.512752 -3.42887 0
M  V30 1166 C 114.52 -0.39252 -4.27502 0
M  V30 1167 C 113.753 0.375625 -5.32377 0
M  V30 1168 O 113.976 1.60613 -5.4732 0
M  V30 1169 O 112.91 -0.256094 -6.01355 0
M  V30 1170 H 116.736 -1.12242 -2.82197 0
M  V30 1171 H 114.321 -0.612685 -1.36259 0
M  V30 1172 H 116.203 0.970704 -4.10067 0
M  V30 1173 H 114.878 1.31826 -2.95641 0
M  V30 1174 H 113.785 -0.898547 -3.63149 0
M  V30 1175 H 115.118 -1.16309 -4.7826 0
M  V30 1176 N 116.77 1.45427 -0.607355 0
M  V30 1177 C 118.181 1.85756 -0.187535 0
M  V30 1178 C 118.532 1.5077 1.25551 0
M  V30 1179 O 117.657 0.93427 1.95193 0
M  V30 1180 C 118.252 3.37154 -0.333572 0
M  V30 1181 C 116.811 3.76387 0.0315542 0
M  V30 1182 C 115.958 2.69377 -0.658117 0
M  V30 1183 H 118.909 1.36231 -0.81405 0
M  V30 1184 H 118.93 3.78014 0.43428 0
M  V30 1185 H 118.442 3.62586 -1.38393 0
M  V30 1186 H 116.543 3.56571 1.0811 0
M  V30 1187 H 116.656 4.77731 -0.361935 0
M  V30 1188 H 115.02 2.5452 -0.0957873 0
M  V30 1189 H 115.803 2.97646 -1.7106 0
M  V30 1190 N 118.248 0.346503 1.53744 0
M  V30 1191 C 119.476 -0.25041 2.05379 0
M  V30 1192 C 119.891 -1.43979 1.22129 0
M  V30 1193 O 119.248 -1.80677 0.257321 0
M  V30 1194 C 119.299 -0.662575 3.55376 0
M  V30 1195 O 119.02 0.479515 4.35468 0
M  V30 1196 C 120.521 -1.31989 4.23195 0
M  V30 1197 H 117.741 -0.0478198 0.669294 0
M  V30 1198 H 120.285 0.499346 1.9831 0
M  V30 1199 H 118.44 -1.36227 3.62658 0
M  V30 1200 H 118.854 0.15037 5.24284 0
M  V30 1201 H 120.328 -1.55902 5.29527 0
M  V30 1202 H 120.805 -2.27436 3.75725 0
M  V30 1203 H 121.411 -0.662154 4.20114 0
M  V30 1204 N 119.726 -1.57421 0.075193 0
M  V30 1205 C 120.951 -1.98364 -0.605515 0
M  V30 1206 C 121.376 -0.953383 -1.62149 0
M  V30 1207 O 120.734 0.0806053 -1.81121 0
M  V30 1208 C 120.782 -3.38332 -1.24756 0
M  V30 1209 O 119.886 -3.37959 -2.36342 0
M  V30 1210 H 119.227 -0.645553 -0.155428 0
M  V30 1211 H 121.757 -2.04044 0.150714 0
M  V30 1212 H 121.767 -3.75591 -1.5936 0
M  V30 1213 H 120.442 -4.12846 -0.503129 0
M  V30 1214 H 119.019 -3.12474 -2.03506 0
M  V30 1215 N 121.204 0.198386 -1.56346 0
M  V30 1216 C 122.615 0.763358 -1.70381 0
M  V30 1217 C 122.966 1.83995 -0.681203 0
M  V30 1218 O 122.091 2.15785 0.16305 0
M  V30 1219 C 122.686 1.39143 -3.08909 0
M  V30 1220 C 121.245 1.90352 -3.2472 0
M  V30 1221 C 120.392 0.772233 -2.6633 0
M  V30 1222 H 123.343 -0.0266377 -1.58678 0
M  V30 1223 H 123.364 2.26076 -3.06055 0
M  V30 1224 H 122.876 0.607638 -3.83314 0
M  V30 1225 H 120.977 2.71461 -2.55225 0
M  V30 1226 H 121.09 2.06757 -4.3219 0
M  V30 1227 H 119.454 1.18566 -2.2542 0
M  V30 1228 H 120.237 0.00073556 -3.433 0
M  V30 1229 N 122.682 1.50554 0.465978 0
M  V30 1230 C 123.632 1.66177 1.56106 0
M  V30 1231 C 124.616 0.516265 1.52393 0
M  V30 1232 O 125.808 0.770906 1.5933 0
M  V30 1233 C 122.937 1.76396 2.94515 0
M  V30 1234 C 122.023 2.9664 3.03093 0
M  V30 1235 N 122.414 4.20245 2.81474 0
M  V30 1236 C 120.712 2.95304 3.34233 0
M  V30 1237 C 121.413 5.01259 2.95151 0
M  V30 1238 N 120.389 4.35318 3.25576 0
M  V30 1239 H 124.191 2.59434 1.38099 0
M  V30 1240 H 121.705 1.47808 0.6728 0
M  V30 1241 H 123.702 1.85694 3.73261 0
M  V30 1242 H 122.362 0.843017 3.13565 0
M  V30 1243 H 123.373 4.4966 2.56956 0
M  V30 1244 H 120.05 2.12729 3.59239 0
M  V30 1245 H 121.44 6.09564 2.82632 0
M  V30 1246 N 124.16 -0.719506 1.40217 0
M  V30 1247 C 125.409 -1.47486 1.37589 0
M  V30 1248 C 125.722 -1.9559 -0.0201568 0
M  V30 1249 O 126.928 -2.70973 -0.169049 0
M  V30 1250 C 125.384 -2.66575 2.41796 0
M  V30 1251 C 124.992 -2.25358 3.87192 0
M  V30 1252 C 126.736 -3.4433 2.48269 0
M  V30 1253 C 124.643 -3.41262 4.83005 0
M  V30 1254 H 123.573 -0.553901 0.511576 0
M  V30 1255 H 126.224 -0.783427 1.65936 0
M  V30 1256 H 124.606 -3.3787 2.06543 0
M  V30 1257 H 125.78 -1.61509 4.31569 0
M  V30 1258 H 124.095 -1.60657 3.84159 0
M  V30 1259 H 126.692 -4.30569 3.17041 0
M  V30 1260 H 127.035 -3.87872 1.51198 0
M  V30 1261 H 127.568 -2.80076 2.82493 0
M  V30 1262 H 124.307 -3.02755 5.81394 0
M  V30 1263 H 123.827 -4.0404 4.43297 0
M  V30 1264 H 125.506 -4.07383 5.02641 0
M  V30 1265 N 125.638 -1.25649 -0.95132 0
M  V30 1266 C 126.887 -1.09988 -1.69073 0
M  V30 1267 C 127.2 0.358355 -1.92289 0
M  V30 1268 O 128.406 0.635466 -2.63958 0
M  V30 1269 C 126.862 -1.92012 -3.044 0
M  V30 1270 C 126.47 -3.42347 -2.88968 0
M  V30 1271 C 128.214 -1.8493 -3.82101 0
M  V30 1272 C 126.121 -4.16655 -4.19705 0
M  V30 1273 H 125.051 -0.407993 -0.63408 0
M  V30 1274 H 127.702 -1.49873 -1.05879 0
M  V30 1275 H 126.084 -1.44952 -3.68517 0
M  V30 1276 H 127.258 -3.97104 -2.33762 0
M  V30 1277 H 125.573 -3.50557 -2.24719 0
M  V30 1278 H 128.17 -2.37739 -4.78941 0
M  V30 1279 H 128.513 -0.817883 -4.08187 0
M  V30 1280 H 129.046 -2.29758 -3.2474 0
M  V30 1281 H 125.785 -5.20224 -3.98807 0
M  V30 1282 H 125.305 -3.66681 -4.74663 0
M  V30 1283 H 126.984 -4.24551 -4.88227 0
M  V30 1284 N 127.117 1.15442 -1.07289 0
M  V30 1285 C 128.342 1.90638 -0.816828 0
M  V30 1286 C 128.767 1.77445 0.624083 0
M  V30 1287 O 128.125 1.10671 1.43602 0
M  V30 1288 C 128.173 3.39008 -1.22906 0
M  V30 1289 O 127.277 4.10701 -0.373975 0
M  V30 1290 H 126.618 0.593555 -0.297638 0
M  V30 1291 H 129.148 1.46198 -1.43134 0
M  V30 1292 H 129.158 3.89801 -1.20497 0
M  V30 1293 H 127.833 3.47929 -2.27856 0
M  V30 1294 H 126.41 3.70046 -0.460499 0
M  V30 1295 N 128.595 0.856903 1.32268 0
M  V30 1296 C 129.558 0.308171 2.27119 0
M  V30 1297 C 130.558 -0.533421 1.51695 0
M  V30 1298 O 131.748 -0.344607 1.70757 0
M  V30 1299 C 128.88 -0.563757 3.36206 0
M  V30 1300 H 130.073 1.14535 2.77167 0
M  V30 1301 H 127.626 0.631421 1.42978 0
M  V30 1302 H 128.361 -1.42266 2.91429 0
M  V30 1303 H 128.146 0.0386749 3.92081 0
M  V30 1304 H 129.636 -0.940386 4.06874 0
M  V30 1305 N 130.073 -1.45103 0.615059 0
M  V30 1306 C 131.005 -2.28786 -0.13762 0
M  V30 1307 C 132.018 -1.40376 -0.824525 0
M  V30 1308 O 133.207 -1.64681 -0.688662 0
M  V30 1309 C 130.307 -3.16322 -1.21628 0
M  V30 1310 C 129.48 -4.33054 -0.615039 0
M  V30 1311 C 128.539 -5.01743 -1.58556 0
M  V30 1312 O 127.565 -5.58293 -1.10895 0
M  V30 1313 N 128.767 -5.01714 -2.91998 0
M  V30 1314 H 131.532 -2.94025 0.580483 0
M  V30 1315 H 129.093 -1.55373 0.45507 0
M  V30 1316 H 131.085 -3.59139 -1.86552 0
M  V30 1317 H 129.655 -2.52943 -1.83681 0
M  V30 1318 H 128.875 -3.93627 0.21245 0
M  V30 1319 H 130.163 -5.08431 -0.193704 0
M  V30 1320 H 129.561 -4.57075 -3.33316 0
M  V30 1321 H 128.118 -5.48371 -3.52325 0
M  V30 1322 N 131.551 -0.354651 -1.53558 0
M  V30 1323 C 132.461 0.50515 -2.29097 0
M  V30 1324 C 133.477 1.10223 -1.34636 0
M  V30 1325 O 134.653 1.11553 -1.67684 0
M  V30 1326 C 131.718 1.63479 -3.05738 0
M  V30 1327 C 130.779 1.06636 -4.15845 0
M  V30 1328 C 130.012 2.14217 -4.88822 0
M  V30 1329 O 130.235 3.35137 -4.61562 0
M  V30 1330 O 129.169 1.77887 -5.75013 0
M  V30 1331 H 132.995 -0.109237 -3.03503 0
M  V30 1332 H 130.58 -0.119357 -1.48922 0
M  V30 1333 H 132.462 2.2918 -3.5363 0
M  V30 1334 H 131.137 2.23478 -2.34178 0
M  V30 1335 H 130.044 0.373565 -3.7223 0
M  V30 1336 H 131.377 0.511081 -4.89539 0
M  V30 1337 N 133.029 1.57378 -0.0835403 0
M  V30 1338 C 134.277 1.93547 0.581718 0
M  V30 1339 C 134.598 0.96524 1.69435 0
M  V30 1340 O 133.868 0.0153369 1.95894 0
M  V30 1341 H 132.448 0.714521 0.217874 0
M  V30 1342 H 135.11 1.94366 -0.144158 0
M  V30 1343 H 134.206 2.95665 0.999423 0
M  V30 1344 N 134.507 -0.190092 1.56449 0
M  V30 1345 C 135.923 -0.54113 1.50146 0
M  V30 1346 C 136.123 -1.85603 0.784465 0
M  V30 1347 O 135.179 -2.5024 0.337051 0
M  V30 1348 C 136.492 -0.591241 2.9483 0
M  V30 1349 C 138.04 -0.679732 3.0553 0
M  V30 1350 C 138.515 -0.760908 4.51635 0
M  V30 1351 N 140.006 -0.824302 4.55806 0
M  V30 1352 C 140.741 -0.907365 5.66175 0
M  V30 1353 N 140.237 -0.952422 6.86222 0
M  V30 1354 N 142.03 -0.94494 5.541 0
M  V30 1355 H 134.181 0.67235 2.01478 0
M  V30 1356 H 136.444 0.240127 0.917084 0
M  V30 1357 H 136.15 0.305905 3.50367 0
M  V30 1358 H 136.024 -1.44422 3.48457 0
M  V30 1359 H 138.411 -1.56731 2.50039 0
M  V30 1360 H 138.492 0.199549 2.5502 0
M  V30 1361 H 138.136 0.122336 5.07753 0
M  V30 1362 H 138.066 -1.65606 4.99882 0
M  V30 1363 H 140.557 -0.798526 3.69367 0
M  V30 1364 H 140.87 -1.01645 7.66086 0
M  V30 1365 H 139.215 -0.921014 6.8887 0
M  V30 1366 H 142.406 -0.906612 4.59236 0
M  V30 1367 H 142.579 -1.00622 6.4014 0
M  V30 1368 N 135.985 -1.50799 -0.457987 0
M  V30 1369 C 137.396 -1.55152 -1.0385 0
M  V30 1370 C 137.747 -0.362719 -1.92818 0
M  V30 1371 O 136.872 0.522915 -2.09987 0
M  V30 1372 C 137.467 -2.81173 -1.89017 0
M  V30 1373 C 136.026 -2.88164 -2.42154 0
M  V30 1374 C 135.173 -2.49591 -1.20829 0
M  V30 1375 H 138.124 -1.56874 -0.240068 0
M  V30 1376 H 138.145 -2.63769 -2.74238 0
M  V30 1377 H 137.657 -3.67677 -1.24238 0
M  V30 1378 H 135.758 -2.06042 -3.10447 0
M  V30 1379 H 135.871 -3.91356 -2.76364 0
M  V30 1380 H 134.235 -2.02322 -1.54719 0
M  V30 1381 H 135.018 -3.38418 -0.576927 0
M  V30 1382 N 137.463 0.71206 -1.40597 0
M  V30 1383 C 138.712 1.46754 -1.38369 0
M  V30 1384 C 139.025 1.95598 0.0097839 0
M  V30 1385 O 140.231 2.71059 0.154677 0
M  V30 1386 C 138.687 2.65289 -2.43207 0
M  V30 1387 C 138.295 2.23301 -3.88382 0
M  V30 1388 C 140.039 3.43008 -2.50091 0
M  V30 1389 C 137.946 3.38696 -4.84808 0
M  V30 1390 H 136.876 0.55118 -0.514506 0
M  V30 1391 H 139.527 0.774616 -1.66349 0
M  V30 1392 H 137.909 3.36769 -2.08332 0
M  V30 1393 H 139.083 1.59218 -4.32419 0
M  V30 1394 H 137.398 1.58618 -3.85006 0
M  V30 1395 H 139.995 4.28881 -3.1932 0
M  V30 1396 H 140.338 3.87065 -1.53253 0
M  V30 1397 H 140.871 2.78574 -2.83974 0
M  V30 1398 H 137.61 2.99668 -5.82992 0
M  V30 1399 H 137.13 4.01683 -4.45433 0
M  V30 1400 H 138.809 4.04712 -5.04794 0
M  V30 1401 N 138.941 1.26152 0.944643 0
M  V30 1402 C 139.851 1.09176 2.07648 0
M  V30 1403 C 140.867 0.0261935 1.7398 0
M  V30 1404 O 142.043 0.229208 2.00091 0
M  V30 1405 C 139.108 0.722915 3.39079 0
M  V30 1406 C 138.169 1.86752 3.86552 0
M  V30 1407 C 137.402 1.51617 5.11711 0
M  V30 1408 O 137.625 0.416331 5.68879 0
M  V30 1409 O 136.559 2.34975 5.54139 0
M  V30 1410 H 140.385 2.0412 2.24875 0
M  V30 1411 H 137.97 1.05182 1.061 0
M  V30 1412 H 139.852 0.529787 4.18056 0
M  V30 1413 H 138.527 -0.197159 3.23099 0
M  V30 1414 H 137.434 2.11558 3.08535 0
M  V30 1415 H 138.767 2.76719 4.07047 0
M  V30 1416 N 140.419 -1.14872 1.07899 0
M  V30 1417 C 141.644 -1.90202 0.826926 0
M  V30 1418 C 142.069 -1.77774 -0.614664 0
M  V30 1419 O 141.427 -1.11431 -1.43013 0
M  V30 1420 C 141.475 -3.38352 1.24702 0
M  V30 1421 O 140.579 -4.10497 0.39575 0
M  V30 1422 H 139.92 -0.591968 0.300782 0
M  V30 1423 H 142.45 -1.45437 1.43907 0
M  V30 1424 H 142.46 -3.89156 1.22563 0
M  V30 1425 H 141.135 -3.46715 2.29698 0
M  V30 1426 H 139.712 -3.69796 0.480117 0
M  V30 1427 N 141.898 -0.863906 -1.31812 0
M  V30 1428 C 142.828 -0.330843 -2.31144 0
M  V30 1429 C 143.809 0.575005 -1.60087 0
M  V30 1430 O 144.994 0.493304 -1.8783 0
M  V30 1431 C 142.124 0.47374 -3.44054 0
M  V30 1432 C 141.078 -0.338481 -4.26659 0
M  V30 1433 C 140.404 0.591412 -5.31419 0
M  V30 1434 C 141.704 -1.56926 -4.98168 0
M  V30 1435 H 143.398 -1.16086 -2.75979 0
M  V30 1436 H 140.944 -0.559657 -1.32679 0
M  V30 1437 H 142.897 0.857143 -4.12591 0
M  V30 1438 H 141.621 1.33721 -2.9797 0
M  V30 1439 H 140.28 -0.703754 -3.59782 0
M  V30 1440 H 139.928 1.45199 -4.81587 0
M  V30 1441 H 139.628 0.0519022 -5.87577 0
M  V30 1442 H 141.152 0.97179 -6.02817 0
M  V30 1443 H 142.566 -1.25764 -5.59336 0
M  V30 1444 H 140.963 -2.04739 -5.64094 0
M  V30 1445 H 142.033 -2.32544 -4.25501 0
M  V30 1446 N 143.376 1.44774 -0.622745 0
M  V30 1447 C 144.622 2.0242 -0.124083 0
M  V30 1448 C 144.955 1.4881 1.24777 0
M  V30 1449 O 144.23 0.668799 1.8264 0
M  V30 1450 C 144.513 3.59957 -0.101619 0
M  V30 1451 C 144.366 4.23867 -1.50521 0
M  V30 1452 C 145.685 4.36284 0.578272 0
M  V30 1453 H 142.804 0.735528 -0.0465645 0
M  V30 1454 H 145.446 1.72447 -0.797617 0
M  V30 1455 H 143.596 3.85623 0.471934 0
M  V30 1456 H 145.268 4.09336 -2.12701 0
M  V30 1457 H 143.511 3.81684 -2.06154 0
M  V30 1458 H 144.182 5.32843 -1.4416 0
M  V30 1459 H 146.658 4.16001 0.0906057 0
M  V30 1460 H 145.534 5.46004 0.563149 0
M  V30 1461 H 145.795 4.10271 1.64713 0
M  V30 1462 N 144.854 0.36279 1.53368 0
M  V30 1463 C 145.787 -0.528507 2.21996 0
M  V30 1464 C 146.765 -1.0852 1.21087 0
M  V30 1465 O 147.949 -1.14186 1.4998 0
M  V30 1466 C 145.076 -1.72893 2.91249 0
M  V30 1467 C 144.122 -1.29994 4.06207 0
M  V30 1468 S 144.955 -0.303575 5.34639 0
M  V30 1469 C 146.111 -1.51039 6.07403 0
M  V30 1470 H 146.344 0.0543423 2.9725 0
M  V30 1471 H 143.877 0.146889 1.537 0
M  V30 1472 H 145.835 -2.41751 3.31763 0
M  V30 1473 H 144.496 -2.28303 2.15724 0
M  V30 1474 H 143.689 -2.19549 4.53667 0
M  V30 1475 H 143.291 -0.690608 3.67569 0
M  V30 1476 H 145.583 -2.44186 6.31965 0
M  V30 1477 H 146.526 -1.07721 6.99858 0
M  V30 1478 H 146.934 -1.71518 5.37812 0
M  V30 1479 N 146.332 -1.57332 0.0918853 0
M  V30 1480 C 147.557 -1.98995 -0.584442 0
M  V30 1481 C 147.982 -0.970528 -1.61128 0
M  V30 1482 O 147.34 0.0613904 -1.81196 0
M  V30 1483 C 147.388 -3.39636 -1.21161 0
M  V30 1484 O 146.492 -3.40447 -2.32744 0
M  V30 1485 H 145.833 -0.647165 -0.148572 0
M  V30 1486 H 148.363 -2.03873 0.172347 0
M  V30 1487 H 148.373 -3.7726 -1.55367 0
M  V30 1488 H 147.048 -4.13356 -0.459313 0
M  V30 1489 H 145.625 -3.14614 -2.0018 0
M  V30 1490 N 147.81 0.181792 -1.56548 0
M  V30 1491 C 148.773 1.20894 -1.94724 0
M  V30 1492 C 149.773 1.37738 -0.829747 0
M  V30 1493 O 150.963 1.35323 -1.09697 0
M  V30 1494 C 148.095 2.57593 -2.23291 0
M  V30 1495 H 149.288 0.882275 -2.86629 0
M  V30 1496 H 146.841 0.423838 -1.50444 0
M  V30 1497 H 147.576 2.95291 -1.34067 0
M  V30 1498 H 147.361 2.46735 -3.04736 0
M  V30 1499 H 148.851 3.31637 -2.53785 0
M  V30 1500 N 149.288 1.51039 0.449983 0
M  V30 1501 C 150.536 1.62759 1.19808 0
M  V30 1502 C 150.857 0.339981 1.92013 0
M  V30 1503 O 150.127 -0.643606 1.85026 0
M  V30 1504 H 148.707 0.599811 0.445237 0
M  V30 1505 H 151.369 1.87914 0.517138 0
M  V30 1506 H 150.465 2.44911 1.93455 0
M  V30 1507 N 150.766 -0.704594 1.40972 0
M  V30 1508 C 151.696 -1.83124 1.44872 0
M  V30 1509 C 152.677 -1.67281 0.30838 0
M  V30 1510 O 153.862 -1.87149 0.518556 0
M  V30 1511 C 150.992 -3.21181 1.32136 0
M  V30 1512 C 149.946 -3.51714 2.43888 0
M  V30 1513 C 149.272 -4.89032 2.16222 0
M  V30 1514 C 150.572 -3.516 3.86232 0
M  V30 1515 H 152.266 -1.80117 2.39161 0
M  V30 1516 H 149.812 -0.865145 1.15114 0
M  V30 1517 H 151.765 -3.99702 1.33479 0
M  V30 1518 H 150.489 -3.24791 0.343279 0
M  V30 1519 H 149.148 -2.75539 2.41813 0
M  V30 1520 H 148.796 -4.89256 1.16778 0
M  V30 1521 H 148.496 -5.10426 2.911 0
M  V30 1522 H 150.02 -5.69873 2.19265 0
M  V30 1523 H 151.434 -4.2014 3.9007 0
M  V30 1524 H 149.831 -3.84523 4.60719 0
M  V30 1525 H 150.901 -2.50757 4.15029 0
M  V30 1526 N 152.244 -1.26651 -0.937939 0
M  V30 1527 C 153.66 -1.03834 -1.21205 0
M  V30 1528 C 153.86 0.234502 -2.00131 0
M  V30 1529 O 152.916 0.942767 -2.3424 0
M  V30 1530 C 154.229 -2.27167 -1.97017 0
M  V30 1531 C 155.777 -2.32101 -2.09996 0
M  V30 1532 C 156.252 -3.55136 -2.8921 0
M  V30 1533 N 157.743 -3.55632 -2.96783 0
M  V30 1534 C 158.478 -4.475 -3.58512 0
M  V30 1535 N 157.974 -5.4966 -4.21717 0
M  V30 1536 N 159.767 -4.35145 -3.55816 0
M  V30 1537 H 151.918 -2.08398 -0.410391 0
M  V30 1538 H 154.181 -0.916031 -0.244114 0
M  V30 1539 H 153.887 -3.19765 -1.46434 0
M  V30 1540 H 153.761 -2.31672 -2.97671 0
M  V30 1541 H 156.148 -1.40015 -2.59769 0
M  V30 1542 H 156.229 -2.31605 -1.08594 0
M  V30 1543 H 155.873 -4.47553 -2.40123 0
M  V30 1544 H 155.803 -3.5288 -3.90875 0
M  V30 1545 H 158.294 -2.81743 -2.51852 0
M  V30 1546 H 158.607 -6.15943 -4.66727 0
M  V30 1547 H 156.952 -5.53514 -4.20294 0
M  V30 1548 H 160.143 -3.5455 -3.05634 0
M  V30 1549 H 160.316 -5.06934 -4.03636 0
M  V30 1550 N 153.722 1.14298 -1.08507 0
M  V30 1551 C 154.685 2.17607 -0.719711 0
M  V30 1552 C 155.685 1.58907 0.245997 0
M  V30 1553 O 156.875 1.74181 0.0254081 0
M  V30 1554 C 154.007 3.40842 -0.0627695 0
M  V30 1555 H 155.2 2.51443 -1.63452 0
M  V30 1556 H 152.753 1.28963 -0.88307 0
M  V30 1557 H 153.488 3.12587 0.863716 0
M  V30 1558 H 153.273 3.84713 -0.757504 0
M  V30 1559 H 154.763 4.17221 0.177786 0
M  V30 1560 N 155.201 0.870884 1.31352 0
M  V30 1561 C 156.131 0.343096 2.30966 0
M  V30 1562 C 157.112 -0.566507 1.60389 0
M  V30 1563 O 158.297 -0.483336 1.88089 0
M  V30 1564 C 155.427 -0.455487 3.443 0
M  V30 1565 C 154.381 0.361103 4.26474 0
M  V30 1566 C 153.707 -0.563221 5.31725 0
M  V30 1567 C 155.007 1.59566 4.97329 0
M  V30 1568 H 156.701 1.17548 2.75359 0
M  V30 1569 H 154.247 0.566686 1.32381 0
M  V30 1570 H 156.2 -0.83525 4.13039 0
M  V30 1571 H 154.924 -1.32139 2.98675 0
M  V30 1572 H 153.583 0.722825 3.59403 0
M  V30 1573 H 153.231 -1.42643 4.82351 0
M  V30 1574 H 152.931 -0.0207409 5.87596 0
M  V30 1575 H 154.455 -0.939808 6.03324 0
M  V30 1576 H 155.869 1.28728 5.58661 0
M  V30 1577 H 154.266 2.07728 5.63 0
M  V30 1578 H 155.336 2.34798 4.24262 0
M  V30 1579 N 156.679 -1.44442 0.630414 0
M  V30 1580 C 157.589 -2.34476 -0.0761693 0
M  V30 1581 C 158.605 -1.52576 -0.836449 0
M  V30 1582 O 159.781 -1.85307 -0.788874 0
M  V30 1583 C 156.846 -3.30545 -1.04599 0
M  V30 1584 C 155.907 -4.28352 -0.28516 0
M  V30 1585 C 155.14 -5.19831 -1.20878 0
M  V30 1586 O 155.363 -5.15223 -2.44747 0
M  V30 1587 O 154.297 -5.97892 -0.693491 0
M  V30 1588 H 158.123 -2.96345 0.664324 0
M  V30 1589 H 155.708 -1.44203 0.39061 0
M  V30 1590 H 157.59 -3.89681 -1.60396 0
M  V30 1591 H 156.265 -2.7121 -1.76711 0
M  V30 1592 H 155.172 -3.72764 0.315837 0
M  V30 1593 H 156.505 -4.90605 0.395924 0
M  V30 1594 N 158.157 -0.370918 -1.53173 0
M  V30 1595 C 159.089 0.507823 -2.23503 0
M  V30 1596 C 160.102 1.04182 -1.251 0
M  V30 1597 O 161.291 0.947286 -1.5129 0
M  V30 1598 C 158.391 1.71447 -2.92334 0
M  V30 1599 C 157.564 1.31105 -4.17289 0
M  V30 1600 C 156.623 2.38035 -4.69282 0
M  V30 1601 O 155.649 2.00204 -5.32829 0
M  V30 1602 N 156.851 3.69697 -4.47554 0
M  V30 1603 H 159.616 -0.0946382 -2.99551 0
M  V30 1604 H 157.177 -0.196358 -1.60705 0
M  V30 1605 H 159.169 2.42469 -3.24023 0
M  V30 1606 H 157.739 2.22368 -2.19707 0
M  V30 1607 H 156.959 0.430462 -3.91843 0
M  V30 1608 H 158.247 1.0179 -4.98514 0
M  V30 1609 H 157.645 4.03205 -3.9679 0
M  V30 1610 H 156.202 4.36807 -4.8378 0
M  V30 1611 N 159.635 1.57281 -0.100228 0
M  V30 1612 C 160.567 2.11342 0.886972 0
M  V30 1613 C 161.58 1.05182 1.24261 0
M  V30 1614 O 162.769 1.32613 1.19483 0
M  V30 1615 C 159.869 2.5825 2.19454 0
M  V30 1616 C 159.042 3.88302 2.01346 0
M  V30 1617 C 158.101 4.21004 3.15661 0
M  V30 1618 O 157.127 4.9014 2.89398 0
M  V30 1619 N 158.329 3.76818 4.41575 0
M  V30 1620 H 161.094 2.96668 0.425216 0
M  V30 1621 H 158.655 1.61678 0.0847334 0
M  V30 1622 H 160.647 2.7717 2.94888 0
M  V30 1623 H 159.217 1.77907 2.57037 0
M  V30 1624 H 158.437 3.7848 1.10212 0
M  V30 1625 H 159.725 4.73375 1.8653 0
M  V30 1626 H 159.123 3.2102 4.65792 0
M  V30 1627 H 157.68 4.00882 5.13942 0
M  V30 1628 N 161.113 -0.173488 1.56642 0
M  V30 1629 C 162.076 -1.19859 1.95362 0
M  V30 1630 C 163.076 -1.37296 0.83704 0
M  V30 1631 O 164.266 -1.34739 1.10413 0
M  V30 1632 C 161.398 -2.56405 2.24654 0
M  V30 1633 H 162.591 -0.867062 2.87092 0
M  V30 1634 H 160.144 -0.415853 1.50666 0
M  V30 1635 H 160.879 -2.94576 1.35631 0
M  V30 1636 H 160.664 -2.45115 3.06041 0
M  V30 1637 H 162.154 -3.30287 2.5554 0
M  V30 1638 N 162.591 -1.51276 -0.441967 0
M  V30 1639 C 163.868 -1.54252 -1.20273 0
M  V30 1640 C 164.248 -0.30408 -2.08898 0
M  V30 1641 O 163.596 0.711084 -2.17154 0
M  V30 1642 C 163.806 -2.85406 -2.00859 0
M  V30 1643 C 165.154 -3.37181 -2.58059 0
M  V30 1644 O 166.178 -2.86925 -2.11074 0
M  V30 1645 O 165.037 -4.24858 -3.43741 0
M  V30 1646 H 162.131 -0.619969 -0.547328 0
M  V30 1647 H 164.677 -1.63586 -0.451413 0
M  V30 1648 H 163.449 -3.67003 -1.35736 0
M  V30 1649 H 163.072 -2.79213 -2.83065 0
M  V30 1650 N 164.069 0.697108 -1.41344 0
M  V30 1651 C 165.315 1.45796 -1.41828 0
M  V30 1652 C 165.67 1.92382 -0.0261743 0
M  V30 1653 O 164.963 1.66522 0.947688 0
M  V30 1654 C 165.157 2.68553 -2.35826 0
M  V30 1655 C 164.986 2.33975 -3.84039 0
M  V30 1656 C 163.756 2.24414 -4.52732 0
M  V30 1657 C 165.954 1.97048 -4.75054 0
M  V30 1658 N 163.936 1.82705 -5.86082 0
M  V30 1659 C 165.307 1.66086 -5.9734 0
M  V30 1660 C 167.362 1.83845 -4.62715 0
M  V30 1661 C 166.065 1.23246 -7.08663 0
M  V30 1662 C 168.091 1.4241 -5.73998 0
M  V30 1663 C 167.453 1.12357 -6.95381 0
M  V30 1664 H 163.552 0.530859 -0.574206 0
M  V30 1665 H 166.136 0.806674 -1.77203 0
M  V30 1666 H 164.307 3.31404 -2.02549 0
M  V30 1667 H 166.039 3.35015 -2.2704 0
M  V30 1668 H 162.794 2.4276 -4.0665 0
M  V30 1669 H 163.218 1.64337 -6.56751 0
M  V30 1670 H 167.86 2.05734 -3.69369 0
M  V30 1671 H 165.578 1.00102 -8.01876 0
M  V30 1672 H 169.164 1.32746 -5.66454 0
M  V30 1673 H 168.044 0.807795 -7.80028 0
M  V30 1674 N 165.547 1.27147 0.931209 0
M  V30 1675 C 166.793 1.13446 1.68101 0
M  V30 1676 C 167.126 -0.319628 1.91552 0
M  V30 1677 O 166.401 -1.23407 1.50336 0
M  V30 1678 C 166.684 1.91482 3.0497 0
M  V30 1679 C 166.537 3.44855 2.88782 0
M  V30 1680 C 167.856 1.71651 4.05246 0
M  V30 1681 H 164.975 0.413498 0.610072 0
M  V30 1682 H 167.617 1.56261 1.08086 0
M  V30 1683 H 165.767 1.55095 3.56199 0
M  V30 1684 H 167.439 3.9105 2.44698 0
M  V30 1685 H 165.682 3.71373 2.24198 0
M  V30 1686 H 166.353 3.94694 3.85902 0
M  V30 1687 H 168.829 2.0337 3.63015 0
M  V30 1688 H 167.705 2.28651 4.99009 0
M  V30 1689 H 167.966 0.663555 4.37092 0
M  V30 1690 N 167.025 -1.13721 1.09112 0
M  V30 1691 C 167.955 -2.21148 0.749385 0
M  V30 1692 C 168.936 -1.6792 -0.271475 0
M  V30 1693 O 170.121 -1.93693 -0.140251 0
M  V30 1694 C 167.251 -3.46905 0.165659 0
M  V30 1695 C 166.205 -4.13203 1.11567 0
M  V30 1696 C 165.531 -5.33248 0.393809 0
M  V30 1697 C 166.831 -4.60912 2.45678 0
M  V30 1698 H 168.525 -2.4999 1.64758 0
M  V30 1699 H 166.071 -1.20156 0.793626 0
M  V30 1700 H 168.024 -4.21313 -0.085466 0
M  V30 1701 H 166.748 -3.17449 -0.767714 0
M  V30 1702 H 165.407 -3.40758 1.35202 0
M  V30 1703 H 165.055 -5.00054 -0.543599 0
M  V30 1704 H 164.755 -5.78552 1.02721 0
M  V30 1705 H 166.279 -6.10413 0.150908 0
M  V30 1706 H 167.693 -5.26759 2.26269 0
M  V30 1707 H 166.09 -5.16944 3.04776 0
M  V30 1708 H 167.16 -3.75603 3.06677 0
M  V30 1709 N 168.503 -0.877838 -1.30888 0
M  V30 1710 C 169.749 -0.493426 -1.96706 0
M  V30 1711 C 170.082 0.953504 -1.6918 0
M  V30 1712 O 169.357 1.67266 -0.992594 0
M  V30 1713 C 169.64 -0.760429 -3.51979 0
M  V30 1714 C 169.493 -2.25747 -3.89048 0
M  V30 1715 C 170.812 -0.232148 -4.39487 0
M  V30 1716 H 167.931 -0.180746 -0.714493 0
M  V30 1717 H 170.573 -1.10052 -1.54882 0
M  V30 1718 H 168.723 -0.243715 -3.87735 0
M  V30 1719 H 170.395 -2.84204 -3.63354 0
M  V30 1720 H 168.638 -2.72694 -3.37373 0
M  V30 1721 H 169.309 -2.39491 -4.97341 0
M  V30 1722 H 171.785 -0.674314 -4.106 0
M  V30 1723 H 170.661 -0.448355 -5.47066 0
M  V30 1724 H 170.922 0.866297 -4.33529 0
M  V30 1725 N 169.982 1.44106 -0.638065 0
M  V30 1726 C 170.892 2.34513 0.0637334 0
M  V30 1727 C 171.908 1.53018 0.828346 0
M  V30 1728 O 173.084 1.85723 0.779036 0
M  V30 1729 C 170.149 3.31095 1.02844 0
M  V30 1730 C 169.21 4.28497 0.26244 0
M  V30 1731 C 168.443 5.20465 1.1812 0
M  V30 1732 O 168.666 5.16514 2.42011 0
M  V30 1733 O 167.6 5.98251 0.661774 0
M  V30 1734 H 171.426 2.95989 -0.68003 0
M  V30 1735 H 169.011 1.43994 -0.398252 0
M  V30 1736 H 170.893 3.90526 1.58327 0
M  V30 1737 H 169.568 2.72144 1.7527 0
M  V30 1738 H 168.475 3.72592 -0.335602 0
M  V30 1739 H 169.808 4.90388 -0.421936 0
M  V30 1740 N 171.46 0.379036 1.52974 0
M  V30 1741 C 172.708 -0.206014 2.01047 0
M  V30 1742 C 173.029 -1.48175 1.26765 0
M  V30 1743 O 172.299 -1.92085 0.384743 0
M  V30 1744 H 170.879 -0.0791184 0.742798 0
M  V30 1745 H 173.541 0.508366 1.88153 0
M  V30 1746 H 172.637 -0.423501 3.09213 0
M  V30 1747 N 172.938 -1.57226 0.108567 0
M  V30 1748 C 173.901 -2.13602 -0.831082 0
M  V30 1749 C 174.901 -1.06841 -1.20173 0
M  V30 1750 O 176.091 -1.32666 -1.12895 0
M  V30 1751 C 173.223 -2.66769 -2.12243 0
M  V30 1752 H 174.416 -2.97951 -0.341317 0
M  V30 1753 H 171.969 -1.55667 -0.14057 0
M  V30 1754 H 172.704 -1.85977 -2.65675 0
M  V30 1755 H 172.489 -3.44839 -1.86625 0
M  V30 1756 H 173.979 -3.10332 -2.79435 0
M  V30 1757 N 174.416 0.165178 -1.56732 0
M  V30 1758 C 175.664 0.879068 -1.8198 0
M  V30 1759 C 175.985 1.82514 -0.686561 0
M  V30 1760 O 175.255 1.93694 0.293146 0
M  V30 1761 H 173.835 0.327608 -0.671329 0
M  V30 1762 H 176.497 0.163526 -1.94213 0
M  V30 1763 H 175.593 1.45228 -2.76252 0
M  V30 1764 N 175.894 1.51508 0.433938 0
M  V30 1765 C 177.142 1.6402 1.18075 0
M  V30 1766 C 177.463 0.360328 1.91642 0
M  V30 1767 O 176.733 -0.623945 1.85698 0
M  V30 1768 H 175.313 0.6045 0.43885 0
M  V30 1769 H 177.975 1.88452 0.497178 0
M  V30 1770 H 177.071 2.46949 1.90847 0
M  V30 1771 N 177.372 -0.689602 1.41712 0
M  V30 1772 C 178.618 -1.45041 1.42599 0
M  V30 1773 C 178.973 -1.92366 0.0363764 0
M  V30 1774 O 178.266 -1.67022 -0.938844 0
M  V30 1775 C 178.46 -2.67298 2.37247 0
M  V30 1776 C 178.289 -2.31935 3.85274 0
M  V30 1777 C 177.059 -2.2201 4.53916 0
M  V30 1778 C 179.257 -1.94526 4.76093 0
M  V30 1779 N 177.239 -1.79594 5.87043 0
M  V30 1780 C 178.61 -1.62915 5.98213 0
M  V30 1781 C 180.665 -1.81388 4.63684 0
M  V30 1782 C 179.368 -1.19486 7.09306 0
M  V30 1783 C 181.394 -1.39364 5.74745 0
M  V30 1784 C 180.756 -1.08668 6.95967 0
M  V30 1785 H 176.855 -0.527806 0.577014 0
M  V30 1786 H 179.439 -0.797266 1.77628 0
M  V30 1787 H 177.61 -3.30325 2.04304 0
M  V30 1788 H 179.342 -3.33806 2.28814 0
M  V30 1789 H 176.097 -2.406 4.07932 0
M  V30 1790 H 176.521 -1.60851 6.57614 0
M  V30 1791 H 181.163 -2.03772 3.70455 0
M  V30 1792 H 178.881 -0.958477 8.02396 0
M  V30 1793 H 182.467 -1.2974 5.6715 0
M  V30 1794 H 181.347 -0.766417 7.80446 0
M  V30 1795 N 178.85 -1.27639 -0.924453 0
M  V30 1796 C 180.097 -1.14167 -1.67249 0
M  V30 1797 C 180.425 0.311863 -1.91984 0
M  V30 1798 O 179.68 1.24425 -1.51053 0
M  V30 1799 C 179.979 -1.87407 -3.04325 0
M  V30 1800 C 179.645 -3.37249 -2.99289 0
M  V30 1801 C 178.307 -3.7812 -2.97622 0
M  V30 1802 C 180.659 -4.32845 -2.90336 0
M  V30 1803 C 177.987 -5.12944 -2.8479 0
M  V30 1804 C 180.339 -5.6773 -2.79045 0
M  V30 1805 C 179.003 -6.07889 -2.7573 0
M  V30 1806 H 178.273 -0.417766 -0.612007 0
M  V30 1807 H 180.92 -1.58286 -1.07786 0
M  V30 1808 H 179.225 -1.35805 -3.67511 0
M  V30 1809 H 180.922 -1.74408 -3.61086 0
M  V30 1810 H 177.512 -3.04748 -3.01374 0
M  V30 1811 H 181.696 -4.02239 -2.90719 0
M  V30 1812 H 176.952 -5.432 -2.80612 0
M  V30 1813 H 181.126 -6.41472 -2.71083 0
M  V30 1814 H 178.753 -7.12314 -2.65544 0
M  V30 1815 N 180.328 1.1314 -1.09713 0
M  V30 1816 C 181.556 1.88321 -0.856898 0
M  V30 1817 C 181.971 1.79276 0.592073 0
M  V30 1818 O 181.328 1.16142 1.40774 0
M  V30 1819 C 181.379 3.37812 -1.28706 0
M  V30 1820 O 181.1 3.46627 -2.67921 0
M  V30 1821 C 182.601 4.29952 -1.07964 0
M  V30 1822 H 179.821 0.596094 -0.308079 0
M  V30 1823 H 182.365 1.43205 -1.45988 0
M  V30 1824 H 180.52 3.805 -0.727912 0
M  V30 1825 H 180.934 4.39579 -2.8613 0
M  V30 1826 H 182.408 5.33159 -1.42986 0
M  V30 1827 H 182.885 4.39196 -0.0176577 0
M  V30 1828 H 183.491 3.93036 -1.62489 0
M  V30 1829 N 181.806 0.884767 1.30421 0
M  V30 1830 C 183.217 0.553656 1.78302 0
M  V30 1831 C 183.568 -0.930153 1.7275 0
M  V30 1832 O 182.693 -1.72681 1.30423 0
M  V30 1833 C 183.288 0.998234 3.2376 0
M  V30 1834 C 181.847 0.71854 3.69478 0
M  V30 1835 C 180.994 1.18132 2.50879 0
M  V30 1836 H 183.945 1.06901 1.17294 0
M  V30 1837 H 183.966 0.327118 3.79091 0
M  V30 1838 H 183.478 2.0782 3.27769 0
M  V30 1839 H 181.579 -0.349444 3.70958 0
M  V30 1840 H 181.692 1.30595 4.60958 0
M  V30 1841 H 180.056 0.600669 2.47516 0
M  V30 1842 H 180.839 2.26902 2.57624 0
M  V30 1843 N 183.284 -1.43765 0.645699 0
M  V30 1844 C 184.214 -2.33471 -0.0370477 0
M  V30 1845 C 185.195 -1.49042 -0.819779 0
M  V30 1846 O 186.38 -1.77726 -0.782758 0
M  V30 1847 C 183.51 -3.32311 -1.0093 0
M  V30 1848 C 182.464 -4.2667 -0.337201 0
M  V30 1849 C 181.79 -5.1549 -1.42037 0
M  V30 1850 C 183.09 -5.16657 0.765706 0
M  V30 1851 H 184.784 -2.90809 0.712069 0
M  V30 1852 H 182.33 -1.39834 0.343876 0
M  V30 1853 H 184.283 -3.9396 -1.49578 0
M  V30 1854 H 183.007 -2.73213 -1.78948 0
M  V30 1855 H 181.666 -3.66374 0.128771 0
M  V30 1856 H 181.314 -4.52735 -2.1918 0
M  V30 1857 H 181.014 -5.79438 -0.975966 0
M  V30 1858 H 182.538 -5.80012 -1.90838 0
M  V30 1859 H 183.952 -5.72158 0.361702 0
M  V30 1860 H 182.349 -5.89286 1.13413 0
M  V30 1861 H 183.419 -4.56796 1.62683 0
M  V30 1862 N 184.763 -0.387143 -1.52771 0
M  V30 1863 C 185.988 0.198407 -2.06449 0
M  V30 1864 C 186.413 1.39918 -1.25716 0
M  V30 1865 O 185.771 1.79099 -0.281657 0
M  V30 1866 C 185.819 0.548893 -3.56398 0
M  V30 1867 O 184.923 1.64315 -3.78252 0
M  V30 1868 H 184.264 0.0237731 -0.663574 0
M  V30 1869 H 186.794 -0.553989 -1.96957 0
M  V30 1870 H 186.804 0.813812 -3.99801 0
M  V30 1871 H 185.479 -0.329005 -4.14597 0
M  V30 1872 H 184.056 1.37211 -3.46738 0
M  V30 1873 N 186.241 1.57166 -0.116904 0
M  V30 1874 C 187.518 1.86645 0.585049 0
M  V30 1875 C 187.898 1.0177 1.84949 0
M  V30 1876 O 187.246 0.0960379 2.28298 0
M  V30 1877 C 187.456 3.37736 0.879507 0
M  V30 1878 C 188.804 4.06289 1.23348 0
M  V30 1879 O 189.828 3.42743 0.969836 0
M  V30 1880 O 188.687 5.18455 1.7282 0
M  V30 1881 H 185.781 0.772593 0.295007 0
M  V30 1882 H 188.327 1.69025 -0.151249 0
M  V30 1883 H 187.099 3.91296 -0.0166136 0
M  V30 1884 H 186.722 3.6078 1.67103 0
M  V30 1885 N 187.719 -0.156864 1.56817 0
M  V30 1886 C 188.947 -0.886316 1.86955 0
M  V30 1887 C 189.362 -1.75185 0.703975 0
M  V30 1888 O 188.719 -1.79555 -0.326552 0
M  V30 1889 C 188.77 -1.75117 3.16253 0
M  V30 1890 O 188.491 -0.920537 4.2832 0
M  V30 1891 C 189.992 -2.58905 3.59837 0
M  V30 1892 H 187.212 -0.25678 0.619923 0
M  V30 1893 H 189.756 -0.152615 2.0393 0
M  V30 1894 H 187.911 -2.43805 3.01062 0
M  V30 1895 H 188.325 -1.51337 5.02192 0
M  V30 1896 H 189.799 -3.1518 4.53172 0
M  V30 1897 H 190.276 -3.34472 2.84649 0
M  V30 1898 H 190.882 -1.95526 3.7769 0
M  V30 1899 N 189.197 -1.51736 -0.425897 0
M  V30 1900 C 190.444 -1.6497 -1.17436 0
M  V30 1901 C 190.772 -0.371445 -1.9092 0
M  V30 1902 O 190.027 0.644963 -1.84767 0
M  V30 1903 C 190.326 -2.81103 -2.20717 0
M  V30 1904 C 189.992 -4.19954 -1.64162 0
M  V30 1905 C 188.654 -4.57725 -1.48462 0
M  V30 1906 C 191.006 -5.06552 -1.22696 0
M  V30 1907 C 188.334 -5.79789 -0.897873 0
M  V30 1908 C 190.686 -6.29205 -0.654464 0
M  V30 1909 C 189.35 -6.6574 -0.484456 0
M  V30 1910 H 188.62 -0.603668 -0.429727 0
M  V30 1911 H 191.267 -1.85798 -0.463829 0
M  V30 1912 H 189.572 -2.54542 -2.97852 0
M  V30 1913 H 191.269 -2.8854 -2.78471 0
M  V30 1914 H 187.859 -3.90181 -1.77361 0
M  V30 1915 H 192.043 -4.77968 -1.33642 0
M  V30 1916 H 187.299 -6.06733 -0.75402 0
M  V30 1917 H 191.473 -6.95643 -0.324694 0
M  V30 1918 H 189.1 -7.60195 -0.0276833 0
M  V30 1919 N 190.675 0.682077 -1.42076 0
M  V30 1920 C 191.903 1.47057 -1.4554 0
M  V30 1921 C 192.318 1.8869 -0.0645779 0
M  V30 1922 O 191.675 1.57666 0.919115 0
M  V30 1923 C 191.726 2.72442 -2.37609 0
M  V30 1924 O 191.447 2.32559 -3.71279 0
M  V30 1925 C 192.948 3.66069 -2.50017 0
M  V30 1926 H 190.168 0.452737 -0.495248 0
M  V30 1927 H 192.712 0.838695 -1.8651 0
M  V30 1928 H 190.867 3.31835 -1.9991 0
M  V30 1929 H 191.281 3.13475 -4.20516 0
M  V30 1930 H 192.755 4.50792 -3.18576 0
M  V30 1931 H 193.232 4.11476 -1.53572 0
M  V30 1932 H 193.838 3.12572 -2.88407 0
M  V30 1933 N 192.153 1.28127 0.917671 0
M  V30 1934 C 193.4 1.15052 1.66641 0
M  V30 1935 C 193.728 -0.301677 1.92146 0
M  V30 1936 O 192.983 -1.23622 1.51711 0
M  V30 1937 C 193.282 1.89018 3.03327 0
M  V30 1938 C 192.948 3.38832 2.97496 0
M  V30 1939 C 191.61 3.79693 2.95613 0
M  V30 1940 C 193.962 4.34378 2.88036 0
M  V30 1941 C 191.29 5.14447 2.82066 0
M  V30 1942 C 193.642 5.69201 2.7603 0
M  V30 1943 C 192.306 6.09343 2.72502 0
M  V30 1944 H 191.576 0.421006 0.609783 0
M  V30 1945 H 194.223 1.58855 1.06945 0
M  V30 1946 H 192.528 1.37752 3.66785 0
M  V30 1947 H 194.225 1.76321 3.60156 0
M  V30 1948 H 190.815 3.06342 2.99754 0
M  V30 1949 H 194.999 4.03775 2.88581 0
M  V30 1950 H 190.255 5.44681 2.77728 0
M  V30 1951 H 194.429 6.42901 2.67678 0
M  V30 1952 H 192.056 7.13712 2.61762 0
M  V30 1953 N 193.631 -1.12557 1.10312 0
M  V30 1954 C 194.594 -2.16434 0.75424 0
M  V30 1955 C 195.594 -1.59278 -0.220685 0
M  V30 1956 O 196.784 -1.742 0.00230591 0
M  V30 1957 C 193.916 -3.40699 0.116987 0
M  V30 1958 H 195.109 -2.48811 1.67431 0
M  V30 1959 H 192.662 -1.27542 0.903475 0
M  V30 1960 H 193.397 -3.13921 -0.813877 0
M  V30 1961 H 193.182 -3.83459 0.818613 0
M  V30 1962 H 194.672 -4.17451 -0.111387 0
M  V30 1963 N 195.109 -0.891671 -1.2995 0
M  V30 1964 C 196.386 -0.433307 -1.9074 0
M  V30 1965 C 196.766 1.08646 -1.80995 0
M  V30 1966 O 196.114 1.92476 -1.23147 0
M  V30 1967 C 196.324 -0.938895 -3.36134 0
M  V30 1968 C 197.672 -0.977829 -4.13187 0
M  V30 1969 O 198.696 -0.886015 -3.45005 0
M  V30 1970 O 197.555 -1.11453 -5.35015 0
M  V30 1971 H 194.649 -0.133699 -0.816121 0
M  V30 1972 H 197.195 -0.981011 -1.38471 0
M  V30 1973 H 195.967 -1.98281 -3.37343 0
M  V30 1974 H 195.59 -0.37074 -3.95868 0
M  V30 1975 N 196.587 1.43421 -0.653314 0
M  V30 1976 C 197.833 2.02641 -0.175593 0
M  V30 1977 C 198.188 1.5062 1.19713 0
M  V30 1978 O 197.481 0.689697 1.78756 0
M  V30 1979 C 197.675 3.57176 -0.126623 0
M  V30 1980 C 197.504 4.24191 -1.49306 0
M  V30 1981 C 196.274 4.60257 -2.08547 0
M  V30 1982 C 198.472 4.53193 -2.43148 0
M  V30 1983 N 196.454 5.12345 -3.38194 0
M  V30 1984 C 197.825 5.06601 -3.57429 0
M  V30 1985 C 199.88 4.35161 -2.41949 0
M  V30 1986 C 198.583 5.43875 -4.70736 0
M  V30 1987 C 200.609 4.73498 -3.54336 0
M  V30 1988 C 199.971 5.27039 -4.67343 0
M  V30 1989 H 196.07 0.77441 -0.108686 0
M  V30 1990 H 198.654 1.74596 -0.861638 0
M  V30 1991 H 196.825 3.84784 0.528766 0
M  V30 1992 H 198.557 4.03078 0.36198 0
M  V30 1993 H 195.312 4.45302 -1.61255 0
M  V30 1994 H 195.736 5.42842 -4.04538 0
M  V30 1995 H 200.378 3.9304 -1.55818 0
M  V30 1996 H 198.096 5.8494 -5.57558 0
M  V30 1997 H 201.682 4.61241 -3.5461 0
M  V30 1998 H 200.562 5.56153 -5.52868 0
M  V30 1999 N 198.065 0.39524 1.52563 0
M  V30 2000 C 199.311 -0.185318 2.01952 0
M  V30 2001 C 199.644 -1.45964 1.28095 0
M  V30 2002 O 198.919 -1.90689 0.38315 0
M  V30 2003 C 199.202 -0.447193 3.57312 0
M  V30 2004 C 199.055 0.842828 4.41833 0
M  V30 2005 C 200.374 -1.23529 4.22408 0
M  V30 2006 H 197.493 -0.0658788 0.73405 0
M  V30 2007 H 200.135 0.525975 1.82575 0
M  V30 2008 H 198.285 -1.05312 3.73954 0
M  V30 2009 H 199.957 1.4795 4.36931 0
M  V30 2010 H 198.2 1.45686 4.08605 0
M  V30 2011 H 198.871 0.614165 5.48573 0
M  V30 2012 H 201.347 -0.722445 4.0978 0
M  V30 2013 H 200.223 -1.38727 5.3108 0
M  V30 2014 H 200.484 -2.25213 3.80436 0
M  V30 2015 N 199.544 -1.57102 0.125237 0
M  V30 2016 C 200.772 -1.99761 -0.538797 0
M  V30 2017 C 201.187 -1.00503 -1.59827 0
M  V30 2018 O 200.544 0.00119474 -1.825 0
M  V30 2019 C 200.595 -3.42408 -1.15927 0
M  V30 2020 O 200.316 -4.37869 -0.142143 0
M  V30 2021 C 201.817 -4.00232 -1.90602 0
M  V30 2022 H 199.037 -0.655772 -0.14214 0
M  V30 2023 H 201.581 -2.03383 0.213413 0
M  V30 2024 H 199.736 -3.39706 -1.86223 0
M  V30 2025 H 200.15 -5.21128 -0.593775 0
M  V30 2026 H 201.624 -5.02105 -2.29335 0
M  V30 2027 H 202.101 -3.39721 -2.78363 0
M  V30 2028 H 202.707 -4.06499 -1.25055 0
M  V30 2029 N 201.022 0.148545 -1.56898 0
M  V30 2030 C 201.954 1.20852 -1.9475 0
M  V30 2031 C 202.967 1.39265 -0.843152 0
M  V30 2032 O 204.156 1.38864 -1.12156 0
M  V30 2033 C 201.256 2.57362 -2.20495 0
M  V30 2034 C 200.429 2.59947 -3.51776 0
M  V30 2035 C 199.488 3.77984 -3.6608 0
M  V30 2036 O 198.514 3.62929 -4.38487 0
M  V30 2037 N 199.716 4.95375 -3.02629 0
M  V30 2038 H 202.481 0.886804 -2.86279 0
M  V30 2039 H 200.042 0.338121 -1.5833 0
M  V30 2040 H 202.034 3.34833 -2.27307 0
M  V30 2041 H 200.604 2.81832 -1.35238 0
M  V30 2042 H 199.824 1.68403 -3.56419 0
M  V30 2043 H 201.112 2.58704 -4.38121 0
M  V30 2044 H 200.51 5.10509 -2.43715 0
M  V30 2045 H 199.067 5.70627 -3.15004 0
M  V30 2046 N 202.5 1.5196 0.417844 0
M  V30 2047 C 203.41 1.77554 1.53336 0
M  V30 2048 C 204.426 0.660655 1.6097 0
M  V30 2049 O 205.602 0.945099 1.77848 0
M  V30 2050 C 202.667 1.91291 2.89152 0
M  V30 2051 C 201.728 3.15183 2.91475 0
M  V30 2052 C 200.961 3.28256 4.20813 0
M  V30 2053 O 201.184 2.46798 5.14244 0
M  V30 2054 O 200.118 4.21356 4.29817 0
M  V30 2055 H 203.944 2.7222 1.34647 0
M  V30 2056 H 201.529 1.36698 0.602828 0
M  V30 2057 H 203.411 2.02199 3.69721 0
M  V30 2058 H 202.086 0.998129 3.07927 0
M  V30 2059 H 200.993 3.09739 2.09791 0
M  V30 2060 H 202.326 4.06414 2.77648 0
M  V30 2061 N 203.978 -0.674533 1.42435 0
M  V30 2062 C 204.91 -1.80005 1.41883 0
M  V30 2063 C 205.923 -1.59667 0.31787 0
M  V30 2064 O 207.112 -1.68781 0.580973 0
M  V30 2065 C 204.212 -3.17114 1.19549 0
M  V30 2066 C 203.385 -3.64299 2.42084 0
M  V30 2067 C 202.444 -4.80142 2.15291 0
M  V30 2068 O 201.47 -4.90673 2.88493 0
M  V30 2069 N 202.672 -5.68869 1.1562 0
M  V30 2070 H 205.437 -1.80964 2.38898 0
M  V30 2071 H 202.998 -0.857633 1.37318 0
M  V30 2072 H 204.99 -3.92267 0.995417 0
M  V30 2073 H 203.56 -3.11053 0.310569 0
M  V30 2074 H 202.78 -2.79822 2.77657 0
M  V30 2075 H 204.068 -3.92567 3.23679 0
M  V30 2076 H 203.466 -5.63012 0.550765 0
M  V30 2077 H 202.023 -6.43833 1.016 0
M  V30 2078 N 205.456 -1.28612 -0.910864 0
M  V30 2079 C 206.386 -1.15326 -2.03032 0
M  V30 2080 C 207.367 -0.0502924 -1.70026 0
M  V30 2081 O 208.552 -0.227797 -1.92859 0
M  V30 2082 C 205.682 -0.817343 -3.37545 0
M  V30 2083 C 204.636 -1.8754 -3.84724 0
M  V30 2084 C 203.962 -1.39305 -5.16235 0
M  V30 2085 C 205.262 -3.28244 -4.06267 0
M  V30 2086 H 206.956 -2.08975 -2.14406 0
M  V30 2087 H 204.502 -1.00612 -1.03021 0
M  V30 2088 H 206.455 -0.711151 -4.15356 0
M  V30 2089 H 205.179 0.154846 -3.26233 0
M  V30 2090 H 203.838 -1.97079 -3.09121 0
M  V30 2091 H 203.486 -0.409846 -5.01328 0
M  V30 2092 H 203.186 -2.10057 -5.48771 0
M  V30 2093 H 204.71 -1.30014 -5.96598 0
M  V30 2094 H 206.124 -3.21611 -4.74594 0
M  V30 2095 H 204.521 -3.96855 -4.5014 0
M  V30 2096 H 205.591 -3.72048 -3.10979 0
M  V30 2097 N 206.934 1.1197 -1.10907 0
M  V30 2098 C 208.345 1.65114 -0.871446 0
M  V30 2099 C 208.696 1.86885 0.597353 0
M  V30 2100 O 207.821 1.59896 1.45816 0
M  V30 2101 C 208.416 2.99944 -1.5754 0
M  V30 2102 C 206.975 3.50018 -1.38435 0
M  V30 2103 C 206.122 2.24941 -1.62164 0
M  V30 2104 H 209.073 0.956851 -1.2661 0
M  V30 2105 H 209.094 3.66651 -1.01721 0
M  V30 2106 H 208.606 2.84067 -2.64438 0
M  V30 2107 H 206.707 3.71071 -0.337214 0
M  V30 2108 H 206.82 4.29165 -2.12965 0
M  V30 2109 H 205.184 2.3229 -1.04467 0
M  V30 2110 H 205.967 2.11612 -2.70324 0
M  V30 2111 N 208.412 0.89855 1.29475 0
M  V30 2112 C 209.658 0.524658 1.95896 0
M  V30 2113 C 209.991 -0.926468 1.70676 0
M  V30 2114 O 209.266 -1.65665 1.01908 0
M  V30 2115 C 209.549 0.81633 3.50725 0
M  V30 2116 C 209.402 2.31907 3.85408 0
M  V30 2117 C 210.721 0.302038 4.39062 0
M  V30 2118 H 207.84 0.19209 0.711527 0
M  V30 2119 H 210.482 1.12502 1.53112 0
M  V30 2120 H 208.632 0.305369 3.87298 0
M  V30 2121 H 210.304 2.89949 3.58786 0
M  V30 2122 H 208.547 2.78027 3.32992 0
M  V30 2123 H 209.218 2.47373 4.93468 0
M  V30 2124 H 211.694 0.739551 4.09475 0
M  V30 2125 H 210.57 0.535331 5.46283 0
M  V30 2126 H 210.831 -0.797216 4.34853 0
M  V30 2127 N 209.89 -1.43072 0.660911 0
M  V30 2128 C 211.139 -2.00942 0.174735 0
M  V30 2129 C 211.452 -1.52797 -1.22117 0
M  V30 2130 O 212.658 -2.02991 -1.80297 0
M  V30 2131 C 211.114 -3.58948 0.261559 0
M  V30 2132 C 210.722 -4.16085 1.66064 0
M  V30 2133 C 212.466 -4.24173 -0.166617 0
M  V30 2134 C 210.373 -5.6641 1.70098 0
M  V30 2135 H 209.303 -0.751483 0.0615631 0
M  V30 2136 H 211.954 -1.63955 0.824069 0
M  V30 2137 H 210.336 -3.93372 -0.455421 0
M  V30 2138 H 211.51 -3.93147 2.40359 0
M  V30 2139 H 209.825 -3.6326 2.03546 0
M  V30 2140 H 212.422 -5.34471 -0.156433 0
M  V30 2141 H 212.765 -3.98647 -1.19943 0
M  V30 2142 H 213.298 -3.94659 0.498875 0
M  V30 2143 H 210.037 -5.96715 2.71315 0
M  V30 2144 H 209.557 -5.91382 1.00139 0
M  V30 2145 H 211.236 -6.30585 1.44816 0
M  V30 2146 N 211.368 -0.403325 -1.52352 0
M  V30 2147 C 212.298 0.416205 -2.29761 0
M  V30 2148 C 213.279 1.05123 -1.33728 0
M  V30 2149 O 214.464 1.06134 -1.62632 0
M  V30 2150 C 211.594 1.53624 -3.11475 0
M  V30 2151 C 210.548 1.02653 -4.15507 0
M  V30 2152 C 209.874 2.23971 -4.85532 0
M  V30 2153 C 211.174 0.08463 -5.22231 0
M  V30 2154 H 212.868 -0.229701 -2.98518 0
M  V30 2155 H 210.414 -0.111913 -1.43564 0
M  V30 2156 H 212.367 2.1165 -3.64393 0
M  V30 2157 H 211.091 2.20994 -2.40477 0
M  V30 2158 H 209.75 0.46871 -3.63591 0
M  V30 2159 H 209.398 2.89883 -4.11068 0
M  V30 2160 H 209.098 1.90521 -5.55856 0
M  V30 2161 H 210.622 2.82614 -5.41259 0
M  V30 2162 H 212.036 0.573509 -5.70424 0
M  V30 2163 H 210.433 -0.160783 -5.99885 0
M  V30 2164 H 211.503 -0.86237 -4.7717 0
M  V30 2165 N 212.846 1.57033 -0.133567 0
M  V30 2166 C 214.092 1.95976 0.521649 0
M  V30 2167 C 214.425 1.01779 1.65393 0
M  V30 2168 O 213.7 0.0576581 1.94415 0
M  V30 2169 C 213.983 3.44738 1.04057 0
M  V30 2170 C 213.836 4.49711 -0.0892897 0
M  V30 2171 C 215.155 3.95682 1.92675 0
M  V30 2172 H 212.274 0.712579 0.188149 0
M  V30 2173 H 214.916 1.88813 -0.212076 0
M  V30 2174 H 213.066 3.50973 1.66583 0
M  V30 2175 H 214.738 4.55565 -0.725152 0
M  V30 2176 H 212.981 4.27261 -0.750378 0
M  V30 2177 H 213.652 5.51099 0.315284 0
M  V30 2178 H 216.128 3.91841 1.39998 0
M  V30 2179 H 215.004 5.00262 2.25897 0
M  V30 2180 H 215.265 3.37239 2.85872 0
M  V30 2181 N 214.325 -0.140222 1.56975 0
M  V30 2182 C 215.571 -0.852949 1.83991 0
M  V30 2183 C 215.904 -1.80512 0.716187 0
M  V30 2184 O 215.179 -1.92479 -0.279681 0
M  V30 2185 C 215.462 -1.6215 3.21527 0
M  V30 2186 C 215.315 -0.690363 4.4447 0
M  V30 2187 C 216.634 -2.58247 3.56366 0
M  V30 2188 H 213.753 -0.308634 0.669264 0
M  V30 2189 H 216.395 -0.117898 1.89634 0
M  V30 2190 H 214.545 -2.24812 3.16847 0
M  V30 2191 H 216.217 -0.0742264 4.6124 0
M  V30 2192 H 214.46 -0.000396433 4.338 0
M  V30 2193 H 215.131 -1.2643 5.37326 0
M  V30 2194 H 217.607 -2.05701 3.61699 0
M  V30 2195 H 216.483 -3.09067 4.53617 0
M  V30 2196 H 216.744 -3.39923 2.82674 0
M  V30 2197 N 215.803 -1.52179 -0.40978 0
M  V30 2198 C 217.051 -1.65878 -1.15451 0
M  V30 2199 C 217.372 -0.390771 -1.91044 0
M  V30 2200 O 216.642 0.594323 -1.86667 0
M  V30 2201 H 215.222 -0.611405 -0.429177 0
M  V30 2202 H 217.884 -1.89219 -0.467134 0
M  V30 2203 H 216.98 -2.49954 -1.86894 0
M  V30 2204 N 217.281 0.66697 -1.42791 0
M  V30 2205 C 218.527 1.4291 -1.43891 0
M  V30 2206 C 218.86 1.94114 -0.0578972 0
M  V30 2207 O 218.135 1.71414 0.91911 0
M  V30 2208 C 218.418 2.62049 -2.46987 0
M  V30 2209 C 218.271 2.16426 -3.94309 0
M  V30 2210 C 219.59 3.64266 -2.46978 0
M  V30 2211 H 216.709 0.518306 -0.523954 0
M  V30 2212 H 219.351 0.757321 -1.74255 0
M  V30 2213 H 217.501 3.19361 -2.21225 0
M  V30 2214 H 219.173 1.64221 -4.31079 0
M  V30 2215 H 217.416 1.47925 -4.078 0
M  V30 2216 H 218.087 3.02038 -4.62036 0
M  V30 2217 H 220.563 3.16686 -2.69906 0
M  V30 2218 H 219.439 4.45196 -3.21079 0
M  V30 2219 H 219.7 4.15927 -1.49857 0
M  V30 2220 N 218.759 1.29093 0.90403 0
M  V30 2221 C 219.706 1.13853 2.00764 0
M  V30 2222 C 220.676 0.0330084 1.66067 0
M  V30 2223 O 221.861 0.199733 1.89752 0
M  V30 2224 C 219.001 0.816537 3.35301 0
M  V30 2225 C 218.114 2.00206 3.82807 0
M  V30 2226 C 217.249 1.61983 5.059 0
M  V30 2227 C 216.288 2.77143 5.45764 0
M  V30 2228 N 215.425 2.39346 6.60044 0
M  V30 2229 H 220.265 2.08276 2.13132 0
M  V30 2230 H 217.802 1.03648 1.04381 0
M  V30 2231 H 219.76 0.610557 4.12708 0
M  V30 2232 H 218.39 -0.090779 3.22672 0
M  V30 2233 H 217.442 2.31988 3.01473 0
M  V30 2234 H 218.754 2.86512 4.08304 0
M  V30 2235 H 217.908 1.37649 5.90879 0
M  V30 2236 H 216.647 0.728202 4.82233 0
M  V30 2237 H 215.652 3.02165 4.59322 0
M  V30 2238 H 216.877 3.66964 5.71414 0
M  V30 2239 H 214.823 1.52665 6.37989 0
M  V30 2240 H 214.74 3.19185 6.85315 0
M  V30 2241 H 216.008 2.1832 7.48303 0
M  V30 2242 N 220.237 -1.11381 1.11499 0
M  V30 2243 C 221.167 -2.19509 0.796125 0
M  V30 2244 C 222.148 -1.68458 -0.235796 0
M  V30 2245 O 223.333 -1.93947 -0.0991344 0
M  V30 2246 C 220.463 -3.46475 0.239205 0
M  V30 2247 C 219.417 -4.10744 1.20307 0
M  V30 2248 C 218.743 -5.32293 0.50683 0
M  V30 2249 C 220.043 -4.55597 2.55399 0
M  V30 2250 H 221.737 -2.46439 1.70024 0
M  V30 2251 H 219.283 -1.18446 0.818935 0
M  V30 2252 H 221.236 -4.214 0.00392006 0
M  V30 2253 H 219.96 -3.19006 -0.700206 0
M  V30 2254 H 218.619 -3.37813 1.42399 0
M  V30 2255 H 218.267 -5.01095 -0.437408 0
M  V30 2256 H 217.967 -5.76243 1.1497 0
M  V30 2257 H 219.491 -6.09956 0.280351 0
M  V30 2258 H 220.905 -5.21841 2.37391 0
M  V30 2259 H 219.302 -5.10363 3.15673 0
M  V30 2260 H 220.372 -3.69013 3.14575 0
M  V30 2261 N 221.715 -0.905404 -1.28997 0
M  V30 2262 C 222.963 -0.533192 -1.9494 0
M  V30 2263 C 223.284 0.924618 -1.71685 0
M  V30 2264 O 222.554 1.65268 -1.05183 0
M  V30 2265 H 221.134 -0.194194 -0.721317 0
M  V30 2266 H 223.796 -1.15294 -1.57141 0
M  V30 2267 H 222.892 -0.72059 -3.03667 0
M  V30 2268 N 223.193 1.4272 -0.668489 0
M  V30 2269 C 224.433 2.03497 -0.19194 0
M  V30 2270 C 224.797 1.51684 1.17712 0
M  V30 2271 O 225.998 2.04205 1.74796 0
M  V30 2272 C 224.269 3.56734 -0.218032 0
M  V30 2273 S 225.828 4.38395 0.188438 0
M  V30 2274 H 222.646 0.706542 -0.0794959 0
M  V30 2275 H 225.248 1.74563 -0.880235 0
M  V30 2276 H 223.952 3.91943 -1.2169 0
M  V30 2277 H 223.483 3.90333 0.490303 0
M  V30 2278 H 225.498 4.75345 1.42345 0
M  V30 2279 N 224.671 0.411399 1.52136 0
M  V30 2280 C 225.92 -0.165009 2.01024 0
M  V30 2281 C 226.233 -1.4603 1.30133 0
M  V30 2282 O 227.439 -2.1181 1.69849 0
M  V30 2283 C 225.895 -0.344618 3.58246 0
M  V30 2284 C 225.503 0.938716 4.38055 0
M  V30 2285 C 227.247 -0.876195 4.15359 0
M  V30 2286 C 225.154 0.726172 5.86925 0
M  V30 2287 H 224.084 -0.0654407 0.751155 0
M  V30 2288 H 226.735 0.537192 1.75461 0
M  V30 2289 H 225.117 -1.10921 3.80148 0
M  V30 2290 H 226.291 1.70963 4.27912 0
M  V30 2291 H 224.606 1.39688 3.92271 0
M  V30 2292 H 227.203 -1.05128 5.24263 0
M  V30 2293 H 227.546 -1.85152 3.7286 0
M  V30 2294 H 228.079 -0.170607 3.97434 0
M  V30 2295 H 224.818 1.67312 6.33788 0
M  V30 2296 H 224.338 -0.00540283 5.998 0
M  V30 2297 H 226.017 0.369231 6.45946 0
M  V30 2298 N 226.149 -1.5696 0.141893 0
M  V30 2299 C 227.097 -2.17784 -0.816874 0
M  V30 2300 C 228.091 -1.1334 -1.25899 0
M  V30 2301 O 229.297 -1.316 -1.22806 0
M  V30 2302 H 225.672 -0.697278 -0.281615 0
M  V30 2303 H 227.643 -2.97087 -0.279621 0
M  V30 2304 C 226.392 -2.80983 -2.04802 0
M  V30 2305 H 225.715 -3.61062 -1.7168 0
M  V30 2306 H 227.155 -3.2705 -2.69841 0
M  V30 2307 C 225.614 -1.79228 -2.8527 0
M  V30 2308 O 226.144 -1.25962 -3.8144 0
M  V30 2309 N 224.35 -1.48647 -2.49704 0
M  V30 2310 H 223.897 -1.92155 -1.71564 0
M  V30 2311 H 223.855 -0.808115 -3.03837 0
M  V30 2312 N 227.627 0.131896 -1.57047 0
M  V30 2313 C 228.577 1.1679 -1.95816 0
M  V30 2314 C 229.561 1.37756 -0.831393 0
M  V30 2315 O 230.753 1.39065 -1.09499 0
M  V30 2316 C 227.882 2.49778 -2.35512 0
M  V30 2317 C 226.968 2.32342 -3.54793 0
M  V30 2318 N 227.359 1.8469 -4.70875 0
M  V30 2319 C 225.657 2.63043 -3.60173 0
M  V30 2320 C 226.358 1.80656 -5.52936 0
M  V30 2321 N 225.334 2.24528 -4.95064 0
M  V30 2322 H 229.136 0.791818 -2.83033 0
M  V30 2323 H 226.65 0.339791 -1.58805 0
M  V30 2324 H 228.647 3.24692 -2.61498 0
M  V30 2325 H 227.307 2.88156 -1.49654 0
M  V30 2326 H 228.318 1.54429 -4.9434 0
M  V30 2327 H 224.995 3.05193 -2.84892 0
M  V30 2328 H 226.385 1.45178 -6.56028 0
M  V30 2329 N 229.106 1.52395 0.401703 0
M  V30 2330 C 230.069 1.75636 1.47257 0
M  V30 2331 C 231.069 0.62628 1.48103 0
M  V30 2332 O 232.259 0.894227 1.49497 0
M  V30 2333 C 229.391 1.84553 2.86624 0
M  V30 2334 H 230.584 2.71241 1.27938 0
M  V30 2335 H 228.137 1.42923 0.632662 0
M  V30 2336 H 228.872 0.908882 3.11303 0
M  V30 2337 H 228.657 2.66715 2.87412 0
M  V30 2338 H 230.147 2.04251 3.64241 0
M  V30 2339 N 230.584 -0.659388 1.43143 0
M  V30 2340 C 231.517 -1.78425 1.42267 0
M  V30 2341 C 232.495 -1.60085 0.284894 0
M  V30 2342 O 233.679 -1.82351 0.477527 0
M  V30 2343 C 230.806 -3.15642 1.22833 0
M  V30 2344 C 229.852 -3.52698 2.39806 0
M  V30 2345 S 230.685 -3.53372 4.02353 0
M  V30 2346 C 231.841 -4.93256 3.85291 0
M  V30 2347 H 232.074 -1.78897 2.37452 0
M  V30 2348 H 229.607 -0.831469 1.301 0
M  V30 2349 H 231.565 -3.94838 1.12308 0
M  V30 2350 H 230.226 -3.12739 0.29207 0
M  V30 2351 H 229.419 -4.52475 2.21996 0
M  V30 2352 H 229.021 -2.80899 2.46925 0
M  V30 2353 H 231.313 -5.81751 3.47235 0
M  V30 2354 H 232.256 -5.16115 4.84799 0
M  V30 2355 H 232.664 -4.665 3.17865 0
M  V30 2356 N 232.062 -1.29571 -0.897171 0
M  V30 2357 C 232.992 -1.17473 -2.01798 0
M  V30 2358 C 233.973 -0.068323 -1.69963 0
M  V30 2359 O 235.158 -0.248239 -1.92607 0
M  V30 2360 C 232.288 -0.853099 -3.36659 0
M  V30 2361 C 231.242 -1.9161 -3.82713 0
M  V30 2362 C 230.568 -1.44773 -5.14728 0
M  V30 2363 C 231.868 -3.32535 -4.02763 0
M  V30 2364 H 233.562 -2.11237 -2.12177 0
M  V30 2365 H 231.108 -1.01699 -1.01948 0
M  V30 2366 H 233.061 -0.755165 -4.14578 0
M  V30 2367 H 231.785 0.120236 -3.26379 0
M  V30 2368 H 230.444 -2.00346 -3.07013 0
M  V30 2369 H 230.092 -0.462995 -5.00865 0
M  V30 2370 H 229.792 -2.15865 -5.46513 0
M  V30 2371 H 231.316 -1.36334 -5.95185 0
M  V30 2372 H 232.73 -3.26626 -4.71156 0
M  V30 2373 H 231.127 -4.01607 -4.45905 0
M  V30 2374 H 232.197 -3.75326 -3.07016 0
M  V30 2375 N 233.54 1.10788 -1.12088 0
M  V30 2376 C 234.768 1.86461 -0.896651 0
M  V30 2377 C 235.183 1.80492 0.553912 0
M  V30 2378 O 234.54 1.19102 1.38278 0
M  V30 2379 C 234.591 3.35006 -1.35843 0
M  V30 2380 O 234.312 3.40866 -2.75213 0
M  V30 2381 C 235.813 4.27565 -1.1706 0
M  V30 2382 H 233.033 0.589425 -0.320654 0
M  V30 2383 H 235.577 1.40076 -1.48993 0
M  V30 2384 H 233.732 3.7887 -0.808458 0
M  V30 2385 H 234.146 4.33411 -2.9539 0
M  V30 2386 H 235.62 5.30007 -1.54263 0
M  V30 2387 H 236.097 4.3906 -0.110814 0
M  V30 2388 H 236.703 3.89501 -1.70789 0
M  V30 2389 N 235.018 0.912232 1.28515 0
M  V30 2390 C 235.981 0.404223 2.25607 0
M  V30 2391 C 236.981 -0.468602 1.53821 0
M  V30 2392 O 238.171 -0.271873 1.72065 0
M  V30 2393 C 235.303 -0.420653 3.38295 0
M  V30 2394 H 236.496 1.26188 2.7206 0
M  V30 2395 H 234.049 0.691495 1.40171 0
M  V30 2396 H 234.784 -1.29777 2.97201 0
M  V30 2397 H 234.569 0.204935 3.91564 0
M  V30 2398 H 236.059 -0.766971 4.10496 0
M  V30 2399 N 236.496 -1.42363 0.676048 0
M  V30 2400 C 237.428 -2.29164 -0.0404605 0
M  V30 2401 C 238.441 -1.43747 -0.764245 0
M  V30 2402 O 239.63 -1.67453 -0.618195 0
M  V30 2403 C 236.73 -3.21196 -1.08103 0
M  V30 2404 C 235.903 -4.35273 -0.430812 0
M  V30 2405 C 234.962 -5.08017 -1.37133 0
M  V30 2406 O 233.988 -5.62494 -0.87116 0
M  V30 2407 N 235.19 -5.13647 -2.70456 0
M  V30 2408 H 237.955 -2.91298 0.704667 0
M  V30 2409 H 235.516 -1.53303 0.520559 0
M  V30 2410 H 237.508 -3.66728 -1.71152 0
M  V30 2411 H 236.078 -2.60505 -1.72788 0
M  V30 2412 H 235.298 -3.92372 0.379209 0
M  V30 2413 H 236.586 -5.08795 0.0221132 0
M  V30 2414 H 235.984 -4.708 -3.1363 0
M  V30 2415 H 234.541 -5.62821 -3.28749 0
M  V30 2416 N 237.974 -0.419461 -1.51915 0
M  V30 2417 C 239.22 0.153166 -2.02221 0
M  V30 2418 C 239.553 1.43907 -1.30401 0
M  V30 2419 O 238.828 1.90055 -0.413438 0
M  V30 2420 C 239.111 0.390291 -3.57979 0
M  V30 2421 C 238.964 -0.913014 -4.40436 0
M  V30 2422 C 240.283 1.16794 -4.2432 0
M  V30 2423 H 237.402 0.0541924 -0.735005 0
M  V30 2424 H 240.044 -0.554955 -1.81715 0
M  V30 2425 H 238.194 0.993491 -3.75582 0
M  V30 2426 H 239.866 -1.54882 -4.34522 0
M  V30 2427 H 238.109 -1.52168 -4.06236 0
M  V30 2428 H 238.78 -0.701361 -5.47526 0
M  V30 2429 H 241.256 0.657161 -4.10878 0
M  V30 2430 H 240.132 1.3026 -5.3322 0
M  V30 2431 H 240.393 2.19132 -3.83971 0
M  V30 2432 N 239.452 1.56882 -0.150215 0
M  V30 2433 C 240.701 1.95403 0.500071 0
M  V30 2434 C 241.014 1.03777 1.658 0
M  V30 2435 O 242.22 1.31889 2.37313 0
M  V30 2436 C 240.676 3.4738 0.941018 0
M  V30 2437 C 240.284 4.47596 -0.190158 0
M  V30 2438 C 242.028 3.9476 1.56091 0
M  V30 2439 C 239.935 5.90787 0.269237 0
M  V30 2440 H 238.865 0.729515 0.190588 0
M  V30 2441 H 241.516 1.81988 -0.235074 0
M  V30 2442 H 239.898 3.56138 1.73152 0
M  V30 2443 H 241.072 4.50536 -0.967157 0
M  V30 2444 H 239.387 4.10151 -0.718666 0
M  V30 2445 H 241.984 4.99181 1.9163 0
M  V30 2446 H 242.327 3.36494 2.45107 0
M  V30 2447 H 242.86 3.88932 0.835249 0
M  V30 2448 H 239.599 6.52879 -0.585621 0
M  V30 2449 H 239.119 5.912 1.01204 0
M  V30 2450 H 240.798 6.42979 0.720176 0
M  V30 2451 N 240.93 -0.123565 1.57115 0
M  V30 2452 C 241.862 -1.17739 1.96648 0
M  V30 2453 C 242.875 -1.37906 0.865201 0
M  V30 2454 O 244.064 -1.37062 1.14351 0
M  V30 2455 C 241.164 -2.53821 2.24562 0
M  V30 2456 C 240.337 -2.54317 3.55867 0
M  V30 2457 C 239.396 -3.72112 3.72047 0
M  V30 2458 O 238.422 -3.55907 4.44206 0
M  V30 2459 N 239.624 -4.90498 3.10471 0
M  V30 2460 H 242.389 -0.841147 2.87654 0
M  V30 2461 H 239.95 -0.31289 1.58848 0
M  V30 2462 H 241.942 -3.31175 2.32606 0
M  V30 2463 H 240.512 -2.79645 1.39705 0
M  V30 2464 H 239.732 -1.62711 3.59053 0
M  V30 2465 H 241.02 -2.51701 4.42181 0
M  V30 2466 H 240.418 -5.06567 2.51806 0
M  V30 2467 H 238.975 -5.65544 3.24043 0
M  V30 2468 N 242.408 -1.52605 -0.393616 0
M  V30 2469 C 243.358 -1.73436 -1.48 0
M  V30 2470 C 244.342 -0.588386 -1.49756 0
M  V30 2471 O 245.534 -0.846047 -1.5547 0
M  V30 2472 C 242.663 -1.90247 -2.85764 0
M  V30 2473 C 241.749 -3.10763 -2.88595 0
M  V30 2474 N 242.14 -4.33196 -2.61103 0
M  V30 2475 C 240.438 -3.10914 -3.19763 0
M  V30 2476 C 241.139 -5.1477 -2.70899 0
M  V30 2477 N 240.115 -4.50356 -3.04435 0
M  V30 2478 H 243.917 -2.65727 -1.25563 0
M  V30 2479 H 241.431 -1.5085 -0.601513 0
M  V30 2480 H 243.428 -2.03291 -3.63976 0
M  V30 2481 H 242.088 -0.991663 -3.09186 0
M  V30 2482 H 243.099 -4.61408 -2.35209 0
M  V30 2483 H 239.776 -2.29626 -3.4868 0
M  V30 2484 H 241.166 -6.22355 -2.53227 0
M  V30 2485 N 243.887 0.651787 -1.4349 0
M  V30 2486 C 244.85 1.74647 -1.48429 0
M  V30 2487 C 245.85 1.56513 -0.368817 0
M  V30 2488 O 247.04 1.62385 -0.630623 0
M  V30 2489 C 244.172 3.13533 -1.33827 0
M  V30 2490 H 245.365 1.71649 -2.4592 0
M  V30 2491 H 242.918 0.863573 -1.30277 0
M  V30 2492 H 243.653 3.22142 -0.37349 0
M  V30 2493 H 243.438 3.28101 -2.14691 0
M  V30 2494 H 244.928 3.93356 -1.40218 0
M  V30 2495 N 245.365 1.30045 0.890287 0
M  V30 2496 C 246.613 1.18327 1.63839 0
M  V30 2497 C 246.934 -0.263455 1.93212 0
M  V30 2498 O 246.204 -1.17856 1.56482 0
M  V30 2499 H 244.784 0.434933 0.607324 0
M  V30 2500 H 247.446 1.631 1.06698 0
M  V30 2501 H 246.542 1.74024 2.59079 0
M  V30 2502 N 246.843 -1.10192 1.12674 0
M  V30 2503 C 247.773 -2.18652 0.819362 0
M  V30 2504 C 248.754 -1.68698 -0.217915 0
M  V30 2505 O 249.939 -1.94041 -0.0785581 0
M  V30 2506 C 247.069 -3.46202 0.27594 0
M  V30 2507 C 246.023 -4.09444 1.24656 0
M  V30 2508 C 245.349 -5.31725 0.563258 0
M  V30 2509 C 246.649 -4.52863 2.60217 0
M  V30 2510 H 248.343 -2.44622 1.72628 0
M  V30 2511 H 245.889 -1.17571 0.831451 0
M  V30 2512 H 247.842 -4.21372 0.0486149 0
M  V30 2513 H 246.566 -3.1973 -0.666331 0
M  V30 2514 H 245.225 -3.36284 1.45974 0
M  V30 2515 H 244.873 -5.0153 -0.384235 0
M  V30 2516 H 244.573 -5.74991 1.21075 0
M  V30 2517 H 246.097 -6.09624 0.34503 0
M  V30 2518 H 247.511 -5.19294 2.42913 0
M  V30 2519 H 245.908 -5.06986 3.21068 0
M  V30 2520 H 246.978 -3.65656 3.18471 0
M  V30 2521 N 248.321 -0.919034 -1.28029 0
M  V30 2522 C 249.549 -0.570971 -1.98866 0
M  V30 2523 C 249.964 0.848996 -1.68634 0
M  V30 2524 O 249.321 1.56307 -0.942036 0
M  V30 2525 C 249.372 -0.776876 -3.53054 0
M  V30 2526 O 249.093 -2.14097 -3.82222 0
M  V30 2527 C 250.594 -0.436356 -4.41147 0
M  V30 2528 H 247.814 -0.217175 -0.634883 0
M  V30 2529 H 250.358 -1.23368 -1.63097 0
M  V30 2530 H 248.513 -0.161085 -3.87065 0
M  V30 2531 H 248.927 -2.18455 -4.76841 0
M  V30 2532 H 250.401 -0.63117 -5.4838 0
M  V30 2533 H 250.878 0.627686 -4.34692 0
M  V30 2534 H 251.484 -1.02991 -4.12641 0
M  V30 2535 N 249.799 1.42003 -0.683588 0
M  V30 2536 C 250.729 2.33487 -0.024866 0
M  V30 2537 C 251.71 1.51163 0.779975 0
M  V30 2538 O 252.895 1.79739 0.735362 0
M  V30 2539 C 250.025 3.3487 0.920836 0
M  V30 2540 C 248.979 4.27414 0.223958 0
M  V30 2541 C 248.305 5.19074 1.2832 0
M  V30 2542 C 249.605 5.14445 -0.90242 0
M  V30 2543 H 251.299 2.88819 -0.788921 0
M  V30 2544 H 248.845 1.38873 -0.38083 0
M  V30 2545 H 250.798 3.97787 1.39081 0
M  V30 2546 H 249.522 2.77861 1.71642 0
M  V30 2547 H 248.181 3.65904 -0.225864 0
M  V30 2548 H 247.829 4.58387 2.071 0
M  V30 2549 H 247.529 5.81822 0.821995 0
M  V30 2550 H 249.053 5.84867 1.75392 0
M  V30 2551 H 250.467 5.70998 -0.513272 0
M  V30 2552 H 248.864 5.86072 -1.28997 0
M  V30 2553 H 249.934 4.52322 -1.74737 0
M  V30 2554 N 251.277 0.427512 1.51691 0
M  V30 2555 C 252.24 -0.377132 2.26076 0
M  V30 2556 C 253.24 -0.958089 1.29141 0
M  V30 2557 O 254.43 -0.83408 1.52934 0
M  V30 2558 C 251.562 -1.53262 3.04506 0
M  V30 2559 H 252.755 0.27464 2.9864 0
M  V30 2560 H 250.308 0.180445 1.55255 0
M  V30 2561 H 251.043 -2.22072 2.36335 0
M  V30 2562 H 250.828 -1.12232 3.75694 0
M  V30 2563 H 252.318 -2.10135 3.60878 0
M  V30 2564 N 252.755 -1.56801 0.158532 0
M  V30 2565 C 254.003 -1.96102 -0.488712 0
M  V30 2566 C 254.324 -1.04498 -1.64636 0
M  V30 2567 O 253.594 -0.108783 -1.95598 0
M  V30 2568 H 252.174 -0.724102 -0.183535 0
M  V30 2569 H 254.836 -1.93457 0.236728 0
M  V30 2570 H 253.932 -3.00097 -0.857219 0
M  V30 2571 N 254.233 0.115231 -1.57178 0
M  V30 2572 C 255.479 0.818565 -1.86202 0
M  V30 2573 C 255.834 1.77316 -0.746785 0
M  V30 2574 O 255.127 1.89923 0.25291 0
M  V30 2575 C 255.321 1.60324 -3.19423 0
M  V30 2576 C 255.15 0.726138 -4.43799 0
M  V30 2577 C 253.92 0.379535 -5.03873 0
M  V30 2578 C 256.118 0.0420774 -5.14283 0
M  V30 2579 N 254.1 -0.507841 -6.11796 0
M  V30 2580 C 255.471 -0.704152 -6.15988 0
M  V30 2581 C 257.526 -0.0339486 -4.97888 0
M  V30 2582 C 256.229 -1.51927 -7.03072 0
M  V30 2583 C 258.255 -0.835906 -5.85463 0
M  V30 2584 C 257.617 -1.57031 -6.86673 0
M  V30 2585 H 253.716 0.276343 -0.731545 0
M  V30 2586 H 256.3 0.0821032 -1.94527 0
M  V30 2587 H 254.471 2.31072 -3.12186 0
M  V30 2588 H 256.203 2.2522 -3.36241 0
M  V30 2589 H 252.958 0.722634 -4.68054 0
M  V30 2590 H 253.382 -0.94349 -6.70393 0
M  V30 2591 H 258.024 0.519496 -4.19596 0
M  V30 2592 H 255.742 -2.08386 -7.80769 0
M  V30 2593 H 259.328 -0.89714 -5.74841 0
M  V30 2594 H 258.208 -2.18088 -7.53264 0
M  V30 2595 N 255.711 1.52812 0.385517 0
M  V30 2596 C 256.957 1.68275 1.13188 0
M  V30 2597 C 257.29 0.423179 1.89533 0
M  V30 2598 O 256.565 -0.579113 1.85679 0
M  V30 2599 C 256.848 2.92001 2.1073 0
M  V30 2600 C 256.701 4.28067 1.38125 0
M  V30 2601 C 258.02 3.11283 3.11113 0
M  V30 2602 H 255.139 0.612352 0.410115 0
M  V30 2603 H 257.781 1.85415 0.414869 0
M  V30 2604 H 255.931 2.77519 2.71874 0
M  V30 2605 H 257.603 4.54324 0.799187 0
M  V30 2606 H 255.846 4.28388 0.683092 0
M  V30 2607 H 256.517 5.10733 2.09417 0
M  V30 2608 H 258.993 3.2482 2.6006 0
M  V30 2609 H 257.869 3.99325 3.76605 0
M  V30 2610 H 258.13 2.25656 3.80173 0
M  V30 2611 N 257.189 -0.644168 1.43834 0
M  V30 2612 C 258.152 -1.73857 1.49353 0
M  V30 2613 C 259.152 -1.56315 0.377112 0
M  V30 2614 O 260.342 -1.62048 0.639226 0
M  V30 2615 C 257.474 -3.12819 1.35488 0
M  V30 2616 H 258.667 -1.70342 2.46827 0
M  V30 2617 H 256.22 -0.856652 1.30733 0
M  V30 2618 H 256.955 -3.2194 0.390569 0
M  V30 2619 H 256.74 -3.26958 2.16428 0
M  V30 2620 H 258.23 -3.92606 1.42302 0
M  V30 2621 N 258.668 -1.30515 -0.883378 0
M  V30 2622 C 259.616 -1.16941 -2.01066 0
M  V30 2623 C 260.61 -0.0809148 -1.69207 0
M  V30 2624 O 261.816 -0.241877 -1.78367 0
M  V30 2625 H 258.191 -0.361705 -0.659298 0
M  V30 2626 H 260.162 -2.12344 -2.09649 0
M  V30 2627 C 258.911 -0.879694 -3.36388 0
M  V30 2628 H 258.234 -1.70936 -3.61415 0
M  V30 2629 H 259.674 -0.82483 -4.159 0
M  V30 2630 C 258.133 0.417409 -3.34304 0
M  V30 2631 O 258.663 1.43843 -3.75063 0
M  V30 2632 N 256.869 0.429141 -2.87414 0
M  V30 2633 H 256.416 -0.402222 -2.5444 0
M  V30 2634 H 256.374 1.29696 -2.86403 0
M  V30 2635 N 260.146 1.09593 -1.13257 0
M  V30 2636 C 261.423 1.78293 -0.804432 0
M  V30 2637 C 261.803 1.99004 0.70431 0
M  V30 2638 O 261.151 1.59007 1.641 0
M  V30 2639 C 261.361 3.10707 -1.5894 0
M  V30 2640 C 262.709 3.85443 -1.78099 0
M  V30 2641 O 263.733 3.20454 -1.55525 0
M  V30 2642 O 262.592 5.02108 -2.15753 0
M  V30 2643 H 259.686 0.773156 -0.293528 0
M  V30 2644 H 262.232 1.16164 -1.23709 0
M  V30 2645 H 261.004 2.91106 -2.61482 0
M  V30 2646 H 260.627 3.80558 -1.15157 0
M  V30 2647 N 261.624 0.925811 1.2754 0
M  V30 2648 C 262.87 0.566092 1.94739 0
M  V30 2649 C 263.203 -0.890057 1.72603 0
M  V30 2650 O 262.478 -1.63467 1.05399 0
M  V30 2651 C 262.761 0.89054 3.48915 0
M  V30 2652 C 262.614 2.4003 3.80402 0
M  V30 2653 C 263.933 0.395101 4.38323 0
M  V30 2654 H 261.052 0.20714 0.707292 0
M  V30 2655 H 263.694 1.15725 1.50691 0
M  V30 2656 H 261.844 0.387452 3.86563 0
M  V30 2657 H 263.516 2.97494 3.52555 0
M  V30 2658 H 261.759 2.85028 3.2702 0
M  V30 2659 H 262.43 2.57785 4.8811 0
M  V30 2660 H 264.906 0.826241 4.07814 0
M  V30 2661 H 263.782 0.651086 5.45025 0
M  V30 2662 H 264.043 -0.704798 4.36446 0
M  V30 2663 N 263.102 -1.41638 0.69111 0
M  V30 2664 C 264.33 -2.05628 0.22909 0
M  V30 2665 C 264.745 -1.51992 -1.11999 0
M  V30 2666 O 264.102 -0.666322 -1.69901 0
M  V30 2667 C 264.153 -3.61084 0.173283 0
M  V30 2668 O 263.874 -4.12735 1.46907 0
M  V30 2669 C 265.375 -4.42213 -0.310266 0
M  V30 2670 H 262.595 -0.662327 0.107534 0
M  V30 2671 H 265.139 -1.81489 0.942438 0
M  V30 2672 H 263.294 -3.84278 -0.490858 0
M  V30 2673 H 263.708 -5.06743 1.35322 0
M  V30 2674 H 265.182 -5.51194 -0.298196 0
M  V30 2675 H 265.659 -4.1799 -1.34838 0
M  V30 2676 H 266.265 -4.24074 0.322716 0
M  V30 2677 N 264.58 -0.43555 -1.51462 0
M  V30 2678 C 265.991 0.0279871 -1.86679 0
M  V30 2679 C 266.342 1.42104 -1.35281 0
M  V30 2680 O 265.467 2.04667 -0.702878 0
M  V30 2681 C 266.062 0.0575626 -3.38751 0
M  V30 2682 C 264.621 0.465507 -3.7351 0
M  V30 2683 C 263.768 -0.342996 -2.75171 0
M  V30 2684 H 266.719 -0.651473 -1.44712 0
M  V30 2685 H 266.74 0.867421 -3.70481 0
M  V30 2686 H 266.252 -0.956448 -3.7613 0
M  V30 2687 H 264.353 1.48519 -3.41721 0
M  V30 2688 H 264.466 0.191546 -4.78717 0
M  V30 2689 H 262.83 0.198442 -2.53926 0
M  V30 2690 H 263.613 -1.35585 -3.15391 0
M  V30 2691 N 266.058 1.56714 -0.166846 0
M  V30 2692 C 267.469 1.83378 0.350646 0
M  V30 2693 C 267.82 1.08646 1.63372 0
M  V30 2694 O 266.945 0.338058 2.13743 0
M  V30 2695 C 267.54 3.32643 0.642963 0
M  V30 2696 C 266.099 3.59818 1.10491 0
M  V30 2697 C 265.246 2.76954 0.138411 0
M  V30 2698 H 268.197 1.53803 -0.391193 0
M  V30 2699 H 268.218 3.49878 1.49551 0
M  V30 2700 H 267.73 3.87007 -0.291055 0
M  V30 2701 H 265.831 3.1086 2.05418 0
M  V30 2702 H 265.944 4.68178 1.01716 0
M  V30 2703 H 264.308 2.4666 0.634911 0
M  V30 2704 H 265.091 3.34097 -0.789549 0
M  V30 2705 N 267.536 -0.106894 1.57237 0
M  V30 2706 C 268.784 -0.810921 1.85117 0
M  V30 2707 C 269.105 -1.7984 0.753827 0
M  V30 2708 O 268.375 -1.94649 -0.221056 0
M  V30 2709 H 266.955 -0.302466 0.683025 0
M  V30 2710 H 269.617 -0.0913324 1.94686 0
M  V30 2711 H 268.713 -1.34875 2.81452 0
M  V30 2712 N 269.014 -1.53014 -0.377408 0
M  V30 2713 C 269.961 -1.78616 -1.46168 0
M  V30 2714 C 270.931 -0.629917 -1.53692 0
M  V30 2715 O 272.116 -0.870861 -1.69766 0
M  V30 2716 C 269.256 -1.97123 -2.8326 0
M  V30 2717 C 268.369 -3.24831 -2.84796 0
M  V30 2718 C 267.504 -3.33591 -4.13389 0
M  V30 2719 C 266.543 -4.55377 -4.09021 0
M  V30 2720 N 265.68 -4.61355 -5.29241 0
M  V30 2721 H 270.52 -2.71142 -1.23637 0
M  V30 2722 H 268.057 -1.34326 -0.599577 0
M  V30 2723 H 270.015 -2.05839 -3.62886 0
M  V30 2724 H 268.645 -1.07946 -3.04216 0
M  V30 2725 H 267.697 -3.25128 -1.97474 0
M  V30 2726 H 269.009 -4.14523 -2.77439 0
M  V30 2727 H 268.163 -3.41554 -5.01424 0
M  V30 2728 H 266.902 -2.41894 -4.23484 0
M  V30 2729 H 265.907 -4.47527 -3.19373 0
M  V30 2730 H 267.132 -5.48402 -4.00539 0
M  V30 2731 H 265.078 -3.72554 -5.39944 0
M  V30 2732 H 264.995 -5.44935 -5.24006 0
M  V30 2733 H 266.263 -4.73586 -6.19141 0
M  V30 2734 N 270.492 0.636531 -1.44174 0
M  V30 2735 C 271.908 0.954104 -1.27941 0
M  V30 2736 C 272.108 2.0039 -0.211248 0
M  V30 2737 O 271.164 2.49236 0.404695 0
M  V30 2738 C 272.477 1.4225 -2.64925 0
M  V30 2739 C 274.025 1.53827 -2.72592 0
M  V30 2740 C 274.5 2.04053 -4.10032 0
M  V30 2741 N 275.991 2.11331 -4.12182 0
M  V30 2742 C 276.726 2.51352 -5.15374 0
M  V30 2743 N 276.222 2.90549 -6.2893 0
M  V30 2744 N 278.015 2.51438 -5.02728 0
M  V30 2745 H 270.166 -0.0578386 -2.12321 0
M  V30 2746 H 272.429 0.0367406 -0.947288 0
M  V30 2747 H 272.135 0.725466 -3.44136 0
M  V30 2748 H 272.009 2.39451 -2.9145 0
M  V30 2749 H 274.396 2.22628 -1.93702 0
M  V30 2750 H 274.477 0.550154 -2.49814 0
M  V30 2751 H 274.121 1.35848 -4.89395 0
M  V30 2752 H 274.051 3.03726 -4.30184 0
M  V30 2753 H 276.542 1.83745 -3.30222 0
M  V30 2754 H 276.855 3.19884 -7.03487 0
M  V30 2755 H 275.2 2.88313 -6.32377 0
M  V30 2756 H 278.391 2.20203 -4.13072 0
M  V30 2757 H 278.564 2.82304 -5.83274 0
M  V30 2758 N 271.97 1.30982 0.876444 0
M  V30 2759 C 272.92 1.14688 1.97055 0
M  V30 2760 C 273.904 0.0596593 1.60789 0
M  V30 2761 O 275.096 0.283892 1.74708 0
M  V30 2762 C 272.225 0.849627 3.3262 0
M  V30 2763 C 271.311 1.97752 3.75173 0
M  V30 2764 N 271.702 3.22384 3.89746 0
M  V30 2765 C 270 1.8758 4.04635 0
M  V30 2766 C 270.701 3.96121 4.25985 0
M  V30 2767 N 269.677 3.24237 4.36315 0
M  V30 2768 H 273.479 2.09204 2.06424 0
M  V30 2769 H 270.993 1.22445 1.06682 0
M  V30 2770 H 272.99 0.713895 4.10742 0
M  V30 2771 H 271.65 -0.087376 3.24582 0
M  V30 2772 H 272.661 3.57575 3.74647 0
M  V30 2773 H 269.338 1.01303 4.05024 0
M  V30 2774 H 270.728 5.03491 4.44911 0
M  V30 2775 N 273.449 -1.08991 1.13837 0
M  V30 2776 C 274.412 -2.13925 0.822715 0
M  V30 2777 C 275.412 -1.599 -0.1699 0
M  V30 2778 O 276.602 -1.74104 0.0577251 0
M  V30 2779 C 273.734 -3.40155 0.225318 0
M  V30 2780 H 274.927 -2.43358 1.75262 0
M  V30 2781 H 272.48 -1.24603 0.943594 0
M  V30 2782 H 273.215 -3.16352 -0.713594 0
M  V30 2783 H 273 -3.80661 0.940193 0
M  V30 2784 H 274.49 -4.17594 0.0214784 0
M  V30 2785 N 274.927 -0.932562 -1.27047 0
M  V30 2786 C 275.837 -0.441219 -2.30414 0
M  V30 2787 C 276.853 0.480525 -1.67233 0
M  V30 2788 O 278.029 0.362151 -1.98117 0
M  V30 2789 C 275.094 0.293651 -3.45454 0
M  V30 2790 C 274.155 -0.663601 -4.2414 0
M  V30 2791 C 273.388 0.0362932 -5.33688 0
M  V30 2792 O 273.611 1.2548 -5.56427 0
M  V30 2793 O 272.545 -0.638015 -5.98509 0
M  V30 2794 H 276.371 -1.29962 -2.74488 0
M  V30 2795 H 273.956 -0.6981 -1.32087 0
M  V30 2796 H 275.838 0.707951 -4.15411 0
M  V30 2797 H 274.513 1.12758 -3.03426 0
M  V30 2798 H 273.42 -1.12768 -3.56699 0
M  V30 2799 H 274.753 -1.46489 -4.69896 0
M  V30 2800 N 276.405 1.4127 -0.698611 0
M  V30 2801 C 277.635 2.05205 -0.239644 0
M  V30 2802 C 278.043 1.52684 1.11733 0
M  V30 2803 O 277.386 0.671222 1.70998 0
M  V30 2804 C 277.448 3.59289 -0.123126 0
M  V30 2805 C 277.112 4.34619 -1.41263 0
M  V30 2806 C 278.109 4.63701 -2.35111 0
M  V30 2807 C 275.794 4.73837 -1.66684 0
M  V30 2808 C 277.788 5.30966 -3.52639 0
M  V30 2809 C 275.475 5.40837 -2.84498 0
M  V30 2810 C 276.473 5.69329 -3.77298 0
M  V30 2811 O 276.161 6.34949 -4.93047 0
M  V30 2812 H 275.893 0.66723 -0.108537 0
M  V30 2813 H 278.447 1.81974 -0.952602 0
M  V30 2814 H 276.677 3.81272 0.645628 0
M  V30 2815 H 278.366 4.04797 0.299056 0
M  V30 2816 H 279.132 4.33882 -2.16729 0
M  V30 2817 H 275.011 4.51039 -0.953135 0
M  V30 2818 H 278.555 5.53121 -4.25091 0
M  V30 2819 H 274.452 5.70075 -3.02795 0
M  V30 2820 H 275.22 6.53445 -4.92902 0
M  V30 2821 N 277.883 0.443576 1.51229 0
M  V30 2822 C 278.816 -0.410089 2.24485 0
M  V30 2823 C 279.794 -1.01949 1.26669 0
M  V30 2824 O 280.978 -1.06075 1.55821 0
M  V30 2825 C 278.105 -1.57211 3.00004 0
M  V30 2826 C 277.151 -1.08279 4.12526 0
M  V30 2827 S 277.984 -0.0197476 5.35496 0
M  V30 2828 C 279.14 -1.18629 6.14555 0
M  V30 2829 H 279.373 0.211832 2.96544 0
M  V30 2830 H 276.906 0.228156 1.52705 0
M  V30 2831 H 278.864 -2.23825 3.44111 0
M  V30 2832 H 277.525 -2.16547 2.27522 0
M  V30 2833 H 276.718 -1.95193 4.64667 0
M  V30 2834 H 276.32 -0.494797 3.70713 0
M  V30 2835 H 278.612 -2.10344 6.4402 0
M  V30 2836 H 279.555 -0.70472 7.04584 0
M  V30 2837 H 279.963 -1.42768 5.46148 0
M  V30 2838 N 279.361 -1.56624 0.175154 0
M  V30 2839 C 280.589 -2.01374 -0.474971 0
M  V30 2840 C 281.004 -1.05537 -1.56548 0
M  V30 2841 O 280.361 -0.0568668 -1.82411 0
M  V30 2842 C 280.412 -3.45923 -1.04975 0
M  V30 2843 O 280.133 -4.381 -0.00276605 0
M  V30 2844 C 281.634 -4.06093 -1.77773 0
M  V30 2845 H 278.854 -0.659962 -0.121206 0
M  V30 2846 H 281.398 -2.02601 0.27801 0
M  V30 2847 H 279.553 -3.45458 -1.75321 0
M  V30 2848 H 279.967 -5.22753 -0.427681 0
M  V30 2849 H 281.441 -5.09147 -2.13245 0
M  V30 2850 H 281.918 -3.48405 -2.67414 0
M  V30 2851 H 282.524 -4.10272 -1.12059 0
M  V30 2852 N 280.839 0.0985539 -1.57292 0
M  V30 2853 C 282.067 0.816318 -1.90115 0
M  V30 2854 C 282.482 1.72451 -0.768509 0
M  V30 2855 O 281.839 1.80643 0.259687 0
M  V30 2856 C 281.89 1.63259 -3.22535 0
M  V30 2857 O 281.611 0.760934 -4.31441 0
M  V30 2858 C 283.112 2.45372 -3.69199 0
M  V30 2859 H 280.332 0.233595 -0.629027 0
M  V30 2860 H 282.876 0.0768229 -2.04356 0
M  V30 2861 H 281.031 2.32463 -3.09903 0
M  V30 2862 H 281.445 1.32595 -5.07463 0
M  V30 2863 H 282.919 2.98144 -4.64558 0
M  V30 2864 H 283.396 3.23677 -2.96867 0
M  V30 2865 H 284.002 1.81373 -3.84687 0
M  V30 2866 N 282.317 1.53212 0.369288 0
M  V30 2867 C 283.247 1.82365 1.45826 0
M  V30 2868 C 284.228 0.676907 1.56051 0
M  V30 2869 O 285.413 0.926401 1.70679 0
M  V30 2870 C 282.543 2.01023 2.83208 0
M  V30 2871 C 281.497 3.1678 2.8781 0
M  V30 2872 C 280.823 3.20724 4.27832 0
M  V30 2873 C 282.123 4.55447 2.55667 0
M  V30 2874 H 283.817 2.73559 1.21678 0
M  V30 2875 H 281.363 1.3163 0.583911 0
M  V30 2876 H 283.316 2.20001 3.59413 0
M  V30 2877 H 282.04 1.06536 3.08736 0
M  V30 2878 H 280.699 2.97616 2.14056 0
M  V30 2879 H 280.347 2.23882 4.50429 0
M  V30 2880 H 280.047 3.98496 4.31827 0
M  V30 2881 H 281.571 3.41881 5.05915 0
M  V30 2882 H 282.985 4.74611 3.21586 0
M  V30 2883 H 281.382 5.35432 2.70984 0
M  V30 2884 H 282.452 4.60812 1.5093 0
M  V30 2885 N 283.795 -0.628877 1.44509 0
M  V30 2886 C 285.023 -1.41554 1.50897 0
M  V30 2887 C 285.438 -1.8832 0.134564 0
M  V30 2888 O 284.795 -1.60969 -0.859965 0
M  V30 2889 C 284.846 -2.63435 2.47556 0
M  V30 2890 O 284.567 -2.18619 3.79654 0
M  V30 2891 C 286.068 -3.56537 2.63431 0
M  V30 2892 H 283.288 -0.434044 0.511709 0
M  V30 2893 H 285.832 -0.768895 1.89495 0
M  V30 2894 H 283.987 -3.24187 2.12089 0
M  V30 2895 H 284.401 -2.97652 4.31861 0
M  V30 2896 H 285.875 -4.38657 3.35088 0
M  V30 2897 H 286.352 -4.05493 1.68738 0
M  V30 2898 H 286.958 -3.01653 2.9981 0
M  V30 2899 N 285.273 -1.31445 -0.869486 0
M  V30 2900 C 286.689 -1.10113 -1.15531 0
M  V30 2901 C 286.889 0.128087 -2.01092 0
M  V30 2902 O 285.945 0.817276 -2.38908 0
M  V30 2903 C 287.258 -2.37291 -1.84698 0
M  V30 2904 C 288.806 -2.42906 -1.97397 0
M  V30 2905 C 289.281 -3.69967 -2.69979 0
M  V30 2906 N 290.772 -3.70864 -2.77514 0
M  V30 2907 C 291.507 -4.65875 -3.34287 0
M  V30 2908 N 291.003 -5.71242 -3.91988 0
M  V30 2909 N 292.796 -4.53394 -3.3225 0
M  V30 2910 H 284.947 -2.1028 -0.299347 0
M  V30 2911 H 287.21 -0.927683 -0.195214 0
M  V30 2912 H 286.916 -3.27078 -1.29278 0
M  V30 2913 H 286.79 -2.47125 -2.84972 0
M  V30 2914 H 289.177 -1.53588 -2.51982 0
M  V30 2915 H 289.258 -2.37036 -0.961643 0
M  V30 2916 H 288.902 -4.59652 -2.16062 0
M  V30 2917 H 288.832 -3.73103 -3.7162 0
M  V30 2918 H 291.323 -2.94697 -2.36563 0
M  V30 2919 H 291.636 -6.39817 -4.33421 0
M  V30 2920 H 289.981 -5.75015 -3.90362 0
M  V30 2921 H 293.172 -3.70252 -2.8641 0
M  V30 2922 H 293.345 -5.27617 -3.76197 0
M  V30 2923 N 286.751 1.08385 -1.14413 0
M  V30 2924 C 287.684 2.14642 -0.774871 0
M  V30 2925 C 288.662 1.60761 0.243876 0
M  V30 2926 O 289.846 1.88031 0.132883 0
M  V30 2927 C 286.973 3.38366 -0.150491 0
M  V30 2928 C 286.019 4.10997 -1.13945 0
M  V30 2929 S 286.852 4.63797 -2.67679 0
M  V30 2930 C 288.008 5.90808 -2.06631 0
M  V30 2931 H 288.241 2.45633 -1.67487 0
M  V30 2932 H 285.774 1.20498 -0.96538 0
M  V30 2933 H 287.732 4.09996 0.203334 0
M  V30 2934 H 286.393 3.05572 0.72694 0
M  V30 2935 H 285.586 4.99783 -0.65059 0
M  V30 2936 H 285.188 3.4528 -1.43727 0
M  V30 2937 H 287.48 6.62411 -1.4219 0
M  V30 2938 H 288.423 6.4439 -2.93542 0
M  V30 2939 H 288.831 5.4383 -1.51357 0
M  V30 2940 N 288.23 0.939286 1.26551 0
M  V30 2941 C 289.479 0.581601 1.93133 0
M  V30 2942 C 289.792 -0.883224 1.74524 0
M  V30 2943 O 290.998 -1.3502 2.35546 0
M  V30 2944 C 289.454 0.989425 3.46032 0
M  V30 2945 C 289.062 2.47573 3.73379 0
M  V30 2946 C 290.806 0.703544 4.18629 0
M  V30 2947 C 288.713 2.82235 5.19709 0
M  V30 2948 H 287.643 0.213803 0.723052 0
M  V30 2949 H 290.294 1.14167 1.4366 0
M  V30 2950 H 288.676 0.357902 3.94379 0
M  V30 2951 H 289.85 3.15614 3.35744 0
M  V30 2952 H 288.165 2.73471 3.1401 0
M  V30 2953 H 290.762 0.938869 5.26393 0
M  V30 2954 H 291.105 -0.359639 4.14744 0
M  V30 2955 H 291.638 1.2947 3.76141 0
M  V30 2956 H 288.377 3.87509 5.28694 0
M  V30 2957 H 287.897 2.18854 5.58447 0
M  V30 2958 H 289.576 2.70599 5.87695 0
M  V30 2959 N 289.708 -1.40897 0.706093 0
M  V30 2960 C 291.119 -1.84023 0.315052 0
M  V30 2961 C 291.47 -1.5906 -1.14866 0
M  V30 2962 O 290.595 -1.06651 -1.88293 0
M  V30 2963 C 291.19 -3.34055 0.565038 0
M  V30 2964 C 289.749 -3.7571 0.227806 0
M  V30 2965 C 288.896 -2.64204 0.842122 0
M  V30 2966 H 291.847 -1.303 0.905963 0
M  V30 2967 H 291.868 -3.80107 -0.172843 0
M  V30 2968 H 291.38 -3.52192 1.63042 0
M  V30 2969 H 289.481 -3.63172 -0.832895 0
M  V30 2970 H 289.594 -4.74103 0.690174 0
M  V30 2971 H 287.958 -2.53255 0.270893 0
M  V30 2972 H 288.741 -2.85155 1.91158 0
M  V30 2973 N 291.186 -0.45159 -1.50991 0
M  V30 2974 C 292.149 0.341117 -2.26647 0
M  V30 2975 C 293.149 0.937422 -1.30649 0
M  V30 2976 O 294.339 0.809644 -1.54241 0
M  V30 2977 C 291.471 1.48398 -3.06905 0
M  V30 2978 H 292.664 -0.322117 -2.98165 0
M  V30 2979 H 290.217 -0.205122 -1.54948 0
M  V30 2980 H 290.952 2.18284 -2.39838 0
M  V30 2981 H 290.737 1.06241 -3.77432 0
M  V30 2982 H 292.227 2.04367 -3.64176 0
M  V30 2983 N 292.664 1.56529 -0.183458 0
M  V30 2984 C 294.075 1.83739 0.331177 0
M  V30 2985 C 294.426 1.10373 1.62211 0
M  V30 2986 O 293.551 0.36071 2.13373 0
M  V30 2987 C 294.146 3.33306 0.607646 0
M  V30 2988 C 292.705 3.60969 1.06668 0
M  V30 2989 C 291.852 2.77086 0.109029 0
M  V30 2990 H 294.803 1.53379 -0.407484 0
M  V30 2991 H 294.824 3.51444 1.45832 0
M  V30 2992 H 294.336 3.86677 -0.332086 0
M  V30 2993 H 292.437 3.13021 2.0211 0
M  V30 2994 H 292.55 4.69231 0.967447 0
M  V30 2995 H 290.914 2.47319 0.608714 0
M  V30 2996 H 291.697 3.33241 -0.82494 0
M  V30 2997 N 294.142 -0.090211 1.57342 0
M  V30 2998 C 295.072 -1.10976 2.05443 0
M  V30 2999 C 296.053 -1.41482 0.944284 0
M  V30 3000 O 297.238 -1.51428 1.21586 0
M  V30 3001 C 294.368 -2.42831 2.48295 0
M  V30 3002 C 293.322 -2.26721 3.63018 0
M  V30 3003 C 292.648 -3.63796 3.91863 0
M  V30 3004 C 293.948 -1.7037 4.93732 0
M  V30 3005 H 295.642 -0.709564 2.9087 0
M  V30 3006 H 293.188 -0.339874 1.39932 0
M  V30 3007 H 295.141 -3.14431 2.80555 0
M  V30 3008 H 293.865 -2.84795 1.59873 0
M  V30 3009 H 292.524 -1.57565 3.31012 0
M  V30 3010 H 292.172 -4.03297 3.00601 0
M  V30 3011 H 291.872 -3.53861 4.69101 0
M  V30 3012 H 293.396 -4.36855 4.26603 0
M  V30 3013 H 294.81 -2.31816 5.24342 0
M  V30 3014 H 293.207 -1.71181 5.75167 0
M  V30 3015 H 294.277 -0.663542 4.80339 0
M  V30 3016 N 295.62 -1.53406 -0.361157 0
M  V30 3017 C 296.55 -1.83136 -1.44857 0
M  V30 3018 C 297.531 -0.685174 -1.5569 0
M  V30 3019 O 298.716 -0.93544 -1.70186 0
M  V30 3020 C 295.846 -2.02522 -2.82138 0
M  V30 3021 C 294.8 -3.18302 -2.86126 0
M  V30 3022 C 294.126 -3.22989 -4.26125 0
M  V30 3023 C 295.426 -4.56796 -2.53248 0
M  V30 3024 H 297.12 -2.74201 -1.20226 0
M  V30 3025 H 294.666 -1.31938 -0.576922 0
M  V30 3026 H 296.619 -2.21904 -3.58241 0
M  V30 3027 H 295.343 -1.08172 -3.08166 0
M  V30 3028 H 294.002 -2.98747 -2.12475 0
M  V30 3029 H 293.65 -2.26267 -4.49235 0
M  V30 3030 H 293.35 -4.00781 -4.29708 0
M  V30 3031 H 294.874 -3.44559 -5.04094 0
M  V30 3032 H 296.288 -4.7631 -3.19064 0
M  V30 3033 H 294.685 -5.36862 -2.68141 0
M  V30 3034 H 295.755 -4.61606 -1.48484 0
M  V30 3035 N 297.098 0.621204 -1.44841 0
M  V30 3036 C 298.346 1.37783 -1.47852 0
M  V30 3037 C 298.667 1.94653 -0.116224 0
M  V30 3038 O 297.937 1.76367 0.852737 0
M  V30 3039 H 296.517 0.511453 -0.544449 0
M  V30 3040 H 299.179 0.730446 -1.80694 0
M  V30 3041 H 298.275 2.20414 -2.20961 0
M  V30 3042 N 298.576 1.31904 0.862503 0
M  V30 3043 C 299.486 1.22161 2.00285 0
M  V30 3044 C 300.502 0.136785 1.73462 0
M  V30 3045 O 301.678 0.355994 1.98229 0
M  V30 3046 C 298.743 0.937093 3.33796 0
M  V30 3047 C 297.804 2.10957 3.73893 0
M  V30 3048 C 297.037 1.83853 5.01033 0
M  V30 3049 O 297.26 0.777274 5.65079 0
M  V30 3050 O 296.194 2.69741 5.38074 0
M  V30 3051 H 300.02 2.18008 2.11439 0
M  V30 3052 H 297.605 1.11716 0.991957 0
M  V30 3053 H 299.487 0.794583 4.13841 0
M  V30 3054 H 298.162 0.00871894 3.23699 0
M  V30 3055 H 297.069 2.30752 2.94456 0
M  V30 3056 H 298.402 3.02046 3.88625 0
M  V30 3057 N 300.054 -1.07777 1.14986 0
M  V30 3058 C 301.303 -1.79669 0.916617 0
M  V30 3059 C 301.616 -1.87474 -0.557917 0
M  V30 3060 O 302.822 -2.55845 -0.908617 0
M  V30 3061 C 301.278 -3.22848 1.59051 0
M  V30 3062 C 300.886 -3.23257 3.10176 0
M  V30 3063 C 302.63 -3.99379 1.43864 0
M  V30 3064 C 300.537 -4.61063 3.70372 0
M  V30 3065 H 299.467 -0.673349 0.33929 0
M  V30 3066 H 302.118 -1.21003 1.37951 0
M  V30 3067 H 300.5 -3.8168 1.0553 0
M  V30 3068 H 301.674 -2.74095 3.70417 0
M  V30 3069 H 299.989 -2.60222 3.25074 0
M  V30 3070 H 302.586 -5.0122 1.86232 0
M  V30 3071 H 302.929 -4.14511 0.385564 0
M  V30 3072 H 303.462 -3.47032 1.94457 0
M  V30 3073 H 300.201 -4.51135 4.7556 0
M  V30 3074 H 299.721 -5.1048 3.14913 0
M  V30 3075 H 301.4 -5.30034 3.71043 0
M  V30 3076 N 301.532 -0.945985 -1.26051 0
M  V30 3077 C 302.943 -0.638096 -1.75457 0
M  V30 3078 C 303.294 0.846672 -1.76991 0
M  V30 3079 O 302.419 1.66262 -1.38513 0
M  V30 3080 C 303.014 -1.15157 -3.18629 0
M  V30 3081 C 301.573 -0.894004 -3.65629 0
M  V30 3082 C 300.72 -1.29967 -2.44957 0
M  V30 3083 H 303.671 -1.12376 -1.1206 0
M  V30 3084 H 303.692 -0.507615 -3.77099 0
M  V30 3085 H 303.204 -2.23222 -3.1748 0
M  V30 3086 H 301.305 0.172057 -3.72203 0
M  V30 3087 H 301.418 -1.52439 -4.54202 0
M  V30 3088 H 299.782 -0.718078 -2.44368 0
M  V30 3089 H 300.565 -2.38935 -2.46505 0
M  V30 3090 N 303.011 1.40521 -0.713556 0
M  V30 3091 C 304.257 2.01714 -0.261382 0
M  V30 3092 C 304.612 1.55562 1.13217 0
M  V30 3093 O 303.905 0.764893 1.7567 0
M  V30 3094 C 304.099 3.56317 -0.278 0
M  V30 3095 C 303.928 4.17476 -1.67163 0
M  V30 3096 C 302.698 4.50998 -2.2788 0
M  V30 3097 C 304.896 4.42472 -2.6215 0
M  V30 3098 N 302.878 4.9754 -3.5962 0
M  V30 3099 C 304.249 4.90985 -3.78594 0
M  V30 3100 C 306.304 4.24508 -2.60188 0
M  V30 3101 C 305.007 5.2342 -4.9338 0
M  V30 3102 C 307.033 4.58043 -3.741 0
M  V30 3103 C 306.395 5.06743 -4.89276 0
M  V30 3104 H 302.494 0.769104 -0.141434 0
M  V30 3105 H 305.078 1.70785 -0.934915 0
M  V30 3106 H 303.249 3.8668 0.36509 0
M  V30 3107 H 304.981 4.0425 0.190695 0
M  V30 3108 H 301.736 4.38062 -1.79997 0
M  V30 3109 H 302.16 5.25196 -4.27198 0
M  V30 3110 H 306.802 3.86078 -1.72348 0
M  V30 3111 H 304.52 5.60765 -5.81866 0
M  V30 3112 H 308.106 4.45785 -3.73854 0
M  V30 3113 H 306.986 5.32204 -5.75959 0
M  V30 3114 N 304.489 0.459591 1.5075 0
M  V30 3115 C 305.419 -0.330644 2.31147 0
M  V30 3116 C 306.4 -1.00087 1.37538 0
M  V30 3117 O 307.585 -1.00025 1.66459 0
M  V30 3118 C 304.715 -1.41958 3.16962 0
M  V30 3119 C 303.669 -0.871608 4.19031 0
M  V30 3120 C 302.995 -2.05797 4.9351 0
M  V30 3121 C 304.295 0.109251 5.22186 0
M  V30 3122 H 305.989 0.340336 2.97459 0
M  V30 3123 H 303.535 0.165119 1.4305 0
M  V30 3124 H 305.488 -1.9798 3.71997 0
M  V30 3125 H 304.212 -2.11917 2.48513 0
M  V30 3126 H 302.871 -0.333442 3.6508 0
M  V30 3127 H 302.519 -2.74427 4.21544 0
M  V30 3128 H 302.219 -1.6976 5.62544 0
M  V30 3129 H 303.743 -2.62331 5.51375 0
M  V30 3130 H 305.157 -0.361405 5.7216 0
M  V30 3131 H 303.554 0.383316 5.98875 0
M  V30 3132 H 304.624 1.03887 4.73641 0
M  V30 3133 N 305.967 -1.56429 0.191757 0
M  V30 3134 C 306.93 -2.17707 -0.716688 0
M  V30 3135 C 307.93 -1.13061 -1.14341 0
M  V30 3136 O 309.12 -1.38464 -1.05704 0
M  V30 3137 C 306.252 -2.77644 -1.97804 0
M  V30 3138 H 307.445 -2.99342 -0.1829 0
M  V30 3139 H 304.998 -1.56193 -0.0578566 0
M  V30 3140 H 305.733 -1.99799 -2.55443 0
M  V30 3141 H 305.518 -3.54246 -1.68083 0
M  V30 3142 H 307.008 -3.24708 -2.62592 0
M  V30 3143 N 307.445 0.0818655 -1.57387 0
M  V30 3144 C 308.355 1.11642 -2.06333 0
M  V30 3145 C 309.371 1.43033 -0.99083 0
M  V30 3146 O 310.547 1.53411 -1.30488 0
M  V30 3147 C 307.612 2.41342 -2.48907 0
M  V30 3148 C 306.673 2.17014 -3.7041 0
M  V30 3149 C 305.906 3.4053 -4.10944 0
M  V30 3150 O 306.129 4.4927 -3.51444 0
M  V30 3151 O 305.063 3.29336 -5.03807 0
M  V30 3152 H 308.889 0.730657 -2.9478 0
M  V30 3153 H 306.474 0.295301 -1.46452 0
M  V30 3154 H 308.356 3.17691 -2.76858 0
M  V30 3155 H 307.031 2.79319 -1.63593 0
M  V30 3156 H 305.938 1.38403 -3.47556 0
M  V30 3157 H 307.271 1.83923 -4.56545 0
M  V30 3158 N 308.923 1.53595 0.353017 0
M  V30 3159 C 309.871 1.81605 1.45335 0
M  V30 3160 C 310.865 0.685923 1.54892 0
M  V30 3161 O 312.071 0.869095 1.57628 0
M  V30 3162 H 308.446 0.575204 0.484401 0
M  V30 3163 H 310.417 2.73679 1.18921 0
M  V30 3164 C 309.166 2.03406 2.81995 0
M  V30 3165 H 308.489 2.89814 2.75405 0
M  V30 3166 H 309.929 2.26975 3.58132 0
M  V30 3167 C 308.388 0.816794 3.26849 0
M  V30 3168 O 308.918 0.0115856 4.01698 0
M  V30 3169 N 307.124 0.636682 2.8354 0
M  V30 3170 H 306.671 1.2931 2.22793 0
M  V30 3171 H 306.629 -0.176336 3.13905 0
M  V30 3172 N 310.401 -0.613514 1.45168 0
M  V30 3173 C 311.812 -1.19539 1.43413 0
M  V30 3174 C 312.163 -1.95558 0.158632 0
M  V30 3175 O 311.288 -2.0335 -0.740119 0
M  V30 3176 C 311.883 -2.17445 2.59813 0
M  V30 3177 C 310.442 -2.71022 2.61197 0
M  V30 3178 C 309.589 -1.46323 2.35552 0
M  V30 3179 H 312.54 -0.403163 1.53494 0
M  V30 3180 H 312.561 -3.00373 2.33574 0
M  V30 3181 H 312.073 -1.62089 3.52631 0
M  V30 3182 H 310.174 -3.30332 1.7237 0
M  V30 3183 H 310.287 -3.15859 3.60236 0
M  V30 3184 H 308.651 -1.75072 1.84992 0
M  V30 3185 H 309.434 -0.92844 3.30507 0
M  V30 3186 N 311.879 -1.3236 -0.855495 0
M  V30 3187 C 312.789 -1.23221 -1.99634 0
M  V30 3188 C 313.805 -0.145983 -1.73387 0
M  V30 3189 O 314.981 -0.366502 -1.98037 0
M  V30 3190 C 312.046 -0.954782 -3.33294 0
M  V30 3191 C 311.107 -2.12937 -3.72769 0
M  V30 3192 C 310.34 -1.86508 -5.00051 0
M  V30 3193 O 310.563 -0.807231 -5.64659 0
M  V30 3194 O 309.497 -2.72591 -5.36636 0
M  V30 3195 H 313.323 -2.19126 -2.1028 0
M  V30 3196 H 310.908 -1.12241 -0.986018 0
M  V30 3197 H 312.79 -0.816519 -4.13414 0
M  V30 3198 H 311.465 -0.0258854 -3.2369 0
M  V30 3199 H 310.372 -2.3231 -2.93228 0
M  V30 3200 H 311.705 -3.04102 -3.87018 0
M  V30 3201 N 313.357 1.07166 -1.15556 0
M  V30 3202 C 314.305 2.16517 -0.8499 0
M  V30 3203 C 315.299 1.68468 0.177454 0
M  V30 3204 O 316.505 1.79971 0.0323026 0
M  V30 3205 H 312.88 0.706652 -0.25719 0
M  V30 3206 H 314.851 2.39514 -1.77976 0
M  V30 3207 C 313.6 3.45855 -0.357682 0
M  V30 3208 H 312.923 3.83214 -1.13961 0
M  V30 3209 H 314.363 4.23607 -0.182489 0
M  V30 3210 C 312.822 3.24062 0.921152 0
M  V30 3211 O 313.352 3.48813 1.9923 0
M  V30 3212 N 311.558 2.77539 0.86141 0
M  V30 3213 H 311.105 2.57598 -0.0104408 0
M  V30 3214 H 311.063 2.63337 1.71758 0
M  V30 3215 N 314.835 0.952656 1.25548 0
M  V30 3216 C 315.798 0.475794 2.24207 0
M  V30 3217 C 316.798 -0.419428 1.55234 0
M  V30 3218 O 317.988 -0.216994 1.72843 0
M  V30 3219 C 315.12 -0.312814 3.39462 0
M  V30 3220 H 316.313 1.34779 2.67908 0
M  V30 3221 H 313.866 0.735739 1.37901 0
M  V30 3222 H 314.601 -1.20257 3.01179 0
M  V30 3223 H 314.386 0.329404 3.90714 0
M  V30 3224 H 315.876 -0.635986 4.12729 0
M  V30 3225 N 316.313 -1.40141 0.720998 0
M  V30 3226 C 317.276 -2.29058 0.0805834 0
M  V30 3227 C 318.276 -1.45632 -0.681758 0
M  V30 3228 O 319.466 -1.6648 -0.512856 0
M  V30 3229 C 316.598 -3.28925 -0.895593 0
M  V30 3230 H 317.791 -2.87191 0.863793 0
M  V30 3231 H 315.344 -1.48553 0.485975 0
M  V30 3232 H 316.079 -2.75822 -1.70566 0
M  V30 3233 H 315.864 -3.90519 -0.351766 0
M  V30 3234 H 317.354 -3.95494 -1.34069 0
M  V30 3235 N 317.792 -0.46758 -1.50504 0
M  V30 3236 C 319.02 0.0864133 -2.06719 0
M  V30 3237 C 319.435 1.33819 -1.33184 0
M  V30 3238 O 318.792 1.78061 -0.400083 0
M  V30 3239 C 318.843 0.378079 -3.59517 0
M  V30 3240 O 318.564 -0.824044 -4.3028 0
M  V30 3241 C 320.065 0.979426 -4.32345 0
M  V30 3242 H 317.285 -0.00551697 -0.670977 0
M  V30 3243 H 319.829 -0.655354 -1.93715 0
M  V30 3244 H 317.984 1.06977 -3.72337 0
M  V30 3245 H 318.398 -0.566518 -5.21432 0
M  V30 3246 H 319.872 1.1333 -5.40241 0
M  V30 3247 H 320.349 1.9686 -3.9261 0
M  V30 3248 H 320.955 0.326216 -4.24047 0
M  V30 3249 N 319.27 1.56325 -0.20005 0
M  V30 3250 C 320.518 1.97329 0.436547 0
M  V30 3251 C 320.839 1.08826 1.61808 0
M  V30 3252 O 320.109 0.160604 1.95241 0
M  V30 3253 H 318.689 0.728714 0.164272 0
M  V30 3254 H 321.351 1.92761 -0.287937 0
M  V30 3255 H 320.447 3.02264 0.777353 0
M  V30 3256 N 320.748 -0.0735177 1.57428 0
M  V30 3257 C 321.695 -1.08756 2.0357 0
M  V30 3258 C 322.665 -1.38559 0.916 0
M  V30 3259 O 323.85 -1.49656 1.18354 0
M  V30 3260 C 320.99 -2.39657 2.48311 0
M  V30 3261 C 320.103 -2.16399 3.73892 0
M  V30 3262 C 319.238 -3.40852 4.07423 0
M  V30 3263 C 318.277 -3.1295 5.2605 0
M  V30 3264 N 317.414 -4.29729 5.55228 0
M  V30 3265 H 322.254 -0.687104 2.8997 0
M  V30 3266 H 319.791 -0.327709 1.43403 0
M  V30 3267 H 321.749 -3.16081 2.72303 0
M  V30 3268 H 320.379 -2.77508 1.64891 0
M  V30 3269 H 319.431 -1.30676 3.57251 0
M  V30 3270 H 320.743 -1.91788 4.60455 0
M  V30 3271 H 319.897 -4.25671 4.32306 0
M  V30 3272 H 318.636 -3.68537 3.19425 0
M  V30 3273 H 317.641 -2.26526 5.00965 0
M  V30 3274 H 318.866 -2.86589 6.15665 0
M  V30 3275 H 316.812 -4.57448 4.70188 0
M  V30 3276 H 316.729 -4.08385 6.36206 0
M  V30 3277 H 317.997 -5.1555 5.84661 0
M  V30 3278 N 322.226 -1.5378 -0.344866 0
M  V30 3279 C 323.456 -1.74646 -1.10374 0
M  V30 3280 C 323.864 -0.48491 -1.8288 0
M  V30 3281 O 323.207 0.553062 -1.75177 0
M  V30 3282 C 323.269 -2.87145 -2.16306 0
M  V30 3283 C 322.933 -4.26795 -1.63386 0
M  V30 3284 C 323.93 -5.08412 -1.08688 0
M  V30 3285 C 321.615 -4.73276 -1.68272 0
M  V30 3286 C 323.609 -6.34609 -0.595792 0
M  V30 3287 C 321.296 -5.99446 -1.18776 0
M  V30 3288 C 322.294 -6.79946 -0.645215 0
M  V30 3289 O 321.982 -8.03745 -0.157626 0
M  V30 3290 H 321.714 -0.587112 -0.335075 0
M  V30 3291 H 324.268 -2.01403 -0.403252 0
M  V30 3292 H 322.498 -2.55909 -2.89909 0
M  V30 3293 H 324.187 -2.95992 -2.77747 0
M  V30 3294 H 324.953 -4.73666 -1.04236 0
M  V30 3295 H 320.832 -4.10677 -2.09442 0
M  V30 3296 H 324.376 -6.97389 -0.171654 0
M  V30 3297 H 320.273 -6.33687 -1.22928 0
M  V30 3298 H 321.041 -8.18038 -0.275037 0
M  V30 3299 N 323.704 0.605807 -1.45491 0
M  V30 3300 C 324.953 1.36086 -1.48874 0
M  V30 3301 C 325.266 1.95131 -0.135333 0
M  V30 3302 O 326.472 2.7146 -0.0468144 0
M  V30 3303 C 324.928 2.46518 -2.62215 0
M  V30 3304 C 324.536 1.93877 -4.03876 0
M  V30 3305 C 326.28 3.23512 -2.74846 0
M  V30 3306 C 324.187 3.01801 -5.08596 0
M  V30 3307 H 323.117 0.511497 -0.553974 0
M  V30 3308 H 325.768 0.649089 -1.71636 0
M  V30 3309 H 324.15 3.20388 -2.32739 0
M  V30 3310 H 325.324 1.26704 -4.43038 0
M  V30 3311 H 323.639 1.29622 -3.95711 0
M  V30 3312 H 326.236 4.04013 -3.50253 0
M  V30 3313 H 326.579 3.74631 -1.81542 0
M  V30 3314 H 327.112 2.56742 -3.03856 0
M  V30 3315 H 323.851 2.55597 -6.03614 0
M  V30 3316 H 323.371 3.67535 -4.74002 0
M  V30 3317 H 325.05 3.66152 -5.33424 0
M  V30 3318 N 325.182 1.32811 0.848464 0
M  V30 3319 C 326.13 1.22231 1.97895 0
M  V30 3320 C 327.124 0.125749 1.68933 0
M  V30 3321 O 328.33 0.289083 1.77663 0
M  V30 3322 H 324.705 0.379058 0.649476 0
M  V30 3323 H 326.676 2.17828 2.03945 0
M  V30 3324 C 325.425 0.968572 3.33937 0
M  V30 3325 H 324.748 1.80458 3.56756 0
M  V30 3326 H 326.188 0.934808 4.13567 0
M  V30 3327 C 324.647 -0.328628 3.35293 0
M  V30 3328 O 325.177 -1.33848 3.78745 0
M  V30 3329 N 323.383 -0.352788 2.88451 0
M  V30 3330 H 322.93 0.469541 2.53285 0
M  V30 3331 H 322.888 -1.22057 2.89741 0
M  V30 3332 N 326.66 -1.06551 1.16123 0
M  V30 3333 C 327.59 -2.15935 0.88851 0
M  V30 3334 C 328.571 -1.69306 -0.164135 0
M  V30 3335 O 329.756 -1.94193 -0.0167857 0
M  V30 3336 C 326.886 -3.45149 0.385942 0
M  V30 3337 C 325.84 -4.05271 1.3762 0
M  V30 3338 C 325.166 -5.29664 0.732137 0
M  V30 3339 C 326.466 -4.44355 2.74493 0
M  V30 3340 H 328.16 -2.39006 1.80323 0
M  V30 3341 H 325.706 -1.14866 0.868435 0
M  V30 3342 H 327.659 -4.21004 0.182647 0
M  V30 3343 H 326.383 -3.21689 -0.564274 0
M  V30 3344 H 325.042 -3.3147 1.56599 0
M  V30 3345 H 324.69 -5.02499 -0.224483 0
M  V30 3346 H 324.39 -5.70848 1.39307 0
M  V30 3347 H 325.914 -6.08218 0.538802 0
M  V30 3348 H 327.328 -5.11303 2.59311 0
M  V30 3349 H 325.725 -4.96515 3.37035 0
M  V30 3350 H 326.795 -3.55339 3.29943 0
M  V30 3351 N 328.138 -0.959301 -1.25041 0
M  V30 3352 C 329.101 -0.487677 -2.23952 0
M  V30 3353 C 330.101 0.41119 -1.55454 0
M  V30 3354 O 331.291 0.207825 -1.72956 0
M  V30 3355 C 328.423 0.294807 -3.39623 0
M  V30 3356 H 329.616 -1.36198 -2.67189 0
M  V30 3357 H 327.169 -0.743042 -1.37508 0
M  V30 3358 H 327.904 1.18658 -3.01813 0
M  V30 3359 H 327.689 -0.35012 -3.90534 0
M  V30 3360 H 329.179 0.614089 -4.1306 0
M  V30 3361 N 329.616 1.39756 -0.72842 0
M  V30 3362 C 330.546 2.33289 -0.0991354 0
M  V30 3363 C 331.527 1.53568 0.731489 0
M  V30 3364 O 332.712 1.81987 0.677807 0
M  V30 3365 C 329.842 3.3763 0.813834 0
M  V30 3366 C 328.796 4.2791 0.0878663 0
M  V30 3367 C 328.122 5.22894 1.11741 0
M  V30 3368 C 329.422 5.11314 -1.06563 0
M  V30 3369 H 331.116 2.86163 -0.880408 0
M  V30 3370 H 328.662 1.37591 -0.424819 0
M  V30 3371 H 330.615 4.0201 1.26355 0
M  V30 3372 H 329.339 2.83181 1.62715 0
M  V30 3373 H 327.998 3.65 -0.342159 0
M  V30 3374 H 327.646 4.64744 1.92412 0
M  V30 3375 H 327.346 5.84143 0.636477 0
M  V30 3376 H 328.87 5.90151 1.56697 0
M  V30 3377 H 330.284 5.69076 -0.694671 0
M  V30 3378 H 328.681 5.81671 -1.47577 0
M  V30 3379 H 329.751 4.46534 -1.89038 0
M  V30 3380 N 331.094 0.475555 1.50254 0
M  V30 3381 C 332.024 -0.30611 2.31485 0
M  V30 3382 C 333.005 -0.986228 1.38591 0
M  V30 3383 O 334.19 -0.982541 1.67511 0
M  V30 3384 C 331.32 -1.38588 3.1845 0
M  V30 3385 C 330.274 -0.827115 4.19932 0
M  V30 3386 C 329.6 -2.00551 4.95665 0
M  V30 3387 C 330.9 0.16463 5.2204 0
M  V30 3388 H 332.594 0.371866 2.97082 0
M  V30 3389 H 330.14 0.180282 1.42867 0
M  V30 3390 H 332.093 -1.94023 3.74076 0
M  V30 3391 H 330.817 -2.09269 2.50747 0
M  V30 3392 H 329.476 -0.294702 3.65414 0
M  V30 3393 H 329.124 -2.6994 4.2443 0
M  V30 3394 H 328.824 -1.63784 5.64313 0
M  V30 3395 H 330.348 -2.56468 5.54127 0
M  V30 3396 H 331.762 -0.300699 5.72511 0
M  V30 3397 H 330.159 0.446813 5.98434 0
M  V30 3398 H 331.229 1.08905 4.72512 0
M  V30 3399 O 332.611 -1.57666 0.349795 0
M  V30 3400 H 333.302 -1.92619 -0.204318 0
M  V30 END ATOM
M  V30 BEGIN BOND
M  V30 END BOND
M  V30 END CTAB
M  END
$$$$
