drugbank_target|P03277 Hexon protein (DB04272)
 OpenBabel12092120293D

  0  0  0     0  0            999 V3000
M  V30 BEGIN CTAB
M  V30 COUNTS 15020 15221 0 0 0
M  V30 BEGIN ATOM
M  V30 1 H -0.908 1.98254 -0.117106 0
M  V30 2 N 0 1.576 0 0
M  V30 3 C 0.933 2.03868 1.02534 0
M  V30 4 C 1.911 0.928543 1.3348 0
M  V30 5 O 3.095 1.19667 1.45644 0
M  V30 6 C 0.222 2.43627 2.35294 0
M  V30 7 C -0.732 3.65373 2.2001 0
M  V30 8 S 0.101 5.13292 1.52614 0
M  V30 9 C 1.257 5.56322 2.86805 0
M  V30 10 H 1.49 2.90518 0.631377 0
M  V30 11 H -0.977 1.52953 0.210867 0
M  V30 12 H 0.981 2.67203 3.11629 0
M  V30 13 H -0.358 1.57376 2.7183 0
M  V30 14 H -1.165 3.90944 3.18086 0
M  V30 15 H -1.563 3.418 1.51819 0
M  V30 16 H 0.729 5.58782 3.83104 0
M  V30 17 H 1.672 6.56266 2.65933 0
M  V30 18 H 2.08 4.83886 2.90714 0
M  V30 19 N 1.4781 -0.272755 1.55222 0
M  V30 20 C 2.4411 -1.32041 1.87344 0
M  V30 21 C 3.4411 -1.42342 0.74803 0
M  V30 22 O 4.6311 -1.41488 1.0162 0
M  V30 23 C 1.7631 -2.70173 2.07893 0
M  V30 24 H 2.9561 -1.04789 2.80997 0
M  V30 25 H 0.5091 -0.51083 1.47717 0
M  V30 26 H 1.2441 -3.02605 1.16622 0
M  V30 27 H 1.0291 -2.64082 2.89833 0
M  V30 28 H 2.5191 -3.45869 2.34017 0
M  V30 29 N 2.9562 -1.48159 -0.537278 0
M  V30 30 C 4.1842 -1.59454 -1.31841 0
M  V30 31 C 4.5992 -0.252065 -1.8711 0
M  V30 32 O 3.9562 0.757621 -1.66031 0
M  V30 33 C 4.0072 -2.63546 -2.47439 0
M  V30 34 O 3.7282 -3.92583 -1.94449 0
M  V30 35 C 5.2292 -2.85212 -3.39366 0
M  V30 36 H 2.4492 -0.53785 -0.401196 0
M  V30 37 H 4.9932 -1.93932 -0.648891 0
M  V30 38 H 3.1482 -2.31946 -3.1029 0
M  V30 39 H 3.5622 -4.49629 -2.70063 0
M  V30 40 H 5.0362 -3.61863 -4.16844 0
M  V30 41 H 5.5132 -1.93765 -3.94147 0
M  V30 42 H 6.1192 -3.18086 -2.82314 0
M  V30 43 N 4.4343 0.785586 -1.36625 0
M  V30 44 C 5.8453 1.36101 -1.27803 0
M  V30 45 C 6.1963 1.96035 0.0804875 0
M  V30 46 O 5.3213 1.92834 0.982042 0
M  V30 47 C 5.9163 2.47442 -2.31426 0
M  V30 48 C 4.4753 3.00789 -2.26281 0
M  V30 49 C 3.6223 1.73896 -2.15999 0
M  V30 50 H 6.5733 0.586928 -1.47448 0
M  V30 51 H 6.5943 3.2656 -1.95291 0
M  V30 52 H 6.1063 2.03791 -3.30289 0
M  V30 53 H 4.2073 3.48851 -1.30896 0
M  V30 54 H 4.3203 3.57343 -3.19128 0
M  V30 55 H 2.6843 1.9628 -1.62316 0
M  V30 56 H 3.4673 1.32368 -3.16755 0
M  V30 57 N 5.9124 1.20967 1.01018 0
M  V30 58 C 7.1374 1.0503 1.78839 0
M  V30 59 C 7.5624 -0.395752 1.8389 0
M  V30 60 O 6.9204 -1.28529 1.27867 0
M  V30 61 C 6.9684 1.64602 3.2084 0
M  V30 62 O 6.0724 0.887988 4.02726 0
M  V30 63 H 5.4134 0.369987 0.551367 0
M  V30 64 H 7.9434 1.60399 1.27018 0
M  V30 65 H 7.9534 1.68607 3.71532 0
M  V30 66 H 6.6284 2.69841 3.16479 0
M  V30 67 H 5.2054 0.922648 3.61305 0
M  V30 68 N 7.3905 -1.2043 1.01659 0
M  V30 69 C 8.3235 -2.21924 0.531521 0
M  V30 70 C 9.3015 -1.57054 -0.421032 0
M  V30 71 O 10.4855 -1.85389 -0.341035 0
M  V30 72 C 7.6125 -3.37942 -0.226496 0
M  V30 73 C 6.6585 -4.21115 0.67561 0
M  V30 74 S 7.4915 -4.90674 2.14475 0
M  V30 75 C 8.6475 -6.10113 1.3969 0
M  V30 76 H 8.8805 -2.62725 1.3915 0
M  V30 77 H 6.4135 -1.30481 0.825479 0
M  V30 78 H 8.3715 -4.05196 -0.657738 0
M  V30 79 H 7.0325 -2.956 -1.06205 0
M  V30 80 H 6.2255 -5.03918 0.091108 0
M  V30 81 H 5.8275 -3.59115 1.04463 0
M  V30 82 H 8.1195 -6.7411 0.676897 0
M  V30 83 H 9.0625 -6.73022 2.20107 0
M  V30 84 H 9.4705 -5.57283 0.899786 0
M  V30 85 N 8.8686 -0.792821 -1.36206 0
M  V30 86 C 9.8016 -0.139422 -2.27774 0
M  V30 87 C 10.7796 0.68649 -1.47398 0
M  V30 88 O 11.9636 0.656738 -1.7669 0
M  V30 89 C 9.0906 0.807947 -3.28922 0
M  V30 90 C 8.1366 0.0633999 -4.26453 0
M  V30 91 S 8.9696 -1.26319 -5.20388 0
M  V30 92 C 10.1256 -0.31991 -6.25082 0
M  V30 93 H 10.3586 -0.915809 -2.82843 0
M  V30 94 H 7.8916 -0.587203 -1.42798 0
M  V30 95 H 9.8496 1.34908 -3.87699 0
M  V30 96 H 8.5106 1.55761 -2.72759 0
M  V30 97 H 7.7036 0.782386 -4.9789 0
M  V30 98 H 7.3056 -0.407352 -3.71775 0
M  V30 99 H 9.5976 0.499985 -6.75653 0
M  V30 100 H 10.5406 -1.00307 -7.00959 0
M  V30 101 H 10.9486 0.0782694 -5.64446 0
M  V30 102 N 10.3467 1.47872 -0.545128 0
M  V30 103 C 11.7577 1.86384 -0.108581 0
M  V30 104 C 12.1087 1.45309 1.31832 0
M  V30 105 O 11.2337 0.850641 1.9898 0
M  V30 106 C 11.8287 3.38265 -0.190274 0
M  V30 107 C 10.3877 3.75914 0.191164 0
M  V30 108 C 9.5347 2.71926 -0.543273 0
M  V30 109 H 12.4857 1.39561 -0.755537 0
M  V30 110 H 12.5067 3.75831 0.594217 0
M  V30 111 H 12.0187 3.6813 -1.2289 0
M  V30 112 H 10.1197 3.51665 1.23136 0
M  V30 113 H 10.2327 4.78836 -0.158987 0
M  V30 114 H 8.5967 2.54697 0.0122495 0
M  V30 115 H 9.3797 3.04634 -1.58282 0
M  V30 116 N 11.8248 0.280983 1.55075 0
M  V30 117 C 12.7568 -0.637268 2.20163 0
M  V30 118 C 13.7698 -1.11298 1.18813 0
M  V30 119 O 14.9588 -1.03388 1.4551 0
M  V30 120 C 12.0588 -1.88199 2.81841 0
M  V30 121 C 11.2318 -1.55211 4.08936 0
M  V30 122 C 10.2908 -2.64991 4.54606 0
M  V30 123 O 9.3168 -2.30929 5.2025 0
M  V30 124 N 10.5188 -3.95161 4.25238 0
M  V30 125 H 13.2838 -0.0801694 2.99593 0
M  V30 126 H 10.8448 0.102329 1.61576 0
M  V30 127 H 12.8368 -2.60948 3.09335 0
M  V30 128 H 11.4068 -2.34799 2.06369 0
M  V30 129 H 10.6268 -0.658185 3.88666 0
M  V30 130 H 11.9148 -1.30681 4.91732 0
M  V30 131 H 11.3128 -4.25653 3.72607 0
M  V30 132 H 9.8698 -4.6427 4.5749 0
M  V30 133 N 13.3029 -1.57598 0.00835791 0
M  V30 134 C 14.5489 -1.92046 -0.670055 0
M  V30 135 C 14.9039 -0.88351 -1.70915 0
M  V30 136 O 14.1969 0.103223 -1.91322 0
M  V30 137 C 14.3909 -3.3101 -1.34787 0
M  V30 138 C 14.2199 -4.48126 -0.375945 0
M  V30 139 C 12.9899 -5.05297 0.0166914 0
M  V30 140 C 15.1879 -5.1303 0.361272 0
M  V30 141 N 13.1699 -6.05931 0.985952 0
M  V30 142 C 14.5409 -6.08571 1.18495 0
M  V30 143 C 16.5959 -4.9609 0.42421 0
M  V30 144 C 15.2989 -6.88996 2.06584 0
M  V30 145 C 17.3249 -5.77107 1.29236 0
M  V30 146 C 16.6869 -6.72248 2.10386 0
M  V30 147 H 12.7859 -0.75096 -0.218136 0
M  V30 148 H 15.3699 -1.94572 0.0706669 0
M  V30 149 H 13.5409 -3.29342 -2.05884 0
M  V30 150 H 15.2729 -3.52864 -1.98164 0
M  V30 151 H 12.0279 -4.72279 -0.353435 0
M  V30 152 H 12.4519 -6.60932 1.4662 0
M  V30 153 H 17.0939 -4.22378 -0.188915 0
M  V30 154 H 14.8119 -7.62028 2.6896 0
M  V30 155 H 18.3979 -5.66038 1.34508 0
M  V30 156 H 17.2779 -7.33846 2.76476 0
M  V30 157 N 14.781 0.264519 -1.55364 0
M  V30 158 C 16.006 1.01726 -1.80739 0
M  V30 159 C 16.431 1.78836 -0.583044 0
M  V30 160 O 15.789 1.75167 0.467566 0
M  V30 161 C 15.837 1.94482 -3.03659 0
M  V30 162 O 14.941 3.03386 -2.7934 0
M  V30 163 H 14.282 0.290395 -0.597132 0
M  V30 164 H 16.812 0.290854 -2.02522 0
M  V30 165 H 16.822 2.36278 -3.32621 0
M  V30 166 H 15.497 1.37772 -3.92418 0
M  V30 167 H 14.074 2.65844 -2.61498 0
M  V30 168 N 16.2591 1.48442 0.529413 0
M  V30 169 C 17.4891 1.59919 1.30804 0
M  V30 170 C 17.8971 0.258792 1.87422 0
M  V30 171 O 17.2401 -0.762096 1.67146 0
M  V30 172 C 17.3021 2.58693 2.49636 0
M  V30 173 C 16.9661 4.03745 2.14101 0
M  V30 174 C 17.9631 4.9141 1.6974 0
M  V30 175 C 15.6481 4.49285 2.24607 0
M  V30 176 C 17.6421 6.22645 1.36351 0
M  V30 177 C 15.3291 5.8054 1.9083 0
M  V30 178 C 16.3271 6.67043 1.46773 0
M  V30 179 O 16.0151 7.95856 1.1344 0
M  V30 180 H 15.7471 0.541981 0.404021 0
M  V30 181 H 18.3011 1.95 0.645309 0
M  V30 182 H 16.5311 2.18734 3.18892 0
M  V30 183 H 18.2201 2.59999 3.11698 0
M  V30 184 H 18.9861 4.57465 1.61094 0
M  V30 185 H 14.8651 3.82142 2.57854 0
M  V30 186 H 18.4091 6.90119 1.01891 0
M  V30 187 H 14.3061 6.14022 1.99117 0
M  V30 188 H 15.0741 8.08613 1.26832 0
M  V30 189 N 17.7372 -0.778329 1.37039 0
M  V30 190 C 18.6702 -1.8984 1.26633 0
M  V30 191 C 19.6482 -1.61923 0.148197 0
M  V30 192 O 20.8322 -1.85742 0.321265 0
M  V30 193 C 17.9592 -3.24916 0.956403 0
M  V30 194 C 17.0052 -3.71752 2.09051 0
M  V30 195 S 17.8382 -3.86201 3.70957 0
M  V30 196 C 18.9942 -5.24135 3.42101 0
M  V30 197 H 19.2272 -1.98377 2.21436 0
M  V30 198 H 16.7602 -0.938738 1.22585 0
M  V30 199 H 18.7182 -4.02936 0.784409 0
M  V30 200 H 17.3792 -3.14089 0.0259713 0
M  V30 201 H 16.5722 -4.69661 1.8285 0
M  V30 202 H 16.1742 -3.00815 2.2223 0
M  V30 203 H 18.4662 -6.09086 2.96682 0
M  V30 204 H 19.4092 -5.55346 4.39314 0
M  V30 205 H 19.8172 -4.91761 2.77185 0
M  V30 206 N 19.2153 -1.21501 -1.00376 0
M  V30 207 C 20.1653 -0.942843 -2.07592 0
M  V30 208 C 21.1493 0.102384 -1.60574 0
M  V30 209 O 22.3413 -0.10671 -1.76678 0
M  V30 210 C 19.4703 -0.510729 -3.3948 0
M  V30 211 C 18.5563 -1.59009 -3.93163 0
M  V30 212 N 18.9473 -2.81544 -4.20198 0
M  V30 213 C 17.2453 -1.45925 -4.21452 0
M  V30 214 C 17.9463 -3.51261 -4.63671 0
M  V30 215 N 16.9223 -2.78703 -4.66718 0
M  V30 216 H 20.7243 -1.87378 -2.26421 0
M  V30 217 H 18.2383 -1.11093 -1.18458 0
M  V30 218 H 20.2353 -0.297101 -4.1584 0
M  V30 219 H 18.8953 0.413436 -3.22057 0
M  V30 220 H 19.9063 -3.18075 -4.08716 0
M  V30 221 H 16.5833 -0.600467 -4.13159 0
M  V30 222 H 17.9733 -4.56183 -4.93302 0
M  V30 223 N 20.6934 1.19889 -1.02296 0
M  V30 224 C 21.9424 1.88743 -0.711257 0
M  V30 225 C 22.2554 1.80112 0.762817 0
M  V30 226 O 23.4614 2.44161 1.18733 0
M  V30 227 C 21.9174 3.38525 -1.22185 0
M  V30 228 C 21.5254 3.55727 -2.72328 0
M  V30 229 C 23.2694 4.12893 -0.985864 0
M  V30 230 C 21.1764 4.99369 -3.16835 0
M  V30 231 H 20.1064 0.706885 -0.262353 0
M  V30 232 H 22.7574 1.35586 -1.23648 0
M  V30 233 H 21.1394 3.91044 -0.624571 0
M  V30 234 H 22.3134 3.13564 -3.3766 0
M  V30 235 H 20.6284 2.94739 -2.9414 0
M  V30 236 H 23.2254 5.18813 -1.29374 0
M  V30 237 H 23.5684 4.16228 0.0775055 0
M  V30 238 H 24.1014 3.66494 -1.54684 0
M  V30 239 H 20.8404 5.01193 -4.22476 0
M  V30 240 H 20.3604 5.42317 -2.56228 0
M  V30 241 H 22.0394 5.67988 -3.09837 0
M  V30 242 N 22.1715 0.800033 1.35784 0
M  V30 243 C 23.3965 0.388511 2.03729 0
M  V30 244 C 23.8215 -0.990481 1.5991 0
M  V30 245 O 23.1795 -1.64013 0.772612 0
M  V30 246 C 23.2275 0.4726 3.5749 0
M  V30 247 O 22.3315 -0.51646 4.09153 0
M  V30 248 H 21.6725 0.163271 0.643614 0
M  V30 249 H 24.2025 1.0841 1.73518 0
M  V30 250 H 24.2125 0.34003 4.06581 0
M  V30 251 H 22.8875 1.47848 3.88734 0
M  V30 252 H 21.4645 -0.344673 3.71304 0
M  V30 253 N 23.6496 -1.47581 0.552962 0
M  V30 254 C 24.8976 -2.02082 0.0272703 0
M  V30 255 C 25.2186 -1.4301 -1.32563 0
M  V30 256 O 24.4886 -0.603745 -1.86365 0
M  V30 257 H 23.0686 -0.746966 0.00709182 0
M  V30 258 H 25.7306 -1.81033 0.722008 0
M  V30 259 H 24.8266 -3.12034 -0.0639951 0
M  V30 260 N 25.1277 -0.289203 -1.54924 0
M  V30 261 C 26.0597 0.625583 -2.20497 0
M  V30 262 C 27.0727 1.10667 -1.19402 0
M  V30 263 O 28.2617 1.02615 -1.46056 0
M  V30 264 C 25.3617 1.86702 -2.82835 0
M  V30 265 C 24.5347 1.5304 -4.09753 0
M  V30 266 C 23.5937 2.62576 -4.56005 0
M  V30 267 O 22.6197 2.28167 -5.21468 0
M  V30 268 N 23.8217 3.92901 -4.27328 0
M  V30 269 H 26.5867 0.0642801 -2.99631 0
M  V30 270 H 24.1477 -0.110896 -1.6152 0
M  V30 271 H 26.1397 2.59304 -3.10715 0
M  V30 272 H 24.7097 2.33702 -2.07611 0
M  V30 273 H 23.9297 0.637564 -3.8901 0
M  V30 274 H 25.2177 1.28072 -4.92418 0
M  V30 275 H 24.6157 4.23671 -3.74859 0
M  V30 276 H 23.1727 4.61837 -4.59946 0
M  V30 277 N 26.6058 1.57591 -0.0167156 0
M  V30 278 C 27.8828 1.82547 0.702564 0
M  V30 279 C 28.2628 0.898018 1.91047 0
M  V30 280 O 27.6108 -0.0493456 2.28447 0
M  V30 281 C 27.8208 3.31459 1.09251 0
M  V30 282 C 29.1688 3.97622 1.48937 0
M  V30 283 O 30.1928 3.35881 1.18584 0
M  V30 284 O 29.0518 5.06415 2.05442 0
M  V30 285 H 26.1458 0.752268 0.343544 0
M  V30 286 H 28.6918 1.69644 -0.0434495 0
M  V30 287 H 27.4638 3.9061 0.23227 0
M  V30 288 H 27.0868 3.49422 1.89709 0
M  V30 289 N 28.0839 -0.256276 1.55502 0
M  V30 290 C 29.0469 -1.30047 1.88734 0
M  V30 291 C 30.0469 -1.4154 0.763086 0
M  V30 292 O 31.2369 -1.40403 1.03115 0
M  V30 293 C 28.3689 -2.67953 2.10747 0
M  V30 294 H 29.5619 -1.01802 2.82093 0
M  V30 295 H 27.1149 -0.495134 1.4825 0
M  V30 296 H 27.8499 -3.01351 1.19825 0
M  V30 297 H 27.6349 -2.60993 2.92617 0
M  V30 298 H 29.1249 -3.43368 2.37673 0
M  V30 299 N 29.562 -1.4872 -0.521534 0
M  V30 300 C 30.787 -1.61101 -1.30618 0
M  V30 301 C 31.212 -0.274611 -1.86085 0
M  V30 302 O 30.57 0.754937 -1.64834 0
M  V30 303 C 30.618 -2.66709 -2.4269 0
M  V30 304 O 29.722 -2.24456 -3.45967 0
M  V30 305 H 29.063 -0.539921 -0.386499 0
M  V30 306 H 31.593 -1.94767 -0.626645 0
M  V30 307 H 31.603 -2.88245 -2.88754 0
M  V30 308 H 30.278 -3.63727 -2.01682 0
M  V30 309 H 28.855 -2.13168 -3.05964 0
M  V30 310 N 31.0401 0.771051 -1.3745 0
M  V30 311 C 31.9501 1.91538 -1.35464 0
M  V30 312 C 32.9661 1.72134 -0.254123 0
M  V30 313 O 34.1421 1.95358 -0.489626 0
M  V30 314 C 31.2071 3.26671 -1.16134 0
M  V30 315 C 30.2681 3.58723 -2.35831 0
M  V30 316 C 29.5011 4.87409 -2.17413 0
M  V30 317 O 29.7241 5.58506 -1.15876 0
M  V30 318 O 28.6581 5.18539 -3.05615 0
M  V30 319 H 32.4841 1.96165 -2.31847 0
M  V30 320 H 30.0691 0.9139 -1.18187 0
M  V30 321 H 31.9511 4.07499 -1.07345 0
M  V30 322 H 30.6261 3.22894 -0.228251 0
M  V30 323 H 29.5331 2.78127 -2.50192 0
M  V30 324 H 30.8661 3.67243 -3.27709 0
M  V30 325 N 32.5182 1.22032 0.997298 0
M  V30 326 C 33.7482 1.06686 1.76923 0
M  V30 327 C 34.1562 -0.385838 1.85224 0
M  V30 328 O 33.4992 -1.27929 1.31833 0
M  V30 329 C 33.5612 1.59802 3.22031 0
M  V30 330 C 33.2252 3.08362 3.37286 0
M  V30 331 C 34.2222 4.05835 3.24952 0
M  V30 332 C 31.9072 3.47727 3.6248 0
M  V30 333 C 33.9012 5.4066 3.37588 0
M  V30 334 C 31.5882 4.82701 3.74757 0
M  V30 335 C 32.5862 5.78977 3.62319 0
M  V30 336 O 32.2742 7.11502 3.74193 0
M  V30 337 H 32.0062 0.374767 0.562606 0
M  V30 338 H 34.5602 1.61991 1.26286 0
M  V30 339 H 32.7902 0.989003 3.73839 0
M  V30 340 H 34.4792 1.40184 3.80924 0
M  V30 341 H 35.2452 3.76766 3.05405 0
M  V30 342 H 31.1242 2.73317 3.7124 0
M  V30 343 H 34.6682 6.15788 3.27796 0
M  V30 344 H 30.5652 5.11453 3.9381 0
M  V30 345 H 31.3332 7.19019 3.91093 0
M  V30 346 N 33.9963 -1.19345 1.0293 0
M  V30 347 C 34.9263 -2.2481 0.631105 0
M  V30 348 C 35.9073 -1.66245 -0.360104 0
M  V30 349 O 37.0923 -1.92677 -0.242726 0
M  V30 350 C 34.2223 -3.47295 -0.0184607 0
M  V30 351 C 33.1763 -4.18536 0.895073 0
M  V30 352 C 32.5023 -5.34586 0.110592 0
M  V30 353 C 33.8023 -4.73287 2.209 0
M  V30 354 H 35.4963 -2.58372 1.51275 0
M  V30 355 H 33.0423 -1.24194 0.728818 0
M  V30 356 H 34.9953 -4.20268 -0.308675 0
M  V30 357 H 33.7193 -3.12933 -0.934907 0
M  V30 358 H 32.3783 -3.47446 1.16949 0
M  V30 359 H 32.0263 -4.96469 -0.807902 0
M  V30 360 H 31.7263 -5.83183 0.719087 0
M  V30 361 H 33.2503 -6.10355 -0.172871 0
M  V30 362 H 34.6643 -5.38013 1.98028 0
M  V30 363 H 33.0613 -5.32373 2.76946 0
M  V30 364 H 34.1313 -3.91331 2.86336 0
M  V30 365 N 35.4744 -0.807222 -1.35358 0
M  V30 366 C 36.6994 -0.399309 -2.0352 0
M  V30 367 C 37.1244 0.981986 -1.60433 0
M  V30 368 O 36.4824 1.63601 -0.781299 0
M  V30 369 C 36.5304 -0.491552 -3.57234 0
M  V30 370 O 35.6344 0.494754 -4.09421 0
M  V30 371 H 34.9754 -0.166682 -0.642739 0
M  V30 372 H 37.5054 -1.09328 -1.72941 0
M  V30 373 H 37.5154 -0.361588 -4.06395 0
M  V30 374 H 36.1904 -1.49907 -3.87944 0
M  V30 375 H 34.7674 0.324977 -3.71481 0
M  V30 376 N 36.9525 1.47285 -0.560781 0
M  V30 377 C 38.3635 1.86258 -0.128343 0
M  V30 378 C 38.7145 1.46699 1.30284 0
M  V30 379 O 37.8395 0.871698 1.98067 0
M  V30 380 C 38.4345 3.38044 -0.22614 0
M  V30 381 C 36.9935 3.76096 0.151283 0
M  V30 382 C 36.1405 2.71335 -0.572084 0
M  V30 383 H 39.0915 1.38752 -0.770297 0
M  V30 384 H 39.1125 3.76441 0.554322 0
M  V30 385 H 38.6245 3.66806 -1.26788 0
M  V30 386 H 36.7255 3.52951 1.19399 0
M  V30 387 H 36.8385 4.78641 -0.209765 0
M  V30 388 H 35.2025 2.54696 -0.0147653 0
M  V30 389 H 35.9855 3.02938 -1.61504 0
M  V30 390 N 38.4306 0.297415 1.54768 0
M  V30 391 C 39.6786 -0.312295 1.99673 0
M  V30 392 C 39.9996 -1.54686 1.18732 0
M  V30 393 O 39.2696 -1.93854 0.282382 0
M  V30 394 H 37.8496 -0.118381 0.73756 0
M  V30 395 H 40.5116 0.407915 1.90583 0
M  V30 396 H 39.6076 -0.586813 3.06534 0
M  V30 397 N 39.9087 -1.5758 0.0250728 0
M  V30 398 C 40.8387 -2.13007 -0.956575 0
M  V30 399 C 41.8197 -1.0452 -1.342 0
M  V30 400 O 43.0047 -1.32332 -1.42133 0
M  V30 401 C 40.1347 -2.65386 -2.24026 0
M  V30 402 C 39.0887 -3.78623 -1.99571 0
M  V30 403 C 38.4147 -4.17414 -3.3417 0
M  V30 404 C 39.7147 -5.04867 -1.33814 0
M  V30 405 H 41.4087 -2.9528 -0.494991 0
M  V30 406 H 38.9547 -1.42042 -0.236651 0
M  V30 407 H 40.9077 -3.02794 -2.93076 0
M  V30 408 H 39.6317 -1.80268 -2.72343 0
M  V30 409 H 38.2907 -3.41646 -1.32941 0
M  V30 410 H 37.9387 -3.29284 -3.80238 0
M  V30 411 H 37.6387 -4.93719 -3.18615 0
M  V30 412 H 39.1627 -4.57402 -4.04495 0
M  V30 413 H 40.5767 -5.39888 -1.92857 0
M  V30 414 H 38.9737 -5.86144 -1.28669 0
M  V30 415 H 40.0437 -4.83904 -0.310561 0
M  V30 416 N 41.3868 0.248026 -1.55636 0
M  V30 417 C 42.6328 0.97767 -1.77678 0
M  V30 418 C 42.9658 1.85016 -0.590135 0
M  V30 419 O 42.2408 1.90095 0.411611 0
M  V30 420 C 42.5238 1.83914 -3.09593 0
M  V30 421 C 42.3768 0.99491 -4.38659 0
M  V30 422 C 43.6958 2.82183 -3.37729 0
M  V30 423 H 40.8148 0.354005 -0.646413 0
M  V30 424 H 43.4568 0.248253 -1.88371 0
M  V30 425 H 41.6068 2.46104 -3.00608 0
M  V30 426 H 43.2788 0.391789 -4.59633 0
M  V30 427 H 41.5218 0.299231 -4.32767 0
M  V30 428 H 42.1928 1.63145 -5.2734 0
M  V30 429 H 44.6688 2.30129 -3.4667 0
M  V30 430 H 43.5448 3.39582 -4.31249 0
M  V30 431 H 43.8058 3.58588 -2.58586 0
M  V30 432 N 42.8649 1.48995 0.513639 0
M  V30 433 C 43.7969 1.60836 1.63293 0
M  V30 434 C 44.8099 0.491701 1.55197 0
M  V30 435 O 45.9989 0.763238 1.6136 0
M  V30 436 C 43.0989 1.53731 3.02027 0
M  V30 437 C 42.2719 2.80715 3.35437 0
M  V30 438 C 41.3309 2.66837 4.53525 0
M  V30 439 O 40.3569 3.40753 4.55934 0
M  V30 440 N 41.5589 1.77539 5.52684 0
M  V30 441 H 44.3239 2.57366 1.53566 0
M  V30 442 H 41.8849 1.45925 0.701259 0
M  V30 443 H 43.8769 1.42118 3.78926 0
M  V30 444 H 42.4469 0.651092 3.05744 0
M  V30 445 H 41.6669 3.06772 2.47557 0
M  V30 446 H 42.9549 3.64927 3.54551 0
M  V30 447 H 42.3529 1.16719 5.53528 0
M  V30 448 H 40.9099 1.71856 6.28736 0
M  V30 449 N 44.343 -0.763751 1.37857 0
M  V30 450 C 45.59 -1.52257 1.33506 0
M  V30 451 C 45.918 -1.94343 -0.078022 0
M  V30 452 O 45.173 -1.64958 -1.05297 0
M  V30 453 C 45.472 -2.79499 2.22745 0
M  V30 454 C 45.138 -2.56426 3.70886 0
M  V30 455 C 43.8 -2.49842 4.11257 0
M  V30 456 C 46.152 -2.36008 4.64704 0
M  V30 457 C 43.48 -2.20841 5.43549 0
M  V30 458 C 45.832 -2.0853 5.97242 0
M  V30 459 C 44.496 -2.00396 6.36709 0
M  V30 460 H 43.766 -0.557149 0.488534 0
M  V30 461 H 46.413 -0.879073 1.70131 0
M  V30 462 H 44.718 -3.48447 1.79142 0
M  V30 463 H 46.415 -3.37413 2.16688 0
M  V30 464 H 43.005 -2.62416 3.38874 0
M  V30 465 H 47.189 -2.40079 4.34368 0
M  V30 466 H 42.445 -2.13045 5.73081 0
M  V30 467 H 46.619 -1.91732 6.69486 0
M  V30 468 H 44.246 -1.77688 7.39142 0
M  V30 469 N 45.8211 -1.22559 -0.990812 0
M  V30 470 C 46.7841 -0.998863 -2.0629 0
M  V30 471 C 47.7841 0.0354834 -1.60761 0
M  V30 472 O 48.9741 -0.203231 -1.7301 0
M  V30 473 C 46.1061 -0.509203 -3.37076 0
M  V30 474 H 47.2991 -1.95014 -2.27837 0
M  V30 475 H 44.8521 -1.04456 -1.16269 0
M  V30 476 H 45.5871 0.446335 -3.21214 0
M  V30 477 H 45.3721 -1.25547 -3.71457 0
M  V30 478 H 46.8621 -0.370888 -4.1595 0
M  V30 479 N 47.2992 1.18797 -1.03562 0
M  V30 480 C 48.7152 1.40671 -0.753917 0
M  V30 481 C 48.9152 1.9043 0.658686 0
M  V30 482 O 47.9712 2.08538 1.42366 0
M  V30 483 C 49.2842 2.41192 -1.79574 0
M  V30 484 C 50.8322 2.54928 -1.81606 0
M  V30 485 C 51.3072 3.58709 -2.84766 0
M  V30 486 N 52.7982 3.66212 -2.83625 0
M  V30 487 C 53.5332 4.46225 -3.60098 0
M  V30 488 N 53.0292 5.29888 -4.46308 0
M  V30 489 N 54.8222 4.40939 -3.4861 0
M  V30 490 H 46.9732 0.848221 -1.94728 0
M  V30 491 H 49.2362 0.435081 -0.842264 0
M  V30 492 H 48.9422 2.11669 -2.80872 0
M  V30 493 H 48.8162 3.40467 -1.62365 0
M  V30 494 H 51.2032 2.83771 -0.809817 0
M  V30 495 H 51.2842 1.55784 -2.02891 0
M  V30 496 H 50.9282 3.30607 -3.85566 0
M  V30 497 H 50.8582 4.57519 -2.60737 0
M  V30 498 H 53.3492 3.06466 -2.21105 0
M  V30 499 H 53.6622 5.88078 -5.01382 0
M  V30 500 H 52.0072 5.29326 -4.50377 0
M  V30 501 H 55.1982 3.74624 -2.80668 0
M  V30 502 H 55.3712 5.03056 -4.08459 0
M  V30 503 N 48.7773 0.814389 1.34928 0
M  V30 504 C 49.7403 0.235759 2.27984 0
M  V30 505 C 50.7403 -0.581412 1.49921 0
M  V30 506 O 51.9303 -0.398758 1.69575 0
M  V30 507 C 49.0623 -0.670433 3.34242 0
M  V30 508 H 50.2553 1.05659 2.80671 0
M  V30 509 H 47.8083 0.585614 1.44915 0
M  V30 510 H 48.5433 -1.51466 2.86755 0
M  V30 511 H 48.3283 -0.0860822 3.92005 0
M  V30 512 H 49.8183 -1.06935 4.03676 0
M  V30 513 N 50.2554 -1.46986 0.568584 0
M  V30 514 C 51.4834 -2.0683 0.0539956 0
M  V30 515 C 51.8984 -1.41953 -1.24478 0
M  V30 516 O 51.2554 -0.519933 -1.74937 0
M  V30 517 C 51.3064 -3.61254 -0.133362 0
M  V30 518 O 51.0274 -4.237 1.11399 0
M  V30 519 C 52.5284 -4.37992 -0.683927 0
M  V30 520 H 49.7484 -0.669058 0.0510141 0
M  V30 521 H 52.2924 -1.88824 0.785234 0
M  V30 522 H 50.4474 -3.78735 -0.81477 0
M  V30 523 H 50.8614 -5.16388 0.91888 0
M  V30 524 H 52.3354 -5.46684 -0.764263 0
M  V30 525 H 52.8124 -4.05058 -1.69778 0
M  V30 526 H 53.4184 -4.25283 -0.0378494 0
M  V30 527 N 51.7335 -0.305618 -1.54608 0
M  V30 528 C 52.6435 0.57778 -2.27374 0
M  V30 529 C 53.6595 1.14451 -1.31061 0
M  V30 530 O 54.8355 1.16831 -1.6405 0
M  V30 531 C 51.9005 1.73123 -3.00382 0
M  V30 532 C 50.9615 1.19812 -4.12242 0
M  V30 533 C 50.1945 2.2966 -4.81759 0
M  V30 534 O 50.4175 3.49651 -4.50666 0
M  V30 535 O 49.3515 1.96091 -5.69062 0
M  V30 536 H 53.1775 -0.012624 -3.03697 0
M  V30 537 H 50.7625 -0.0719184 -1.49227 0
M  V30 538 H 52.6445 2.40315 -3.4616 0
M  V30 539 H 51.3195 2.30815 -2.26949 0
M  V30 540 H 50.2265 0.491798 -3.70853 0
M  V30 541 H 51.5595 0.666566 -4.87666 0
M  V30 542 N 53.2116 1.57565 -0.0334293 0
M  V30 543 C 54.4396 1.9628 0.654347 0
M  V30 544 C 54.8546 0.910138 1.65414 0
M  V30 545 O 54.2116 -0.107595 1.82183 0
M  V30 546 C 54.2626 3.35067 1.35693 0
M  V30 547 O 53.9836 4.36296 0.397191 0
M  V30 548 C 55.4846 3.88439 2.13613 0
M  V30 549 H 52.7046 0.646369 0.180132 0
M  V30 550 H 55.2486 2.04282 -0.0944721 0
M  V30 551 H 53.4036 3.2827 2.05712 0
M  V30 552 H 53.8176 5.1678 0.896597 0
M  V30 553 H 55.2916 4.8788 2.58219 0
M  V30 554 H 55.7686 3.22914 2.97696 0
M  V30 555 H 56.3746 3.98516 1.48543 0
M  V30 556 N 54.6897 -0.239769 1.55765 0
M  V30 557 C 55.9197 -0.982743 1.8173 0
M  V30 558 C 56.3277 -1.7917 0.607835 0
M  V30 559 O 55.6707 -1.78525 -0.432973 0
M  V30 560 C 55.7327 -1.96332 3.01155 0
M  V30 561 C 55.3967 -1.34062 4.36894 0
M  V30 562 C 56.3937 -0.739539 5.14613 0
M  V30 563 C 54.0787 -1.35784 4.83599 0
M  V30 564 C 56.0727 -0.163989 6.37189 0
M  V30 565 C 53.7597 -0.778441 6.06122 0
M  V30 566 C 54.7577 -0.182548 6.82756 0
M  V30 567 O 54.4457 0.387887 8.02964 0
M  V30 568 H 54.1777 -0.294481 0.608487 0
M  V30 569 H 56.7317 -0.26572 2.03674 0
M  V30 570 H 54.9617 -2.71884 2.74984 0
M  V30 571 H 56.6507 -2.57032 3.14149 0
M  V30 572 H 57.4167 -0.718687 4.79646 0
M  V30 573 H 53.2957 -1.81105 4.23936 0
M  V30 574 H 56.8397 0.301753 6.96947 0
M  V30 575 H 52.7367 -0.796645 6.40565 0
M  V30 576 H 53.5047 0.28044 8.18019 0
M  V30 577 N 56.1678 -1.49265 -0.50573 0
M  V30 578 C 57.4148 -1.58513 -1.26015 0
M  V30 579 C 57.7428 -0.26972 -1.92621 0
M  V30 580 O 56.9978 0.741997 -1.81088 0
M  V30 581 C 57.2968 -2.69008 -2.35308 0
M  V30 582 C 56.9628 -4.10662 -1.86192 0
M  V30 583 C 55.6248 -4.49212 -1.72516 0
M  V30 584 C 57.9768 -4.99336 -1.49375 0
M  V30 585 C 55.3048 -5.74214 -1.20394 0
M  V30 586 C 57.6568 -6.24852 -0.987072 0
M  V30 587 C 56.3208 -6.62236 -0.836669 0
M  V30 588 H 55.5908 -0.580041 -0.461122 0
M  V30 589 H 58.2378 -1.83078 -0.561665 0
M  V30 590 H 56.5428 -2.38396 -3.10926 0
M  V30 591 H 58.2398 -2.73373 -2.93374 0
M  V30 592 H 54.8298 -3.8023 -1.97795 0
M  V30 593 H 59.0138 -4.70212 -1.5879 0
M  V30 594 H 54.2698 -6.01883 -1.07458 0
M  V30 595 H 58.4438 -6.92944 -0.692983 0
M  V30 596 H 56.0708 -7.58979 -0.430607 0
M  V30 597 N 57.6459 0.756429 -1.3826 0
M  V30 598 C 58.8709 1.55077 -1.37717 0
M  V30 599 C 59.2959 1.88073 0.03164 0
M  V30 600 O 58.6539 1.50364 1.01293 0
M  V30 601 C 58.7019 2.8283 -2.23695 0
M  V30 602 O 57.8059 3.77862 -1.6521 0
M  V30 603 H 57.1469 0.469152 -0.469885 0
M  V30 604 H 59.6769 0.935019 -1.81985 0
M  V30 605 H 59.6869 3.31783 -2.37453 0
M  V30 606 H 58.3619 2.58144 -3.2609 0
M  V30 607 H 56.9389 3.36555 -1.60578 0
M  V30 608 N 59.124 1.23083 0.984299 0
M  V30 609 C 60.054 1.03292 2.09411 0
M  V30 610 C 61.035 -0.048923 1.7003 0
M  V30 611 O 62.22 0.114967 1.93859 0
M  V30 612 C 59.35 0.619155 3.41736 0
M  V30 613 C 58.304 1.64791 3.95004 0
M  V30 614 C 57.63 1.0897 5.23478 0
M  V30 615 C 58.93 3.03999 4.24714 0
M  V30 616 H 60.624 1.96119 2.26225 0
M  V30 617 H 58.17 0.944344 1.08711 0
M  V30 618 H 60.123 0.467777 4.18796 0
M  V30 619 H 58.847 -0.344786 3.24775 0
M  V30 620 H 57.506 1.78721 3.20085 0
M  V30 621 H 57.154 0.11686 5.02864 0
M  V30 622 H 56.854 1.77704 5.60085 0
M  V30 623 H 58.378 0.950093 6.03163 0
M  V30 624 H 59.792 2.93393 4.92538 0
M  V30 625 H 58.189 3.69936 4.72512 0
M  V30 626 H 59.259 3.53285 3.32142 0
M  V30 627 N 60.6021 -1.18246 1.0419 0
M  V30 628 C 61.5501 -2.23968 0.627792 0
M  V30 629 C 62.5441 -1.65828 -0.346019 0
M  V30 630 O 63.7501 -1.78733 -0.213175 0
M  V30 631 H 60.1251 -0.728939 0.184802 0
M  V30 632 H 62.0961 -2.56202 1.52981 0
M  V30 633 C 60.8451 -3.47699 0.00796591 0
M  V30 634 H 60.1681 -3.92734 0.748347 0
M  V30 635 H 61.6081 -4.23294 -0.24455 0
M  V30 636 C 60.0671 -3.13153 -1.24246 0
M  V30 637 O 60.5971 -3.27003 -2.33307 0
M  V30 638 N 58.8031 -2.67467 -1.13622 0
M  V30 639 H 58.3501 -2.56396 -0.248734 0
M  V30 640 H 58.3081 -2.44724 -1.97377 0
M  V30 641 N 62.0802 -0.821533 -1.34494 0
M  V30 642 C 63.0282 -0.230702 -2.31453 0
M  V30 643 C 64.0222 0.627793 -1.57338 0
M  V30 644 O 65.2282 0.519288 -1.72347 0
M  V30 645 H 61.6032 -0.0558577 -0.749923 0
M  V30 646 H 63.5742 -1.06332 -2.78812 0
M  V30 647 C 62.3232 0.59391 -3.4259 0
M  V30 648 H 61.6462 -0.0573588 -3.99759 0
M  V30 649 H 63.0862 0.973446 -4.12674 0
M  V30 650 C 61.5452 1.76568 -2.86924 0
M  V30 651 O 62.0752 2.8638 -2.81691 0
M  V30 652 N 60.2812 1.58198 -2.43766 0
M  V30 653 H 59.8282 0.68872 -2.48222 0
M  V30 654 H 59.7862 2.36752 -2.06871 0
M  V30 655 N 63.5583 1.46682 -0.576371 0
M  V30 656 C 64.5053 2.30241 0.160499 0
M  V30 657 C 65.4753 1.40233 0.890162 0
M  V30 658 O 66.6603 1.69186 0.882084 0
M  V30 659 C 63.8003 3.24578 1.1723 0
M  V30 660 C 62.9133 4.29684 0.446736 0
M  V30 661 C 62.0483 5.11154 1.44551 0
M  V30 662 C 61.0873 6.08015 0.70599 0
M  V30 663 N 60.2243 6.82376 1.65251 0
M  V30 664 H 65.0643 2.92727 -0.558127 0
M  V30 665 H 62.6013 1.44272 -0.287056 0
M  V30 666 H 64.5593 3.77711 1.77172 0
M  V30 667 H 63.1893 2.63916 1.85872 0
M  V30 668 H 62.2413 3.79458 -0.267594 0
M  V30 669 H 63.5533 4.98626 -0.131686 0
M  V30 670 H 62.7073 5.68533 2.11791 0
M  V30 671 H 61.4463 4.42158 2.05786 0
M  V30 672 H 60.4513 5.49796 0.0197725 0
M  V30 673 H 61.6763 6.79028 0.09912 0
M  V30 674 H 59.6223 6.16094 2.25308 0
M  V30 675 H 59.5393 7.47556 1.12673 0
M  V30 676 H 60.8073 7.44316 2.31546 0
M  V30 677 N 65.0364 0.313813 1.54444 0
M  V30 678 C 66.2834 -0.291675 2.00388 0
M  V30 679 C 66.6114 -1.52904 1.2021 0
M  V30 680 O 65.8664 -1.93833 0.269707 0
M  V30 681 C 66.1654 -0.680386 3.50864 0
M  V30 682 C 65.8314 0.456699 4.48581 0
M  V30 683 C 64.4934 0.768824 4.75018 0
M  V30 684 C 66.8454 1.22098 5.06697 0
M  V30 685 C 64.1734 1.84812 5.56831 0
M  V30 686 C 66.5254 2.29029 5.89685 0
M  V30 687 C 65.1894 2.60834 6.14428 0
M  V30 688 H 64.4594 -0.106732 0.733273 0
M  V30 689 H 67.1064 0.43557 1.86481 0
M  V30 690 H 65.4114 -1.48791 3.62448 0
M  V30 691 H 67.1084 -1.16026 3.83847 0
M  V30 692 H 63.6984 0.203337 4.28117 0
M  V30 693 H 67.8824 0.993096 4.86263 0
M  V30 694 H 63.1384 2.09912 5.74236 0
M  V30 695 H 67.3124 2.887 6.33739 0
M  V30 696 H 64.9394 3.44596 6.77612 0
M  V30 697 N 66.5145 -1.57545 0.0417849 0
M  V30 698 C 67.9305 -1.56467 -0.314704 0
M  V30 699 C 68.1305 -1.04859 -1.72066 0
M  V30 700 O 67.1865 -0.700983 -2.42575 0
M  V30 701 C 68.4995 -3.00317 -0.15174 0
M  V30 702 C 70.0475 -3.12201 -0.223553 0
M  V30 703 C 70.5225 -4.57913 -0.0892295 0
M  V30 704 N 72.0135 -4.6297 -0.145808 0
M  V30 705 C 72.7485 -5.73362 -0.0658459 0
M  V30 706 N 72.2445 -6.92769 0.0659282 0
M  V30 707 N 74.0375 -5.6197 -0.12075 0
M  V30 708 H 66.1885 -1.89416 0.961014 0
M  V30 709 H 68.4515 -0.871862 0.372237 0
M  V30 710 H 68.1575 -3.42073 0.817254 0
M  V30 711 H 68.0315 -3.65892 -0.916692 0
M  V30 712 H 70.4185 -2.70349 -1.18301 0
M  V30 713 H 70.4995 -2.49323 0.571994 0
M  V30 714 H 70.1435 -5.00448 0.866867 0
M  V30 715 H 70.0735 -5.18786 -0.903802 0
M  V30 716 H 72.5645 -3.7709 -0.247286 0
M  V30 717 H 72.8775 -7.72707 0.119905 0
M  V30 718 H 71.2225 -6.94927 0.100885 0
M  V30 719 H 74.4135 -4.67572 -0.222187 0
M  V30 720 H 74.5865 -6.47977 -0.0549735 0
M  V30 721 N 67.9926 0.231505 -1.5589 0
M  V30 722 C 68.9406 1.30649 -1.92441 0
M  V30 723 C 69.9346 1.49037 -0.805254 0
M  V30 724 O 71.1406 1.50329 -0.990007 0
M  V30 725 H 67.5156 0.437812 -0.611412 0
M  V30 726 H 69.4866 0.970973 -2.82161 0
M  V30 727 C 68.2356 2.65179 -2.24889 0
M  V30 728 H 67.5586 2.51835 -3.10514 0
M  V30 729 H 68.9986 3.39234 -2.54355 0
M  V30 730 C 67.4576 3.19439 -1.07054 0
M  V30 731 O 67.9876 4.00371 -0.326499 0
M  V30 732 N 66.1936 2.77675 -0.85703 0
M  V30 733 H 65.7406 2.11969 -1.46379 0
M  V30 734 H 65.6986 3.14321 -0.0703223 0
M  V30 735 N 69.4707 1.49531 0.497807 0
M  V30 736 C 70.8817 1.52344 1.07927 0
M  V30 737 C 71.2327 0.311469 1.93712 0
M  V30 738 O 70.3577 -0.578405 2.08527 0
M  V30 739 C 70.9527 2.76062 1.96405 0
M  V30 740 C 69.5117 2.81643 2.49709 0
M  V30 741 C 68.6587 2.46299 1.27404 0
M  V30 742 H 71.6097 1.56182 0.281576 0
M  V30 743 H 71.6307 2.56405 2.81135 0
M  V30 744 H 71.1427 3.64254 1.33943 0
M  V30 745 H 69.2437 1.97739 3.15801 0
M  V30 746 H 69.3567 3.83891 2.86643 0
M  V30 747 H 67.7207 1.98148 1.60029 0
M  V30 748 H 68.5037 3.36769 0.66645 0
M  V30 749 N 70.9488 -0.749086 1.3866 0
M  V30 750 C 72.1768 -1.53834 1.38358 0
M  V30 751 C 72.5918 -1.88783 -0.0255219 0
M  V30 752 O 71.9488 -1.53101 -0.993292 0
M  V30 753 C 71.9998 -2.83468 2.2434 0
M  V30 754 O 71.7208 -2.50008 3.5976 0
M  V30 755 C 73.2218 -3.7758 2.32267 0
M  V30 756 H 70.4418 -0.47585 0.473083 0
M  V30 757 H 72.9858 -0.926726 1.82297 0
M  V30 758 H 71.1408 -3.40995 1.83851 0
M  V30 759 H 71.5548 -3.33182 4.05081 0
M  V30 760 H 73.0288 -4.65478 2.96706 0
M  V30 761 H 73.5058 -4.18334 1.33765 0
M  V30 762 H 74.1118 -3.25976 2.73166 0
M  V30 763 N 72.4269 -1.23603 -0.977757 0
M  V30 764 C 73.6729 -1.07129 -1.72195 0
M  V30 765 C 74.0059 0.390501 -1.90233 0
M  V30 766 O 73.2809 1.28902 -1.45653 0
M  V30 767 C 73.5639 -1.80031 -3.11867 0
M  V30 768 C 73.4169 -3.33899 -3.01383 0
M  V30 769 C 74.7359 -1.56492 -4.11337 0
M  V30 770 H 71.8549 -0.390571 -0.624999 0
M  V30 771 H 74.4969 -1.52142 -1.13811 0
M  V30 772 H 72.6469 -1.41768 -3.6171 0
M  V30 773 H 74.3189 -3.81699 -2.59043 0
M  V30 774 H 72.5619 -3.62796 -2.37827 0
M  V30 775 H 73.2329 -3.801 -4.00285 0
M  V30 776 H 75.7089 -1.89757 -3.70313 0
M  V30 777 H 74.5849 -2.09973 -5.07151 0
M  V30 778 H 74.8459 -0.500874 -4.39254 0
M  V30 779 N 73.905 1.17692 -1.04816 0
M  V30 780 C 74.868 2.19787 -0.650117 0
M  V30 781 C 75.868 1.58044 0.296427 0
M  V30 782 O 77.058 1.74012 0.0808097 0
M  V30 783 C 74.19 3.40869 0.0456987 0
M  V30 784 H 75.383 2.56516 -1.5537 0
M  V30 785 H 72.936 1.31708 -0.841594 0
M  V30 786 H 73.671 3.09681 0.962726 0
M  V30 787 H 73.456 3.86928 -0.634727 0
M  V30 788 H 74.946 4.16445 0.310432 0
M  V30 789 N 75.3831 0.828654 1.34056 0
M  V30 790 C 76.7941 0.477534 1.8049 0
M  V30 791 C 77.1451 -1.00258 1.6865 0
M  V30 792 O 76.2701 -1.78057 1.22982 0
M  V30 793 C 76.8651 0.860018 3.27703 0
M  V30 794 C 75.4241 0.561185 3.72193 0
M  V30 795 C 74.5711 1.07385 2.55663 0
M  V30 796 H 77.5221 1.0183 1.21722 0
M  V30 797 H 77.5431 0.166038 3.80138 0
M  V30 798 H 77.0551 1.93731 3.36288 0
M  V30 799 H 75.1561 -0.506465 3.69142 0
M  V30 800 H 75.2691 1.10926 4.66082 0
M  V30 801 H 73.6331 0.495149 2.49841 0
M  V30 802 H 74.4161 2.15771 2.67016 0
M  V30 803 N 76.8612 -1.46375 0.584142 0
M  V30 804 C 78.0892 -2.06761 0.0759296 0
M  V30 805 C 78.5042 -1.43266 -1.22965 0
M  V30 806 O 77.8612 -0.538458 -1.74376 0
M  V30 807 C 77.9122 -3.61375 -0.0950384 0
M  V30 808 O 77.6332 -4.22495 1.15887 0
M  V30 809 C 79.1342 -4.38693 -0.637434 0
M  V30 810 H 76.3542 -0.668479 0.0581075 0
M  V30 811 H 78.8982 -1.8798 0.805218 0
M  V30 812 H 77.0532 -3.79578 -0.774554 0
M  V30 813 H 77.4672 -5.15385 0.973598 0
M  V30 814 H 78.9412 -5.47464 -0.706237 0
M  V30 815 H 79.4182 -4.06836 -1.65472 0
M  V30 816 H 80.0242 -4.25299 0.00725967 0
M  V30 817 N 78.3393 -0.321999 -1.54275 0
M  V30 818 C 79.2893 0.560185 -2.21011 0
M  V30 819 C 80.2733 1.08283 -1.19011 0
M  V30 820 O 81.4653 1.02011 -1.44647 0
M  V30 821 C 78.5943 1.72137 -2.97025 0
M  V30 822 C 77.6803 1.21369 -4.06363 0
M  V30 823 N 78.0713 0.425566 -5.04007 0
M  V30 824 C 76.3693 1.49255 -4.20284 0
M  V30 825 C 77.0703 0.152601 -5.815 0
M  V30 826 N 76.0463 0.738294 -5.38563 0
M  V30 827 H 79.8483 -0.049265 -2.93859 0
M  V30 828 H 77.3623 -0.127779 -1.61897 0
M  V30 829 H 79.3593 2.36512 -3.43319 0
M  V30 830 H 78.0193 2.33431 -2.25699 0
M  V30 831 H 79.0303 0.068551 -5.17855 0
M  V30 832 H 75.7073 2.11145 -3.60172 0
M  V30 833 H 77.0973 -0.481764 -6.70171 0
M  V30 834 N 79.8174 1.5752 -0.0501392 0
M  V30 835 C 81.0944 1.83996 0.663685 0
M  V30 836 C 81.4744 0.938339 1.89099 0
M  V30 837 O 80.8224 -0.00087759 2.285 0
M  V30 838 C 81.0324 3.33702 1.02196 0
M  V30 839 C 82.3804 4.00691 1.40469 0
M  V30 840 O 83.4044 3.38321 1.11433 0
M  V30 841 O 82.2634 5.10658 1.94654 0
M  V30 842 H 79.3574 0.759385 0.32751 0
M  V30 843 H 81.9034 1.69514 -0.0794238 0
M  V30 844 H 80.6754 3.91015 0.149364 0
M  V30 845 H 80.2984 3.53368 1.82255 0
M  V30 846 N 81.2955 -0.223234 1.56011 0
M  V30 847 C 82.5415 -0.949279 1.79211 0
M  V30 848 C 82.8745 -1.84054 0.619494 0
M  V30 849 O 82.1495 -1.90726 -0.381317 0
M  V30 850 C 82.4325 -1.78965 3.12479 0
M  V30 851 C 82.2855 -0.924997 4.40186 0
M  V30 852 C 83.6045 -2.76774 3.42175 0
M  V30 853 H 80.7235 -0.343676 0.651963 0
M  V30 854 H 83.3655 -0.218253 1.88742 0
M  V30 855 H 81.5155 -2.41291 3.04485 0
M  V30 856 H 83.1875 -0.318615 4.60198 0
M  V30 857 H 81.4305 -0.230344 4.33188 0
M  V30 858 H 82.1015 -1.54735 5.29869 0
M  V30 859 H 84.5775 -2.24584 3.50287 0
M  V30 860 H 83.4535 -3.32678 4.36597 0
M  V30 861 H 83.7145 -3.54429 2.64258 0
M  V30 862 N 82.7736 -1.49793 -0.48987 0
M  V30 863 C 84.0016 -1.63568 -1.26701 0
M  V30 864 C 84.4166 -0.311465 -1.86213 0
M  V30 865 O 83.7736 0.704416 -1.68357 0
M  V30 866 C 83.8246 -2.71284 -2.38929 0
M  V30 867 O 83.5456 -3.9857 -1.81861 0
M  V30 868 C 85.0466 -2.95864 -3.3012 0
M  V30 869 H 82.2666 -0.550342 -0.383881 0
M  V30 870 H 84.8106 -1.95898 -0.586864 0
M  V30 871 H 82.9656 -2.417 -3.02753 0
M  V30 872 H 83.3796 -4.57993 -2.55622 0
M  V30 873 H 84.8536 -3.74941 -4.05121 0
M  V30 874 H 85.3306 -2.06206 -3.87783 0
M  V30 875 H 85.9366 -3.26907 -2.72051 0
M  V30 876 N 84.2517 0.741722 -1.39055 0
M  V30 877 C 85.4797 1.53098 -1.39171 0
M  V30 878 C 85.8947 1.88794 0.0155099 0
M  V30 879 O 85.2517 1.53626 0.985159 0
M  V30 880 C 85.3027 2.82274 -2.2584 0
M  V30 881 O 85.0237 2.48097 -3.61081 0
M  V30 882 C 86.5247 3.76343 -2.34266 0
M  V30 883 H 83.7447 0.473335 -0.4756 0
M  V30 884 H 86.2887 0.917045 -1.82785 0
M  V30 885 H 84.4437 3.40015 -1.85656 0
M  V30 886 H 84.8577 3.31029 -4.06842 0
M  V30 887 H 86.3317 4.63898 -2.9917 0
M  V30 888 H 86.8087 4.17619 -1.35982 0
M  V30 889 H 87.4147 3.24523 -2.74891 0
M  V30 890 N 85.7298 1.2412 0.971189 0
M  V30 891 C 87.0068 0.986867 1.6888 0
M  V30 892 C 87.3868 -0.491857 2.0529 0
M  V30 893 O 86.7348 -1.46531 1.75331 0
M  V30 894 C 86.9448 1.9063 2.92338 0
M  V30 895 C 88.2928 2.17515 3.64654 0
M  V30 896 O 89.3168 1.88254 3.02388 0
M  V30 897 O 88.1758 2.6719 4.7673 0
M  V30 898 H 85.2698 0.372944 0.738134 0
M  V30 899 H 87.8158 1.35203 1.02559 0
M  V30 900 H 86.5878 2.90552 2.62097 0
M  V30 901 H 86.2108 1.54408 3.66393 0
M  V30 902 N 87.2079 -1.17134 1.05439 0
M  V30 903 C 88.6239 -1.39454 0.776201 0
M  V30 904 C 88.8239 -1.91454 -0.628307 0
M  V30 905 O 87.8799 -2.10777 -1.39031 0
M  V30 906 C 89.1929 -2.38305 1.83388 0
M  V30 907 C 90.7409 -2.52006 1.85639 0
M  V30 908 C 91.2159 -3.54133 2.90437 0
M  V30 909 N 92.7069 -3.61653 2.89415 0
M  V30 910 C 93.4419 -4.4044 3.67152 0
M  V30 911 N 92.9379 -5.22721 4.54681 0
M  V30 912 N 94.7309 -4.35337 3.55581 0
M  V30 913 H 86.8819 -0.817134 1.96053 0
M  V30 914 H 89.1449 -0.421626 0.849079 0
M  V30 915 H 88.8509 -2.07173 2.84204 0
M  V30 916 H 88.7249 -3.37841 1.67761 0
M  V30 917 H 91.1119 -2.82447 0.85486 0
M  V30 918 H 91.1929 -1.52537 2.05344 0
M  V30 919 H 90.8369 -3.24431 3.90777 0
M  V30 920 H 90.7669 -4.53313 2.67983 0
M  V30 921 H 93.2579 -3.02909 2.25952 0
M  V30 922 H 93.5709 -5.80027 5.10674 0
M  V30 923 H 91.9159 -5.22093 4.58741 0
M  V30 924 H 95.1069 -3.70112 2.86592 0
M  V30 925 H 95.2799 -4.96494 4.1641 0
M  V30 926 N 88.686 -0.835752 -1.33615 0
M  V30 927 C 89.911 -0.442389 -2.02627 0
M  V30 928 C 90.336 0.947735 -1.62479 0
M  V30 929 O 89.694 1.61907 -0.815826 0
M  V30 930 C 89.742 -0.567216 -3.56111 0
M  V30 931 O 88.846 0.407799 -4.10379 0
M  V30 932 H 88.187 -0.180278 -0.639059 0
M  V30 933 H 90.717 -1.12972 -1.70583 0
M  V30 934 H 90.727 -0.447708 -4.05536 0
M  V30 935 H 89.402 -1.58103 -3.84677 0
M  V30 936 H 87.979 0.246107 -3.72087 0
M  V30 937 N 90.1641 1.46063 -0.591896 0
M  V30 938 C 91.0961 2.28539 0.174001 0
M  V30 939 C 92.1091 1.39047 0.846753 0
M  V30 940 O 93.2981 1.63564 0.714774 0
M  V30 941 C 90.3981 3.14347 1.26645 0
M  V30 942 C 89.5711 4.32021 0.683856 0
M  V30 943 C 88.6301 4.99157 1.66518 0
M  V30 944 O 87.6561 5.56458 1.19763 0
M  V30 945 N 88.8581 4.97005 2.99943 0
M  V30 946 H 91.6231 2.94911 -0.533633 0
M  V30 947 H 89.1841 1.56077 -0.430294 0
M  V30 948 H 91.1761 3.56125 1.92242 0
M  V30 949 H 89.7461 2.49988 1.87682 0
M  V30 950 H 88.9661 3.93915 -0.1498 0
M  V30 951 H 90.2541 5.08059 0.274567 0
M  V30 952 H 89.6521 4.51714 3.40545 0
M  V30 953 H 88.2091 5.42696 3.61004 0
M  V30 954 N 91.6422 0.330177 1.54103 0
M  V30 955 C 93.0582 -0.0222371 1.59585 0
M  V30 956 C 93.2582 -1.49902 1.34654 0
M  V30 957 O 92.3142 -2.25592 1.13421 0
M  V30 958 C 93.6272 0.401932 2.98002 0
M  V30 959 C 95.1752 0.353145 3.11001 0
M  V30 960 C 95.6502 0.752576 4.51775 0
M  V30 961 N 97.1412 0.706239 4.57784 0
M  V30 962 C 97.8762 0.987417 5.64834 0
M  V30 963 N 97.3722 1.33607 6.79795 0
M  V30 964 N 99.1652 0.91254 5.54643 0
M  V30 965 H 91.3162 1.29228 1.68564 0
M  V30 966 H 93.5792 0.525906 0.78875 0
M  V30 967 H 93.2852 1.4311 3.21267 0
M  V30 968 H 93.1592 -0.229699 3.765 0
M  V30 969 H 95.5462 -0.666822 2.87467 0
M  V30 970 H 95.6272 1.0198 2.34593 0
M  V30 971 H 95.2712 1.77049 4.76042 0
M  V30 972 H 95.2012 0.0635409 5.26562 0
M  V30 973 H 97.6922 0.44889 3.75224 0
M  V30 974 H 98.0052 1.53582 7.57385 0
M  V30 975 H 96.3502 1.37439 6.81275 0
M  V30 976 H 99.5412 0.639601 4.6371 0
M  V30 977 H 99.7142 1.13503 6.37982 0
M  V30 978 N 93.1203 -1.57491 0.0584922 0
M  V30 979 C 94.0503 -2.14988 -0.911178 0
M  V30 980 C 95.0313 -1.07343 -1.31952 0
M  V30 981 O 96.2163 -1.35318 -1.39294 0
M  V30 982 C 93.3463 -2.70078 -2.18347 0
M  V30 983 C 92.3003 -3.82771 -1.91495 0
M  V30 984 C 91.6263 -4.24408 -3.25241 0
M  V30 985 C 92.9263 -5.07592 -1.23075 0
M  V30 986 H 94.6203 -2.96263 -0.432246 0
M  V30 987 H 92.1663 -1.42512 -0.206469 0
M  V30 988 H 94.1193 -3.08943 -2.86587 0
M  V30 989 H 92.8433 -1.86005 -2.68458 0
M  V30 990 H 91.5023 -3.44389 -1.25664 0
M  V30 991 H 91.1503 -3.37275 -3.73168 0
M  V30 992 H 90.8503 -5.00366 -3.08071 0
M  V30 993 H 92.3743 -4.65879 -3.94701 0
M  V30 994 H 93.7883 -5.43857 -1.81362 0
M  V30 995 H 92.1853 -5.88741 -1.16207 0
M  V30 996 H 93.2553 -4.84454 -0.207847 0
M  V30 997 N 94.5984 0.214957 -1.56127 0
M  V30 998 C 95.8264 0.955092 -1.83536 0
M  V30 999 C 96.2414 1.77677 -0.638472 0
M  V30 1000 O 95.5984 1.78219 0.392968 0
M  V30 1001 C 95.6494 1.86734 -3.09536 0
M  V30 1002 O 95.3704 1.07887 -4.24608 0
M  V30 1003 C 96.8714 2.72082 -3.4998 0
M  V30 1004 H 94.0914 0.279611 -0.609966 0
M  V30 1005 H 96.6354 0.228197 -2.03223 0
M  V30 1006 H 94.7904 2.5481 -2.91806 0
M  V30 1007 H 95.2044 1.69872 -4.9623 0
M  V30 1008 H 96.6784 3.31782 -4.41163 0
M  V30 1009 H 97.1554 3.44806 -2.7204 0
M  V30 1010 H 97.7614 2.09409 -3.70173 0
M  V30 1011 N 96.0765 1.50051 0.48192 0
M  V30 1012 C 97.0065 1.71046 1.58951 0
M  V30 1013 C 97.9875 0.559288 1.60642 0
M  V30 1014 O 99.1725 0.797243 1.77081 0
M  V30 1015 C 96.3025 1.79462 2.97339 0
M  V30 1016 C 95.2565 2.94558 3.10515 0
M  V30 1017 C 94.5825 2.88105 4.50444 0
M  V30 1018 C 95.8825 4.35227 2.88747 0
M  V30 1019 H 97.5765 2.6378 1.41635 0
M  V30 1020 H 95.1225 1.26936 0.679942 0
M  V30 1021 H 97.0755 1.92734 3.74742 0
M  V30 1022 H 95.7995 0.833412 3.15788 0
M  V30 1023 H 94.4585 2.80918 2.35543 0
M  V30 1024 H 94.1065 1.89853 4.65795 0
M  V30 1025 H 93.8065 3.65366 4.60197 0
M  V30 1026 H 95.3305 3.03412 5.29881 0
M  V30 1027 H 96.7445 4.49449 3.55905 0
M  V30 1028 H 95.1415 5.13856 3.09955 0
M  V30 1029 H 96.2115 4.48347 1.84696 0
M  V30 1030 N 97.5546 -0.734337 1.39446 0
M  V30 1031 C 98.9706 -1.03997 1.21065 0
M  V30 1032 C 99.1706 -2.01369 0.0727019 0
M  V30 1033 O 98.2266 -2.45856 -0.575426 0
M  V30 1034 C 99.5396 -1.60163 2.54496 0
M  V30 1035 C 101.088 -1.7224 2.61347 0
M  V30 1036 C 101.563 -2.31814 3.95002 0
M  V30 1037 N 103.054 -2.39223 3.96644 0
M  V30 1038 C 103.789 -2.86258 4.96834 0
M  V30 1039 N 103.285 -3.33184 6.07421 0
M  V30 1040 N 105.078 -2.85473 4.84213 0
M  V30 1041 H 97.2286 -0.0885624 2.12215 0
M  V30 1042 H 99.4916 -0.10191 0.942506 0
M  V30 1043 H 99.1976 -0.960811 3.38321 0
M  V30 1044 H 99.0716 -2.5896 2.74262 0
M  V30 1045 H 101.459 -2.35443 1.77906 0
M  V30 1046 H 101.54 -0.720939 2.4543 0
M  V30 1047 H 101.184 -1.69238 4.78875 0
M  V30 1048 H 101.114 -3.32638 4.08239 0
M  V30 1049 H 103.605 -2.06057 3.16779 0
M  V30 1050 H 103.918 -3.67586 6.7978 0
M  V30 1051 H 102.263 -3.31191 6.11013 0
M  V30 1052 H 105.454 -2.48136 3.96921 0
M  V30 1053 H 105.627 -3.21814 5.62441 0
M  V30 1054 N 99.0327 -1.24633 -0.964593 0
M  V30 1055 C 100.28 -1.08788 -1.70796 0
M  V30 1056 C 100.608 0.372783 -1.90894 0
M  V30 1057 O 99.8627 1.29167 -1.47018 0
M  V30 1058 C 100.162 -1.7763 -3.10133 0
M  V30 1059 C 99.8277 -3.27557 -3.09866 0
M  V30 1060 C 98.4897 -3.6846 -3.09501 0
M  V30 1061 C 100.842 -4.23389 -3.03959 0
M  V30 1062 C 98.1697 -5.03624 -3.00965 0
M  V30 1063 C 100.522 -5.58565 -2.96965 0
M  V30 1064 C 99.1857 -5.98809 -2.9493 0
M  V30 1065 H 98.4557 -0.398084 -0.624988 0
M  V30 1066 H 101.103 -1.54777 -1.12767 0
M  V30 1067 H 99.4077 -1.24044 -3.71645 0
M  V30 1068 H 101.105 -1.62832 -3.66451 0
M  V30 1069 H 97.6947 -2.95006 -3.10917 0
M  V30 1070 H 101.879 -3.92787 -3.03368 0
M  V30 1071 H 97.1347 -5.33998 -2.97752 0
M  V30 1072 H 101.309 -6.32523 -2.91354 0
M  V30 1073 H 98.9357 -7.03505 -2.88071 0
M  V30 1074 N 100.511 1.16574 -1.06058 0
M  V30 1075 C 101.76 1.86385 -0.770944 0
M  V30 1076 C 102.073 1.82448 0.705129 0
M  V30 1077 O 103.279 2.47815 1.10905 0
M  V30 1078 C 101.735 3.34466 -1.32893 0
M  V30 1079 C 101.343 3.46883 -2.83507 0
M  V30 1080 C 103.087 4.09548 -1.11672 0
M  V30 1081 C 100.994 4.89036 -3.32562 0
M  V30 1082 H 99.9238 0.698181 -0.284709 0
M  V30 1083 H 102.575 1.31583 -1.27899 0
M  V30 1084 H 100.957 3.88859 -0.748662 0
M  V30 1085 H 102.131 3.02663 -3.47465 0
M  V30 1086 H 100.446 2.85232 -3.03368 0
M  V30 1087 H 103.043 5.14434 -1.45814 0
M  V30 1088 H 103.386 4.16264 -0.0549535 0
M  V30 1089 H 103.919 3.61387 -1.66265 0
M  V30 1090 H 100.658 4.87499 -4.38207 0
M  V30 1091 H 100.178 5.3389 -2.73351 0
M  V30 1092 H 101.857 5.57843 -3.2775 0
M  V30 1093 N 101.989 0.842826 1.3317 0
M  V30 1094 C 103.4 0.496651 1.79973 0
M  V30 1095 C 103.751 -0.984641 1.69703 0
M  V30 1096 O 102.876 -1.76743 1.24863 0
M  V30 1097 C 103.471 0.894727 3.26772 0
M  V30 1098 C 102.03 0.600629 3.71577 0
M  V30 1099 C 101.177 1.10091 2.5451 0
M  V30 1100 H 104.128 1.03116 1.20635 0
M  V30 1101 H 104.149 0.206347 3.7994 0
M  V30 1102 H 103.661 1.97287 3.34215 0
M  V30 1103 H 101.762 -0.467284 3.69658 0
M  V30 1104 H 101.875 1.15863 4.64879 0
M  V30 1105 H 100.239 0.52162 2.49301 0
M  V30 1106 H 101.022 2.18591 2.64713 0
M  V30 1107 N 103.467 -1.45747 0.599634 0
M  V30 1108 C 104.713 -2.02592 0.0918643 0
M  V30 1109 C 105.046 -1.46806 -1.27128 0
M  V30 1110 O 104.321 -0.639658 -1.83681 0
M  V30 1111 C 104.604 -3.60073 0.0443398 0
M  V30 1112 C 104.457 -4.26208 1.43759 0
M  V30 1113 C 105.776 -4.35309 -0.647608 0
M  V30 1114 H 102.895 -0.736175 0.034857 0
M  V30 1115 H 105.537 -1.73694 0.770081 0
M  V30 1116 H 103.687 -3.84823 -0.533224 0
M  V30 1117 H 105.359 -4.12668 2.06162 0
M  V30 1118 H 103.602 -3.84916 2.00056 0
M  V30 1119 H 104.273 -5.35069 1.35665 0
M  V30 1120 H 106.749 -4.15805 -0.156776 0
M  V30 1121 H 105.625 -5.45038 -0.649942 0
M  V30 1122 H 105.886 -4.07598 -1.71219 0
M  V30 1123 N 104.945 -0.338344 -1.53925 0
M  V30 1124 C 106.222 0.314774 -1.93051 0
M  V30 1125 C 106.602 1.68669 -1.26941 0
M  V30 1126 O 105.95 2.24636 -0.418445 0
M  V30 1127 C 106.16 0.392249 -3.46789 0
M  V30 1128 C 107.508 0.645554 -4.19664 0
M  V30 1129 O 108.532 0.474575 -3.53024 0
M  V30 1130 O 107.391 0.976408 -5.37707 0
M  V30 1131 H 104.485 0.182598 -0.80659 0
M  V30 1132 H 107.031 -0.389141 -1.65178 0
M  V30 1133 H 105.803 -0.570702 -3.87116 0
M  V30 1134 H 105.426 1.14316 -3.80812 0
M  V30 1135 N 106.423 1.57458 -0.0668435 0
M  V30 1136 C 107.839 1.56947 0.289772 0
M  V30 1137 C 108.039 1.07584 1.70376 0
M  V30 1138 O 107.095 0.739486 2.41429 0
M  V30 1139 C 108.408 3.0052 0.103943 0
M  V30 1140 C 109.956 3.12517 0.173857 0
M  V30 1141 C 110.431 4.57997 0.0163682 0
M  V30 1142 N 111.922 4.63144 0.0721352 0
M  V30 1143 C 112.657 5.73394 -0.0253794 0
M  V30 1144 N 112.153 6.92576 -0.176133 0
M  V30 1145 N 113.946 5.62091 0.0313305 0
M  V30 1146 H 106.097 1.87863 -0.991027 0
M  V30 1147 H 108.36 0.86583 -0.38606 0
M  V30 1148 H 108.066 3.40729 -0.871572 0
M  V30 1149 H 107.94 3.67304 0.858366 0
M  V30 1150 H 110.327 2.72197 1.13985 0
M  V30 1151 H 110.408 2.48381 -0.611586 0
M  V30 1152 H 110.052 4.99005 -0.946374 0
M  V30 1153 H 109.982 5.20158 0.821153 0
M  V30 1154 H 112.473 3.77436 0.187263 0
M  V30 1155 H 112.786 7.72418 -0.242821 0
M  V30 1156 H 111.131 6.94678 -0.211429 0
M  V30 1157 H 114.322 4.67867 0.147773 0
M  V30 1158 H 114.495 6.47982 -0.048121 0
M  V30 1159 N 107.901 -0.206675 1.56239 0
M  V30 1160 C 108.811 -1.27686 1.96808 0
M  V30 1161 C 109.827 -1.50455 0.874035 0
M  V30 1162 O 111.003 -1.63295 1.17884 0
M  V30 1163 C 108.068 -2.60358 2.28942 0
M  V30 1164 C 107.129 -2.45762 3.51994 0
M  V30 1165 C 106.362 -3.72108 3.82585 0
M  V30 1166 O 106.585 -4.75776 3.14631 0
M  V30 1167 O 105.519 -3.6833 4.76043 0
M  V30 1168 H 109.345 -0.962593 2.88041 0
M  V30 1169 H 106.93 -0.410746 1.43643 0
M  V30 1170 H 108.812 -3.38687 2.50737 0
M  V30 1171 H 107.487 -2.91435 1.4088 0
M  V30 1172 H 106.394 -1.65584 3.35459 0
M  V30 1173 H 107.727 -2.19621 4.40486 0
M  V30 1174 N 109.379 -1.50304 -0.473955 0
M  V30 1175 C 110.656 -1.51667 -1.23518 0
M  V30 1176 C 111.036 -0.259701 -2.09496 0
M  V30 1177 O 110.384 0.756986 -2.15597 0
M  V30 1178 C 110.594 -2.81082 -2.06868 0
M  V30 1179 C 111.942 -3.31631 -2.65153 0
M  V30 1180 O 112.966 -2.82384 -2.17113 0
M  V30 1181 O 111.825 -4.17471 -3.52675 0
M  V30 1182 H 108.919 -0.60822 -0.560355 0
M  V30 1183 H 111.465 -1.62592 -0.486011 0
M  V30 1184 H 110.237 -3.64041 -1.4349 0
M  V30 1185 H 109.86 -2.73146 -2.88924 0
M  V30 1186 N 110.857 0.726932 -1.39834 0
M  V30 1187 C 112.085 1.51613 -1.40787 0
M  V30 1188 C 112.5 1.88799 -0.00451505 0
M  V30 1189 O 111.857 1.54662 0.968809 0
M  V30 1190 C 111.908 2.79863 -2.28821 0
M  V30 1191 O 111.629 2.44253 -3.63692 0
M  V30 1192 C 113.13 3.73837 -2.38245 0
M  V30 1193 H 110.35 0.468264 -0.480593 0
M  V30 1194 H 112.894 0.897607 -1.83748 0
M  V30 1195 H 111.049 3.38027 -1.89252 0
M  V30 1196 H 111.463 3.26695 -4.1033 0
M  V30 1197 H 112.937 4.60699 -3.04073 0
M  V30 1198 H 113.414 4.16153 -1.40403 0
M  V30 1199 H 114.02 3.21589 -2.78317 0
M  V30 1200 N 112.336 1.25143 0.95797 0
M  V30 1201 C 113.299 1.05321 2.03569 0
M  V30 1202 C 114.299 0.007152 1.60798 0
M  V30 1203 O 115.489 0.24903 1.72411 0
M  V30 1204 C 112.621 0.598394 3.35607 0
M  V30 1205 H 113.814 2.00986 2.22586 0
M  V30 1206 H 111.367 1.07502 1.13459 0
M  V30 1207 H 112.102 -0.361014 3.22284 0
M  V30 1208 H 111.887 1.35351 3.67998 0
M  V30 1209 H 113.377 0.48104 4.1482 0
M  V30 1210 N 113.814 -1.1601 1.06675 0
M  V30 1211 C 115.044 -1.90251 0.805497 0
M  V30 1212 C 115.452 -1.77891 -0.64431 0
M  V30 1213 O 114.795 -1.12383 -1.45313 0
M  V30 1214 C 114.857 -3.41419 1.12576 0
M  V30 1215 C 114.521 -3.77564 2.57477 0
M  V30 1216 C 115.518 -3.79161 3.55715 0
M  V30 1217 C 113.203 -4.08079 2.92877 0
M  V30 1218 C 115.197 -4.10767 4.8739 0
M  V30 1219 C 112.884 -4.39351 4.24751 0
M  V30 1220 C 113.882 -4.40675 5.21818 0
M  V30 1221 O 113.57 -4.71202 6.51325 0
M  V30 1222 H 113.302 -0.610018 0.291297 0
M  V30 1223 H 115.856 -1.47958 1.4247 0
M  V30 1224 H 114.086 -3.84079 0.449503 0
M  V30 1225 H 115.775 -3.9694 0.84814 0
M  V30 1226 H 116.541 -3.55693 3.29708 0
M  V30 1227 H 112.42 -4.06211 2.17976 0
M  V30 1228 H 115.964 -4.11715 5.63148 0
M  V30 1229 H 111.861 -4.62285 4.50514 0
M  V30 1230 H 112.629 -4.88996 6.56373 0
M  V30 1231 N 115.292 -0.849877 -1.32721 0
M  V30 1232 C 116.517 -0.463856 -2.02146 0
M  V30 1233 C 116.942 0.930449 -1.63476 0
M  V30 1234 O 116.3 1.61033 -0.832952 0
M  V30 1235 C 116.348 -0.604955 -3.55489 0
M  V30 1236 O 115.452 0.36425 -4.10788 0
M  V30 1237 H 114.793 -0.187046 -0.637111 0
M  V30 1238 H 117.323 -1.14775 -1.69375 0
M  V30 1239 H 117.333 -0.490696 -4.05038 0
M  V30 1240 H 116.008 -1.62174 -3.82978 0
M  V30 1241 H 114.585 0.206628 -3.72327 0
M  V30 1242 N 116.77 1.45427 -0.607355 0
M  V30 1243 C 118 2.06314 -0.108656 0
M  V30 1244 C 118.408 1.45269 1.21217 0
M  V30 1245 O 117.751 0.561115 1.74921 0
M  V30 1246 C 117.813 3.59345 0.105618 0
M  V30 1247 C 117.477 4.42723 -1.13337 0
M  V30 1248 C 118.474 4.77715 -2.05145 0
M  V30 1249 C 116.159 4.83478 -1.36213 0
M  V30 1250 C 118.153 5.52317 -3.18158 0
M  V30 1251 C 115.84 5.57835 -2.49527 0
M  V30 1252 C 116.838 5.92171 -3.40327 0
M  V30 1253 O 116.526 6.65019 -4.51669 0
M  V30 1254 H 116.258 0.672782 -0.0658842 0
M  V30 1255 H 118.812 1.87664 -0.834945 0
M  V30 1256 H 117.042 3.76394 0.886796 0
M  V30 1257 H 118.731 4.02076 0.555886 0
M  V30 1258 H 119.497 4.46787 -1.88697 0
M  V30 1259 H 115.376 4.56188 -0.664362 0
M  V30 1260 H 118.92 5.79036 -3.89054 0
M  V30 1261 H 114.817 5.88177 -2.65928 0
M  V30 1262 H 115.585 6.83469 -4.50348 0
M  V30 1263 N 118.248 0.346503 1.53744 0
M  V30 1264 C 119.195 -0.508914 2.25119 0
M  V30 1265 C 120.165 -1.09315 1.25058 0
M  V30 1266 O 121.35 -1.12921 1.53797 0
M  V30 1267 C 118.49 -1.65246 3.02965 0
M  V30 1268 C 117.603 -1.09525 4.17886 0
M  V30 1269 C 116.738 -2.20634 4.83212 0
M  V30 1270 C 115.777 -1.62279 5.90196 0
M  V30 1271 N 114.914 -2.67143 6.49291 0
M  V30 1272 H 119.754 0.106283 2.9781 0
M  V30 1273 H 117.291 0.0642227 1.4696 0
M  V30 1274 H 119.249 -2.32574 3.4636 0
M  V30 1275 H 117.879 -2.2386 2.32565 0
M  V30 1276 H 116.931 -0.312818 3.79112 0
M  V30 1277 H 118.243 -0.628444 4.94825 0
M  V30 1278 H 117.397 -2.95821 5.29693 0
M  V30 1279 H 116.136 -2.70659 4.05703 0
M  V30 1280 H 115.141 -0.855989 5.43096 0
M  V30 1281 H 116.366 -1.13102 6.69615 0
M  V30 1282 H 114.312 -3.16417 5.74645 0
M  V30 1283 H 114.229 -2.25093 7.21713 0
M  V30 1284 H 115.497 -3.4209 7.00425 0
M  V30 1285 N 119.726 -1.57421 0.075193 0
M  V30 1286 C 120.689 -2.11791 -0.876203 0
M  V30 1287 C 121.689 -1.04268 -1.22412 0
M  V30 1288 O 122.879 -1.30242 -1.15684 0
M  V30 1289 C 120.011 -2.62207 -2.17854 0
M  V30 1290 H 121.204 -2.9716 -0.40444 0
M  V30 1291 H 118.757 -1.55333 -0.173557 0
M  V30 1292 H 119.492 -1.803 -2.6956 0
M  V30 1293 H 119.277 -3.40802 -1.93897 0
M  V30 1294 H 120.767 -3.04335 -2.85955 0
M  V30 1295 N 121.204 0.198386 -1.56346 0
M  V30 1296 C 122.62 0.549085 -1.49857 0
M  V30 1297 C 122.82 1.86016 -0.774611 0
M  V30 1298 O 121.876 2.50416 -0.323776 0
M  V30 1299 C 123.189 0.606868 -2.94512 0
M  V30 1300 C 124.737 0.695925 -3.05165 0
M  V30 1301 C 125.212 0.784848 -4.51225 0
M  V30 1302 N 126.703 0.848463 -4.55363 0
M  V30 1303 C 127.438 0.937378 -5.65686 0
M  V30 1304 N 126.934 0.9888 -6.85707 0
M  V30 1305 N 128.727 0.974312 -5.53592 0
M  V30 1306 H 120.878 -0.661655 -2.01831 0
M  V30 1307 H 123.141 -0.235261 -0.918344 0
M  V30 1308 H 122.847 -0.28732 -3.50524 0
M  V30 1309 H 122.721 1.46268 -3.47686 0
M  V30 1310 H 125.108 1.58055 -2.49204 0
M  V30 1311 H 125.189 -0.186022 -2.55123 0
M  V30 1312 H 124.833 -0.0954072 -5.0781 0
M  V30 1313 H 124.763 1.68255 -4.98997 0
M  V30 1314 H 127.254 0.818103 -3.68938 0
M  V30 1315 H 127.567 1.05707 -7.65536 0
M  V30 1316 H 125.912 0.957534 -6.88372 0
M  V30 1317 H 129.103 0.930954 -4.58749 0
M  V30 1318 H 129.276 1.04015 -6.39597 0
M  V30 1319 N 122.682 1.50554 0.465978 0
M  V30 1320 C 123.929 1.61798 1.21768 0
M  V30 1321 C 124.257 0.320696 1.91838 0
M  V30 1322 O 123.512 -0.693724 1.82992 0
M  V30 1323 C 123.811 2.75152 2.28093 0
M  V30 1324 C 123.477 4.15454 1.75239 0
M  V30 1325 C 122.139 4.53628 1.60546 0
M  V30 1326 C 124.491 5.03121 1.36083 0
M  V30 1327 C 121.819 5.77204 1.05128 0
M  V30 1328 C 124.171 6.27249 0.821056 0
M  V30 1329 C 122.835 6.64221 0.660795 0
M  V30 1330 H 122.105 0.592063 0.445582 0
M  V30 1331 H 124.752 1.84503 0.512927 0
M  V30 1332 H 123.057 2.46556 3.04496 0
M  V30 1333 H 124.754 2.81055 2.86023 0
M  V30 1334 H 121.344 3.85341 1.87644 0
M  V30 1335 H 125.528 4.74257 1.46267 0
M  V30 1336 H 120.784 6.0452 0.91462 0
M  V30 1337 H 124.958 6.94537 0.509018 0
M  V30 1338 H 122.585 7.59854 0.229226 0
M  V30 1339 N 124.16 -0.719506 1.40217 0
M  V30 1340 C 125.388 -1.50864 1.41589 0
M  V30 1341 C 125.803 -1.88794 0.0145275 0
M  V30 1342 O 125.16 -1.55174 -0.960594 0
M  V30 1343 C 125.211 -2.78646 2.30302 0
M  V30 1344 O 124.932 -2.42321 3.64983 0
M  V30 1345 C 126.433 -3.72569 2.40224 0
M  V30 1346 H 123.653 -0.465709 0.48307 0
M  V30 1347 H 126.197 -0.88785 1.84221 0
M  V30 1348 H 124.352 -3.37019 1.91042 0
M  V30 1349 H 124.766 -3.24514 4.12057 0
M  V30 1350 H 126.24 -4.5908 3.06512 0
M  V30 1351 H 126.717 -4.15403 1.42608 0
M  V30 1352 H 127.323 -3.20109 2.80019 0
M  V30 1353 N 125.638 -1.25649 -0.95132 0
M  V30 1354 C 126.568 -1.08808 -2.06599 0
M  V30 1355 C 127.549 0.00382547 -1.701 0
M  V30 1356 O 128.734 -0.166325 -1.93486 0
M  V30 1357 C 125.864 -0.709542 -3.39975 0
M  V30 1358 C 124.818 -1.75206 -3.90496 0
M  V30 1359 C 124.144 -1.22811 -5.20405 0
M  V30 1360 C 125.444 -3.15153 -4.16504 0
M  V30 1361 H 127.138 -2.02048 -2.20946 0
M  V30 1362 H 124.684 -0.972835 -1.06169 0
M  V30 1363 H 126.637 -0.578649 -4.17408 0
M  V30 1364 H 125.361 0.258556 -3.25575 0
M  V30 1365 H 124.02 -1.87145 -3.15234 0
M  V30 1366 H 123.668 -0.250145 -5.02378 0
M  V30 1367 H 123.368 -1.92492 -5.55176 0
M  V30 1368 H 124.892 -1.10968 -6.00432 0
M  V30 1369 H 126.306 -3.06349 -4.84586 0
M  V30 1370 H 124.703 -3.82333 -4.62538 0
M  V30 1371 H 125.773 -3.61966 -3.22658 0
M  V30 1372 N 127.117 1.15442 -1.07289 0
M  V30 1373 C 128.08 2.18358 -0.696591 0
M  V30 1374 C 129.08 1.58637 0.262837 0
M  V30 1375 O 130.27 1.74145 0.0438809 0
M  V30 1376 C 127.402 3.4089 -0.0266151 0
M  V30 1377 H 128.595 2.53162 -1.60776 0
M  V30 1378 H 126.148 1.29893 -0.869342 0
M  V30 1379 H 126.883 3.11653 0.896822 0
M  V30 1380 H 126.668 3.85495 -0.716657 0
M  V30 1381 H 128.158 4.17009 0.222028 0
M  V30 1382 N 128.595 0.856903 1.32268 0
M  V30 1383 C 129.841 0.462069 1.97466 0
M  V30 1384 C 130.174 -0.980298 1.67642 0
M  V30 1385 O 129.449 -1.68824 0.965858 0
M  V30 1386 C 129.732 0.704336 3.53145 0
M  V30 1387 C 129.585 2.19529 3.9259 0
M  V30 1388 C 130.904 0.1622 4.39801 0
M  V30 1389 H 128.023 0.169357 0.717278 0
M  V30 1390 H 130.665 1.07574 1.56614 0
M  V30 1391 H 128.815 0.181999 3.88073 0
M  V30 1392 H 130.487 2.78387 3.67829 0
M  V30 1393 H 128.73 2.67292 3.41668 0
M  V30 1394 H 129.401 2.31549 5.01088 0
M  V30 1395 H 131.877 0.608905 4.11621 0
M  V30 1396 H 130.753 0.361265 5.4771 0
M  V30 1397 H 131.014 -0.935158 4.32096 0
M  V30 1398 N 130.073 -1.45103 0.615059 0
M  V30 1399 C 131.321 -2.01784 0.112955 0
M  V30 1400 C 131.642 -1.48504 -1.26378 0
M  V30 1401 O 130.912 -0.682245 -1.83636 0
M  V30 1402 H 129.492 -0.745993 0.0387668 0
M  V30 1403 H 132.154 -1.77808 0.798141 0
M  V30 1404 H 131.25 -3.12025 0.0684069 0
M  V30 1405 N 131.551 -0.354651 -1.53558 0
M  V30 1406 C 132.828 0.294281 -1.93374 0
M  V30 1407 C 133.208 1.67313 -1.28723 0
M  V30 1408 O 132.556 2.24179 -0.442247 0
M  V30 1409 C 132.766 0.355445 -3.47185 0
M  V30 1410 C 134.114 0.601007 -4.20325 0
M  V30 1411 O 135.138 0.437106 -3.53508 0
M  V30 1412 O 133.997 0.919322 -5.38712 0
M  V30 1413 H 131.091 0.174033 -0.808481 0
M  V30 1414 H 133.637 -0.406638 -1.64756 0
M  V30 1415 H 132.409 -0.611729 -3.86489 0
M  V30 1416 H 132.032 1.1027 -3.82003 0
M  V30 1417 N 133.029 1.57378 -0.0835403 0
M  V30 1418 C 133.977 2.14602 0.89714 0
M  V30 1419 C 134.971 1.08589 1.30018 0
M  V30 1420 O 136.177 1.26952 1.27606 0
M  V30 1421 H 132.552 0.686346 0.3073 0
M  V30 1422 H 134.523 2.95845 0.38969 0
M  V30 1423 C 133.272 2.73188 2.15089 0
M  V30 1424 H 132.595 3.54442 1.84962 0
M  V30 1425 H 134.035 3.1681 2.81793 0
M  V30 1426 C 132.494 1.68517 2.91725 0
M  V30 1427 O 133.024 1.11718 3.85852 0
M  V30 1428 N 131.23 1.39277 2.55049 0
M  V30 1429 H 130.777 1.85655 1.78577 0
M  V30 1430 H 130.735 0.694791 3.06627 0
M  V30 1431 N 134.507 -0.190092 1.56449 0
M  V30 1432 C 135.923 -0.54113 1.50146 0
M  V30 1433 C 136.123 -1.85603 0.784465 0
M  V30 1434 O 135.179 -2.5024 0.337051 0
M  V30 1435 C 136.492 -0.591241 2.9483 0
M  V30 1436 C 138.04 -0.679732 3.0553 0
M  V30 1437 C 138.515 -0.760908 4.51635 0
M  V30 1438 N 140.006 -0.824302 4.55806 0
M  V30 1439 C 140.741 -0.907365 5.66175 0
M  V30 1440 N 140.237 -0.952422 6.86222 0
M  V30 1441 N 142.03 -0.94494 5.541 0
M  V30 1442 H 134.181 0.67235 2.01478 0
M  V30 1443 H 136.444 0.240127 0.917084 0
M  V30 1444 H 136.15 0.305905 3.50367 0
M  V30 1445 H 136.024 -1.44422 3.48457 0
M  V30 1446 H 138.411 -1.56731 2.50039 0
M  V30 1447 H 138.492 0.199549 2.5502 0
M  V30 1448 H 138.136 0.122336 5.07753 0
M  V30 1449 H 138.066 -1.65606 4.99882 0
M  V30 1450 H 140.557 -0.798526 3.69367 0
M  V30 1451 H 140.87 -1.01645 7.66086 0
M  V30 1452 H 139.215 -0.921014 6.8887 0
M  V30 1453 H 142.406 -0.906612 4.59236 0
M  V30 1454 H 142.579 -1.00622 6.4014 0
M  V30 1455 N 135.985 -1.50799 -0.457987 0
M  V30 1456 C 137.231 -1.62683 -1.21088 0
M  V30 1457 C 137.564 -0.332268 -1.91336 0
M  V30 1458 O 136.839 0.667043 -1.82704 0
M  V30 1459 C 137.122 -2.81615 -2.24422 0
M  V30 1460 C 136.975 -4.20989 -1.58392 0
M  V30 1461 C 138.294 -2.96085 -3.2561 0
M  V30 1462 H 135.413 -0.592087 -0.438864 0
M  V30 1463 H 138.055 -1.83225 -0.50286 0
M  V30 1464 H 136.205 -2.64231 -2.84806 0
M  V30 1465 H 137.877 -4.49994 -1.01504 0
M  V30 1466 H 136.12 -4.24641 -0.886704 0
M  V30 1467 H 136.791 -5.0016 -2.33547 0
M  V30 1468 H 139.267 -3.12042 -2.75262 0
M  V30 1469 H 138.143 -3.80902 -3.95228 0
M  V30 1470 H 138.404 -2.0726 -3.90507 0
M  V30 1471 N 137.463 0.71206 -1.40597 0
M  V30 1472 C 138.393 1.83889 -1.43899 0
M  V30 1473 C 139.374 1.67442 -0.299504 0
M  V30 1474 O 140.559 1.87421 -0.508624 0
M  V30 1475 C 137.689 3.21877 -1.30431 0
M  V30 1476 C 136.643 3.53002 -2.42019 0
M  V30 1477 C 135.969 4.90172 -2.13626 0
M  V30 1478 C 137.269 3.53643 -3.84362 0
M  V30 1479 H 138.963 1.81383 -2.38203 0
M  V30 1480 H 136.509 0.871237 -1.14654 0
M  V30 1481 H 138.462 4.00404 -1.31357 0
M  V30 1482 H 137.186 3.24968 -0.326049 0
M  V30 1483 H 135.845 2.76818 -2.40349 0
M  V30 1484 H 135.493 4.89869 -1.14182 0
M  V30 1485 H 135.193 5.11962 -2.88389 0
M  V30 1486 H 136.717 5.71028 -2.1624 0
M  V30 1487 H 138.131 4.22203 -3.87837 0
M  V30 1488 H 136.528 3.86961 -4.58673 0
M  V30 1489 H 137.598 2.52954 -4.13693 0
M  V30 1490 N 138.941 1.26152 0.944643 0
M  V30 1491 C 140.218 1.02247 1.66748 0
M  V30 1492 C 140.598 -0.448202 2.06287 0
M  V30 1493 O 139.946 -1.42779 1.78399 0
M  V30 1494 C 140.156 1.96788 2.88228 0
M  V30 1495 C 141.504 2.25201 3.59958 0
M  V30 1496 O 142.528 1.94626 2.98327 0
M  V30 1497 O 141.387 2.77242 4.70956 0
M  V30 1498 H 138.481 0.388517 0.730057 0
M  V30 1499 H 141.027 1.37348 0.99668 0
M  V30 1500 H 139.799 2.96047 2.55875 0
M  V30 1501 H 139.422 1.62145 3.63035 0
M  V30 1502 N 140.419 -1.14872 1.07899 0
M  V30 1503 C 141.352 -2.18794 0.64841 0
M  V30 1504 C 142.33 -1.59065 -0.337189 0
M  V30 1505 O 143.514 -1.86936 -0.242284 0
M  V30 1506 C 140.641 -3.38667 -0.0470417 0
M  V30 1507 C 139.687 -4.16942 0.897884 0
M  V30 1508 S 140.52 -4.78615 2.40183 0
M  V30 1509 C 141.676 -6.0185 1.71834 0
M  V30 1510 H 141.909 -2.5498 1.52881 0
M  V30 1511 H 139.442 -1.25922 0.893484 0
M  V30 1512 H 141.4 -4.08113 -0.442027 0
M  V30 1513 H 140.061 -3.00814 -0.903861 0
M  V30 1514 H 139.254 -5.02726 0.358096 0
M  V30 1515 H 138.856 -3.53073 1.23352 0
M  V30 1516 H 141.148 -6.69574 1.03328 0
M  V30 1517 H 142.091 -6.60408 2.55473 0
M  V30 1518 H 142.499 -5.5173 1.19392 0
M  V30 1519 N 141.898 -0.863906 -1.31812 0
M  V30 1520 C 142.861 -0.320212 -2.26952 0
M  V30 1521 C 143.861 0.525369 -1.51975 0
M  V30 1522 O 145.051 0.335547 -1.70938 0
M  V30 1523 C 142.183 0.545919 -3.365 0
M  V30 1524 H 143.376 -1.16004 -2.76556 0
M  V30 1525 H 140.929 -0.638995 -1.42641 0
M  V30 1526 H 141.664 1.40718 -2.92179 0
M  V30 1527 H 141.449 -0.0594674 -3.92055 0
M  V30 1528 H 142.939 0.918796 -4.07367 0
M  V30 1529 N 143.376 1.44774 -0.622745 0
M  V30 1530 C 144.601 2.06999 -0.128968 0
M  V30 1531 C 145.026 1.4617 1.1839 0
M  V30 1532 O 144.384 0.560007 1.72434 0
M  V30 1533 C 144.432 3.60595 -0.0188351 0
M  V30 1534 O 143.536 3.99398 1.02739 0
M  V30 1535 H 142.877 0.659047 -0.0809544 0
M  V30 1536 H 145.407 1.85784 -0.85705 0
M  V30 1537 H 145.417 4.07627 0.174476 0
M  V30 1538 H 144.092 4.04252 -0.977384 0
M  V30 1539 H 142.669 3.64011 0.809326 0
M  V30 1540 N 144.854 0.36279 1.53368 0
M  V30 1541 C 146.082 -0.228613 2.05633 0
M  V30 1542 C 146.497 -1.42676 1.23649 0
M  V30 1543 O 145.854 -1.80394 0.27647 0
M  V30 1544 C 145.905 -0.624845 3.56059 0
M  V30 1545 O 145.626 0.525675 4.34935 0
M  V30 1546 C 147.127 -1.27493 4.24571 0
M  V30 1547 H 144.347 -0.0407183 0.669763 0
M  V30 1548 H 146.891 0.520352 1.97769 0
M  V30 1549 H 145.046 -1.32373 3.64083 0
M  V30 1550 H 145.46 0.205969 5.24095 0
M  V30 1551 H 146.934 -1.50277 5.31151 0
M  V30 1552 H 147.411 -2.23439 3.78116 0
M  V30 1553 H 148.017 -0.617558 4.20792 0
M  V30 1554 N 146.332 -1.57332 0.0918853 0
M  V30 1555 C 147.562 -1.98286 -0.580205 0
M  V30 1556 C 147.97 -0.969713 -1.6246 0
M  V30 1557 O 147.313 0.0493501 -1.83634 0
M  V30 1558 C 147.375 -3.35603 -1.28882 0
M  V30 1559 C 147.039 -4.55285 -0.395559 0
M  V30 1560 C 148.036 -5.18687 0.355002 0
M  V30 1561 C 145.721 -5.01314 -0.314556 0
M  V30 1562 C 147.715 -6.26484 1.17458 0
M  V30 1563 C 145.402 -6.08979 0.508677 0
M  V30 1564 C 146.4 -6.71429 1.2519 0
M  V30 1565 O 146.088 -7.77018 2.06151 0
M  V30 1566 H 145.82 -0.656678 -0.160466 0
M  V30 1567 H 148.374 -2.04721 0.16688 0
M  V30 1568 H 146.604 -3.25842 -2.08241 0
M  V30 1569 H 148.293 -3.61026 -1.85512 0
M  V30 1570 H 149.059 -4.84058 0.302134 0
M  V30 1571 H 144.938 -4.5247 -0.882697 0
M  V30 1572 H 148.482 -6.75159 1.75518 0
M  V30 1573 H 144.379 -6.4304 0.563037 0
M  V30 1574 H 145.147 -7.93991 1.98799 0
M  V30 1575 N 147.81 0.181792 -1.56548 0
M  V30 1576 C 149.057 0.900097 -1.81396 0
M  V30 1577 C 149.385 1.82695 -0.667281 0
M  V30 1578 O 148.64 1.92614 0.346146 0
M  V30 1579 C 148.939 1.73728 -3.12335 0
M  V30 1580 C 148.605 0.960255 -4.40556 0
M  V30 1581 C 147.267 0.745766 -4.75386 0
M  V30 1582 C 149.619 0.414477 -5.19549 0
M  V30 1583 C 146.947 -0.0257694 -5.86694 0
M  V30 1584 C 149.299 -0.343916 -6.31664 0
M  V30 1585 C 147.963 -0.569301 -6.65068 0
M  V30 1586 H 147.233 0.329369 -0.663775 0
M  V30 1587 H 149.88 0.165647 -1.90782 0
M  V30 1588 H 148.185 2.54081 -2.98245 0
M  V30 1589 H 149.882 2.29591 -3.28769 0
M  V30 1590 H 146.472 1.13746 -4.13231 0
M  V30 1591 H 150.656 0.567554 -4.93044 0
M  V30 1592 H 145.912 -0.210233 -6.11038 0
M  V30 1593 H 150.086 -0.774133 -6.92084 0
M  V30 1594 H 147.713 -1.16903 -7.51158 0
M  V30 1595 N 149.288 1.51039 0.449983 0
M  V30 1596 C 150.565 1.53612 1.21089 0
M  V30 1597 C 150.945 0.292997 2.09057 0
M  V30 1598 O 150.293 -0.72259 2.16774 0
M  V30 1599 C 150.503 2.84337 2.0237 0
M  V30 1600 C 151.851 3.35807 2.59843 0
M  V30 1601 O 152.875 2.85802 2.12593 0
M  V30 1602 O 151.734 4.23029 3.45989 0
M  V30 1603 H 148.828 0.617057 0.550608 0
M  V30 1604 H 151.374 1.63344 0.460082 0
M  V30 1605 H 150.146 3.66278 1.37681 0
M  V30 1606 H 149.769 2.77708 2.84542 0
M  V30 1607 N 150.766 -0.704594 1.40972 0
M  V30 1608 C 152.015 -1.46018 1.39146 0
M  V30 1609 C 152.328 -1.956 0.000589254 0
M  V30 1610 O 153.534 -2.71137 -0.1403 0
M  V30 1611 C 151.99 -2.63996 2.4461 0
M  V30 1612 C 151.598 -2.21238 3.89561 0
M  V30 1613 C 153.342 -3.41677 2.51907 0
M  V30 1614 C 151.249 -3.3612 4.86598 0
M  V30 1615 H 150.179 -0.548444 0.517422 0
M  V30 1616 H 152.83 -0.765784 1.66757 0
M  V30 1617 H 151.212 -3.3566 2.10115 0
M  V30 1618 H 152.386 -1.56923 4.33257 0
M  V30 1619 H 150.701 -1.56574 3.85841 0
M  V30 1620 H 153.298 -4.27182 3.2159 0
M  V30 1621 H 153.641 -3.86247 1.55303 0
M  V30 1622 H 154.174 -2.77064 2.85448 0
M  V30 1623 H 150.913 -2.96572 5.84573 0
M  V30 1624 H 150.433 -3.99315 4.47557 0
M  V30 1625 H 152.112 -4.02029 5.06934 0
M  V30 1626 N 152.244 -1.26651 -0.937939 0
M  V30 1627 C 153.66 -1.03834 -1.21205 0
M  V30 1628 C 153.86 0.234502 -2.00131 0
M  V30 1629 O 152.916 0.942767 -2.3424 0
M  V30 1630 C 154.229 -2.27167 -1.97017 0
M  V30 1631 C 155.777 -2.32101 -2.09996 0
M  V30 1632 C 156.252 -3.55136 -2.8921 0
M  V30 1633 N 157.743 -3.55632 -2.96783 0
M  V30 1634 C 158.478 -4.475 -3.58512 0
M  V30 1635 N 157.974 -5.4966 -4.21717 0
M  V30 1636 N 159.767 -4.35145 -3.55816 0
M  V30 1637 H 151.918 -2.08398 -0.410391 0
M  V30 1638 H 154.181 -0.916031 -0.244114 0
M  V30 1639 H 153.887 -3.19765 -1.46434 0
M  V30 1640 H 153.761 -2.31672 -2.97671 0
M  V30 1641 H 156.148 -1.40015 -2.59769 0
M  V30 1642 H 156.229 -2.31605 -1.08594 0
M  V30 1643 H 155.873 -4.47553 -2.40123 0
M  V30 1644 H 155.803 -3.5288 -3.90875 0
M  V30 1645 H 158.294 -2.81743 -2.51852 0
M  V30 1646 H 158.607 -6.15943 -4.66727 0
M  V30 1647 H 156.952 -5.53514 -4.20294 0
M  V30 1648 H 160.143 -3.5455 -3.05634 0
M  V30 1649 H 160.316 -5.06934 -4.03636 0
M  V30 1650 N 153.722 1.14298 -1.08507 0
M  V30 1651 C 154.97 1.84993 -0.813763 0
M  V30 1652 C 155.291 1.83405 0.662393 0
M  V30 1653 O 154.561 1.28319 1.48024 0
M  V30 1654 H 153.141 0.684966 -0.298045 0
M  V30 1655 H 155.803 1.385 -1.37126 0
M  V30 1656 H 154.899 2.89788 -1.15884 0
M  V30 1657 N 155.201 0.870884 1.31352 0
M  V30 1658 C 156.447 0.482987 1.96965 0
M  V30 1659 C 156.78 -0.962462 1.68672 0
M  V30 1660 O 156.055 -1.6779 0.98371 0
M  V30 1661 C 156.338 0.741752 3.52378 0
M  V30 1662 C 156.191 2.2368 3.9024 0
M  V30 1663 C 157.51 0.208838 4.39604 0
M  V30 1664 H 154.629 0.176955 0.715441 0
M  V30 1665 H 157.271 1.09229 1.55464 0
M  V30 1666 H 155.421 0.223149 3.87859 0
M  V30 1667 H 157.093 2.82273 3.64856 0
M  V30 1668 H 155.336 2.70901 3.38814 0
M  V30 1669 H 156.007 2.3685 4.98604 0
M  V30 1670 H 158.483 0.652529 4.10952 0
M  V30 1671 H 157.359 0.419336 5.47296 0
M  V30 1672 H 157.62 -0.889275 4.33064 0
M  V30 1673 N 156.679 -1.44442 0.630414 0
M  V30 1674 C 157.609 -2.33418 -0.0618083 0
M  V30 1675 C 158.59 -1.48165 -0.835541 0
M  V30 1676 O 159.775 -1.76886 -0.801564 0
M  V30 1677 C 156.905 -3.31222 -1.04449 0
M  V30 1678 C 155.859 -4.26288 -0.382436 0
M  V30 1679 C 155.185 -5.13954 -1.47497 0
M  V30 1680 C 156.485 -5.1744 0.710865 0
M  V30 1681 H 158.179 -2.91548 0.681184 0
M  V30 1682 H 155.725 -1.40191 0.329026 0
M  V30 1683 H 157.678 -3.92351 -1.53748 0
M  V30 1684 H 156.402 -2.71299 -1.81836 0
M  V30 1685 H 155.061 -3.6649 0.0899054 0
M  V30 1686 H 154.709 -4.50385 -2.2397 0
M  V30 1687 H 154.409 -5.7837 -1.03737 0
M  V30 1688 H 155.933 -5.77955 -1.96979 0
M  V30 1689 H 157.347 -5.72509 0.300996 0
M  V30 1690 H 155.744 -5.90455 1.07156 0
M  V30 1691 H 156.814 -4.58496 1.57829 0
M  V30 1692 N 158.157 -0.370918 -1.53173 0
M  V30 1693 C 159.434 0.273754 -1.93675 0
M  V30 1694 C 159.814 1.65938 -1.3049 0
M  V30 1695 O 159.162 2.23698 -0.465999 0
M  V30 1696 C 159.372 0.318602 -3.47543 0
M  V30 1697 C 160.72 0.556392 -4.20939 0
M  V30 1698 O 161.744 0.399587 -3.53952 0
M  V30 1699 O 160.603 0.862133 -5.39657 0
M  V30 1700 H 157.697 0.165448 -0.810281 0
M  V30 1701 H 160.243 -0.42409 -1.64315 0
M  V30 1702 H 159.015 -0.652687 -3.85818 0
M  V30 1703 H 158.638 1.06212 -3.83151 0
M  V30 1704 N 159.635 1.57281 -0.100228 0
M  V30 1705 C 161.051 1.57527 0.256416 0
M  V30 1706 C 161.251 1.11173 1.68056 0
M  V30 1707 O 160.307 0.79053 2.39806 0
M  V30 1708 C 161.62 3.00673 0.0401747 0
M  V30 1709 C 163.168 3.12815 0.107528 0
M  V30 1710 C 163.643 4.57929 -0.0807834 0
M  V30 1711 N 165.134 4.63193 -0.0261207 0
M  V30 1712 C 165.869 5.73212 -0.146999 0
M  V30 1713 N 165.365 6.92047 -0.322999 0
M  V30 1714 N 167.158 5.62031 -0.0879044 0
M  V30 1715 H 159.309 1.85718 -1.03065 0
M  V30 1716 H 161.572 0.857446 -0.404339 0
M  V30 1717 H 161.278 3.38804 -0.943649 0
M  V30 1718 H 161.152 3.69042 0.780262 0
M  V30 1719 H 163.539 2.74554 1.08186 0
M  V30 1720 H 163.62 2.47028 -0.664134 0
M  V30 1721 H 163.264 4.96886 -1.05201 0
M  V30 1722 H 163.194 5.21783 0.710635 0
M  V30 1723 H 165.685 3.77748 0.107161 0
M  V30 1724 H 165.998 7.7173 -0.406608 0
M  V30 1725 H 164.343 6.94074 -0.358733 0
M  V30 1726 H 167.534 4.68075 0.048498 0
M  V30 1727 H 167.707 6.47734 -0.185557 0
M  V30 1728 N 161.113 -0.173488 1.56642 0
M  V30 1729 C 162.361 -0.888706 1.81512 0
M  V30 1730 C 162.682 -1.82875 0.676872 0
M  V30 1731 O 161.952 -1.93536 -0.303414 0
M  V30 1732 H 160.532 -0.331164 0.669582 0
M  V30 1733 H 163.194 -0.173823 1.94123 0
M  V30 1734 H 162.29 -1.46691 2.75478 0
M  V30 1735 N 162.591 -1.51276 -0.441967 0
M  V30 1736 C 164.002 -1.56244 -1.02199 0
M  V30 1737 C 164.353 -0.383149 -1.92422 0
M  V30 1738 O 163.478 0.500613 -2.1053 0
M  V30 1739 C 164.073 -2.83162 -1.86024 0
M  V30 1740 C 162.632 -2.90716 -2.39084 0
M  V30 1741 C 161.779 -2.50858 -1.18175 0
M  V30 1742 H 164.73 -1.5712 -0.223416 0
M  V30 1743 H 164.751 -2.66663 -2.71425 0
M  V30 1744 H 164.263 -3.68974 -1.20331 0
M  V30 1745 H 162.364 -2.09323 -3.08244 0
M  V30 1746 H 162.477 -3.94266 -2.72198 0
M  V30 1747 H 160.841 -2.03951 -1.52565 0
M  V30 1748 H 161.624 -3.3901 -0.541001 0
M  V30 1749 N 164.069 0.697108 -1.41344 0
M  V30 1750 C 165.297 1.48593 -1.43972 0
M  V30 1751 C 165.712 1.88747 -0.0445612 0
M  V30 1752 O 165.069 1.56682 0.935785 0
M  V30 1753 C 165.12 2.74946 -2.34706 0
M  V30 1754 O 164.841 2.36484 -3.68791 0
M  V30 1755 C 166.342 3.687 -2.46121 0
M  V30 1756 H 163.562 0.457964 -0.490418 0
M  V30 1757 H 166.106 0.858429 -1.8561 0
M  V30 1758 H 164.261 3.33937 -1.9638 0
M  V30 1759 H 164.675 3.17918 -4.17167 0
M  V30 1760 H 166.149 4.54145 -3.13777 0
M  V30 1761 H 166.626 4.13081 -1.49199 0
M  V30 1762 H 167.232 3.15613 -2.85076 0
M  V30 1763 N 165.547 1.27147 0.931209 0
M  V30 1764 C 166.794 1.13278 1.67852 0
M  V30 1765 C 167.122 -0.32204 1.91815 0
M  V30 1766 O 166.377 -1.25224 1.50391 0
M  V30 1767 C 166.676 1.8579 3.05314 0
M  V30 1768 C 166.342 3.35657 3.01073 0
M  V30 1769 C 165.004 3.76536 2.99623 0
M  V30 1770 C 167.356 4.31299 2.92627 0
M  V30 1771 C 164.684 5.11426 2.87506 0
M  V30 1772 C 167.036 5.66242 2.82051 0
M  V30 1773 C 165.7 6.06418 2.7895 0
M  V30 1774 H 164.97 0.414515 0.614214 0
M  V30 1775 H 167.617 1.57712 1.08624 0
M  V30 1776 H 165.922 1.33854 3.68226 0
M  V30 1777 H 167.619 1.72491 3.62005 0
M  V30 1778 H 164.209 3.03146 3.02986 0
M  V30 1779 H 168.393 4.00692 2.92848 0
M  V30 1780 H 163.649 5.41705 2.83489 0
M  V30 1781 H 167.823 6.40026 2.74481 0
M  V30 1782 H 165.45 7.10895 2.69318 0
M  V30 1783 N 167.025 -1.13721 1.09112 0
M  V30 1784 C 167.972 -2.19031 0.727591 0
M  V30 1785 C 168.942 -1.63555 -0.289656 0
M  V30 1786 O 170.127 -1.90023 -0.172026 0
M  V30 1787 C 167.267 -3.4477 0.15082 0
M  V30 1788 C 166.38 -4.14365 1.22172 0
M  V30 1789 C 165.515 -5.27709 0.608042 0
M  V30 1790 C 164.554 -5.89147 1.66047 0
M  V30 1791 N 163.691 -6.93929 1.06806 0
M  V30 1792 H 168.531 -2.49475 1.62991 0
M  V30 1793 H 166.068 -1.22499 0.81439 0
M  V30 1794 H 168.026 -4.16714 -0.201358 0
M  V30 1795 H 166.656 -3.14787 -0.714783 0
M  V30 1796 H 165.708 -3.40737 1.69122 0
M  V30 1797 H 167.02 -4.56114 2.01895 0
M  V30 1798 H 166.174 -6.06355 0.204523 0
M  V30 1799 H 164.913 -4.872 -0.220769 0
M  V30 1800 H 163.918 -5.09198 2.07357 0
M  V30 1801 H 165.143 -6.31729 2.49189 0
M  V30 1802 H 163.089 -6.55483 0.260476 0
M  V30 1803 H 163.006 -7.34202 1.8023 0
M  V30 1804 H 164.274 -7.76434 0.690644 0
M  V30 1805 N 168.503 -0.877838 -1.30888 0
M  V30 1806 C 169.914 -0.544193 -1.78593 0
M  V30 1807 C 170.265 0.939301 -1.72254 0
M  V30 1808 O 169.39 1.7337 -1.29505 0
M  V30 1809 C 169.985 -0.98105 -3.24285 0
M  V30 1810 C 168.544 -0.698935 -3.69854 0
M  V30 1811 C 167.691 -1.168 -2.51502 0
M  V30 1812 H 170.642 -1.06278 -1.17859 0
M  V30 1813 H 170.663 -0.307009 -3.79259 0
M  V30 1814 H 170.175 -2.06079 -3.28866 0
M  V30 1815 H 168.276 0.369112 -3.70767 0
M  V30 1816 H 168.389 -1.28148 -4.61644 0
M  V30 1817 H 166.753 -0.587535 -2.47831 0
M  V30 1818 H 167.536 -2.25533 -2.58824 0
M  V30 1819 N 169.982 1.44106 -0.638065 0
M  V30 1820 C 171.212 2.06037 -0.152394 0
M  V30 1821 C 171.62 1.47808 1.18108 0
M  V30 1822 O 170.963 0.598092 1.73691 0
M  V30 1823 C 171.025 3.59488 0.0293714 0
M  V30 1824 C 170.689 4.4022 -1.22702 0
M  V30 1825 C 171.686 4.73256 -2.15232 0
M  V30 1826 C 169.371 4.8048 -1.46437 0
M  V30 1827 C 171.365 5.45444 -3.29802 0
M  V30 1828 C 169.052 5.52417 -2.61303 0
M  V30 1829 C 170.05 5.84819 -3.52811 0
M  V30 1830 O 169.738 6.55289 -4.65673 0
M  V30 1831 H 169.47 0.671233 -0.0801401 0
M  V30 1832 H 172.024 1.85851 -0.874563 0
M  V30 1833 H 170.254 3.78191 0.806758 0
M  V30 1834 H 171.943 4.03164 0.470475 0
M  V30 1835 H 172.709 4.42684 -1.98131 0
M  V30 1836 H 168.588 4.54676 -0.760977 0
M  V30 1837 H 172.132 5.70653 -4.01249 0
M  V30 1838 H 168.029 5.82404 -2.78344 0
M  V30 1839 H 168.797 6.73762 -4.64744 0
M  V30 1840 N 171.46 0.379036 1.52974 0
M  V30 1841 C 172.685 -0.209353 2.06341 0
M  V30 1842 C 173.11 -1.40583 1.24972 0
M  V30 1843 O 172.468 -1.79246 0.272155 0
M  V30 1844 C 172.516 -0.567786 3.56102 0
M  V30 1845 O 171.62 -1.66318 3.77375 0
M  V30 1846 H 170.961 -0.0272919 0.663439 0
M  V30 1847 H 173.491 0.543536 1.97248 0
M  V30 1848 H 173.501 -0.835003 3.99364 0
M  V30 1849 H 172.176 0.307013 4.14765 0
M  V30 1850 H 170.753 -1.39048 3.46006 0
M  V30 1851 N 172.938 -1.57226 0.108567 0
M  V30 1852 C 174.186 -1.94448 -0.550853 0
M  V30 1853 C 174.507 -0.992074 -1.67878 0
M  V30 1854 O 173.777 -0.0465 -1.95845 0
M  V30 1855 H 172.357 -0.717897 -0.206479 0
M  V30 1856 H 175.019 -1.94112 0.175062 0
M  V30 1857 H 174.115 -2.97218 -0.952259 0
M  V30 1858 N 174.416 0.165178 -1.56732 0
M  V30 1859 C 175.644 0.896218 -1.86482 0
M  V30 1860 C 176.059 1.75555 -0.694675 0
M  V30 1861 O 175.416 1.79379 0.33607 0
M  V30 1862 C 175.467 1.76792 -3.1532 0
M  V30 1863 O 175.188 0.943239 -4.27825 0
M  V30 1864 C 176.689 2.6081 -3.58459 0
M  V30 1865 H 173.909 0.260064 -0.618553 0
M  V30 1866 H 176.453 0.163428 -2.03846 0
M  V30 1867 H 174.608 2.45398 -2.99764 0
M  V30 1868 H 175.022 1.53998 -5.01383 0
M  V30 1869 H 176.496 3.17579 -4.51495 0
M  V30 1870 H 176.973 3.35977 -2.82872 0
M  V30 1871 H 177.579 1.97526 -3.76648 0
M  V30 1872 N 175.894 1.51508 0.433938 0
M  V30 1873 C 176.857 1.72473 1.50949 0
M  V30 1874 C 177.857 0.594725 1.49398 0
M  V30 1875 O 179.047 0.862315 1.5136 0
M  V30 1876 C 176.179 1.78431 2.90474 0
M  V30 1877 H 177.372 2.68467 1.33662 0
M  V30 1878 H 174.925 1.41549 0.662836 0
M  V30 1879 H 175.66 0.842645 3.13161 0
M  V30 1880 H 175.445 2.60558 2.93005 0
M  V30 1881 H 176.935 1.96479 3.68491 0
M  V30 1882 N 177.372 -0.689602 1.41712 0
M  V30 1883 C 178.602 -1.47613 1.44548 0
M  V30 1884 C 179.01 -1.89132 0.0509034 0
M  V30 1885 O 178.353 -1.57741 -0.94146 0
M  V30 1886 C 178.415 -2.76596 2.2964 0
M  V30 1887 C 178.079 -2.57245 3.77722 0
M  V30 1888 C 179.076 -2.22804 4.69739 0
M  V30 1889 C 176.761 -2.727 4.2183 0
M  V30 1890 C 178.755 -2.04064 6.03851 0
M  V30 1891 C 176.442 -2.53576 5.56006 0
M  V30 1892 C 177.44 -2.1931 6.46832 0
M  V30 1893 O 177.128 -2.00359 7.78532 0
M  V30 1894 H 176.86 -0.461227 0.494212 0
M  V30 1895 H 179.414 -0.856045 1.86711 0
M  V30 1896 H 177.644 -3.41033 1.82301 0
M  V30 1897 H 179.333 -3.38424 2.24107 0
M  V30 1898 H 180.099 -2.10473 4.36951 0
M  V30 1899 H 175.978 -2.98353 3.51435 0
M  V30 1900 H 179.522 -1.77241 6.74708 0
M  V30 1901 H 175.419 -2.65499 5.88371 0
M  V30 1902 H 176.187 -2.15075 7.89737 0
M  V30 1903 N 178.85 -1.27639 -0.924453 0
M  V30 1904 C 179.798 -1.10485 -2.04685 0
M  V30 1905 C 180.792 -0.0270421 -1.69378 0
M  V30 1906 O 181.998 -0.185008 -1.79047 0
M  V30 1907 H 178.373 -0.340546 -0.670472 0
M  V30 1908 H 180.344 -2.05566 -2.16298 0
M  V30 1909 C 179.093 -0.772229 -3.39016 0
M  V30 1910 H 178.416 -1.59351 -3.66671 0
M  V30 1911 H 179.856 -0.692097 -4.18313 0
M  V30 1912 C 178.315 0.523554 -3.32807 0
M  V30 1913 O 178.845 1.55702 -3.70297 0
M  V30 1914 N 177.051 0.520363 -2.85903 0
M  V30 1915 H 176.598 -0.32107 -2.55591 0
M  V30 1916 H 176.556 1.38742 -2.82131 0
M  V30 1917 N 180.328 1.1314 -1.09713 0
M  V30 1918 C 181.291 2.16831 -0.742751 0
M  V30 1919 C 182.291 1.59159 0.229129 0
M  V30 1920 O 183.481 1.74199 0.00693237 0
M  V30 1921 C 180.613 3.40756 -0.0989168 0
M  V30 1922 H 181.806 2.49695 -1.66109 0
M  V30 1923 H 179.359 1.2802 -0.896699 0
M  V30 1924 H 180.094 3.13485 0.830514 0
M  V30 1925 H 179.879 3.83888 -0.798265 0
M  V30 1926 H 181.369 4.17386 0.133524 0
M  V30 1927 N 181.806 0.884767 1.30421 0
M  V30 1928 C 182.736 0.367574 2.30589 0
M  V30 1929 C 183.717 -0.549464 1.60981 0
M  V30 1930 O 184.902 -0.46336 1.88591 0
M  V30 1931 C 182.032 -0.418944 3.44764 0
M  V30 1932 C 180.986 0.406316 4.26067 0
M  V30 1933 C 180.312 -0.506793 5.32293 0
M  V30 1934 C 181.612 1.64832 4.95608 0
M  V30 1935 H 183.306 1.20462 2.74097 0
M  V30 1936 H 180.852 0.580695 1.31772 0
M  V30 1937 H 182.805 -0.791395 4.13902 0
M  V30 1938 H 181.529 -1.28964 3.0006 0
M  V30 1939 H 180.188 0.760903 3.58617 0
M  V30 1940 H 179.836 -1.37519 4.83836 0
M  V30 1941 H 179.536 0.0415828 5.87585 0
M  V30 1942 H 181.06 -0.875764 6.04287 0
M  V30 1943 H 182.474 1.34646 5.57264 0
M  V30 1944 H 180.871 2.13688 5.60765 0
M  V30 1945 H 181.941 2.39284 4.21748 0
M  V30 1946 N 183.284 -1.43765 0.645699 0
M  V30 1947 C 184.247 -2.29163 -0.0409488 0
M  V30 1948 C 185.247 -1.41813 -0.757996 0
M  V30 1949 O 186.437 -1.63527 -0.600382 0
M  V30 1950 C 183.569 -3.23716 -1.06869 0
M  V30 1951 H 184.762 -2.91366 0.710345 0
M  V30 1952 H 182.315 -1.5092 0.406547 0
M  V30 1953 H 183.05 -2.66393 -1.84947 0
M  V30 1954 H 182.835 -3.88105 -0.558277 0
M  V30 1955 H 184.325 -3.87831 -1.54845 0
M  V30 1956 N 184.763 -0.387143 -1.52771 0
M  V30 1957 C 186.174 0.0873634 -1.86495 0
M  V30 1958 C 186.525 1.46336 -1.30691 0
M  V30 1959 O 185.65 2.068 -0.637409 0
M  V30 1960 C 186.245 0.165305 -3.38396 0
M  V30 1961 C 184.804 0.584101 -3.7184 0
M  V30 1962 C 183.951 -0.255279 -2.76122 0
M  V30 1963 H 186.902 -0.605104 -1.46711 0
M  V30 1964 H 186.923 0.984848 -3.67534 0
M  V30 1965 H 186.435 -0.836301 -3.78982 0
M  V30 1966 H 184.536 1.59315 -3.36823 0
M  V30 1967 H 184.649 0.343749 -4.77865 0
M  V30 1968 H 183.013 0.279126 -2.53166 0
M  V30 1969 H 183.796 -1.25482 -3.19545 0
M  V30 1970 N 186.241 1.57166 -0.116904 0
M  V30 1971 C 187.188 2.15202 0.83408 0
M  V30 1972 C 188.158 1.07644 1.26499 0
M  V30 1973 O 189.343 1.35541 1.34288 0
M  V30 1974 C 186.483 2.75405 2.07957 0
M  V30 1975 C 185.596 3.97264 1.69721 0
M  V30 1976 C 184.731 4.45561 2.89221 0
M  V30 1977 C 183.77 5.59956 2.47215 0
M  V30 1978 N 182.907 6.03006 3.59622 0
M  V30 1979 H 187.747 2.96141 0.332335 0
M  V30 1980 H 185.284 1.46309 0.152349 0
M  V30 1981 H 187.242 3.08439 2.80929 0
M  V30 1982 H 185.872 1.97159 2.55594 0
M  V30 1983 H 184.924 3.70404 0.866316 0
M  V30 1984 H 186.236 4.80226 1.34849 0
M  V30 1985 H 185.39 4.80493 3.7042 0
M  V30 1986 H 184.129 3.61544 3.27318 0
M  V30 1987 H 183.134 5.2463 1.64448 0
M  V30 1988 H 184.359 6.45738 2.10238 0
M  V30 1989 H 182.305 5.21931 3.97396 0
M  V30 1990 H 182.222 6.80819 3.28667 0
M  V30 1991 H 183.49 6.42576 4.41267 0
M  V30 1992 N 187.719 -0.156864 1.56817 0
M  V30 1993 C 188.967 -0.869404 1.82444 0
M  V30 1994 C 189.288 -1.82147 0.69623 0
M  V30 1995 O 188.558 -1.93847 -0.28287 0
M  V30 1996 H 187.138 -0.324043 0.673056 0
M  V30 1997 H 189.8 -0.153224 1.94297 0
M  V30 1998 H 188.896 -1.43761 2.77019 0
M  V30 1999 N 189.197 -1.51736 -0.425897 0
M  V30 2000 C 190.16 -1.73271 -1.50032 0
M  V30 2001 C 191.16 -0.602639 -1.4908 0
M  V30 2002 O 192.35 -0.87033 -1.509 0
M  V30 2003 C 189.482 -1.79969 -2.89523 0
M  V30 2004 H 190.675 -2.69172 -1.32237 0
M  V30 2005 H 188.228 -1.41899 -0.65532 0
M  V30 2006 H 188.963 -0.859241 -3.1271 0
M  V30 2007 H 188.748 -2.62109 -2.91619 0
M  V30 2008 H 190.238 -1.9843 -3.67444 0
M  V30 2009 N 190.675 0.682077 -1.42076 0
M  V30 2010 C 192.086 1.26246 -1.37546 0
M  V30 2011 C 192.437 1.96092 -0.0651481 0
M  V30 2012 O 191.562 1.99587 0.836297 0
M  V30 2013 C 192.157 2.29594 -2.49143 0
M  V30 2014 C 190.716 2.83175 -2.47969 0
M  V30 2015 C 189.863 1.57395 -2.28303 0
M  V30 2016 H 192.814 0.475937 -1.51395 0
M  V30 2017 H 192.835 3.11175 -2.18976 0
M  V30 2018 H 192.347 1.78729 -3.44496 0
M  V30 2019 H 190.448 3.3818 -1.56413 0
M  V30 2020 H 190.561 3.32687 -3.44755 0
M  V30 2021 H 188.925 1.83699 -1.76428 0
M  V30 2022 H 189.708 1.08507 -3.25701 0
M  V30 2023 N 192.153 1.28127 0.917671 0
M  V30 2024 C 193.101 1.11569 2.04096 0
M  V30 2025 C 194.095 0.0360242 1.69362 0
M  V30 2026 O 195.301 0.194501 1.78946 0
M  V30 2027 H 191.676 0.344097 0.668656 0
M  V30 2028 H 193.647 2.06711 2.15205 0
M  V30 2029 C 192.396 0.790197 3.38602 0
M  V30 2030 H 191.719 1.61293 3.6582 0
M  V30 2031 H 193.159 0.714271 4.1794 0
M  V30 2032 C 191.618 -0.505897 3.3308 0
M  V30 2033 O 192.148 -1.53736 3.71117 0
M  V30 2034 N 190.354 -0.505193 2.86175 0
M  V30 2035 H 189.901 0.334621 2.55417 0
M  V30 2036 H 189.859 -1.37243 2.82863 0
M  V30 2037 N 193.631 -1.12557 1.10312 0
M  V30 2038 C 194.856 -1.88405 0.867085 0
M  V30 2039 C 195.281 -1.79038 -0.576817 0
M  V30 2040 O 194.639 -1.14439 -1.40618 0
M  V30 2041 C 194.687 -3.3563 1.31851 0
M  V30 2042 O 193.791 -4.09565 0.482734 0
M  V30 2043 H 193.132 -0.585455 0.313271 0
M  V30 2044 H 195.662 -1.42352 1.4696 0
M  V30 2045 H 195.672 -3.86469 1.3079 0
M  V30 2046 H 194.347 -3.41765 2.37001 0
M  V30 2047 H 192.924 -3.68695 0.558448 0
M  V30 2048 N 195.109 -0.891671 -1.2995 0
M  V30 2049 C 196.349 -0.520296 -1.97667 0
M  V30 2050 C 196.713 0.914797 -1.68806 0
M  V30 2051 O 197.914 1.39263 -2.29911 0
M  V30 2052 C 196.185 -0.795222 -3.48441 0
M  V30 2053 S 197.744 -0.526953 -4.35624 0
M  V30 2054 H 194.562 -0.19333 -0.684211 0
M  V30 2055 H 197.164 -1.15238 -1.57926 0
M  V30 2056 H 195.868 -1.83805 -3.66938 0
M  V30 2057 H 195.399 -0.15095 -3.9311 0
M  V30 2058 H 197.414 0.631533 -4.92165 0
M  V30 2059 N 196.587 1.43421 -0.653314 0
M  V30 2060 C 197.497 2.34568 0.0388565 0
M  V30 2061 C 198.513 1.53888 0.81207 0
M  V30 2062 O 199.689 1.86539 0.759294 0
M  V30 2063 C 196.754 3.32167 0.993269 0
M  V30 2064 C 195.815 4.28751 0.216977 0
M  V30 2065 C 195.048 5.21688 1.12593 0
M  V30 2066 O 195.271 5.19052 2.36519 0
M  V30 2067 O 194.205 5.98919 0.598284 0
M  V30 2068 H 198.031 2.95251 -0.711386 0
M  V30 2069 H 195.616 1.43564 -0.413502 0
M  V30 2070 H 197.498 3.92183 1.54176 0
M  V30 2071 H 196.173 2.73987 1.72374 0
M  V30 2072 H 195.08 3.72215 -0.375101 0
M  V30 2073 H 196.413 4.89913 -0.473924 0
M  V30 2074 N 198.065 0.39524 1.52563 0
M  V30 2075 C 199.311 -0.177763 2.02622 0
M  V30 2076 C 199.666 -1.43974 1.27629 0
M  V30 2077 O 198.959 -1.87995 0.36992 0
M  V30 2078 C 199.153 -0.493444 3.53977 0
M  V30 2079 C 198.982 0.736392 4.4363 0
M  V30 2080 C 197.752 1.25744 4.89404 0
M  V30 2081 C 199.95 1.61046 4.88435 0
M  V30 2082 N 197.932 2.44421 5.63145 0
M  V30 2083 C 199.303 2.64359 5.60816 0
M  V30 2084 C 201.358 1.62985 4.70468 0
M  V30 2085 C 200.061 3.69505 6.17137 0
M  V30 2086 C 202.087 2.67042 5.27677 0
M  V30 2087 C 201.449 3.69077 5.99968 0
M  V30 2088 H 197.548 -0.0269794 0.781534 0
M  V30 2089 H 200.132 0.546466 1.86874 0
M  V30 2090 H 198.303 -1.18672 3.69826 0
M  V30 2091 H 200.035 -1.05412 3.90731 0
M  V30 2092 H 196.79 0.817546 4.6649 0
M  V30 2093 H 197.214 3.04485 6.04663 0
M  V30 2094 H 201.856 0.854442 4.14076 0
M  V30 2095 H 199.574 4.4791 6.72608 0
M  V30 2096 H 203.16 2.69433 5.15652 0
M  V30 2097 H 202.04 4.48273 6.43444 0
M  V30 2098 N 199.544 -1.57102 0.125237 0
M  V30 2099 C 200.454 -2.19191 -0.8362 0
M  V30 2100 C 201.47 -1.16985 -1.28805 0
M  V30 2101 O 202.646 -1.49479 -1.34974 0
M  V30 2102 C 199.711 -2.78407 -2.06617 0
M  V30 2103 C 198.772 -3.9567 -1.66565 0
M  V30 2104 C 198.005 -4.52052 -2.83698 0
M  V30 2105 O 198.228 -4.07326 -3.99302 0
M  V30 2106 O 197.162 -5.42645 -2.60423 0
M  V30 2107 H 200.988 -3.01816 -0.337776 0
M  V30 2108 H 198.573 -1.4906 -0.100695 0
M  V30 2109 H 200.455 -3.16129 -2.7864 0
M  V30 2110 H 199.13 -1.9881 -2.55453 0
M  V30 2111 H 198.037 -3.62705 -0.916296 0
M  V30 2112 H 199.37 -4.76722 -1.22464 0
M  V30 2113 N 201.022 0.148545 -1.56898 0
M  V30 2114 C 201.954 1.20852 -1.9475 0
M  V30 2115 C 202.967 1.39265 -0.843152 0
M  V30 2116 O 204.156 1.38864 -1.12156 0
M  V30 2117 C 201.256 2.57362 -2.20495 0
M  V30 2118 C 200.429 2.59947 -3.51776 0
M  V30 2119 C 199.488 3.77984 -3.6608 0
M  V30 2120 O 198.514 3.62929 -4.38487 0
M  V30 2121 N 199.716 4.95375 -3.02629 0
M  V30 2122 H 202.481 0.886804 -2.86279 0
M  V30 2123 H 200.042 0.338121 -1.5833 0
M  V30 2124 H 202.034 3.34833 -2.27307 0
M  V30 2125 H 200.604 2.81832 -1.35238 0
M  V30 2126 H 199.824 1.68403 -3.56419 0
M  V30 2127 H 201.112 2.58704 -4.38121 0
M  V30 2128 H 200.51 5.10509 -2.43715 0
M  V30 2129 H 199.067 5.70627 -3.15004 0
M  V30 2130 N 202.5 1.5196 0.417844 0
M  V30 2131 C 203.728 1.69426 1.18753 0
M  V30 2132 C 204.143 0.399955 1.84515 0
M  V30 2133 O 203.5 -0.623288 1.71527 0
M  V30 2134 C 203.551 2.82375 2.25714 0
M  V30 2135 O 203.272 4.06793 1.62638 0
M  V30 2136 C 204.773 3.11277 3.15628 0
M  V30 2137 H 201.993 0.568031 0.357186 0
M  V30 2138 H 204.537 1.98475 0.49273 0
M  V30 2139 H 202.692 2.5587 2.90877 0
M  V30 2140 H 203.106 4.69667 2.3348 0
M  V30 2141 H 204.58 3.93843 3.86771 0
M  V30 2142 H 205.057 2.24473 3.77503 0
M  V30 2143 H 205.663 3.39515 2.56144 0
M  V30 2144 N 203.978 -0.674533 1.42435 0
M  V30 2145 C 204.888 -1.81751 1.48337 0
M  V30 2146 C 205.904 -1.69975 0.372099 0
M  V30 2147 O 207.08 -1.91521 0.62304 0
M  V30 2148 C 204.145 -3.17895 1.38361 0
M  V30 2149 C 203.206 -3.41625 2.59982 0
M  V30 2150 C 202.439 -4.71274 2.50473 0
M  V30 2151 O 202.662 -5.49197 1.54075 0
M  V30 2152 O 201.596 -4.96254 3.4061 0
M  V30 2153 H 205.422 -1.79728 2.44809 0
M  V30 2154 H 203.007 -0.830312 1.24202 0
M  V30 2155 H 204.889 -3.99136 1.35161 0
M  V30 2156 H 203.564 -3.20555 0.450144 0
M  V30 2157 H 202.471 -2.60231 2.68757 0
M  V30 2158 H 203.804 -3.43796 3.52229 0
M  V30 2159 N 205.456 -1.28612 -0.910864 0
M  V30 2160 C 206.733 -1.06632 -1.63979 0
M  V30 2161 C 207.113 0.393351 -2.07403 0
M  V30 2162 O 206.461 1.37999 -1.82122 0
M  V30 2163 C 206.671 -2.0436 -2.8291 0
M  V30 2164 C 208.019 -2.34666 -3.5386 0
M  V30 2165 O 209.043 -2.02467 -2.93062 0
M  V30 2166 O 207.902 -2.89631 -4.63439 0
M  V30 2167 H 204.996 -0.407737 -0.7195 0
M  V30 2168 H 207.542 -1.39942 -0.959914 0
M  V30 2169 H 206.314 -3.02727 -2.47936 0
M  V30 2170 H 205.937 -1.71714 -3.58609 0
M  V30 2171 N 206.934 1.1197 -1.10907 0
M  V30 2172 C 208.159 1.87942 -0.877064 0
M  V30 2173 C 208.584 1.79341 0.567314 0
M  V30 2174 O 207.942 1.15184 1.40009 0
M  V30 2175 C 207.99 3.34926 -1.33629 0
M  V30 2176 O 207.094 4.09303 -0.504447 0
M  V30 2177 H 206.435 0.583785 -0.316371 0
M  V30 2178 H 208.965 1.4157 -1.47712 0
M  V30 2179 H 208.975 3.8577 -1.32837 0
M  V30 2180 H 207.65 3.40504 -2.3881 0
M  V30 2181 H 206.227 3.68393 -0.577993 0
M  V30 2182 N 208.412 0.89855 1.29475 0
M  V30 2183 C 209.66 0.522847 1.9522 0
M  V30 2184 C 209.981 -0.93371 1.71192 0
M  V30 2185 O 209.251 -1.65823 1.04305 0
M  V30 2186 H 207.831 0.190366 0.722336 0
M  V30 2187 H 210.493 1.14459 1.5775 0
M  V30 2188 H 209.589 0.704476 3.04045 0
M  V30 2189 N 209.89 -1.43072 0.660911 0
M  V30 2190 C 211.306 -1.56169 0.329173 0
M  V30 2191 C 211.506 -1.64317 -1.16629 0
M  V30 2192 O 210.562 -1.60245 -1.95135 0
M  V30 2193 C 211.875 -2.81873 1.04729 0
M  V30 2194 C 213.423 -2.95627 1.02828 0
M  V30 2195 C 213.898 -4.24174 1.72744 0
M  V30 2196 N 215.389 -4.31055 1.69545 0
M  V30 2197 C 216.124 -5.29304 2.20511 0
M  V30 2198 N 215.62 -6.33786 2.79799 0
M  V30 2199 N 217.413 -5.21008 2.10966 0
M  V30 2200 H 209.564 -1.36027 1.63127 0
M  V30 2201 H 211.827 -0.653823 0.686454 0
M  V30 2202 H 211.533 -2.81942 2.10242 0
M  V30 2203 H 211.407 -3.72338 0.603702 0
M  V30 2204 H 213.794 -2.95094 -0.0184742 0
M  V30 2205 H 213.875 -2.06431 1.51063 0
M  V30 2206 H 213.519 -4.25467 2.7738 0
M  V30 2207 H 213.449 -5.1228 1.2197 0
M  V30 2208 H 215.94 -3.56174 1.26288 0
M  V30 2209 H 216.253 -7.05086 3.16344 0
M  V30 2210 H 214.598 -6.34387 2.83863 0
M  V30 2211 H 217.789 -4.38301 1.64347 0
M  V30 2212 H 217.962 -5.97416 2.50993 0
M  V30 2213 N 211.368 -0.403325 -1.52352 0
M  V30 2214 C 212.331 0.413051 -2.25447 0
M  V30 2215 C 213.331 0.978513 -1.276 0
M  V30 2216 O 214.521 0.858305 -1.51587 0
M  V30 2217 C 211.653 1.58087 -3.02029 0
M  V30 2218 H 212.846 -0.227094 -2.99039 0
M  V30 2219 H 210.399 -0.155722 -1.55522 0
M  V30 2220 H 211.134 2.25804 -2.32772 0
M  V30 2221 H 210.919 1.18195 -3.73861 0
M  V30 2222 H 212.409 2.1585 -3.57489 0
M  V30 2223 N 212.846 1.57033 -0.133567 0
M  V30 2224 C 214.092 1.95976 0.521649 0
M  V30 2225 C 214.425 1.01779 1.65393 0
M  V30 2226 O 213.7 0.0576581 1.94415 0
M  V30 2227 C 213.983 3.44738 1.04057 0
M  V30 2228 C 213.836 4.49711 -0.0892897 0
M  V30 2229 C 215.155 3.95682 1.92675 0
M  V30 2230 H 212.274 0.712579 0.188149 0
M  V30 2231 H 214.916 1.88813 -0.212076 0
M  V30 2232 H 213.066 3.50973 1.66583 0
M  V30 2233 H 214.738 4.55565 -0.725152 0
M  V30 2234 H 212.981 4.27261 -0.750378 0
M  V30 2235 H 213.652 5.51099 0.315284 0
M  V30 2236 H 216.128 3.91841 1.39998 0
M  V30 2237 H 215.004 5.00262 2.25897 0
M  V30 2238 H 215.265 3.37239 2.85872 0
M  V30 2239 N 214.325 -0.140222 1.56975 0
M  V30 2240 C 215.288 -1.15689 1.97861 0
M  V30 2241 C 216.288 -1.3549 0.865974 0
M  V30 2242 O 217.478 -1.32367 1.13246 0
M  V30 2243 C 214.61 -2.51582 2.30042 0
M  V30 2244 H 215.803 -0.805971 2.88867 0
M  V30 2245 H 213.356 -0.383801 1.51515 0
M  V30 2246 H 214.091 -2.91632 1.41849 0
M  V30 2247 H 213.876 -2.38569 3.11171 0
M  V30 2248 H 215.366 -3.24792 2.62488 0
M  V30 2249 N 215.803 -1.52179 -0.40978 0
M  V30 2250 C 216.713 -1.78364 -1.52392 0
M  V30 2251 C 217.729 -0.669183 -1.60617 0
M  V30 2252 O 218.905 -0.954518 -1.77344 0
M  V30 2253 C 215.97 -1.92822 -2.88133 0
M  V30 2254 C 215.031 -3.16725 -2.898 0
M  V30 2255 C 214.264 -3.30483 -4.19067 0
M  V30 2256 O 214.487 -2.49522 -5.12928 0
M  V30 2257 O 213.421 -4.2363 -4.27576 0
M  V30 2258 H 217.247 -2.72931 -1.33201 0
M  V30 2259 H 214.832 -1.37016 -0.59557 0
M  V30 2260 H 216.714 -2.04157 -3.68643 0
M  V30 2261 H 215.389 -1.01444 -3.07393 0
M  V30 2262 H 214.296 -3.10848 -2.08146 0
M  V30 2263 H 215.629 -4.07881 -2.75489 0
M  V30 2264 N 217.281 0.66697 -1.42791 0
M  V30 2265 C 218.558 1.4234 -1.34159 0
M  V30 2266 C 218.938 2.11093 0.0172729 0
M  V30 2267 O 218.286 2.03808 1.03318 0
M  V30 2268 C 218.496 2.41942 -2.51526 0
M  V30 2269 C 219.844 3.06353 -2.93995 0
M  V30 2270 O 220.868 2.52269 -2.51473 0
M  V30 2271 O 219.727 4.04376 -3.67617 0
M  V30 2272 H 216.821 0.635277 -0.529483 0
M  V30 2273 H 219.367 0.695034 -1.54814 0
M  V30 2274 H 218.139 1.89991 -3.42081 0
M  V30 2275 H 217.762 3.22249 -2.32898 0
M  V30 2276 N 218.759 1.29093 0.90403 0
M  V30 2277 C 219.669 1.15727 2.0407 0
M  V30 2278 C 220.685 0.0815308 1.73809 0
M  V30 2279 O 221.861 0.292749 1.99261 0
M  V30 2280 C 218.926 0.830424 3.36608 0
M  V30 2281 C 217.987 1.98955 3.80415 0
M  V30 2282 C 217.22 1.6782 5.06628 0
M  V30 2283 O 217.443 0.597105 5.67266 0
M  V30 2284 O 216.377 2.52486 5.46383 0
M  V30 2285 H 220.203 2.11171 2.18267 0
M  V30 2286 H 217.788 1.08504 1.027 0
M  V30 2287 H 219.67 0.662521 4.16159 0
M  V30 2288 H 218.345 -0.0942678 3.23563 0
M  V30 2289 H 217.252 2.21267 3.01648 0
M  V30 2290 H 218.585 2.89529 3.98037 0
M  V30 2291 N 220.237 -1.11381 1.11499 0
M  V30 2292 C 221.147 -2.21019 0.786628 0
M  V30 2293 C 222.163 -1.72597 -0.220507 0
M  V30 2294 O 223.339 -2.01321 -0.0565251 0
M  V30 2295 C 220.404 -3.459 0.235333 0
M  V30 2296 C 219.465 -4.09107 1.30115 0
M  V30 2297 C 218.698 -5.28027 0.776068 0
M  V30 2298 O 218.921 -5.6904 -0.393661 0
M  V30 2299 O 217.855 -5.81835 1.54114 0
M  V30 2300 H 221.681 -2.51521 1.70209 0
M  V30 2301 H 219.266 -1.19928 0.890928 0
M  V30 2302 H 221.148 -4.21346 -0.067715 0
M  V30 2303 H 219.823 -3.17049 -0.652828 0
M  V30 2304 H 218.73 -3.35391 1.65722 0
M  V30 2305 H 220.063 -4.42139 2.16273 0
M  V30 2306 N 221.715 -0.905404 -1.28997 0
M  V30 2307 C 222.625 -0.392246 -2.31298 0
M  V30 2308 C 223.641 0.515889 -1.66176 0
M  V30 2309 O 224.817 0.404093 -1.97304 0
M  V30 2310 C 221.882 0.36686 -3.44754 0
M  V30 2311 C 220.943 -0.573485 -4.25452 0
M  V30 2312 C 220.176 0.149488 -5.33491 0
M  V30 2313 O 220.399 1.37255 -5.5364 0
M  V30 2314 O 219.333 -0.510919 -5.99728 0
M  V30 2315 H 223.159 -1.2411 -2.77183 0
M  V30 2316 H 220.744 -0.669926 -1.33538 0
M  V30 2317 H 222.626 0.795907 -4.13816 0
M  V30 2318 H 221.301 1.19169 -3.00966 0
M  V30 2319 H 220.208 -1.05176 -3.59011 0
M  V30 2320 H 221.541 -1.36489 -4.72897 0
M  V30 2321 N 223.193 1.4272 -0.668489 0
M  V30 2322 C 224.103 2.34596 0.0139753 0
M  V30 2323 C 225.119 1.5474 0.795703 0
M  V30 2324 O 226.295 1.87334 0.739466 0
M  V30 2325 C 223.36 3.33202 0.957982 0
M  V30 2326 C 222.421 4.28957 0.17149 0
M  V30 2327 C 221.654 5.22853 1.07053 0
M  V30 2328 O 221.877 5.21531 2.31001 0
M  V30 2329 O 220.811 5.9952 0.534727 0
M  V30 2330 H 224.637 2.9448 -0.742661 0
M  V30 2331 H 222.222 1.43117 -0.428705 0
M  V30 2332 H 224.104 3.93796 1.50008 0
M  V30 2333 H 222.779 2.758 1.69458 0
M  V30 2334 H 221.686 3.71796 -0.414558 0
M  V30 2335 H 223.019 4.89383 -0.52586 0
M  V30 2336 N 224.671 0.411399 1.52136 0
M  V30 2337 C 225.948 -0.222308 1.94333 0
M  V30 2338 C 226.328 -1.6242 1.34844 0
M  V30 2339 O 225.676 -2.22384 0.525145 0
M  V30 2340 C 225.886 -0.226345 3.48265 0
M  V30 2341 C 227.234 -0.444592 4.22266 0
M  V30 2342 O 228.258 -0.305602 3.54887 0
M  V30 2343 O 227.117 -0.718749 5.41753 0
M  V30 2344 H 224.211 -0.143907 0.814383 0
M  V30 2345 H 226.757 0.467506 1.63133 0
M  V30 2346 H 225.529 0.75475 3.83952 0
M  V30 2347 H 225.152 -0.960163 3.85832 0
M  V30 2348 N 226.149 -1.5696 0.141893 0
M  V30 2349 C 227.059 -2.20066 -0.812905 0
M  V30 2350 C 228.075 -1.18344 -1.27557 0
M  V30 2351 O 229.251 -1.50902 -1.33381 0
M  V30 2352 C 226.316 -2.80583 -2.03652 0
M  V30 2353 C 225.377 -3.97414 -1.62359 0
M  V30 2354 C 224.61 -4.55036 -2.78887 0
M  V30 2355 O 224.833 -4.11538 -3.94959 0
M  V30 2356 O 223.767 -5.45376 -2.54653 0
M  V30 2357 H 227.593 -3.02157 -0.305746 0
M  V30 2358 H 225.178 -1.49159 -0.0848799 0
M  V30 2359 H 227.06 -3.19067 -2.75272 0
M  V30 2360 H 225.735 -2.01508 -2.5333 0
M  V30 2361 H 224.642 -3.63656 -0.877775 0
M  V30 2362 H 225.975 -4.77994 -1.17401 0
M  V30 2363 N 227.627 0.131896 -1.57047 0
M  V30 2364 C 228.904 0.871495 -1.75112 0
M  V30 2365 C 229.284 1.9866 -0.713949 0
M  V30 2366 O 228.632 2.26965 0.264447 0
M  V30 2367 C 228.842 1.40007 -3.19686 0
M  V30 2368 C 230.19 1.85752 -3.81813 0
M  V30 2369 O 231.214 1.49715 -3.23209 0
M  V30 2370 O 230.073 2.5226 -4.84796 0
M  V30 2371 H 227.167 0.412919 -0.716538 0
M  V30 2372 H 229.713 0.116641 -1.69299 0
M  V30 2373 H 228.485 0.599404 -3.86682 0
M  V30 2374 H 228.108 2.218 -3.29986 0
M  V30 2375 N 229.106 1.52395 0.401703 0
M  V30 2376 C 230.016 1.7917 1.51444 0
M  V30 2377 C 231.032 0.677691 1.6026 0
M  V30 2378 O 232.208 0.963909 1.76835 0
M  V30 2379 C 229.273 1.94347 2.87107 0
M  V30 2380 C 228.334 3.18257 2.88116 0
M  V30 2381 C 227.567 3.32701 4.17308 0
M  V30 2382 O 227.79 2.52238 5.11598 0
M  V30 2383 O 226.724 4.25891 4.25324 0
M  V30 2384 H 230.55 2.73633 1.31752 0
M  V30 2385 H 228.135 1.3733 0.588296 0
M  V30 2386 H 230.017 2.06109 3.67555 0
M  V30 2387 H 228.692 1.03073 3.06851 0
M  V30 2388 H 227.599 3.11947 2.06494 0
M  V30 2389 H 228.932 4.09336 2.73322 0
M  V30 2390 N 230.584 -0.659388 1.43143 0
M  V30 2391 C 231.494 -1.80167 1.50256 0
M  V30 2392 C 232.51 -1.69571 0.390106 0
M  V30 2393 O 233.686 -1.90849 0.643319 0
M  V30 2394 C 230.751 -3.16409 1.41725 0
M  V30 2395 C 229.812 -3.38848 2.63591 0
M  V30 2396 C 229.045 -4.68591 2.55458 0
M  V30 2397 O 229.268 -5.47532 1.59891 0
M  V30 2398 O 228.202 -4.92614 3.45854 0
M  V30 2399 H 232.028 -1.77121 2.46702 0
M  V30 2400 H 229.613 -0.817092 1.25076 0
M  V30 2401 H 231.495 -3.9768 1.39387 0
M  V30 2402 H 230.17 -3.20059 0.484118 0
M  V30 2403 H 229.077 -2.57366 2.71502 0
M  V30 2404 H 230.41 -3.4004 3.55856 0
M  V30 2405 N 232.062 -1.29571 -0.897171 0
M  V30 2406 C 232.972 -1.16808 -2.03453 0
M  V30 2407 C 233.988 -0.0907471 -1.73763 0
M  V30 2408 O 235.164 -0.303312 -1.99103 0
M  V30 2409 C 232.229 -0.848264 -3.36163 0
M  V30 2410 C 231.29 -2.0097 -3.79354 0
M  V30 2411 C 230.523 -1.70505 -5.05731 0
M  V30 2412 O 230.746 -0.62718 -5.66941 0
M  V30 2413 O 229.68 -2.5538 -5.45036 0
M  V30 2414 H 233.506 -2.12325 -2.17144 0
M  V30 2415 H 231.091 -1.09047 -1.02123 0
M  V30 2416 H 232.973 -0.684581 -4.15802 0
M  V30 2417 H 231.648 0.0771071 -3.23608 0
M  V30 2418 H 230.555 -2.22863 -3.00471 0
M  V30 2419 H 231.888 -2.91636 -3.96496 0
M  V30 2420 N 233.54 1.10788 -1.12088 0
M  V30 2421 C 234.45 2.20599 -0.798338 0
M  V30 2422 C 235.466 1.72712 0.21135 0
M  V30 2423 O 236.642 2.01348 0.0458477 0
M  V30 2424 C 233.707 3.45771 -0.253674 0
M  V30 2425 C 232.768 4.08411 -1.32283 0
M  V30 2426 C 232.001 5.27608 -0.80406 0
M  V30 2427 O 232.224 5.69241 0.363478 0
M  V30 2428 O 231.158 5.8101 -1.57198 0
M  V30 2429 H 234.984 2.50614 -1.7154 0
M  V30 2430 H 232.569 1.19454 -0.897275 0
M  V30 2431 H 234.451 4.21376 0.0453691 0
M  V30 2432 H 233.126 3.1739 0.636005 0
M  V30 2433 H 232.033 3.34507 -1.67499 0
M  V30 2434 H 233.366 4.40986 -2.18614 0
M  V30 2435 N 235.018 0.912232 1.28515 0
M  V30 2436 C 235.928 0.404506 2.31086 0
M  V30 2437 C 236.944 -0.50707 1.66448 0
M  V30 2438 O 238.12 -0.393624 1.97516 0
M  V30 2439 C 235.185 -0.348572 3.44943 0
M  V30 2440 C 234.246 0.59604 4.25142 0
M  V30 2441 C 233.479 -0.121194 5.33562 0
M  V30 2442 O 233.702 -1.34317 5.5436 0
M  V30 2443 O 232.636 0.542716 5.99448 0
M  V30 2444 H 236.462 1.25579 2.76521 0
M  V30 2445 H 234.047 0.676998 1.33181 0
M  V30 2446 H 235.929 -0.77395 4.14232 0
M  V30 2447 H 234.604 -1.17571 3.01594 0
M  V30 2448 H 233.511 1.07079 3.58448 0
M  V30 2449 H 234.844 1.38995 4.72167 0
M  V30 2450 N 236.496 -1.42363 0.676048 0
M  V30 2451 C 237.406 -2.346 -0.00153389 0
M  V30 2452 C 238.422 -1.5516 -0.787485 0
M  V30 2453 O 239.598 -1.87723 -0.729521 0
M  V30 2454 C 236.663 -3.33705 -0.940298 0
M  V30 2455 C 235.724 -4.29042 -0.148739 0
M  V30 2456 C 234.957 -5.23413 -1.04279 0
M  V30 2457 O 235.18 -5.22749 -2.28232 0
M  V30 2458 O 234.114 -5.99795 -0.502925 0
M  V30 2459 H 237.94 -2.94082 0.758268 0
M  V30 2460 H 235.525 -1.42888 0.436289 0
M  V30 2461 H 237.407 -3.94586 -1.47917 0
M  V30 2462 H 236.082 -2.76695 -1.67993 0
M  V30 2463 H 234.989 -3.71571 0.43427 0
M  V30 2464 H 236.322 -4.89097 0.551805 0
M  V30 2465 N 237.974 -0.419461 -1.51915 0
M  V30 2466 C 238.884 0.407528 -2.31033 0
M  V30 2467 C 239.9 1.04413 -1.3919 0
M  V30 2468 O 241.076 1.0434 -1.72265 0
M  V30 2469 C 238.141 1.50365 -3.12396 0
M  V30 2470 C 237.202 0.889029 -4.19994 0
M  V30 2471 C 236.435 1.93291 -4.97468 0
M  V30 2472 O 236.658 3.15259 -4.75361 0
M  V30 2473 O 235.592 1.53339 -5.8204 0
M  V30 2474 H 239.418 -0.237865 -3.02767 0
M  V30 2475 H 237.003 -0.182413 -1.48282 0
M  V30 2476 H 238.885 2.13975 -3.63032 0
M  V30 2477 H 237.56 2.13345 -2.43445 0
M  V30 2478 H 236.467 0.215353 -3.7348 0
M  V30 2479 H 237.8 0.302991 -4.91267 0
M  V30 2480 N 239.452 1.56882 -0.150215 0
M  V30 2481 C 240.384 2.14057 0.819286 0
M  V30 2482 C 241.397 1.09082 1.20851 0
M  V30 2483 O 242.586 1.36347 1.15203 0
M  V30 2484 C 239.686 2.65102 2.11127 0
M  V30 2485 C 238.859 3.94511 1.88891 0
M  V30 2486 C 237.918 4.30834 3.02107 0
M  V30 2487 O 236.944 4.99099 2.73659 0
M  V30 2488 N 238.146 3.90676 4.29363 0
M  V30 2489 H 240.911 2.97871 0.330618 0
M  V30 2490 H 238.472 1.61866 0.0332538 0
M  V30 2491 H 240.464 2.86411 2.85921 0
M  V30 2492 H 239.034 1.85994 2.51247 0
M  V30 2493 H 238.254 3.81795 0.981152 0
M  V30 2494 H 239.542 4.7907 1.71376 0
M  V30 2495 H 238.94 3.35677 4.55343 0
M  V30 2496 H 237.497 4.1703 5.00928 0
M  V30 2497 N 240.93 -0.123565 1.57115 0
M  V30 2498 C 241.878 -1.17082 2.00984 0
M  V30 2499 C 242.872 -1.43136 0.906009 0
M  V30 2500 O 244.078 -1.43152 1.09121 0
M  V30 2501 H 240.453 -0.394653 0.64012 0
M  V30 2502 H 242.424 -0.774292 2.88179 0
M  V30 2503 C 241.173 -2.49057 2.42623 0
M  V30 2504 H 240.496 -2.29846 3.27125 0
M  V30 2505 H 241.936 -3.20906 2.7712 0
M  V30 2506 C 240.395 -3.11305 1.28805 0
M  V30 2507 O 240.925 -3.97171 0.60153 0
M  V30 2508 N 239.131 -2.71111 1.04628 0
M  V30 2509 H 238.678 -2.01382 1.60634 0
M  V30 2510 H 238.636 -3.1309 0.286685 0
M  V30 2511 N 242.408 -1.52605 -0.393616 0
M  V30 2512 C 243.371 -1.76415 -1.46323 0
M  V30 2513 C 244.371 -0.634126 -1.47768 0
M  V30 2514 O 245.561 -0.902142 -1.4902 0
M  V30 2515 C 242.693 -1.8607 -2.85641 0
M  V30 2516 H 243.886 -2.71916 -1.26498 0
M  V30 2517 H 241.439 -1.43257 -0.625073 0
M  V30 2518 H 242.174 -0.925378 -3.10817 0
M  V30 2519 H 241.959 -2.68235 -2.85993 0
M  V30 2520 H 243.449 -2.06179 -3.63153 0
M  V30 2521 N 243.887 0.651787 -1.4349 0
M  V30 2522 C 245.303 0.96762 -1.26922 0
M  V30 2523 C 245.503 2.00602 -0.189982 0
M  V30 2524 O 244.559 2.48793 0.431107 0
M  V30 2525 C 245.872 1.45052 -2.63401 0
M  V30 2526 C 247.42 1.5671 -2.70945 0
M  V30 2527 C 247.895 2.0839 -4.07845 0
M  V30 2528 N 249.386 2.1569 -4.09917 0
M  V30 2529 C 250.121 2.56804 -5.12679 0
M  V30 2530 N 249.617 2.97203 -6.25813 0
M  V30 2531 N 251.41 2.56756 -5.00033 0
M  V30 2532 H 243.561 -0.0353158 -2.12371 0
M  V30 2533 H 245.824 0.0467858 -0.946845 0
M  V30 2534 H 245.53 0.761926 -3.43348 0
M  V30 2535 H 245.404 2.42529 -2.88894 0
M  V30 2536 H 247.791 2.2467 -1.9133 0
M  V30 2537 H 247.872 0.57662 -2.49216 0
M  V30 2538 H 247.516 1.41031 -4.87927 0
M  V30 2539 H 247.446 3.08271 -4.26938 0
M  V30 2540 H 249.937 1.87237 -3.28254 0
M  V30 2541 H 250.25 3.27328 -7.00055 0
M  V30 2542 H 248.595 2.95004 -6.29283 0
M  V30 2543 H 251.786 2.24572 -4.10713 0
M  V30 2544 H 251.959 2.88475 -5.80247 0
M  V30 2545 N 245.365 1.30045 0.890287 0
M  V30 2546 C 246.642 1.09227 1.62262 0
M  V30 2547 C 247.022 -0.360305 2.08002 0
M  V30 2548 O 246.37 -1.35084 1.84295 0
M  V30 2549 C 246.58 2.08835 2.79623 0
M  V30 2550 C 247.928 2.40266 3.50082 0
M  V30 2551 O 248.952 2.07104 2.89804 0
M  V30 2552 O 247.811 2.96967 4.58773 0
M  V30 2553 H 244.905 0.419132 0.712922 0
M  V30 2554 H 247.451 1.41451 0.937529 0
M  V30 2555 H 246.223 3.06633 2.43089 0
M  V30 2556 H 245.846 1.77397 3.55832 0
M  V30 2557 N 246.843 -1.10192 1.12674 0
M  V30 2558 C 247.775 -2.16418 0.754701 0
M  V30 2559 C 248.788 -1.61309 -0.21986 0
M  V30 2560 O 249.977 -1.785 -0.000826841 0
M  V30 2561 C 247.077 -3.38762 0.096698 0
M  V30 2562 C 246.25 -4.23307 1.10136 0
M  V30 2563 C 245.309 -5.24092 0.470513 0
M  V30 2564 O 244.335 -5.57906 1.12824 0
M  V30 2565 N 245.537 -5.75491 -0.760948 0
M  V30 2566 H 248.302 -2.48943 1.66875 0
M  V30 2567 H 245.863 -1.25834 1.01869 0
M  V30 2568 H 247.855 -4.03291 -0.337384 0
M  V30 2569 H 246.425 -3.04192 -0.720153 0
M  V30 2570 H 245.645 -3.55036 1.71299 0
M  V30 2571 H 246.933 -4.76624 1.78064 0
M  V30 2572 H 246.331 -5.50222 -1.31424 0
M  V30 2573 H 244.888 -6.41792 -1.13781 0
M  V30 2574 N 248.321 -0.919034 -1.28029 0
M  V30 2575 C 249.284 -0.416182 -2.2539 0
M  V30 2576 C 250.284 0.460438 -1.54067 0
M  V30 2577 O 251.474 0.262744 -1.72207 0
M  V30 2578 C 248.606 0.402707 -3.38513 0
M  V30 2579 H 249.799 -1.27629 -2.71387 0
M  V30 2580 H 247.352 -0.698919 -1.39803 0
M  V30 2581 H 248.087 1.282 -2.97885 0
M  V30 2582 H 247.872 -0.225698 -3.9145 0
M  V30 2583 H 249.362 0.745191 -4.10897 0
M  V30 2584 N 249.799 1.42003 -0.683588 0
M  V30 2585 C 251.027 2.05746 -0.218182 0
M  V30 2586 C 251.442 1.51396 1.12804 0
M  V30 2587 O 250.799 0.657303 1.70252 0
M  V30 2588 C 250.85 3.61171 -0.154131 0
M  V30 2589 O 250.571 4.13508 -1.44716 0
M  V30 2590 C 252.072 4.42042 0.333713 0
M  V30 2591 H 249.292 0.662888 -0.10402 0
M  V30 2592 H 251.836 1.81987 -0.9328 0
M  V30 2593 H 249.991 3.84012 0.511231 0
M  V30 2594 H 250.405 5.07453 -1.32632 0
M  V30 2595 H 251.879 5.51028 0.327423 0
M  V30 2596 H 252.356 4.17269 1.37053 0
M  V30 2597 H 252.962 4.24239 -0.300222 0
M  V30 2598 N 251.277 0.427512 1.51691 0
M  V30 2599 C 252.224 -0.388867 2.275 0
M  V30 2600 C 253.194 -1.02532 1.30677 0
M  V30 2601 O 254.379 -1.0461 1.59566 0
M  V30 2602 C 251.519 -1.48954 3.11298 0
M  V30 2603 C 250.632 -0.872194 4.23104 0
M  V30 2604 C 249.767 -1.94709 4.94228 0
M  V30 2605 C 248.806 -1.30766 5.97969 0
M  V30 2606 N 247.943 -2.32349 6.62539 0
M  V30 2607 H 252.783 0.263997 2.96828 0
M  V30 2608 H 250.32 0.142033 1.46413 0
M  V30 2609 H 252.278 -2.13887 3.58201 0
M  V30 2610 H 250.908 -2.11217 2.44105 0
M  V30 2611 H 249.96 -0.111419 3.80237 0
M  V30 2612 H 251.272 -0.365264 4.97461 0
M  V30 2613 H 250.426 -2.67327 5.44629 0
M  V30 2614 H 249.165 -2.48773 4.1948 0
M  V30 2615 H 248.17 -0.566902 5.4687 0
M  V30 2616 H 249.395 -0.774483 6.74669 0
M  V30 2617 H 247.341 -2.85511 5.90609 0
M  V30 2618 H 247.258 -1.8652 7.3263 0
M  V30 2619 H 248.526 -3.04481 7.17574 0
M  V30 2620 N 252.755 -1.56801 0.158532 0
M  V30 2621 C 253.702 -2.17337 -0.776729 0
M  V30 2622 C 254.672 -1.1096 -1.23601 0
M  V30 2623 O 255.857 -1.39054 -1.30647 0
M  V30 2624 C 252.997 -2.80822 -2.00582 0
M  V30 2625 C 252.11 -4.01624 -1.59129 0
M  V30 2626 C 251.245 -4.53072 -2.77306 0
M  V30 2627 C 250.284 -5.66314 -2.32282 0
M  V30 2628 N 249.421 -6.12329 -3.43508 0
M  V30 2629 H 254.261 -2.96918 -0.253701 0
M  V30 2630 H 251.798 -1.46661 -0.113504 0
M  V30 2631 H 253.756 -3.15779 -2.72652 0
M  V30 2632 H 252.386 -2.03866 -2.50277 0
M  V30 2633 H 251.438 -3.72571 -0.767806 0
M  V30 2634 H 252.75 -4.83633 -1.2207 0
M  V30 2635 H 251.904 -4.90145 -3.57551 0
M  V30 2636 H 250.643 -3.70095 -3.17617 0
M  V30 2637 H 249.648 -5.28806 -1.5048 0
M  V30 2638 H 250.873 -6.51085 -1.93043 0
M  V30 2639 H 248.819 -5.32284 -3.83418 0
M  V30 2640 H 248.736 -6.89293 -3.105 0
M  V30 2641 H 250.004 -6.5405 -4.24075 0
M  V30 2642 N 254.233 0.115231 -1.57178 0
M  V30 2643 C 255.461 0.836437 -1.89239 0
M  V30 2644 C 255.876 1.73256 -0.750175 0
M  V30 2645 O 255.233 1.80357 0.278832 0
M  V30 2646 C 255.284 1.66671 -3.20785 0
M  V30 2647 O 255.005 0.806652 -4.3061 0
M  V30 2648 C 256.506 2.49274 -3.66575 0
M  V30 2649 H 253.726 0.240253 -0.626514 0
M  V30 2650 H 256.27 0.0984932 -2.04263 0
M  V30 2651 H 254.425 2.35737 -3.0742 0
M  V30 2652 H 254.839 1.37969 -5.06028 0
M  V30 2653 H 256.313 3.03055 -4.6137 0
M  V30 2654 H 256.79 3.26807 -2.93417 0
M  V30 2655 H 257.396 1.85443 -3.82741 0
M  V30 2656 N 255.711 1.52812 0.385517 0
M  V30 2657 C 256.661 1.74219 1.47078 0
M  V30 2658 C 257.645 0.59632 1.49442 0
M  V30 2659 O 258.837 0.85428 1.5502 0
M  V30 2660 C 255.966 1.9176 2.84751 0
M  V30 2661 C 255.052 3.12289 2.86943 0
M  V30 2662 N 255.443 4.34575 2.58802 0
M  V30 2663 C 253.741 3.12605 3.1811 0
M  V30 2664 C 254.442 5.162 2.68166 0
M  V30 2665 N 253.418 4.51964 3.02043 0
M  V30 2666 H 257.22 2.6639 1.24152 0
M  V30 2667 H 254.734 1.51166 0.593504 0
M  V30 2668 H 256.731 2.05218 3.62893 0
M  V30 2669 H 255.391 1.00805 3.08656 0
M  V30 2670 H 256.402 4.62649 2.32759 0
M  V30 2671 H 253.079 2.31472 3.47458 0
M  V30 2672 H 254.469 6.23689 2.49923 0
M  V30 2673 N 257.189 -0.644168 1.43834 0
M  V30 2674 C 258.435 -1.40603 1.46146 0
M  V30 2675 C 258.768 -1.93997 0.0887717 0
M  V30 2676 O 258.043 -1.72854 -0.891724 0
M  V30 2677 C 258.326 -2.58086 2.51124 0
M  V30 2678 C 258.179 -2.10126 3.97702 0
M  V30 2679 C 259.498 -3.60291 2.52742 0
M  V30 2680 H 256.617 -0.509905 0.532134 0
M  V30 2681 H 259.259 -0.729502 1.75437 0
M  V30 2682 H 257.409 -3.15801 2.26278 0
M  V30 2683 H 259.081 -1.57342 4.33637 0
M  V30 2684 H 257.324 -1.41419 4.10101 0
M  V30 2685 H 257.995 -2.94649 4.66783 0
M  V30 2686 H 260.471 -3.12352 2.7491 0
M  V30 2687 H 259.347 -4.40032 3.28121 0
M  V30 2688 H 259.608 -4.1349 1.56455 0
M  V30 2689 N 258.668 -1.30515 -0.883378 0
M  V30 2690 C 259.898 -1.22182 -1.66599 0
M  V30 2691 C 260.306 0.217507 -1.87946 0
M  V30 2692 O 259.649 1.1554 -1.42815 0
M  V30 2693 C 259.711 -1.88146 -3.06335 0
M  V30 2694 C 259.375 -3.37476 -3.08154 0
M  V30 2695 C 260.372 -4.33443 -2.87094 0
M  V30 2696 C 258.057 -3.7895 -3.29701 0
M  V30 2697 C 260.051 -5.68858 -2.8754 0
M  V30 2698 C 257.738 -5.14482 -3.29776 0
M  V30 2699 C 258.736 -6.09246 -3.0872 0
M  V30 2700 O 258.424 -7.42302 -3.08615 0
M  V30 2701 H 258.156 -0.423898 -0.52658 0
M  V30 2702 H 260.71 -1.72703 -1.11188 0
M  V30 2703 H 258.94 -1.32157 -3.63416 0
M  V30 2704 H 260.629 -1.7391 -3.66756 0
M  V30 2705 H 261.395 -4.02733 -2.70243 0
M  V30 2706 H 257.274 -3.05631 -3.45124 0
M  V30 2707 H 260.818 -6.428 -2.71024 0
M  V30 2708 H 256.715 -5.44832 -3.46163 0
M  V30 2709 H 257.483 -7.5131 -3.24769 0
M  V30 2710 N 260.146 1.09593 -1.13257 0
M  V30 2711 C 261.109 2.14359 -0.811358 0
M  V30 2712 C 262.109 1.59808 0.178377 0
M  V30 2713 O 263.299 1.74132 -0.0484911 0
M  V30 2714 C 260.431 3.40269 -0.207276 0
M  V30 2715 H 261.624 2.44284 -1.73969 0
M  V30 2716 H 259.177 1.25102 -0.936973 0
M  V30 2717 H 259.912 3.15969 0.73036 0
M  V30 2718 H 259.697 3.81154 -0.919992 0
M  V30 2719 H 261.187 4.176 0.000667944 0
M  V30 2720 N 261.624 0.925811 1.2754 0
M  V30 2721 C 262.556 0.380753 2.26015 0
M  V30 2722 C 263.569 -0.487485 1.5533 0
M  V30 2723 O 264.758 -0.300413 1.75954 0
M  V30 2724 C 261.858 -0.473259 3.35579 0
M  V30 2725 C 261.031 0.375249 4.35787 0
M  V30 2726 C 260.09 -0.415809 5.24555 0
M  V30 2727 O 259.116 0.175834 5.68928 0
M  V30 2728 N 260.318 -1.71607 5.54555 0
M  V30 2729 H 263.083 1.22725 2.73421 0
M  V30 2730 H 260.644 0.793037 1.41147 0
M  V30 2731 H 262.636 -1.00949 3.91907 0
M  V30 2732 H 261.206 -1.2205 2.87789 0
M  V30 2733 H 260.426 1.09279 3.7875 0
M  V30 2734 H 261.714 0.955399 4.99749 0
M  V30 2735 H 261.112 -2.2191 5.20358 0
M  V30 2736 H 259.669 -2.19887 6.1359 0
M  V30 2737 N 263.102 -1.41638 0.69111 0
M  V30 2738 C 264.065 -2.29178 0.0319786 0
M  V30 2739 C 265.065 -1.44153 -0.712496 0
M  V30 2740 O 266.255 -1.65354 -0.548053 0
M  V30 2741 C 263.387 -3.26952 -0.965161 0
M  V30 2742 H 264.58 -2.88959 0.802681 0
M  V30 2743 H 262.133 -1.4955 0.454356 0
M  V30 2744 H 262.868 -2.72142 -1.76378 0
M  V30 2745 H 262.653 -3.89685 -0.434522 0
M  V30 2746 H 264.143 -3.92561 -1.42428 0
M  V30 2747 N 264.58 -0.43555 -1.51462 0
M  V30 2748 C 265.991 0.0279871 -1.86679 0
M  V30 2749 C 266.342 1.42104 -1.35281 0
M  V30 2750 O 265.467 2.04667 -0.702878 0
M  V30 2751 C 266.062 0.0575626 -3.38751 0
M  V30 2752 C 264.621 0.465507 -3.7351 0
M  V30 2753 C 263.768 -0.342996 -2.75171 0
M  V30 2754 H 266.719 -0.651473 -1.44712 0
M  V30 2755 H 266.74 0.867421 -3.70481 0
M  V30 2756 H 266.252 -0.956448 -3.7613 0
M  V30 2757 H 264.353 1.48519 -3.41721 0
M  V30 2758 H 264.466 0.191546 -4.78717 0
M  V30 2759 H 262.83 0.198442 -2.53926 0
M  V30 2760 H 263.613 -1.35585 -3.15391 0
M  V30 2761 N 266.058 1.56714 -0.166846 0
M  V30 2762 C 266.988 2.20754 0.760913 0
M  V30 2763 C 267.969 1.16178 1.24244 0
M  V30 2764 O 269.154 1.44592 1.29641 0
M  V30 2765 C 266.284 2.84478 1.99223 0
M  V30 2766 C 265.238 3.95053 1.64672 0
M  V30 2767 C 264.564 4.45805 2.95232 0
M  V30 2768 C 265.864 5.14865 0.878155 0
M  V30 2769 H 267.558 2.98537 0.22713 0
M  V30 2770 H 265.104 1.43596 0.107805 0
M  V30 2771 H 267.057 3.27951 2.64624 0
M  V30 2772 H 265.781 2.04056 2.55007 0
M  V30 2773 H 264.44 3.52228 1.01641 0
M  V30 2774 H 264.088 3.62181 3.49047 0
M  V30 2775 H 263.788 5.204 2.7287 0
M  V30 2776 H 265.312 4.91962 3.6167 0
M  V30 2777 H 266.726 5.55059 1.43466 0
M  V30 2778 H 265.123 5.95348 0.753738 0
M  V30 2779 H 266.193 4.84735 -0.126377 0
M  V30 2780 N 267.536 -0.106894 1.57237 0
M  V30 2781 C 268.761 -0.830287 1.90055 0
M  V30 2782 C 269.186 -1.72064 0.75998 0
M  V30 2783 O 268.544 -1.78982 -0.288991 0
M  V30 2784 C 268.592 -1.6295 3.21683 0
M  V30 2785 O 267.696 -2.73748 3.08441 0
M  V30 2786 H 267.037 -0.228855 0.623315 0
M  V30 2787 H 269.567 -0.085658 2.04421 0
M  V30 2788 H 269.577 -2.01621 3.54701 0
M  V30 2789 H 268.252 -0.975989 4.04286 0
M  V30 2790 H 266.829 -2.38192 2.86913 0
M  V30 2791 N 269.014 -1.53014 -0.377408 0
M  V30 2792 C 270.262 -1.6829 -1.11906 0
M  V30 2793 C 270.583 -0.431206 -1.90173 0
M  V30 2794 O 269.853 0.554595 -1.87886 0
M  V30 2795 H 268.433 -0.620371 -0.416112 0
M  V30 2796 H 271.095 -1.90167 -0.426893 0
M  V30 2797 H 270.191 -2.53862 -1.8155 0
M  V30 2798 N 270.492 0.636531 -1.44174 0
M  V30 2799 C 271.402 1.77754 -1.53103 0
M  V30 2800 C 272.418 1.68928 -0.417034 0
M  V30 2801 O 273.594 1.89801 -0.6736 0
M  V30 2802 C 270.659 3.14115 -1.46741 0
M  V30 2803 C 269.72 3.34612 -2.68948 0
M  V30 2804 C 268.953 4.64467 -2.6288 0
M  V30 2805 O 269.176 5.44919 -1.68581 0
M  V30 2806 O 268.11 4.87049 -3.53648 0
M  V30 2807 H 271.936 1.73174 -2.49489 0
M  V30 2808 H 269.521 0.79709 -1.2636 0
M  V30 2809 H 271.403 3.95412 -1.45696 0
M  V30 2810 H 270.078 3.19249 -0.534975 0
M  V30 2811 H 268.985 2.53014 -2.75562 0
M  V30 2812 H 270.318 3.34336 -3.61221 0
M  V30 2813 N 271.97 1.30982 0.876444 0
M  V30 2814 C 273.198 1.23242 1.6619 0
M  V30 2815 C 273.613 -0.203345 1.87702 0
M  V30 2816 O 272.97 -1.13317 1.43057 0
M  V30 2817 C 273.021 1.96623 3.03351 0
M  V30 2818 O 272.742 3.34594 2.82804 0
M  V30 2819 C 274.243 1.95644 3.97792 0
M  V30 2820 H 271.463 0.426126 0.518322 0
M  V30 2821 H 274.007 1.7275 1.09442 0
M  V30 2822 H 272.162 1.50892 3.56806 0
M  V30 2823 H 272.576 3.71873 3.69879 0
M  V30 2824 H 274.05 2.51511 4.91372 0
M  V30 2825 H 274.527 0.937395 4.2908 0
M  V30 2826 H 275.133 2.41225 3.50272 0
M  V30 2827 N 273.449 -1.08991 1.13837 0
M  V30 2828 C 274.698 -1.80631 0.897509 0
M  V30 2829 C 275.011 -1.86872 -0.57777 0
M  V30 2830 O 276.217 -2.54866 -0.935701 0
M  V30 2831 C 274.673 -3.24517 1.55618 0
M  V30 2832 C 274.281 -3.26529 3.0673 0
M  V30 2833 C 276.025 -4.00882 1.3962 0
M  V30 2834 C 273.932 -4.64965 3.65461 0
M  V30 2835 H 272.862 -0.67691 0.332129 0
M  V30 2836 H 275.513 -1.2246 1.3666 0
M  V30 2837 H 273.895 -3.82778 1.01476 0
M  V30 2838 H 275.069 -2.78008 3.67489 0
M  V30 2839 H 273.384 -2.63656 3.22296 0
M  V30 2840 H 275.981 -5.03167 1.80906 0
M  V30 2841 H 276.324 -4.14896 0.341578 0
M  V30 2842 H 276.857 -3.49075 1.90766 0
M  V30 2843 H 273.596 -4.56153 4.70749 0
M  V30 2844 H 273.116 -5.13792 3.09481 0
M  V30 2845 H 274.795 -5.3394 3.654 0
M  V30 2846 N 274.927 -0.932562 -1.27047 0
M  V30 2847 C 276.155 -0.592031 -1.98249 0
M  V30 2848 C 276.57 0.831062 -1.69525 0
M  V30 2849 O 275.927 1.55299 -0.958561 0
M  V30 2850 C 275.978 -0.814279 -3.5221 0
M  V30 2851 O 275.699 -2.18139 -3.7993 0
M  V30 2852 C 277.2 -0.483121 -4.4066 0
M  V30 2853 H 274.42 -0.223896 -0.632544 0
M  V30 2854 H 276.964 -1.25091 -1.61779 0
M  V30 2855 H 275.119 -0.20213 -3.86872 0
M  V30 2856 H 275.533 -2.235 -4.74498 0
M  V30 2857 H 277.007 -0.689298 -5.47679 0
M  V30 2858 H 277.484 0.581546 -4.35333 0
M  V30 2859 H 278.09 -1.07362 -4.11526 0
M  V30 2860 N 276.405 1.4127 -0.698611 0
M  V30 2861 C 277.352 2.30773 -0.0352094 0
M  V30 2862 C 278.322 1.47273 0.768111 0
M  V30 2863 O 279.507 1.76053 0.735524 0
M  V30 2864 C 276.647 3.33346 0.893 0
M  V30 2865 C 275.76 4.31924 0.0809695 0
M  V30 2866 C 274.895 5.21566 1.0071 0
M  V30 2867 C 273.934 6.11811 0.188155 0
M  V30 2868 N 273.071 6.93926 1.06825 0
M  V30 2869 H 277.911 2.86943 -0.804207 0
M  V30 2870 H 275.448 1.4132 -0.408294 0
M  V30 2871 H 277.406 3.91368 1.44523 0
M  V30 2872 H 276.036 2.78719 1.62836 0
M  V30 2873 H 275.088 3.75825 -0.588224 0
M  V30 2874 H 276.4 4.95716 -0.553801 0
M  V30 2875 H 275.554 5.84437 1.62845 0
M  V30 2876 H 274.293 4.58008 1.67572 0
M  V30 2877 H 273.298 5.47986 -0.446254 0
M  V30 2878 H 274.523 6.77425 -0.476716 0
M  V30 2879 H 272.469 6.32973 1.72283 0
M  V30 2880 H 272.386 7.54416 0.489123 0
M  V30 2881 H 273.654 7.61262 1.67632 0
M  V30 2882 N 277.883 0.443576 1.51229 0
M  V30 2883 C 279.108 -0.121648 2.07043 0
M  V30 2884 C 279.533 -1.35156 1.30823 0
M  V30 2885 O 278.891 -1.7793 0.347934 0
M  V30 2886 C 278.939 -0.41624 3.5819 0
M  V30 2887 O 278.043 -1.50163 3.8409 0
M  V30 2888 H 277.384 0.000871367 0.663999 0
M  V30 2889 H 279.914 0.626706 1.94765 0
M  V30 2890 H 279.924 -0.664867 4.02546 0
M  V30 2891 H 278.599 0.482653 4.1309 0
M  V30 2892 H 277.176 -1.24248 3.51592 0
M  V30 2893 N 279.361 -1.56624 0.175154 0
M  V30 2894 C 280.609 -1.96609 -0.467885 0
M  V30 2895 C 280.93 -1.06238 -1.63519 0
M  V30 2896 O 280.2 -0.129523 -1.95471 0
M  V30 2897 H 278.78 -0.726008 -0.175845 0
M  V30 2898 H 281.442 -1.93195 0.257234 0
M  V30 2899 H 280.538 -3.00989 -0.825342 0
M  V30 2900 N 280.839 0.0985539 -1.57292 0
M  V30 2901 C 281.769 1.12064 -2.04851 0
M  V30 2902 C 282.75 1.41981 -0.936767 0
M  V30 2903 O 283.935 1.52071 -1.20781 0
M  V30 2904 C 281.065 2.44144 -2.47004 0
M  V30 2905 C 280.019 2.28643 -3.6181 0
M  V30 2906 C 279.345 3.65869 -3.89929 0
M  V30 2907 C 280.645 1.72986 -4.92822 0
M  V30 2908 H 282.339 0.724979 -2.9049 0
M  V30 2909 H 279.885 0.34729 -1.39749 0
M  V30 2910 H 281.838 3.15914 -2.78884 0
M  V30 2911 H 280.562 2.85639 -1.5836 0
M  V30 2912 H 279.221 1.59318 -3.30172 0
M  V30 2913 H 278.869 4.04885 -2.98458 0
M  V30 2914 H 278.569 3.56344 -4.67218 0
M  V30 2915 H 280.093 4.39112 -4.2428 0
M  V30 2916 H 281.507 2.34593 -5.23105 0
M  V30 2917 H 279.904 1.74229 -5.74251 0
M  V30 2918 H 280.974 0.689007 -4.7998 0
M  V30 2919 N 282.317 1.53212 0.369288 0
M  V30 2920 C 283.249 1.75668 1.47219 0
M  V30 2921 C 284.262 0.637387 1.49804 0
M  V30 2922 O 285.451 0.913561 1.5335 0
M  V30 2923 C 282.551 1.81818 2.85999 0
M  V30 2924 C 281.724 3.11409 3.07153 0
M  V30 2925 C 280.783 3.08849 4.26026 0
M  V30 2926 O 279.809 3.82659 4.2138 0
M  V30 2927 N 281.011 2.29409 5.33246 0
M  V30 2928 H 283.776 2.70832 1.28337 0
M  V30 2929 H 281.337 1.51944 0.55898 0
M  V30 2930 H 283.329 1.77588 3.63655 0
M  V30 2931 H 281.899 0.939544 2.98146 0
M  V30 2932 H 281.119 3.28971 2.1719 0
M  V30 2933 H 282.407 3.97059 3.18154 0
M  V30 2934 H 281.805 1.68946 5.39883 0
M  V30 2935 H 280.362 2.31001 6.09493 0
M  V30 2936 N 283.795 -0.628877 1.44509 0
M  V30 2937 C 285.044 -1.38437 1.4669 0
M  V30 2938 C 285.357 -1.95322 0.104272 0
M  V30 2939 O 286.563 -2.715 0.00362163 0
M  V30 2940 C 285.019 -2.50659 2.5826 0
M  V30 2941 C 284.627 -2.00277 4.0074 0
M  V30 2942 C 286.371 -3.27844 2.69664 0
M  V30 2943 C 284.278 -3.09854 5.0373 0
M  V30 2944 H 283.208 -0.520245 0.545766 0
M  V30 2945 H 285.859 -0.676313 1.70582 0
M  V30 2946 H 284.241 -3.2405 2.27612 0
M  V30 2947 H 285.415 -1.33736 4.40966 0
M  V30 2948 H 283.73 -1.35901 3.93599 0
M  V30 2949 H 286.327 -4.09534 3.43781 0
M  V30 2950 H 286.67 -3.77471 1.75559 0
M  V30 2951 H 287.203 -2.61543 2.99733 0
M  V30 2952 H 283.942 -2.65168 5.99472 0
M  V30 2953 H 283.462 -3.7503 4.68095 0
M  V30 2954 H 285.141 -3.74592 5.27532 0
M  V30 2955 N 285.273 -1.31445 -0.869486 0
M  V30 2956 C 286.521 -1.20918 -1.61936 0
M  V30 2957 C 286.842 0.232683 -1.93607 0
M  V30 2958 O 286.112 1.15352 -1.58338 0
M  V30 2959 H 284.692 -0.44454 -0.600328 0
M  V30 2960 H 287.354 -1.64776 -1.0409 0
M  V30 2961 H 286.45 -1.78124 -2.56278 0
M  V30 2962 N 286.751 1.08385 -1.14413 0
M  V30 2963 C 287.976 1.85057 -0.936413 0
M  V30 2964 C 288.401 1.81055 0.509971 0
M  V30 2965 O 287.759 1.1958 1.36273 0
M  V30 2966 C 287.807 3.30505 -1.44217 0
M  V30 2967 O 286.911 4.07491 -0.634409 0
M  V30 2968 H 286.252 0.573425 -0.334784 0
M  V30 2969 H 288.782 1.36799 -1.52142 0
M  V30 2970 H 288.792 3.81348 -1.45043 0
M  V30 2971 H 287.467 3.32734 -2.49522 0
M  V30 2972 H 286.044 3.66368 -0.694902 0
M  V30 2973 N 288.23 0.939286 1.26551 0
M  V30 2974 C 289.507 0.5038 1.89001 0
M  V30 2975 C 289.887 -1.01854 1.84903 0
M  V30 2976 O 289.235 -1.87773 1.30206 0
M  V30 2977 C 289.445 1.063 3.32417 0
M  V30 2978 C 290.793 1.13051 4.09273 0
M  V30 2979 O 291.817 1.01345 3.41479 0
M  V30 2980 O 290.676 1.31233 5.30509 0
M  V30 2981 H 287.77 0.163897 0.810597 0
M  V30 2982 H 290.316 1.03173 1.34735 0
M  V30 2983 H 289.088 2.10665 3.29752 0
M  V30 2984 H 288.711 0.517408 3.94219 0
M  V30 2985 N 289.708 -1.40897 0.706093 0
M  V30 2986 C 290.656 -2.32572 0.0361893 0
M  V30 2987 C 291.65 -1.51532 -0.757266 0
M  V30 2988 O 292.856 -1.67396 -0.661703 0
M  V30 2989 H 289.231 -0.751966 -0.00709935 0
M  V30 2990 H 291.202 -2.86733 0.826249 0
M  V30 2991 C 289.951 -3.36418 -0.87854 0
M  V30 2992 H 289.274 -3.98836 -0.277401 0
M  V30 2993 H 290.714 -4.0308 -1.3154 0
M  V30 2994 C 289.173 -2.71141 -1.99961 0
M  V30 2995 O 289.703 -2.56735 -3.0895 0
M  V30 2996 N 287.909 -2.29671 -1.78043 0
M  V30 2997 H 287.456 -2.41588 -0.894042 0
M  V30 2998 H 287.414 -1.86332 -2.53235 0
M  V30 2999 N 291.186 -0.45159 -1.50991 0
M  V30 3000 C 292.149 0.341117 -2.26647 0
M  V30 3001 C 293.149 0.937422 -1.30649 0
M  V30 3002 O 294.339 0.809644 -1.54241 0
M  V30 3003 C 291.471 1.48398 -3.06905 0
M  V30 3004 H 292.664 -0.322117 -2.98165 0
M  V30 3005 H 290.217 -0.205122 -1.54948 0
M  V30 3006 H 290.952 2.18284 -2.39838 0
M  V30 3007 H 290.737 1.06241 -3.77432 0
M  V30 3008 H 292.227 2.04367 -3.64176 0
M  V30 3009 N 292.664 1.56529 -0.183458 0
M  V30 3010 C 293.574 2.22144 0.754272 0
M  V30 3011 C 294.59 1.21684 1.24374 0
M  V30 3012 O 295.766 1.54385 1.29333 0
M  V30 3013 C 292.831 2.85884 1.96141 0
M  V30 3014 C 291.892 4.01579 1.51765 0
M  V30 3015 C 291.125 4.6227 2.66725 0
M  V30 3016 O 291.348 4.21865 3.83909 0
M  V30 3017 O 290.282 5.51936 2.40104 0
M  V30 3018 H 294.108 3.02861 0.225527 0
M  V30 3019 H 291.693 1.49331 0.0453032 0
M  V30 3020 H 293.575 3.26253 2.66715 0
M  V30 3021 H 292.25 2.08154 2.47899 0
M  V30 3022 H 291.157 3.65856 0.781049 0
M  V30 3023 H 292.49 4.80938 1.04686 0
M  V30 3024 N 294.142 -0.090211 1.57342 0
M  V30 3025 C 295.37 -0.806224 1.90546 0
M  V30 3026 C 295.785 -1.72041 0.777644 0
M  V30 3027 O 295.142 -1.80778 -0.250103 0
M  V30 3028 C 295.193 -1.61546 3.23396 0
M  V30 3029 O 294.914 -0.738043 4.31839 0
M  V30 3030 C 296.415 -2.4341 3.70495 0
M  V30 3031 H 293.635 -0.230256 0.630257 0
M  V30 3032 H 296.179 -0.0659843 2.04394 0
M  V30 3033 H 294.334 -2.30816 3.11131 0
M  V30 3034 H 294.748 -1.29901 5.08159 0
M  V30 3035 H 296.222 -2.95676 4.66133 0
M  V30 3036 H 296.699 -3.22098 2.98579 0
M  V30 3037 H 297.305 -1.79331 3.85643 0
M  V30 3038 N 295.62 -1.53406 -0.361157 0
M  V30 3039 C 296.552 -1.76446 -1.46286 0
M  V30 3040 C 297.565 -0.645322 -1.49464 0
M  V30 3041 O 298.754 -0.921681 -1.52864 0
M  V30 3042 C 295.854 -1.83332 -2.85031 0
M  V30 3043 C 295.027 -3.13033 -3.05498 0
M  V30 3044 C 294.086 -3.11104 -4.24383 0
M  V30 3045 O 293.112 -3.84888 -4.19344 0
M  V30 3046 N 294.314 -2.32234 -5.32022 0
M  V30 3047 H 297.079 -2.71508 -1.26899 0
M  V30 3048 H 294.64 -1.52238 -0.550915 0
M  V30 3049 H 296.632 -1.79514 -3.62708 0
M  V30 3050 H 295.202 -0.955342 -2.97644 0
M  V30 3051 H 294.422 -3.30119 -2.15442 0
M  V30 3052 H 295.71 -3.9874 -3.16044 0
M  V30 3053 H 295.108 -1.71807 -5.38979 0
M  V30 3054 H 293.665 -2.3423 -6.08259 0
M  V30 3055 N 297.098 0.621204 -1.44841 0
M  V30 3056 C 298.061 1.71459 -1.521 0
M  V30 3057 C 299.061 1.55696 -0.401933 0
M  V30 3058 O 300.251 1.61011 -0.664925 0
M  V30 3059 C 297.383 3.10624 -1.40447 0
M  V30 3060 H 298.576 1.66394 -2.49506 0
M  V30 3061 H 296.129 0.835745 -1.3208 0
M  V30 3062 H 296.864 3.21277 -0.441737 0
M  V30 3063 H 296.649 3.23473 -2.21602 0
M  V30 3064 H 298.139 3.90293 -1.4853 0
M  V30 3065 N 298.576 1.31904 0.862503 0
M  V30 3066 C 299.523 1.20182 1.9704 0
M  V30 3067 C 300.493 0.0858247 1.65878 0
M  V30 3068 O 301.678 0.26 1.8902 0
M  V30 3069 C 298.818 0.922797 3.32533 0
M  V30 3070 C 297.931 2.12284 3.76244 0
M  V30 3071 C 297.066 1.77996 5.00491 0
M  V30 3072 C 296.105 2.94366 5.36671 0
M  V30 3073 N 295.242 2.60223 6.52095 0
M  V30 3074 H 300.082 2.14951 2.06398 0
M  V30 3075 H 297.619 1.06917 1.01031 0
M  V30 3076 H 299.577 0.741548 4.10557 0
M  V30 3077 H 298.207 0.0119227 3.22798 0
M  V30 3078 H 297.259 2.41461 2.9394 0
M  V30 3079 H 298.571 2.99357 3.98982 0
M  V30 3080 H 297.725 1.56377 5.862 0
M  V30 3081 H 296.464 0.881252 4.79672 0
M  V30 3082 H 295.469 3.16625 4.49476 0
M  V30 3083 H 296.694 3.84957 5.59451 0
M  V30 3084 H 294.64 1.72884 6.32809 0
M  V30 3085 H 294.557 3.40827 6.74814 0
M  V30 3086 H 295.825 2.42016 7.40978 0
M  V30 3087 N 300.054 -1.07777 1.14986 0
M  V30 3088 C 301.465 -1.61766 0.932127 0
M  V30 3089 C 301.816 -1.88974 -0.527581 0
M  V30 3090 O 300.941 -1.65198 -1.39781 0
M  V30 3091 C 301.536 -2.93891 1.68563 0
M  V30 3092 C 300.095 -3.44639 1.5133 0
M  V30 3093 C 299.242 -2.18767 1.704 0
M  V30 3094 H 302.193 -0.909201 1.30074 0
M  V30 3095 H 302.214 -3.62623 1.15259 0
M  V30 3096 H 301.726 -2.74057 2.74799 0
M  V30 3097 H 299.827 -3.69564 0.474702 0
M  V30 3098 H 299.94 -4.20966 2.28746 0
M  V30 3099 H 298.304 -2.28253 1.13016 0
M  V30 3100 H 299.087 -2.01433 2.77992 0
M  V30 3101 N 301.532 -0.945985 -1.26051 0
M  V30 3102 C 302.778 -0.597002 -1.93814 0
M  V30 3103 C 303.111 0.862484 -1.73997 0
M  V30 3104 O 302.386 1.61769 -1.07986 0
M  V30 3105 C 302.669 -0.945937 -3.47454 0
M  V30 3106 C 302.522 -2.46052 -3.76535 0
M  V30 3107 C 303.841 -0.464785 -4.37639 0
M  V30 3108 H 300.96 -0.218366 -0.703907 0
M  V30 3109 H 303.602 -1.18107 -1.48831 0
M  V30 3110 H 301.752 -0.448902 -3.85898 0
M  V30 3111 H 303.424 -3.03065 -3.47778 0
M  V30 3112 H 301.667 -2.90194 -3.22444 0
M  V30 3113 H 302.338 -2.65517 -4.83947 0
M  V30 3114 H 304.814 -0.891016 -4.06448 0
M  V30 3115 H 303.69 -0.737712 -5.4392 0
M  V30 3116 H 303.951 0.635274 -4.37512 0
M  V30 3117 N 303.011 1.40521 -0.713556 0
M  V30 3118 C 304.241 2.0494 -0.261395 0
M  V30 3119 C 304.649 1.53861 1.10107 0
M  V30 3120 O 303.992 0.689321 1.70276 0
M  V30 3121 C 304.054 3.59138 -0.161227 0
M  V30 3122 C 303.718 4.33096 -1.45865 0
M  V30 3123 C 304.715 4.61182 -2.40016 0
M  V30 3124 C 302.4 4.72043 -1.71701 0
M  V30 3125 C 304.394 5.27196 -3.58251 0
M  V30 3126 C 302.081 5.37789 -2.90218 0
M  V30 3127 C 303.079 5.65295 -3.83315 0
M  V30 3128 O 302.767 6.29683 -4.99754 0
M  V30 3129 H 302.499 0.666041 -0.115608 0
M  V30 3130 H 305.053 1.80954 -0.971849 0
M  V30 3131 H 303.283 3.81936 0.605153 0
M  V30 3132 H 304.972 4.05091 0.256105 0
M  V30 3133 H 305.738 4.31559 -2.21318 0
M  V30 3134 H 301.617 4.50003 -1.00092 0
M  V30 3135 H 305.161 5.48582 -4.30934 0
M  V30 3136 H 301.058 5.66831 -3.08825 0
M  V30 3137 H 301.826 6.4818 -4.99805 0
M  V30 3138 N 304.489 0.459591 1.5075 0
M  V30 3139 C 305.452 -0.329093 2.26825 0
M  V30 3140 C 306.452 -0.930481 1.31144 0
M  V30 3141 O 307.642 -0.801453 1.54669 0
M  V30 3142 C 304.774 -1.46768 3.07688 0
M  V30 3143 H 305.967 0.337924 2.9799 0
M  V30 3144 H 303.52 0.213336 1.54837 0
M  V30 3145 H 304.255 -2.17009 2.40993 0
M  V30 3146 H 304.04 -1.04238 3.77991 0
M  V30 3147 H 305.53 -2.02433 3.65254 0
M  V30 3148 N 305.967 -1.56429 0.191757 0
M  V30 3149 C 307.244 -1.89224 -0.495332 0
M  V30 3150 C 307.624 -1.10478 -1.79883 0
M  V30 3151 O 306.972 -0.204852 -2.2758 0
M  V30 3152 C 307.182 -3.41548 -0.717367 0
M  V30 3153 C 308.53 -4.11711 -1.03823 0
M  V30 3154 O 309.554 -3.4698 -0.805204 0
M  V30 3155 O 308.413 -5.2611 -1.47887 0
M  V30 3156 H 305.507 -0.785788 -0.25781 0
M  V30 3157 H 308.053 -1.68111 0.231721 0
M  V30 3158 H 306.825 -3.90772 0.203287 0
M  V30 3159 H 306.448 -3.68342 -1.497 0
M  V30 3160 N 307.445 0.0818655 -1.57387 0
M  V30 3161 C 308.856 0.634871 -1.75574 0
M  V30 3162 C 309.207 1.78435 -0.815809 0
M  V30 3163 O 308.332 2.164 0.0025366 0
M  V30 3164 C 308.927 1.15845 -3.18379 0
M  V30 3165 C 307.486 1.65741 -3.37945 0
M  V30 3166 C 306.633 0.572549 -2.71325 0
M  V30 3167 H 309.584 -0.144268 -1.58043 0
M  V30 3168 H 309.605 2.02751 -3.21982 0
M  V30 3169 H 309.117 0.321631 -3.86765 0
M  V30 3170 H 307.218 2.51781 -2.74658 0
M  V30 3171 H 307.331 1.74129 -4.46336 0
M  V30 3172 H 305.695 1.01518 -2.33594 0
M  V30 3173 H 306.478 -0.253918 -3.4236 0
M  V30 3174 N 308.923 1.53595 0.353017 0
M  V30 3175 C 310.148 1.7462 1.11904 0
M  V30 3176 C 310.573 0.479721 1.8188 0
M  V30 3177 O 309.931 -0.567066 1.72204 0
M  V30 3178 C 309.979 2.92029 2.11545 0
M  V30 3179 O 309.083 2.61516 3.18878 0
M  V30 3180 H 308.424 0.579531 0.324099 0
M  V30 3181 H 310.954 2.00525 0.406301 0
M  V30 3182 H 310.964 3.18551 2.5493 0
M  V30 3183 H 309.639 3.83888 1.60008 0
M  V30 3184 H 308.216 2.45852 2.80377 0
M  V30 3185 N 310.401 -0.613514 1.45168 0
M  V30 3186 C 311.631 -1.39743 1.52169 0
M  V30 3187 C 312.039 -1.88596 0.151086 0
M  V30 3188 O 311.382 -1.6251 -0.856521 0
M  V30 3189 C 311.444 -2.64035 2.43979 0
M  V30 3190 C 311.108 -2.36861 3.90827 0
M  V30 3191 C 312.105 -1.97591 4.80889 0
M  V30 3192 C 309.79 -2.49956 4.35692 0
M  V30 3193 C 311.784 -1.71768 6.1382 0
M  V30 3194 C 309.471 -2.23747 5.68665 0
M  V30 3195 C 310.469 -1.84714 6.57548 0
M  V30 3196 O 310.157 -1.58809 7.88058 0
M  V30 3197 H 309.889 -0.434382 0.517966 0
M  V30 3198 H 312.443 -0.75587 1.90986 0
M  V30 3199 H 310.673 -3.3089 2.00122 0
M  V30 3200 H 312.362 -3.26069 2.41731 0
M  V30 3201 H 313.128 -1.87015 4.47493 0
M  V30 3202 H 309.007 -2.79305 3.66756 0
M  V30 3203 H 312.551 -1.41227 6.83155 0
M  V30 3204 H 308.448 -2.33938 6.01617 0
M  V30 3205 H 309.216 -1.7291 8.00028 0
M  V30 3206 N 311.879 -1.3236 -0.855495 0
M  V30 3207 C 312.811 -1.17052 -1.97057 0
M  V30 3208 C 313.824 -0.10574 -1.62456 0
M  V30 3209 O 315.013 -0.354619 -1.74942 0
M  V30 3210 C 312.113 -0.769305 -3.30053 0
M  V30 3211 C 311.286 -1.9222 -3.929 0
M  V30 3212 C 310.345 -1.50466 -5.04228 0
M  V30 3213 O 309.371 -2.21655 -5.24269 0
M  V30 3214 N 310.573 -0.400209 -5.79119 0
M  V30 3215 H 313.338 -2.13103 -2.1073 0
M  V30 3216 H 310.899 -1.24885 -1.0303 0
M  V30 3217 H 312.891 -0.472407 -4.01933 0
M  V30 3218 H 311.461 0.100025 -3.1244 0
M  V30 3219 H 310.681 -2.38563 -3.13817 0
M  V30 3220 H 311.969 -2.69403 -4.31624 0
M  V30 3221 H 311.367 0.192319 -5.65373 0
M  V30 3222 H 309.924 -0.162912 -6.51596 0
M  V30 3223 N 313.357 1.07166 -1.15556 0
M  V30 3224 C 314.768 1.6127 -0.940693 0
M  V30 3225 C 315.119 1.89251 0.517551 0
M  V30 3226 O 314.244 1.65937 1.38903 0
M  V30 3227 C 314.839 2.92993 -1.7012 0
M  V30 3228 C 313.398 3.43832 -1.53156 0
M  V30 3229 C 312.545 2.1786 -1.71558 0
M  V30 3230 H 315.496 0.90229 -1.30554 0
M  V30 3231 H 315.517 3.62007 -1.17181 0
M  V30 3232 H 315.029 2.72596 -2.76248 0
M  V30 3233 H 313.13 3.69307 -0.494294 0
M  V30 3234 H 313.243 4.19747 -2.30975 0
M  V30 3235 H 311.607 2.2765 -1.14225 0
M  V30 3236 H 312.39 1.99956 -2.79056 0
M  V30 3237 N 314.835 0.952656 1.25548 0
M  V30 3238 C 315.745 0.47782 2.29682 0
M  V30 3239 C 316.761 -0.453859 1.67977 0
M  V30 3240 O 317.937 -0.330587 1.98668 0
M  V30 3241 C 315.002 -0.238655 3.45878 0
M  V30 3242 C 314.063 0.730994 4.23031 0
M  V30 3243 C 313.296 0.0486165 5.33678 0
M  V30 3244 O 313.519 -1.16612 5.58353 0
M  V30 3245 O 312.453 0.733152 5.97418 0
M  V30 3246 H 316.279 1.34312 2.72386 0
M  V30 3247 H 313.864 0.719026 1.30959 0
M  V30 3248 H 315.746 -0.641774 4.16484 0
M  V30 3249 H 314.421 -1.07916 3.05181 0
M  V30 3250 H 313.328 1.18428 3.5486 0
M  V30 3251 H 314.661 1.53946 4.67506 0
M  V30 3252 N 316.313 -1.40141 0.720998 0
M  V30 3253 C 317.724 -1.83678 0.334553 0
M  V30 3254 C 318.075 -1.6027 -1.13173 0
M  V30 3255 O 317.2 -1.08643 -1.87152 0
M  V30 3256 C 317.795 -3.33437 0.600437 0
M  V30 3257 C 316.354 -3.75447 0.267642 0
M  V30 3258 C 315.501 -2.63296 0.870097 0
M  V30 3259 H 318.452 -1.29331 0.919732 0
M  V30 3260 H 318.473 -3.80269 -0.132517 0
M  V30 3261 H 317.985 -3.50442 1.66768 0
M  V30 3262 H 316.086 -3.64035 -0.794329 0
M  V30 3263 H 316.199 -4.73344 0.74042 0
M  V30 3264 H 314.563 -2.52954 0.297739 0
M  V30 3265 H 315.346 -2.83112 1.94172 0
M  V30 3266 N 317.792 -0.46758 -1.50504 0
M  V30 3267 C 318.724 0.364655 -2.26281 0
M  V30 3268 C 319.737 0.960151 -1.31472 0
M  V30 3269 O 320.926 0.849153 -1.57008 0
M  V30 3270 C 318.026 1.52509 -3.02645 0
M  V30 3271 C 317.199 1.04302 -4.24782 0
M  V30 3272 C 316.258 2.07709 -4.8347 0
M  V30 3273 O 315.284 1.65913 -5.44483 0
M  V30 3274 N 316.486 3.40485 -4.70159 0
M  V30 3275 H 319.251 -0.28495 -2.98342 0
M  V30 3276 H 316.812 -0.298163 -1.59131 0
M  V30 3277 H 318.804 2.21371 -3.38787 0
M  V30 3278 H 317.374 2.07945 -2.33404 0
M  V30 3279 H 316.594 0.180393 -3.93787 0
M  V30 3280 H 317.882 0.698798 -5.03978 0
M  V30 3281 H 317.28 3.77155 -4.21629 0
M  V30 3282 H 315.837 4.05156 -5.1058 0
M  V30 3283 N 319.27 1.56325 -0.20005 0
M  V30 3284 C 320.519 1.96895 0.437652 0
M  V30 3285 C 320.832 1.08999 1.62415 0
M  V30 3286 O 322.038 1.39372 2.32997 0
M  V30 3287 C 320.494 3.50198 0.830025 0
M  V30 3288 C 320.102 4.46765 -0.332461 0
M  V30 3289 C 321.846 3.99526 1.43453 0
M  V30 3290 C 319.753 5.91344 0.0811468 0
M  V30 3291 H 318.683 0.735209 0.167282 0
M  V30 3292 H 321.334 1.81148 -0.292853 0
M  V30 3293 H 319.716 3.61467 1.61734 0
M  V30 3294 H 320.89 4.47231 -1.11 0
M  V30 3295 H 319.205 4.07657 -0.848789 0
M  V30 3296 H 321.802 5.05025 1.75652 0
M  V30 3297 H 322.145 3.44122 2.34277 0
M  V30 3298 H 322.678 3.91393 0.71109 0
M  V30 3299 H 319.417 6.50685 -0.793033 0
M  V30 3300 H 318.937 5.94121 0.823445 0
M  V30 3301 H 320.616 6.44945 0.515252 0
M  V30 3302 N 320.748 -0.0735177 1.57428 0
M  V30 3303 C 321.996 -0.771472 1.86796 0
M  V30 3304 C 322.317 -1.78201 0.791804 0
M  V30 3305 O 321.587 -1.95074 -0.179718 0
M  V30 3306 H 320.167 -0.28791 0.689287 0
M  V30 3307 H 322.829 -0.0500161 1.94836 0
M  V30 3308 H 321.925 -1.28874 2.8425 0
M  V30 3309 N 322.226 -1.5378 -0.344866 0
M  V30 3310 C 323.136 -1.84667 -1.4469 0
M  V30 3311 C 324.152 -0.736704 -1.57635 0
M  V30 3312 O 325.328 -1.02888 -1.73136 0
M  V30 3313 C 322.393 -2.04869 -2.79696 0
M  V30 3314 C 321.454 -3.28731 -2.76106 0
M  V30 3315 C 320.687 -3.4796 -4.04673 0
M  V30 3316 O 320.91 -2.71052 -5.01883 0
M  V30 3317 O 319.844 -4.41383 -4.09224 0
M  V30 3318 H 323.67 -2.78334 -1.21506 0
M  V30 3319 H 321.255 -1.39418 -0.536921 0
M  V30 3320 H 323.137 -2.19609 -3.59652 0
M  V30 3321 H 321.812 -1.14391 -3.02814 0
M  V30 3322 H 320.719 -3.19396 -1.94774 0
M  V30 3323 H 322.052 -4.19198 -2.57941 0
M  V30 3324 N 323.704 0.605807 -1.45491 0
M  V30 3325 C 324.929 1.39625 -1.53361 0
M  V30 3326 C 325.354 1.87351 -0.167645 0
M  V30 3327 O 324.712 1.60243 0.848051 0
M  V30 3328 C 324.76 2.57559 -2.5238 0
M  V30 3329 O 323.864 3.58248 -2.04285 0
M  V30 3330 H 323.205 0.416771 -0.516912 0
M  V30 3331 H 325.735 0.737103 -1.90861 0
M  V30 3332 H 325.745 3.0478 -2.71244 0
M  V30 3333 H 324.42 2.22171 -3.51586 0
M  V30 3334 H 322.997 3.17664 -1.95305 0
M  V30 3335 N 325.182 1.32811 0.848464 0
M  V30 3336 C 326.114 1.18095 1.96433 0
M  V30 3337 C 327.127 0.114354 1.62398 0
M  V30 3338 O 328.316 0.363892 1.74751 0
M  V30 3339 C 325.416 0.786798 3.2964 0
M  V30 3340 C 324.589 1.943 3.91875 0
M  V30 3341 C 323.648 1.53138 5.03423 0
M  V30 3342 O 322.674 2.24432 5.23086 0
M  V30 3343 N 323.876 0.430915 5.78898 0
M  V30 3344 H 326.641 2.14218 2.09597 0
M  V30 3345 H 324.202 1.2543 1.02367 0
M  V30 3346 H 326.194 0.493715 4.01677 0
M  V30 3347 H 324.764 -0.0834541 3.12489 0
M  V30 3348 H 323.984 2.40224 3.12547 0
M  V30 3349 H 325.272 2.71689 4.30189 0
M  V30 3350 H 324.67 -0.162333 5.65467 0
M  V30 3351 H 323.227 0.197466 6.51501 0
M  V30 3352 N 326.66 -1.06551 1.16123 0
M  V30 3353 C 327.906 -1.79719 0.952505 0
M  V30 3354 C 328.261 -1.85396 -0.514385 0
M  V30 3355 O 327.554 -1.33263 -1.37665 0
M  V30 3356 C 327.748 -3.23911 1.51052 0
M  V30 3357 C 327.577 -3.32284 3.03013 0
M  V30 3358 C 326.347 -3.42371 3.71632 0
M  V30 3359 C 328.545 -3.22363 4.00732 0
M  V30 3360 N 326.527 -3.39732 5.11327 0
M  V30 3361 C 327.898 -3.26937 5.26794 0
M  V30 3362 C 329.953 -3.0623 3.92591 0
M  V30 3363 C 328.656 -3.17035 6.45663 0
M  V30 3364 C 330.682 -2.97665 5.11028 0
M  V30 3365 C 330.044 -3.02858 6.35969 0
M  V30 3366 H 326.143 -0.670585 0.402293 0
M  V30 3367 H 328.727 -1.27125 1.4747 0
M  V30 3368 H 326.898 -3.74907 1.01484 0
M  V30 3369 H 328.63 -3.85242 1.2398 0
M  V30 3370 H 325.385 -3.47058 3.22254 0
M  V30 3371 H 325.809 -3.41919 5.84312 0
M  V30 3372 H 330.451 -3.01063 2.96852 0
M  V30 3373 H 328.169 -3.2096 7.41627 0
M  V30 3374 H 331.755 -2.86273 5.06497 0
M  V30 3375 H 330.635 -2.96286 7.26075 0
M  V30 3376 N 328.138 -0.959301 -1.25041 0
M  V30 3377 C 329.086 -0.474437 -2.2771 0
M  V30 3378 C 330.08 0.457697 -1.631 0
M  V30 3379 O 331.286 0.333912 -1.76876 0
M  V30 3380 H 327.661 -0.134936 -0.739795 0
M  V30 3381 H 329.632 -1.35251 -2.65988 0
M  V30 3382 C 328.381 0.227884 -3.46952 0
M  V30 3383 H 327.704 -0.480248 -3.96905 0
M  V30 3384 H 329.144 0.531091 -4.20661 0
M  V30 3385 C 327.603 1.452 -3.04004 0
M  V30 3386 O 328.133 2.54949 -3.10426 0
M  V30 3387 N 326.339 1.31502 -2.59144 0
M  V30 3388 H 325.886 0.422065 -2.54119 0
M  V30 3389 H 325.844 2.13521 -2.30773 0
M  V30 3390 N 329.616 1.39756 -0.72842 0
M  V30 3391 C 330.526 2.34444 -0.0855374 0
M  V30 3392 C 331.542 1.57976 0.729356 0
M  V30 3393 O 332.718 1.90301 0.659346 0
M  V30 3394 C 329.783 3.36965 0.815798 0
M  V30 3395 C 328.844 4.29299 -0.0105996 0
M  V30 3396 C 328.077 5.26923 0.84781 0
M  V30 3397 O 328.3 5.30859 2.08673 0
M  V30 3398 O 327.234 6.01249 0.279969 0
M  V30 3399 H 331.06 2.91065 -0.866892 0
M  V30 3400 H 328.645 1.4117 -0.48902 0
M  V30 3401 H 330.527 3.99804 1.33171 0
M  V30 3402 H 329.202 2.82739 1.57608 0
M  V30 3403 H 328.109 3.69703 -0.571877 0
M  V30 3404 H 329.442 4.86712 -0.73295 0
M  V30 3405 N 331.094 0.475555 1.50254 0
M  V30 3406 C 332.057 -0.305016 2.27161 0
M  V30 3407 C 333.057 -0.916519 1.32123 0
M  V30 3408 O 334.247 -0.785003 1.5551 0
M  V30 3409 C 331.379 -1.43496 3.09227 0
M  V30 3410 H 332.572 0.369511 2.97615 0
M  V30 3411 H 330.125 0.229747 1.54602 0
M  V30 3412 H 330.86 -2.14441 2.43281 0
M  V30 3413 H 330.645 -1.00223 3.79075 0
M  V30 3414 H 332.135 -1.98548 3.67381 0
M  V30 3415 N 332.573 -1.56217 0.208337 0
M  V30 3416 C 333.85 -1.89739 -0.475234 0
M  V30 3417 C 334.23 -1.1238 -1.78701 0
M  V30 3418 O 333.578 -0.228979 -2.2735 0
M  V30 3419 C 333.788 -3.42289 -0.681101 0
M  V30 3420 C 335.136 -4.12789 -0.994507 0
M  V30 3421 O 336.16 -3.47814 -0.768357 0
M  V30 3422 O 335.019 -5.27649 -1.42299 0
M  V30 3423 H 332.113 -0.788478 -0.249461 0
M  V30 3424 H 334.659 -1.67855 0.249538 0
M  V30 3425 H 333.431 -3.90534 0.244722 0
M  V30 3426 H 333.054 -3.69909 -1.45785 0
M  V30 3427 N 334.051 0.0651679 -1.57465 0
M  V30 3428 C 335.014 1.06117 -2.03155 0
M  V30 3429 C 336.014 1.31204 -0.929632 0
M  V30 3430 O 337.204 1.26813 -1.19432 0
M  V30 3431 C 334.336 2.4032 -2.41783 0
M  V30 3432 H 335.529 0.667231 -2.92383 0
M  V30 3433 H 333.082 0.311075 -1.53173 0
M  V30 3434 H 333.817 2.84532 -1.55601 0
M  V30 3435 H 333.602 2.23451 -3.22199 0
M  V30 3436 H 335.092 3.11898 -2.77685 0
M  V30 3437 N 335.529 1.53961 0.336706 0
M  V30 3438 C 336.477 1.83136 1.43401 0
M  V30 3439 C 337.471 0.702313 1.54156 0
M  V30 3440 O 338.677 0.885765 1.56698 0
M  V30 3441 H 335.052 0.580309 0.478273 0
M  V30 3442 H 337.023 2.74925 1.16012 0
M  V30 3443 C 335.772 2.06385 2.79822 0
M  V30 3444 H 335.095 2.92718 2.72316 0
M  V30 3445 H 336.535 2.30761 3.55704 0
M  V30 3446 C 334.994 0.851414 3.25964 0
M  V30 3447 O 335.524 0.0541904 4.01663 0
M  V30 3448 N 333.73 0.66672 2.82848 0
M  V30 3449 H 333.277 1.31665 2.21409 0
M  V30 3450 H 333.235 -0.143032 3.14074 0
M  V30 3451 N 337.007 -0.598083 1.45811 0
M  V30 3452 C 337.97 -1.69018 1.54808 0
M  V30 3453 C 338.97 -1.55037 0.426652 0
M  V30 3454 O 340.16 -1.59932 0.690456 0
M  V30 3455 C 337.292 -3.0835 1.45371 0
M  V30 3456 H 338.485 -1.62403 2.52121 0
M  V30 3457 H 336.038 -0.814626 1.33392 0
M  V30 3458 H 336.773 -3.20534 0.492793 0
M  V30 3459 H 336.558 -3.19907 2.26721 0
M  V30 3460 H 338.048 -3.8788 1.54721 0
M  V30 3461 N 338.485 -1.33259 -0.841409 0
M  V30 3462 C 339.448 -1.23221 -1.9326 0
M  V30 3463 C 340.448 -0.151895 -1.60081 0
M  V30 3464 O 341.638 -0.403246 -1.69468 0
M  V30 3465 C 338.77 -0.898123 -3.28856 0
M  V30 3466 H 339.963 -2.2021 -2.03587 0
M  V30 3467 H 337.516 -1.17281 -1.03319 0
M  V30 3468 H 338.251 0.0693841 -3.24226 0
M  V30 3469 H 338.036 -1.67934 -3.54317 0
M  V30 3470 H 339.526 -0.852563 -4.08805 0
M  V30 3471 N 339.963 1.05934 -1.16686 0
M  V30 3472 C 341.211 1.78447 -0.948744 0
M  V30 3473 C 341.532 1.87813 0.524523 0
M  V30 3474 O 340.802 1.38945 1.38098 0
M  V30 3475 H 339.382 0.660971 -0.348033 0
M  V30 3476 H 342.044 1.27947 -1.47022 0
M  V30 3477 H 341.14 2.80394 -1.37061 0
M  V30 3478 N 341.441 0.965919 1.2453 0
M  V30 3479 C 342.689 0.625593 1.92174 0
M  V30 3480 C 343.01 -0.841652 1.75901 0
M  V30 3481 O 342.28 -1.60061 1.12948 0
M  V30 3482 H 340.86 0.228388 0.71123 0
M  V30 3483 H 343.522 1.2266 1.51461 0
M  V30 3484 H 342.618 0.864653 2.99884 0
M  V30 3485 N 342.919 -1.39368 0.735821 0
M  V30 3486 C 344.335 -1.54204 0.411492 0
M  V30 3487 C 344.535 -1.70268 -1.07755 0
M  V30 3488 O 343.591 -1.70364 -1.86366 0
M  V30 3489 C 344.904 -2.75925 1.19523 0
M  V30 3490 C 346.452 -2.89761 1.18354 0
M  V30 3491 C 346.927 -4.14421 1.94986 0
M  V30 3492 N 348.418 -4.21462 1.92156 0
M  V30 3493 C 349.153 -5.16871 2.48258 0
M  V30 3494 N 348.649 -6.18063 3.13001 0
M  V30 3495 N 350.442 -5.09093 2.38287 0
M  V30 3496 H 342.593 -1.27189 1.70108 0
M  V30 3497 H 344.856 -0.616517 0.720147 0
M  V30 3498 H 344.562 -2.70401 2.24892 0
M  V30 3499 H 344.436 -3.68614 0.800222 0
M  V30 3500 H 346.823 -2.94777 0.137975 0
M  V30 3501 H 346.904 -1.98133 1.61793 0
M  V30 3502 H 346.548 -4.10166 2.99543 0
M  V30 3503 H 346.478 -5.05095 1.48953 0
M  V30 3504 H 348.969 -3.48979 1.44991 0
M  V30 3505 H 349.282 -6.87326 3.53275 0
M  V30 3506 H 347.627 -6.18448 3.17091 0
M  V30 3507 H 350.818 -4.28973 1.8735 0
M  V30 3508 H 350.991 -5.83272 2.82308 0
M  V30 3509 N 344.397 -0.483516 -1.5 0
M  V30 3510 C 345.643 0.0672592 -2.02688 0
M  V30 3511 C 345.976 1.38247 -1.36387 0
M  V30 3512 O 345.251 1.88131 -0.493675 0
M  V30 3513 C 345.534 0.238109 -3.59312 0
M  V30 3514 C 345.387 -1.099 -4.36168 0
M  V30 3515 C 346.706 0.986916 -4.28892 0
M  V30 3516 H 343.825 0.0229696 -0.736642 0
M  V30 3517 H 346.467 -0.631527 -1.79197 0
M  V30 3518 H 344.617 0.8333 -3.79458 0
M  V30 3519 H 346.289 -1.73172 -4.27562 0
M  V30 3520 H 344.532 -1.69261 -3.99416 0
M  V30 3521 H 345.203 -0.932954 -5.44059 0
M  V30 3522 H 347.679 0.482302 -4.13295 0
M  V30 3523 H 346.555 1.07527 -5.38265 0
M  V30 3524 H 346.816 2.0265 -3.92919 0
M  V30 3525 N 345.875 1.56104 -0.216619 0
M  V30 3526 C 346.805 2.23063 0.690296 0
M  V30 3527 C 347.786 1.20072 1.20485 0
M  V30 3528 O 348.971 1.48643 1.24976 0
M  V30 3529 C 346.101 2.90672 1.90072 0
M  V30 3530 C 345.055 4.00092 1.5202 0
M  V30 3531 C 344.381 4.54972 2.80899 0
M  V30 3532 C 345.681 5.17398 0.71391 0
M  V30 3533 H 347.375 2.99109 0.132038 0
M  V30 3534 H 344.921 1.43866 0.0620664 0
M  V30 3535 H 346.874 3.36204 2.54057 0
M  V30 3536 H 345.598 2.12066 2.48386 0
M  V30 3537 H 344.257 3.55283 0.903839 0
M  V30 3538 H 343.905 3.73102 3.37348 0
M  V30 3539 H 343.605 5.28817 2.56176 0
M  V30 3540 H 345.129 5.0322 3.45836 0
M  V30 3541 H 346.543 5.59342 1.25735 0
M  V30 3542 H 344.94 5.97444 0.563951 0
M  V30 3543 H 346.01 4.84088 -0.280527 0
M  V30 3544 N 347.353 -0.0568162 1.57498 0
M  V30 3545 C 348.3 -1.06591 2.04712 0
M  V30 3546 C 349.27 -1.3758 0.930644 0
M  V30 3547 O 350.455 -1.48392 1.19935 0
M  V30 3548 C 347.595 -2.3701 2.50839 0
M  V30 3549 C 346.708 -2.12421 3.76167 0
M  V30 3550 C 345.843 -3.36511 4.11015 0
M  V30 3551 C 344.882 -3.07353 5.2934 0
M  V30 3552 N 344.019 -4.23816 5.59754 0
M  V30 3553 H 348.859 -0.65631 2.90683 0
M  V30 3554 H 346.396 -0.312481 1.43743 0
M  V30 3555 H 348.354 -3.13175 2.7564 0
M  V30 3556 H 346.984 -2.75744 1.67825 0
M  V30 3557 H 346.036 -1.2688 3.58616 0
M  V30 3558 H 347.348 -1.86894 4.62463 0
M  V30 3559 H 346.502 -4.21062 4.36797 0
M  V30 3560 H 345.241 -3.65128 3.23315 0
M  V30 3561 H 344.246 -2.212 5.03339 0
M  V30 3562 H 345.471 -2.80043 6.1867 0
M  V30 3563 H 343.417 -4.52436 4.75014 0
M  V30 3564 H 343.334 -4.01614 6.40501 0
M  V30 3565 H 344.602 -5.0932 5.90096 0
M  V30 3566 N 348.832 -1.54138 -0.328536 0
M  V30 3567 C 349.779 -1.83176 -1.40411 0
M  V30 3568 C 350.749 -0.678494 -1.5161 0
M  V30 3569 O 351.934 -0.92443 -1.6691 0
M  V30 3570 C 349.074 -2.06035 -2.76846 0
M  V30 3571 C 348.187 -3.33727 -2.74318 0
M  V30 3572 C 347.322 -3.46574 -4.02567 0
M  V30 3573 C 346.361 -4.68159 -3.94327 0
M  V30 3574 N 345.498 -4.77959 -5.14296 0
M  V30 3575 H 350.338 -2.74938 -1.14948 0
M  V30 3576 H 347.875 -1.36166 -0.556538 0
M  V30 3577 H 349.833 -2.1728 -3.56153 0
M  V30 3578 H 348.463 -1.1757 -3.00628 0
M  V30 3579 H 347.515 -3.31246 -1.8703 0
M  V30 3580 H 348.827 -4.23139 -2.64111 0
M  V30 3581 H 347.981 -3.57333 -4.90304 0
M  V30 3582 H 346.72 -2.55245 -4.15574 0
M  V30 3583 H 345.725 -4.57461 -3.04974 0
M  V30 3584 H 346.95 -5.60868 -3.82889 0
M  V30 3585 H 344.896 -3.89544 -5.27818 0
M  V30 3586 H 344.813 -5.6133 -5.06404 0
M  V30 3587 H 346.081 -4.93044 -6.03761 0
M  V30 3588 N 350.31 0.590341 -1.46126 0
M  V30 3589 C 351.538 1.37504 -1.54597 0
M  V30 3590 C 351.953 1.87897 -0.184447 0
M  V30 3591 O 351.31 1.63192 0.816984 0
M  V30 3592 C 351.361 2.56779 -2.54454 0
M  V30 3593 O 351.082 2.08476 -3.85317 0
M  V30 3594 C 352.583 3.49427 -2.72792 0
M  V30 3595 H 349.803 0.420325 -0.523037 0
M  V30 3596 H 352.347 0.718383 -1.91467 0
M  V30 3597 H 350.502 3.1845 -2.20609 0
M  V30 3598 H 350.916 2.86097 -4.396 0
M  V30 3599 H 352.39 4.29619 -3.466 0
M  V30 3600 H 352.867 4.00876 -1.79429 0
M  V30 3601 H 353.473 2.93598 -3.07702 0
M  V30 3602 N 351.788 1.33704 0.83433 0
M  V30 3603 C 353.016 1.28467 1.62185 0
M  V30 3604 C 353.431 -0.143526 1.88254 0
M  V30 3605 O 352.788 -1.08709 1.4659 0
M  V30 3606 C 352.839 2.06174 2.96942 0
M  V30 3607 O 352.56 3.43422 2.72016 0
M  V30 3608 C 354.061 2.08201 3.91366 0
M  V30 3609 H 351.281 0.4424 0.504503 0
M  V30 3610 H 353.825 1.76145 1.03891 0
M  V30 3611 H 351.98 1.62167 3.51825 0
M  V30 3612 H 352.394 3.83453 3.57861 0
M  V30 3613 H 353.868 2.67017 4.83121 0
M  V30 3614 H 354.345 1.07343 4.2588 0
M  V30 3615 H 354.951 2.52246 3.42421 0
M  V30 3616 N 353.266 -1.05314 1.17247 0
M  V30 3617 C 354.677 -1.59753 0.96623 0
M  V30 3618 C 355.028 -1.9005 -0.487378 0
M  V30 3619 O 354.153 -1.68126 -1.36245 0
M  V30 3620 C 354.748 -2.90249 1.74759 0
M  V30 3621 C 353.307 -3.41352 1.58606 0
M  V30 3622 C 352.454 -2.15103 1.75002 0
M  V30 3623 H 355.405 -0.881406 1.31973 0
M  V30 3624 H 355.426 -3.60097 1.22925 0
M  V30 3625 H 354.938 -2.68166 2.8055 0
M  V30 3626 H 353.039 -3.68474 0.552985 0
M  V30 3627 H 353.152 -4.16019 2.37624 0
M  V30 3628 H 351.516 -2.25804 1.17833 0
M  V30 3629 H 352.299 -1.95491 2.82202 0
M  V30 3630 N 354.744 -0.972509 -1.24016 0
M  V30 3631 C 355.677 -0.45117 -2.23696 0
M  V30 3632 C 356.655 0.477378 -1.55434 0
M  V30 3633 O 357.839 0.407647 -1.84039 0
M  V30 3634 C 354.966 0.34818 -3.36906 0
M  V30 3635 C 354.012 -0.523355 -4.23277 0
M  V30 3636 S 354.845 -1.96647 -4.98087 0
M  V30 3637 C 356.001 -1.17604 -6.14752 0
M  V30 3638 H 356.234 -1.29588 -2.67571 0
M  V30 3639 H 353.767 -0.777903 -1.33372 0
M  V30 3640 H 355.725 0.803387 -4.02562 0
M  V30 3641 H 354.386 1.16792 -2.91579 0
M  V30 3642 H 353.579 0.0906181 -5.03919 0
M  V30 3643 H 353.181 -0.914485 -3.62647 0
M  V30 3644 H 355.473 -0.433434 -6.76112 0
M  V30 3645 H 356.416 -1.95701 -6.8052 0
M  V30 3646 H 356.824 -0.698295 -5.60164 0
M  V30 3647 N 356.222 1.38976 -0.743202 0
M  V30 3648 C 357.169 2.30544 -0.10861 0
M  V30 3649 C 358.139 1.49642 0.720869 0
M  V30 3650 O 359.324 1.78304 0.679142 0
M  V30 3651 C 356.464 3.36018 0.786496 0
M  V30 3652 C 355.577 4.31963 -0.0564849 0
M  V30 3653 C 354.712 5.24506 0.840657 0
M  V30 3654 C 353.751 6.121 -0.00658363 0
M  V30 3655 N 352.888 6.96973 0.846943 0
M  V30 3656 H 357.728 2.8424 -0.895088 0
M  V30 3657 H 355.265 1.3995 -0.453048 0
M  V30 3658 H 357.223 3.95768 1.31999 0
M  V30 3659 H 355.853 2.83758 1.53887 0
M  V30 3660 H 354.905 3.73763 -0.707492 0
M  V30 3661 H 356.217 4.93703 -0.711229 0
M  V30 3662 H 355.371 5.89322 1.4417 0
M  V30 3663 H 354.11 4.63107 1.52916 0
M  V30 3664 H 353.115 5.46289 -0.620366 0
M  V30 3665 H 354.34 6.75565 -0.691992 0
M  V30 3666 H 352.286 6.38133 1.52059 0
M  V30 3667 H 352.203 7.5559 0.248864 0
M  V30 3668 H 353.471 7.6621 1.43328 0
M  V30 3669 N 357.7 0.491464 1.49741 0
M  V30 3670 C 359.111 0.0413169 1.86654 0
M  V30 3671 C 359.462 -1.36985 1.40462 0
M  V30 3672 O 358.587 -2.01917 0.778354 0
M  V30 3673 C 359.182 0.0682023 3.38731 0
M  V30 3674 C 357.741 -0.32656 3.74981 0
M  V30 3675 C 356.888 0.444888 2.73708 0
M  V30 3676 H 359.839 0.704733 1.42194 0
M  V30 3677 H 359.86 -0.729322 3.73445 0
M  V30 3678 H 359.372 1.09539 3.72321 0
M  V30 3679 H 357.473 -1.35734 3.46997 0
M  V30 3680 H 357.586 -0.013741 4.79098 0
M  V30 3681 H 355.95 -0.104062 2.54487 0
M  V30 3682 H 356.733 1.47197 3.10142 0
M  V30 3683 N 359.178 -1.55987 0.224894 0
M  V30 3684 C 360.418 -2.00293 -0.407706 0
M  V30 3685 C 360.782 -1.1093 -1.56711 0
M  V30 3686 O 361.983 -1.44597 -2.26595 0
M  V30 3687 C 360.254 -3.47675 -0.82805 0
M  V30 3688 S 361.813 -4.14 -1.45429 0
M  V30 3689 H 358.631 -0.699152 -0.129256 0
M  V30 3690 H 361.233 -1.92609 0.334967 0
M  V30 3691 H 359.937 -4.10392 0.0253964 0
M  V30 3692 H 359.468 -3.59239 -1.60345 0
M  V30 3693 H 361.483 -4.13465 -2.74337 0
M  V30 3694 N 360.656 0.0484629 -1.57525 0
M  V30 3695 C 361.886 0.754326 -1.92337 0
M  V30 3696 C 362.294 1.70443 -0.82132 0
M  V30 3697 O 361.637 1.82466 0.21254 0
M  V30 3698 C 361.699 1.58231 -3.22805 0
M  V30 3699 C 361.363 0.799074 -4.4996 0
M  V30 3700 C 362.36 0.1079 -5.19788 0
M  V30 3701 C 360.045 0.759345 -4.96527 0
M  V30 3702 C 362.039 -0.612516 -6.3445 0
M  V30 3703 C 359.726 0.0351713 -6.1109 0
M  V30 3704 C 360.724 -0.649537 -6.79904 0
M  V30 3705 O 360.412 -1.36199 -7.92278 0
M  V30 3706 H 360.144 0.218257 -0.639797 0
M  V30 3707 H 362.698 0.0159295 -2.05394 0
M  V30 3708 H 360.928 2.36406 -3.06021 0
M  V30 3709 H 362.617 2.16898 -3.43089 0
M  V30 3710 H 363.383 0.129748 -4.84826 0
M  V30 3711 H 359.262 1.28177 -4.42822 0
M  V30 3712 H 362.806 -1.14751 -6.88097 0
M  V30 3713 H 358.703 0.0113314 -6.45499 0
M  V30 3714 H 359.471 -1.27366 -8.0853 0
M  V30 3715 N 362.134 1.5431 0.320358 0
M  V30 3716 C 363.382 1.72327 1.05583 0
M  V30 3717 C 363.703 0.50149 1.88441 0
M  V30 3718 O 362.973 -0.48448 1.89815 0
M  V30 3719 H 361.553 0.635387 0.3928 0
M  V30 3720 H 364.215 1.91621 0.356019 0
M  V30 3721 H 363.311 2.60426 1.72003 0
M  V30 3722 N 363.613 -0.582584 1.46437 0
M  V30 3723 C 364.838 -1.37168 1.55563 0
M  V30 3724 C 365.263 -1.87061 0.19743 0
M  V30 3725 O 364.621 -1.61572 -0.822451 0
M  V30 3726 C 364.669 -2.53511 2.56446 0
M  V30 3727 O 363.773 -3.54953 2.09958 0
M  V30 3728 H 363.114 -0.408494 0.523477 0
M  V30 3729 H 365.644 -0.706646 1.9201 0
M  V30 3730 H 365.654 -3.00426 2.76058 0
M  V30 3731 H 364.329 -2.16549 3.55076 0
M  V30 3732 H 362.906 -3.14516 2.00334 0
M  V30 3733 N 365.091 -1.34144 -0.827227 0
M  V30 3734 C 366.321 -1.29138 -1.61267 0
M  V30 3735 C 366.729 0.137597 -1.88699 0
M  V30 3736 O 366.072 1.09379 -1.47587 0
M  V30 3737 C 366.134 -2.0097 -2.9808 0
M  V30 3738 C 365.798 -3.50242 -2.93563 0
M  V30 3739 C 366.795 -4.4523 -2.68452 0
M  V30 3740 C 364.48 -3.92592 -3.13331 0
M  V30 3741 C 366.474 -5.80542 -2.63154 0
M  V30 3742 C 364.161 -5.28005 -3.07658 0
M  V30 3743 C 365.159 -6.21792 -2.82602 0
M  V30 3744 O 364.847 -7.54723 -2.76853 0
M  V30 3745 H 364.579 -0.445851 -0.508127 0
M  V30 3746 H 367.133 -1.77263 -1.03763 0
M  V30 3747 H 365.363 -1.47451 -3.57484 0
M  V30 3748 H 367.052 -1.89309 -3.5905 0
M  V30 3749 H 367.818 -4.13832 -2.52919 0
M  V30 3750 H 363.697 -3.19994 -3.31851 0
M  V30 3751 H 367.241 -6.53717 -2.43516 0
M  V30 3752 H 363.138 -5.59023 -3.22743 0
M  V30 3753 H 363.906 -7.64409 -2.92611 0
M  V30 3754 N 366.569 1.04691 -1.17803 0
M  V30 3755 C 367.532 2.10724 -0.901545 0
M  V30 3756 C 368.532 1.6042 0.110437 0
M  V30 3757 O 369.722 1.7377 -0.122303 0
M  V30 3758 C 366.854 3.39084 -0.351409 0
M  V30 3759 H 368.047 2.36686 -1.84174 0
M  V30 3760 H 365.6 1.21015 -0.98919 0
M  V30 3761 H 366.335 3.18782 0.59569 0
M  V30 3762 H 366.12 3.76909 -1.08083 0
M  V30 3763 H 367.61 4.17227 -0.176451 0
M  V30 3764 N 368.047 0.979072 1.23499 0
M  V30 3765 C 369.463 0.687475 1.44034 0
M  V30 3766 C 369.663 -0.746801 1.8715 0
M  V30 3767 O 368.719 -1.51939 2.0167 0
M  V30 3768 C 370.032 1.68127 2.49307 0
M  V30 3769 C 371.58 1.69516 2.63122 0
M  V30 3770 C 372.055 2.67723 3.71603 0
M  V30 3771 N 373.546 2.66233 3.79044 0
M  V30 3772 C 374.281 3.38891 4.62537 0
M  V30 3773 N 373.777 4.21103 5.50131 0
M  V30 3774 N 375.57 3.27661 4.56721 0
M  V30 3775 H 367.721 1.90559 0.938135 0
M  V30 3776 H 369.984 0.821051 0.473897 0
M  V30 3777 H 369.69 2.70693 2.2454 0
M  V30 3778 H 369.564 1.46306 3.4767 0
M  V30 3779 H 371.951 0.676561 2.8724 0
M  V30 3780 H 372.032 1.95404 1.65079 0
M  V30 3781 H 371.676 3.69724 3.48233 0
M  V30 3782 H 371.606 2.39111 4.69184 0
M  V30 3783 H 374.097 2.06568 3.16446 0
M  V30 3784 H 374.41 4.73403 6.10827 0
M  V30 3785 H 372.755 4.25195 5.49759 0
M  V30 3786 H 375.946 2.62887 3.87309 0
M  V30 3787 H 376.119 3.84547 5.21562 0
M  V30 3788 N 369.525 -1.3858 0.750561 0
M  V30 3789 C 370.936 -1.82927 0.373438 0
M  V30 3790 C 371.287 -1.62634 -1.09748 0
M  V30 3791 O 370.412 -1.12588 -1.84805 0
M  V30 3792 C 371.007 -3.32088 0.671029 0
M  V30 3793 C 369.566 -3.74795 0.34722 0
M  V30 3794 C 368.713 -2.61391 0.92575 0
M  V30 3795 H 371.664 -1.27351 0.946958 0
M  V30 3796 H 371.685 -3.80465 -0.0518269 0
M  V30 3797 H 371.197 -3.46826 1.74164 0
M  V30 3798 H 369.298 -3.65638 -0.716933 0
M  V30 3799 H 369.411 -4.71667 0.840656 0
M  V30 3800 H 367.775 -2.52265 0.351327 0
M  V30 3801 H 368.558 -2.78929 2.00133 0
M  V30 3802 N 371.003 -0.499398 -1.49478 0
M  V30 3803 C 372.231 0.0425456 -2.06856 0
M  V30 3804 C 372.646 1.30964 -1.35992 0
M  V30 3805 O 372.003 1.77172 -0.437762 0
M  V30 3806 C 372.054 0.301735 -3.60239 0
M  V30 3807 O 371.775 -0.915127 -4.28436 0
M  V30 3808 C 373.276 0.887499 -4.34325 0
M  V30 3809 H 370.496 -0.0197482 -0.670709 0
M  V30 3810 H 373.04 -0.696297 -1.92281 0
M  V30 3811 H 371.195 0.990556 -3.74522 0
M  V30 3812 H 371.609 -0.676993 -5.20113 0
M  V30 3813 H 373.083 1.01845 -5.42523 0
M  V30 3814 H 373.56 1.88488 -3.96698 0
M  V30 3815 H 374.166 0.236196 -4.24644 0
M  V30 3816 N 372.481 1.55866 -0.233164 0
M  V30 3817 C 373.429 2.22176 0.68851 0
M  V30 3818 C 374.423 1.20487 1.19076 0
M  V30 3819 O 375.629 1.38536 1.14925 0
M  V30 3820 H 372.004 0.712511 0.240483 0
M  V30 3821 H 373.975 2.98212 0.105935 0
M  V30 3822 C 372.724 2.92446 1.88071 0
M  V30 3823 H 372.047 3.70458 1.50337 0
M  V30 3824 H 373.487 3.42226 2.50314 0
M  V30 3825 C 371.946 1.95555 2.74335 0
M  V30 3826 O 372.476 1.47986 3.73447 0
M  V30 3827 N 370.682 1.62953 2.40613 0
M  V30 3828 H 370.229 2.01831 1.60069 0
M  V30 3829 H 370.187 0.983886 2.98609 0
M  V30 3830 N 373.959 -0.0401083 1.57549 0
M  V30 3831 C 375.37 -0.588097 1.77196 0
M  V30 3832 C 375.721 -1.76209 0.862832 0
M  V30 3833 O 374.846 -2.16331 0.0548389 0
M  V30 3834 C 375.441 -1.07363 3.21339 0
M  V30 3835 C 374 -1.56723 3.42221 0
M  V30 3836 C 373.147 -0.50041 2.72747 0
M  V30 3837 H 376.098 0.186119 1.57605 0
M  V30 3838 H 376.119 -1.94143 3.27244 0
M  V30 3839 H 375.631 -0.218975 3.87482 0
M  V30 3840 H 373.732 -2.4441 2.81237 0
M  V30 3841 H 373.845 -1.62234 4.50796 0
M  V30 3842 H 372.209 -0.952894 2.36203 0
M  V30 3843 H 372.992 0.344599 3.41566 0
M  V30 3844 N 375.437 -1.54477 -0.31217 0
M  V30 3845 C 376.684 -1.73227 -1.04875 0
M  V30 3846 C 377.012 -0.512042 -1.87639 0
M  V30 3847 O 376.267 0.506131 -1.89042 0
M  V30 3848 C 376.566 -2.967 -1.99258 0
M  V30 3849 C 376.232 -4.30974 -1.32559 0
M  V30 3850 C 374.894 -4.67477 -1.141 0
M  V30 3851 C 377.246 -5.14258 -0.847835 0
M  V30 3852 C 374.574 -5.84852 -0.465326 0
M  V30 3853 C 376.926 -6.32327 -0.185931 0
M  V30 3854 C 375.59 -6.67499 0.0107077 0
M  V30 3855 H 374.86 -0.633881 -0.383765 0
M  V30 3856 H 377.507 -1.88727 -0.324731 0
M  V30 3857 H 375.812 -2.75935 -2.7815 0
M  V30 3858 H 377.509 -3.08401 -2.563 0
M  V30 3859 H 374.099 -4.02262 -1.4793 0
M  V30 3860 H 378.283 -4.86565 -0.978192 0
M  V30 3861 H 373.539 -6.10654 -0.301883 0
M  V30 3862 H 377.713 -6.96135 0.192211 0
M  V30 3863 H 375.34 -7.58306 0.536287 0
M  V30 3864 N 376.915 0.57481 -1.46744 0
M  V30 3865 C 378.163 1.33009 -1.52161 0
M  V30 3866 C 378.484 1.94185 -0.178092 0
M  V30 3867 O 377.754 1.7899 0.796196 0
M  V30 3868 H 376.334 0.493873 -0.560445 0
M  V30 3869 H 378.996 0.672589 -1.82927 0
M  V30 3870 H 378.092 2.13273 -2.27862 0
M  V30 3871 N 378.394 1.34581 0.820102 0
M  V30 3872 C 379.642 1.26845 1.57336 0
M  V30 3873 C 379.963 -0.160667 1.94337 0
M  V30 3874 O 379.233 -1.09396 1.6251 0
M  V30 3875 H 377.813 0.466514 0.583415 0
M  V30 3876 H 380.475 1.68526 0.979027 0
M  V30 3877 H 379.571 1.87513 2.4949 0
M  V30 3878 N 379.872 -1.04064 1.18357 0
M  V30 3879 C 380.804 -2.12114 0.868358 0
M  V30 3880 C 381.817 -1.62247 -0.134045 0
M  V30 3881 O 383.006 -1.78253 0.0937933 0
M  V30 3882 C 380.106 -3.37773 0.276132 0
M  V30 3883 C 379.279 -4.16874 1.3242 0
M  V30 3884 C 378.338 -5.20861 0.747662 0
M  V30 3885 O 377.364 -5.51141 1.42239 0
M  V30 3886 N 378.566 -5.78715 -0.454823 0
M  V30 3887 H 381.331 -2.39748 1.79836 0
M  V30 3888 H 378.892 -1.20258 1.08396 0
M  V30 3889 H 380.884 -4.04513 -0.123133 0
M  V30 3890 H 379.454 -3.07581 -0.557895 0
M  V30 3891 H 378.674 -3.45456 1.89878 0
M  V30 3892 H 379.962 -4.66516 2.03078 0
M  V30 3893 H 379.36 -5.56415 -1.02073 0
M  V30 3894 H 377.917 -6.46921 -0.79601 0
M  V30 3895 N 381.35 -0.985608 -1.22978 0
M  V30 3896 C 382.575 -0.675254 -1.961 0
M  V30 3897 C 383 0.752154 -1.72407 0
M  V30 3898 O 382.358 1.5131 -0.998751 0
M  V30 3899 C 382.406 -0.977899 -3.47087 0
M  V30 3900 O 381.51 -0.072685 -4.12336 0
M  V30 3901 H 380.851 -0.253443 -0.613728 0
M  V30 3902 H 383.381 -1.32061 -1.56272 0
M  V30 3903 H 383.391 -0.916739 -3.97567 0
M  V30 3904 H 382.066 -2.01807 -3.63657 0
M  V30 3905 H 380.643 -0.188703 -3.72422 0
M  V30 3906 N 382.828 1.3818 -0.7579 0
M  V30 3907 C 384.074 2.00316 -0.316453 0
M  V30 3908 C 384.407 1.60026 1.10025 0
M  V30 3909 O 383.682 0.839835 1.75434 0
M  V30 3910 C 383.965 3.57349 -0.444245 0
M  V30 3911 C 383.818 4.07591 -1.90236 0
M  V30 3912 C 385.137 4.3981 0.1598 0
M  V30 3913 H 382.256 0.727741 -0.116459 0
M  V30 3914 H 384.898 1.6406 -0.958352 0
M  V30 3915 H 383.048 3.88365 0.102233 0
M  V30 3916 H 384.72 3.87199 -2.50748 0
M  V30 3917 H 382.963 3.60297 -2.41595 0
M  V30 3918 H 383.634 5.16677 -1.94291 0
M  V30 3919 H 386.11 4.14971 -0.306314 0
M  V30 3920 H 384.986 5.48885 0.0401675 0
M  V30 3921 H 385.247 4.24102 1.24859 0
M  V30 3922 N 384.306 0.507319 1.49211 0
M  V30 3923 C 385.236 -0.256939 2.32082 0
M  V30 3924 C 386.217 -0.956609 1.40652 0
M  V30 3925 O 387.402 -0.946788 1.69557 0
M  V30 3926 C 384.532 -1.31802 3.21318 0
M  V30 3927 C 383.486 -0.737855 4.21592 0
M  V30 3928 C 382.812 -1.89992 4.99807 0
M  V30 3929 C 384.112 0.275325 5.21574 0
M  V30 3930 H 385.806 0.434798 2.96226 0
M  V30 3931 H 383.352 0.210546 1.42452 0
M  V30 3932 H 385.305 -1.86045 3.78107 0
M  V30 3933 H 384.029 -2.03903 2.5513 0
M  V30 3934 H 382.688 -0.217126 3.65956 0
M  V30 3935 H 382.336 -2.60877 4.30061 0
M  V30 3936 H 382.036 -1.51777 5.6766 0
M  V30 3937 H 383.56 -2.44657 5.59442 0
M  V30 3938 H 384.974 -0.179193 5.7302 0
M  V30 3939 H 383.371 0.573649 5.97352 0
M  V30 3940 H 384.441 1.18903 4.70096 0
M  V30 3941 N 385.784 -1.5574 0.241426 0
M  V30 3942 C 387.03 -1.99104 -0.385406 0
M  V30 3943 C 387.363 -1.1293 -1.57988 0
M  V30 3944 O 386.638 -0.191449 -1.93555 0
M  V30 3945 C 386.921 -3.51087 -0.800616 0
M  V30 3946 C 386.774 -4.48028 0.398874 0
M  V30 3947 C 388.093 -4.08015 -1.64959 0
M  V30 3948 H 385.212 -0.723848 -0.138614 0
M  V30 3949 H 387.854 -1.86903 0.341642 0
M  V30 3950 H 386.004 -3.61615 -1.4201 0
M  V30 3951 H 387.676 -4.49487 1.03726 0
M  V30 3952 H 385.919 -4.21077 1.04293 0
M  V30 3953 H 386.59 -5.51962 0.0651056 0
M  V30 3954 H 389.066 -4.00555 -1.12672 0
M  V30 3955 H 387.942 -5.14635 -1.90898 0
M  V30 3956 H 388.203 -3.56131 -2.61961 0
M  V30 3957 N 387.262 0.0317525 -1.57568 0
M  V30 3958 C 388.673 0.578692 -1.77505 0
M  V30 3959 C 389.024 1.75749 -0.872164 0
M  V30 3960 O 388.149 2.16298 -0.0663106 0
M  V30 3961 C 388.744 1.05658 -3.21904 0
M  V30 3962 C 387.303 1.54906 -3.43047 0
M  V30 3963 C 386.45 0.485939 -2.73009 0
M  V30 3964 H 389.401 -0.194475 -1.57504 0
M  V30 3965 H 389.422 1.92404 -3.28269 0
M  V30 3966 H 388.934 0.198422 -3.87592 0
M  V30 3967 H 387.035 2.42915 -2.82529 0
M  V30 3968 H 387.148 1.59841 -4.5165 0
M  V30 3969 H 385.512 0.940354 -2.36705 0
M  V30 3970 H 386.295 -0.362709 -3.41379 0
M  V30 3971 N 388.74 1.54641 0.303973 0
M  V30 3972 C 390.017 1.64455 1.05896 0
M  V30 3973 C 390.397 0.490923 2.05312 0
M  V30 3974 O 389.745 -0.512685 2.22674 0
M  V30 3975 C 389.955 3.02331 1.74347 0
M  V30 3976 C 391.303 3.59045 2.26653 0
M  V30 3977 O 392.327 3.04764 1.84384 0
M  V30 3978 O 391.186 4.54081 3.04093 0
M  V30 3979 H 388.28 0.666729 0.489287 0
M  V30 3980 H 390.826 1.66986 0.302298 0
M  V30 3981 H 389.598 3.77734 1.02142 0
M  V30 3982 H 389.221 3.03565 2.56777 0
M  V30 3983 N 390.218 -0.567019 1.47046 0
M  V30 3984 C 391.128 -1.70247 1.6141 0
M  V30 3985 C 392.144 -1.66746 0.497157 0
M  V30 3986 O 393.32 -1.86371 0.763389 0
M  V30 3987 C 390.385 -3.06756 1.61561 0
M  V30 3988 C 389.446 -3.21399 2.84607 0
M  V30 3989 C 388.679 -4.51396 2.84741 0
M  V30 3990 O 388.902 -5.36255 1.94388 0
M  V30 3991 O 387.836 -4.69621 3.76483 0
M  V30 3992 H 391.662 -1.61073 2.57467 0
M  V30 3993 H 389.247 -0.735894 1.30019 0
M  V30 3994 H 391.129 -3.8801 1.64396 0
M  V30 3995 H 389.804 -3.16333 0.686684 0
M  V30 3996 H 388.711 -2.39579 2.8732 0
M  V30 3997 H 390.044 -3.16721 3.76761 0
M  V30 3998 N 391.696 -1.35014 -0.812953 0
M  V30 3999 C 392.643 -1.27412 -1.92444 0
M  V30 4000 C 393.613 -0.14733 -1.65445 0
M  V30 4001 O 394.798 -0.329974 -1.87925 0
M  V30 4002 C 391.938 -1.04558 -3.28879 0
M  V30 4003 C 391.051 -2.26101 -3.68106 0
M  V30 4004 C 390.186 -1.96449 -4.9354 0
M  V30 4005 C 389.225 -3.14081 -5.25376 0
M  V30 4006 N 388.362 -2.84246 -6.41988 0
M  V30 4007 H 393.202 -2.22463 -1.98278 0
M  V30 4008 H 390.739 -1.10593 -0.969933 0
M  V30 4009 H 392.697 -0.893413 -4.07522 0
M  V30 4010 H 391.327 -0.131719 -3.22531 0
M  V30 4011 H 390.379 -2.52204 -2.84775 0
M  V30 4012 H 391.691 -3.13959 -3.87597 0
M  V30 4013 H 390.845 -1.78026 -5.79993 0
M  V30 4014 H 389.584 -1.05867 -4.76071 0
M  V30 4015 H 388.589 -3.33089 -4.37415 0
M  V30 4016 H 389.814 -4.05455 -5.44778 0
M  V30 4017 H 387.76 -1.96252 -6.25956 0
M  V30 4018 H 387.677 -3.65637 -6.61699 0
M  V30 4019 H 388.945 -2.6935 -7.31485 0
M  V30 4020 N 393.175 1.03435 -1.18907 0
M  V30 4021 C 394.423 1.76394 -0.986382 0
M  V30 4022 C 394.744 1.88883 0.484567 0
M  V30 4023 O 394.014 1.41843 1.3512 0
M  V30 4024 H 392.594 0.65344 -0.361975 0
M  V30 4025 H 395.256 1.248 -1.49703 0
M  V30 4026 H 394.352 2.77424 -1.42978 0
M  V30 4027 N 394.653 0.992116 1.22453 0
M  V30 4028 C 395.899 0.668523 1.91464 0
M  V30 4029 C 396.232 -0.797313 1.77078 0
M  V30 4030 O 395.507 -1.5765 1.13916 0
M  V30 4031 C 395.79 1.07424 3.43703 0
M  V30 4032 C 395.643 2.59857 3.67143 0
M  V30 4033 C 396.962 0.626891 4.35612 0
M  V30 4034 H 394.081 0.244341 0.695318 0
M  V30 4035 H 396.723 1.2355 1.44345 0
M  V30 4036 H 394.873 0.591816 3.83966 0
M  V30 4037 H 396.545 3.15764 3.3629 0
M  V30 4038 H 394.788 3.01961 3.11451 0
M  V30 4039 H 395.459 2.83296 4.73759 0
M  V30 4040 H 397.935 1.04125 4.02861 0
M  V30 4041 H 396.811 0.939076 5.40807 0
M  V30 4042 H 397.072 -0.472457 4.39568 0
M  V30 4043 N 396.131 -1.37776 0.765217 0
M  V30 4044 C 397.542 -1.82521 0.392819 0
M  V30 4045 C 397.893 -1.63789 -1.08017 0
M  V30 4046 O 397.018 -1.14542 -1.83601 0
M  V30 4047 C 397.613 -3.31358 0.706214 0
M  V30 4048 C 396.172 -3.74406 0.386952 0
M  V30 4049 C 395.319 -2.60394 0.953422 0
M  V30 4050 H 398.27 -1.2634 0.960412 0
M  V30 4051 H 398.291 -3.80498 -0.0114706 0
M  V30 4052 H 397.803 -3.44959 1.77833 0
M  V30 4053 H 395.904 -3.66377 -0.678112 0
M  V30 4054 H 396.017 -4.70749 0.890636 0
M  V30 4055 H 394.381 -2.51878 0.378064 0
M  V30 4056 H 395.164 -2.76791 2.03081 0
M  V30 4057 N 397.609 -0.515225 -1.4894 0
M  V30 4058 C 398.539 0.244628 -2.32215 0
M  V30 4059 C 399.52 0.949136 -1.41157 0
M  V30 4060 O 400.705 0.937783 -1.70057 0
M  V30 4061 C 397.835 1.30096 -3.22013 0
M  V30 4062 C 396.789 0.715486 -4.21977 0
M  V30 4063 C 396.115 1.87339 -5.00808 0
M  V30 4064 C 397.415 -0.302982 -5.2142 0
M  V30 4065 H 399.109 -0.450501 -2.95991 0
M  V30 4066 H 396.655 -0.218098 -1.42339 0
M  V30 4067 H 398.608 1.84037 -3.79089 0
M  V30 4068 H 397.332 2.02547 -2.56207 0
M  V30 4069 H 395.991 0.197715 -3.66066 0
M  V30 4070 H 395.639 2.58592 -4.31438 0
M  V30 4071 H 395.339 1.48764 -5.68457 0
M  V30 4072 H 396.863 2.41686 -5.60732 0
M  V30 4073 H 398.277 0.148802 -5.73107 0
M  V30 4074 H 396.674 -0.60532 -5.97039 0
M  V30 4075 H 397.744 -1.21395 -4.69459 0
M  V30 4076 N 399.087 1.5561 -0.249682 0
M  V30 4077 C 400.498 1.84979 0.252949 0
M  V30 4078 C 400.849 1.17153 1.57384 0
M  V30 4079 O 399.974 0.450884 2.11651 0
M  V30 4080 C 400.569 3.35584 0.465732 0
M  V30 4081 C 399.128 3.65169 0.912624 0
M  V30 4082 C 398.275 2.77299 -0.00859085 0
M  V30 4083 H 401.226 1.51513 -0.47217 0
M  V30 4084 H 401.247 3.57313 1.30795 0
M  V30 4085 H 400.759 3.8492 -0.49579 0
M  V30 4086 H 398.86 3.21312 1.88652 0
M  V30 4087 H 398.973 4.72912 0.767559 0
M  V30 4088 H 397.337 2.49678 0.50327 0
M  V30 4089 H 398.12 3.29442 -0.965537 0
M  V30 4090 N 400.565 -0.0233959 1.57583 0
M  V30 4091 C 401.512 -1.02224 2.06927 0
M  V30 4092 C 402.482 -1.35575 0.959617 0
M  V30 4093 O 403.667 -1.45815 1.23055 0
M  V30 4094 C 400.807 -2.31636 2.5581 0
M  V30 4095 C 399.92 -2.04394 3.80588 0
M  V30 4096 C 399.055 -3.27717 4.18061 0
M  V30 4097 C 398.094 -2.96056 5.3574 0
M  V30 4098 N 397.231 -4.11847 5.68618 0
M  V30 4099 H 402.071 -0.594504 2.9201 0
M  V30 4100 H 399.608 -0.281921 1.44373 0
M  V30 4101 H 401.566 -3.07258 2.82221 0
M  V30 4102 H 400.196 -2.72122 1.73636 0
M  V30 4103 H 399.248 -1.19244 3.61227 0
M  V30 4104 H 400.56 -1.77042 4.66323 0
M  V30 4105 H 399.714 -4.11702 4.4563 0
M  V30 4106 H 398.453 -3.58188 3.30988 0
M  V30 4107 H 397.458 -2.10474 5.07918 0
M  V30 4108 H 398.683 -2.66857 6.24471 0
M  V30 4109 H 396.629 -4.42258 4.84504 0
M  V30 4110 H 396.546 -3.87938 6.48876 0
M  V30 4111 H 397.814 -4.96689 6.00766 0
M  V30 4112 N 402.043 -1.548 -0.295768 0
M  V30 4113 C 403.289 -1.74588 -1.03184 0
M  V30 4114 C 403.622 -0.532962 -1.86744 0
M  V30 4115 O 402.897 0.469872 -1.88739 0
M  V30 4116 C 403.18 -3.03791 -1.93347 0
M  V30 4117 C 403.033 -4.35392 -1.12933 0
M  V30 4118 C 404.352 -3.28892 -2.92435 0
M  V30 4119 H 401.471 -0.635221 -0.373715 0
M  V30 4120 H 404.113 -1.87519 -0.30606 0
M  V30 4121 H 402.263 -2.92898 -2.55232 0
M  V30 4122 H 403.935 -4.58211 -0.532943 0
M  V30 4123 H 402.178 -4.31642 -0.432168 0
M  V30 4124 H 402.849 -5.22074 -1.79284 0
M  V30 4125 H 405.325 -3.39429 -2.4068 0
M  V30 4126 H 404.201 -4.20603 -3.52682 0
M  V30 4127 H 404.462 -2.47437 -3.6637 0
M  V30 4128 N 403.521 0.559213 -1.47345 0
M  V30 4129 C 404.798 1.31997 -1.44348 0
M  V30 4130 C 405.178 2.1064 -0.139358 0
M  V30 4131 O 404.526 2.1091 0.879153 0
M  V30 4132 C 404.736 2.22618 -2.68779 0
M  V30 4133 C 406.084 2.83701 -3.1591 0
M  V30 4134 O 407.108 2.32921 -2.69493 0
M  V30 4135 O 405.967 3.75993 -3.966 0
M  V30 4136 H 403.061 0.594251 -0.575147 0
M  V30 4137 H 405.607 0.578282 -1.59543 0
M  V30 4138 H 404.379 1.64093 -3.55231 0
M  V30 4139 H 404.002 3.04085 -2.5616 0
M  V30 4140 N 404.999 1.35443 0.805782 0
M  V30 4141 C 405.929 1.31095 1.93226 0
M  V30 4142 C 406.91 0.185244 1.69088 0
M  V30 4143 O 408.095 0.380332 1.90439 0
M  V30 4144 C 405.225 1.08299 3.29983 0
M  V30 4145 C 404.179 2.17519 3.68605 0
M  V30 4146 C 403.505 1.79887 5.03532 0
M  V30 4147 C 404.805 3.5949 3.78898 0
M  V30 4148 H 406.499 2.25352 1.97122 0
M  V30 4149 H 404.045 1.0848 0.946996 0
M  V30 4150 H 405.998 1.03897 4.08391 0
M  V30 4151 H 404.722 0.104885 3.26432 0
M  V30 4152 H 403.381 2.2102 2.92482 0
M  V30 4153 H 403.029 0.80693 4.96485 0
M  V30 4154 H 402.729 2.53001 5.30344 0
M  V30 4155 H 404.253 1.77011 5.84379 0
M  V30 4156 H 405.667 3.58307 4.47536 0
M  V30 4157 H 404.064 4.31371 4.1718 0
M  V30 4158 H 405.134 3.95584 2.80431 0
M  V30 4159 N 406.477 -1.02803 1.19454 0
M  V30 4160 C 407.409 -2.11181 0.890807 0
M  V30 4161 C 408.422 -1.6238 -0.116829 0
M  V30 4162 O 409.611 -1.78144 0.112694 0
M  V30 4163 C 406.711 -3.37461 0.311942 0
M  V30 4164 C 405.884 -4.15446 1.36834 0
M  V30 4165 C 404.943 -5.20039 0.802864 0
M  V30 4166 O 403.969 -5.49602 1.48077 0
M  V30 4167 N 405.171 -5.79165 -0.393417 0
M  V30 4168 H 407.936 -2.37827 1.82369 0
M  V30 4169 H 405.497 -1.19101 1.09666 0
M  V30 4170 H 407.489 -4.0462 -0.0802225 0
M  V30 4171 H 406.059 -3.08156 -0.52524 0
M  V30 4172 H 405.279 -3.43423 1.93531 0
M  V30 4173 H 406.567 -4.64335 2.08015 0
M  V30 4174 H 405.965 -5.57466 -0.961658 0
M  V30 4175 H 404.522 -6.47729 -0.727351 0
M  V30 4176 N 407.956 -0.998596 -1.21925 0
M  V30 4177 C 409.203 -0.677663 -1.90824 0
M  V30 4178 C 409.531 0.790905 -1.77693 0
M  V30 4179 O 408.786 1.58817 -1.14349 0
M  V30 4180 C 409.085 -1.03648 -3.42041 0
M  V30 4181 C 408.751 -2.49825 -3.75364 0
M  V30 4182 C 407.413 -2.8977 -3.8417 0
M  V30 4183 C 409.765 -3.44545 -3.91073 0
M  V30 4184 C 407.093 -4.23412 -4.06127 0
M  V30 4185 C 409.445 -4.77853 -4.14535 0
M  V30 4186 C 408.109 -5.17531 -4.21566 0
M  V30 4187 H 407.379 -0.247975 -0.698276 0
M  V30 4188 H 410.026 -1.25584 -1.44571 0
M  V30 4189 H 408.331 -0.376457 -3.89987 0
M  V30 4190 H 410.028 -0.766113 -3.93614 0
M  V30 4191 H 406.618 -2.17866 -3.69097 0
M  V30 4192 H 410.802 -3.14853 -3.83642 0
M  V30 4193 H 406.058 -4.53734 -4.09799 0
M  V30 4194 H 410.232 -5.51189 -4.25633 0
M  V30 4195 H 407.859 -6.21102 -4.38333 0
M  V30 4196 N 409.434 1.37368 -0.772513 0
M  V30 4197 C 410.681 1.99673 -0.337182 0
M  V30 4198 C 411.009 1.61324 1.0865 0
M  V30 4199 O 410.264 0.851377 1.7621 0
M  V30 4200 C 410.563 3.54817 -0.428876 0
M  V30 4201 C 410.229 4.12936 -1.81092 0
M  V30 4202 C 408.891 4.28523 -2.1891 0
M  V30 4203 C 411.243 4.44801 -2.71664 0
M  V30 4204 C 408.571 4.73277 -3.46735 0
M  V30 4205 C 410.923 4.90981 -3.98899 0
M  V30 4206 C 409.587 5.04773 -4.36761 0
M  V30 4207 H 408.857 0.730656 -0.123384 0
M  V30 4208 H 411.504 1.64124 -0.986686 0
M  V30 4209 H 409.809 3.90618 0.304167 0
M  V30 4210 H 411.506 4.00933 -0.0733334 0
M  V30 4211 H 408.096 4.01233 -1.50699 0
M  V30 4212 H 412.28 4.32344 -2.43706 0
M  V30 4213 H 407.536 4.82142 -3.75964 0
M  V30 4214 H 411.71 5.14603 -4.69208 0
M  V30 4215 H 409.337 5.39211 -5.35868 0
M  V30 4216 N 410.912 0.523116 1.48665 0
M  V30 4217 C 412.137 -0.0117284 2.07397 0
M  V30 4218 C 412.562 -1.28031 1.37803 0
M  V30 4219 O 411.92 -1.75836 0.441762 0
M  V30 4220 C 411.968 -0.225786 3.59892 0
M  V30 4221 O 411.072 -1.29592 3.91509 0
M  V30 4222 H 410.413 0.0360673 0.66302 0
M  V30 4223 H 412.943 0.729066 1.9117 0
M  V30 4224 H 412.953 -0.450552 4.05505 0
M  V30 4225 H 411.628 0.700944 4.09951 0
M  V30 4226 H 410.205 -1.05436 3.57684 0
M  V30 4227 N 412.39 -1.55475 0.257931 0
M  V30 4228 C 413.338 -2.23244 -0.653076 0
M  V30 4229 C 414.332 -1.22366 -1.17144 0
M  V30 4230 O 415.538 -1.40347 -1.12706 0
M  V30 4231 H 411.913 -0.716247 -0.229117 0
M  V30 4232 H 413.884 -2.98343 -0.0584788 0
M  V30 4233 C 412.633 -2.95401 -1.83395 0
M  V30 4234 H 411.956 -3.72802 -1.44424 0
M  V30 4235 H 413.396 -3.46165 -2.44838 0
M  V30 4236 C 411.855 -1.99895 -2.71189 0
M  V30 4237 O 412.385 -1.53909 -3.71046 0
M  V30 4238 N 410.591 -1.6676 -2.3799 0
M  V30 4239 H 410.138 -2.04352 -1.56837 0
M  V30 4240 H 410.096 -1.03127 -2.97005 0
M  V30 4241 N 413.868 0.0150385 -1.57593 0
M  V30 4242 C 415.096 0.714395 -1.94175 0
M  V30 4243 C 415.511 1.68135 -0.858841 0
M  V30 4244 O 414.868 1.81766 0.163567 0
M  V30 4245 C 414.919 1.45933 -3.30735 0
M  V30 4246 O 414.64 0.531167 -4.34868 0
M  V30 4247 C 416.141 2.25456 -3.81686 0
M  V30 4248 H 413.361 0.199923 -0.640525 0
M  V30 4249 H 415.905 -0.0316096 -2.04476 0
M  V30 4250 H 414.06 2.15709 -3.21789 0
M  V30 4251 H 414.474 1.05509 -5.13778 0
M  V30 4252 H 415.948 2.731 -4.79709 0
M  V30 4253 H 416.425 3.07485 -3.13607 0
M  V30 4254 H 417.031 1.60727 -3.9376 0
M  V30 4255 N 415.346 1.54954 0.287554 0
M  V30 4256 C 416.574 1.78881 1.03967 0
M  V30 4257 C 416.989 0.554894 1.80462 0
M  V30 4258 O 416.346 -0.475676 1.76192 0
M  V30 4259 C 416.397 3.00488 2.0097 0
M  V30 4260 O 416.118 4.19113 1.27577 0
M  V30 4261 C 417.619 3.36907 2.88112 0
M  V30 4262 H 414.839 0.596259 0.307761 0
M  V30 4263 H 417.383 2.01937 0.322749 0
M  V30 4264 H 415.538 2.79601 2.68145 0
M  V30 4265 H 415.952 4.87765 1.92835 0
M  V30 4266 H 417.426 4.25205 3.52001 0
M  V30 4267 H 417.903 2.55659 3.57121 0
M  V30 4268 H 418.509 3.60001 2.26449 0
M  V30 4269 N 416.824 -0.551391 1.4764 0
M  V30 4270 C 418.049 -1.33837 1.58437 0
M  V30 4271 C 418.474 -1.866 0.237063 0
M  V30 4272 O 417.832 -1.6328 -0.787994 0
M  V30 4273 C 417.88 -2.48014 2.61766 0
M  V30 4274 O 416.984 -3.50419 2.1744 0
M  V30 4275 H 416.325 -0.397299 0.532024 0
M  V30 4276 H 418.855 -0.665759 1.93465 0
M  V30 4277 H 418.865 -2.94503 2.82369 0
M  V30 4278 H 417.54 -2.08969 3.5959 0
M  V30 4279 H 416.117 -3.10196 2.06961 0
M  V30 4280 N 418.302 -1.35869 -0.798587 0
M  V30 4281 C 419.232 -1.32118 -1.92528 0
M  V30 4282 C 420.213 -0.194209 -1.68988 0
M  V30 4283 O 421.398 -0.390426 -1.90235 0
M  V30 4284 C 418.528 -1.10047 -3.29404 0
M  V30 4285 C 417.482 -2.19471 -3.67446 0
M  V30 4286 C 416.808 -1.82555 -5.02571 0
M  V30 4287 C 418.108 -3.61495 -3.76987 0
M  V30 4288 H 419.802 -2.26394 -1.95924 0
M  V30 4289 H 417.348 -1.08981 -0.94123 0
M  V30 4290 H 419.301 -1.06061 -4.07835 0
M  V30 4291 H 418.025 -0.122195 -3.26371 0
M  V30 4292 H 416.684 -2.22568 -2.91306 0
M  V30 4293 H 416.332 -0.833249 -4.9605 0
M  V30 4294 H 416.032 -2.5581 -5.28995 0
M  V30 4295 H 417.556 -1.80108 -5.83432 0
M  V30 4296 H 418.97 -3.60676 -4.4563 0
M  V30 4297 H 417.367 -4.33577 -4.14887 0
M  V30 4298 H 418.437 -3.97065 -2.78329 0
M  V30 4299 N 419.78 1.02168 -1.19998 0
M  V30 4300 C 420.728 2.12717 -0.940967 0
M  V30 4301 C 421.722 1.69069 0.105841 0
M  V30 4302 O 422.928 1.79946 -0.0440583 0
M  V30 4303 H 419.303 0.695108 -0.28693 0
M  V30 4304 H 421.274 2.3175 -1.87975 0
M  V30 4305 C 420.023 3.44027 -0.504049 0
M  V30 4306 H 419.346 3.78036 -1.30112 0
M  V30 4307 H 420.786 4.22452 -0.361991 0
M  V30 4308 C 419.245 3.27678 0.782878 0
M  V30 4309 O 419.775 3.56949 1.84256 0
M  V30 4310 N 417.981 2.80943 0.742921 0
M  V30 4311 H 417.528 2.57322 -0.119687 0
M  V30 4312 H 417.486 2.70385 1.60435 0
M  V30 4313 N 421.258 1.00505 1.21394 0
M  V30 4314 C 422.535 0.603277 1.86064 0
M  V30 4315 C 422.915 -0.919095 1.90042 0
M  V30 4316 O 422.263 -1.80607 1.39977 0
M  V30 4317 C 422.473 1.23772 3.26315 0
M  V30 4318 C 423.821 1.34586 4.02705 0
M  V30 4319 O 424.845 1.19304 3.35626 0
M  V30 4320 O 423.704 1.59169 5.22807 0
M  V30 4321 H 420.798 0.206634 0.800769 0
M  V30 4322 H 423.344 1.1017 1.29076 0
M  V30 4323 H 422.116 2.27848 3.18121 0
M  V30 4324 H 421.739 0.725648 3.90922 0
M  V30 4325 N 422.737 -1.36956 0.779787 0
M  V30 4326 C 424.153 -1.52817 0.460342 0
M  V30 4327 C 424.353 -1.7361 -1.02283 0
M  V30 4328 O 423.409 -1.76207 -1.80852 0
M  V30 4329 C 424.722 -2.71983 1.28241 0
M  V30 4330 C 426.27 -2.85849 1.27512 0
M  V30 4331 C 426.745 -4.08008 2.08072 0
M  V30 4332 N 428.236 -4.15135 2.05467 0
M  V30 4333 C 428.971 -5.08711 2.64577 0
M  V30 4334 N 428.467 -6.07792 3.32506 0
M  V30 4335 N 430.26 -5.01254 2.54363 0
M  V30 4336 H 422.411 -1.21713 1.74068 0
M  V30 4337 H 424.674 -0.593294 0.739396 0
M  V30 4338 H 424.38 -2.63109 2.33381 0
M  V30 4339 H 424.254 -3.65882 0.917088 0
M  V30 4340 H 426.641 -2.94189 0.231686 0
M  V30 4341 H 426.722 -1.92886 1.68014 0
M  V30 4342 H 426.366 -4.00429 3.12441 0
M  V30 4343 H 426.296 -5.001 1.64947 0
M  V30 4344 H 428.787 -3.44189 1.5602 0
M  V30 4345 H 429.1 -6.75739 3.74963 0
M  V30 4346 H 427.445 -6.08047 3.36606 0
M  V30 4347 H 430.636 -4.22795 2.00902 0
M  V30 4348 H 430.809 -5.73995 3.00722 0
M  V30 4349 N 424.215 -0.530993 -1.48385 0
M  V30 4350 C 425.147 0.268353 -2.27624 0
M  V30 4351 C 426.16 0.903525 -1.35426 0
M  V30 4352 O 427.349 0.781796 -1.60469 0
M  V30 4353 C 424.449 1.39535 -3.08842 0
M  V30 4354 C 423.622 0.861913 -4.28824 0
M  V30 4355 C 422.681 1.87016 -4.91845 0
M  V30 4356 O 421.707 1.4267 -5.5103 0
M  V30 4357 N 422.909 3.20238 -4.84178 0
M  V30 4358 H 425.674 -0.41123 -2.96865 0
M  V30 4359 H 423.235 -0.365387 -1.57723 0
M  V30 4360 H 425.227 2.06803 -3.47871 0
M  V30 4361 H 423.797 1.97859 -2.42014 0
M  V30 4362 H 423.017 0.0132126 -3.94198 0
M  V30 4363 H 424.305 0.484415 -5.06489 0
M  V30 4364 H 423.703 3.58932 -4.37246 0
M  V30 4365 H 422.26 3.83136 -5.27305 0
M  V30 4366 N 425.693 1.55336 -0.266172 0
M  V30 4367 C 426.941 1.99003 0.35246 0
M  V30 4368 C 427.262 1.15591 1.57047 0
M  V30 4369 O 426.532 0.243268 1.94384 0
M  V30 4370 H 425.112 0.735025 0.133217 0
M  V30 4371 H 427.774 1.91367 -0.369434 0
M  V30 4372 H 426.87 3.05289 0.648453 0
M  V30 4373 N 427.171 -0.0066808 1.57599 0
M  V30 4374 C 428.119 -1.01851 2.09115 0
M  V30 4375 C 429.113 -1.36021 1.00969 0
M  V30 4376 O 430.319 -1.34663 1.19439 0
M  V30 4377 H 426.694 -0.346083 0.667631 0
M  V30 4378 H 428.665 -0.558394 2.93129 0
M  V30 4379 C 427.414 -2.30374 2.60429 0
M  V30 4380 H 426.737 -2.04947 3.43273 0
M  V30 4381 H 428.177 -2.99466 3.00161 0
M  V30 4382 C 426.636 -3.00893 1.51542 0
M  V30 4383 O 427.166 -3.91614 0.894484 0
M  V30 4384 N 425.372 -2.62603 1.2445 0
M  V30 4385 H 424.919 -1.88911 1.75129 0
M  V30 4386 H 424.877 -3.10101 0.518137 0
M  V30 4387 N 428.649 -1.55105 -0.279332 0
M  V30 4388 C 429.612 -1.86783 -1.32834 0
M  V30 4389 C 430.612 -0.74199 -1.42657 0
M  V30 4390 O 431.802 -1.0102 -1.41918 0
M  V30 4391 C 428.934 -2.06746 -2.71052 0
M  V30 4392 H 430.127 -2.8055 -1.05979 0
M  V30 4393 H 427.68 -1.47499 -0.517087 0
M  V30 4394 H 428.415 -1.15339 -3.03097 0
M  V30 4395 H 428.2 -2.88711 -2.65309 0
M  V30 4396 H 429.69 -2.32549 -3.46858 0
M  V30 4397 N 430.127 0.543554 -1.4793 0
M  V30 4398 C 431.355 1.32516 -1.58894 0
M  V30 4399 C 431.77 1.87215 -0.244131 0
M  V30 4400 O 431.127 1.65709 0.764652 0
M  V30 4401 C 431.178 2.48554 -2.62494 0
M  V30 4402 O 430.899 1.96112 -3.91755 0
M  V30 4403 C 432.4 3.40572 -2.8377 0
M  V30 4404 H 429.62 0.403472 -0.536145 0
M  V30 4405 H 432.164 0.657106 -1.93655 0
M  V30 4406 H 430.319 3.1127 -2.30629 0
M  V30 4407 H 430.733 2.71967 -4.4848 0
M  V30 4408 H 432.207 4.18375 -3.60093 0
M  V30 4409 H 432.684 3.94965 -1.92092 0
M  V30 4410 H 433.29 2.8366 -3.16887 0
M  V30 4411 N 431.605 1.3629 0.791371 0
M  V30 4412 C 432.552 1.30458 1.90393 0
M  V30 4413 C 433.522 0.173632 1.6519 0
M  V30 4414 O 434.707 0.35983 1.87376 0
M  V30 4415 C 431.847 1.09777 3.27174 0
M  V30 4416 C 430.96 2.31929 3.64462 0
M  V30 4417 C 430.095 2.04276 4.90352 0
M  V30 4418 C 429.134 3.224 5.20312 0
M  V30 4419 N 428.271 2.94424 6.37385 0
M  V30 4420 H 433.111 2.25589 1.94714 0
M  V30 4421 H 430.648 1.12122 0.952216 0
M  V30 4422 H 432.606 0.958133 4.06049 0
M  V30 4423 H 431.236 0.183014 3.22281 0
M  V30 4424 H 430.288 2.56703 2.80727 0
M  V30 4425 H 431.6 3.20085 3.82553 0
M  V30 4426 H 430.754 1.87231 5.77087 0
M  V30 4427 H 429.493 1.13428 4.74326 0
M  V30 4428 H 428.498 3.40005 4.32061 0
M  V30 4429 H 429.723 4.14071 5.38258 0
M  V30 4430 H 427.669 2.06185 6.22755 0
M  V30 4431 H 427.586 3.76118 6.55798 0
M  V30 4432 H 428.854 2.80953 7.27108 0
M  V30 4433 N 433.083 -1.0153 1.20538 0
M  V30 4434 C 434.494 -1.56598 1.01657 0
M  V30 4435 C 434.845 -1.91505 -0.426668 0
M  V30 4436 O 433.97 -1.72375 -1.30827 0
M  V30 4437 C 434.565 -2.84542 1.83905 0
M  V30 4438 C 433.124 -3.36133 1.69386 0
M  V30 4439 C 432.271 -2.09427 1.81757 0
M  V30 4440 H 435.222 -0.838974 1.34711 0
M  V30 4441 H 435.243 -3.56004 1.34319 0
M  V30 4442 H 434.755 -2.59105 2.8894 0
M  V30 4443 H 432.856 -3.66528 0.669933 0
M  V30 4444 H 432.969 -4.08248 2.50739 0
M  V30 4445 H 431.333 -2.21941 1.24957 0
M  V30 4446 H 432.116 -1.86414 2.88279 0
M  V30 4447 N 434.561 -1.01147 -1.20859 0
M  V30 4448 C 435.508 -0.577354 -2.23462 0
M  V30 4449 C 436.478 0.399922 -1.61214 0
M  V30 4450 O 437.663 0.300515 -1.88419 0
M  V30 4451 C 434.803 0.083372 -3.44999 0
M  V30 4452 C 433.916 -0.937856 -4.21697 0
M  V30 4453 C 433.051 -0.248717 -5.30617 0
M  V30 4454 C 432.09 -1.25705 -5.99053 0
M  V30 4455 N 431.227 -0.594939 -6.99575 0
M  V30 4456 H 436.067 -1.45695 -2.59956 0
M  V30 4457 H 433.604 -0.729428 -1.27741 0
M  V30 4458 H 435.562 0.483535 -4.14388 0
M  V30 4459 H 434.192 0.926645 -3.09214 0
M  V30 4460 H 433.244 -1.45622 -3.51423 0
M  V30 4461 H 434.556 -1.70493 -4.68757 0
M  V30 4462 H 433.71 0.207215 -6.06346 0
M  V30 4463 H 432.449 0.55071 -4.84581 0
M  V30 4464 H 431.454 -1.72343 -5.2209 0
M  V30 4465 H 432.679 -2.05767 -6.47176 0
M  V30 4466 H 430.625 0.184713 -6.5574 0
M  V30 4467 H 430.542 -1.30017 -7.44736 0
M  V30 4468 H 431.81 -0.162427 -7.79331 0
M  V30 4469 N 436.039 1.36541 -0.78704 0
M  V30 4470 C 437.285 1.99599 -0.358872 0
M  V30 4471 C 437.618 1.62323 1.06606 0
M  V30 4472 O 436.893 0.876858 1.73613 0
M  V30 4473 C 437.176 3.56327 -0.519944 0
M  V30 4474 C 437.029 4.03464 -1.98839 0
M  V30 4475 C 438.348 4.4005 0.0664737 0
M  V30 4476 H 435.467 0.725107 -0.131869 0
M  V30 4477 H 438.109 1.6199 -0.992936 0
M  V30 4478 H 436.259 3.88495 0.0198321 0
M  V30 4479 H 437.931 3.81793 -2.58905 0
M  V30 4480 H 436.174 3.55092 -2.49183 0
M  V30 4481 H 436.845 5.12439 -2.05207 0
M  V30 4482 H 439.321 4.14228 -0.394267 0
M  V30 4483 H 438.197 5.48847 -0.0762682 0
M  V30 4484 H 438.458 4.26655 1.15835 0
M  V30 4485 N 437.518 0.538854 1.48102 0
M  V30 4486 C 438.764 0.00801365 2.02798 0
M  V30 4487 C 439.097 -1.3309 1.41424 0
M  V30 4488 O 438.372 -1.86169 0.563158 0
M  V30 4489 C 438.655 -0.104589 3.59948 0
M  V30 4490 C 438.508 1.26012 4.31788 0
M  V30 4491 C 439.827 -0.827055 4.32259 0
M  V30 4492 H 436.946 0.00438624 0.736987 0
M  V30 4493 H 439.588 0.6976 1.7673 0
M  V30 4494 H 437.738 -0.691893 3.82289 0
M  V30 4495 H 439.41 1.88922 4.2084 0
M  V30 4496 H 437.653 1.83968 3.92859 0
M  V30 4497 H 438.324 1.13424 5.40221 0
M  V30 4498 H 440.8 -0.328578 4.14801 0
M  V30 4499 H 439.676 -0.87476 5.41885 0
M  V30 4500 H 439.937 -1.87927 4.0017 0
M  V30 4501 N 438.996 -1.55193 0.274407 0
M  V30 4502 C 439.926 -2.25471 -0.607032 0
M  V30 4503 C 440.907 -1.24461 -1.15946 0
M  V30 4504 O 442.092 -1.53179 -1.19373 0
M  V30 4505 C 439.222 -2.97526 -1.79153 0
M  V30 4506 C 438.176 -4.05459 -1.37067 0
M  V30 4507 C 437.502 -4.65084 -2.6382 0
M  V30 4508 C 438.802 -5.19691 -0.521389 0
M  V30 4509 H 440.496 -2.99393 -0.0209343 0
M  V30 4510 H 438.042 -1.43997 -0.00862866 0
M  V30 4511 H 439.995 -3.45402 -2.41404 0
M  V30 4512 H 438.719 -2.21138 -2.40344 0
M  V30 4513 H 437.378 -3.58393 -0.771355 0
M  V30 4514 H 437.026 -3.85365 -3.23268 0
M  V30 4515 H 436.726 -5.37961 -2.36372 0
M  V30 4516 H 438.25 -5.15708 -3.26921 0
M  V30 4517 H 439.664 -5.63623 -1.04889 0
M  V30 4518 H 438.061 -5.99126 -0.341825 0
M  V30 4519 H 439.131 -4.82713 0.46 0
M  V30 4520 N 440.474 -0.00167713 -1.576 0
M  V30 4521 C 441.704 0.692754 -1.94639 0
M  V30 4522 C 442.112 1.67744 -0.87513 0
M  V30 4523 O 441.455 1.8305 0.154382 0
M  V30 4524 C 441.517 1.47881 -3.27676 0
M  V30 4525 C 441.181 0.655518 -4.52274 0
M  V30 4526 C 442.178 -0.0575214 -5.19868 0
M  V30 4527 C 439.863 0.600994 -4.98692 0
M  V30 4528 C 441.857 -0.814052 -6.3218 0
M  V30 4529 C 439.544 -0.15926 -6.10892 0
M  V30 4530 C 440.542 -0.865515 -6.77494 0
M  V30 4531 O 440.23 -1.61336 -7.87544 0
M  V30 4532 H 439.962 0.197792 -0.646417 0
M  V30 4533 H 442.516 -0.049423 -2.05341 0
M  V30 4534 H 440.746 2.2655 -3.13388 0
M  V30 4535 H 442.435 2.05874 -3.49816 0
M  V30 4536 H 443.201 -0.0245611 -4.84994 0
M  V30 4537 H 439.08 1.14025 -4.46676 0
M  V30 4538 H 442.624 -1.36584 -6.84098 0
M  V30 4539 H 438.521 -0.194035 -6.45208 0
M  V30 4540 H 439.289 -1.53025 -8.04068 0
M  V30 4541 N 441.952 1.55251 0.271103 0
M  V30 4542 C 443.177 1.80306 1.02491 0
M  V30 4543 C 443.602 0.575457 1.79081 0
M  V30 4544 O 442.96 -0.474987 1.74967 0
M  V30 4545 C 443.008 3.02832 1.95768 0
M  V30 4546 O 442.112 2.78051 3.04568 0
M  V30 4547 H 441.453 0.595896 0.292923 0
M  V30 4548 H 443.983 2.02397 0.299436 0
M  V30 4549 H 443.993 3.31616 2.37686 0
M  V30 4550 H 442.668 3.9183 1.39434 0
M  V30 4551 H 441.245 2.60369 2.66951 0
M  V30 4552 N 443.43 -0.535701 1.48216 0
M  V30 4553 C 444.34 -1.66785 1.64985 0
M  V30 4554 C 445.356 -1.65654 0.532414 0
M  V30 4555 O 446.532 -1.8471 0.80275 0
M  V30 4556 C 443.597 -3.0326 1.68031 0
M  V30 4557 C 442.658 -3.1529 2.9136 0
M  V30 4558 C 441.891 -4.45255 2.94252 0
M  V30 4559 O 442.114 -5.32011 2.05719 0
M  V30 4560 O 441.048 -4.6153 3.86359 0
M  V30 4561 H 444.874 -1.55576 2.60825 0
M  V30 4562 H 442.459 -0.70815 1.31551 0
M  V30 4563 H 444.341 -3.84436 1.72589 0
M  V30 4564 H 443.016 -3.14805 0.753628 0
M  V30 4565 H 441.923 -2.3343 2.92337 0
M  V30 4566 H 443.256 -3.08658 3.83394 0
M  V30 4567 N 444.908 -1.36708 -0.784132 0
M  V30 4568 C 446.185 -1.21776 -1.53069 0
M  V30 4569 C 446.565 0.193876 -2.10208 0
M  V30 4570 O 445.913 1.20012 -1.94446 0
M  V30 4571 C 446.123 -2.30395 -2.62143 0
M  V30 4572 C 447.471 -2.67325 -3.29882 0
M  V30 4573 O 448.495 -2.29478 -2.7243 0
M  V30 4574 O 447.354 -3.32485 -4.33724 0
M  V30 4575 H 444.448 -0.474459 -0.677361 0
M  V30 4576 H 446.994 -1.48454 -0.82216 0
M  V30 4577 H 445.766 -3.2498 -2.17953 0
M  V30 4578 H 445.389 -2.05112 -3.40609 0
M  V30 4579 N 446.386 1.0089 -1.21074 0
M  V30 4580 C 447.632 1.74866 -1.02712 0
M  V30 4581 C 447.965 1.89178 0.438787 0
M  V30 4582 O 447.24 1.42325 1.32567 0
M  V30 4583 C 447.523 3.16347 -1.72036 0
M  V30 4584 C 447.376 3.09782 -3.26121 0
M  V30 4585 C 448.695 4.15187 -1.45973 0
M  V30 4586 H 445.814 0.634736 -0.374539 0
M  V30 4587 H 448.456 1.17646 -1.49196 0
M  V30 4588 H 446.606 3.65201 -1.32517 0
M  V30 4589 H 448.278 2.68673 -3.74983 0
M  V30 4590 H 446.521 2.46982 -3.56626 0
M  V30 4591 H 447.192 4.09829 -3.6979 0
M  V30 4592 H 449.668 3.75022 -1.80272 0
M  V30 4593 H 448.544 5.12331 -1.96999 0
M  V30 4594 H 448.805 4.40386 -0.388924 0
M  V30 4595 N 447.864 1.01787 1.20321 0
M  V30 4596 C 448.812 0.58254 2.25187 0
M  V30 4597 C 449.806 -0.379359 1.65098 0
M  V30 4598 O 451.012 -0.249142 1.78267 0
M  V30 4599 H 447.387 0.170078 0.732514 0
M  V30 4600 H 449.358 1.47788 2.59232 0
M  V30 4601 C 448.107 -0.0620885 3.47645 0
M  V30 4602 H 447.43 0.669069 3.94162 0
M  V30 4603 H 448.87 -0.329784 4.22716 0
M  V30 4604 C 447.329 -1.3053 3.10586 0
M  V30 4605 O 447.859 -2.39848 3.22236 0
M  V30 4606 N 446.065 -1.18988 2.65123 0
M  V30 4607 H 445.612 -0.300341 2.55843 0
M  V30 4608 H 445.57 -2.02267 2.40698 0
M  V30 4609 N 449.342 -1.36122 0.79427 0
M  V30 4610 C 450.275 -2.27759 0.141845 0
M  V30 4611 C 451.253 -1.47471 -0.684921 0
M  V30 4612 O 452.437 -1.76759 -0.654857 0
M  V30 4613 C 449.564 -3.29008 -0.804446 0
M  V30 4614 C 448.61 -4.26459 -0.0588617 0
M  V30 4615 S 449.443 -5.20253 1.26873 0
M  V30 4616 C 450.599 -6.25048 0.326562 0
M  V30 4617 H 450.832 -2.82746 0.918818 0
M  V30 4618 H 448.365 -1.42736 0.588722 0
M  V30 4619 H 450.323 -3.87842 -1.34495 0
M  V30 4620 H 448.984 -2.72924 -1.5547 0
M  V30 4621 H 448.177 -4.97973 -0.777087 0
M  V30 4622 H 447.779 -3.71731 0.411309 0
M  V30 4623 H 450.071 -6.75705 -0.492795 0
M  V30 4624 H 451.014 -7.00852 1.01053 0
M  V30 4625 H 451.422 -5.64454 -0.0722627 0
M  V30 4626 N 450.82 -0.546701 -1.47814 0
M  V30 4627 C 451.73 0.21026 -2.33656 0
M  V30 4628 C 452.746 0.922413 -1.47538 0
M  V30 4629 O 453.922 0.893652 -1.80488 0
M  V30 4630 C 450.987 1.23348 -3.24016 0
M  V30 4631 C 450.048 0.529883 -4.26017 0
M  V30 4632 C 449.281 1.50435 -5.12059 0
M  V30 4633 O 449.504 2.73837 -5.00369 0
M  V30 4634 O 448.438 1.03459 -5.92942 0
M  V30 4635 H 452.264 -0.493605 -2.99662 0
M  V30 4636 H 449.849 -0.307427 -1.46203 0
M  V30 4637 H 451.731 1.82438 -3.79861 0
M  V30 4638 H 450.406 1.91945 -2.60651 0
M  V30 4639 H 449.313 -0.101948 -3.73961 0
M  V30 4640 H 450.646 -0.11445 -4.92067 0
M  V30 4641 N 452.299 1.55045 -0.282633 0
M  V30 4642 C 453.527 2.04168 0.33512 0
M  V30 4643 C 453.942 1.16071 1.48906 0
M  V30 4644 O 453.299 0.182391 1.81586 0
M  V30 4645 C 453.35 3.52332 0.808957 0
M  V30 4646 O 453.071 4.37078 -0.299038 0
M  V30 4647 C 454.572 4.17375 1.49375 0
M  V30 4648 H 451.792 0.666744 0.0754543 0
M  V30 4649 H 454.336 2.00205 -0.416918 0
M  V30 4650 H 452.491 3.56715 1.51106 0
M  V30 4651 H 452.905 5.24458 0.0665514 0
M  V30 4652 H 454.379 5.22627 1.77664 0
M  V30 4653 H 454.856 3.65999 2.42778 0
M  V30 4654 H 455.462 4.17016 0.835305 0
M  V30 4655 N 453.777 0.010035 1.57597 0
M  V30 4656 C 455.188 -0.531426 1.78977 0
M  V30 4657 C 455.539 -1.73375 0.918454 0
M  V30 4658 O 454.664 -2.16047 0.123635 0
M  V30 4659 C 455.259 -0.97086 3.24592 0
M  V30 4660 C 453.818 -1.45756 3.47033 0
M  V30 4661 C 452.965 -0.413384 2.74201 0
M  V30 4662 H 455.916 0.236166 1.56933 0
M  V30 4663 H 455.937 -1.83633 3.33255 0
M  V30 4664 H 455.449 -0.0955893 3.87982 0
M  V30 4665 H 453.55 -2.35339 2.88871 0
M  V30 4666 H 453.663 -1.4781 4.55729 0
M  V30 4667 H 452.027 -0.877266 2.39115 0
M  V30 4668 H 452.81 0.453092 3.40297 0
M  V30 4669 N 455.255 -1.55392 -0.262866 0
M  V30 4670 C 456.532 -1.67204 -1.01499 0
M  V30 4671 C 456.912 -0.545186 -2.03939 0
M  V30 4672 O 456.26 0.453467 -2.23955 0
M  V30 4673 C 456.47 -3.06847 -1.6627 0
M  V30 4674 C 457.818 -3.64928 -2.17054 0
M  V30 4675 O 458.842 -3.09545 -1.76239 0
M  V30 4676 O 457.701 -4.61984 -2.91947 0
M  V30 4677 H 454.795 -0.679467 -0.471438 0
M  V30 4678 H 457.341 -1.67729 -0.257918 0
M  V30 4679 H 456.113 -3.80309 -0.920915 0
M  V30 4680 H 455.736 -3.10266 -2.48638 0
M  V30 4681 N 456.733 0.527833 -1.48498 0
M  V30 4682 C 457.961 1.30823 -1.6029 0
M  V30 4683 C 458.376 1.86945 -0.263974 0
M  V30 4684 O 457.733 1.6651 0.747034 0
M  V30 4685 C 457.784 2.45756 -2.65116 0
M  V30 4686 O 457.505 1.91946 -3.93813 0
M  V30 4687 C 459.006 3.37543 -2.87367 0
M  V30 4688 H 456.226 0.397763 -0.540394 0
M  V30 4689 H 458.77 0.636529 -1.94341 0
M  V30 4690 H 456.925 3.08806 -2.33917 0
M  V30 4691 H 457.339 2.67195 -4.51339 0
M  V30 4692 H 458.813 4.14532 -3.6451 0
M  V30 4693 H 459.29 3.92905 -1.9627 0
M  V30 4694 H 459.896 2.80283 -3.19878 0
M  V30 4695 N 458.211 1.37122 0.776871 0
M  V30 4696 C 459.161 1.28989 1.88005 0
M  V30 4697 C 460.145 0.178765 1.59904 0
M  V30 4698 O 461.337 0.412705 1.72121 0
M  V30 4699 C 458.466 1.09402 3.25402 0
M  V30 4700 C 457.552 2.25036 3.59471 0
M  V30 4701 N 457.943 3.50407 3.64759 0
M  V30 4702 C 456.241 2.17078 3.89607 0
M  V30 4703 C 456.942 4.26628 3.95428 0
M  V30 4704 N 455.918 3.55709 4.11062 0
M  V30 4705 H 459.72 2.2394 1.90337 0
M  V30 4706 H 457.234 1.30021 0.973052 0
M  V30 4707 H 459.231 1.01661 4.04315 0
M  V30 4708 H 457.891 0.153632 3.24336 0
M  V30 4709 H 458.902 3.8438 3.47091 0
M  V30 4710 H 455.579 1.31067 3.96393 0
M  V30 4711 H 456.969 5.35107 4.06338 0
M  V30 4712 N 459.689 -1.00246 1.21608 0
M  V30 4713 C 460.619 -2.10921 1.00172 0
M  V30 4714 C 461.6 -1.69938 -0.0741587 0
M  V30 4715 O 462.785 -1.94009 0.0861753 0
M  V30 4716 C 459.915 -3.42618 0.568355 0
M  V30 4717 C 458.869 -3.97407 1.58909 0
M  V30 4718 C 458.195 -5.25038 1.01187 0
M  V30 4719 C 459.495 -4.2918 2.97661 0
M  V30 4720 H 461.189 -2.29112 1.92739 0
M  V30 4721 H 458.735 -1.10101 0.928102 0
M  V30 4722 H 460.688 -4.19444 0.405555 0
M  V30 4723 H 459.412 -3.24227 -0.392961 0
M  V30 4724 H 458.071 -3.22703 1.73949 0
M  V30 4725 H 457.719 -5.02982 0.0421965 0
M  V30 4726 H 457.419 -5.62661 1.6937 0
M  V30 4727 H 458.943 -6.04507 0.860448 0
M  V30 4728 H 460.357 -4.96839 2.86049 0
M  V30 4729 H 458.754 -4.77952 3.6288 0
M  V30 4730 H 459.824 -3.3735 3.48315 0
M  V30 4731 N 461.167 -1.02423 -1.1978 0
M  V30 4732 C 462.392 -0.7373 -1.93852 0
M  V30 4733 C 462.817 0.696923 -1.74713 0
M  V30 4734 O 462.175 1.48056 -1.04638 0
M  V30 4735 C 462.223 -1.08783 -3.438 0
M  V30 4736 O 461.327 -0.20383 -4.11896 0
M  V30 4737 H 460.668 -0.27284 -0.605355 0
M  V30 4738 H 463.198 -1.36966 -1.51992 0
M  V30 4739 H 463.208 -1.04276 -3.9445 0
M  V30 4740 H 461.883 -2.13274 -3.57053 0
M  V30 4741 H 460.46 -0.307091 -3.71633 0
M  V30 4742 N 462.645 1.35699 -0.801477 0
M  V30 4743 C 463.875 2.02862 -0.3912 0
M  V30 4744 C 464.283 1.60552 1.00099 0
M  V30 4745 O 463.626 0.796215 1.65548 0
M  V30 4746 C 463.688 3.57386 -0.389299 0
M  V30 4747 C 463.352 4.22943 -1.73113 0
M  V30 4748 C 464.349 4.44984 -2.68859 0
M  V30 4749 C 462.034 4.60167 -2.01373 0
M  V30 4750 C 464.028 5.03345 -3.91053 0
M  V30 4751 C 461.715 5.18243 -3.23832 0
M  V30 4752 C 462.713 5.39773 -4.1849 0
M  V30 4753 O 462.401 5.96626 -5.38788 0
M  V30 4754 H 462.133 0.657341 -0.157732 0
M  V30 4755 H 464.687 1.74407 -1.08496 0
M  V30 4756 H 462.917 3.85011 0.361031 0
M  V30 4757 H 464.606 4.059 -0.0020365 0
M  V30 4758 H 465.372 4.1661 -2.48316 0
M  V30 4759 H 461.251 4.42726 -1.28508 0
M  V30 4760 H 464.795 5.20065 -4.64949 0
M  V30 4761 H 460.692 5.46044 -3.44248 0
M  V30 4762 H 461.46 6.15082 -5.40015 0
M  V30 4763 N 464.123 0.554532 1.47522 0
M  V30 4764 C 465.07 -0.19466 2.29978 0
M  V30 4765 C 466.04 -0.910882 1.38896 0
M  V30 4766 O 467.225 -0.907102 1.67858 0
M  V30 4767 C 464.365 -1.22035 3.22802 0
M  V30 4768 C 463.478 -0.510474 4.28973 0
M  V30 4769 C 462.613 -1.52123 5.08952 0
M  V30 4770 C 461.652 -0.796173 6.069 0
M  V30 4771 N 460.789 -1.75363 6.79847 0
M  V30 4772 H 465.629 0.51461 2.93523 0
M  V30 4773 H 463.166 0.265607 1.44682 0
M  V30 4774 H 465.124 -1.8276 3.7504 0
M  V30 4775 H 463.754 -1.89769 2.61127 0
M  V30 4776 H 462.806 0.211234 3.79813 0
M  V30 4777 H 464.118 0.0576503 4.98767 0
M  V30 4778 H 463.272 -2.20207 5.65326 0
M  V30 4779 H 462.011 -2.12327 4.39054 0
M  V30 4780 H 461.016 -0.101388 5.49707 0
M  V30 4781 H 462.241 -0.199911 6.78806 0
M  V30 4782 H 460.187 -2.3443 6.12682 0
M  V30 4783 H 460.104 -1.23759 7.45801 0
M  V30 4784 H 461.372 -2.4257 7.40797 0
M  V30 4785 N 465.601 -1.54893 0.290851 0
M  V30 4786 C 467.012 -1.85584 -0.203816 0
M  V30 4787 C 467.363 -1.21285 -1.54222 0
M  V30 4788 O 466.488 -0.506841 -2.10381 0
M  V30 4789 C 467.083 -3.367 -0.376595 0
M  V30 4790 C 465.642 -3.6746 -0.815485 0
M  V30 4791 C 464.789 -2.77178 0.0821087 0
M  V30 4792 H 467.74 -1.50208 0.512175 0
M  V30 4793 H 467.761 -3.60656 -1.21275 0
M  V30 4794 H 467.273 -3.8347 0.59767 0
M  V30 4795 H 465.374 -3.26201 -1.80066 0
M  V30 4796 H 465.487 -4.7478 -0.641905 0
M  V30 4797 H 463.851 -2.50925 -0.436895 0
M  V30 4798 H 464.634 -3.26767 1.05254 0
M  V30 4799 N 467.08 -0.0183926 -1.57589 0
M  V30 4800 C 468.328 0.661253 -1.90976 0
M  V30 4801 C 468.649 1.73281 -0.894353 0
M  V30 4802 O 467.919 1.9579 0.0656788 0
M  V30 4803 H 466.499 0.247233 -0.704901 0
M  V30 4804 H 469.161 -0.0636639 -1.94796 0
M  V30 4805 H 468.257 1.12083 -2.9128 0
M  V30 4806 N 468.558 1.5553 0.254621 0
M  V30 4807 C 469.505 1.89666 1.31512 0
M  V30 4808 C 470.475 0.750057 1.482 0
M  V30 4809 O 471.66 1.00301 1.62309 0
M  V30 4810 C 468.8 2.19009 2.667 0
M  V30 4811 C 467.913 3.46435 2.58083 0
M  V30 4812 C 467.048 3.65386 3.85573 0
M  V30 4813 C 466.087 4.8644 3.71541 0
M  V30 4814 N 465.224 5.01952 4.90906 0
M  V30 4815 H 470.064 2.80109 1.017 0
M  V30 4816 H 467.601 1.38666 0.490938 0
M  V30 4817 H 469.559 2.34025 3.45381 0
M  V30 4818 H 468.189 1.31779 2.94676 0
M  V30 4819 H 467.241 3.39792 1.71013 0
M  V30 4820 H 468.553 4.35258 2.43622 0
M  V30 4821 H 467.707 3.80319 4.72697 0
M  V30 4822 H 466.446 2.74781 4.02922 0
M  V30 4823 H 465.451 4.71491 2.82801 0
M  V30 4824 H 466.676 5.78497 3.55694 0
M  V30 4825 H 464.622 4.14283 5.08631 0
M  V30 4826 H 464.539 5.84851 4.79046 0
M  V30 4827 H 465.807 5.21289 5.7955 0
M  V30 4828 N 470.036 -0.519951 1.48776 0
M  V30 4829 C 471.284 -1.2727 1.56993 0
M  V30 4830 C 471.605 -1.9339 0.25004 0
M  V30 4831 O 470.875 -1.81822 -0.729216 0
M  V30 4832 H 469.455 -0.472732 0.578389 0
M  V30 4833 H 472.117 -0.604234 1.85297 0
M  V30 4834 H 471.213 -2.04669 2.3562 0
M  V30 4835 N 471.514 -1.37532 -0.769588 0
M  V30 4836 C 472.791 -1.23392 -1.51768 0
M  V30 4837 C 473.171 0.17157 -2.10402 0
M  V30 4838 O 472.519 1.17943 -1.95708 0
M  V30 4839 C 472.729 -2.33163 -2.59685 0
M  V30 4840 C 474.077 -2.70809 -3.27028 0
M  V30 4841 O 475.101 -2.32355 -2.69981 0
M  V30 4842 O 473.96 -3.37066 -4.30173 0
M  V30 4843 H 471.054 -0.481617 -0.67229 0
M  V30 4844 H 473.6 -1.49318 -0.806368 0
M  V30 4845 H 472.372 -3.27273 -2.14494 0
M  V30 4846 H 471.995 -2.08713 -3.38415 0
M  V30 4847 N 472.992 0.995999 -1.22138 0
M  V30 4848 C 473.902 2.11985 -1.00496 0
M  V30 4849 C 474.918 1.7394 0.0457701 0
M  V30 4850 O 476.094 2.00868 -0.146273 0
M  V30 4851 C 473.159 3.41779 -0.582086 0
M  V30 4852 C 472.22 3.93943 -1.70608 0
M  V30 4853 C 471.453 5.17542 -1.30328 0
M  V30 4854 O 471.676 5.70114 -0.180743 0
M  V30 4855 O 470.61 5.63382 -2.11861 0
M  V30 4856 H 474.436 2.33123 -1.94647 0
M  V30 4857 H 472.021 1.10358 -1.00705 0
M  V30 4858 H 473.903 4.1989 -0.356467 0
M  V30 4859 H 472.578 3.22007 0.330592 0
M  V30 4860 H 471.485 3.17019 -1.98619 0
M  V30 4861 H 472.818 4.18141 -2.59651 0
M  V30 4862 N 474.47 1.03057 1.19235 0
M  V30 4863 C 475.418 0.606391 2.24557 0
M  V30 4864 C 476.412 -0.361826 1.65491 0
M  V30 4865 O 477.618 -0.23022 1.78522 0
M  V30 4866 H 473.993 0.177838 0.730669 0
M  V30 4867 H 475.964 1.50529 2.5765 0
M  V30 4868 C 474.713 -0.0252127 3.47691 0
M  V30 4869 H 474.036 0.710838 3.9343 0
M  V30 4870 H 475.476 -0.284931 4.23042 0
M  V30 4871 C 473.935 -1.27229 3.11953 0
M  V30 4872 O 474.465 -2.36416 3.24762 0
M  V30 4873 N 472.671 -1.16169 2.6637 0
M  V30 4874 H 472.218 -0.273189 2.56147 0
M  V30 4875 H 472.176 -1.99703 2.42829 0
M  V30 4876 N 475.948 -1.35272 0.808662 0
M  V30 4877 C 477.173 -2.03477 0.401475 0
M  V30 4878 C 477.598 -1.60537 -0.980279 0
M  V30 4879 O 476.956 -0.78304 -1.63518 0
M  V30 4880 C 477.004 -3.57181 0.495354 0
M  V30 4881 O 476.108 -4.09474 -0.490397 0
M  V30 4882 H 475.449 -0.642561 0.167366 0
M  V30 4883 H 477.979 -1.72824 1.09512 0
M  V30 4884 H 477.989 -4.06356 0.365912 0
M  V30 4885 H 476.664 -3.87784 1.5032 0
M  V30 4886 H 475.241 -3.71516 -0.321023 0
M  V30 4887 N 477.426 -0.562348 -1.47226 0
M  V30 4888 C 478.373 0.182461 -2.30078 0
M  V30 4889 C 479.343 0.903503 -1.39377 0
M  V30 4890 O 480.528 0.898188 -1.68337 0
M  V30 4891 C 477.668 1.20322 -3.23445 0
M  V30 4892 C 476.781 0.487717 -4.29238 0
M  V30 4893 C 475.916 1.49422 -5.09752 0
M  V30 4894 C 474.955 0.763976 -6.07314 0
M  V30 4895 N 474.092 1.71755 -6.80768 0
M  V30 4896 H 478.932 -0.530169 -2.93246 0
M  V30 4897 H 476.469 -0.273276 -1.44539 0
M  V30 4898 H 478.427 1.80768 -3.76004 0
M  V30 4899 H 477.057 1.88382 -2.6213 0
M  V30 4900 H 476.109 -0.231374 -3.79696 0
M  V30 4901 H 477.421 -0.0841003 -4.98729 0
M  V30 4902 H 476.575 2.17206 -5.66486 0
M  V30 4903 H 475.314 2.09995 -4.40174 0
M  V30 4904 H 474.319 0.0722344 -5.49753 0
M  V30 4905 H 475.544 0.16391 -6.78902 0
M  V30 4906 H 473.49 2.31177 -6.13916 0
M  V30 4907 H 473.407 1.19802 -7.46447 0
M  V30 4908 H 474.675 2.38638 -7.42073 0
M  V30 4909 N 478.904 1.54736 -0.299062 0
M  V30 4910 C 479.867 2.22127 0.565012 0
M  V30 4911 C 480.867 1.20669 1.06281 0
M  V30 4912 O 482.057 1.45417 0.959145 0
M  V30 4913 C 479.189 2.90611 1.78208 0
M  V30 4914 H 480.382 2.99891 -0.0237448 0
M  V30 4915 H 477.935 1.5622 -0.0498788 0
M  V30 4916 H 478.67 2.16921 2.41072 0
M  V30 4917 H 478.455 3.64984 1.43281 0
M  V30 4918 H 479.945 3.42026 2.396 0
M  V30 4919 N 480.382 0.0267497 1.57577 0
M  V30 4920 C 481.315 -0.99059 2.05579 0
M  V30 4921 C 482.293 -1.31884 0.951065 0
M  V30 4922 O 483.477 -1.43592 1.22121 0
M  V30 4923 C 480.604 -2.31125 2.47586 0
M  V30 4924 C 479.65 -2.13777 3.69055 0
M  V30 4925 S 480.483 -1.4388 5.15809 0
M  V30 4926 C 481.639 -2.77321 5.6111 0
M  V30 4927 H 481.872 -0.581976 2.91548 0
M  V30 4928 H 479.405 -0.184876 1.53289 0
M  V30 4929 H 481.363 -3.07049 2.72454 0
M  V30 4930 H 480.024 -2.6912 1.61967 0
M  V30 4931 H 479.217 -3.11405 3.96287 0
M  V30 4932 H 478.819 -1.45996 3.44327 0
M  V30 4933 H 481.111 -3.73565 5.65204 0
M  V30 4934 H 482.054 -2.54756 6.60685 0
M  V30 4935 H 482.462 -2.82459 4.88751 0
M  V30 4936 N 481.861 -1.55662 -0.24637 0
M  V30 4937 C 482.791 -1.93377 -1.30873 0
M  V30 4938 C 483.772 -0.798773 -1.50179 0
M  V30 4939 O 484.957 -1.0591 -1.62778 0
M  V30 4940 C 482.087 -2.22893 -2.66338 0
M  V30 4941 C 481.041 -3.38649 -2.61727 0
M  V30 4942 C 480.367 -3.53708 -4.00992 0
M  V30 4943 C 481.667 -4.74323 -2.18666 0
M  V30 4944 H 483.361 -2.82363 -0.995552 0
M  V30 4945 H 480.907 -1.35854 -0.477464 0
M  V30 4946 H 482.86 -2.47866 -3.40794 0
M  V30 4947 H 481.584 -1.30733 -2.99293 0
M  V30 4948 H 480.243 -3.13685 -1.89729 0
M  V30 4949 H 479.891 -2.58967 -4.31214 0
M  V30 4950 H 479.591 -4.31551 -3.98795 0
M  V30 4951 H 481.115 -3.81003 -4.77147 0
M  V30 4952 H 482.529 -4.98665 -2.82854 0
M  V30 4953 H 480.926 -5.55273 -2.27579 0
M  V30 4954 H 481.996 -4.71349 -1.13834 0
M  V30 4955 N 483.339 0.512053 -1.4905 0
M  V30 4956 C 484.587 1.26436 -1.57665 0
M  V30 4957 C 484.908 1.93255 -0.260293 0
M  V30 4958 O 484.178 1.82206 0.719564 0
M  V30 4959 H 482.758 0.469658 -0.580888 0
M  V30 4960 H 485.42 0.594398 -1.85615 0
M  V30 4961 H 484.516 2.03417 -2.36702 0
M  V30 4962 N 484.817 1.37938 0.762283 0
M  V30 4963 C 485.749 1.30349 1.88525 0
M  V30 4964 C 486.762 0.217402 1.61342 0
M  V30 4965 O 487.951 0.474291 1.72084 0
M  V30 4966 C 485.051 0.994844 3.23969 0
M  V30 4967 C 484.224 2.18829 3.78725 0
M  V30 4968 C 483.283 1.84844 4.92665 0
M  V30 4969 O 482.309 2.57244 5.07754 0
M  V30 4970 N 483.511 0.798201 5.74986 0
M  V30 4971 H 486.276 2.27114 1.95549 0
M  V30 4972 H 483.837 1.31686 0.941825 0
M  V30 4973 H 485.829 0.748168 3.97724 0
M  V30 4974 H 484.399 0.115446 3.12387 0
M  V30 4975 H 483.619 2.59615 2.96637 0
M  V30 4976 H 484.907 2.98497 4.1204 0
M  V30 4977 H 484.305 0.197611 5.65355 0
M  V30 4978 H 482.862 0.611396 6.48926 0
M  V30 4979 N 486.295 -0.989507 1.22664 0
M  V30 4980 C 487.227 -2.0824 0.957542 0
M  V30 4981 C 488.24 -1.6267 -0.0651098 0
M  V30 4982 O 489.429 -1.77695 0.169312 0
M  V30 4983 C 486.529 -3.36298 0.419145 0
M  V30 4984 C 485.702 -4.10882 1.49982 0
M  V30 4985 C 484.761 -5.17221 0.967904 0
M  V30 4986 O 483.787 -5.44613 1.65487 0
M  V30 4987 N 484.989 -5.80124 -0.20896 0
M  V30 4988 H 487.754 -2.31904 1.89843 0
M  V30 4989 H 485.315 -1.15552 1.13399 0
M  V30 4990 H 487.307 -4.04671 0.0485451 0
M  V30 4991 H 485.877 -3.09671 -0.426937 0
M  V30 4992 H 485.097 -3.37092 2.04359 0
M  V30 4993 H 486.385 -4.57482 2.22682 0
M  V30 4994 H 485.783 -5.60244 -0.783818 0
M  V30 4995 H 484.34 -6.49715 -0.520913 0
M  V30 4996 N 487.773 -1.03688 -1.18687 0
M  V30 4997 C 488.998 -0.757819 -1.93059 0
M  V30 4998 C 489.423 0.678353 -1.75442 0
M  V30 4999 O 488.781 1.46938 -1.06203 0
M  V30 5000 C 488.829 -1.12423 -3.42627 0
M  V30 5001 O 487.933 -0.247505 -4.11657 0
M  V30 5002 H 487.274 -0.279245 -0.602427 0
M  V30 5003 H 489.804 -1.3857 -1.5053 0
M  V30 5004 H 489.814 -1.08454 -3.93322 0
M  V30 5005 H 488.489 -2.17049 -3.54771 0
M  V30 5006 H 487.066 -0.34649 -3.71287 0
M  V30 5007 N 489.251 1.34841 -0.815825 0
M  V30 5008 C 490.184 2.27504 -0.178062 0
M  V30 5009 C 491.162 1.48542 0.661373 0
M  V30 5010 O 492.346 1.77779 0.626653 0
M  V30 5011 C 489.473 3.30246 0.752002 0
M  V30 5012 C 488.519 4.26499 -0.00899172 0
M  V30 5013 S 489.352 5.18169 -1.35134 0
M  V30 5014 C 490.508 6.24449 -0.42596 0
M  V30 5015 H 490.741 2.81248 -0.963684 0
M  V30 5016 H 488.274 1.41781 -0.611355 0
M  V30 5017 H 490.232 3.89933 1.28308 0
M  V30 5018 H 488.893 2.75363 1.51109 0
M  V30 5019 H 488.086 4.99146 0.697766 0
M  V30 5020 H 487.688 3.7103 -0.470396 0
M  V30 5021 H 489.98 6.76404 0.385234 0
M  V30 5022 H 490.923 6.99156 -1.1219 0
M  V30 5023 H 491.331 5.64497 -0.0175461 0
M  V30 5024 N 490.729 0.570148 1.46925 0
M  V30 5025 C 492.14 0.1402 1.86173 0
M  V30 5026 C 492.491 -1.29347 1.47526 0
M  V30 5027 O 491.616 -1.97508 0.884292 0
M  V30 5028 C 492.211 0.247661 3.37894 0
M  V30 5029 C 490.77 -0.127332 3.76185 0
M  V30 5030 C 489.917 0.589349 2.70965 0
M  V30 5031 H 492.868 0.779117 1.38259 0
M  V30 5032 H 492.889 -0.530341 3.76786 0
M  V30 5033 H 492.401 1.29121 3.65991 0
M  V30 5034 H 490.502 -1.17149 3.53704 0
M  V30 5035 H 490.615 0.240238 4.78497 0
M  V30 5036 H 488.979 0.0309824 2.54681 0
M  V30 5037 H 489.762 1.6343 3.01903 0
M  V30 5038 N 492.207 -1.54576 0.307264 0
M  V30 5039 C 493.155 -2.25208 -0.581723 0
M  V30 5040 C 494.149 -1.26031 -1.13192 0
M  V30 5041 O 495.355 -1.43862 -1.08184 0
M  V30 5042 H 491.73 -0.723173 -0.206214 0
M  V30 5043 H 493.701 -2.98378 0.0364663 0
M  V30 5044 C 492.45 -3.01086 -1.73904 0
M  V30 5045 H 491.773 -3.77208 -1.32491 0
M  V30 5046 H 493.213 -3.5378 -2.33701 0
M  V30 5047 C 491.672 -2.08422 -2.64692 0
M  V30 5048 O 492.202 -1.65636 -3.65961 0
M  V30 5049 N 490.408 -1.74247 -2.32564 0
M  V30 5050 H 489.955 -2.09238 -1.50257 0
M  V30 5051 H 489.913 -1.12524 -2.93574 0
M  V30 5052 N 493.685 -0.035106 -1.57561 0
M  V30 5053 C 495.101 0.321334 -1.56332 0
M  V30 5054 C 495.301 1.72509 -1.04129 0
M  V30 5055 O 494.357 2.4287 -0.690694 0
M  V30 5056 C 495.67 0.164469 -3.0025 0
M  V30 5057 C 497.218 0.236786 -3.12103 0
M  V30 5058 C 497.693 0.10864 -4.57871 0
M  V30 5059 N 499.184 0.165433 -4.62904 0
M  V30 5060 C 499.919 0.0901506 -5.73329 0
M  V30 5061 N 499.415 -0.0365606 -6.9279 0
M  V30 5062 N 501.208 0.144572 -5.61914 0
M  V30 5063 H 493.359 -0.952976 -1.89821 0
M  V30 5064 H 495.622 -0.368537 -0.873432 0
M  V30 5065 H 495.328 -0.802746 -3.42416 0
M  V30 5066 H 495.202 0.932194 -3.655 0
M  V30 5067 H 497.589 1.19446 -2.69845 0
M  V30 5068 H 497.67 -0.561419 -2.49563 0
M  V30 5069 H 497.314 -0.845644 -5.00811 0
M  V30 5070 H 497.244 0.925786 -5.18398 0
M  V30 5071 H 499.735 0.263269 -3.76982 0
M  V30 5072 H 500.048 -0.0871487 -7.72751 0
M  V30 5073 H 498.393 -0.0714256 -6.94963 0
M  V30 5074 H 501.584 0.242006 -4.67474 0
M  V30 5075 H 501.757 0.0824413 -6.47948 0
M  V30 5076 N 495.163 1.55791 0.238111 0
M  V30 5077 C 496.574 1.68383 0.806472 0
M  V30 5078 C 496.925 0.634157 1.85669 0
M  V30 5079 O 496.05 -0.217913 2.153 0
M  V30 5080 C 496.645 3.05268 1.46959 0
M  V30 5081 C 495.204 3.1977 1.98555 0
M  V30 5082 C 494.351 2.64279 0.839763 0
M  V30 5083 H 497.302 1.58694 0.0137535 0
M  V30 5084 H 497.323 3.00203 2.33792 0
M  V30 5085 H 496.835 3.81643 0.704993 0
M  V30 5086 H 494.936 2.48234 2.77868 0
M  V30 5087 H 495.049 4.26788 2.17689 0
M  V30 5088 H 493.413 2.22329 1.24265 0
M  V30 5089 H 494.196 3.43187 0.0881032 0
M  V30 5090 N 496.642 -0.504142 1.49319 0
M  V30 5091 C 497.59 -1.62689 1.66238 0
M  V30 5092 C 498.584 -1.6095 0.528349 0
M  V30 5093 O 499.79 -1.65496 0.707887 0
M  V30 5094 H 496.165 -0.539247 0.524134 0
M  V30 5095 H 498.136 -1.45571 2.60484 0
M  V30 5096 C 496.885 -3.00841 1.74328 0
M  V30 5097 H 496.208 -3.02884 2.60963 0
M  V30 5098 H 497.648 -3.78945 1.90202 0
M  V30 5099 C 496.107 -3.33355 0.487416 0
M  V30 5100 O 496.637 -3.99819 -0.388294 0
M  V30 5101 N 494.843 -2.88469 0.351306 0
M  V30 5102 H 494.39 -2.34557 1.06492 0
M  V30 5103 H 494.348 -3.10591 -0.487899 0
M  V30 5104 N 498.12 -1.38341 -0.754957 0
M  V30 5105 C 499.35 -1.37504 -1.54195 0
M  V30 5106 C 499.758 0.0373787 -1.89163 0
M  V30 5107 O 499.101 1.01402 -1.53178 0
M  V30 5108 C 499.163 -2.16488 -2.87008 0
M  V30 5109 C 498.827 -3.65311 -2.74585 0
M  V30 5110 C 499.824 -4.58834 -2.44474 0
M  V30 5111 C 497.509 -4.08649 -2.9208 0
M  V30 5112 C 499.503 -5.93675 -2.32011 0
M  V30 5113 C 497.19 -5.43571 -2.79237 0
M  V30 5114 C 498.188 -6.35898 -2.49245 0
M  V30 5115 O 497.876 -7.68338 -2.36458 0
M  V30 5116 H 497.608 -0.472159 -0.483779 0
M  V30 5117 H 500.162 -1.82515 -0.94221 0
M  V30 5118 H 498.392 -1.66194 -3.49166 0
M  V30 5119 H 500.081 -2.08076 -3.4851 0
M  V30 5120 H 500.847 -4.26657 -2.30627 0
M  V30 5121 H 496.726 -3.37134 -3.14422 0
M  V30 5122 H 500.27 -6.65706 -2.08522 0
M  V30 5123 H 496.167 -5.75345 -2.92657 0
M  V30 5124 H 496.935 -7.78845 -2.5168 0
M  V30 5125 N 499.598 0.982988 -1.23187 0
M  V30 5126 C 500.847 1.71817 -1.05649 0
M  V30 5127 C 501.16 1.91315 0.407176 0
M  V30 5128 O 502.366 2.62256 0.702436 0
M  V30 5129 C 500.822 3.09188 -1.84203 0
M  V30 5130 C 500.43 2.97586 -3.34882 0
M  V30 5131 C 502.174 3.86684 -1.75146 0
M  V30 5132 C 500.081 4.30173 -4.05839 0
M  V30 5133 H 499.011 0.644258 -0.391724 0
M  V30 5134 H 501.662 1.09659 -1.4713 0
M  V30 5135 H 500.044 3.72087 -1.35527 0
M  V30 5136 H 501.218 2.43793 -3.91026 0
M  V30 5137 H 499.533 2.33567 -3.44725 0
M  V30 5138 H 502.13 4.84836 -2.25473 0
M  V30 5139 H 502.473 4.10136 -0.713737 0
M  V30 5140 H 503.006 3.30482 -2.21419 0
M  V30 5141 H 499.745 4.11918 -5.09906 0
M  V30 5142 H 499.265 4.83841 -3.54482 0
M  V30 5143 H 500.944 4.98873 -4.11989 0
M  V30 5144 N 501.076 1.04316 1.18135 0
M  V30 5145 C 502.039 0.640794 2.2006 0
M  V30 5146 C 503.039 -0.303124 1.57917 0
M  V30 5147 O 504.229 -0.0881855 1.73977 0
M  V30 5148 C 501.361 -0.060148 3.40847 0
M  V30 5149 H 502.554 1.54281 2.57172 0
M  V30 5150 H 500.107 0.836004 1.32063 0
M  V30 5151 H 500.842 -0.975845 3.0927 0
M  V30 5152 H 500.627 0.618319 3.87194 0
M  V30 5153 H 502.117 -0.328082 4.16309 0
M  V30 5154 N 502.554 -1.34406 0.822964 0
M  V30 5155 C 503.801 -1.98284 0.411057 0
M  V30 5156 C 504.129 -1.65245 -1.02588 0
M  V30 5157 O 503.384 -0.91619 -1.72929 0
M  V30 5158 C 503.683 -3.52981 0.560268 0
M  V30 5159 C 503.349 -4.05931 1.96293 0
M  V30 5160 C 502.011 -4.20103 2.34664 0
M  V30 5161 C 504.363 -4.34412 2.87985 0
M  V30 5162 C 501.691 -4.60082 3.64062 0
M  V30 5163 C 504.043 -4.75838 4.16847 0
M  V30 5164 C 502.707 -4.88215 4.55195 0
M  V30 5165 H 501.977 -0.725573 0.150416 0
M  V30 5166 H 504.624 -1.60349 1.04692 0
M  V30 5167 H 502.929 -3.91477 -0.158982 0
M  V30 5168 H 504.626 -4.00385 0.222087 0
M  V30 5169 H 501.216 -3.95363 1.65487 0
M  V30 5170 H 505.4 -4.23001 2.59584 0
M  V30 5171 H 500.656 -4.67856 3.93599 0
M  V30 5172 H 504.83 -4.96834 4.87984 0
M  V30 5173 H 502.457 -5.18952 5.55512 0
M  V30 5174 N 504.032 -0.577932 -1.46621 0
M  V30 5175 C 505.448 -0.239242 -1.57797 0
M  V30 5176 C 505.648 1.25843 -1.57371 0
M  V30 5177 O 504.704 2.03988 -1.48813 0
M  V30 5178 C 506.017 -0.884227 -2.87405 0
M  V30 5179 C 507.565 -0.857373 -3.01028 0
M  V30 5180 C 508.04 -1.48181 -4.33366 0
M  V30 5181 N 509.531 -1.44593 -4.40053 0
M  V30 5182 C 510.266 -1.89852 -5.41058 0
M  V30 5183 N 509.762 -2.43062 -6.48762 0
M  V30 5184 N 511.555 -1.80797 -5.3223 0
M  V30 5185 H 503.706 -1.55073 -1.45142 0
M  V30 5186 H 505.969 -0.647903 -0.692044 0
M  V30 5187 H 505.675 -1.93759 -2.93514 0
M  V30 5188 H 505.549 -0.389585 -3.75183 0
M  V30 5189 H 507.936 0.187357 -2.94505 0
M  V30 5190 H 508.017 -1.38999 -2.14739 0
M  V30 5191 H 507.661 -2.52572 -4.40647 0
M  V30 5192 H 507.591 -0.924464 -5.18422 0
M  V30 5193 H 510.082 -1.05694 -3.62819 0
M  V30 5194 H 510.395 -2.75466 -7.22038 0
M  V30 5195 H 508.74 -2.47085 -6.49595 0
M  V30 5196 H 511.931 -1.38989 -4.46989 0
M  V30 5197 H 512.104 -2.16385 -6.10804 0
M  V30 5198 N 505.51 1.54411 -0.315457 0
M  V30 5199 C 506.787 1.92562 0.343398 0
M  V30 5200 C 507.167 1.24423 1.70535 0
M  V30 5201 O 506.515 0.385051 2.25232 0
M  V30 5202 C 506.725 3.46168 0.443687 0
M  V30 5203 C 508.073 4.18659 0.707783 0
M  V30 5204 O 509.097 3.52281 0.52693 0
M  V30 5205 O 507.956 5.36198 1.05612 0
M  V30 5206 H 505.05 0.80379 0.194552 0
M  V30 5207 H 507.596 1.65738 -0.364577 0
M  V30 5208 H 506.368 3.8792 -0.513172 0
M  V30 5209 H 505.991 3.79073 1.19956 0
M  V30 5210 N 506.988 0.0434614 1.5754 0
M  V30 5211 C 507.936 -0.951465 2.1225 0
M  V30 5212 C 508.93 -1.3274 1.05245 0
M  V30 5213 O 510.136 -1.30795 1.23663 0
M  V30 5214 H 506.511 -0.324667 0.678303 0
M  V30 5215 H 508.482 -0.464855 2.94757 0
M  V30 5216 C 507.231 -2.21972 2.67626 0
M  V30 5217 H 506.554 -1.93923 3.4962 0
M  V30 5218 H 507.994 -2.89765 3.09536 0
M  V30 5219 C 506.453 -2.95919 1.61038 0
M  V30 5220 O 506.983 -3.8857 1.01862 0
M  V30 5221 N 505.189 -2.58511 1.32741 0
M  V30 5222 H 504.736 -1.83244 1.81051 0
M  V30 5223 H 504.694 -3.08296 0.616531 0
M  V30 5224 N 508.466 -1.55915 -0.229846 0
M  V30 5225 C 509.713 -1.78542 -0.955452 0
M  V30 5226 C 510.041 -0.610785 -1.84661 0
M  V30 5227 O 509.296 0.405213 -1.91459 0
M  V30 5228 C 509.595 -3.06845 -1.8325 0
M  V30 5229 C 509.261 -4.37395 -1.09528 0
M  V30 5230 C 507.923 -4.72868 -0.891598 0
M  V30 5231 C 510.275 -5.18029 -0.574046 0
M  V30 5232 C 507.603 -5.86496 -0.154655 0
M  V30 5233 C 509.955 -6.32423 0.149513 0
M  V30 5234 C 508.619 -6.66504 0.364519 0
M  V30 5235 H 507.889 -0.653333 -0.349625 0
M  V30 5236 H 510.536 -1.90183 -0.224235 0
M  V30 5237 H 508.841 -2.90291 -2.63132 0
M  V30 5238 H 510.538 -3.21553 -2.39592 0
M  V30 5239 H 507.128 -4.09538 -1.26399 0
M  V30 5240 H 511.312 -4.91066 -0.718899 0
M  V30 5241 H 506.568 -6.11396 0.0222356 0
M  V30 5242 H 510.742 -6.94137 0.560947 0
M  V30 5243 H 508.369 -7.54397 0.937495 0
M  V30 5244 N 509.944 0.496216 -1.49584 0
M  V30 5245 C 511.193 1.24668 -1.58558 0
M  V30 5246 C 511.506 1.9359 -0.279703 0
M  V30 5247 O 512.712 2.70365 -0.248048 0
M  V30 5248 C 511.168 2.26388 -2.79779 0
M  V30 5249 C 510.776 1.63384 -4.17145 0
M  V30 5250 C 512.52 3.02233 -2.98086 0
M  V30 5251 C 510.427 2.63243 -5.29582 0
M  V30 5252 H 509.357 0.468995 -0.590389 0
M  V30 5253 H 512.008 0.519985 -1.75978 0
M  V30 5254 H 510.39 3.02241 -2.55863 0
M  V30 5255 H 511.564 0.93491 -4.51216 0
M  V30 5256 H 509.879 0.999121 -4.04236 0
M  V30 5257 H 512.476 3.76919 -3.79257 0
M  V30 5258 H 512.819 3.60132 -2.08831 0
M  V30 5259 H 513.352 2.33495 -3.22063 0
M  V30 5260 H 510.091 2.10119 -6.20911 0
M  V30 5261 H 509.611 3.31363 -4.99959 0
M  V30 5262 H 511.29 3.25575 -5.59115 0
M  V30 5263 N 511.423 1.38739 0.74761 0
M  V30 5264 C 512.671 1.35007 1.50391 0
M  V30 5265 C 512.992 -0.0574274 1.94915 0
M  V30 5266 O 512.262 -1.00628 1.6808 0
M  V30 5267 H 510.842 0.496784 0.557866 0
M  V30 5268 H 513.504 1.73479 0.888319 0
M  V30 5269 H 512.6 2.00474 2.392 0
M  V30 5270 N 512.901 -0.976442 1.23707 0
M  V30 5271 C 513.831 -2.08749 1.04624 0
M  V30 5272 C 514.812 -1.70057 -0.0380956 0
M  V30 5273 O 515.997 -1.93782 0.127308 0
M  V30 5274 C 513.127 -3.41335 0.640902 0
M  V30 5275 C 512.081 -3.93947 1.67302 0
M  V30 5276 C 511.407 -5.22774 1.12301 0
M  V30 5277 C 512.707 -4.22769 3.06697 0
M  V30 5278 H 514.401 -2.24972 1.97555 0
M  V30 5279 H 511.947 -1.08108 0.951247 0
M  V30 5280 H 513.9 -4.18489 0.494434 0
M  V30 5281 H 512.624 -3.24988 -0.324099 0
M  V30 5282 H 511.283 -3.18941 1.80755 0
M  V30 5283 H 510.931 -5.0278 0.148877 0
M  V30 5284 H 510.631 -5.58942 1.81267 0
M  V30 5285 H 512.155 -6.02546 0.988479 0
M  V30 5286 H 513.569 -4.90659 2.96524 0
M  V30 5287 H 511.966 -4.70147 3.72937 0
M  V30 5288 H 513.036 -3.29885 3.55392 0
M  V30 5289 N 514.379 -1.04941 -1.1758 0
M  V30 5290 C 515.312 -0.592518 -2.20373 0
M  V30 5291 C 516.29 0.377561 -1.58156 0
M  V30 5292 O 517.474 0.28978 -1.86259 0
M  V30 5293 C 514.601 0.133215 -3.38438 0
M  V30 5294 C 513.647 -0.791484 -4.19092 0
M  V30 5295 S 514.48 -2.27925 -4.84572 0
M  V30 5296 C 515.636 -1.56462 -6.06028 0
M  V30 5297 H 515.869 -1.46342 -2.58788 0
M  V30 5298 H 513.402 -0.861148 -1.28155 0
M  V30 5299 H 515.36 0.545746 -4.06856 0
M  V30 5300 H 514.021 0.980124 -2.98416 0
M  V30 5301 H 513.214 -0.230039 -5.03475 0
M  V30 5302 H 512.816 -1.14326 -3.56098 0
M  V30 5303 H 515.108 -0.862539 -6.71987 0
M  V30 5304 H 516.051 -2.38583 -6.66696 0
M  V30 5305 H 516.459 -1.05313 -5.5459 0
M  V30 5306 N 515.857 1.33968 -0.830081 0
M  V30 5307 C 517.087 2.01987 -0.434142 0
M  V30 5308 C 517.495 1.62639 0.96671 0
M  V30 5309 O 516.838 0.831151 1.63822 0
M  V30 5310 C 516.9 3.5648 -0.465018 0
M  V30 5311 C 516.564 4.19176 -1.82045 0
M  V30 5312 C 517.561 4.39181 -2.78237 0
M  V30 5313 C 515.246 4.55792 -2.11089 0
M  V30 5314 C 517.24 4.94937 -4.01642 0
M  V30 5315 C 514.927 5.11258 -3.34752 0
M  V30 5316 C 515.925 5.30775 -4.29845 0
M  V30 5317 O 515.613 5.85064 -5.51322 0
M  V30 5318 H 515.345 0.653847 -0.171639 0
M  V30 5319 H 517.899 1.72066 -1.12171 0
M  V30 5320 H 516.129 3.8569 0.279284 0
M  V30 5321 H 517.818 4.05804 -0.0881334 0
M  V30 5322 H 518.584 4.11249 -2.57097 0
M  V30 5323 H 514.463 4.39901 -1.3787 0
M  V30 5324 H 518.007 5.10086 -4.75876 0
M  V30 5325 H 513.904 5.38619 -3.55753 0
M  V30 5326 H 514.672 6.03489 -5.5294 0
M  V30 5327 N 517.335 0.585699 1.46312 0
M  V30 5328 C 518.565 0.0780166 2.06453 0
M  V30 5329 C 518.973 -1.2336 1.43454 0
M  V30 5330 O 518.316 -1.75734 0.535086 0
M  V30 5331 C 518.378 -0.158951 3.59148 0
M  V30 5332 C 518.042 1.06752 4.44357 0
M  V30 5333 C 519.039 1.98031 4.80708 0
M  V30 5334 C 516.724 1.2902 4.85447 0
M  V30 5335 C 518.718 3.09924 5.5698 0
M  V30 5336 C 516.405 2.41218 5.61478 0
M  V30 5337 C 517.403 3.31499 5.97158 0
M  V30 5338 O 517.091 4.41747 6.71651 0
M  V30 5339 H 516.823 0.0558894 0.673686 0
M  V30 5340 H 519.377 0.806994 1.88883 0
M  V30 5341 H 517.607 -0.942575 3.75037 0
M  V30 5342 H 519.296 -0.615513 4.01206 0
M  V30 5343 H 520.062 1.82043 4.49539 0
M  V30 5344 H 515.941 0.596567 4.57124 0
M  V30 5345 H 519.485 3.80415 5.84748 0
M  V30 5346 H 515.382 2.57167 5.9206 0
M  V30 5347 H 516.15 4.40152 6.90079 0
M  V30 5348 N 518.813 -1.54241 0.323641 0
M  V30 5349 C 519.761 -2.25813 -0.557804 0
M  V30 5350 C 520.755 -1.27225 -1.11849 0
M  V30 5351 O 521.961 -1.45001 -1.06652 0
M  V30 5352 H 518.336 -0.72532 -0.198532 0
M  V30 5353 H 520.307 -2.98322 0.0681112 0
M  V30 5354 C 519.056 -3.02913 -1.70701 0
M  V30 5355 H 518.379 -3.78593 -1.28482 0
M  V30 5356 H 519.819 -3.56238 -2.29935 0
M  V30 5357 C 518.278 -2.11217 -2.62467 0
M  V30 5358 O 518.808 -1.69508 -3.64184 0
M  V30 5359 N 517.014 -1.76704 -2.30703 0
M  V30 5360 H 516.561 -2.1082 -1.48029 0
M  V30 5361 H 516.519 -1.15631 -2.92364 0
M  V30 5362 N 520.291 -0.0518155 -1.57515 0
M  V30 5363 C 521.516 0.634896 -1.97443 0
M  V30 5364 C 521.941 1.63546 -0.929207 0
M  V30 5365 O 521.299 1.80981 0.107484 0
M  V30 5366 C 521.347 1.29765 -3.36442 0
M  V30 5367 O 520.451 2.41333 -3.34413 0
M  V30 5368 H 519.792 0.164994 -0.643174 0
M  V30 5369 H 522.322 -0.120407 -2.04245 0
M  V30 5370 H 522.332 1.64918 -3.73184 0
M  V30 5371 H 521.007 0.564361 -4.12053 0
M  V30 5372 H 519.584 2.08122 -3.09418 0
M  V30 5373 N 521.769 1.56035 0.221574 0
M  V30 5374 C 522.997 1.8313 0.962864 0
M  V30 5375 C 523.412 0.630934 1.77946 0
M  V30 5376 O 522.769 -0.400519 1.78051 0
M  V30 5377 C 522.82 3.08742 1.88045 0
M  V30 5378 O 522.541 4.24147 1.09686 0
M  V30 5379 C 524.042 3.48824 2.73563 0
M  V30 5380 H 521.262 0.608775 0.282194 0
M  V30 5381 H 523.806 2.03124 0.23681 0
M  V30 5382 H 521.961 2.90723 2.56045 0
M  V30 5383 H 522.375 4.95505 1.71974 0
M  V30 5384 H 523.849 4.39752 3.3365 0
M  V30 5385 H 524.326 2.70575 3.45956 0
M  V30 5386 H 524.932 3.69282 2.10976 0
M  V30 5387 N 523.247 -0.488276 1.49845 0
M  V30 5388 C 524.495 -1.23911 1.59657 0
M  V30 5389 C 524.816 -1.92816 0.291005 0
M  V30 5390 O 524.086 -1.83328 -0.690485 0
M  V30 5391 H 522.666 -0.460357 0.588286 0
M  V30 5392 H 525.328 -0.564794 1.86537 0
M  V30 5393 H 524.424 -1.99625 2.39909 0
M  V30 5394 N 524.725 -1.39134 -0.740242 0
M  V30 5395 C 525.673 -1.3757 -1.87556 0
M  V30 5396 C 526.667 -0.259593 -1.67399 0
M  V30 5397 O 527.873 -0.429349 -1.74804 0
M  V30 5398 H 524.248 -0.42947 -0.6173 0
M  V30 5399 H 526.219 -2.33345 -1.85991 0
M  V30 5400 C 524.968 -1.23087 -3.25184 0
M  V30 5401 H 524.291 -2.08237 -3.41288 0
M  V30 5402 H 525.731 -1.26049 -4.0483 0
M  V30 5403 C 524.19 0.0611471 -3.36845 0
M  V30 5404 O 524.72 1.03328 -3.88183 0
M  V30 5405 N 522.926 0.122454 -2.90342 0
M  V30 5406 H 522.473 -0.669329 -2.48752 0
M  V30 5407 H 522.431 0.986463 -2.98523 0
M  V30 5408 N 526.204 0.969867 -1.24223 0
M  V30 5409 C 527.137 2.06279 -0.975926 0
M  V30 5410 C 528.115 1.62353 0.0895385 0
M  V30 5411 O 529.299 1.88442 -0.0469418 0
M  V30 5412 C 526.426 3.35391 -0.472315 0
M  V30 5413 C 525.472 3.98266 -1.526 0
M  V30 5414 S 526.305 4.36172 -3.10667 0
M  V30 5415 C 527.461 5.68423 -2.62003 0
M  V30 5416 H 527.694 2.28551 -1.90137 0
M  V30 5417 H 525.227 1.10748 -1.07584 0
M  V30 5418 H 527.185 4.10068 -0.188376 0
M  V30 5419 H 525.846 3.1111 0.432378 0
M  V30 5420 H 525.039 4.91307 -1.12399 0
M  V30 5421 H 524.641 3.30009 -1.75983 0
M  V30 5422 H 526.933 6.45842 -2.0468 0
M  V30 5423 H 527.876 6.13478 -3.53625 0
M  V30 5424 H 528.284 5.26928 -2.02502 0
M  V30 5425 N 527.682 1.05563 1.17022 0
M  V30 5426 C 528.93 0.76642 1.87004 0
M  V30 5427 C 529.251 -0.708854 1.8166 0
M  V30 5428 O 528.521 -1.51242 1.2451 0
M  V30 5429 H 527.101 0.280516 0.692329 0
M  V30 5430 H 529.763 1.33557 1.41945 0
M  V30 5431 H 528.859 1.08472 2.92644 0
M  V30 5432 N 529.16 -1.33526 0.837174 0
M  V30 5433 C 530.406 -1.9813 0.432704 0
M  V30 5434 C 530.739 -1.66168 -1.00508 0
M  V30 5435 O 530.014 -0.94069 -1.70239 0
M  V30 5436 C 530.297 -3.54151 0.651834 0
M  V30 5437 C 530.15 -3.95806 2.13676 0
M  V30 5438 C 531.469 -4.39993 0.0968937 0
M  V30 5439 H 528.588 -0.719713 0.15869 0
M  V30 5440 H 531.23 -1.58193 1.05237 0
M  V30 5441 H 529.38 -3.88301 0.124369 0
M  V30 5442 H 531.052 -3.71921 2.72896 0
M  V30 5443 H 529.295 -3.45599 2.62191 0
M  V30 5444 H 529.966 -5.0447 2.24084 0
M  V30 5445 H 532.442 -4.12479 0.547733 0
M  V30 5446 H 531.318 -5.48186 0.279917 0
M  V30 5447 H 531.579 -4.3066 -0.9992 0
M  V30 5448 N 530.638 -0.59345 -1.46 0
M  V30 5449 C 531.568 0.121192 -2.33185 0
M  V30 5450 C 532.549 0.872977 -1.4599 0
M  V30 5451 O 533.734 0.846321 -1.74789 0
M  V30 5452 C 530.864 1.12844 -3.28456 0
M  V30 5453 C 529.818 0.4908 -4.25177 0
M  V30 5454 C 529.144 1.60529 -5.10034 0
M  V30 5455 C 530.444 -0.578949 -5.19081 0
M  V30 5456 H 532.138 -0.606767 -2.93187 0
M  V30 5457 H 529.684 -0.293242 -1.40983 0
M  V30 5458 H 531.637 1.63684 -3.88311 0
M  V30 5459 H 530.361 1.88681 -2.66584 0
M  V30 5460 H 529.02 0.00339328 -3.666 0
M  V30 5461 H 528.668 2.35359 -4.44539 0
M  V30 5462 H 528.368 1.18422 -5.75543 0
M  V30 5463 H 529.892 2.11623 -5.72755 0
M  V30 5464 H 531.306 -0.155199 -5.7309 0
M  V30 5465 H 529.703 -0.920947 -5.92991 0
M  V30 5466 H 530.773 -1.46109 -4.62364 0
M  V30 5467 N 532.116 1.54067 -0.331816 0
M  V30 5468 C 533.079 2.23275 0.517768 0
M  V30 5469 C 534.079 1.22897 1.03697 0
M  V30 5470 O 535.269 1.47419 0.928084 0
M  V30 5471 C 532.401 2.94326 1.72004 0
M  V30 5472 H 533.594 2.99773 -0.0873507 0
M  V30 5473 H 531.147 1.56079 -0.0830042 0
M  V30 5474 H 531.882 2.21986 2.36417 0
M  V30 5475 H 531.667 3.67941 1.35507 0
M  V30 5476 H 533.157 3.47031 2.32291 0
M  V30 5477 N 533.594 0.0601682 1.57485 0
M  V30 5478 C 534.842 -0.610386 1.92662 0
M  V30 5479 C 535.163 -1.70849 0.939981 0
M  V30 5480 O 534.433 -1.95895 -0.0137455 0
M  V30 5481 H 533.013 -0.228457 0.711208 0
M  V30 5482 H 535.675 0.115288 1.94559 0
M  V30 5483 H 534.771 -1.0432 2.94149 0
M  V30 5484 N 535.072 -1.5615 -0.213296 0
M  V30 5485 C 536.004 -1.89586 -1.28802 0
M  V30 5486 C 537.017 -0.784844 -1.42633 0
M  V30 5487 O 538.206 -1.06319 -1.43383 0
M  V30 5488 C 535.306 -2.09665 -2.66259 0
M  V30 5489 C 534.479 -3.40726 -2.7427 0
M  V30 5490 C 533.538 -3.50137 -3.92798 0
M  V30 5491 O 532.564 -4.23105 -3.8075 0
M  V30 5492 N 533.766 -2.81886 -5.07465 0
M  V30 5493 H 536.531 -2.82368 -1.00442 0
M  V30 5494 H 534.092 -1.56796 -0.403302 0
M  V30 5495 H 536.084 -2.13268 -3.43946 0
M  V30 5496 H 534.654 -1.23469 -2.87183 0
M  V30 5497 H 533.874 -3.4915 -1.82997 0
M  V30 5498 H 535.162 -4.27048 -2.76599 0
M  V30 5499 H 534.56 -2.22397 -5.2015 0
M  V30 5500 H 533.117 -2.91139 -5.83165 0
M  V30 5501 N 536.55 0.480323 -1.50102 0
M  V30 5502 C 537.513 1.56181 -1.6775 0
M  V30 5503 C 538.513 1.51156 -0.548503 0
M  V30 5504 O 539.703 1.5394 -0.815363 0
M  V30 5505 C 536.835 2.95823 -1.69415 0
M  V30 5506 H 538.028 1.41855 -2.6423 0
M  V30 5507 H 535.581 0.70605 -1.39444 0
M  V30 5508 H 536.316 3.15604 -0.745948 0
M  V30 5509 H 536.101 3.00878 -2.51425 0
M  V30 5510 H 537.591 3.74359 -1.85054 0
M  V30 5511 N 538.028 1.39524 0.732853 0
M  V30 5512 C 539.253 1.40329 1.52717 0
M  V30 5513 C 539.678 0.000286574 1.881 0
M  V30 5514 O 539.036 -0.987262 1.52062 0
M  V30 5515 C 539.084 2.28464 2.78992 0
M  V30 5516 O 538.188 1.716 3.75003 0
M  V30 5517 H 537.529 0.47778 0.461109 0
M  V30 5518 H 540.059 1.83546 0.903996 0
M  V30 5519 H 540.069 2.43051 3.27705 0
M  V30 5520 H 538.744 3.30425 2.52572 0
M  V30 5521 H 537.321 1.66267 3.33781 0
M  V30 5522 N 539.506 -0.963266 1.24736 0
M  V30 5523 C 540.438 -2.06162 1.0015 0
M  V30 5524 C 541.451 -1.62771 -0.0305905 0
M  V30 5525 O 542.64 -1.77296 0.206966 0
M  V30 5526 C 539.74 -3.35333 0.490385 0
M  V30 5527 C 538.913 -4.07609 1.58663 0
M  V30 5528 C 537.972 -5.15052 1.0774 0
M  V30 5529 O 536.998 -5.4098 1.77002 0
M  V30 5530 N 538.2 -5.80436 -0.0858605 0
M  V30 5531 H 540.965 -2.27825 1.94719 0
M  V30 5532 H 538.526 -1.13121 1.15825 0
M  V30 5533 H 540.518 -4.04477 0.134371 0
M  V30 5534 H 539.088 -3.10507 -0.361155 0
M  V30 5535 H 538.308 -3.32681 2.11463 0
M  V30 5536 H 539.596 -4.52656 2.32336 0
M  V30 5537 H 538.994 -5.6178 -0.664806 0
M  V30 5538 H 537.551 -6.50674 -0.382981 0
M  V30 5539 N 540.985 -1.06182 -1.16461 0
M  V30 5540 C 541.915 -0.692861 -2.22984 0
M  V30 5541 C 542.896 0.314122 -1.67174 0
M  V30 5542 O 544.081 0.189499 -1.93273 0
M  V30 5543 C 541.211 -0.07732 -3.47214 0
M  V30 5544 C 540.165 -1.01015 -4.15909 0
M  V30 5545 C 539.491 -0.257973 -5.34077 0
M  V30 5546 C 540.791 -2.33868 -4.67015 0
M  V30 5547 H 542.485 -1.58343 -2.54102 0
M  V30 5548 H 540.031 -0.76279 -1.22137 0
M  V30 5549 H 541.984 0.19266 -4.20959 0
M  V30 5550 H 540.708 0.848254 -3.15392 0
M  V30 5551 H 539.367 -1.26486 -3.44088 0
M  V30 5552 H 539.015 0.670684 -4.98509 0
M  V30 5553 H 538.715 -0.879638 -5.80979 0
M  V30 5554 H 540.239 0.00448788 -6.106 0
M  V30 5555 H 541.653 -2.1279 -5.32347 0
M  V30 5556 H 540.05 -2.91522 -5.24533 0
M  V30 5557 H 541.12 -2.97019 -3.83286 0
M  V30 5558 N 542.463 1.3308 -0.844243 0
M  V30 5559 C 543.411 2.31028 -0.269954 0
M  V30 5560 C 544.405 1.58381 0.600997 0
M  V30 5561 O 545.611 1.73203 0.48996 0
M  V30 5562 H 541.986 0.748866 -0.0685782 0
M  V30 5563 H 543.957 2.76967 -1.11049 0
M  V30 5564 C 542.706 3.43549 0.535676 0
M  V30 5565 H 542.029 3.99604 -0.125202 0
M  V30 5566 H 543.469 4.14267 0.903262 0
M  V30 5567 C 541.928 2.8988 1.71672 0
M  V30 5568 O 542.458 2.86511 2.81557 0
M  V30 5569 N 540.664 2.46416 1.54037 0
M  V30 5570 H 540.211 2.49356 0.64649 0
M  V30 5571 H 540.169 2.1086 2.33207 0
M  V30 5572 N 543.941 0.601185 1.45683 0
M  V30 5573 C 544.904 -0.111398 2.28929 0
M  V30 5574 C 545.904 -0.801246 1.39416 0
M  V30 5575 O 547.094 -0.650383 1.61603 0
M  V30 5576 C 544.226 -1.16773 3.20276 0
M  V30 5577 H 545.419 0.620412 2.93413 0
M  V30 5578 H 542.972 0.359946 1.52099 0
M  V30 5579 H 543.707 -1.93051 2.60579 0
M  V30 5580 H 543.492 -0.677358 3.86205 0
M  V30 5581 H 544.982 -1.66698 3.82886 0
M  V30 5582 N 545.419 -1.53889 0.339982 0
M  V30 5583 C 546.665 -2.01152 -0.258003 0
M  V30 5584 C 546.998 -1.22749 -1.50487 0
M  V30 5585 O 546.273 -0.314156 -1.91946 0
M  V30 5586 C 546.556 -3.55468 -0.575717 0
M  V30 5587 C 546.409 -4.44584 0.682996 0
M  V30 5588 C 547.728 -4.1768 -1.38677 0
M  V30 5589 H 544.847 -0.731198 -0.0922992 0
M  V30 5590 H 547.489 -1.84352 0.459814 0
M  V30 5591 H 545.639 -3.69914 -1.18725 0
M  V30 5592 H 547.311 -4.41981 1.32102 0
M  V30 5593 H 545.554 -4.13592 1.3086 0
M  V30 5594 H 546.225 -5.5043 0.416001 0
M  V30 5595 H 548.701 -4.0691 -0.869705 0
M  V30 5596 H 547.577 -5.25734 -1.57783 0
M  V30 5597 H 547.838 -3.72069 -2.38782 0
M  V30 5598 N 546.897 -0.0685191 -1.57451 0
M  V30 5599 C 548.143 0.602239 -1.93652 0
M  V30 5600 C 548.476 1.6946 -0.948526 0
M  V30 5601 O 547.751 1.94487 0.022782 0
M  V30 5602 C 548.034 1.18223 -3.4014 0
M  V30 5603 C 547.887 0.0967431 -4.49696 0
M  V30 5604 C 549.206 2.08872 -3.87377 0
M  V30 5605 H 546.325 0.217453 -0.70419 0
M  V30 5606 H 548.967 -0.133821 -1.89528 0
M  V30 5607 H 547.117 1.80953 -3.43785 0
M  V30 5608 H 548.789 -0.536155 -4.58174 0
M  V30 5609 H 547.032 -0.573063 -4.29998 0
M  V30 5610 H 547.703 0.542894 -5.49324 0
M  V30 5611 H 550.179 1.56081 -3.85717 0
M  V30 5612 H 549.055 2.46389 -4.90493 0
M  V30 5613 H 549.316 2.99572 -3.25129 0
M  V30 5614 N 548.375 1.56261 0.205012 0
M  V30 5615 C 549.652 1.70856 0.952233 0
M  V30 5616 C 550.032 0.620501 2.01775 0
M  V30 5617 O 549.38 -0.370035 2.25484 0
M  V30 5618 C 549.59 3.12807 1.54767 0
M  V30 5619 C 550.938 3.72733 2.0336 0
M  V30 5620 O 551.962 3.15873 1.64629 0
M  V30 5621 O 550.821 4.72501 2.746 0
M  V30 5622 H 547.915 0.696496 0.445895 0
M  V30 5623 H 550.461 1.6857 0.195489 0
M  V30 5624 H 549.233 3.83465 0.779132 0
M  V30 5625 H 548.856 3.1928 2.36951 0
M  V30 5626 N 549.853 -0.472356 1.50355 0
M  V30 5627 C 550.783 -1.57859 1.72055 0
M  V30 5628 C 551.764 -1.60283 0.569505 0
M  V30 5629 O 552.949 -1.7657 0.808503 0
M  V30 5630 C 550.079 -2.96191 1.81351 0
M  V30 5631 C 549.033 -3.08633 2.96529 0
M  V30 5632 C 548.359 -4.486 2.90968 0
M  V30 5633 C 549.659 -2.85969 4.37057 0
M  V30 5634 H 551.353 -1.39953 2.64676 0
M  V30 5635 H 548.899 -0.671846 1.27367 0
M  V30 5636 H 550.852 -3.73507 1.95117 0
M  V30 5637 H 549.576 -3.15251 0.853502 0
M  V30 5638 H 548.235 -2.33749 2.82413 0
M  V30 5639 H 547.883 -4.64577 1.92815 0
M  V30 5640 H 547.583 -4.57861 3.68289 0
M  V30 5641 H 549.107 -5.27938 3.0678 0
M  V30 5642 H 550.521 -3.53036 4.51706 0
M  V30 5643 H 548.918 -3.06677 5.15819 0
M  V30 5644 H 549.988 -1.81838 4.49514 0
M  V30 5645 N 551.331 -1.39911 -0.725443 0
M  V30 5646 C 552.263 -1.35301 -1.85003 0
M  V30 5647 C 553.276 -0.260102 -1.60709 0
M  V30 5648 O 554.465 -0.519749 -1.70766 0
M  V30 5649 C 551.565 -1.08039 -3.21218 0
M  V30 5650 C 550.738 -2.28793 -3.7279 0
M  V30 5651 C 549.797 -1.97841 -4.87591 0
M  V30 5652 O 548.823 -2.70616 -5.00755 0
M  V30 5653 N 550.025 -0.950367 -5.72668 0
M  V30 5654 H 552.79 -2.32218 -1.89459 0
M  V30 5655 H 550.351 -1.34137 -0.90658 0
M  V30 5656 H 552.343 -0.853354 -3.95601 0
M  V30 5657 H 550.913 -0.198229 -3.11971 0
M  V30 5658 H 550.133 -2.67388 -2.8965 0
M  V30 5659 H 551.421 -3.09317 -4.03981 0
M  V30 5660 H 550.819 -0.347436 -5.64632 0
M  V30 5661 H 549.376 -0.783232 -6.47077 0
M  V30 5662 N 552.809 0.956637 -1.25245 0
M  V30 5663 C 554.086 1.67716 -1.00651 0
M  V30 5664 C 554.466 2.0585 0.467866 0
M  V30 5665 O 553.814 1.77029 1.44475 0
M  V30 5666 C 554.024 2.90093 -1.94028 0
M  V30 5667 C 555.372 3.6209 -2.21756 0
M  V30 5668 O 556.396 3.00171 -1.9177 0
M  V30 5669 O 555.255 4.7358 -2.72735 0
M  V30 5670 H 552.349 0.733731 -0.381533 0
M  V30 5671 H 554.895 1.00974 -1.3639 0
M  V30 5672 H 553.667 2.58689 -2.93591 0
M  V30 5673 H 553.29 3.64566 -1.58674 0
M  V30 5674 N 554.287 1.06798 1.15896 0
M  V30 5675 C 555.703 0.792423 1.38538 0
M  V30 5676 C 555.903 -0.60592 1.92174 0
M  V30 5677 O 554.959 -1.36561 2.12385 0
M  V30 5678 C 556.272 1.86157 2.36149 0
M  V30 5679 C 557.82 1.88567 2.49823 0
M  V30 5680 C 558.295 2.9455 3.5072 0
M  V30 5681 N 559.786 2.93616 3.58251 0
M  V30 5682 C 560.521 3.72267 4.36125 0
M  V30 5683 N 560.017 4.60751 5.17379 0
M  V30 5684 N 561.81 3.60637 4.31158 0
M  V30 5685 H 553.961 1.96993 0.794198 0
M  V30 5686 H 556.224 0.853942 0.411688 0
M  V30 5687 H 555.93 2.86603 2.03843 0
M  V30 5688 H 555.804 1.71692 3.3586 0
M  V30 5689 H 558.191 0.887765 2.8143 0
M  V30 5690 H 558.272 2.0711 1.5013 0
M  V30 5691 H 557.916 3.94537 3.19849 0
M  V30 5692 H 557.846 2.73255 4.50155 0
M  V30 5693 H 560.337 2.29472 3.00252 0
M  V30 5694 H 560.65 5.17408 5.74028 0
M  V30 5695 H 558.995 4.64803 5.16704 0
M  V30 5696 H 562.186 2.90892 3.66742 0
M  V30 5697 H 562.359 4.22176 4.91601 0
M  V30 5698 N 555.766 -1.3263 0.851289 0
M  V30 5699 C 556.714 -2.30882 0.282202 0
M  V30 5700 C 557.708 -1.58697 -0.592589 0
M  V30 5701 O 558.914 -1.73461 -0.480768 0
M  V30 5702 H 555.289 -0.748492 0.0725487 0
M  V30 5703 H 557.26 -2.76374 1.12516 0
M  V30 5704 C 556.009 -3.43828 -0.517449 0
M  V30 5705 H 555.332 -3.99532 0.146392 0
M  V30 5706 H 556.772 -4.1474 -0.88128 0
M  V30 5707 C 555.231 -2.90786 -1.70133 0
M  V30 5708 O 555.761 -2.88 -2.80034 0
M  V30 5709 N 553.967 -2.4723 -1.52728 0
M  V30 5710 H 553.514 -2.49695 -0.633257 0
M  V30 5711 H 553.472 -2.12094 -2.32085 0
M  V30 5712 N 557.244 -0.608902 -1.45362 0
M  V30 5713 C 558.472 -0.111013 -2.06602 0
M  V30 5714 C 558.887 1.20516 -1.45332 0
M  V30 5715 O 558.244 1.73437 -0.567978 0
M  V30 5716 C 558.295 0.033688 -3.61484 0
M  V30 5717 O 558.016 -1.23041 -4.20467 0
M  V30 5718 C 559.517 0.562882 -4.39712 0
M  V30 5719 H 556.737 -0.0694453 -0.667397 0
M  V30 5720 H 559.281 -0.837008 -1.86586 0
M  V30 5721 H 557.436 0.710016 -3.80838 0
M  V30 5722 H 557.85 -1.06094 -5.13658 0
M  V30 5723 H 559.324 0.613213 -5.48583 0
M  V30 5724 H 559.801 1.58543 -4.09586 0
M  V30 5725 H 560.407 -0.0794454 -4.25226 0
M  V30 5726 N 558.722 1.53707 -0.348139 0
M  V30 5727 C 559.632 2.28881 0.514857 0
M  V30 5728 C 560.648 1.34168 1.10793 0
M  V30 5729 O 561.824 1.6721 1.12262 0
M  V30 5730 C 558.889 3.05042 1.64774 0
M  V30 5731 C 557.95 4.15389 1.08398 0
M  V30 5732 C 557.183 4.87909 2.16287 0
M  V30 5733 O 557.406 4.60137 3.3709 0
M  V30 5734 O 556.34 5.74254 1.80323 0
M  V30 5735 H 560.166 3.03547 -0.0963699 0
M  V30 5736 H 557.751 1.48972 -0.113043 0
M  V30 5737 H 559.633 3.52656 2.30677 0
M  V30 5738 H 558.308 2.33228 2.24469 0
M  V30 5739 H 557.215 3.72068 0.389341 0
M  V30 5740 H 558.548 4.89318 0.531829 0
M  V30 5741 N 560.2 0.0768682 1.57412 0
M  V30 5742 C 561.13 -0.886026 2.16037 0
M  V30 5743 C 562.111 -1.30691 1.08876 0
M  V30 5744 O 563.296 -1.37705 1.36934 0
M  V30 5745 C 560.426 -2.1518 2.72608 0
M  V30 5746 C 559.38 -1.87015 3.8498 0
M  V30 5747 C 558.706 -3.20266 4.28175 0
M  V30 5748 C 560.006 -1.17143 5.08994 0
M  V30 5749 H 561.7 -0.397642 2.96748 0
M  V30 5750 H 559.246 -0.189823 1.42743 0
M  V30 5751 H 561.199 -2.82962 3.12266 0
M  V30 5752 H 559.923 -2.66269 1.89125 0
M  V30 5753 H 558.582 -1.21636 3.45833 0
M  V30 5754 H 558.23 -3.69207 3.41607 0
M  V30 5755 H 557.93 -3.0221 5.03927 0
M  V30 5756 H 559.454 -3.89237 4.70454 0
M  V30 5757 H 560.868 -1.75003 5.45937 0
M  V30 5758 H 559.265 -1.09328 5.90057 0
M  V30 5759 H 560.335 -0.151295 4.84664 0
M  V30 5760 N 561.678 -1.56367 -0.196722 0
M  V30 5761 C 562.903 -1.84991 -0.937714 0
M  V30 5762 C 563.328 -0.660244 -1.76132 0
M  V30 5763 O 562.686 0.390967 -1.77034 0
M  V30 5764 C 562.734 -3.11828 -1.81096 0
M  V30 5765 O 561.838 -2.92266 -2.90955 0
M  V30 5766 H 561.179 -0.609193 -0.264159 0
M  V30 5767 H 563.709 -2.03595 -0.202529 0
M  V30 5768 H 563.719 -3.42579 -2.21594 0
M  V30 5769 H 562.394 -3.98037 -1.2058 0
M  V30 5770 H 560.971 -2.72809 -2.54224 0
M  V30 5771 N 563.156 0.464375 -1.50603 0
M  V30 5772 C 564.386 1.23727 -1.65454 0
M  V30 5773 C 564.794 1.86119 -0.340032 0
M  V30 5774 O 564.137 1.70301 0.688706 0
M  V30 5775 C 564.199 2.38153 -2.69301 0
M  V30 5776 C 563.863 1.96345 -4.12671 0
M  V30 5777 C 564.86 1.48215 -4.98326 0
M  V30 5778 C 562.545 2.04861 -4.58625 0
M  V30 5779 C 564.539 1.09152 -6.27985 0
M  V30 5780 C 562.226 1.65409 -5.88288 0
M  V30 5781 C 563.224 1.17634 -6.72794 0
M  V30 5782 O 562.912 0.787312 -8.00035 0
M  V30 5783 H 562.644 0.380075 -0.559034 0
M  V30 5784 H 565.198 0.559919 -1.97621 0
M  V30 5785 H 563.428 3.09081 -2.32392 0
M  V30 5786 H 565.117 3.00099 -2.73304 0
M  V30 5787 H 565.883 1.41052 -4.64036 0
M  V30 5788 H 561.762 2.40996 -3.92991 0
M  V30 5789 H 565.306 0.717909 -6.93896 0
M  V30 5790 H 561.203 1.72233 -6.22098 0
M  V30 5791 H 561.971 0.915567 -8.13363 0
M  V30 5792 N 564.634 1.40294 0.718013 0
M  V30 5793 C 565.566 1.36281 1.84283 0
M  V30 5794 C 566.579 0.268621 1.60569 0
M  V30 5795 O 567.768 0.528798 1.70487 0
M  V30 5796 C 564.868 1.09741 3.2064 0
M  V30 5797 C 564.041 2.30767 3.71571 0
M  V30 5798 C 563.1 2.00424 4.86535 0
M  V30 5799 O 562.126 2.73268 4.99313 0
M  V30 5800 N 563.328 0.980724 5.72156 0
M  V30 5801 H 566.093 2.3322 1.88225 0
M  V30 5802 H 563.654 1.34616 0.899453 0
M  V30 5803 H 565.646 0.874322 3.95143 0
M  V30 5804 H 564.216 0.214771 3.11861 0
M  V30 5805 H 563.436 2.68921 2.88228 0
M  V30 5806 H 564.724 3.11455 4.02335 0
M  V30 5807 H 564.122 0.377375 5.6444 0
M  V30 5808 H 562.679 0.817538 6.46653 0
M  V30 5809 N 566.112 -0.949982 1.2575 0
M  V30 5810 C 567.042 -2.06483 1.09028 0
M  V30 5811 C 568.023 -1.701 -0.00201532 0
M  V30 5812 O 569.208 -1.93469 0.168383 0
M  V30 5813 C 566.338 -3.39899 0.71316 0
M  V30 5814 C 565.292 -3.90309 1.75621 0
M  V30 5815 C 564.618 -5.20274 1.23365 0
M  V30 5816 C 565.918 -4.16169 3.15596 0
M  V30 5817 H 567.612 -2.20731 2.02283 0
M  V30 5818 H 565.158 -1.06066 0.973964 0
M  V30 5819 H 567.111 -4.17346 0.58309 0
M  V30 5820 H 565.835 -3.25602 -0.255091 0
M  V30 5821 H 564.494 -3.15035 1.8748 0
M  V30 5822 H 564.142 -5.02351 0.255491 0
M  V30 5823 H 563.842 -5.54971 1.93082 0
M  V30 5824 H 565.366 -6.00314 1.11607 0
M  V30 5825 H 566.78 -4.84259 3.06864 0
M  V30 5826 H 565.177 -4.62131 3.82825 0
M  V30 5827 H 566.247 -3.22273 3.6231 0
M  V30 5828 N 567.59 -1.07411 -1.15328 0
M  V30 5829 C 568.52 -0.716472 -2.22236 0
M  V30 5830 C 569.501 0.296373 -1.67498 0
M  V30 5831 O 570.686 0.168989 -1.93463 0
M  V30 5832 C 567.816 -0.114142 -3.47112 0
M  V30 5833 C 566.77 -1.05421 -4.14814 0
M  V30 5834 C 566.096 -0.314604 -5.33774 0
M  V30 5835 C 567.396 -2.38808 -4.64508 0
M  V30 5836 H 569.09 -1.61029 -2.52408 0
M  V30 5837 H 566.636 -0.775702 -1.21321 0
M  V30 5838 H 568.589 0.148001 -4.2114 0
M  V30 5839 H 567.313 0.814755 -3.16274 0
M  V30 5840 H 565.972 -1.30128 -3.42728 0
M  V30 5841 H 565.62 0.617772 -4.99192 0
M  V30 5842 H 565.32 -0.941209 -5.80013 0
M  V30 5843 H 566.844 -0.0602747 -6.1057 0
M  V30 5844 H 568.258 -2.18424 -5.3006 0
M  V30 5845 H 566.655 -2.97069 -5.21412 0
M  V30 5846 H 567.725 -3.01067 -3.80114 0
M  V30 5847 N 569.068 1.32177 -0.85831 0
M  V30 5848 C 569.998 2.31282 -0.321041 0
M  V30 5849 C 570.979 1.59841 0.581786 0
M  V30 5850 O 572.164 1.87619 0.501262 0
M  V30 5851 C 569.294 3.4385 0.48832 0
M  V30 5852 C 568.248 4.26799 -0.320391 0
M  V30 5853 C 567.574 5.31164 0.613934 0
M  V30 5854 C 568.874 4.98829 -1.54813 0
M  V30 5855 H 570.568 2.76469 -1.14915 0
M  V30 5856 H 568.114 1.32916 -0.554028 0
M  V30 5857 H 570.067 4.12224 0.874626 0
M  V30 5858 H 568.791 2.97401 1.34983 0
M  V30 5859 H 567.45 3.60077 -0.688497 0
M  V30 5860 H 567.098 4.80967 1.47239 0
M  V30 5861 H 566.798 5.8755 0.0768097 0
M  V30 5862 H 568.322 6.024 0.997336 0
M  V30 5863 H 569.736 5.59864 -1.23392 0
M  V30 5864 H 568.133 5.64957 -2.02346 0
M  V30 5865 H 569.203 4.26483 -2.30739 0
M  V30 5866 N 570.547 0.616602 1.45037 0
M  V30 5867 C 571.824 0.0469086 1.95544 0
M  V30 5868 C 572.204 -1.42345 1.55888 0
M  V30 5869 O 571.552 -2.13055 0.825824 0
M  V30 5870 C 571.762 0.254489 3.48071 0
M  V30 5871 C 573.11 0.140025 4.24369 0
M  V30 5872 O 574.134 0.185084 3.55719 0
M  V30 5873 O 572.993 0.0327034 5.4649 0
M  V30 5874 H 570.087 -0.0306051 0.826433 0
M  V30 5875 H 572.633 0.687293 1.55159 0
M  V30 5876 H 571.405 1.27532 3.69934 0
M  V30 5877 H 571.028 -0.42073 3.95368 0
M  V30 5878 N 572.025 -1.5352 0.356285 0
M  V30 5879 C 573.25 -2.06007 -0.239961 0
M  V30 5880 C 573.675 -1.22872 -1.42422 0
M  V30 5881 O 573.033 -0.245516 -1.7963 0
M  V30 5882 C 573.081 -3.5522 -0.620587 0
M  V30 5883 O 572.185 -3.74864 -1.71902 0
M  V30 5884 H 571.526 -0.662961 -0.0371377 0
M  V30 5885 H 574.056 -1.98033 0.514194 0
M  V30 5886 H 574.066 -3.98081 -0.894197 0
M  V30 5887 H 572.741 -4.15175 0.245407 0
M  V30 5888 H 571.318 -3.43904 -1.44169 0
M  V30 5889 N 573.503 -0.0852151 -1.57369 0
M  V30 5890 C 574.752 0.580443 -1.93168 0
M  V30 5891 C 575.065 1.6995 -0.968319 0
M  V30 5892 O 576.271 2.42564 -1.21963 0
M  V30 5893 C 574.727 1.08386 -3.43192 0
M  V30 5894 C 574.335 -0.00491388 -4.48 0
M  V30 5895 C 576.079 1.72281 -3.87968 0
M  V30 5896 C 573.986 0.513299 -5.89168 0
M  V30 5897 H 572.916 0.22059 -0.72101 0
M  V30 5898 H 575.567 -0.159621 -1.82804 0
M  V30 5899 H 573.949 1.8773 -3.48674 0
M  V30 5900 H 575.123 -0.780032 -4.5415 0
M  V30 5901 H 573.438 -0.548453 -4.12772 0
M  V30 5902 H 576.035 2.12108 -4.9083 0
M  V30 5903 H 576.378 2.58811 -3.26071 0
M  V30 5904 H 576.911 0.995359 -3.85146 0
M  V30 5905 H 573.65 -0.315153 -6.54742 0
M  V30 5906 H 573.17 1.25564 -5.8651 0
M  V30 5907 H 574.849 0.985433 -6.39451 0
M  V30 5908 N 574.981 1.5647 0.188427 0
M  V30 5909 C 576.229 1.80655 0.905986 0
M  V30 5910 C 576.55 0.659391 1.83513 0
M  V30 5911 O 575.82 -0.321868 1.93238 0
M  V30 5912 H 574.4 0.666391 0.337538 0
M  V30 5913 H 577.062 1.93949 0.192339 0
M  V30 5914 H 576.158 2.74066 1.49313 0
M  V30 5915 N 576.459 -0.456382 1.50847 0
M  V30 5916 C 577.736 -1.21739 1.53098 0
M  V30 5917 C 578.116 -2.09179 0.284132 0
M  V30 5918 O 577.464 -2.16466 -0.731773 0
M  V30 5919 C 577.674 -2.03573 2.83477 0
M  V30 5920 C 579.022 -2.61264 3.34703 0
M  V30 5921 O 580.046 -2.13802 2.84898 0
M  V30 5922 O 578.905 -3.47779 4.21559 0
M  V30 5923 H 575.999 -0.553219 0.614718 0
M  V30 5924 H 578.545 -0.467003 1.63148 0
M  V30 5925 H 577.317 -1.39232 3.65691 0
M  V30 5926 H 576.94 -2.85716 2.76499 0
M  V30 5927 N 577.937 -1.40673 -0.710563 0
M  V30 5928 C 579.353 -1.22813 -1.01928 0
M  V30 5929 C 579.553 -0.10687 -2.01216 0
M  V30 5930 O 578.609 0.533614 -2.46797 0
M  V30 5931 C 579.922 -2.57178 -1.5582 0
M  V30 5932 C 581.47 -2.64233 -1.67779 0
M  V30 5933 C 581.945 -3.98879 -2.25076 0
M  V30 5934 N 583.436 -4.00647 -2.32456 0
M  V30 5935 C 584.171 -5.01621 -2.77784 0
M  V30 5936 N 583.667 -6.12989 -3.22826 0
M  V30 5937 N 585.46 -4.88988 -2.77213 0
M  V30 5938 H 577.611 -2.12335 -0.05253 0
M  V30 5939 H 579.874 -0.9441 -0.085898 0
M  V30 5940 H 579.58 -3.39903 -0.903249 0
M  V30 5941 H 579.454 -2.78618 -2.54267 0
M  V30 5942 H 581.841 -1.81876 -2.3239 0
M  V30 5943 H 581.922 -2.46619 -0.679178 0
M  V30 5944 H 581.566 -4.81678 -1.61086 0
M  V30 5945 H 581.496 -4.13826 -3.25661 0
M  V30 5946 H 583.987 -3.20231 -2.0065 0
M  V30 5947 H 584.3 -6.85921 -3.55995 0
M  V30 5948 H 582.645 -6.16547 -3.20773 0
M  V30 5949 H 585.836 -4.01075 -2.41363 0
M  V30 5950 H 586.009 -5.67822 -3.12221 0
M  V30 5951 N 579.415 0.9433 -1.26252 0
M  V30 5952 C 580.643 1.72367 -1.14443 0
M  V30 5953 C 581.058 1.86392 0.300572 0
M  V30 5954 O 580.415 1.36978 1.20596 0
M  V30 5955 C 580.466 3.13155 -1.806 0
M  V30 5956 O 580.187 2.99803 -3.19452 0
M  V30 5957 C 581.688 4.07417 -1.74717 0
M  V30 5958 H 578.908 0.539758 -0.398626 0
M  V30 5959 H 581.452 1.18268 -1.66832 0
M  V30 5960 H 579.607 3.64162 -1.32154 0
M  V30 5961 H 580.021 3.88697 -3.52158 0
M  V30 5962 H 581.495 5.03773 -2.25647 0
M  V30 5963 H 581.972 4.3337 -0.713244 0
M  V30 5964 H 582.578 3.6233 -2.22704 0
M  V30 5965 N 580.893 1.08022 1.14757 0
M  V30 5966 C 582.309 0.807072 1.3769 0
M  V30 5967 C 582.509 -0.585504 1.92806 0
M  V30 5968 O 581.565 -1.34301 2.13821 0
M  V30 5969 C 582.878 1.88651 2.34161 0
M  V30 5970 C 584.426 1.91206 2.47809 0
M  V30 5971 C 584.901 2.98253 3.47576 0
M  V30 5972 N 586.392 2.974 3.55117 0
M  V30 5973 C 587.127 3.76872 4.32152 0
M  V30 5974 N 586.623 4.66212 5.12463 0
M  V30 5975 N 588.416 3.6519 4.27309 0
M  V30 5976 H 580.567 1.97824 0.77326 0
M  V30 5977 H 582.83 0.85826 0.402608 0
M  V30 5978 H 582.536 2.88749 2.00791 0
M  V30 5979 H 582.41 1.75244 3.3402 0
M  V30 5980 H 584.797 0.917564 2.80472 0
M  V30 5981 H 584.878 2.08691 1.47925 0
M  V30 5982 H 584.522 3.97907 3.15646 0
M  V30 5983 H 584.452 2.78014 4.47231 0
M  V30 5984 H 586.943 2.32643 2.97801 0
M  V30 5985 H 587.256 5.23468 5.68508 0
M  V30 5986 H 585.601 4.70257 5.11745 0
M  V30 5987 H 588.792 2.94765 3.63636 0
M  V30 5988 H 588.965 4.27366 4.87095 0
M  V30 5989 N 582.371 -1.3172 0.865308 0
M  V30 5990 C 583.601 -2.00765 0.487543 0
M  V30 5991 C 584.009 -1.65145 -0.92325 0
M  V30 5992 O 583.352 -0.874294 -1.61561 0
M  V30 5993 C 583.414 -3.55122 0.559369 0
M  V30 5994 C 583.078 -4.14202 1.93095 0
M  V30 5995 C 584.075 -4.3165 2.89784 0
M  V30 5996 C 581.76 -4.50036 2.23099 0
M  V30 5997 C 583.754 -4.84114 4.14623 0
M  V30 5998 C 581.441 -5.02203 3.48189 0
M  V30 5999 C 582.439 -5.19192 4.43767 0
M  V30 6000 O 582.127 -5.70241 5.6664 0
M  V30 6001 H 581.859 -0.649066 0.188915 0
M  V30 6002 H 584.413 -1.69032 1.16694 0
M  V30 6003 H 582.643 -3.86295 -0.176926 0
M  V30 6004 H 584.332 -4.05428 0.195694 0
M  V30 6005 H 585.098 -4.04288 2.6791 0
M  V30 6006 H 580.977 -4.36091 1.49485 0
M  V30 6007 H 584.521 -4.9729 4.89233 0
M  V30 6008 H 580.418 -5.28997 3.69908 0
M  V30 6009 H 581.186 -5.88617 5.68746 0
M  V30 6010 N 583.85 -0.624285 -1.44708 0
M  V30 6011 C 585.096 -0.126051 -2.02107 0
M  V30 6012 C 585.425 1.2496 -1.49048 0
M  V30 6013 O 584.68 1.84163 -0.662005 0
M  V30 6014 C 584.979 -0.0546353 -3.57358 0
M  V30 6015 C 584.644 -1.36815 -4.29642 0
M  V30 6016 C 583.307 -1.72792 -4.49106 0
M  V30 6017 C 585.659 -2.23549 -4.70824 0
M  V30 6018 C 582.986 -2.95222 -5.07012 0
M  V30 6019 C 585.339 -3.45243 -5.30085 0
M  V30 6020 C 584.003 -3.81452 -5.47769 0
M  V30 6021 H 583.273 -0.0461252 -0.739563 0
M  V30 6022 H 585.92 -0.809236 -1.73562 0
M  V30 6023 H 584.225 0.711891 -3.85278 0
M  V30 6024 H 585.922 0.347282 -3.99493 0
M  V30 6025 H 582.512 -1.07817 -4.14817 0
M  V30 6026 H 586.696 -1.9705 -4.55505 0
M  V30 6027 H 581.952 -3.23361 -5.18891 0
M  V30 6028 H 586.125 -4.12689 -5.60946 0
M  V30 6029 H 583.753 -4.76403 -5.92405 0
M  V30 6030 N 585.328 1.53329 -0.364422 0
M  V30 6031 C 586.553 2.06132 0.229033 0
M  V30 6032 C 586.978 1.23625 1.41769 0
M  V30 6033 O 586.336 0.255038 1.79497 0
M  V30 6034 C 586.384 3.55544 0.60174 0
M  V30 6035 O 585.488 3.75771 1.69912 0
M  V30 6036 H 584.829 0.663148 0.0336213 0
M  V30 6037 H 587.359 1.97758 -0.524689 0
M  V30 6038 H 587.369 3.98549 0.873073 0
M  V30 6039 H 586.044 4.15039 -0.267421 0
M  V30 6040 H 584.621 3.44663 1.42343 0
M  V30 6041 N 586.806 0.0935595 1.57322 0
M  V30 6042 C 587.739 -0.902505 2.09595 0
M  V30 6043 C 588.717 -1.27732 1.00615 0
M  V30 6044 O 589.901 -1.38283 1.28102 0
M  V30 6045 C 587.028 -2.20416 2.57166 0
M  V30 6046 C 586.074 -1.97932 3.7779 0
M  V30 6047 S 586.907 -1.21873 5.21447 0
M  V30 6048 C 588.063 -2.53273 5.72367 0
M  V30 6049 H 588.296 -0.457797 2.93754 0
M  V30 6050 H 585.829 -0.119694 1.53935 0
M  V30 6051 H 587.787 -2.95217 2.85232 0
M  V30 6052 H 586.448 -2.62008 1.73235 0
M  V30 6053 H 585.641 -2.94316 4.09138 0
M  V30 6054 H 585.243 -1.3126 3.5021 0
M  V30 6055 H 587.535 -3.49256 5.8054 0
M  V30 6056 H 588.478 -2.26505 6.70896 0
M  V30 6057 H 588.886 -2.61475 5.00291 0
M  V30 6058 N 588.284 -1.56567 -0.180126 0
M  V30 6059 C 589.53 -1.82658 -0.894859 0
M  V30 6060 C 589.885 -0.672826 -1.80252 0
M  V30 6061 O 589.178 0.331227 -1.88715 0
M  V30 6062 C 589.372 -3.1252 -1.73395 0
M  V30 6063 C 589.201 -4.40417 -0.909028 0
M  V30 6064 C 587.971 -5.01872 -0.587562 0
M  V30 6065 C 590.169 -5.13669 -0.254698 0
M  V30 6066 N 588.151 -6.13373 0.254428 0
M  V30 6067 C 589.522 -6.18373 0.448837 0
M  V30 6068 C 591.577 -4.97603 -0.171958 0
M  V30 6069 C 590.28 -7.08753 1.22725 0
M  V30 6070 C 592.306 -5.88418 0.593101 0
M  V30 6071 C 591.668 -6.92579 1.28503 0
M  V30 6072 H 587.767 -0.719493 -0.306356 0
M  V30 6073 H 590.351 -1.94021 -0.16247 0
M  V30 6074 H 588.522 -3.02365 -2.43783 0
M  V30 6075 H 590.254 -3.2664 -2.38931 0
M  V30 6076 H 587.009 -4.64666 -0.915557 0
M  V30 6077 H 587.433 -6.73721 0.665474 0
M  V30 6078 H 592.075 -4.17089 -0.692555 0
M  V30 6079 H 589.793 -7.88718 1.75923 0
M  V30 6080 H 593.379 -5.78059 0.658674 0
M  V30 6081 H 592.259 -7.61638 1.86754 0
M  V30 6082 N 589.762 0.448376 -1.51087 0
M  V30 6083 C 590.71 1.56407 -1.72161 0
M  V30 6084 C 591.704 1.58878 -0.587721 0
M  V30 6085 O 592.91 1.62755 -0.768822 0
M  V30 6086 H 589.285 0.519423 -0.543786 0
M  V30 6087 H 591.256 1.35803 -2.65707 0
M  V30 6088 C 590.005 2.94163 -1.85373 0
M  V30 6089 H 589.328 2.9299 -2.72024 0
M  V30 6090 H 590.768 3.71625 -2.04135 0
M  V30 6091 C 589.227 3.31317 -0.610803 0
M  V30 6092 O 589.757 4.00985 0.239636 0
M  V30 6093 N 587.963 2.86966 -0.458127 0
M  V30 6094 H 587.51 2.30443 -1.15124 0
M  V30 6095 H 587.468 3.12188 0.372289 0
M  V30 6096 N 591.24 1.41047 0.703093 0
M  V30 6097 C 592.172 1.38228 1.82827 0
M  V30 6098 C 593.185 0.285637 1.60275 0
M  V30 6099 O 594.374 0.54685 1.69917 0
M  V30 6100 C 591.474 1.13136 3.19458 0
M  V30 6101 C 590.647 2.34695 3.69103 0
M  V30 6102 C 589.706 2.05574 4.84382 0
M  V30 6103 O 588.732 2.78549 4.96386 0
M  V30 6104 N 589.934 1.04135 5.71083 0
M  V30 6105 H 592.699 2.35203 1.85741 0
M  V30 6106 H 590.26 1.35562 0.885125 0
M  V30 6107 H 592.252 0.916183 3.94193 0
M  V30 6108 H 590.822 0.247836 3.11616 0
M  V30 6109 H 590.042 2.71963 2.85359 0
M  V30 6110 H 591.33 3.15705 3.99009 0
M  V30 6111 H 590.728 0.43722 5.64008 0
M  V30 6112 H 589.285 0.886078 6.45749 0
M  V30 6113 N 592.718 -0.936591 1.26751 0
M  V30 6114 C 593.681 -2.01752 1.08761 0
M  V30 6115 C 594.681 -1.60763 0.0344435 0
M  V30 6116 O 595.871 -1.71963 0.278258 0
M  V30 6117 C 593.003 -3.34543 0.655271 0
M  V30 6118 H 594.196 -2.19143 2.04735 0
M  V30 6119 H 591.749 -1.11618 1.09413 0
M  V30 6120 H 592.484 -3.22851 -0.30626 0
M  V30 6121 H 592.269 -3.65647 1.41578 0
M  V30 6122 H 593.759 -4.13944 0.551378 0
M  V30 6123 N 594.196 -1.08629 -1.14182 0
M  V30 6124 C 595.442 -0.818556 -1.85546 0
M  V30 6125 C 595.775 0.654076 -1.82854 0
M  V30 6126 O 595.05 1.48099 -1.26083 0
M  V30 6127 C 595.333 -1.34397 -3.3408 0
M  V30 6128 C 595.186 -2.8821 -3.45333 0
M  V30 6129 C 596.505 -0.971069 -4.29253 0
M  V30 6130 H 593.624 -0.298821 -0.673702 0
M  V30 6131 H 596.266 -1.34629 -1.34071 0
M  V30 6132 H 594.416 -0.895064 -3.78049 0
M  V30 6133 H 596.088 -3.41488 -3.10134 0
M  V30 6134 H 594.331 -3.25756 -2.86471 0
M  V30 6135 H 595.002 -3.20047 -4.49749 0
M  V30 6136 H 597.478 -1.35809 -3.93313 0
M  V30 6137 H 596.354 -1.36586 -5.31635 0
M  V30 6138 H 596.615 0.121659 -4.41933 0
M  V30 6139 N 595.674 1.31259 -0.872281 0
M  V30 6140 C 596.951 1.91362 -0.404943 0
M  V30 6141 C 597.331 1.79362 1.11321 0
M  V30 6142 O 596.679 1.20277 1.94283 0
M  V30 6143 C 596.889 3.3749 -0.888893 0
M  V30 6144 C 598.237 4.14593 -0.916384 0
M  V30 6145 O 599.261 3.46282 -0.834701 0
M  V30 6146 O 598.12 5.3661 -1.03498 0
M  V30 6147 H 595.214 0.818016 -0.121569 0
M  V30 6148 H 597.76 1.39912 -0.960346 0
M  V30 6149 H 596.532 3.40249 -1.93251 0
M  V30 6150 H 596.155 3.96375 -0.311932 0
M  V30 6151 N 597.152 0.631951 1.44375 0
M  V30 6152 C 598.377 0.142146 2.06912 0
M  V30 6153 C 598.802 -1.17456 1.4692 0
M  V30 6154 O 598.16 -1.72074 0.570975 0
M  V30 6155 C 598.208 0.0417952 3.60576 0
M  V30 6156 O 597.312 -1.00194 4.00044 0
M  V30 6157 H 596.653 0.0851491 0.658518 0
M  V30 6158 H 599.183 0.868863 1.85235 0
M  V30 6159 H 599.193 -0.148517 4.0773 0
M  V30 6160 H 597.868 1.0031 4.03622 0
M  V30 6161 H 596.445 -0.786131 3.64519 0
M  V30 6162 N 598.631 -1.53133 0.372548 0
M  V30 6163 C 599.861 -2.05476 -0.215202 0
M  V30 6164 C 600.269 -1.24534 -1.42436 0
M  V30 6165 O 599.612 -0.280771 -1.81542 0
M  V30 6166 C 599.674 -3.53276 -0.666068 0
M  V30 6167 C 599.338 -4.54998 0.427342 0
M  V30 6168 C 600.335 -5.03911 1.27944 0
M  V30 6169 C 598.02 -4.98828 0.589579 0
M  V30 6170 C 600.014 -5.95263 2.27905 0
M  V30 6171 C 597.701 -5.89984 1.59255 0
M  V30 6172 C 598.699 -6.38093 2.43571 0
M  V30 6173 O 598.387 -7.27451 3.42156 0
M  V30 6174 H 598.119 -0.67481 -0.040099 0
M  V30 6175 H 600.673 -1.98409 0.531312 0
M  V30 6176 H 598.903 -3.57904 -1.4643 0
M  V30 6177 H 600.592 -3.88442 -1.1776 0
M  V30 6178 H 601.358 -4.70792 1.16532 0
M  V30 6179 H 597.237 -4.60965 -0.0569456 0
M  V30 6180 H 600.781 -6.32736 2.93753 0
M  V30 6181 H 596.678 -6.22518 1.70711 0
M  V30 6182 H 597.446 -7.45467 3.37967 0
M  V30 6183 N 600.109 -0.101901 -1.5727 0
M  V30 6184 C 601.386 0.602832 -1.86079 0
M  V30 6185 C 601.766 1.85912 -1 0
M  V30 6186 O 601.114 2.28379 -0.0742488 0
M  V30 6187 C 601.324 0.911694 -3.36881 0
M  V30 6188 C 602.672 1.2722 -4.05093 0
M  V30 6189 O 603.696 1.0025 -3.41802 0
M  V30 6190 O 602.555 1.7776 -5.16782 0
M  V30 6191 H 599.649 0.302366 -0.769743 0
M  V30 6192 H 602.195 -0.135113 -1.69161 0
M  V30 6193 H 600.967 0.0207256 -3.91295 0
M  V30 6194 H 600.59 1.70538 -3.59169 0
M  V30 6195 N 601.587 1.56661 0.17182 0
M  V30 6196 C 602.998 1.71652 0.734329 0
M  V30 6197 C 603.349 0.712335 1.82812 0
M  V30 6198 O 602.474 -0.126401 2.16031 0
M  V30 6199 C 603.069 3.11226 1.3388 0
M  V30 6200 C 601.628 3.27904 1.84813 0
M  V30 6201 C 600.775 2.67603 0.726917 0
M  V30 6202 H 603.726 1.5861 -0.0535665 0
M  V30 6203 H 603.747 3.09849 2.20849 0
M  V30 6204 H 603.259 3.8429 0.54249 0
M  V30 6205 H 601.36 2.59796 2.6709 0
M  V30 6206 H 601.473 4.35637 1.99392 0
M  V30 6207 H 599.837 2.274 1.14723 0
M  V30 6208 H 600.62 3.43252 -0.0575334 0
M  V30 6209 N 603.065 -0.440357 1.51323 0
M  V30 6210 C 604.342 -1.20109 1.5438 0
M  V30 6211 C 604.722 -2.08866 0.306303 0
M  V30 6212 O 604.07 -2.1723 -0.708773 0
M  V30 6213 C 604.28 -2.00555 2.8562 0
M  V30 6214 C 605.628 -2.577 3.37455 0
M  V30 6215 O 606.652 -2.10769 2.8715 0
M  V30 6216 O 605.511 -3.43289 4.25224 0
M  V30 6217 H 602.605 -0.546668 0.620551 0
M  V30 6218 H 605.151 -0.449672 1.63634 0
M  V30 6219 H 603.923 -1.35346 3.67147 0
M  V30 6220 H 603.546 -2.82768 2.79514 0
M  V30 6221 N 604.543 -1.41418 -0.695603 0
M  V30 6222 C 605.789 -1.40982 -1.4578 0
M  V30 6223 C 606.122 -0.0187763 -1.94191 0
M  V30 6224 O 605.397 0.95346 -1.69527 0
M  V30 6225 C 605.68 -2.41657 -2.66972 0
M  V30 6226 C 605.533 -3.89869 -2.24327 0
M  V30 6227 C 606.852 -2.39589 -3.69168 0
M  V30 6228 H 603.971 -0.513405 -0.528757 0
M  V30 6229 H 606.613 -1.72693 -0.792275 0
M  V30 6230 H 604.763 -2.14746 -3.23754 0
M  V30 6231 H 606.435 -4.27683 -1.72872 0
M  V30 6232 H 604.678 -4.04737 -1.56111 0
M  V30 6233 H 605.349 -4.55857 -3.11285 0
M  V30 6234 H 607.825 -2.63471 -3.2206 0
M  V30 6235 H 606.701 -3.12044 -4.51575 0
M  V30 6236 H 606.962 -1.41447 -4.18862 0
M  V30 6237 N 606.021 0.929856 -1.27246 0
M  V30 6238 C 607.437 1.20542 -1.04603 0
M  V30 6239 C 607.637 2.00276 0.221754 0
M  V30 6240 O 606.693 2.34835 0.927833 0
M  V30 6241 C 608.006 1.95566 -2.28417 0
M  V30 6242 C 609.554 2.08513 -2.33433 0
M  V30 6243 C 610.029 2.86943 -3.5697 0
M  V30 6244 N 611.52 2.94512 -3.57515 0
M  V30 6245 C 612.255 3.55656 -4.49774 0
M  V30 6246 N 611.751 4.18209 -5.52334 0
M  V30 6247 N 613.544 3.53038 -4.37402 0
M  V30 6248 H 605.695 0.397113 -2.08655 0
M  V30 6249 H 607.958 0.238277 -0.917566 0
M  V30 6250 H 607.664 1.44395 -3.20691 0
M  V30 6251 H 607.538 2.9619 -2.33563 0
M  V30 6252 H 609.925 2.58872 -1.41666 0
M  V30 6253 H 610.006 1.07117 -2.32292 0
M  V30 6254 H 609.65 2.37268 -4.49072 0
M  V30 6255 H 609.58 3.8862 -3.55362 0
M  V30 6256 H 612.071 2.50053 -2.83341 0
M  V30 6257 H 612.384 4.62796 -6.18902 0
M  V30 6258 H 610.729 4.16761 -5.56179 0
M  V30 6259 H 613.92 3.0337 -3.56489 0
M  V30 6260 H 614.093 4.004 -5.09493 0
M  V30 6261 N 607.499 1.09233 1.13605 0
M  V30 6262 C 608.748 0.82205 1.84188 0
M  V30 6263 C 609.061 -0.654548 1.84323 0
M  V30 6264 O 610.267 -1.04029 2.50779 0
M  V30 6265 C 608.723 1.42066 3.30674 0
M  V30 6266 C 608.331 2.92965 3.38933 0
M  V30 6267 C 610.075 1.22924 4.06313 0
M  V30 6268 C 607.982 3.45922 4.79679 0
M  V30 6269 H 606.912 0.303854 0.690064 0
M  V30 6270 H 609.563 1.31479 1.28006 0
M  V30 6271 H 607.945 0.855613 3.86646 0
M  V30 6272 H 609.119 3.55679 2.92966 0
M  V30 6273 H 607.434 3.11118 2.76757 0
M  V30 6274 H 610.031 1.59945 5.10217 0
M  V30 6275 H 610.374 0.169726 4.15954 0
M  V30 6276 H 610.907 1.76168 3.56665 0
M  V30 6277 H 607.646 4.51484 4.75229 0
M  V30 6278 H 607.166 2.87971 5.26149 0
M  V30 6279 H 608.845 3.43009 5.48592 0
M  V30 6280 N 608.977 -1.30795 0.87923 0
M  V30 6281 C 610.226 -1.95636 0.490875 0
M  V30 6282 C 610.539 -1.70214 -0.963674 0
M  V30 6283 O 611.745 -2.28991 -1.45861 0
M  V30 6284 C 610.201 -3.50271 0.826929 0
M  V30 6285 C 609.809 -3.84521 2.29886 0
M  V30 6286 C 611.553 -4.21456 0.507494 0
M  V30 6287 C 609.46 -5.32309 2.57685 0
M  V30 6288 H 608.39 -0.732238 0.179841 0
M  V30 6289 H 611.041 -1.48829 1.07341 0
M  V30 6290 H 609.423 -3.9562 0.173542 0
M  V30 6291 H 610.597 -3.50102 2.99609 0
M  V30 6292 H 608.912 -3.26425 2.58526 0
M  V30 6293 H 611.509 -5.30199 0.692293 0
M  V30 6294 H 611.852 -4.12614 -0.552718 0
M  V30 6295 H 612.385 -3.81772 1.11782 0
M  V30 6296 H 609.124 -5.46195 3.62424 0
M  V30 6297 H 608.644 -5.68048 1.92566 0
M  V30 6298 H 610.323 -5.99678 2.42889 0
M  V30 6299 N 610.455 -0.639598 -1.44038 0
M  V30 6300 C 611.365 0.0612377 -2.3452 0
M  V30 6301 C 612.381 0.826717 -1.53106 0
M  V30 6302 O 613.557 0.777059 -1.85806 0
M  V30 6303 C 610.622 1.02492 -3.31204 0
M  V30 6304 C 609.683 0.25788 -4.28525 0
M  V30 6305 C 608.916 1.17566 -5.2059 0
M  V30 6306 O 609.139 2.41461 -5.16771 0
M  V30 6307 O 608.073 0.655407 -5.98321 0
M  V30 6308 H 611.899 -0.68318 -2.95916 0
M  V30 6309 H 609.484 -0.399784 -1.43952 0
M  V30 6310 H 611.366 1.57911 -3.90694 0
M  V30 6311 H 610.041 1.7498 -2.7233 0
M  V30 6312 H 608.948 -0.339566 -3.72556 0
M  V30 6313 H 610.281 -0.427154 -4.90343 0
M  V30 6314 N 611.933 1.52934 -0.380664 0
M  V30 6315 C 612.881 2.27727 0.47361 0
M  V30 6316 C 613.875 1.31288 1.0705 0
M  V30 6317 O 615.081 1.4886 1.01197 0
M  V30 6318 H 611.456 0.732189 0.171475 0
M  V30 6319 H 613.427 2.97864 -0.178785 0
M  V30 6320 C 612.176 3.0904 1.59341 0
M  V30 6321 H 611.499 3.831 1.14343 0
M  V30 6322 H 612.939 3.64527 2.16555 0
M  V30 6323 C 611.398 2.20813 2.54447 0
M  V30 6324 O 611.928 1.82907 3.57642 0
M  V30 6325 N 610.134 1.85145 2.23986 0
M  V30 6326 H 609.681 2.16169 1.40103 0
M  V30 6327 H 609.639 1.26402 2.87871 0
M  V30 6328 N 613.412 0.11024 1.57214 0
M  V30 6329 C 614.362 -0.854147 2.11396 0
M  V30 6330 C 615.346 -1.23394 1.03261 0
M  V30 6331 O 616.538 -1.20649 1.2951 0
M  V30 6332 C 613.667 -2.10752 2.70995 0
M  V30 6333 C 612.753 -1.75249 3.86198 0
M  V30 6334 N 613.144 -1.10377 4.9361 0
M  V30 6335 C 611.442 -2.04763 3.96217 0
M  V30 6336 C 612.143 -0.938199 5.74084 0
M  V30 6337 N 611.119 -1.46039 5.23616 0
M  V30 6338 H 614.921 -0.348897 2.91822 0
M  V30 6339 H 612.435 -0.0925071 1.62136 0
M  V30 6340 H 614.432 -2.80801 3.0815 0
M  V30 6341 H 613.092 -2.61829 1.9203 0
M  V30 6342 H 614.103 -0.768785 5.12162 0
M  V30 6343 H 610.78 -2.57948 3.28282 0
M  V30 6344 H 612.17 -0.429678 6.70525 0
M  V30 6345 N 614.89 -1.56749 -0.16351 0
M  V30 6346 C 616.138 -1.82074 -0.87713 0
M  V30 6347 C 616.459 -0.688503 -1.82441 0
M  V30 6348 O 615.729 0.291085 -1.93725 0
M  V30 6349 H 614.309 -0.671677 -0.326893 0
M  V30 6350 H 616.971 -1.9423 -0.161459 0
M  V30 6351 H 616.067 -2.76407 -1.44934 0
M  V30 6352 N 616.368 0.432326 -1.51554 0
M  V30 6353 C 617.596 1.20364 -1.68286 0
M  V30 6354 C 618.011 1.84888 -0.38233 0
M  V30 6355 O 617.368 1.70924 0.639627 0
M  V30 6356 C 617.419 2.28398 -2.80208 0
M  V30 6357 O 617.14 1.66512 -4.05223 0
M  V30 6358 C 618.641 3.18584 -3.08251 0
M  V30 6359 H 615.861 0.36259 -0.564596 0
M  V30 6360 H 618.405 0.511647 -1.97996 0
M  V30 6361 H 616.56 2.93305 -2.53083 0
M  V30 6362 H 616.974 2.37951 -4.67418 0
M  V30 6363 H 618.448 3.90511 -3.90135 0
M  V30 6364 H 618.925 3.79628 -2.2086 0
M  V30 6365 H 619.531 2.59372 -3.37055 0
M  V30 6366 N 617.846 1.41785 0.688094 0
M  V30 6367 C 618.756 1.46596 1.83158 0
M  V30 6368 C 619.772 0.355862 1.70322 0
M  V30 6369 O 620.948 0.604737 1.92106 0
M  V30 6370 C 618.013 1.35322 3.192 0
M  V30 6371 C 617.074 2.56711 3.4409 0
M  V30 6372 C 616.307 2.45965 4.73642 0
M  V30 6373 O 616.53 1.48827 5.50642 0
M  V30 6374 O 615.464 3.35859 4.99482 0
M  V30 6375 H 619.29 2.43083 1.82056 0
M  V30 6376 H 616.875 1.23404 0.842126 0
M  V30 6377 H 618.757 1.31347 4.00407 0
M  V30 6378 H 617.432 0.419536 3.2097 0
M  V30 6379 H 616.339 2.66262 2.62784 0
M  V30 6380 H 617.672 3.48933 3.47141 0
M  V30 6381 N 619.324 -0.923095 1.27737 0
M  V30 6382 C 620.601 -1.64989 1.05062 0
M  V30 6383 C 620.981 -2.07018 -0.413124 0
M  V30 6384 O 620.329 -1.80797 -1.39731 0
M  V30 6385 C 620.539 -2.84847 2.01652 0
M  V30 6386 C 621.887 -3.56083 2.31279 0
M  V30 6387 O 622.911 -2.94981 1.99662 0
M  V30 6388 O 621.77 -4.66182 2.85196 0
M  V30 6389 H 618.864 -0.723357 0.400853 0
M  V30 6390 H 621.41 -0.973224 1.3902 0
M  V30 6391 H 620.182 -2.50814 3.00347 0
M  V30 6392 H 619.805 -3.60231 1.68284 0
M  V30 6393 N 620.802 -1.09834 -1.13024 0
M  V30 6394 C 621.712 -0.753731 -2.22162 0
M  V30 6395 C 622.728 0.246105 -1.72251 0
M  V30 6396 O 623.904 0.0864051 -2.01215 0
M  V30 6397 C 620.969 -0.183958 -3.46212 0
M  V30 6398 C 620.03 -1.24028 -4.10993 0
M  V30 6399 C 619.263 -0.697597 -5.29121 0
M  V30 6400 O 619.486 0.478092 -5.68393 0
M  V30 6401 O 618.42 -1.4546 -5.84059 0
M  V30 6402 H 622.246 -1.66456 -2.5402 0
M  V30 6403 H 619.831 -0.873026 -1.21238 0
M  V30 6404 H 621.713 0.130257 -4.21199 0
M  V30 6405 H 620.388 0.699823 -3.16045 0
M  V30 6406 H 619.295 -1.60725 -3.37814 0
M  V30 6407 H 620.628 -2.09685 -4.45301 0
M  V30 6408 N 622.28 1.30327 -0.886154 0
M  V30 6409 C 623.21 2.30549 -0.370028 0
M  V30 6410 C 624.191 1.61039 0.547751 0
M  V30 6411 O 625.376 1.8864 0.461353 0
M  V30 6412 C 622.506 3.44808 0.415275 0
M  V30 6413 C 621.46 4.26024 -0.41085 0
M  V30 6414 C 620.786 5.32347 0.501128 0
M  V30 6415 C 622.086 4.95433 -1.65359 0
M  V30 6416 H 623.78 2.73969 -1.20754 0
M  V30 6417 H 621.326 1.3171 -0.582097 0
M  V30 6418 H 623.279 4.13986 0.78699 0
M  V30 6419 H 622.003 3.00197 1.28644 0
M  V30 6420 H 620.662 3.58535 -0.764719 0
M  V30 6421 H 620.31 4.83982 1.37004 0
M  V30 6422 H 620.01 5.87581 -0.0478356 0
M  V30 6423 H 621.534 6.0438 0.869333 0
M  V30 6424 H 622.948 5.5712 -1.35239 0
M  V30 6425 H 621.345 5.60537 -2.14284 0
M  V30 6426 H 622.415 4.21493 -2.39733 0
M  V30 6427 N 623.758 0.647228 1.43697 0
M  V30 6428 C 625.169 0.238689 1.85168 0
M  V30 6429 C 625.52 -1.21345 1.54175 0
M  V30 6430 O 624.645 -1.92542 0.987743 0
M  V30 6431 C 625.24 0.426422 3.36106 0
M  V30 6432 C 623.799 0.0722541 3.76331 0
M  V30 6433 C 622.946 0.732153 2.6746 0
M  V30 6434 H 625.897 0.851309 1.33934 0
M  V30 6435 H 625.918 -0.32987 3.79067 0
M  V30 6436 H 625.43 1.48339 3.58632 0
M  V30 6437 H 623.531 -0.982355 3.59417 0
M  V30 6438 H 623.644 0.493541 4.76551 0
M  V30 6439 H 622.008 0.16594 2.54159 0
M  V30 6440 H 622.791 1.79204 2.92816 0
M  V30 6441 N 625.236 -1.5273 0.388769 0
M  V30 6442 C 626.184 -2.27975 -0.461527 0
M  V30 6443 C 627.178 -1.31854 -1.06352 0
M  V30 6444 O 628.384 -1.49394 -1.00406 0
M  V30 6445 H 624.759 -0.733088 -0.16759 0
M  V30 6446 H 626.73 -2.97765 0.194579 0
M  V30 6447 C 625.479 -3.09881 -1.577 0
M  V30 6448 H 624.802 -3.83701 -1.12309 0
M  V30 6449 H 626.242 -3.6567 -2.14619 0
M  V30 6450 C 624.701 -2.22159 -2.53272 0
M  V30 6451 O 625.231 -1.84802 -3.56667 0
M  V30 6452 N 623.437 -1.8633 -2.23001 0
M  V30 6453 H 622.984 -2.16909 -1.38954 0
M  V30 6454 H 622.942 -1.27927 -2.87197 0
M  V30 6455 N 626.714 -0.118576 -1.57153 0
M  V30 6456 C 627.944 0.546466 -1.99242 0
M  V30 6457 C 628.352 1.60791 -0.997148 0
M  V30 6458 O 627.695 1.83691 0.0181745 0
M  V30 6459 C 627.757 1.23167 -3.37743 0
M  V30 6460 C 627.421 0.318226 -4.55891 0
M  V30 6461 C 628.418 -0.442988 -5.18009 0
M  V30 6462 C 626.103 0.229421 -5.01776 0
M  V30 6463 C 628.097 -1.28074 -6.244 0
M  V30 6464 C 625.784 -0.611966 -6.08028 0
M  V30 6465 C 626.782 -1.36568 -6.69207 0
M  V30 6466 O 626.47 -2.1931 -7.73407 0
M  V30 6467 H 626.202 0.149297 -0.659307 0
M  V30 6468 H 628.756 -0.201603 -2.04408 0
M  V30 6469 H 626.986 2.0268 -3.29329 0
M  V30 6470 H 628.675 1.79358 -3.64123 0
M  V30 6471 H 629.441 -0.38425 -4.83475 0
M  V30 6472 H 625.32 0.805771 -4.53903 0
M  V30 6473 H 628.864 -1.86952 -6.72082 0
M  V30 6474 H 624.761 -0.6721 -6.41991 0
M  V30 6475 H 625.529 -2.12247 -7.90502 0
M  V30 6476 N 628.193 1.56834 0.155195 0
M  V30 6477 C 629.433 1.84701 0.875488 0
M  V30 6478 C 629.797 0.701747 1.78716 0
M  V30 6479 O 630.998 0.861263 2.54629 0
M  V30 6480 C 629.269 3.1773 1.63654 0
M  V30 6481 S 630.828 3.67128 2.40338 0
M  V30 6482 H 627.646 0.647856 0.292923 0
M  V30 6483 H 630.248 1.95026 0.136024 0
M  V30 6484 H 628.952 3.99059 0.958117 0
M  V30 6485 H 628.483 3.10388 2.41708 0
M  V30 6486 H 630.498 3.35739 3.65368 0
M  V30 6487 N 629.671 -0.424282 1.51781 0
M  V30 6488 C 630.918 -1.1726 1.65095 0
M  V30 6489 C 631.246 -1.90881 0.373477 0
M  V30 6490 O 630.501 -1.84835 -0.642997 0
M  V30 6491 C 630.8 -2.20418 2.81337 0
M  V30 6492 C 630.466 -1.63715 4.20129 0
M  V30 6493 C 629.128 -1.47975 4.57883 0
M  V30 6494 C 631.48 -1.22157 5.06682 0
M  V30 6495 C 628.808 -0.891703 5.79884 0
M  V30 6496 C 631.16 -0.647767 6.29275 0
M  V30 6497 C 629.824 -0.477371 6.65791 0
M  V30 6498 H 629.094 -0.429085 0.604125 0
M  V30 6499 H 631.741 -0.461852 1.85847 0
M  V30 6500 H 630.046 -2.97581 2.54859 0
M  V30 6501 H 631.743 -2.78163 2.88836 0
M  V30 6502 H 628.333 -1.76946 3.90369 0
M  V30 6503 H 632.517 -1.33133 4.7811 0
M  V30 6504 H 627.773 -0.747563 6.06813 0
M  V30 6505 H 631.947 -0.317291 6.95677 0
M  V30 6506 H 629.574 -0.0195936 7.60197 0
M  V30 6507 N 631.149 -1.42148 -0.680565 0
M  V30 6508 C 632.56 -1.3768 -1.26099 0
M  V30 6509 C 632.911 -0.0672348 -1.96085 0
M  V30 6510 O 632.036 0.834172 -1.99676 0
M  V30 6511 C 632.631 -2.49387 -2.29328 0
M  V30 6512 C 631.19 -2.4827 -2.82911 0
M  V30 6513 C 630.337 -2.2847 -1.57152 0
M  V30 6514 H 633.288 -1.51446 -0.474326 0
M  V30 6515 H 633.309 -2.19307 -3.10941 0
M  V30 6516 H 632.821 -3.44686 -1.78363 0
M  V30 6517 H 630.922 -1.56773 -3.38013 0
M  V30 6518 H 631.035 -3.45109 -3.3232 0
M  V30 6519 H 629.399 -1.76623 -1.83511 0
M  V30 6520 H 630.182 -3.25816 -1.0816 0
M  V30 6521 N 632.627 0.916307 -1.28225 0
M  V30 6522 C 633.557 2.0352 -1.14464 0
M  V30 6523 C 634.538 1.70045 -0.0430844 0
M  V30 6524 O 635.723 1.92954 -0.219619 0
M  V30 6525 C 632.853 3.37889 -0.803027 0
M  V30 6526 C 631.807 3.85516 -1.85908 0
M  V30 6527 C 631.133 5.1682 -1.37116 0
M  V30 6528 C 632.433 4.07655 -3.26519 0
M  V30 6529 H 634.127 2.1529 -2.08064 0
M  V30 6530 H 631.673 1.03446 -1.00174 0
M  V30 6531 H 633.626 4.15654 -0.693537 0
M  V30 6532 H 632.35 3.26164 0.168674 0
M  V30 6533 H 631.009 3.09953 -1.95767 0
M  V30 6534 H 630.657 5.01497 -0.38859 0
M  V30 6535 H 630.357 5.49657 -2.07728 0
M  V30 6536 H 631.881 5.97143 -1.27484 0
M  V30 6537 H 633.295 4.75953 -3.19596 0
M  V30 6538 H 631.692 4.51818 -3.94943 0
M  V30 6539 H 632.762 3.12553 -3.70727 0
M  V30 6540 N 634.105 1.10431 1.1244 0
M  V30 6541 C 635.353 0.845045 1.83585 0
M  V30 6542 C 635.674 -0.631168 1.84503 0
M  V30 6543 O 634.944 -1.45825 1.30813 0
M  V30 6544 H 633.524 0.309628 0.679809 0
M  V30 6545 H 636.186 1.39458 1.36153 0
M  V30 6546 H 635.282 1.20786 2.8778 0
M  V30 6547 N 635.583 -1.29855 0.893053 0
M  V30 6548 C 636.831 -1.9544 0.514566 0
M  V30 6549 C 637.152 -1.70795 -0.940959 0
M  V30 6550 O 636.422 -1.03601 -1.66264 0
M  V30 6551 H 635.002 -0.723137 0.187302 0
M  V30 6552 H 637.664 -1.58234 1.13789 0
M  V30 6553 H 636.76 -3.04341 0.691581 0
M  V30 6554 N 637.061 -0.65484 -1.43351 0
M  V30 6555 C 638.31 -0.166215 -2.01014 0
M  V30 6556 C 638.623 1.22764 -1.52278 0
M  V30 6557 O 639.829 1.81156 -2.02224 0
M  V30 6558 C 638.285 -0.246341 -3.59056 0
M  V30 6559 C 637.893 -1.64299 -4.16785 0
M  V30 6560 C 639.637 0.184597 -4.24098 0
M  V30 6561 C 637.544 -1.67695 -5.67126 0
M  V30 6562 H 636.474 -0.0583769 -0.751737 0
M  V30 6563 H 639.125 -0.817111 -1.64303 0
M  V30 6564 H 637.507 0.472092 -3.93176 0
M  V30 6565 H 638.681 -2.3869 -3.94162 0
M  V30 6566 H 636.996 -2.02004 -3.6412 0
M  V30 6567 H 639.593 0.179088 -5.344 0
M  V30 6568 H 639.936 1.21632 -3.98135 0
M  V30 6569 H 640.469 -0.482141 -3.94867 0
M  V30 6570 H 637.208 -2.68783 -5.9786 0
M  V30 6571 H 636.728 -0.976313 -5.91801 0
M  V30 6572 H 638.407 -1.42142 -6.31193 0
M  V30 6573 N 638.539 1.52521 -0.396863 0
M  V30 6574 C 639.787 2.01274 0.182536 0
M  V30 6575 C 640.108 1.28485 1.46685 0
M  V30 6576 O 639.378 0.407134 1.91623 0
M  V30 6577 H 637.958 0.743671 0.0704442 0
M  V30 6578 H 640.62 1.87547 -0.530289 0
M  V30 6579 H 639.716 3.09687 0.387385 0
M  V30 6580 N 640.017 0.126909 1.57088 0
M  V30 6581 C 641.263 -0.529952 1.95753 0
M  V30 6582 C 641.596 -1.65823 1.01077 0
M  V30 6583 O 640.871 -1.94437 0.0494162 0
M  V30 6584 C 641.154 -1.05517 3.44294 0
M  V30 6585 C 641.007 0.0702253 4.49745 0
M  V30 6586 C 642.326 -1.9435 3.94862 0
M  V30 6587 H 639.445 -0.191168 0.711775 0
M  V30 6588 H 642.087 0.204071 1.88901 0
M  V30 6589 H 640.237 -1.68069 3.50264 0
M  V30 6590 H 641.909 0.705834 4.55868 0
M  V30 6591 H 640.152 0.732259 4.27575 0
M  V30 6592 H 640.823 -0.338642 5.5096 0
M  V30 6593 H 643.299 -1.41658 3.91244 0
M  V30 6594 H 642.175 -2.28015 4.993 0
M  V30 6595 H 642.436 -2.87299 3.36024 0
M  V30 6596 N 641.495 -1.56914 -0.146875 0
M  V30 6597 C 642.723 -1.87515 -0.874394 0
M  V30 6598 C 643.138 -0.715116 -1.74733 0
M  V30 6599 O 642.495 0.315113 -1.79759 0
M  V30 6600 C 642.546 -3.17362 -1.731 0
M  V30 6601 O 642.267 -4.28897 -0.893245 0
M  V30 6602 C 643.768 -3.61479 -2.56609 0
M  V30 6603 H 640.988 -0.621546 -0.252827 0
M  V30 6604 H 643.532 -2.04023 -0.139627 0
M  V30 6605 H 641.687 -3.02608 -2.41883 0
M  V30 6606 H 642.101 -5.03146 -1.48137 0
M  V30 6607 H 643.575 -4.5517 -3.12289 0
M  V30 6608 H 644.052 -2.86773 -3.32653 0
M  V30 6609 H 644.658 -3.78927 -1.93117 0
M  V30 6610 N 642.974 0.416227 -1.52004 0
M  V30 6611 C 644.251 1.17637 -1.56272 0
M  V30 6612 C 644.631 2.08352 -0.339493 0
M  V30 6613 O 643.979 2.1833 0.674124 0
M  V30 6614 C 644.189 1.95986 -2.88774 0
M  V30 6615 C 645.537 2.52299 -3.41512 0
M  V30 6616 O 646.561 2.06174 -2.90467 0
M  V30 6617 O 645.42 3.3648 -4.30631 0
M  V30 6618 H 642.514 0.536726 -0.629169 0
M  V30 6619 H 645.06 0.423583 -1.64329 0
M  V30 6620 H 643.832 1.29487 -3.69254 0
M  V30 6621 H 643.455 2.78285 -2.83978 0
M  V30 6622 N 644.452 1.42507 0.673017 0
M  V30 6623 C 645.68 1.46473 1.46128 0
M  V30 6624 C 646.095 0.0765912 1.88645 0
M  V30 6625 O 645.452 -0.909057 1.58248 0
M  V30 6626 C 645.503 2.39339 2.70923 0
M  V30 6627 O 645.224 3.72752 2.3019 0
M  V30 6628 C 646.725 2.52343 3.64469 0
M  V30 6629 H 643.945 0.49812 0.449575 0
M  V30 6630 H 646.489 1.87041 0.826802 0
M  V30 6631 H 644.644 2.02019 3.30556 0
M  V30 6632 H 645.058 4.22503 3.10791 0
M  V30 6633 H 646.532 3.2144 4.48754 0
M  V30 6634 H 647.009 1.56189 4.1049 0
M  V30 6635 H 647.615 2.90392 3.10729 0
M  V30 6636 N 645.93 -0.909495 1.28709 0
M  V30 6637 C 647.16 -1.69027 1.188 0
M  V30 6638 C 647.568 -1.87469 -0.255329 0
M  V30 6639 O 646.911 -1.40458 -1.18394 0
M  V30 6640 C 646.973 -3.10064 1.81936 0
M  V30 6641 C 646.637 -3.14891 3.31199 0
M  V30 6642 C 647.634 -2.95768 4.27571 0
M  V30 6643 C 645.319 -3.37269 3.7223 0
M  V30 6644 C 647.313 -2.98942 5.6295 0
M  V30 6645 C 645 -3.40074 5.07733 0
M  V30 6646 C 645.998 -3.20932 6.02903 0
M  V30 6647 O 645.686 -3.23507 7.35934 0
M  V30 6648 H 645.418 -0.535014 0.413203 0
M  V30 6649 H 647.972 -1.14645 1.70428 0
M  V30 6650 H 646.202 -3.66005 1.24808 0
M  V30 6651 H 647.891 -3.70185 1.66486 0
M  V30 6652 H 648.657 -2.78302 3.97206 0
M  V30 6653 H 644.536 -3.51212 2.98615 0
M  V30 6654 H 648.08 -2.83919 6.37209 0
M  V30 6655 H 643.977 -3.5707 5.37747 0
M  V30 6656 H 644.745 -3.3984 7.44615 0
M  V30 6657 N 647.408 -1.11026 -1.11852 0
M  V30 6658 C 648.34 -0.72249 -2.17515 0
M  V30 6659 C 649.353 0.243782 -1.60964 0
M  V30 6660 O 650.542 0.0273252 -1.78479 0
M  V30 6661 C 647.642 -0.0463979 -3.38868 0
M  V30 6662 C 646.815 -1.0384 -4.24895 0
M  V30 6663 C 645.874 -0.392659 -5.24733 0
M  V30 6664 O 644.9 -1.0453 -5.5952 0
M  V30 6665 N 646.102 0.846296 -5.74298 0
M  V30 6666 H 648.867 -1.63161 -2.51393 0
M  V30 6667 H 646.428 -0.999899 -1.27333 0
M  V30 6668 H 648.42 0.397215 -4.02746 0
M  V30 6669 H 646.99 0.765231 -3.03089 0
M  V30 6670 H 646.21 -1.6601 -3.57539 0
M  V30 6671 H 647.498 -1.70968 -4.79215 0
M  V30 6672 H 646.896 1.39578 -5.4821 0
M  V30 6673 H 645.453 1.23296 -6.40032 0
M  V30 6674 N 648.886 1.2938 -0.899927 0
M  V30 6675 C 649.849 2.25983 -0.382677 0
M  V30 6676 C 650.849 1.53366 0.483259 0
M  V30 6677 O 652.039 1.71798 0.28828 0
M  V30 6678 C 649.171 3.37878 0.452915 0
M  V30 6679 H 650.364 2.73252 -1.23586 0
M  V30 6680 H 647.917 1.40825 -0.678088 0
M  V30 6681 H 648.652 2.95949 1.32608 0
M  V30 6682 H 648.437 3.91742 -0.167562 0
M  V30 6683 H 649.927 4.09746 0.806107 0
M  V30 6684 N 650.364 0.662433 1.43002 0
M  V30 6685 C 651.613 0.176873 2.00923 0
M  V30 6686 C 651.926 -1.21954 1.52927 0
M  V30 6687 O 653.132 -1.80081 2.03182 0
M  V30 6688 C 651.588 0.265379 3.5892 0
M  V30 6689 C 651.196 1.66507 4.15908 0
M  V30 6690 C 652.94 -0.162103 4.2419 0
M  V30 6691 C 650.847 1.707 5.66229 0
M  V30 6692 H 649.777 0.0623627 0.751417 0
M  V30 6693 H 652.428 0.825813 1.63868 0
M  V30 6694 H 650.81 -0.451235 3.93421 0
M  V30 6695 H 651.984 2.40777 3.92891 0
M  V30 6696 H 650.299 2.03932 3.63044 0
M  V30 6697 H 652.896 -0.150745 5.34487 0
M  V30 6698 H 653.239 -1.19519 3.98774 0
M  V30 6699 H 653.772 0.503075 3.94606 0
M  V30 6700 H 650.511 2.7195 5.96426 0
M  V30 6701 H 650.031 1.00768 5.91275 0
M  V30 6702 H 651.71 1.45487 6.3043 0
M  V30 6703 N 651.842 -1.52309 0.404946 0
M  V30 6704 C 652.789 -2.26898 -0.422597 0
M  V30 6705 C 653.759 -1.2914 -1.04461 0
M  V30 6706 O 654.944 -1.57996 -1.06967 0
M  V30 6707 C 652.084 -3.09053 -1.53559 0
M  V30 6708 C 651.197 -4.21762 -0.934908 0
M  V30 6709 C 650.332 -4.91283 -2.02025 0
M  V30 6710 C 649.371 -5.95962 -1.39628 0
M  V30 6711 N 648.508 -6.59017 -2.42159 0
M  V30 6712 H 653.348 -2.97188 0.219903 0
M  V30 6713 H 650.885 -1.46607 0.120282 0
M  V30 6714 H 652.843 -3.54987 -2.19181 0
M  V30 6715 H 651.473 -2.40942 -2.14818 0
M  V30 6716 H 650.525 -3.80029 -0.167854 0
M  V30 6717 H 651.837 -4.96864 -0.439073 0
M  V30 6718 H 650.991 -5.40601 -2.75383 0
M  V30 6719 H 649.73 -4.15741 -2.54973 0
M  V30 6720 H 648.735 -5.45968 -0.648023 0
M  V30 6721 H 649.96 -6.73445 -0.874553 0
M  V30 6722 H 647.906 -5.86306 -2.94247 0
M  V30 6723 H 647.823 -7.2978 -1.97376 0
M  V30 6724 H 649.091 -7.12974 -3.15099 0
M  V30 6725 N 653.32 -0.135238 -1.57019 0
M  V30 6726 C 654.283 0.794707 -2.14981 0
M  V30 6727 C 655.283 1.18342 -1.08866 0
M  V30 6728 O 656.473 1.10627 -1.34563 0
M  V30 6729 C 653.605 2.07685 -2.70333 0
M  V30 6730 H 654.798 0.290696 -2.98488 0
M  V30 6731 H 652.351 0.114128 -1.55883 0
M  V30 6732 H 653.086 2.6248 -1.9046 0
M  V30 6733 H 652.871 1.80745 -3.47957 0
M  V30 6734 H 654.361 2.74127 -3.1503 0
M  V30 6735 N 654.798 1.5699 0.138552 0
M  V30 6736 C 655.746 1.99858 1.18994 0
M  V30 6737 C 656.74 0.89231 1.43994 0
M  V30 6738 O 657.946 1.0775 1.44187 0
M  V30 6739 H 654.321 0.636325 0.400743 0
M  V30 6740 H 656.292 2.87427 0.801755 0
M  V30 6741 C 655.041 2.40235 2.51361 0
M  V30 6742 H 654.364 3.24917 2.32957 0
M  V30 6743 H 655.804 2.74045 3.23535 0
M  V30 6744 C 654.263 1.25829 3.1252 0
M  V30 6745 O 654.793 0.563604 3.97727 0
M  V30 6746 N 652.999 1.02036 2.72097 0
M  V30 6747 H 652.546 1.58705 2.02905 0
M  V30 6748 H 652.504 0.256796 3.1335 0
M  V30 6749 N 656.276 -0.40816 1.52223 0
M  V30 6750 C 657.524 -1.15274 1.66001 0
M  V30 6751 C 657.845 -1.91003 0.392803 0
M  V30 6752 O 657.115 -1.8673 -0.592336 0
M  V30 6753 H 655.695 -0.428526 0.611861 0
M  V30 6754 H 658.357 -0.46512 1.89269 0
M  V30 6755 H 657.453 -1.86628 2.50153 0
M  V30 6756 N 657.755 -1.42862 -0.66545 0
M  V30 6757 C 658.703 -1.47319 -1.8 0
M  V30 6758 C 659.697 -0.347963 -1.65788 0
M  V30 6759 O 660.903 -0.521406 -1.72283 0
M  V30 6760 H 657.278 -0.461588 -0.593667 0
M  V30 6761 H 659.249 -2.42876 -1.7336 0
M  V30 6762 C 657.998 -1.40152 -3.18203 0
M  V30 6763 H 657.321 -2.26035 -3.2977 0
M  V30 6764 H 658.761 -1.47331 -3.9758 0
M  V30 6765 C 657.22 -0.117493 -3.36695 0
M  V30 6766 O 657.75 0.826058 -3.93115 0
M  V30 6767 N 655.956 -0.0316218 -2.90583 0
M  V30 6768 H 655.503 -0.800247 -2.44855 0
M  V30 6769 H 655.461 0.826835 -3.03333 0
M  V30 6770 N 659.233 0.902656 -1.29189 0
M  V30 6771 C 660.481 1.6496 -1.16758 0
M  V30 6772 C 660.802 1.92952 0.28188 0
M  V30 6773 O 660.072 1.55351 1.19344 0
M  V30 6774 H 658.652 0.611447 -0.429118 0
M  V30 6775 H 661.314 1.0825 -1.62074 0
M  V30 6776 H 660.41 2.60728 -1.71544 0
M  V30 6777 N 660.711 1.11618 1.11262 0
M  V30 6778 C 661.936 0.889013 1.8738 0
M  V30 6779 C 662.361 -0.555884 1.79698 0
M  V30 6780 O 661.719 -1.39272 1.16073 0
M  V30 6781 C 661.767 1.35759 3.34069 0
M  V30 6782 O 660.871 0.530499 4.08974 0
M  V30 6783 H 660.212 0.320082 0.581759 0
M  V30 6784 H 662.742 1.48611 1.40627 0
M  V30 6785 H 662.752 1.35291 3.84916 0
M  V30 6786 H 661.427 2.40973 3.38976 0
M  V30 6787 H 660.004 0.601439 3.68018 0
M  V30 6788 N 662.189 -1.289 0.906776 0
M  V30 6789 C 663.437 -1.94883 0.535266 0
M  V30 6790 C 663.758 -1.71784 -0.922791 0
M  V30 6791 O 663.028 -1.05359 -1.65156 0
M  V30 6792 H 661.608 -0.721109 0.194962 0
M  V30 6793 H 664.27 -1.57018 1.15461 0
M  V30 6794 H 663.366 -3.03591 0.723821 0
M  V30 6795 N 663.667 -0.670007 -1.42649 0
M  V30 6796 C 664.944 -0.119451 -1.95235 0
M  V30 6797 C 665.324 1.36461 -1.61064 0
M  V30 6798 O 664.672 2.09843 -0.904329 0
M  V30 6799 C 664.882 -0.383498 -3.46887 0
M  V30 6800 C 666.23 -0.297431 -4.23557 0
M  V30 6801 O 667.254 -0.31698 -3.54787 0
M  V30 6802 O 666.113 -0.235507 -5.45992 0
M  V30 6803 H 663.207 -8.85474e-05 -0.827 0
M  V30 6804 H 665.753 -0.744406 -1.52501 0
M  V30 6805 H 664.525 -1.41174 -3.64946 0
M  V30 6806 H 664.148 0.273702 -3.96657 0
M  V30 6807 N 665.145 1.52092 -0.413018 0
M  V30 6808 C 666.093 2.28681 0.425199 0
M  V30 6809 C 667.087 1.3353 1.04241 0
M  V30 6810 O 668.293 1.50973 0.980166 0
M  V30 6811 H 664.668 0.735661 0.155906 0
M  V30 6812 H 666.639 2.97418 -0.241926 0
M  V30 6813 C 665.388 3.1235 1.5275 0
M  V30 6814 H 664.711 3.85439 1.06191 0
M  V30 6815 H 666.151 3.69038 2.08774 0
M  V30 6816 C 664.61 2.26161 2.49706 0
M  V30 6817 O 665.14 1.90452 3.53682 0
M  V30 6818 N 663.346 1.89854 2.20008 0
M  V30 6819 H 662.893 2.19092 1.35486 0
M  V30 6820 H 662.851 1.3248 2.85125 0
M  V30 6821 N 666.623 0.143563 1.56945 0
M  V30 6822 C 667.871 -0.507402 1.95627 0
M  V30 6823 C 668.192 -1.65626 1.02922 0
M  V30 6824 O 667.462 -1.95693 0.0901136 0
M  V30 6825 H 666.042 -0.190436 0.722318 0
M  V30 6826 H 668.704 0.218257 1.93674 0
M  V30 6827 H 667.8 -0.885816 2.99265 0
M  V30 6828 N 668.101 -1.57061 -0.130224 0
M  V30 6829 C 669.378 -1.75205 -0.869631 0
M  V30 6830 C 669.758 -0.716063 -1.98584 0
M  V30 6831 O 669.106 0.262032 -2.26993 0
M  V30 6832 C 669.316 -3.19835 -1.39666 0
M  V30 6833 C 670.664 -3.82011 -1.85345 0
M  V30 6834 O 671.688 -3.23368 -1.49371 0
M  V30 6835 O 670.547 -4.85064 -2.51744 0
M  V30 6836 H 667.641 -0.716977 -0.412157 0
M  V30 6837 H 670.187 -1.69311 -0.11484 0
M  V30 6838 H 668.959 -3.86745 -0.595288 0
M  V30 6839 H 668.582 -3.30222 -2.21448 0
M  V30 6840 N 669.579 0.400081 -1.52437 0
M  V30 6841 C 670.807 1.16768 -1.70801 0
M  V30 6842 C 671.222 1.84036 -0.421462 0
M  V30 6843 O 670.579 1.72242 0.603228 0
M  V30 6844 C 670.63 2.22403 -2.8499 0
M  V30 6845 O 670.351 1.57879 -4.08663 0
M  V30 6846 C 671.852 3.11974 -3.1494 0
M  V30 6847 H 669.072 0.350533 -0.57216 0
M  V30 6848 H 671.616 0.469534 -1.99037 0
M  V30 6849 H 669.771 2.87871 -2.59247 0
M  V30 6850 H 670.185 2.27982 -4.7236 0
M  V30 6851 H 671.659 3.82148 -3.9833 0
M  V30 6852 H 672.136 3.74858 -2.28863 0
M  V30 6853 H 672.742 2.52165 -3.42481 0
M  V30 6854 N 671.057 1.43213 0.657864 0
M  V30 6855 C 672.285 1.48015 1.44566 0
M  V30 6856 C 672.7 0.0965951 1.88553 0
M  V30 6857 O 672.057 -0.892221 1.59203 0
M  V30 6858 C 672.108 2.42199 2.68369 0
M  V30 6859 O 671.829 3.75173 2.26223 0
M  V30 6860 C 673.33 2.56195 3.61772 0
M  V30 6861 H 670.55 0.502861 0.444266 0
M  V30 6862 H 673.094 1.87907 0.806917 0
M  V30 6863 H 671.249 2.05514 3.28394 0
M  V30 6864 H 671.663 4.25776 3.06293 0
M  V30 6865 H 673.137 3.26182 4.4532 0
M  V30 6866 H 673.614 1.60534 4.0881 0
M  V30 6867 H 674.22 2.93671 3.07632 0
M  V30 6868 N 672.536 -0.895792 1.29666 0
M  V30 6869 C 673.782 -1.64921 1.19049 0
M  V30 6870 C 674.137 -1.90707 -0.254678 0
M  V30 6871 O 673.43 -1.5092 -1.18041 0
M  V30 6872 C 673.624 -3.00075 1.94139 0
M  V30 6873 C 673.453 -2.87482 3.4581 0
M  V30 6874 C 672.223 -2.88041 4.15163 0
M  V30 6875 C 674.421 -2.64224 4.41237 0
M  V30 6876 N 672.403 -2.66226 5.5317 0
M  V30 6877 C 673.774 -2.51427 5.66732 0
M  V30 6878 C 675.829 -2.49362 4.30956 0
M  V30 6879 C 674.532 -2.25281 6.83111 0
M  V30 6880 C 676.558 -2.246 5.47091 0
M  V30 6881 C 675.92 -2.12571 6.7156 0
M  V30 6882 H 672.019 -0.608926 0.490646 0
M  V30 6883 H 674.603 -1.05648 1.63544 0
M  V30 6884 H 672.774 -3.574 1.52052 0
M  V30 6885 H 674.506 -3.64544 1.75754 0
M  V30 6886 H 671.261 -2.99471 3.66898 0
M  V30 6887 H 671.685 -2.58361 6.25762 0
M  V30 6888 H 676.327 -2.57403 3.35415 0
M  V30 6889 H 674.045 -2.15978 7.78704 0
M  V30 6890 H 677.631 -2.13939 5.41037 0
M  V30 6891 H 676.511 -1.93676 7.59907 0
M  V30 6892 N 674.014 -1.12206 -1.10668 0
M  V30 6893 C 675.242 -0.898635 -1.86366 0
M  V30 6894 C 675.657 0.551991 -1.80551 0
M  V30 6895 O 675.014 1.38152 -1.19249 0
M  V30 6896 C 675.065 -1.36199 -3.34861 0
M  V30 6897 O 674.786 -2.75576 -3.40573 0
M  V30 6898 C 676.287 -1.17515 -4.2744 0
M  V30 6899 H 673.507 -0.321281 -0.589084 0
M  V30 6900 H 676.051 -1.49142 -1.39918 0
M  V30 6901 H 674.206 -0.81249 -3.78784 0
M  V30 6902 H 674.62 -2.95851 -4.33096 0
M  V30 6903 H 676.094 -1.54827 -5.29842 0
M  V30 6904 H 676.571 -0.115486 -4.39048 0
M  V30 6905 H 677.177 -1.71203 -3.89319 0
M  V30 6906 N 675.492 1.28418 -0.913599 0
M  V30 6907 C 676.439 2.27301 -0.400373 0
M  V30 6908 C 677.409 1.57582 0.52509 0
M  V30 6909 O 678.594 1.85482 0.447318 0
M  V30 6910 C 675.734 3.43284 0.35361 0
M  V30 6911 C 674.847 4.27752 -0.604341 0
M  V30 6912 C 673.982 5.30934 0.168075 0
M  V30 6913 C 673.021 6.07065 -0.783499 0
M  V30 6914 N 672.158 7.02086 -0.0446112 0
M  V30 6915 H 676.998 2.70579 -1.24865 0
M  V30 6916 H 674.535 1.33067 -0.627028 0
M  V30 6917 H 676.493 4.09322 0.806945 0
M  V30 6918 H 675.123 3.00997 1.16623 0
M  V30 6919 H 674.175 3.61759 -1.17621 0
M  V30 6920 H 675.487 4.80682 -1.33216 0
M  V30 6921 H 674.641 6.02855 0.681979 0
M  V30 6922 H 673.38 4.78771 0.928947 0
M  V30 6923 H 672.385 5.33995 -1.30878 0
M  V30 6924 H 673.61 6.61317 -1.54392 0
M  V30 6925 H 671.556 6.52273 0.698272 0
M  V30 6926 H 671.473 7.52637 -0.712258 0
M  V30 6927 H 672.741 7.78205 0.449102 0
M  V30 6928 N 676.97 0.677563 1.42291 0
M  V30 6929 C 678.247 0.129803 1.95169 0
M  V30 6930 C 678.627 -1.35605 1.61786 0
M  V30 6931 O 677.975 -2.09361 0.915444 0
M  V30 6932 C 678.185 0.401889 3.46678 0
M  V30 6933 C 679.533 0.319889 4.23393 0
M  V30 6934 O 680.557 0.33579 3.54614 0
M  V30 6935 O 679.416 0.264459 5.4586 0
M  V30 6936 H 676.51 0.00447433 0.826988 0
M  V30 6937 H 679.056 0.752483 1.52105 0
M  V30 6938 H 677.828 1.43108 3.64192 0
M  V30 6939 H 677.451 -0.252662 3.96796 0
M  V30 6940 N 678.448 -1.51871 0.421078 0
M  V30 6941 C 679.358 -2.31077 -0.405069 0
M  V30 6942 C 680.374 -1.39301 -1.04265 0
M  V30 6943 O 681.55 -1.72376 -1.04157 0
M  V30 6944 C 678.615 -3.12556 -1.50032 0
M  V30 6945 C 677.676 -4.20088 -0.884559 0
M  V30 6946 C 676.909 -4.97673 -1.92762 0
M  V30 6947 O 677.132 -4.75696 -3.14753 0
M  V30 6948 O 676.066 -5.82203 -1.52719 0
M  V30 6949 H 679.892 -3.02742 0.241086 0
M  V30 6950 H 677.477 -1.48263 0.183991 0
M  V30 6951 H 679.359 -3.6326 -2.13589 0
M  V30 6952 H 678.034 -2.43672 -2.13086 0
M  V30 6953 H 676.941 -3.73502 -0.211379 0
M  V30 6954 H 678.274 -4.91298 -0.297763 0
M  V30 6955 N 679.926 -0.151884 -1.56866 0
M  V30 6956 C 681.154 0.504813 -2.00647 0
M  V30 6957 C 681.569 1.58098 -1.03201 0
M  V30 6958 O 680.926 1.82476 -0.0297814 0
M  V30 6959 C 680.977 1.10099 -3.44326 0
M  V30 6960 O 680.698 0.0678021 -4.38048 0
M  V30 6961 C 682.199 1.83782 -4.03409 0
M  V30 6962 H 679.419 0.130989 -0.65809 0
M  V30 6963 H 681.963 -0.247903 -2.02992 0
M  V30 6964 H 680.118 1.8043 -3.42817 0
M  V30 6965 H 680.532 0.505237 -5.22061 0
M  V30 6966 H 682.006 2.2078 -5.05925 0
M  V30 6967 H 682.483 2.72557 -3.44397 0
M  V30 6968 H 683.089 1.18138 -4.08563 0
M  V30 6969 N 681.404 1.57128 0.121893 0
M  V30 6970 C 682.651 1.847 0.830188 0
M  V30 6971 C 682.979 0.736543 1.80015 0
M  V30 6972 O 682.234 -0.272358 1.93796 0
M  V30 6973 C 682.533 3.1874 1.61677 0
M  V30 6974 C 682.199 4.43901 0.791361 0
M  V30 6975 C 680.861 4.77887 0.563731 0
M  V30 6976 C 683.213 5.20753 0.215823 0
M  V30 6977 C 680.541 5.86168 -0.249737 0
M  V30 6978 C 682.893 6.29891 -0.584821 0
M  V30 6979 C 681.557 6.6241 -0.822794 0
M  V30 6980 H 680.827 0.675866 0.303787 0
M  V30 6981 H 683.474 1.91276 0.0926894 0
M  V30 6982 H 681.779 3.07728 2.42509 0
M  V30 6983 H 683.476 3.37295 2.16872 0
M  V30 6984 H 680.066 4.17272 0.978867 0
M  V30 6985 H 684.25 4.94851 0.378907 0
M  V30 6986 H 679.506 6.0979 -0.44336 0
M  V30 6987 H 683.68 6.88624 -1.03779 0
M  V30 6988 H 681.307 7.46147 -1.45496 0
M  V30 6989 N 682.882 -0.391992 1.52647 0
M  V30 6990 C 683.845 -1.46135 1.7657 0
M  V30 6991 C 684.845 -1.47701 0.635698 0
M  V30 6992 O 686.035 -1.48924 0.903728 0
M  V30 6993 C 683.167 -2.85443 1.86374 0
M  V30 6994 H 684.36 -1.26208 2.72051 0
M  V30 6995 H 681.913 -0.623549 1.43323 0
M  V30 6996 H 682.648 -3.10718 0.928685 0
M  V30 6997 H 682.433 -2.85708 2.68539 0
M  V30 6998 H 683.923 -3.62933 2.06566 0
M  V30 6999 N 684.36 -1.4356 -0.65026 0
M  V30 7000 C 685.588 -1.48779 -1.43779 0
M  V30 7001 C 686.003 -0.106593 -1.88499 0
M  V30 7002 O 685.36 0.883766 -1.59674 0
M  V30 7003 C 685.411 -2.43618 -2.67081 0
M  V30 7004 O 685.132 -3.76367 -2.24231 0
M  V30 7005 C 686.633 -2.5811 -3.60409 0
M  V30 7006 H 683.853 -0.50521 -0.441593 0
M  V30 7007 H 686.397 -1.88332 -0.796941 0
M  V30 7008 H 684.552 -2.07253 -3.273 0
M  V30 7009 H 684.966 -4.27394 -3.0403 0
M  V30 7010 H 686.44 -3.28539 -4.43583 0
M  V30 7011 H 686.917 -1.627 -4.07953 0
M  V30 7012 H 687.523 -2.95298 -3.0607 0
M  V30 7013 N 685.838 0.888903 -1.30139 0
M  V30 7014 C 687.254 1.17153 -1.08385 0
M  V30 7015 C 687.454 2.0088 0.157925 0
M  V30 7016 O 686.51 2.37668 0.852652 0
M  V30 7017 C 687.823 1.882 -2.34523 0
M  V30 7018 C 689.371 2.00981 -2.39949 0
M  V30 7019 C 689.846 2.75441 -3.65918 0
M  V30 7020 N 691.337 2.82989 -3.66704 0
M  V30 7021 C 692.072 3.41167 -4.60861 0
M  V30 7022 N 691.568 4.00425 -5.6536 0
M  V30 7023 N 693.361 3.38944 -4.48412 0
M  V30 7024 H 685.512 0.33053 -2.09812 0
M  V30 7025 H 687.775 0.208964 -0.924683 0
M  V30 7026 H 687.481 1.34119 -3.25123 0
M  V30 7027 H 687.355 2.88609 -2.42868 0
M  V30 7028 H 689.742 2.54234 -1.4983 0
M  V30 7029 H 689.823 0.996725 -2.35582 0
M  V30 7030 H 689.467 2.22861 -4.56394 0
M  V30 7031 H 689.397 3.77118 -3.67546 0
M  V30 7032 H 691.888 2.40912 -2.91153 0
M  V30 7033 H 692.201 4.42871 -6.33313 0
M  V30 7034 H 690.546 3.98856 -5.69157 0
M  V30 7035 H 693.737 2.91875 -3.6596 0
M  V30 7036 H 693.91 3.83989 -5.21974 0
M  V30 7037 N 687.317 1.12792 1.10072 0
M  V30 7038 C 688.265 0.794523 2.18609 0
M  V30 7039 C 689.259 -0.220271 1.67962 0
M  V30 7040 O 690.465 -0.0780938 1.79831 0
M  V30 7041 H 686.84 0.239123 0.712969 0
M  V30 7042 H 688.811 1.71823 2.43966 0
M  V30 7043 C 687.56 0.269548 3.46654 0
M  V30 7044 H 686.883 1.04171 3.8599 0
M  V30 7045 H 688.323 0.0746242 4.23934 0
M  V30 7046 C 686.782 -1.00333 3.21613 0
M  V30 7047 O 687.312 -2.08042 3.4363 0
M  V30 7048 N 685.518 -0.931763 2.75257 0
M  V30 7049 H 685.065 -0.0551197 2.57541 0
M  V30 7050 H 685.023 -1.78405 2.58881 0
M  V30 7051 N 688.795 -1.27931 0.920396 0
M  V30 7052 C 689.705 -2.30824 0.419212 0
M  V30 7053 C 690.721 -1.66767 -0.496461 0
M  V30 7054 O 691.897 -1.97763 -0.38104 0
M  V30 7055 C 688.962 -3.45158 -0.326601 0
M  V30 7056 C 688.023 -4.24754 0.623098 0
M  V30 7057 C 687.256 -5.33629 -0.0872172 0
M  V30 7058 O 687.479 -5.55204 -1.30784 0
M  V30 7059 O 686.413 -5.99091 0.580875 0
M  V30 7060 H 690.239 -2.75716 1.27337 0
M  V30 7061 H 687.824 -1.32747 0.685465 0
M  V30 7062 H 689.706 -4.14716 -0.747559 0
M  V30 7063 H 688.381 -3.02336 -1.15648 0
M  V30 7064 H 687.288 -3.57759 1.09359 0
M  V30 7065 H 688.621 -4.71272 1.41998 0
M  V30 7066 N 690.273 -0.685099 -1.4193 0
M  V30 7067 C 691.522 -0.208816 -2.00616 0
M  V30 7068 C 691.835 1.19506 -1.54847 0
M  V30 7069 O 693.041 1.76826 -2.06021 0
M  V30 7070 C 691.497 -0.322446 -3.58453 0
M  V30 7071 C 691.105 -1.73102 -4.13206 0
M  V30 7072 C 692.849 0.0945979 -4.24395 0
M  V30 7073 C 690.756 -1.79687 -5.63442 0
M  V30 7074 H 689.686 -0.0743092 -0.750329 0
M  V30 7075 H 692.337 -0.851778 -1.62533 0
M  V30 7076 H 690.719 0.388588 -3.94089 0
M  V30 7077 H 691.893 -2.46997 -3.8901 0
M  V30 7078 H 690.208 -2.09682 -3.59753 0
M  V30 7079 H 692.805 0.0656937 -5.3466 0
M  V30 7080 H 693.148 1.1316 -4.00625 0
M  V30 7081 H 693.681 -0.56579 -3.93756 0
M  V30 7082 H 690.42 -2.81404 -5.92024 0
M  V30 7083 H 689.94 -1.10162 -5.89597 0
M  V30 7084 H 691.619 -1.55498 -6.28036 0
M  V30 7085 N 691.751 1.51645 -0.429126 0
M  V30 7086 C 692.999 2.01616 0.139802 0
M  V30 7087 C 693.32 1.31568 1.43927 0
M  V30 7088 O 692.59 0.447688 1.90716 0
M  V30 7089 H 691.17 0.744998 0.054654 0
M  V30 7090 H 693.832 1.8638 -0.569952 0
M  V30 7091 H 692.928 3.10439 0.321609 0
M  V30 7092 N 693.229 0.160201 1.56784 0
M  V30 7093 C 694.475 -0.48831 1.96833 0
M  V30 7094 C 694.808 -1.63641 1.04571 0
M  V30 7095 O 694.083 -1.94289 0.0906481 0
M  V30 7096 C 694.366 -0.981908 3.46454 0
M  V30 7097 C 694.219 0.165607 4.49495 0
M  V30 7098 C 695.538 -1.85931 3.98896 0
M  V30 7099 H 692.657 -0.176027 0.71567 0
M  V30 7100 H 695.299 0.244093 1.88426 0
M  V30 7101 H 693.449 -1.60602 3.5375 0
M  V30 7102 H 695.121 0.802372 4.54268 0
M  V30 7103 H 693.364 0.822789 4.25926 0
M  V30 7104 H 694.035 -0.221699 5.51555 0
M  V30 7105 H 696.511 -1.33327 3.94161 0
M  V30 7106 H 695.387 -2.17373 5.04024 0
M  V30 7107 H 695.648 -2.80106 3.42042 0
M  V30 7108 N 694.707 -1.5719 -0.113559 0
M  V30 7109 C 695.955 -1.84772 -0.818761 0
M  V30 7110 C 696.276 -0.746196 -1.80158 0
M  V30 7111 O 695.546 0.229305 -1.94553 0
M  V30 7112 H 694.126 -0.681737 -0.305359 0
M  V30 7113 H 696.788 -1.94645 -0.0995845 0
M  V30 7114 H 695.884 -2.80878 -1.36067 0
M  V30 7115 N 696.185 0.383891 -1.52853 0
M  V30 7116 C 697.133 1.48965 -1.7864 0
M  V30 7117 C 698.127 1.56242 -0.654577 0
M  V30 7118 O 699.333 1.59347 -0.83716 0
M  V30 7119 H 695.708 0.495892 -0.565328 0
M  V30 7120 H 697.679 1.24411 -2.71228 0
M  V30 7121 C 696.428 2.86036 -1.97683 0
M  V30 7122 H 695.751 2.81188 -2.84206 0
M  V30 7123 H 697.191 3.62632 -2.19713 0
M  V30 7124 C 695.65 3.28428 -0.750776 0
M  V30 7125 O 696.18 4.0164 0.0693491 0
M  V30 7126 N 694.386 2.84765 -0.579427 0
M  V30 7127 H 693.933 2.25353 -1.24795 0
M  V30 7128 H 693.891 3.13486 0.239544 0
M  V30 7129 N 697.663 1.43903 0.642637 0
M  V30 7130 C 698.611 1.50164 1.77634 0
M  V30 7131 C 699.605 0.374294 1.65213 0
M  V30 7132 O 700.811 0.548748 1.71431 0
M  V30 7133 H 697.186 0.470974 0.586249 0
M  V30 7134 H 699.157 2.45603 1.69474 0
M  V30 7135 C 697.906 1.45196 3.15933 0
M  V30 7136 H 697.229 2.31253 3.26132 0
M  V30 7137 H 698.669 1.53638 3.95185 0
M  V30 7138 C 697.128 0.171043 3.36466 0
M  V30 7139 O 697.658 -0.763413 3.94379 0
M  V30 7140 N 695.864 0.077847 2.90496 0
M  V30 7141 H 695.411 0.8391 2.43551 0
M  V30 7142 H 695.369 -0.778473 3.0461 0
M  V30 7143 N 699.141 -0.881989 1.30609 0
M  V30 7144 C 700.388 -1.63405 1.19604 0
M  V30 7145 C 700.716 -1.92905 -0.248574 0
M  V30 7146 O 699.971 -1.55062 -1.19391 0
M  V30 7147 C 700.27 -2.97999 1.97311 0
M  V30 7148 C 699.936 -2.88039 3.46907 0
M  V30 7149 C 698.598 -2.85029 3.877 0
M  V30 7150 C 700.95 -2.75948 4.42156 0
M  V30 7151 C 698.278 -2.67772 5.2203 0
M  V30 7152 C 700.63 -2.60228 5.76597 0
M  V30 7153 C 699.294 -2.55595 6.16626 0
M  V30 7154 H 698.564 -0.597941 0.437662 0
M  V30 7155 H 701.211 -1.02524 1.61744 0
M  V30 7156 H 699.516 -3.62847 1.47815 0
M  V30 7157 H 701.213 -3.55156 1.86186 0
M  V30 7158 H 697.803 -2.91192 3.14492 0
M  V30 7159 H 701.987 -2.77337 4.1158 0
M  V30 7160 H 697.243 -2.62601 5.52133 0
M  V30 7161 H 701.417 -2.49847 6.50038 0
M  V30 7162 H 699.044 -2.41981 7.20659 0
M  V30 7163 N 700.619 -1.13374 -1.09472 0
M  V30 7164 C 701.582 -0.813639 -2.14272 0
M  V30 7165 C 702.582 0.176677 -1.59826 0
M  V30 7166 O 703.772 -0.0503441 -1.74127 0
M  V30 7167 C 700.904 -0.210897 -3.40247 0
M  V30 7168 H 702.097 -1.74229 -2.44099 0
M  V30 7169 H 699.65 -0.938304 -1.25002 0
M  V30 7170 H 700.385 0.726998 -3.16046 0
M  V30 7171 H 700.17 -0.924048 -3.81056 0
M  V30 7172 H 701.66 -0.00377603 -4.176 0
M  V30 7173 N 702.098 1.27442 -0.927168 0
M  V30 7174 C 703.031 2.25177 -0.370232 0
M  V30 7175 C 704.009 1.53612 0.533103 0
M  V30 7176 O 705.193 1.8245 0.47373 0
M  V30 7177 C 702.32 3.35431 0.469411 0
M  V30 7178 C 701.366 4.24888 -0.370419 0
M  V30 7179 S 702.199 5.04852 -1.78562 0
M  V30 7180 C 703.355 6.18592 -0.953651 0
M  V30 7181 H 703.588 2.72069 -1.19858 0
M  V30 7182 H 701.121 1.36089 -0.729316 0
M  V30 7183 H 703.079 3.99404 0.947992 0
M  V30 7184 H 701.74 2.87179 1.27228 0
M  V30 7185 H 700.933 5.03264 0.272226 0
M  V30 7186 H 700.535 3.65709 -0.783153 0
M  V30 7187 H 702.827 6.77235 -0.189408 0
M  V30 7188 H 703.77 6.87132 -1.7104 0
M  V30 7189 H 704.178 5.62318 -0.495897 0
M  V30 7190 N 703.576 0.692616 1.41565 0
M  V30 7191 C 704.486 0.0258451 2.34586 0
M  V30 7192 C 705.502 -0.769324 1.56069 0
M  V30 7193 O 706.678 -0.707563 1.88562 0
M  V30 7194 C 703.743 -0.901289 3.3478 0
M  V30 7195 C 702.804 -0.0986579 4.29187 0
M  V30 7196 C 702.037 -0.981634 5.24595 0
M  V30 7197 O 702.26 -2.22115 5.25377 0
M  V30 7198 O 701.194 -0.432892 6.00341 0
M  V30 7199 H 705.02 0.792537 2.93177 0
M  V30 7200 H 702.605 0.452935 1.42369 0
M  V30 7201 H 704.487 -1.43302 3.96286 0
M  V30 7202 H 703.162 -1.64752 2.78637 0
M  V30 7203 H 702.069 0.477604 3.71039 0
M  V30 7204 H 703.402 0.608848 4.8842 0
M  V30 7205 N 705.054 -1.51416 0.437162 0
M  V30 7206 C 706.303 -2.01275 -0.130865 0
M  V30 7207 C 706.616 -1.32593 -1.438 0
M  V30 7208 O 707.822 -1.7342 -2.08897 0
M  V30 7209 C 706.278 -3.5878 -0.283763 0
M  V30 7210 C 705.886 -4.36399 1.01293 0
M  V30 7211 C 707.63 -4.16786 -0.805569 0
M  V30 7212 C 705.537 -5.85608 0.825687 0
M  V30 7213 H 704.467 -0.752157 -0.0526818 0
M  V30 7214 H 707.118 -1.74524 0.566896 0
M  V30 7215 H 705.5 -3.81976 -1.04452 0
M  V30 7216 H 706.674 -4.24948 1.78201 0
M  V30 7217 H 704.989 -3.89843 1.46326 0
M  V30 7218 H 707.586 -5.25972 -0.962146 0
M  V30 7219 H 707.929 -3.75949 -1.78796 0
M  V30 7220 H 708.462 -3.97666 -0.103125 0
M  V30 7221 H 705.201 -6.30857 1.78045 0
M  V30 7222 H 704.721 -5.99723 0.0964029 0
M  V30 7223 H 706.4 -6.45226 0.478815 0
M  V30 7224 N 706.532 -0.168513 -1.56696 0
M  V30 7225 C 707.48 0.779791 -2.19139 0
M  V30 7226 C 708.474 1.23957 -1.1546 0
M  V30 7227 O 709.68 1.20555 -1.33666 0
M  V30 7228 H 706.055 0.269739 -0.701958 0
M  V30 7229 H 708.026 0.229156 -2.97519 0
M  V30 7230 C 706.775 2.00003 -2.84419 0
M  V30 7231 H 706.098 1.65527 -3.63924 0
M  V30 7232 H 707.538 2.64251 -3.31583 0
M  V30 7233 C 705.997 2.82187 -1.84044 0
M  V30 7234 O 706.527 3.79247 -1.32418 0
M  V30 7235 N 704.733 2.47145 -1.52864 0
M  V30 7236 H 704.28 1.68277 -1.9504 0
M  V30 7237 H 704.238 3.02422 -0.859569 0
M  V30 7238 N 708.01 1.57248 0.105221 0
M  V30 7239 C 708.94 2.04374 1.12931 0
M  V30 7240 C 709.921 0.93074 1.42377 0
M  V30 7241 O 711.106 1.20136 1.52581 0
M  V30 7242 C 708.236 2.45967 2.45189 0
M  V30 7243 C 707.19 3.60838 2.30174 0
M  V30 7244 C 706.516 3.88374 3.67518 0
M  V30 7245 C 707.816 4.92084 1.75073 0
M  V30 7246 H 709.51 2.9018 0.737287 0
M  V30 7247 H 707.056 1.39601 0.353211 0
M  V30 7248 H 709.009 2.77542 3.17094 0
M  V30 7249 H 707.733 1.57148 2.86308 0
M  V30 7250 H 706.392 3.29493 1.60716 0
M  V30 7251 H 706.04 2.96739 4.06147 0
M  V30 7252 H 705.74 4.65703 3.58321 0
M  V30 7253 H 707.264 4.22415 4.40906 0
M  V30 7254 H 708.678 5.22106 2.36809 0
M  V30 7255 H 707.075 5.73507 1.76662 0
M  V30 7256 H 708.145 4.79684 0.709347 0
M  V30 7257 N 709.488 -0.375779 1.53054 0
M  V30 7258 C 710.436 -1.48015 1.79428 0
M  V30 7259 C 711.43 -1.55893 0.662854 0
M  V30 7260 O 712.636 -1.58901 0.845599 0
M  V30 7261 H 709.011 -0.492887 0.56795 0
M  V30 7262 H 710.982 -1.22971 2.71884 0
M  V30 7263 C 709.731 -2.84984 1.99197 0
M  V30 7264 H 709.054 -2.79677 2.85693 0
M  V30 7265 H 710.494 -3.61462 2.21633 0
M  V30 7266 C 708.953 -3.28025 0.768183 0
M  V30 7267 O 709.483 -4.01671 -0.0480482 0
M  V30 7268 N 707.689 -2.84454 0.594521 0
M  V30 7269 H 707.236 -2.24688 1.25988 0
M  V30 7270 H 707.194 -3.13609 -0.222916 0
M  V30 7271 N 710.966 -1.44241 -0.634997 0
M  V30 7272 C 711.929 -1.50457 -1.72903 0
M  V30 7273 C 712.929 -0.387058 -1.56072 0
M  V30 7274 O 714.119 -0.649531 -1.61638 0
M  V30 7275 C 711.251 -1.37477 -3.1195 0
M  V30 7276 H 712.444 -2.47907 -1.68767 0
M  V30 7277 H 709.997 -1.31276 -0.84831 0
M  V30 7278 H 710.732 -0.41106 -3.21684 0
M  V30 7279 H 710.517 -2.18506 -3.25573 0
M  V30 7280 H 712.007 -1.44799 -3.91692 0
M  V30 7281 N 712.444 0.87505 -1.31075 0
M  V30 7282 C 713.392 2.00317 -1.18219 0
M  V30 7283 C 714.386 1.69152 -0.0916872 0
M  V30 7284 O 715.592 1.7821 -0.253229 0
M  V30 7285 H 711.967 0.656981 -0.365895 0
M  V30 7286 H 713.938 2.08293 -2.13674 0
M  V30 7287 C 712.687 3.35821 -0.901095 0
M  V30 7288 H 712.01 3.6032 -1.73233 0
M  V30 7289 H 713.45 4.15366 -0.851295 0
M  V30 7290 C 711.909 3.34563 0.396114 0
M  V30 7291 O 712.439 3.75971 1.41452 0
M  V30 7292 N 710.645 2.87681 0.410832 0
M  V30 7293 H 710.192 2.54179 -0.418415 0
M  V30 7294 H 710.15 2.87223 1.27869 0
M  V30 7295 N 713.922 1.13953 1.08869 0
M  V30 7296 C 714.852 0.844824 2.17681 0
M  V30 7297 C 715.833 -0.198213 1.68941 0
M  V30 7298 O 717.018 -0.0559073 1.9412 0
M  V30 7299 C 714.148 0.316325 3.45856 0
M  V30 7300 C 713.102 1.29426 4.07962 0
M  V30 7301 C 712.428 0.625275 5.31031 0
M  V30 7302 C 713.728 2.65484 4.49795 0
M  V30 7303 H 715.422 1.75471 2.42591 0
M  V30 7304 H 712.968 0.845116 1.16592 0
M  V30 7305 H 714.921 0.0977876 4.21287 0
M  V30 7306 H 713.645 -0.628972 3.20486 0
M  V30 7307 H 712.304 1.49889 3.34558 0
M  V30 7308 H 711.952 -0.325678 5.01945 0
M  V30 7309 H 711.652 1.27777 5.73539 0
M  V30 7310 H 713.176 0.416152 6.0918 0
M  V30 7311 H 714.59 2.48957 5.16424 0
M  V30 7312 H 712.987 3.26963 5.03205 0
M  V30 7313 H 714.057 3.22717 3.61914 0
M  V30 7314 N 715.4 -1.26948 0.933913 0
M  V30 7315 C 716.646 -1.94716 0.587985 0
M  V30 7316 C 717.001 -1.71994 -0.862312 0
M  V30 7317 O 716.294 -1.04208 -1.60783 0
M  V30 7318 C 716.488 -3.46963 0.857406 0
M  V30 7319 C 716.317 -3.84489 2.33234 0
M  V30 7320 C 715.087 -4.07621 2.98618 0
M  V30 7321 C 717.285 -3.93602 3.31031 0
M  V30 7322 N 715.267 -4.31976 4.362 0
M  V30 7323 C 716.638 -4.22404 4.53845 0
M  V30 7324 C 718.693 -3.76201 3.26155 0
M  V30 7325 C 717.396 -4.35615 5.72391 0
M  V30 7326 C 719.422 -3.90641 4.4402 0
M  V30 7327 C 718.784 -4.19835 5.65613 0
M  V30 7328 H 714.883 -0.735586 0.2654 0
M  V30 7329 H 717.467 -1.53181 1.20182 0
M  V30 7330 H 715.638 -3.87442 0.27268 0
M  V30 7331 H 717.37 -4.01921 0.47348 0
M  V30 7332 H 714.125 -4.02696 2.49264 0
M  V30 7333 H 714.549 -4.48199 5.07392 0
M  V30 7334 H 719.191 -3.52665 2.3321 0
M  V30 7335 H 716.909 -4.57975 6.65796 0
M  V30 7336 H 720.495 -3.78589 4.41771 0
M  V30 7337 H 719.375 -4.30765 6.55295 0
M  V30 7338 N 716.879 -0.700114 -1.41195 0
M  V30 7339 C 718.295 -0.372114 -1.55201 0
M  V30 7340 C 718.495 1.12053 -1.6747 0
M  V30 7341 O 717.551 1.90642 -1.65566 0
M  V30 7342 C 718.864 -1.12462 -2.78878 0
M  V30 7343 C 720.412 -1.10941 -2.92679 0
M  V30 7344 C 720.887 -1.84376 -4.19249 0
M  V30 7345 N 722.378 -1.81368 -4.26216 0
M  V30 7346 C 723.113 -2.35024 -5.23021 0
M  V30 7347 N 722.609 -2.9717 -6.25829 0
M  V30 7348 N 724.402 -2.25254 -5.14992 0
M  V30 7349 H 716.553 -1.66816 -1.31477 0
M  V30 7350 H 718.816 -0.704223 -0.634644 0
M  V30 7351 H 718.522 -2.17937 -2.76037 0
M  V30 7352 H 718.396 -0.706152 -3.70531 0
M  V30 7353 H 720.783 -0.062911 -2.95033 0
M  V30 7354 H 720.864 -1.56698 -2.02187 0
M  V30 7355 H 720.508 -2.89008 -4.17656 0
M  V30 7356 H 720.438 -1.3605 -5.08722 0
M  V30 7357 H 722.929 -1.36062 -3.52556 0
M  V30 7358 H 723.242 -3.35668 -6.96094 0
M  V30 7359 H 721.587 -3.01249 -6.26318 0
M  V30 7360 H 724.778 -1.76372 -4.33602 0
M  V30 7361 H 724.951 -2.67373 -5.90268 0
M  V30 7362 N 718.357 1.51182 -0.445186 0
M  V30 7363 C 719.305 2.29531 0.376597 0
M  V30 7364 C 720.299 1.35711 1.01385 0
M  V30 7365 O 721.505 1.53018 0.947922 0
M  V30 7366 H 717.88 0.738803 0.140267 0
M  V30 7367 H 719.851 2.96838 -0.304958 0
M  V30 7368 C 718.6 3.1552 1.4609 0
M  V30 7369 H 717.923 3.87605 0.979912 0
M  V30 7370 H 719.363 3.73384 2.009 0
M  V30 7371 C 717.822 2.31406 2.44852 0
M  V30 7372 O 718.352 1.97912 3.49562 0
M  V30 7373 N 716.558 1.94478 2.15932 0
M  V30 7374 H 716.105 2.21917 1.30808 0
M  V30 7375 H 716.063 1.38498 2.82251 0
M  V30 7376 N 719.835 0.176821 1.56605 0
M  V30 7377 C 721.082 -0.466715 1.97048 0
M  V30 7378 C 721.41 -1.6288 1.06302 0
M  V30 7379 O 720.665 -1.95453 0.0982571 0
M  V30 7380 C 720.964 -0.986208 3.43524 0
M  V30 7381 C 720.63 0.0605667 4.50859 0
M  V30 7382 C 719.292 0.348242 4.79938 0
M  V30 7383 C 721.644 0.770794 5.15469 0
M  V30 7384 C 718.972 1.35144 5.70923 0
M  V30 7385 C 721.324 1.76301 6.07537 0
M  V30 7386 C 719.988 2.05808 6.3498 0
M  V30 7387 H 719.258 -0.170783 0.721051 0
M  V30 7388 H 721.905 0.269942 1.89588 0
M  V30 7389 H 720.21 -1.80079 3.47964 0
M  V30 7390 H 721.907 -1.49323 3.72161 0
M  V30 7391 H 718.497 -0.173823 4.28247 0
M  V30 7392 H 722.681 0.56176 4.9311 0
M  V30 7393 H 717.937 1.58616 5.90467 0
M  V30 7394 H 722.111 2.31868 6.56666 0
M  V30 7395 H 719.738 2.8369 7.05283 0
M  V30 7396 N 721.313 -1.57302 -0.09688 0
M  V30 7397 C 722.243 -2.0497 -1.11846 0
M  V30 7398 C 723.224 -0.938278 -1.41882 0
M  V30 7399 O 724.409 -1.20943 -1.51942 0
M  V30 7400 C 721.539 -2.47264 -2.43881 0
M  V30 7401 C 720.493 -3.62053 -2.28257 0
M  V30 7402 C 719.819 -3.90318 -3.65453 0
M  V30 7403 C 721.119 -4.93005 -1.72461 0
M  V30 7404 H 722.813 -2.90567 -0.721888 0
M  V30 7405 H 720.359 -1.39786 -0.345803 0
M  V30 7406 H 722.312 -2.7922 -3.15617 0
M  V30 7407 H 721.036 -1.58664 -2.8547 0
M  V30 7408 H 719.695 -3.30341 -1.58967 0
M  V30 7409 H 719.343 -2.98889 -4.04567 0
M  V30 7410 H 719.043 -4.67597 -3.55846 0
M  V30 7411 H 720.567 -4.24747 -4.3866 0
M  V30 7412 H 721.981 -5.23354 -2.34036 0
M  V30 7413 H 720.378 -5.74436 -1.73618 0
M  V30 7414 H 721.448 -4.80053 -0.683898 0
M  V30 7415 N 722.791 0.367657 -1.53252 0
M  V30 7416 C 724.021 1.12955 -1.72988 0
M  V30 7417 C 724.429 1.8358 -0.457708 0
M  V30 7418 O 723.772 1.74336 0.579006 0
M  V30 7419 C 723.834 2.20545 -2.83902 0
M  V30 7420 C 723.498 1.69704 -4.24323 0
M  V30 7421 C 724.495 1.16223 -5.06743 0
M  V30 7422 C 722.18 1.7528 -4.70725 0
M  V30 7423 C 724.174 0.689935 -6.33655 0
M  V30 7424 C 721.861 1.27662 -5.97617 0
M  V30 7425 C 722.859 0.746083 -6.78913 0
M  V30 7426 O 722.547 0.276925 -8.03423 0
M  V30 7427 H 722.279 0.343753 -0.582074 0
M  V30 7428 H 724.833 0.433106 -2.00782 0
M  V30 7429 H 723.063 2.93676 -2.51577 0
M  V30 7430 H 724.752 2.82111 -2.91836 0
M  V30 7431 H 725.518 1.11256 -4.72067 0
M  V30 7432 H 721.397 2.15515 -4.07522 0
M  V30 7433 H 724.941 0.275164 -6.97057 0
M  V30 7434 H 720.838 1.32322 -6.31792 0
M  V30 7435 H 721.606 0.396445 -8.17539 0
M  V30 7436 N 724.269 1.44576 0.627338 0
M  V30 7437 C 725.494 1.51271 1.41887 0
M  V30 7438 C 725.919 0.139814 1.8758 0
M  V30 7439 O 725.277 -0.871746 1.58966 0
M  V30 7440 C 725.325 2.48529 2.61277 0
M  V30 7441 O 724.429 1.98944 3.61241 0
M  V30 7442 H 723.77 0.510668 0.424399 0
M  V30 7443 H 726.3 1.89746 0.765356 0
M  V30 7444 H 726.31 2.66689 3.08773 0
M  V30 7445 H 724.985 3.48249 2.27366 0
M  V30 7446 H 723.562 1.90568 3.20528 0
M  V30 7447 N 725.747 -0.868086 1.31537 0
M  V30 7448 C 726.695 -1.99688 1.1928 0
M  V30 7449 C 727.689 -1.69101 0.100656 0
M  V30 7450 O 728.895 -1.78073 0.262677 0
M  V30 7451 H 725.27 -0.655032 0.369374 0
M  V30 7452 H 727.241 -2.07157 2.14776 0
M  V30 7453 C 725.99 -3.35338 0.918892 0
M  V30 7454 H 725.313 -3.59396 1.75142 0
M  V30 7455 H 726.753 -4.14909 0.873311 0
M  V30 7456 C 725.212 -3.34769 -0.378366 0
M  V30 7457 O 725.742 -3.76716 -1.39456 0
M  V30 7458 N 723.948 -2.87895 -0.39557 0
M  V30 7459 H 723.495 -2.53954 0.431889 0
M  V30 7460 H 723.453 -2.87897 -1.26344 0
M  V30 7461 N 727.225 -1.14528 -1.08264 0
M  V30 7462 C 728.474 -0.908992 -1.80056 0
M  V30 7463 C 728.787 0.565859 -1.87236 0
M  V30 7464 O 729.993 0.919454 -2.55457 0
M  V30 7465 C 728.449 -1.57681 -3.23519 0
M  V30 7466 C 728.057 -3.08803 -3.24569 0
M  V30 7467 C 729.801 -1.4217 -3.99985 0
M  V30 7468 C 727.708 -3.68414 -4.62629 0
M  V30 7469 H 726.638 -0.336432 -0.674781 0
M  V30 7470 H 729.289 -1.37437 -1.21587 0
M  V30 7471 H 727.671 -1.03911 -3.82124 0
M  V30 7472 H 728.845 -3.69252 -2.75663 0
M  V30 7473 H 727.16 -3.23968 -2.61598 0
M  V30 7474 H 729.757 -1.84106 -5.02005 0
M  V30 7475 H 730.1 -0.367989 -4.1467 0
M  V30 7476 H 730.633 -1.92984 -3.47853 0
M  V30 7477 H 727.372 -4.73644 -4.53147 0
M  V30 7478 H 726.892 -3.12746 -5.11811 0
M  V30 7479 H 728.571 -3.68793 -5.31602 0
M  V30 7480 N 728.703 1.26451 -0.940633 0
M  V30 7481 C 729.666 2.24651 -0.454378 0
M  V30 7482 C 730.666 1.54826 0.434222 0
M  V30 7483 O 731.856 1.72628 0.233477 0
M  V30 7484 C 728.988 3.39148 0.345192 0
M  V30 7485 H 730.181 2.69182 -1.32217 0
M  V30 7486 H 727.734 1.38596 -0.722547 0
M  V30 7487 H 728.469 3.00018 1.23125 0
M  V30 7488 H 728.254 3.9101 -0.292107 0
M  V30 7489 H 729.744 4.12103 0.675341 0
M  V30 7490 N 730.181 0.707592 1.40822 0
M  V30 7491 C 731.111 0.0644925 2.33411 0
M  V30 7492 C 732.092 -0.754205 1.52466 0
M  V30 7493 O 733.277 -0.704749 1.80961 0
M  V30 7494 C 730.407 -0.863865 3.36385 0
M  V30 7495 C 729.361 -0.15138 4.27732 0
M  V30 7496 C 728.687 -1.19491 5.21177 0
M  V30 7497 C 729.987 0.989607 5.12839 0
M  V30 7498 H 731.681 0.837829 2.87438 0
M  V30 7499 H 729.227 0.404346 1.38207 0
M  V30 7500 H 731.18 -1.32309 4.0009 0
M  V30 7501 H 729.904 -1.66901 2.80734 0
M  V30 7502 H 728.563 0.287937 3.65467 0
M  V30 7503 H 728.211 -1.9929 4.61836 0
M  V30 7504 H 727.911 -0.723123 5.83134 0
M  V30 7505 H 729.435 -1.6544 5.8776 0
M  V30 7506 H 730.849 0.610114 5.70044 0
M  V30 7507 H 729.246 1.38926 5.83798 0
M  V30 7508 H 730.316 1.82389 4.49291 0
M  V30 7509 N 731.66 -1.50943 0.453197 0
M  V30 7510 C 732.89 -2.06328 -0.105981 0
M  V30 7511 C 733.298 -1.31909 -1.35634 0
M  V30 7512 O 732.641 -0.376607 -1.79798 0
M  V30 7513 C 732.703 -3.5631 -0.477868 0
M  V30 7514 C 732.367 -4.52093 0.667925 0
M  V30 7515 C 733.364 -4.96421 1.54475 0
M  V30 7516 C 731.049 -4.95001 0.853168 0
M  V30 7517 C 733.043 -5.82346 2.59138 0
M  V30 7518 C 730.73 -5.80713 1.90305 0
M  V30 7519 C 731.728 -6.24284 2.77053 0
M  V30 7520 O 731.416 -7.08291 3.80236 0
M  V30 7521 H 731.148 -0.675986 -0.00427247 0
M  V30 7522 H 733.702 -1.95314 0.635738 0
M  V30 7523 H 731.932 -3.65163 -1.27252 0
M  V30 7524 H 733.621 -3.94138 -0.970039 0
M  V30 7525 H 734.387 -4.63953 1.41324 0
M  V30 7526 H 730.266 -4.60619 0.187482 0
M  V30 7527 H 733.81 -6.16276 3.2688 0
M  V30 7528 H 729.707 -6.12593 2.03469 0
M  V30 7529 H 730.475 -7.26504 3.77007 0
M  V30 7530 N 733.138 -0.185124 -1.56509 0
M  V30 7531 C 734.068 0.735098 -2.21627 0
M  V30 7532 C 735.049 1.2288 -1.1762 0
M  V30 7533 O 736.234 1.27945 -1.46095 0
M  V30 7534 C 733.364 1.95889 -2.86783 0
M  V30 7535 C 732.318 1.6005 -3.96948 0
M  V30 7536 C 731.644 2.90009 -4.4922 0
M  V30 7537 C 732.944 0.818008 -5.15855 0
M  V30 7538 H 734.638 0.192274 -2.98782 0
M  V30 7539 H 732.184 0.0910393 -1.43712 0
M  V30 7540 H 734.137 2.60779 -3.31017 0
M  V30 7541 H 732.861 2.52608 -2.07018 0
M  V30 7542 H 731.52 0.975237 -3.5339 0
M  V30 7543 H 731.168 3.44797 -3.6623 0
M  V30 7544 H 730.868 2.66778 -5.23549 0
M  V30 7545 H 732.392 3.55904 -4.9615 0
M  V30 7546 H 733.806 1.36979 -5.56695 0
M  V30 7547 H 732.203 0.684207 -5.96187 0
M  V30 7548 H 733.273 -0.182939 -4.84555 0
M  V30 7549 N 734.616 1.57351 0.0885366 0
M  V30 7550 C 736.027 1.75303 0.642308 0
M  V30 7551 C 736.378 0.808238 1.78779 0
M  V30 7552 O 735.503 -0.01171 2.16397 0
M  V30 7553 C 736.098 3.17885 1.17194 0
M  V30 7554 C 734.657 3.37239 1.67172 0
M  V30 7555 C 733.804 2.7108 0.584045 0
M  V30 7556 H 736.755 1.58103 -0.137567 0
M  V30 7557 H 736.776 3.2112 2.04114 0
M  V30 7558 H 736.288 3.86625 0.338024 0
M  V30 7559 H 734.389 2.73588 2.52943 0
M  V30 7560 H 734.502 4.45594 1.76019 0
M  V30 7561 H 732.866 2.33161 1.02508 0
M  V30 7562 H 733.649 3.42464 -0.239403 0
M  V30 7563 N 736.094 -0.359525 1.53444 0
M  V30 7564 C 737.371 -1.11756 1.6053 0
M  V30 7565 C 737.751 -2.06949 0.416587 0
M  V30 7566 O 737.099 -2.20681 -0.592628 0
M  V30 7567 C 737.309 -1.85133 2.95849 0
M  V30 7568 C 738.657 -2.3945 3.50641 0
M  V30 7569 O 739.681 -1.95251 2.97918 0
M  V30 7570 O 738.54 -3.20266 4.42823 0
M  V30 7571 H 735.634 -0.513005 0.648656 0
M  V30 7572 H 738.18 -0.362301 1.65787 0
M  V30 7573 H 736.952 -1.15694 3.73806 0
M  V30 7574 H 736.575 -2.67554 2.9411 0
M  V30 7575 N 737.572 -1.44907 -0.619662 0
M  V30 7576 C 738.519 -1.52654 -1.73105 0
M  V30 7577 C 739.489 -0.373334 -1.6185 0
M  V30 7578 O 740.674 -0.585143 -1.81606 0
M  V30 7579 C 737.814 -1.48769 -3.11387 0
M  V30 7580 C 736.927 -2.74551 -3.33535 0
M  V30 7581 C 736.062 -2.62421 -4.61854 0
M  V30 7582 C 735.101 -3.83312 -4.77219 0
M  V30 7583 N 734.238 -3.69789 -5.96826 0
M  V30 7584 H 739.078 -2.47605 -1.65819 0
M  V30 7585 H 736.615 -1.22875 -0.808719 0
M  V30 7586 H 738.573 -1.44507 -3.91374 0
M  V30 7587 H 737.203 -0.573783 -3.1766 0
M  V30 7588 H 736.255 -2.88953 -2.47408 0
M  V30 7589 H 737.567 -3.64253 -3.40765 0
M  V30 7590 H 736.721 -2.56056 -5.50019 0
M  V30 7591 H 735.46 -1.70298 -4.57001 0
M  V30 7592 H 734.465 -3.90049 -3.87481 0
M  V30 7593 H 735.69 -4.76486 -4.83878 0
M  V30 7594 H 733.636 -2.80426 -5.93041 0
M  V30 7595 H 733.553 -4.53116 -6.05163 0
M  V30 7596 H 734.821 -3.67335 -6.87521 0
M  V30 7597 N 739.05 0.861098 -1.31996 0
M  V30 7598 C 739.98 1.98482 -1.22993 0
M  V30 7599 C 740.961 1.6971 -0.115168 0
M  V30 7600 O 742.146 1.91849 -0.30126 0
M  V30 7601 C 739.276 3.34179 -0.945615 0
M  V30 7602 C 738.23 3.77284 -2.02091 0
M  V30 7603 C 737.556 5.1054 -1.58912 0
M  V30 7604 C 738.856 3.93439 -3.43515 0
M  V30 7605 H 740.55 2.06271 -2.17008 0
M  V30 7606 H 738.096 0.991043 -1.04472 0
M  V30 7607 H 740.049 4.12338 -0.869206 0
M  V30 7608 H 738.773 3.26586 0.0301849 0
M  V30 7609 H 737.432 3.01371 -2.08737 0
M  V30 7610 H 737.08 4.99397 -0.600942 0
M  V30 7611 H 736.78 5.40352 -2.30854 0
M  V30 7612 H 738.304 5.91199 -1.52696 0
M  V30 7613 H 739.718 4.6197 -3.39495 0
M  V30 7614 H 738.115 4.34661 -4.13751 0
M  V30 7615 H 739.185 2.96548 -3.8365 0
M  V30 7616 N 740.528 1.15101 1.07655 0
M  V30 7617 C 741.475 0.844958 2.14777 0
M  V30 7618 C 742.445 -0.200798 1.64882 0
M  V30 7619 O 743.63 -0.0690278 1.90675 0
M  V30 7620 C 740.77 0.337018 3.4345 0
M  V30 7621 C 739.883 1.44398 4.07153 0
M  V30 7622 C 739.018 0.892487 5.23649 0
M  V30 7623 C 738.057 1.9766 5.79307 0
M  V30 7624 N 737.194 1.44171 6.87138 0
M  V30 7625 H 742.034 1.76242 2.40297 0
M  V30 7626 H 739.571 0.879435 1.17917 0
M  V30 7627 H 741.529 0.024256 4.17193 0
M  V30 7628 H 740.159 -0.543531 3.18191 0
M  V30 7629 H 739.211 1.87299 3.31094 0
M  V30 7630 H 740.523 2.26262 4.4453 0
M  V30 7631 H 739.677 0.532083 6.04362 0
M  V30 7632 H 738.416 0.0429854 4.87681 0
M  V30 7633 H 737.421 2.34586 4.97242 0
M  V30 7634 H 738.646 2.82982 6.17331 0
M  V30 7635 H 736.592 0.614518 6.53115 0
M  V30 7636 H 736.509 2.19665 7.23383 0
M  V30 7637 H 737.777 1.10945 7.71564 0
M  V30 7638 N 742.006 -1.2595 0.947325 0
M  V30 7639 C 743.236 -1.97258 0.614235 0
M  V30 7640 C 743.644 -1.70682 -0.816355 0
M  V30 7641 O 742.987 -0.97527 -1.55673 0
M  V30 7642 C 743.049 -3.50845 0.784081 0
M  V30 7643 C 742.713 -4.01084 2.19045 0
M  V30 7644 C 743.71 -4.12347 3.16648 0
M  V30 7645 C 741.395 -4.34936 2.51268 0
M  V30 7646 C 743.389 -4.56766 4.44572 0
M  V30 7647 C 741.076 -4.79043 3.79422 0
M  V30 7648 C 742.074 -4.89919 4.75887 0
M  V30 7649 O 741.762 -5.3305 6.01758 0
M  V30 7650 H 741.494 -0.635738 0.22981 0
M  V30 7651 H 744.048 -1.61268 1.27207 0
M  V30 7652 H 742.278 -3.86638 0.069101 0
M  V30 7653 H 743.967 -4.03363 0.453135 0
M  V30 7654 H 744.733 -3.86432 2.93079 0
M  V30 7655 H 740.612 -4.25702 1.76916 0
M  V30 7656 H 744.156 -4.6517 5.19868 0
M  V30 7657 H 740.053 -5.04402 4.02802 0
M  V30 7658 H 740.821 -5.51255 6.05029 0
M  V30 7659 N 743.484 -0.715051 -1.40445 0
M  V30 7660 C 744.432 -0.0509974 -2.32544 0
M  V30 7661 C 745.426 0.747602 -1.52011 0
M  V30 7662 O 746.632 0.651031 -1.67814 0
M  V30 7663 H 743.007 0.00231113 -0.751996 0
M  V30 7664 H 744.978 -0.84449 -2.86201 0
M  V30 7665 C 743.727 0.857101 -3.3697 0
M  V30 7666 H 743.05 0.252 -3.99005 0
M  V30 7667 H 744.49 1.28971 -4.03909 0
M  V30 7668 C 742.949 1.98231 -2.72408 0
M  V30 7669 O 743.479 3.07309 -2.58697 0
M  V30 7670 N 741.685 1.76577 -2.308 0
M  V30 7671 H 741.232 0.878641 -2.42152 0
M  V30 7672 H 741.19 2.52043 -1.87941 0
M  V30 7673 N 744.962 1.50701 -0.461195 0
M  V30 7674 C 746.373 1.867 -0.00370227 0
M  V30 7675 C 746.724 1.37673 1.39787 0
M  V30 7676 O 745.849 0.737515 2.03445 0
M  V30 7677 C 746.444 3.388 5.75786e-05 0
M  V30 7678 C 745.003 3.74247 0.402044 0
M  V30 7679 C 744.15 2.74549 -0.389652 0
M  V30 7680 H 747.101 1.43585 -0.675942 0
M  V30 7681 H 747.122 3.719 0.804414 0
M  V30 7682 H 746.634 3.74452 -1.02015 0
M  V30 7683 H 744.735 3.44192 1.42697 0
M  V30 7684 H 744.848 4.78973 0.110265 0
M  V30 7685 H 743.212 2.54226 0.155314 0
M  V30 7686 H 743.995 3.13044 -1.40919 0
M  V30 7687 N 746.441 0.193421 1.56409 0
M  V30 7688 C 747.669 -0.451438 2.01915 0
M  V30 7689 C 748.084 -1.55306 1.07357 0
M  V30 7690 O 747.441 -1.82333 0.0781512 0
M  V30 7691 C 747.492 -1.00931 3.47124 0
M  V30 7692 O 747.213 0.0483623 4.38073 0
M  V30 7693 C 748.714 -1.73021 4.0814 0
M  V30 7694 H 745.934 -0.113495 0.661332 0
M  V30 7695 H 748.478 0.301636 2.02263 0
M  V30 7696 H 746.633 -1.71277 3.47481 0
M  V30 7697 H 747.047 -0.366644 5.23217 0
M  V30 7698 H 748.521 -2.07289 5.11601 0
M  V30 7699 H 748.998 -2.6333 3.51502 0
M  V30 7700 H 749.604 -1.07264 4.11551 0
M  V30 7701 N 747.919 -1.57396 -0.0801906 0
M  V30 7702 C 748.867 -2.04136 -1.11495 0
M  V30 7703 C 749.861 -0.945137 -1.40583 0
M  V30 7704 O 751.067 -1.13028 -1.40088 0
M  V30 7705 H 747.442 -0.65076 -0.37685 0
M  V30 7706 H 749.413 -2.90205 -0.694526 0
M  V30 7707 C 748.162 -2.49399 -2.42272 0
M  V30 7708 H 747.485 -3.33339 -2.20737 0
M  V30 7709 H 748.925 -2.85864 -3.13142 0
M  V30 7710 C 747.384 -1.37341 -3.07635 0
M  V30 7711 O 747.914 -0.710829 -3.95361 0
M  V30 7712 N 746.12 -1.12064 -2.68123 0
M  V30 7713 H 745.667 -1.66126 -1.96875 0
M  V30 7714 H 745.625 -0.372916 -3.12181 0
M  V30 7715 N 749.397 0.351382 -1.53633 0
M  V30 7716 C 750.643 1.09411 -1.70754 0
M  V30 7717 C 750.976 1.88544 -0.465293 0
M  V30 7718 O 750.251 1.86923 0.537608 0
M  V30 7719 C 750.534 2.04173 -2.96623 0
M  V30 7720 C 750.387 1.28556 -4.31038 0
M  V30 7721 C 751.706 3.04102 -3.18136 0
M  V30 7722 H 748.825 0.396373 -0.621335 0
M  V30 7723 H 751.467 0.373464 -1.86293 0
M  V30 7724 H 749.617 2.65625 -2.83506 0
M  V30 7725 H 751.289 0.697786 -4.55992 0
M  V30 7726 H 749.532 0.587498 -4.29803 0
M  V30 7727 H 750.203 1.97989 -5.15271 0
M  V30 7728 H 752.679 2.5276 -3.30532 0
M  V30 7729 H 751.555 3.67616 -4.07615 0
M  V30 7730 H 751.816 3.75053 -2.34068 0
M  V30 7731 N 750.875 1.45233 0.611969 0
M  V30 7732 C 751.785 1.56098 1.7513 0
M  V30 7733 C 752.801 0.445646 1.68196 0
M  V30 7734 O 753.977 0.705718 1.88631 0
M  V30 7735 C 751.042 1.52052 3.11579 0
M  V30 7736 C 750.103 2.74589 3.29999 0
M  V30 7737 C 749.336 2.70726 4.59938 0
M  V30 7738 O 749.559 1.77806 5.41979 0
M  V30 7739 O 748.493 3.61864 4.80976 0
M  V30 7740 H 752.319 2.52392 1.68914 0
M  V30 7741 H 749.904 1.27695 0.775528 0
M  V30 7742 H 751.786 1.52387 3.92882 0
M  V30 7743 H 750.461 0.589085 3.18295 0
M  V30 7744 H 749.368 2.79817 2.48301 0
M  V30 7745 H 750.701 3.66843 3.28157 0
M  V30 7746 N 752.353 -0.854086 1.3245 0
M  V30 7747 C 753.602 -1.60318 1.22397 0
M  V30 7748 C 753.915 -1.9444 -0.212664 0
M  V30 7749 O 755.121 -2.67991 -0.435066 0
M  V30 7750 C 753.577 -2.8909 2.1437 0
M  V30 7751 C 753.185 -2.62391 3.63119 0
M  V30 7752 C 754.929 -3.67104 2.13155 0
M  V30 7753 C 752.836 -3.87167 4.47052 0
M  V30 7754 H 751.766 -0.601586 0.454544 0
M  V30 7755 H 754.417 -0.943023 1.57415 0
M  V30 7756 H 752.799 -3.56567 1.72268 0
M  V30 7757 H 753.973 -2.03222 4.13567 0
M  V30 7758 H 752.288 -1.97706 3.66471 0
M  V30 7759 H 754.885 -4.59696 2.731 0
M  V30 7760 H 755.228 -4.00876 1.12268 0
M  V30 7761 H 755.761 -3.06533 2.5354 0
M  V30 7762 H 752.5 -3.58536 5.48755 0
M  V30 7763 H 752.02 -4.45729 4.01355 0
M  V30 7764 H 753.699 -4.549 4.60081 0
M  V30 7765 N 753.831 -1.1567 -1.07043 0
M  V30 7766 C 755.056 -0.957946 -1.83952 0
M  V30 7767 C 755.481 0.488807 -1.81638 0
M  V30 7768 O 754.839 1.34869 -1.21162 0
M  V30 7769 C 754.887 -1.48064 -3.288 0
M  V30 7770 O 753.991 -0.681921 -4.06723 0
M  V30 7771 H 753.332 -0.341453 -0.569479 0
M  V30 7772 H 755.862 -1.53728 -1.35015 0
M  V30 7773 H 755.872 -1.49484 -3.7963 0
M  V30 7774 H 754.547 -2.53388 -3.29799 0
M  V30 7775 H 753.124 -0.737612 -3.65532 0
M  V30 7776 N 755.309 1.25446 -0.953992 0
M  V30 7777 C 756.586 1.884 -0.525823 0
M  V30 7778 C 756.966 1.86079 0.996891 0
M  V30 7779 O 756.314 1.32389 1.8624 0
M  V30 7780 C 756.524 3.31154 -1.10172 0
M  V30 7781 C 757.872 4.07926 -1.17819 0
M  V30 7782 O 758.896 3.40273 -1.05323 0
M  V30 7783 O 757.755 5.28942 -1.37415 0
M  V30 7784 H 754.849 0.808629 -0.173345 0
M  V30 7785 H 757.395 1.33522 -1.04738 0
M  V30 7786 H 756.167 3.27271 -2.14499 0
M  V30 7787 H 755.79 3.93588 -0.56338 0
M  V30 7788 N 756.787 0.722489 1.40064 0
M  V30 7789 C 757.735 0.063329 2.32514 0
M  V30 7790 C 758.729 -0.73953 1.52405 0
M  V30 7791 O 759.935 -0.642122 1.68157 0
M  V30 7792 H 756.31 0.00167692 0.751998 0
M  V30 7793 H 758.281 0.859656 2.85749 0
M  V30 7794 C 757.03 -0.839219 3.3742 0
M  V30 7795 H 756.353 -0.230836 3.99133 0
M  V30 7796 H 757.793 -1.26827 4.04587 0
M  V30 7797 C 756.252 -1.96783 2.73456 0
M  V30 7798 O 756.782 -3.05933 2.60323 0
M  V30 7799 N 754.988 -1.75351 2.31734 0
M  V30 7800 H 754.535 -0.865787 2.42615 0
M  V30 7801 H 754.493 -2.51043 1.89275 0
M  V30 7802 N 758.265 -1.50454 0.469181 0
M  V30 7803 C 759.676 -1.86695 0.0136034 0
M  V30 7804 C 760.027 -1.38413 -1.39055 0
M  V30 7805 O 759.152 -0.748294 -2.03051 0
M  V30 7806 C 759.747 -3.38795 0.0179098 0
M  V30 7807 C 758.306 -3.74455 -0.382191 0
M  V30 7808 C 757.453 -2.74338 0.404207 0
M  V30 7809 H 760.404 -1.43225 0.683547 0
M  V30 7810 H 760.425 -3.72321 -0.78468 0
M  V30 7811 H 759.937 -3.73906 1.04 0
M  V30 7812 H 758.038 -3.44944 -1.4087 0
M  V30 7813 H 758.151 -4.79025 -0.084862 0
M  V30 7814 H 756.515 -2.54305 -0.141829 0
M  V30 7815 H 757.298 -3.12293 1.42577 0
M  V30 7816 N 759.743 -0.201713 -1.56304 0
M  V30 7817 C 760.691 0.733133 -2.20744 0
M  V30 7818 C 761.685 1.2148 -1.18064 0
M  V30 7819 O 762.891 1.17692 -1.36193 0
M  V30 7820 H 759.266 0.254789 -0.707521 0
M  V30 7821 H 761.237 0.165996 -2.97938 0
M  V30 7822 C 759.986 1.93925 -2.88597 0
M  V30 7823 H 759.309 1.5777 -3.67353 0
M  V30 7824 H 760.749 2.57158 -3.37114 0
M  V30 7825 C 759.208 2.78219 -1.89989 0
M  V30 7826 O 759.738 3.76353 -1.40432 0
M  V30 7827 N 757.944 2.43847 -1.58072 0
M  V30 7828 H 757.491 1.64103 -1.98565 0
M  V30 7829 H 757.449 3.0053 -0.923524 0
M  V30 7830 N 761.222 1.57436 0.0718424 0
M  V30 7831 C 762.45 1.91474 0.783932 0
M  V30 7832 C 762.865 0.797669 1.71122 0
M  V30 7833 O 762.222 -0.228989 1.81058 0
M  V30 7834 C 762.273 3.25259 1.57761 0
M  V30 7835 O 761.994 4.3267 0.687596 0
M  V30 7836 C 763.495 3.7331 2.3907 0
M  V30 7837 H 760.715 0.632901 0.222885 0
M  V30 7838 H 763.259 2.04457 0.0421262 0
M  V30 7839 H 761.414 3.13804 2.27169 0
M  V30 7840 H 761.828 5.09641 1.23962 0
M  V30 7841 H 763.302 4.69551 2.90216 0
M  V30 7842 H 763.779 3.02318 3.18591 0
M  V30 7843 H 764.385 3.8771 1.74818 0
M  V30 7844 N 762.7 -0.34323 1.53817 0
M  V30 7845 C 763.93 -1.10188 1.74763 0
M  V30 7846 C 764.338 -1.82829 0.486856 0
M  V30 7847 O 763.681 -1.75236 -0.551198 0
M  V30 7848 C 763.743 -2.16 2.87375 0
M  V30 7849 C 763.407 -1.62931 4.26969 0
M  V30 7850 C 764.404 -1.08147 5.08528 0
M  V30 7851 C 762.089 -1.67769 4.73454 0
M  V30 7852 C 764.083 -0.589039 6.34672 0
M  V30 7853 C 761.77 -1.18138 5.99572 0
M  V30 7854 C 762.768 -0.637979 6.80014 0
M  V30 7855 O 762.456 -0.149073 8.03762 0
M  V30 7856 H 762.188 -0.33445 0.587469 0
M  V30 7857 H 764.742 -0.401109 2.01445 0
M  V30 7858 H 762.972 -2.89637 2.56218 0
M  V30 7859 H 764.661 -2.77432 2.96287 0
M  V30 7860 H 765.427 -1.03732 4.73777 0
M  V30 7861 H 761.306 -2.09004 4.10899 0
M  V30 7862 H 764.85 -0.164233 6.97407 0
M  V30 7863 H 760.747 -1.22254 6.33817 0
M  V30 7864 H 761.515 -0.266332 8.18067 0
M  V30 7865 N 764.178 -1.45556 -0.604258 0
M  V30 7866 C 765.455 -1.40221 -1.36373 0
M  V30 7867 C 765.835 -0.0745195 -2.10968 0
M  V30 7868 O 765.183 0.943594 -2.08107 0
M  V30 7869 C 765.393 -2.61807 -2.30777 0
M  V30 7870 C 766.741 -3.07037 -2.93281 0
M  V30 7871 O 767.765 -2.62203 -2.41097 0
M  V30 7872 O 766.624 -3.8485 -3.88011 0
M  V30 7873 H 763.718 -0.556602 -0.611656 0
M  V30 7874 H 766.264 -1.57689 -0.627069 0
M  V30 7875 H 765.036 -3.50017 -1.74939 0
M  V30 7876 H 764.659 -2.46688 -3.11818 0
M  V30 7877 N 765.656 0.84705 -1.32902 0
M  V30 7878 C 766.886 1.63166 -1.26729 0
M  V30 7879 C 767.294 1.88474 0.165595 0
M  V30 7880 O 766.637 1.45947 1.11558 0
M  V30 7881 C 766.699 3.0103 -1.96522 0
M  V30 7882 C 766.363 2.9873 -3.45846 0
M  V30 7883 C 767.36 2.75032 -4.41196 0
M  V30 7884 C 765.045 3.19125 -3.87898 0
M  V30 7885 C 767.039 2.71743 -5.76571 0
M  V30 7886 C 764.726 3.15462 -5.2338 0
M  V30 7887 C 765.724 2.91801 -6.17528 0
M  V30 7888 O 765.412 2.88027 -7.5053 0
M  V30 7889 H 765.144 0.51469 -0.438258 0
M  V30 7890 H 767.698 1.06383 -1.75704 0
M  V30 7891 H 765.928 3.59634 -1.42128 0
M  V30 7892 H 767.617 3.61821 -1.83958 0
M  V30 7893 H 768.383 2.59034 -4.10032 0
M  V30 7894 H 764.262 3.36565 -3.15032 0
M  V30 7895 H 767.806 2.53194 -6.5003 0
M  V30 7896 H 763.703 3.31006 -5.54171 0
M  V30 7897 H 764.471 3.03927 -7.59981 0
M  V30 7898 N 767.134 1.16236 1.06428 0
M  V30 7899 C 768.067 0.81119 2.13295 0
M  V30 7900 C 769.045 -0.216555 1.61151 0
M  V30 7901 O 770.229 -0.100949 1.88229 0
M  V30 7902 C 767.356 0.207901 3.38061 0
M  V30 7903 C 766.402 1.20904 4.09004 0
M  V30 7904 S 767.235 2.75513 4.59187 0
M  V30 7905 C 768.391 2.1663 5.87216 0
M  V30 7906 H 768.624 1.71632 2.42755 0
M  V30 7907 H 766.157 0.985693 1.18842 0
M  V30 7908 H 768.115 -0.133715 4.10282 0
M  V30 7909 H 766.776 -0.67497 3.06762 0
M  V30 7910 H 765.969 0.735326 4.98607 0
M  V30 7911 H 765.571 1.49567 3.42791 0
M  V30 7912 H 767.863 1.53413 6.59902 0
M  V30 7913 H 768.806 3.04437 6.39315 0
M  V30 7914 H 769.214 1.60565 5.41183 0
M  V30 7915 N 768.612 -1.24939 0.960631 0
M  V30 7916 C 769.56 -2.27659 0.47686 0
M  V30 7917 C 770.554 -1.63148 -0.455961 0
M  V30 7918 O 771.76 -1.76911 -0.332029 0
M  V30 7919 H 768.135 -0.739651 0.135723 0
M  V30 7920 H 770.106 -2.65844 1.35534 0
M  V30 7921 C 768.855 -3.46976 -0.224191 0
M  V30 7922 H 768.178 -3.96854 0.484471 0
M  V30 7923 H 769.618 -4.20717 -0.526615 0
M  V30 7924 C 768.077 -3.04159 -1.44876 0
M  V30 7925 O 768.607 -3.10697 -2.54618 0
M  V30 7926 N 766.813 -2.59284 -1.31226 0
M  V30 7927 H 766.36 -2.54164 -0.419361 0
M  V30 7928 H 766.318 -2.31 -2.13275 0
M  V30 7929 N 770.09 -0.729906 -1.39679 0
M  V30 7930 C 771.037 -0.0866063 -2.30637 0
M  V30 7931 C 772.007 0.735115 -1.48947 0
M  V30 7932 O 773.192 0.696125 -1.77648 0
M  V30 7933 C 770.332 0.818524 -3.35252 0
M  V30 7934 C 769.445 -0.0152635 -4.31997 0
M  V30 7935 C 768.58 0.890669 -5.2368 0
M  V30 7936 C 767.619 0.0518246 -6.12078 0
M  V30 7937 N 766.756 0.913411 -6.96133 0
M  V30 7938 H 771.596 -0.867925 -2.85081 0
M  V30 7939 H 769.133 -0.439673 -1.40376 0
M  V30 7940 H 771.091 1.3577 -3.9449 0
M  V30 7941 H 769.721 1.56587 -2.82277 0
M  V30 7942 H 768.773 -0.671794 -3.74421 0
M  V30 7943 H 770.085 -0.664086 -4.9436 0
M  V30 7944 H 769.239 1.49787 -5.87919 0
M  V30 7945 H 767.978 1.57328 -4.61627 0
M  V30 7946 H 766.983 -0.568209 -5.46856 0
M  V30 7947 H 768.208 -0.627497 -6.76195 0
M  V30 7948 H 766.154 1.58141 -6.36653 0
M  V30 7949 H 766.071 0.320952 -7.55318 0
M  V30 7950 H 767.339 1.50633 -7.64807 0
M  V30 7951 N 771.568 1.50203 -0.477153 0
M  V30 7952 C 772.984 1.59056 -0.131663 0
M  V30 7953 C 773.184 1.48473 1.36227 0
M  V30 7954 O 772.24 1.34635 2.13611 0
M  V30 7955 C 773.553 2.92741 -0.687254 0
M  V30 7956 C 775.101 3.0615 -0.651223 0
M  V30 7957 C 775.576 4.42419 -1.18446 0
M  V30 7958 N 777.067 4.48847 -1.14413 0
M  V30 7959 C 777.802 5.52689 -1.52717 0
M  V30 7960 N 777.298 6.63754 -1.98499 0
M  V30 7961 N 779.091 5.43267 -1.44282 0
M  V30 7962 H 771.242 1.55325 -1.44872 0
M  V30 7963 H 773.505 0.734395 -0.599473 0
M  V30 7964 H 773.211 3.0598 -1.73405 0
M  V30 7965 H 773.085 3.76961 -0.134215 0
M  V30 7966 H 775.472 2.92556 0.386677 0
M  V30 7967 H 775.553 2.23673 -1.24114 0
M  V30 7968 H 775.197 4.56763 -2.22103 0
M  V30 7969 H 775.127 5.23498 -0.570709 0
M  V30 7970 H 777.618 3.69152 -0.808416 0
M  V30 7971 H 777.931 7.39059 -2.25859 0
M  V30 7972 H 776.276 6.64858 -2.02456 0
M  V30 7973 H 779.467 4.55387 -1.08352 0
M  V30 7974 H 779.64 6.24074 -1.74459 0
M  V30 7975 N 773.046 0.209999 1.56195 0
M  V30 7976 C 774.292 -0.425442 1.98287 0
M  V30 7977 C 774.625 -1.60232 1.09724 0
M  V30 7978 O 773.9 -1.93902 0.152414 0
M  V30 7979 C 774.183 -0.871189 3.49403 0
M  V30 7980 C 774.036 0.308527 4.48741 0
M  V30 7981 C 775.355 -1.73146 4.04609 0
M  V30 7982 H 772.474 -0.153169 0.720908 0
M  V30 7983 H 775.116 0.303916 1.87554 0
M  V30 7984 H 773.266 -1.49266 3.58681 0
M  V30 7985 H 774.938 0.946487 4.51486 0
M  V30 7986 H 773.181 0.957878 4.23092 0
M  V30 7987 H 773.852 -0.0461143 5.51981 0
M  V30 7988 H 776.328 -1.2072 3.98203 0
M  V30 7989 H 775.204 -2.01228 5.10684 0
M  V30 7990 H 775.465 -2.69083 3.5078 0
M  V30 7991 N 774.524 -1.57472 -0.0634922 0
M  V30 7992 C 775.77 -1.87932 -0.762194 0
M  V30 7993 C 776.103 -0.803377 -1.76804 0
M  V30 7994 O 775.378 0.185468 -1.93614 0
M  V30 7995 C 775.661 -3.29053 -1.46275 0
M  V30 7996 C 775.514 -4.47309 -0.472755 0
M  V30 7997 C 776.833 -3.68537 -2.40558 0
M  V30 7998 H 773.952 -0.683521 -0.275624 0
M  V30 7999 H 776.594 -1.89983 -0.0252651 0
M  V30 8000 H 774.744 -3.27435 -2.0909 0
M  V30 8001 H 776.416 -4.61053 0.150828 0
M  V30 8002 H 774.659 -4.33286 0.211187 0
M  V30 8003 H 775.33 -5.42853 -1.00072 0
M  V30 8004 H 777.806 -3.71302 -1.87814 0
M  V30 8005 H 776.682 -4.68152 -2.86574 0
M  V30 8006 H 776.943 -2.98917 -3.25731 0
M  V30 8007 N 776.003 0.335068 -1.53997 0
M  V30 8008 C 776.966 1.39481 -1.81872 0
M  V30 8009 C 777.966 1.4524 -0.690078 0
M  V30 8010 O 779.156 1.45467 -0.958377 0
M  V30 8011 C 776.288 2.78329 -1.9684 0
M  V30 8012 H 777.481 1.16024 -2.76547 0
M  V30 8013 H 775.034 0.569926 -1.45539 0
M  V30 8014 H 775.769 3.07058 -1.04337 0
M  V30 8015 H 775.554 2.75544 -2.78958 0
M  V30 8016 H 777.044 3.55016 -2.19894 0
M  V30 8017 N 777.481 1.45874 0.596531 0
M  V30 8018 C 778.892 1.44798 1.17857 0
M  V30 8019 C 779.243 0.181443 1.95359 0
M  V30 8020 O 778.368 -0.716336 2.042 0
M  V30 8021 C 778.963 2.62333 2.14398 0
M  V30 8022 C 777.522 2.64342 2.67955 0
M  V30 8023 C 776.669 2.37244 1.43564 0
M  V30 8024 H 779.62 1.53954 0.385222 0
M  V30 8025 H 779.641 2.37063 2.97626 0
M  V30 8026 H 779.153 3.54499 1.57963 0
M  V30 8027 H 777.254 1.76213 3.28298 0
M  V30 8028 H 777.367 3.63897 3.11634 0
M  V30 8029 H 775.731 1.87022 1.72901 0
M  V30 8030 H 776.514 3.31568 0.889805 0
M  V30 8031 N 778.959 -0.83999 1.33349 0
M  V30 8032 C 780.207 -1.59202 1.24496 0
M  V30 8033 C 780.528 -1.94077 -0.189499 0
M  V30 8034 O 779.798 -1.60868 -1.11796 0
M  V30 8035 H 778.378 -0.590276 0.457802 0
M  V30 8036 H 781.04 -1.00394 1.67054 0
M  V30 8037 H 780.136 -2.52247 1.83788 0
M  V30 8038 N 780.437 -1.16799 -1.0581 0
M  V30 8039 C 781.367 -0.902241 -2.15364 0
M  V30 8040 C 782.348 0.153351 -1.69407 0
M  V30 8041 O 783.533 0.00442032 -1.94199 0
M  V30 8042 C 780.663 -0.407911 -3.44896 0
M  V30 8043 C 779.617 -1.40197 -4.04387 0
M  V30 8044 C 778.943 -0.765848 -5.29187 0
M  V30 8045 C 780.243 -2.77316 -4.42598 0
M  V30 8046 H 781.937 -1.81841 -2.37853 0
M  V30 8047 H 779.483 -0.875731 -1.14311 0
M  V30 8048 H 781.436 -0.20945 -4.20879 0
M  V30 8049 H 780.16 0.54378 -3.22041 0
M  V30 8050 H 778.819 -1.58707 -3.30466 0
M  V30 8051 H 778.467 0.192482 -5.02632 0
M  V30 8052 H 778.167 -1.42939 -5.69949 0
M  V30 8053 H 779.691 -0.577519 -6.07863 0
M  V30 8054 H 781.105 -2.62561 -5.09642 0
M  V30 8055 H 779.502 -3.4019 -4.94359 0
M  V30 8056 H 780.572 -3.32199 -3.53231 0
M  V30 8057 N 781.915 1.24427 -0.967243 0
M  V30 8058 C 783.161 1.92772 -0.629812 0
M  V30 8059 C 783.494 1.75436 0.832827 0
M  V30 8060 O 782.769 1.10716 1.59913 0
M  V30 8061 C 783.052 3.45798 -1.00477 0
M  V30 8062 C 782.905 3.72304 -2.52407 0
M  V30 8063 C 784.224 4.36787 -0.538999 0
M  V30 8064 H 781.343 0.700099 -0.230282 0
M  V30 8065 H 783.985 1.46805 -1.20616 0
M  V30 8066 H 782.135 3.8508 -0.514336 0
M  V30 8067 H 783.807 3.42584 -3.08924 0
M  V30 8068 H 782.05 3.17472 -2.95625 0
M  V30 8069 H 782.721 4.7937 -2.73693 0
M  V30 8070 H 785.197 4.04877 -0.959874 0
M  V30 8071 H 784.073 5.4259 -0.829926 0
M  V30 8072 H 784.334 4.38527 0.560923 0
M  V30 8073 N 783.393 0.737304 1.3929 0
M  V30 8074 C 784.67 0.212464 1.94443 0
M  V30 8075 C 785.05 -1.28621 1.67391 0
M  V30 8076 O 784.398 -2.0529 1.00342 0
M  V30 8077 C 784.608 0.548565 3.44662 0
M  V30 8078 C 785.956 0.499177 4.21656 0
M  V30 8079 O 786.98 0.485892 3.5287 0
M  V30 8080 O 785.839 0.495739 5.44247 0
M  V30 8081 H 782.933 0.0395457 0.826054 0
M  V30 8082 H 785.479 0.816319 1.48776 0
M  V30 8083 H 784.251 1.58426 3.57795 0
M  V30 8084 H 783.874 -0.0841399 3.97511 0
M  V30 8085 N 784.871 -1.49948 0.485112 0
M  V30 8086 C 786.111 -2.04301 -0.0635728 0
M  V30 8087 C 786.475 -1.35804 -1.35725 0
M  V30 8088 O 787.676 -1.80789 -1.98919 0
M  V30 8089 C 785.947 -3.56666 -0.228962 0
M  V30 8090 S 787.506 -4.32614 -0.734185 0
M  V30 8091 H 784.324 -0.710939 -0.00931895 0
M  V30 8092 H 786.926 -1.84185 0.655455 0
M  V30 8093 H 785.63 -4.04068 0.718148 0
M  V30 8094 H 785.161 -3.8116 -0.973696 0
M  V30 8095 H 787.176 -4.53859 -2.00565 0
M  V30 8096 N 786.349 -0.21828 -1.56081 0
M  V30 8097 C 787.579 0.41865 -2.02314 0
M  V30 8098 C 787.987 1.54124 -1.09739 0
M  V30 8099 O 787.33 1.83435 -0.0986829 0
M  V30 8100 C 787.392 1.01439 -3.44892 0
M  V30 8101 C 787.056 0.0276523 -4.56992 0
M  V30 8102 C 788.053 -0.771526 -5.14143 0
M  V30 8103 C 785.738 -0.0901537 -5.02219 0
M  V30 8104 C 787.732 -1.67525 -6.14991 0
M  V30 8105 C 785.419 -0.997411 -6.02905 0
M  V30 8106 C 786.417 -1.78851 -6.59167 0
M  V30 8107 O 786.105 -2.68052 -7.57894 0
M  V30 8108 H 785.837 0.107066 -0.667468 0
M  V30 8109 H 788.391 -0.331191 -2.02712 0
M  V30 8110 H 786.621 1.81326 -3.41552 0
M  V30 8111 H 788.31 1.55838 -3.74792 0
M  V30 8112 H 789.076 -0.690945 -4.80053 0
M  V30 8113 H 784.955 0.515474 -4.58109 0
M  V30 8114 H 788.499 -2.29316 -6.58832 0
M  V30 8115 H 784.396 -1.07902 -6.36418 0
M  V30 8116 H 785.164 -2.6209 -7.75404 0
M  V30 8117 N 787.827 1.57504 0.0551401 0
M  V30 8118 C 789.076 1.87237 0.750009 0
M  V30 8119 C 789.389 0.813268 1.77891 0
M  V30 8120 O 790.595 0.99898 2.52453 0
M  V30 8121 C 789.051 3.32187 1.38491 0
M  V30 8122 C 788.659 4.46267 0.393707 0
M  V30 8123 C 790.403 3.71101 2.06117 0
M  V30 8124 C 788.31 5.82265 1.03547 0
M  V30 8125 H 787.24 0.698524 0.283866 0
M  V30 8126 H 789.891 1.835 0.00365997 0
M  V30 8127 H 788.273 3.30588 2.18008 0
M  V30 8128 H 789.447 4.59289 -0.372865 0
M  V30 8129 H 787.762 4.16015 -0.17902 0
M  V30 8130 H 790.359 4.70012 2.54937 0
M  V30 8131 H 790.702 3.01751 2.86796 0
M  V30 8132 H 791.235 3.74762 1.33409 0
M  V30 8133 H 787.974 6.54949 0.268644 0
M  V30 8134 H 787.494 5.73012 1.7725 0
M  V30 8135 H 789.173 6.28148 1.55047 0
M  V30 8136 N 789.305 -0.326896 1.54172 0
M  V30 8137 C 790.253 -1.42232 1.84046 0
M  V30 8138 C 791.247 -1.53705 0.712115 0
M  V30 8139 O 792.453 -1.56131 0.895724 0
M  V30 8140 H 788.828 -0.474568 0.583343 0
M  V30 8141 H 790.799 -1.14259 2.75658 0
M  V30 8142 C 789.548 -2.78502 2.08163 0
M  V30 8143 H 788.871 -2.70447 2.94446 0
M  V30 8144 H 790.311 -3.54228 2.33021 0
M  V30 8145 C 788.77 -3.25415 0.872152 0
M  V30 8146 O 789.3 -4.01621 0.0797648 0
M  V30 8147 N 787.506 -2.82418 0.684716 0
M  V30 8148 H 787.053 -2.20566 1.33072 0
M  V30 8149 H 787.011 -3.14159 -0.123031 0
M  V30 8150 N 790.784 -1.46188 -0.588786 0
M  V30 8151 C 791.714 -1.59148 -1.70863 0
M  V30 8152 C 792.695 -0.442083 -1.64255 0
M  V30 8153 O 793.88 -0.667575 -1.82365 0
M  V30 8154 C 791.01 -1.5757 -3.09498 0
M  V30 8155 C 789.964 -2.71418 -3.30932 0
M  V30 8156 C 789.29 -2.549 -4.70032 0
M  V30 8157 C 790.59 -4.1329 -3.19356 0
M  V30 8158 H 792.284 -2.52889 -1.60274 0
M  V30 8159 H 789.83 -1.21707 -0.769638 0
M  V30 8160 H 791.783 -1.65231 -3.87655 0
M  V30 8161 H 790.507 -0.603705 -3.20972 0
M  V30 8162 H 789.166 -2.63216 -2.55172 0
M  V30 8163 H 788.814 -1.55797 -4.78264 0
M  V30 8164 H 788.514 -3.31257 -4.85327 0
M  V30 8165 H 790.038 -2.64443 -5.50366 0
M  V30 8166 H 791.452 -4.22636 -3.87365 0
M  V30 8167 H 789.849 -4.90187 -3.46175 0
M  V30 8168 H 790.919 -4.33874 -2.16522 0
M  V30 8169 N 792.262 0.832906 -1.33792 0
M  V30 8170 C 793.51 1.58539 -1.25338 0
M  V30 8171 C 793.831 1.94175 0.179204 0
M  V30 8172 O 793.101 1.61458 1.10941 0
M  V30 8173 H 791.681 0.58784 -0.460926 0
M  V30 8174 H 794.343 0.995064 -1.67584 0
M  V30 8175 H 793.439 2.51268 -1.85123 0
M  V30 8176 N 793.74 1.17359 1.05189 0
M  V30 8177 C 794.703 0.892604 2.11105 0
M  V30 8178 C 795.703 -0.117236 1.60372 0
M  V30 8179 O 796.893 0.114936 1.7382 0
M  V30 8180 C 794.025 0.337032 3.3923 0
M  V30 8181 H 795.218 1.83169 2.37464 0
M  V30 8182 H 792.771 0.984051 1.21434 0
M  V30 8183 H 793.506 -0.609198 3.18527 0
M  V30 8184 H 793.291 1.06484 3.77364 0
M  V30 8185 H 794.781 0.158763 4.17298 0
M  V30 8186 N 795.218 -1.23913 0.973828 0
M  V30 8187 C 796.634 -1.44325 0.681363 0
M  V30 8188 C 796.834 -1.86832 -0.754728 0
M  V30 8189 O 795.89 -2.01024 -1.52793 0
M  V30 8190 C 797.203 -2.50017 1.67069 0
M  V30 8191 C 798.751 -2.63838 1.68399 0
M  V30 8192 C 799.226 -3.72734 2.66145 0
M  V30 8193 N 800.717 -3.80169 2.64624 0
M  V30 8194 C 801.452 -4.6397 3.36927 0
M  V30 8195 N 800.948 -5.51911 4.18767 0
M  V30 8196 N 802.741 -4.58106 3.25722 0
M  V30 8197 H 794.892 -0.946204 1.9016 0
M  V30 8198 H 797.155 -0.477374 0.819035 0
M  V30 8199 H 796.861 -2.25686 2.69738 0
M  V30 8200 H 796.735 -3.48287 1.4483 0
M  V30 8201 H 799.122 -2.87524 0.664379 0
M  V30 8202 H 799.203 -1.65906 1.94702 0
M  V30 8203 H 798.847 -3.49797 3.68245 0
M  V30 8204 H 798.777 -4.70193 2.3712 0
M  V30 8205 H 801.268 -3.17319 2.05224 0
M  V30 8206 H 801.581 -6.12828 4.70809 0
M  V30 8207 H 799.926 -5.51556 4.2286 0
M  V30 8208 H 803.117 -3.8842 2.61242 0
M  V30 8209 H 803.29 -5.23188 3.82333 0
M  V30 8210 N 796.696 -0.74468 -1.38897 0
M  V30 8211 C 797.942 -0.306249 -2.01081 0
M  V30 8212 C 798.297 1.09724 -1.58046 0
M  V30 8213 O 797.59 1.73923 -0.803834 0
M  V30 8214 C 797.784 -0.357302 -3.55609 0
M  V30 8215 C 797.613 -1.76421 -4.13649 0
M  V30 8216 C 796.383 -2.3787 -4.4581 0
M  V30 8217 C 798.581 -2.71942 -4.36523 0
M  V30 8218 N 796.563 -3.70614 -4.89406 0
M  V30 8219 C 797.934 -3.89437 -4.8243 0
M  V30 8220 C 799.989 -2.69579 -4.18607 0
M  V30 8221 C 798.692 -5.04917 -5.123 0
M  V30 8222 C 800.718 -3.8421 -4.49596 0
M  V30 8223 C 800.08 -5.00442 -4.95719 0
M  V30 8224 H 796.179 -0.158531 -0.765762 0
M  V30 8225 H 798.763 -0.972726 -1.6866 0
M  V30 8226 H 796.934 0.278865 -3.87398 0
M  V30 8227 H 798.666 0.100599 -4.04575 0
M  V30 8228 H 795.421 -1.8971 -4.33943 0
M  V30 8229 H 795.845 -4.38791 -5.1555 0
M  V30 8230 H 800.487 -1.80905 -3.82143 0
M  V30 8231 H 798.205 -5.94213 -5.47665 0
M  V30 8232 H 801.791 -3.83691 -4.37347 0
M  V30 8233 H 800.671 -5.87671 -5.19242 0
M  V30 8234 N 798.174 1.49689 -0.493057 0
M  V30 8235 C 799.399 2.07331 0.0535114 0
M  V30 8236 C 799.824 1.35196 1.30781 0
M  V30 8237 O 799.182 0.406246 1.7669 0
M  V30 8238 C 799.23 3.59364 0.29825 0
M  V30 8239 O 798.334 3.88819 1.37454 0
M  V30 8240 H 797.675 0.663612 -0.0227018 0
M  V30 8241 H 800.205 1.926 -0.690402 0
M  V30 8242 H 800.215 4.04515 0.532159 0
M  V30 8243 H 798.89 4.1128 -0.618207 0
M  V30 8244 H 797.467 3.55487 1.12621 0
M  V30 8245 N 799.652 0.226554 1.55963 0
M  V30 8246 C 800.582 -0.676079 2.23498 0
M  V30 8247 C 801.563 -1.19718 1.20837 0
M  V30 8248 O 802.748 -1.24027 1.49436 0
M  V30 8249 C 799.878 -1.88217 2.91876 0
M  V30 8250 C 798.832 -1.4947 4.01052 0
M  V30 8251 C 798.158 -2.77997 4.56751 0
M  V30 8252 C 799.458 -0.680951 5.17842 0
M  V30 8253 H 801.152 -0.112989 2.99187 0
M  V30 8254 H 798.698 -0.0529046 1.43903 0
M  V30 8255 H 800.651 -2.51911 3.37815 0
M  V30 8256 H 799.375 -2.47031 2.13643 0
M  V30 8257 H 798.034 -0.881199 3.55852 0
M  V30 8258 H 797.682 -3.34966 3.75243 0
M  V30 8259 H 797.382 -2.52803 5.30438 0
M  V30 8260 H 798.906 -3.42625 5.05411 0
M  V30 8261 H 800.32 -1.22171 5.60131 0
M  V30 8262 H 798.717 -0.525898 5.97791 0
M  V30 8263 H 799.787 0.311346 4.83899 0
M  V30 8264 N 801.13 -1.57531 -0.0467866 0
M  V30 8265 C 802.407 -1.79568 -0.775536 0
M  V30 8266 C 802.787 -0.820322 -1.94509 0
M  V30 8267 O 802.135 0.14134 -2.28062 0
M  V30 8268 C 802.345 -3.26789 -1.22516 0
M  V30 8269 C 803.693 -3.91299 -1.64835 0
M  V30 8270 O 804.717 -3.30831 -1.3202 0
M  V30 8271 O 803.576 -4.97727 -2.25677 0
M  V30 8272 H 800.67 -0.737817 -0.373572 0
M  V30 8273 H 803.216 -1.69682 -0.0249302 0
M  V30 8274 H 801.988 -3.89357 -0.389446 0
M  V30 8275 H 801.611 -3.41496 -2.03633 0
M  V30 8276 N 802.608 0.318715 -1.54344 0
M  V30 8277 C 803.838 1.07394 -1.76494 0
M  V30 8278 C 804.246 1.82031 -0.515881 0
M  V30 8279 O 803.589 1.7609 0.52325 0
M  V30 8280 C 803.651 2.11401 -2.90775 0
M  V30 8281 C 803.315 1.56118 -4.29507 0
M  V30 8282 C 804.312 1.00043 -5.10184 0
M  V30 8283 C 801.997 1.60215 -4.76063 0
M  V30 8284 C 803.991 0.487993 -6.35529 0
M  V30 8285 C 801.678 1.08584 -6.01376 0
M  V30 8286 C 802.676 0.529714 -6.80943 0
M  V30 8287 O 802.364 0.0211823 -8.03897 0
M  V30 8288 H 802.096 0.325061 -0.592715 0
M  V30 8289 H 804.65 0.36901 -2.02058 0
M  V30 8290 H 802.88 2.85524 -2.60793 0
M  V30 8291 H 804.569 2.72683 -3.00664 0
M  V30 8292 H 805.335 0.961811 -4.75367 0
M  V30 8293 H 801.214 2.02441 -4.14172 0
M  V30 8294 H 804.758 0.0532608 -6.9758 0
M  V30 8295 H 800.655 1.12155 -6.35682 0
M  V30 8296 H 801.423 0.136151 -8.18387 0
M  V30 8297 N 804.086 1.46499 0.581025 0
M  V30 8298 C 805.019 1.51706 1.70472 0
M  V30 8299 C 805.997 0.371036 1.5831 0
M  V30 8300 O 807.181 0.575426 1.79502 0
M  V30 8301 C 804.308 1.3972 3.08538 0
M  V30 8302 C 803.354 2.58525 3.39215 0
M  V30 8303 S 804.187 4.20872 3.311 0
M  V30 8304 C 805.343 4.11398 4.71702 0
M  V30 8305 H 805.576 2.46777 1.65796 0
M  V30 8306 H 803.109 1.34405 0.759908 0
M  V30 8307 H 805.067 1.33492 3.88188 0
M  V30 8308 H 803.728 0.460742 3.10702 0
M  V30 8309 H 802.921 2.46137 4.3981 0
M  V30 8310 H 802.523 2.61752 2.67136 0
M  V30 8311 H 804.815 3.78182 5.62125 0
M  V30 8312 H 805.758 5.11997 4.89147 0
M  V30 8313 H 806.166 3.42624 4.48631 0
M  V30 8314 N 805.565 -0.825799 1.34232 0
M  V30 8315 C 806.842 -1.56741 1.17011 0
M  V30 8316 C 807.222 -2.09512 -0.258425 0
M  V30 8317 O 806.57 -1.90664 -1.25935 0
M  V30 8318 C 806.78 -2.69104 2.22225 0
M  V30 8319 C 808.128 -3.37947 2.57055 0
M  V30 8320 O 809.152 -2.79358 2.20992 0
M  V30 8321 O 808.011 -4.43743 3.1899 0
M  V30 8322 H 805.105 -0.69163 0.453405 0
M  V30 8323 H 807.651 -0.867422 1.45856 0
M  V30 8324 H 806.423 -2.27844 3.18124 0
M  V30 8325 H 806.046 -3.46756 1.94541 0
M  V30 8326 N 807.043 -1.17915 -1.04565 0
M  V30 8327 C 807.991 -0.897919 -2.1457 0
M  V30 8328 C 808.985 0.139883 -1.68821 0
M  V30 8329 O 810.191 -0.00779463 -1.79998 0
M  V30 8330 H 806.566 -0.272867 -0.700748 0
M  V30 8331 H 808.537 -1.83268 -2.3549 0
M  V30 8332 C 807.286 -0.434634 -3.44973 0
M  V30 8333 H 806.609 -1.22469 -3.8058 0
M  V30 8334 H 808.049 -0.276804 -4.23095 0
M  V30 8335 C 806.508 0.848738 -3.26034 0
M  V30 8336 O 807.038 1.9141 -3.53164 0
M  V30 8337 N 805.244 0.799373 -2.79389 0
M  V30 8338 H 804.791 -0.0678192 -2.57511 0
M  V30 8339 H 804.749 1.6585 -2.67098 0
M  V30 8340 N 808.521 1.23394 -0.980386 0
M  V30 8341 C 809.767 1.92094 -0.650223 0
M  V30 8342 C 810.1 1.76309 0.814173 0
M  V30 8343 O 809.375 1.12406 1.5873 0
M  V30 8344 C 809.658 3.44713 -1.04139 0
M  V30 8345 C 809.511 3.69606 -2.56342 0
M  V30 8346 C 810.83 4.36191 -0.585296 0
M  V30 8347 H 807.949 0.697618 -0.237695 0
M  V30 8348 H 810.591 1.45517 -1.22167 0
M  V30 8349 H 808.741 3.84513 -0.55515 0
M  V30 8350 H 810.413 3.39288 -3.1254 0
M  V30 8351 H 808.656 3.14318 -2.98976 0
M  V30 8352 H 809.327 4.76441 -2.78762 0
M  V30 8353 H 811.803 4.03836 -1.00276 0
M  V30 8354 H 810.679 5.41679 -0.887428 0
M  V30 8355 H 810.94 4.39097 0.51438 0
M  V30 8356 N 809.999 0.752036 1.385 0
M  V30 8357 C 810.947 0.112634 2.32327 0
M  V30 8358 C 811.941 -0.707037 1.53939 0
M  V30 8359 O 813.147 -0.606309 1.69481 0
M  V30 8360 H 809.522 0.0176275 0.751793 0
M  V30 8361 H 811.493 0.920074 2.83861 0
M  V30 8362 C 810.242 -0.767458 3.39124 0
M  V30 8363 H 809.565 -0.146122 3.99533 0
M  V30 8364 H 811.005 -1.18216 4.07187 0
M  V30 8365 C 809.464 -1.90938 2.77568 0
M  V30 8366 O 809.994 -3.00342 2.66754 0
M  V30 8367 N 808.2 -1.70396 2.35401 0
M  V30 8368 H 807.747 -0.81413 2.44397 0
M  V30 8369 H 807.705 -2.46972 1.94557 0
M  V30 8370 N 811.477 -1.49425 0.500989 0
M  V30 8371 C 812.888 -1.86624 0.0532011 0
M  V30 8372 C 813.239 -1.41331 -1.36088 0
M  V30 8373 O 812.364 -0.791195 -2.01418 0
M  V30 8374 C 812.959 -3.38681 0.0897693 0
M  V30 8375 C 811.518 -3.75181 -0.302677 0
M  V30 8376 C 810.665 -2.73419 0.462307 0
M  V30 8377 H 813.616 -1.41743 0.713773 0
M  V30 8378 H 813.637 -3.73902 -0.705528 0
M  V30 8379 H 813.149 -3.71616 1.11907 0
M  V30 8380 H 811.25 -3.47855 -1.33521 0
M  V30 8381 H 811.363 -4.79097 0.0167653 0
M  V30 8382 H 809.727 -2.54548 -0.0878557 0
M  V30 8383 H 810.51 -3.09198 1.49169 0
M  V30 8384 N 812.955 -0.234822 -1.55841 0
M  V30 8385 C 814.202 0.39326 -1.98645 0
M  V30 8386 C 814.53 1.58823 -1.12274 0
M  V30 8387 O 813.785 1.94954 -0.170731 0
M  V30 8388 C 814.084 0.858032 -3.46947 0
M  V30 8389 C 813.75 -0.227858 -4.50324 0
M  V30 8390 C 812.412 -0.526128 -4.78315 0
M  V30 8391 C 814.764 -0.961576 -5.12253 0
M  V30 8392 C 812.092 -1.5624 -5.65514 0
M  V30 8393 C 814.444 -1.98728 -6.00575 0
M  V30 8394 C 813.108 -2.29233 -6.26904 0
M  V30 8395 H 812.378 0.143904 -0.726892 0
M  V30 8396 H 815.025 -0.34012 -1.88455 0
M  V30 8397 H 813.33 1.67041 -3.54408 0
M  V30 8398 H 815.027 1.35407 -3.77447 0
M  V30 8399 H 811.617 0.0147624 -4.28597 0
M  V30 8400 H 815.801 -0.744388 -4.90686 0
M  V30 8401 H 811.057 -1.80422 -5.84173 0
M  V30 8402 H 815.231 -2.5608 -6.47608 0
M  V30 8403 H 812.858 -3.09671 -6.94268 0
M  V30 8404 N 814.433 1.57553 0.0384317 0
M  V30 8405 C 815.381 2.07021 1.06043 0
M  V30 8406 C 816.375 0.982078 1.38028 0
M  V30 8407 O 817.581 1.16702 1.37042 0
M  V30 8408 H 813.956 0.660522 0.359464 0
M  V30 8409 H 815.927 2.91944 0.617339 0
M  V30 8410 C 814.676 2.55734 2.35574 0
M  V30 8411 H 813.999 3.39074 2.11822 0
M  V30 8412 H 815.439 2.94066 3.05452 0
M  V30 8413 C 813.898 1.45449 3.03885 0
M  V30 8414 O 814.428 0.815402 3.93337 0
M  V30 8415 N 812.634 1.19134 2.65058 0
M  V30 8416 H 812.181 1.71288 1.92401 0
M  V30 8417 H 812.139 0.455554 3.11082 0
M  V30 8418 N 815.911 -0.310526 1.54511 0
M  V30 8419 C 816.861 -1.38405 1.81185 0
M  V30 8420 C 817.845 -1.46355 0.668499 0
M  V30 8421 O 819.037 -1.50668 0.928873 0
M  V30 8422 C 816.166 -2.75059 2.0542 0
M  V30 8423 C 815.252 -2.7137 3.25913 0
M  V30 8424 N 815.643 -2.37298 4.4668 0
M  V30 8425 C 813.941 -3.02484 3.27749 0
M  V30 8426 C 814.642 -2.42669 5.28665 0
M  V30 8427 N 813.618 -2.79639 4.66158 0
M  V30 8428 H 817.42 -1.11012 2.72128 0
M  V30 8429 H 814.934 -0.519068 1.53881 0
M  V30 8430 H 816.931 -3.52451 2.22674 0
M  V30 8431 H 815.591 -3.03372 1.15739 0
M  V30 8432 H 816.602 -2.09917 4.73451 0
M  V30 8433 H 813.279 -3.35754 2.48144 0
M  V30 8434 H 814.669 -2.19206 6.35136 0
M  V30 8435 N 817.389 -1.46805 -0.573248 0
M  V30 8436 C 818.339 -1.54497 -1.67674 0
M  V30 8437 C 819.323 -0.405117 -1.55716 0
M  V30 8438 O 820.515 -0.654097 -1.64471 0
M  V30 8439 C 817.644 -1.54717 -3.0646 0
M  V30 8440 C 816.73 -2.7403 -3.2368 0
M  V30 8441 N 817.121 -3.98871 -3.11023 0
M  V30 8442 C 815.419 -2.70453 -3.54642 0
M  V30 8443 C 816.12 -4.78689 -3.30502 0
M  V30 8444 N 815.096 -4.10727 -3.56096 0
M  V30 8445 H 818.898 -2.48809 -1.56433 0
M  V30 8446 H 816.412 -1.42576 -0.777554 0
M  V30 8447 H 818.409 -1.58316 -3.8567 0
M  V30 8448 H 817.069 -0.614886 -3.18825 0
M  V30 8449 H 818.08 -4.29976 -2.88688 0
M  V30 8450 H 814.757 -1.86291 -3.73633 0
M  V30 8451 H 816.147 -5.87615 -3.2582 0
M  V30 8452 N 818.867 0.818669 -1.34668 0
M  V30 8453 C 820.283 1.11243 -1.14443 0
M  V30 8454 C 820.483 2.01435 0.0512212 0
M  V30 8455 O 819.539 2.41854 0.725471 0
M  V30 8456 C 820.852 1.75504 -2.4417 0
M  V30 8457 C 822.4 1.8798 -2.50265 0
M  V30 8458 C 822.875 2.55657 -3.80004 0
M  V30 8459 N 824.366 2.63153 -3.81189 0
M  V30 8460 C 825.101 3.16258 -4.78298 0
M  V30 8461 N 824.597 3.69893 -5.85791 0
M  V30 8462 N 826.39 3.14698 -4.65748 0
M  V30 8463 H 818.541 0.218848 -2.1127 0
M  V30 8464 H 820.804 0.159655 -0.934459 0
M  V30 8465 H 820.51 1.16697 -3.31775 0
M  V30 8466 H 820.384 2.75329 -2.57825 0
M  V30 8467 H 822.771 2.45934 -1.63096 0
M  V30 8468 H 822.852 0.870447 -2.40535 0
M  V30 8469 H 822.496 1.98356 -4.67565 0
M  V30 8470 H 822.426 3.57105 -3.87019 0
M  V30 8471 H 824.917 2.2514 -3.03513 0
M  V30 8472 H 825.23 4.08678 -6.55898 0
M  V30 8473 H 823.575 3.68125 -5.89499 0
M  V30 8474 H 826.766 2.72066 -3.80917 0
M  V30 8475 H 826.939 3.5578 -5.41594 0
M  V30 8476 N 820.346 1.18468 1.03938 0
M  V30 8477 C 821.294 0.909286 2.14091 0
M  V30 8478 C 822.288 -0.130928 1.68893 0
M  V30 8479 O 823.494 0.0173403 1.79992 0
M  V30 8480 H 819.869 0.27658 0.699291 0
M  V30 8481 H 821.84 1.84514 2.34515 0
M  V30 8482 C 820.589 0.452922 3.44737 0
M  V30 8483 H 819.912 1.24485 3.79926 0
M  V30 8484 H 821.352 0.299238 4.22943 0
M  V30 8485 C 819.811 -0.831435 3.26479 0
M  V30 8486 O 820.341 -1.89535 3.54174 0
M  V30 8487 N 818.547 -0.784545 2.79809 0
M  V30 8488 H 818.094 0.0814746 2.57471 0
M  V30 8489 H 818.052 -1.64431 2.67973 0
M  V30 8490 N 821.824 -1.22873 0.986916 0
M  V30 8491 C 822.787 -2.2281 0.537442 0
M  V30 8492 C 823.787 -1.56331 -0.37646 0
M  V30 8493 O 824.977 -1.73376 -0.169247 0
M  V30 8494 C 822.109 -3.40195 -0.219082 0
M  V30 8495 H 823.302 -2.64089 1.42116 0
M  V30 8496 H 820.855 -1.35819 0.773488 0
M  V30 8497 H 821.59 -3.04381 -1.11905 0
M  V30 8498 H 821.375 -3.89657 0.437026 0
M  V30 8499 H 822.865 -4.14326 -0.521926 0
M  V30 8500 N 823.302 -0.75937 -1.38099 0
M  V30 8501 C 824.55 -0.317485 -1.99591 0
M  V30 8502 C 824.871 1.10628 -1.60581 0
M  V30 8503 O 824.141 1.7575 -0.865378 0
M  V30 8504 H 822.721 -0.114397 -0.738189 0
M  V30 8505 H 825.383 -0.974749 -1.68774 0
M  V30 8506 H 824.479 -0.385227 -3.09713 0
M  V30 8507 N 824.78 1.49157 -0.508906 0
M  V30 8508 C 825.71 2.32109 0.254469 0
M  V30 8509 C 826.691 1.40754 0.955111 0
M  V30 8510 O 827.876 1.69658 0.944983 0
M  V30 8511 C 825.006 3.21458 1.3146 0
M  V30 8512 C 823.96 4.2167 0.733368 0
M  V30 8513 C 823.286 5.00009 1.8946 0
M  V30 8514 C 824.586 5.21544 -0.280875 0
M  V30 8515 H 826.28 2.9618 -0.43795 0
M  V30 8516 H 823.826 1.4243 -0.212062 0
M  V30 8517 H 825.779 3.78305 1.85643 0
M  V30 8518 H 824.503 2.55346 2.03632 0
M  V30 8519 H 823.162 3.65979 0.213231 0
M  V30 8520 H 822.81 4.30338 2.60419 0
M  V30 8521 H 822.51 5.67821 1.51173 0
M  V30 8522 H 824.034 5.59702 2.44061 0
M  V30 8523 H 825.448 5.73039 0.173095 0
M  V30 8524 H 823.845 5.97291 -0.580006 0
M  V30 8525 H 824.915 4.69969 -1.19404 0
M  V30 8526 N 826.258 0.243083 1.55714 0
M  V30 8527 C 827.674 -0.111853 1.59208 0
M  V30 8528 C 827.874 -1.5723 1.2602 0
M  V30 8529 O 826.93 -2.31608 1.00569 0
M  V30 8530 C 828.243 0.233885 2.99789 0
M  V30 8531 C 829.791 0.177873 3.12494 0
M  V30 8532 C 830.266 0.49759 4.55289 0
M  V30 8533 N 831.757 0.447949 4.61029 0
M  V30 8534 C 832.492 0.668545 5.69489 0
M  V30 8535 N 831.988 0.952064 6.86227 0
M  V30 8536 N 833.781 0.599512 5.58894 0
M  V30 8537 H 825.932 1.19554 1.75558 0
M  V30 8538 H 828.195 0.480765 0.817049 0
M  V30 8539 H 827.901 1.24835 3.28799 0
M  V30 8540 H 827.775 -0.440846 3.74615 0
M  V30 8541 H 830.162 -0.827263 2.83267 0
M  V30 8542 H 830.243 0.886399 2.39951 0
M  V30 8543 H 829.887 1.50026 4.85237 0
M  V30 8544 H 829.817 -0.232371 5.26087 0
M  V30 8545 H 832.308 0.237388 3.77154 0
M  V30 8546 H 832.621 1.10791 7.64817 0
M  V30 8547 H 830.966 0.989496 6.8792 0
M  V30 8548 H 834.157 0.378088 4.66571 0
M  V30 8549 H 834.33 0.774828 6.43351 0
M  V30 8550 N 827.736 -1.57571 -0.0300757 0
M  V30 8551 C 828.966 -1.93204 -0.731828 0
M  V30 8552 C 829.374 -0.841156 -1.69473 0
M  V30 8553 O 828.717 0.191231 -1.82702 0
M  V30 8554 C 828.779 -3.2463 -1.54453 0
M  V30 8555 C 828.443 -4.50862 -0.746507 0
M  V30 8556 C 829.44 -5.19879 -0.0472309 0
M  V30 8557 C 827.125 -4.9738 -0.701347 0
M  V30 8558 C 829.119 -6.33692 0.686518 0
M  V30 8559 C 826.806 -6.11089 0.036148 0
M  V30 8560 C 827.804 -6.791 0.728841 0
M  V30 8561 O 827.492 -7.90635 1.45436 0
M  V30 8562 H 827.224 -0.6423 -0.210775 0
M  V30 8563 H 829.778 -2.05398 0.00804194 0
M  V30 8564 H 828.008 -3.0876 -2.32818 0
M  V30 8565 H 829.697 -3.45597 -2.1288 0
M  V30 8566 H 830.463 -4.84945 -0.0731582 0
M  V30 8567 H 826.342 -4.44288 -1.23001 0
M  V30 8568 H 829.886 -6.86711 1.22773 0
M  V30 8569 H 825.783 -6.45468 0.064002 0
M  V30 8570 H 826.551 -8.06988 1.36794 0
M  V30 8571 N 829.214 0.302327 -1.54673 0
M  V30 8572 C 830.63 0.647911 -1.45857 0
M  V30 8573 C 830.83 1.90773 -0.64869 0
M  V30 8574 O 829.886 2.52018 -0.155865 0
M  V30 8575 C 831.199 0.802144 -2.89804 0
M  V30 8576 C 832.747 0.898114 -2.99838 0
M  V30 8577 C 833.222 1.08436 -4.44978 0
M  V30 8578 N 834.713 1.15059 -4.48682 0
M  V30 8579 C 835.448 1.31296 -5.58166 0
M  V30 8580 N 834.944 1.4444 -6.77576 0
M  V30 8581 N 836.737 1.34174 -5.45851 0
M  V30 8582 H 828.888 -0.525428 -2.05798 0
M  V30 8583 H 831.151 -0.173423 -0.932002 0
M  V30 8584 H 830.857 -0.0526531 -3.51661 0
M  V30 8585 H 830.731 1.69155 -3.37145 0
M  V30 8586 H 833.118 1.7434 -2.38096 0
M  V30 8587 H 833.199 -0.0152752 -2.55795 0
M  V30 8588 H 832.843 0.243843 -5.07314 0
M  V30 8589 H 832.773 2.01195 -4.8665 0
M  V30 8590 H 835.264 1.0626 -3.62653 0
M  V30 8591 H 835.577 1.56582 -7.56771 0
M  V30 8592 H 833.922 1.41499 -6.80443 0
M  V30 8593 H 837.113 1.23516 -4.5151 0
M  V30 8594 H 837.286 1.46485 -6.31226 0
M  V30 8595 N 830.692 1.47107 0.565454 0
M  V30 8596 C 831.917 1.57153 1.35343 0
M  V30 8597 C 832.342 0.219247 1.86818 0
M  V30 8598 O 831.7 -0.803539 1.62521 0
M  V30 8599 C 831.748 2.59387 2.50501 0
M  V30 8600 O 830.852 2.14086 3.52478 0
M  V30 8601 H 830.193 0.528209 0.402357 0
M  V30 8602 H 832.723 1.92821 0.684189 0
M  V30 8603 H 832.733 2.79546 2.97184 0
M  V30 8604 H 831.408 3.57579 2.12391 0
M  V30 8605 H 829.985 2.03991 3.12157 0
M  V30 8606 N 832.17 -0.811516 1.35101 0
M  V30 8607 C 833.103 -1.92872 1.21966 0
M  V30 8608 C 834.081 -1.62236 0.108667 0
M  V30 8609 O 835.265 -1.8647 0.275875 0
M  V30 8610 C 832.392 -3.27152 0.876886 0
M  V30 8611 C 831.438 -3.7674 1.99924 0
M  V30 8612 S 832.271 -3.95132 3.61429 0
M  V30 8613 C 833.427 -5.32322 3.29218 0
M  V30 8614 H 833.66 -2.03718 2.16532 0
M  V30 8615 H 831.193 -0.968352 1.20259 0
M  V30 8616 H 833.151 -4.04729 0.685917 0
M  V30 8617 H 831.812 -3.14059 -0.0506289 0
M  V30 8618 H 831.005 -4.73981 1.71343 0
M  V30 8619 H 830.607 -3.06145 2.14829 0
M  V30 8620 H 832.899 -6.1614 2.8174 0
M  V30 8621 H 833.842 -5.65893 4.25641 0
M  V30 8622 H 834.25 -4.98374 2.65111 0
M  V30 8623 N 833.648 -1.19017 -1.03309 0
M  V30 8624 C 834.578 -0.94772 -2.13402 0
M  V30 8625 C 835.559 0.117383 -1.69694 0
M  V30 8626 O 836.744 -0.0367733 -1.94165 0
M  V30 8627 C 833.874 -0.480977 -3.43953 0
M  V30 8628 C 832.828 -1.48743 -4.01322 0
M  V30 8629 C 832.154 -0.877924 -5.27443 0
M  V30 8630 C 833.454 -2.86642 -4.36616 0
M  V30 8631 H 835.148 -1.86846 -2.33942 0
M  V30 8632 H 832.694 -0.899781 -1.12427 0
M  V30 8633 H 834.647 -0.298677 -4.2034 0
M  V30 8634 H 833.371 0.475348 -3.23122 0
M  V30 8635 H 832.03 -1.65681 -3.27025 0
M  V30 8636 H 831.678 0.0858232 -5.02927 0
M  V30 8637 H 831.378 -1.54996 -5.66789 0
M  V30 8638 H 832.902 -0.706326 -6.06501 0
M  V30 8639 H 834.316 -2.73312 -5.03958 0
M  V30 8640 H 832.713 -3.50599 -4.87032 0
M  V30 8641 H 833.783 -3.39617 -3.46105 0
M  V30 8642 N 835.127 1.22348 -0.993418 0
M  V30 8643 C 836.057 2.26584 -0.564088 0
M  V30 8644 C 837.038 1.65102 0.409298 0
M  V30 8645 O 838.223 1.91872 0.299819 0
M  V30 8646 C 835.353 3.47087 0.121554 0
M  V30 8647 C 834.307 4.21009 -0.770429 0
M  V30 8648 C 833.633 5.34678 0.0481586 0
M  V30 8649 C 834.933 4.79636 -2.06752 0
M  V30 8650 H 836.627 2.62749 -1.43538 0
M  V30 8651 H 834.173 1.26303 -0.691628 0
M  V30 8652 H 836.126 4.19166 0.433303 0
M  V30 8653 H 834.85 3.1002 1.0274 0
M  V30 8654 H 833.509 3.50764 -1.06583 0
M  V30 8655 H 833.157 4.93852 0.954933 0
M  V30 8656 H 832.857 5.85061 -0.545641 0
M  V30 8657 H 834.381 6.09573 0.353991 0
M  V30 8658 H 835.795 5.43654 -1.81969 0
M  V30 8659 H 834.192 5.4036 -2.61019 0
M  V30 8660 H 835.262 3.99659 -2.74592 0
M  V30 8661 N 836.605 0.766683 1.37694 0
M  V30 8662 C 837.853 0.328065 1.9942 0
M  V30 8663 C 838.174 -1.09775 1.61166 0
M  V30 8664 O 837.444 -1.75288 0.874686 0
M  V30 8665 H 836.024 0.11831 0.737572 0
M  V30 8666 H 838.686 0.983686 1.68255 0
M  V30 8667 H 837.782 0.401647 3.09505 0
M  V30 8668 N 838.083 -1.48885 0.516809 0
M  V30 8669 C 839.031 -2.31066 -0.266656 0
M  V30 8670 C 840.025 -1.40393 -0.94795 0
M  V30 8671 O 841.231 -1.57366 -0.873836 0
M  V30 8672 H 837.606 -0.744654 -0.104858 0
M  V30 8673 H 839.577 -2.95045 0.446236 0
M  V30 8674 C 838.326 -3.22131 -1.3087 0
M  V30 8675 H 837.649 -3.91839 -0.793865 0
M  V30 8676 H 839.089 -3.82544 -1.82856 0
M  V30 8677 C 837.548 -2.42825 -2.33533 0
M  V30 8678 O 838.078 -2.14364 -3.39722 0
M  V30 8679 N 836.284 -2.04559 -2.06407 0
M  V30 8680 H 835.831 -2.27905 -1.20071 0
M  V30 8681 H 835.789 -1.51807 -2.75322 0
M  V30 8682 N 839.561 -0.251338 -1.55583 0
M  V30 8683 C 840.809 0.371434 -1.98657 0
M  V30 8684 C 841.13 1.58143 -1.14087 0
M  V30 8685 O 840.4 1.94607 -0.224708 0
M  V30 8686 H 838.98 0.140225 -0.733721 0
M  V30 8687 H 841.642 -0.351157 -1.9171 0
M  V30 8688 H 840.738 0.677554 -3.04657 0
M  V30 8689 N 841.039 1.57585 0.0217189 0
M  V30 8690 C 842.455 1.55072 0.377484 0
M  V30 8691 C 842.655 0.978423 1.76151 0
M  V30 8692 O 841.711 0.602688 2.45202 0
M  V30 8693 C 843.024 2.99462 0.272605 0
M  V30 8694 C 844.572 3.11047 0.349148 0
M  V30 8695 C 845.047 4.57182 0.273636 0
M  V30 8696 N 846.538 4.62007 0.332206 0
M  V30 8697 C 847.273 5.72631 0.296782 0
M  V30 8698 N 846.769 6.92472 0.21322 0
M  V30 8699 N 848.562 5.61028 0.347053 0
M  V30 8700 H 840.713 1.93133 -0.883925 0
M  V30 8701 H 842.976 0.886151 -0.33681 0
M  V30 8702 H 842.682 3.45088 -0.67878 0
M  V30 8703 H 842.556 3.61901 1.06335 0
M  V30 8704 H 844.943 2.65364 1.29097 0
M  V30 8705 H 845.024 2.51425 -0.471085 0
M  V30 8706 H 844.668 5.03534 -0.664548 0
M  V30 8707 H 844.598 5.14724 1.11207 0
M  V30 8708 H 847.089 3.75788 0.399003 0
M  V30 8709 H 847.402 7.72563 0.191492 0
M  V30 8710 H 845.747 6.94769 0.179161 0
M  V30 8711 H 848.938 4.66298 0.410378 0
M  V30 8712 H 849.111 6.47229 0.315979 0
M  V30 8713 N 842.517 -0.29412 1.54831 0
M  V30 8714 C 843.747 -1.04572 1.7818 0
M  V30 8715 C 844.155 -1.81187 0.544776 0
M  V30 8716 O 843.498 -1.769 -0.495169 0
M  V30 8717 C 843.56 -2.06748 2.94101 0
M  V30 8718 C 843.224 -1.49265 4.31936 0
M  V30 8719 C 844.221 -0.919136 5.11711 0
M  V30 8720 C 841.906 -1.52621 4.78552 0
M  V30 8721 C 843.9 -0.386824 6.36225 0
M  V30 8722 C 841.587 -0.990031 6.03027 0
M  V30 8723 C 842.585 -0.421315 6.81699 0
M  V30 8724 O 842.273 0.106713 8.03829 0
M  V30 8725 H 842.005 -0.31559 0.597812 0
M  V30 8726 H 844.559 -0.336817 2.0262 0
M  V30 8727 H 842.789 -2.81339 2.65303 0
M  V30 8728 H 844.478 -2.67865 3.04964 0
M  V30 8729 H 845.244 -0.886062 4.76837 0
M  V30 8730 H 841.123 -1.95826 4.17341 0
M  V30 8731 H 844.667 0.0577248 6.97576 0
M  V30 8732 H 840.564 -1.02027 6.37386 0
M  V30 8733 H 841.332 -0.00593526 8.185 0
M  V30 8734 N 843.995 -1.47404 -0.557645 0
M  V30 8735 C 845.241 -1.54235 -1.31679 0
M  V30 8736 C 845.574 -0.203782 -1.93128 0
M  V30 8737 O 844.849 0.787536 -1.77843 0
M  V30 8738 C 845.132 -2.66003 -2.42723 0
M  V30 8739 C 844.985 -4.09475 -1.86145 0
M  V30 8740 C 846.304 -2.73685 -3.44652 0
M  V30 8741 H 843.423 -0.561466 -0.477415 0
M  V30 8742 H 846.065 -1.79459 -0.624067 0
M  V30 8743 H 844.215 -2.44627 -3.01811 0
M  V30 8744 H 845.887 -4.42213 -1.31321 0
M  V30 8745 H 844.13 -4.17774 -1.16823 0
M  V30 8746 H 844.801 -4.83451 -2.66418 0
M  V30 8747 H 847.277 -2.92968 -2.95481 0
M  V30 8748 H 846.153 -3.53665 -4.19777 0
M  V30 8749 H 846.414 -1.80726 -4.03473 0
M  V30 8750 N 845.473 0.80434 -1.35529 0
M  V30 8751 C 846.884 1.37849 -1.25915 0
M  V30 8752 C 847.235 1.95905 0.107495 0
M  V30 8753 O 846.36 1.91462 1.00852 0
M  V30 8754 C 846.955 2.50608 -2.27994 0
M  V30 8755 C 845.514 3.03879 -2.22114 0
M  V30 8756 C 844.661 1.76856 -2.13582 0
M  V30 8757 H 847.612 0.607192 -1.46625 0
M  V30 8758 H 847.633 3.29221 -1.90772 0
M  V30 8759 H 847.145 2.08323 -3.27449 0
M  V30 8760 H 845.246 3.50622 -1.26077 0
M  V30 8761 H 845.359 3.61707 -3.14173 0
M  V30 8762 H 843.723 1.98498 -1.59595 0
M  V30 8763 H 844.506 1.36721 -3.14901 0
M  V30 8764 N 846.951 1.19563 1.02676 0
M  V30 8765 C 848.198 0.999568 1.7611 0
M  V30 8766 C 848.526 -0.469432 1.8875 0
M  V30 8767 O 847.781 -1.36481 1.40255 0
M  V30 8768 C 848.08 1.61619 3.18769 0
M  V30 8769 C 847.746 3.11366 3.26132 0
M  V30 8770 C 846.408 3.52234 3.27848 0
M  V30 8771 C 848.76 4.07374 3.25109 0
M  V30 8772 C 846.088 4.87658 3.26201 0
M  V30 8773 C 848.44 5.42731 3.25002 0
M  V30 8774 C 847.104 5.83027 3.25017 0
M  V30 8775 H 846.374 0.365768 0.644434 0
M  V30 8776 H 849.021 1.48838 1.20497 0
M  V30 8777 H 847.326 1.04974 3.77476 0
M  V30 8778 H 849.023 1.43975 3.74262 0
M  V30 8779 H 845.613 2.78804 3.25525 0
M  V30 8780 H 849.797 3.76842 3.22961 0
M  V30 8781 H 845.053 5.18156 3.24537 0
M  V30 8782 H 849.227 6.16879 3.23161 0
M  V30 8783 H 846.854 6.87936 3.23494 0
M  V30 8784 N 848.429 -1.21819 0.999893 0
M  V30 8785 C 849.379 -2.21823 0.527104 0
M  V30 8786 C 850.363 -1.55628 -0.408515 0
M  V30 8787 O 851.555 -1.75444 -0.234196 0
M  V30 8788 C 848.684 -3.42972 -0.149986 0
M  V30 8789 C 847.77 -4.16364 0.806349 0
M  V30 8790 N 848.161 -4.66403 1.95708 0
M  V30 8791 C 846.459 -4.41618 0.623672 0
M  V30 8792 C 847.16 -5.22443 2.5579 0
M  V30 8793 N 846.136 -5.11514 1.83995 0
M  V30 8794 H 849.938 -2.58161 1.40464 0
M  V30 8795 H 847.452 -1.37569 0.863054 0
M  V30 8796 H 849.449 -4.13816 -0.50613 0
M  V30 8797 H 848.109 -3.08145 -1.02357 0
M  V30 8798 H 849.12 -4.62142 2.33763 0
M  V30 8799 H 845.797 -4.17005 -0.203257 0
M  V30 8800 H 847.187 -5.7165 3.5308 0
M  V30 8801 N 849.908 -0.773975 -1.37286 0
M  V30 8802 C 851.157 -0.335977 -1.98882 0
M  V30 8803 C 851.47 1.09416 -1.62134 0
M  V30 8804 O 852.676 1.63366 -2.1685 0
M  V30 8805 C 851.132 -0.549756 -3.55676 0
M  V30 8806 C 850.74 -1.9903 -4.01361 0
M  V30 8807 C 852.484 -0.175493 -4.24137 0
M  V30 8808 C 850.391 -2.15156 -5.50874 0
M  V30 8809 H 849.321 -0.121877 -0.744085 0
M  V30 8810 H 851.972 -0.953419 -1.56787 0
M  V30 8811 H 850.354 0.137175 -3.95762 0
M  V30 8812 H 851.528 -2.71237 -3.72515 0
M  V30 8813 H 849.843 -2.32137 -3.4569 0
M  V30 8814 H 852.44 -0.274463 -5.33995 0
M  V30 8815 H 852.783 0.874524 -4.07011 0
M  V30 8816 H 853.316 -0.815058 -3.89361 0
M  V30 8817 H 850.055 -3.18485 -5.72929 0
M  V30 8818 H 849.575 -1.47435 -5.81397 0
M  V30 8819 H 851.254 -1.95124 -6.16876 0
M  V30 8820 N 851.386 1.48609 -0.524698 0
M  V30 8821 C 852.318 2.27508 0.278 0
M  V30 8822 C 853.331 1.35042 0.909258 0
M  V30 8823 O 854.52 1.60136 0.788592 0
M  V30 8824 C 851.62 3.08247 1.40843 0
M  V30 8825 C 850.793 4.28455 0.880083 0
M  V30 8826 C 849.852 4.91048 1.891 0
M  V30 8827 O 848.878 5.5042 1.45005 0
M  V30 8828 N 850.08 4.82816 3.22288 0
M  V30 8829 H 852.845 2.97037 -0.398642 0
M  V30 8830 H 850.406 1.57876 -0.358698 0
M  V30 8831 H 852.398 3.46992 2.08276 0
M  V30 8832 H 850.968 2.41173 1.98883 0
M  V30 8833 H 850.188 3.94189 0.0299228 0
M  V30 8834 H 851.476 5.06279 0.505881 0
M  V30 8835 H 850.874 4.3572 3.60783 0
M  V30 8836 H 849.431 5.25676 3.85368 0
M  V30 8837 N 852.864 0.259585 1.55447 0
M  V30 8838 C 854.11 -0.362143 1.9954 0
M  V30 8839 C 854.443 -1.5666 1.14767 0
M  V30 8840 O 853.718 -1.93319 0.214025 0
M  V30 8841 C 854.001 -0.759588 3.51998 0
M  V30 8842 C 853.854 0.451134 4.47532 0
M  V30 8843 C 855.173 -1.60186 4.09913 0
M  V30 8844 H 852.292 -0.130157 0.725416 0
M  V30 8845 H 854.934 0.363431 1.86492 0
M  V30 8846 H 853.084 -1.3778 3.63248 0
M  V30 8847 H 854.756 1.08965 4.48246 0
M  V30 8848 H 852.999 1.092 4.19831 0
M  V30 8849 H 853.67 0.129518 5.51848 0
M  V30 8850 H 856.146 -1.0799 4.01842 0
M  V30 8851 H 855.022 -1.84879 5.16828 0
M  V30 8852 H 855.283 -2.57787 3.59163 0
M  V30 8853 N 854.342 -1.57594 -0.0133615 0
M  V30 8854 C 855.753 -1.78168 -0.557937 0
M  V30 8855 C 856.104 -0.892616 -1.74719 0
M  V30 8856 O 855.229 -0.0915491 -2.16206 0
M  V30 8857 C 855.824 -3.23115 -1.01894 0
M  V30 8858 C 854.383 -3.44831 -1.50892 0
M  V30 8859 C 853.53 -2.73558 -0.454044 0
M  V30 8860 H 856.481 -1.57266 0.212843 0
M  V30 8861 H 856.502 -3.30493 -1.8856 0
M  V30 8862 H 856.014 -3.87798 -0.153175 0
M  V30 8863 H 854.115 -2.85345 -2.39602 0
M  V30 8864 H 854.228 -4.53485 -1.54559 0
M  V30 8865 H 852.592 -2.37787 -0.912666 0
M  V30 8866 H 853.375 -3.40932 0.402524 0
M  V30 8867 N 855.82 0.285905 -1.54985 0
M  V30 8868 C 856.752 1.37505 -1.83371 0
M  V30 8869 C 857.765 1.46138 -0.717454 0
M  V30 8870 O 858.954 1.48186 -0.995142 0
M  V30 8871 C 856.054 2.7575 -1.97016 0
M  V30 8872 C 855.227 2.89866 -3.27561 0
M  V30 8873 C 854.286 4.08704 -3.31433 0
M  V30 8874 O 853.312 4.00073 -4.04883 0
M  V30 8875 N 854.514 5.20062 -2.57907 0
M  V30 8876 H 857.279 1.13505 -2.77375 0
M  V30 8877 H 854.84 0.476006 -1.54744 0
M  V30 8878 H 856.832 3.5352 -1.96991 0
M  V30 8879 H 855.402 2.9263 -1.09938 0
M  V30 8880 H 854.622 1.99085 -3.40234 0
M  V30 8881 H 855.91 2.96219 -4.13681 0
M  V30 8882 H 855.308 5.29958 -1.97891 0
M  V30 8883 H 853.865 5.96111 -2.63619 0
M  V30 8884 N 857.298 1.47698 0.54982 0
M  V30 8885 C 858.245 1.60739 1.65625 0
M  V30 8886 C 859.215 0.450129 1.59884 0
M  V30 8887 O 860.4 0.671123 1.78607 0
M  V30 8888 C 857.54 1.63457 3.03934 0
M  V30 8889 C 856.653 2.90152 3.20056 0
M  V30 8890 C 855.788 2.84157 4.48807 0
M  V30 8891 C 854.827 4.05644 4.58387 0
M  V30 8892 N 853.964 3.97843 5.78503 0
M  V30 8893 H 858.804 2.55234 1.53817 0
M  V30 8894 H 856.341 1.26593 0.749173 0
M  V30 8895 H 858.299 1.63015 3.84034 0
M  V30 8896 H 856.929 0.724689 3.1456 0
M  V30 8897 H 855.981 3.00428 2.33339 0
M  V30 8898 H 857.293 3.80097 3.22998 0
M  V30 8899 H 856.447 2.82006 5.37175 0
M  V30 8900 H 855.186 1.91908 4.48356 0
M  V30 8901 H 854.191 4.08092 3.6843 0
M  V30 8902 H 855.416 4.9903 4.60593 0
M  V30 8903 H 853.362 3.08401 5.78986 0
M  V30 8904 H 853.279 4.81473 5.82855 0
M  V30 8905 H 854.547 3.99719 6.69212 0
M  V30 8906 N 858.776 -0.797141 1.35954 0
M  V30 8907 C 860.023 -1.55468 1.29754 0
M  V30 8908 C 860.351 -1.94095 -0.125391 0
M  V30 8909 O 859.606 -1.62341 -1.09288 0
M  V30 8910 C 859.905 -2.84847 2.15863 0
M  V30 8911 C 859.571 -2.65394 3.64523 0
M  V30 8912 C 858.233 -2.59796 4.05042 0
M  V30 8913 C 860.585 -2.4727 4.58811 0
M  V30 8914 C 857.913 -2.3403 5.38002 0
M  V30 8915 C 860.265 -2.23032 5.91979 0
M  V30 8916 C 858.929 -2.15862 6.31633 0
M  V30 8917 H 858.199 -0.568897 0.474803 0
M  V30 8918 H 860.846 -0.920299 1.67937 0
M  V30 8919 H 859.151 -3.52712 1.70591 0
M  V30 8920 H 860.848 -3.42597 2.08395 0
M  V30 8921 H 857.438 -2.70602 3.32374 0
M  V30 8922 H 861.622 -2.506 4.28384 0
M  V30 8923 H 856.878 -2.26956 5.67715 0
M  V30 8924 H 861.052 -2.08001 6.64612 0
M  V30 8925 H 858.679 -1.9566 7.34589 0
M  V30 8926 N 860.254 -1.20106 -1.0204 0
M  V30 8927 C 861.501 -1.00889 -1.75578 0
M  V30 8928 C 861.829 0.459415 -1.88996 0
M  V30 8929 O 861.084 1.35735 -1.40977 0
M  V30 8930 C 861.383 -1.63308 -3.17908 0
M  V30 8931 C 861.049 -3.13091 -3.24476 0
M  V30 8932 C 859.711 -3.53968 -3.25976 0
M  V30 8933 C 862.063 -4.09093 -3.22944 0
M  V30 8934 C 859.391 -4.89381 -3.2361 0
M  V30 8935 C 861.743 -5.44447 -3.22119 0
M  V30 8936 C 860.407 -5.84742 -3.2192 0
M  V30 8937 H 859.677 -0.36918 -0.642485 0
M  V30 8938 H 862.324 -1.49475 -1.19706 0
M  V30 8939 H 860.629 -1.06974 -3.76914 0
M  V30 8940 H 862.326 -1.45958 -3.73493 0
M  V30 8941 H 858.916 -2.80526 -3.24042 0
M  V30 8942 H 863.1 -3.78549 -3.20958 0
M  V30 8943 H 858.356 -5.1987 -3.21785 0
M  V30 8944 H 862.53 -6.18584 -3.19885 0
M  V30 8945 H 860.157 -6.89642 -3.19841 0
M  V30 8946 N 861.732 1.21287 -1.00634 0
M  V30 8947 C 862.695 2.21927 -0.572821 0
M  V30 8948 C 863.695 1.5691 0.351541 0
M  V30 8949 O 864.885 1.73623 0.141643 0
M  V30 8950 C 862.017 3.40501 0.164932 0
M  V30 8951 H 863.21 2.61795 -1.463 0
M  V30 8952 H 860.763 1.34571 -0.794998 0
M  V30 8953 H 861.498 3.06123 1.07049 0
M  V30 8954 H 861.283 3.88912 -0.498962 0
M  V30 8955 H 862.773 4.15103 0.455945 0
M  V30 8956 N 863.21 0.781244 1.36873 0
M  V30 8957 C 864.459 0.34652 1.98701 0
M  V30 8958 C 864.772 -1.08555 1.62712 0
M  V30 8959 O 865.978 -1.62213 2.17713 0
M  V30 8960 C 864.434 0.568611 3.5538 0
M  V30 8961 C 864.042 2.01156 4.003 0
M  V30 8962 C 865.786 0.197983 4.24038 0
M  V30 8963 C 863.693 2.18074 5.49725 0
M  V30 8964 H 862.623 0.125821 0.743428 0
M  V30 8965 H 865.274 0.961721 1.56279 0
M  V30 8966 H 863.656 -0.116185 3.9583 0
M  V30 8967 H 864.83 2.73209 3.71071 0
M  V30 8968 H 863.145 2.33967 3.44454 0
M  V30 8969 H 865.742 0.302778 5.33842 0
M  V30 8970 H 866.085 -0.852927 4.07469 0
M  V30 8971 H 866.618 0.835696 3.88923 0
M  V30 8972 H 863.357 3.21519 5.71232 0
M  V30 8973 H 862.877 1.50517 5.80607 0
M  V30 8974 H 864.556 1.98393 6.15832 0
M  V30 8975 N 864.689 -1.48329 0.532571 0
M  V30 8976 C 865.636 -2.29663 -0.228779 0
M  V30 8977 C 866.606 -1.37529 -0.931401 0
M  V30 8978 O 867.791 -1.66493 -0.931921 0
M  V30 8979 C 864.931 -3.20955 -1.26814 0
M  V30 8980 C 864.044 -4.28168 -0.574099 0
M  V30 8981 C 863.179 -5.06638 -1.59661 0
M  V30 8982 C 862.218 -6.05651 -0.88618 0
M  V30 8983 N 861.355 -6.77169 -1.85436 0
M  V30 8984 H 866.195 -2.94255 0.47098 0
M  V30 8985 H 863.732 -1.45061 0.2441 0
M  V30 8986 H 865.69 -3.72285 -1.88307 0
M  V30 8987 H 864.32 -2.58281 -1.93625 0
M  V30 8988 H 863.372 -3.80085 0.154827 0
M  V30 8989 H 864.684 -4.98797 -0.0163984 0
M  V30 8990 H 863.838 -5.61995 -2.28576 0
M  V30 8991 H 862.577 -4.35854 -2.18821 0
M  V30 8992 H 861.582 -5.49495 -0.182981 0
M  V30 8993 H 862.807 -6.78434 -0.300659 0
M  V30 8994 H 860.753 -6.09134 -2.43499 0
M  V30 8995 H 860.67 -7.43882 -1.34816 0
M  V30 8996 H 861.938 -7.37114 -2.53541 0
M  V30 8997 N 866.167 -0.267825 -1.55308 0
M  V30 8998 C 867.115 0.638848 -2.23655 0
M  V30 8999 C 868.109 1.16363 -1.2311 0
M  V30 9000 O 869.315 1.1181 -1.41062 0
M  V30 9001 H 865.69 0.224551 -0.717691 0
M  V30 9002 H 867.661 0.0394809 -2.98374 0
M  V30 9003 C 866.41 1.8151 -2.96562 0
M  V30 9004 H 865.733 1.42048 -3.73715 0
M  V30 9005 H 867.173 2.42629 -3.47717 0
M  V30 9006 C 865.632 2.69911 -2.01618 0
M  V30 9007 O 866.162 3.70058 -1.56268 0
M  V30 9008 N 864.368 2.36924 -1.68272 0
M  V30 9009 H 863.915 1.55533 -2.05347 0
M  V30 9010 H 863.873 2.96343 -1.05016 0
M  V30 9011 N 867.645 1.57599 0.00500368 0
M  V30 9012 C 868.575 2.11143 0.99705 0
M  V30 9013 C 869.556 1.0194 1.3617 0
M  V30 9014 O 870.741 1.29596 1.44632 0
M  V30 9015 C 867.871 2.61062 2.2905 0
M  V30 9016 C 866.825 3.74745 2.0676 0
M  V30 9017 C 866.151 4.10961 3.42075 0
M  V30 9018 C 867.451 5.02222 1.43424 0
M  V30 9019 H 869.145 2.94281 0.551251 0
M  V30 9020 H 866.691 1.41565 0.263715 0
M  V30 9021 H 868.644 2.97146 2.98801 0
M  V30 9022 H 867.368 1.75038 2.75734 0
M  V30 9023 H 866.027 3.39047 1.39436 0
M  V30 9024 H 865.675 3.21968 3.86453 0
M  V30 9025 H 865.375 4.87549 3.27979 0
M  V30 9026 H 866.899 4.49599 4.1315 0
M  V30 9027 H 868.313 5.36109 2.03125 0
M  V30 9028 H 866.71 5.83581 1.39831 0
M  V30 9029 H 867.78 4.83224 0.40285 0
M  V30 9030 N 869.123 -0.277682 1.55134 0
M  V30 9031 C 870.053 -1.34742 1.90701 0
M  V30 9032 C 871.034 -1.51757 0.768354 0
M  V30 9033 O 872.219 -1.64879 1.02609 0
M  V30 9034 C 869.349 -2.70775 2.17481 0
M  V30 9035 C 868.303 -2.68497 3.33307 0
M  V30 9036 C 867.629 -4.08037 3.45557 0
M  V30 9037 C 868.929 -2.28178 4.69821 0
M  V30 9038 H 870.623 -1.05224 2.803 0
M  V30 9039 H 868.169 -0.504738 1.34864 0
M  V30 9040 H 870.122 -3.45719 2.40949 0
M  V30 9041 H 868.846 -3.01867 1.24676 0
M  V30 9042 H 867.505 -1.9601 3.09799 0
M  V30 9043 H 867.153 -4.36344 2.50226 0
M  V30 9044 H 866.853 -4.07409 4.23429 0
M  V30 9045 H 868.377 -4.84726 3.71312 0
M  V30 9046 H 869.791 -2.92843 4.92865 0
M  V30 9047 H 868.188 -2.3872 5.50575 0
M  V30 9048 H 869.258 -1.23308 4.6896 0
M  V30 9049 N 870.601 -1.47988 -0.541979 0
M  V30 9050 C 871.531 -1.64503 -1.65713 0
M  V30 9051 C 872.512 -0.494116 -1.62765 0
M  V30 9052 O 873.697 -0.725256 -1.80149 0
M  V30 9053 C 870.827 -1.67337 -3.04328 0
M  V30 9054 C 869.781 -2.81809 -3.2213 0
M  V30 9055 C 869.107 -2.69724 -4.61685 0
M  V30 9056 C 870.407 -4.23241 -3.06046 0
M  V30 9057 H 872.101 -2.5786 -1.52147 0
M  V30 9058 H 869.647 -1.24094 -0.730529 0
M  V30 9059 H 871.6 -1.77481 -3.82202 0
M  V30 9060 H 870.324 -0.705514 -3.18889 0
M  V30 9061 H 868.983 -2.71201 -2.46669 0
M  V30 9062 H 868.631 -1.70934 -4.73065 0
M  V30 9063 H 868.331 -3.4653 -4.74543 0
M  V30 9064 H 869.855 -2.81818 -5.41674 0
M  V30 9065 H 871.269 -4.34746 -3.73723 0
M  V30 9066 H 869.666 -5.00952 -3.30405 0
M  V30 9067 H 870.736 -4.40543 -2.02609 0
M  V30 9068 N 872.079 0.78992 -1.36375 0
M  V30 9069 C 873.009 1.91683 -1.33341 0
M  V30 9070 C 873.99 1.68861 -0.204965 0
M  V30 9071 O 875.175 1.89982 -0.402531 0
M  V30 9072 C 872.305 3.28696 -1.12143 0
M  V30 9073 C 871.259 3.66041 -2.21806 0
M  V30 9074 C 870.585 5.01399 -1.85751 0
M  V30 9075 C 871.885 3.74677 -3.63888 0
M  V30 9076 H 873.579 1.94478 -2.27637 0
M  V30 9077 H 871.125 0.934271 -1.09578 0
M  V30 9078 H 873.078 4.07151 -1.08656 0
M  V30 9079 H 871.802 3.26287 -0.142974 0
M  V30 9080 H 870.461 2.89883 -2.24418 0
M  V30 9081 H 870.109 4.9551 -0.864817 0
M  V30 9082 H 869.809 5.27355 -2.59173 0
M  V30 9083 H 871.333 5.82274 -1.83819 0
M  V30 9084 H 872.747 4.43324 -3.63506 0
M  V30 9085 H 871.144 4.12118 -4.3621 0
M  V30 9086 H 872.214 2.75795 -3.9883 0
M  V30 9087 N 873.557 1.20646 1.01402 0
M  V30 9088 C 874.968 1.01823 1.56489 0
M  V30 9089 C 875.319 -0.42463 1.9155 0
M  V30 9090 O 874.444 -1.30644 1.72514 0
M  V30 9091 C 875.039 1.84208 2.84347 0
M  V30 9092 C 873.598 1.69743 3.35953 0
M  V30 9093 C 872.745 1.8198 2.09233 0
M  V30 9094 H 875.696 1.348 0.837539 0
M  V30 9095 H 875.717 1.34698 3.55861 0
M  V30 9096 H 875.229 2.89215 2.58798 0
M  V30 9097 H 873.33 0.673833 3.66456 0
M  V30 9098 H 873.443 2.51173 4.07981 0
M  V30 9099 H 871.807 1.25193 2.21808 0
M  V30 9100 H 872.59 2.88477 1.86107 0
M  V30 9101 N 875.035 -1.20752 1.01276 0
M  V30 9102 C 876.283 -1.89645 0.698505 0
M  V30 9103 C 876.604 -1.78986 -0.773883 0
M  V30 9104 O 875.874 -1.18977 -1.55632 0
M  V30 9105 H 874.454 -0.701992 0.255375 0
M  V30 9106 H 877.116 -1.46668 1.28353 0
M  V30 9107 H 876.212 -2.96364 0.978512 0
M  V30 9108 N 876.513 -0.788492 -1.36457 0
M  V30 9109 C 877.738 -0.371224 -2.04051 0
M  V30 9110 C 878.163 1.004 -1.59064 0
M  V30 9111 O 877.521 1.64663 -0.758679 0
M  V30 9112 C 877.569 -0.442275 -3.57877 0
M  V30 9113 O 876.673 0.55113 -4.08701 0
M  V30 9114 H 876.014 -0.157808 -0.644975 0
M  V30 9115 H 878.544 -1.06935 -1.74431 0
M  V30 9116 H 878.554 -0.305548 -4.06854 0
M  V30 9117 H 877.229 -1.44547 -3.89973 0
M  V30 9118 H 875.806 0.37614 -3.70998 0
M  V30 9119 N 877.991 1.48044 -0.54043 0
M  V30 9120 C 879.221 2.06595 -0.0144943 0
M  V30 9121 C 879.629 1.39593 1.27713 0
M  V30 9122 O 878.972 0.480794 1.77297 0
M  V30 9123 C 879.034 3.5849 0.269316 0
M  V30 9124 C 878.698 4.47429 -0.930372 0
M  V30 9125 C 879.695 4.8657 -1.83155 0
M  V30 9126 C 877.38 4.89185 -1.14032 0
M  V30 9127 C 879.374 5.66246 -2.92649 0
M  V30 9128 C 877.061 5.6863 -2.23838 0
M  V30 9129 C 878.059 6.07069 -3.12979 0
M  V30 9130 O 877.747 6.84917 -4.20884 0
M  V30 9131 H 877.479 0.675086 -0.0351467 0
M  V30 9132 H 880.033 1.91275 -0.74853 0
M  V30 9133 H 878.263 3.71961 1.05745 0
M  V30 9134 H 879.952 3.99124 0.738595 0
M  V30 9135 H 880.718 4.54924 -1.68134 0
M  V30 9136 H 876.597 4.58742 -0.455717 0
M  V30 9137 H 880.141 5.96169 -3.62254 0
M  V30 9138 H 876.038 5.99688 -2.38839 0
M  V30 9139 H 876.806 7.03287 -4.18723 0
M  V30 9140 N 879.47 0.276058 1.55163 0
M  V30 9141 C 880.698 -0.343772 2.04024 0
M  V30 9142 C 881.113 -1.49397 1.15438 0
M  V30 9143 O 880.47 -1.81662 0.174692 0
M  V30 9144 C 880.521 -0.823885 3.51986 0
M  V30 9145 O 880.242 0.280507 4.37201 0
M  V30 9146 C 881.743 -1.51143 4.16738 0
M  V30 9147 H 878.963 -0.07828 0.666418 0
M  V30 9148 H 881.507 0.408427 2.0038 0
M  V30 9149 H 879.662 -1.52617 3.56071 0
M  V30 9150 H 880.076 -0.0887831 5.24425 0
M  V30 9151 H 881.55 -1.79878 5.2187 0
M  V30 9152 H 882.027 -2.44327 3.64967 0
M  V30 9153 H 882.633 -0.852975 4.16659 0
M  V30 9154 N 880.948 -1.576 0.00335426 0
M  V30 9155 C 882.178 -1.94713 -0.690682 0
M  V30 9156 C 882.586 -0.876915 -1.67651 0
M  V30 9157 O 881.929 0.152434 -1.83066 0
M  V30 9158 C 881.991 -3.27833 -1.47532 0
M  V30 9159 C 881.655 -4.52344 -0.650704 0
M  V30 9160 C 882.652 -5.19862 0.0630537 0
M  V30 9161 C 880.337 -4.98755 -0.595687 0
M  V30 9162 C 882.331 -6.32093 0.820779 0
M  V30 9163 C 880.018 -6.10875 0.165761 0
M  V30 9164 C 881.016 -6.77401 0.872724 0
M  V30 9165 O 880.704 -7.87372 1.62174 0
M  V30 9166 H 880.436 -0.646627 -0.197104 0
M  V30 9167 H 882.99 -2.05335 0.0516082 0
M  V30 9168 H 881.22 -3.13628 -2.26217 0
M  V30 9169 H 882.909 -3.50034 -2.05501 0
M  V30 9170 H 883.675 -4.84991 0.0297223 0
M  V30 9171 H 879.554 -4.46797 -1.13549 0
M  V30 9172 H 883.098 -6.83953 1.37312 0
M  V30 9173 H 878.995 -6.45187 0.200901 0
M  V30 9174 H 879.763 -8.03905 1.5388 0
M  V30 9175 N 882.426 0.269451 -1.5528 0
M  V30 9176 C 883.336 1.35511 -1.91505 0
M  V30 9177 C 884.352 1.53854 -0.812712 0
M  V30 9178 O 885.528 1.67912 -1.1121 0
M  V30 9179 C 882.593 2.6937 -2.18267 0
M  V30 9180 C 881.654 2.59743 -3.41807 0
M  V30 9181 C 880.887 3.87219 -3.67283 0
M  V30 9182 O 881.11 4.88066 -2.95208 0
M  V30 9183 O 880.044 3.87209 -4.60818 0
M  V30 9184 H 883.87 1.07785 -2.8393 0
M  V30 9185 H 881.455 0.468282 -1.41871 0
M  V30 9186 H 883.337 3.48513 -2.36889 0
M  V30 9187 H 882.012 2.96874 -1.29024 0
M  V30 9188 H 880.919 1.78964 -3.28516 0
M  V30 9189 H 882.252 2.37188 -4.3128 0
M  V30 9190 N 883.904 1.48273 0.534124 0
M  V30 9191 C 885.15 1.5729 1.28963 0
M  V30 9192 C 885.505 0.241854 1.90874 0
M  V30 9193 O 884.798 -0.754874 1.76103 0
M  V30 9194 C 884.992 2.64468 2.40398 0
M  V30 9195 C 884.821 4.07865 1.8941 0
M  V30 9196 C 883.591 4.75052 1.72202 0
M  V30 9197 C 885.789 4.94163 1.42505 0
M  V30 9198 N 883.771 6.0288 1.15795 0
M  V30 9199 C 885.142 6.12203 0.980176 0
M  V30 9200 C 887.197 4.8042 1.30769 0
M  V30 9201 C 885.9 7.18016 0.429591 0
M  V30 9202 C 887.926 5.86351 0.771107 0
M  V30 9203 C 887.288 7.03597 0.336287 0
M  V30 9204 H 883.387 0.630141 0.463083 0
M  V30 9205 H 885.971 1.85135 0.602767 0
M  V30 9206 H 884.142 2.38453 3.06586 0
M  V30 9207 H 885.874 2.63194 3.07426 0
M  V30 9208 H 882.629 4.3132 1.95603 0
M  V30 9209 H 883.053 6.71043 0.896141 0
M  V30 9210 H 887.695 3.90119 1.62993 0
M  V30 9211 H 885.413 8.08044 0.0950224 0
M  V30 9212 H 888.999 5.77771 0.68354 0
M  V30 9213 H 887.879 7.84167 -0.0724668 0
M  V30 9214 N 885.382 -0.782676 1.36792 0
M  V30 9215 C 886.33 -1.91698 1.31737 0
M  V30 9216 C 887.324 -1.68118 0.207994 0
M  V30 9217 O 888.53 -1.76042 0.375393 0
M  V30 9218 H 884.905 -0.630215 0.410284 0
M  V30 9219 H 886.876 -1.93078 2.27516 0
M  V30 9220 C 885.625 -3.28816 1.13029 0
M  V30 9221 H 884.948 -3.4753 1.97643 0
M  V30 9222 H 886.388 -4.08515 1.13541 0
M  V30 9223 C 884.847 -3.36497 -0.1647 0
M  V30 9224 O 885.377 -3.84822 -1.15216 0
M  V30 9225 N 883.583 -2.89828 -0.211678 0
M  V30 9226 H 883.13 -2.50693 0.59252 0
M  V30 9227 H 883.088 -2.95349 -1.07779 0
M  V30 9228 N 886.86 -1.21182 -1.00761 0
M  V30 9229 C 888.107 -1.02746 -1.74498 0
M  V30 9230 C 888.435 0.439344 -1.89473 0
M  V30 9231 O 887.69 1.34232 -1.42409 0
M  V30 9232 C 887.989 -1.6667 -3.16158 0
M  V30 9233 C 887.655 -3.16515 -3.21137 0
M  V30 9234 C 886.317 -3.57405 -3.22203 0
M  V30 9235 C 888.669 -4.12495 -3.18587 0
M  V30 9236 C 885.997 -4.92786 -3.18401 0
M  V30 9237 C 888.349 -5.47833 -3.16326 0
M  V30 9238 C 887.013 -5.88124 -3.157 0
M  V30 9239 H 886.283 -0.375974 -0.638533 0
M  V30 9240 H 888.93 -1.50736 -1.18114 0
M  V30 9241 H 887.235 -1.10966 -3.75758 0
M  V30 9242 H 888.932 -1.49911 -3.71924 0
M  V30 9243 H 885.522 -2.83947 -3.21048 0
M  V30 9244 H 889.706 -3.81932 -3.16925 0
M  V30 9245 H 884.962 -5.23253 -3.16253 0
M  V30 9246 H 889.136 -6.21942 -3.13306 0
M  V30 9247 H 886.763 -6.92995 -3.12508 0
M  V30 9248 N 888.338 1.20213 -1.01915 0
M  V30 9249 C 889.754 1.41696 -0.734459 0
M  V30 9250 C 889.954 1.89504 0.684867 0
M  V30 9251 O 889.01 2.06556 1.45227 0
M  V30 9252 C 890.323 2.43644 -1.76233 0
M  V30 9253 C 891.871 2.57406 -1.78076 0
M  V30 9254 C 892.346 3.626 -2.79796 0
M  V30 9255 N 893.837 3.70086 -2.78551 0
M  V30 9256 C 894.572 4.51145 -3.53915 0
M  V30 9257 N 894.068 5.35988 -4.38963 0
M  V30 9258 N 895.861 4.45702 -3.425 0
M  V30 9259 H 888.012 0.874976 -1.93541 0
M  V30 9260 H 890.275 0.446647 -0.836188 0
M  V30 9261 H 889.981 2.15519 -2.77929 0
M  V30 9262 H 889.855 3.42672 -1.57657 0
M  V30 9263 H 892.242 2.8486 -0.770634 0
M  V30 9264 H 892.323 1.58565 -2.00725 0
M  V30 9265 H 891.967 3.35889 -3.80973 0
M  V30 9266 H 891.897 4.61069 -2.54407 0
M  V30 9267 H 894.388 3.09484 -2.1686 0
M  V30 9268 H 894.701 5.94932 -4.9323 0
M  V30 9269 H 893.046 5.35482 -4.4304 0
M  V30 9270 H 896.237 3.78456 -2.75478 0
M  V30 9271 H 896.41 5.08637 -4.01487 0
M  V30 9272 N 889.816 0.795718 1.36037 0
M  V30 9273 C 890.763 0.196548 2.29962 0
M  V30 9274 C 891.733 -0.663213 1.52285 0
M  V30 9275 O 892.918 -0.610574 1.80767 0
M  V30 9276 C 890.058 -0.657639 3.38776 0
M  V30 9277 C 889.171 0.221358 4.31433 0
M  V30 9278 C 888.306 -0.6398 5.27333 0
M  V30 9279 C 887.345 0.240265 6.11628 0
M  V30 9280 N 886.482 -0.580237 6.99698 0
M  V30 9281 H 891.322 1.00295 2.80615 0
M  V30 9282 H 888.859 0.506147 1.38118 0
M  V30 9283 H 890.817 -1.16793 4.00519 0
M  V30 9284 H 889.447 -1.42941 2.89426 0
M  V30 9285 H 888.499 0.84967 3.70789 0
M  V30 9286 H 889.811 0.899195 4.90628 0
M  V30 9287 H 888.965 -1.21566 5.94396 0
M  V30 9288 H 887.704 -1.35124 4.68607 0
M  V30 9289 H 886.709 0.828474 5.43522 0
M  V30 9290 H 887.934 0.949403 6.72431 0
M  V30 9291 H 885.88 -1.27585 6.43473 0
M  V30 9292 H 885.797 0.0397853 7.5599 0
M  V30 9293 H 887.065 -1.13972 7.71123 0
M  V30 9294 N 891.294 -1.47756 0.548274 0
M  V30 9295 C 892.571 -1.9555 -0.0443603 0
M  V30 9296 C 892.951 -1.49079 -1.49462 0
M  V30 9297 O 892.299 -0.725538 -2.16675 0
M  V30 9298 C 892.509 -3.48879 0.0918425 0
M  V30 9299 C 893.857 -4.2456 -0.0580879 0
M  V30 9300 O 894.881 -3.56195 0.018946 0
M  V30 9301 O 893.74 -5.46048 -0.222261 0
M  V30 9302 H 890.834 -0.824106 -0.0691235 0
M  V30 9303 H 893.38 -1.58196 0.614166 0
M  V30 9304 H 892.152 -3.7548 1.10137 0
M  V30 9305 H 891.775 -3.92975 -0.604704 0
M  V30 9306 N 892.772 -0.284283 -1.55015 0
M  V30 9307 C 894.018 0.330352 -2.00091 0
M  V30 9308 C 894.351 1.54814 -1.17244 0
M  V30 9309 O 893.626 1.92954 -0.244753 0
M  V30 9310 C 893.909 0.703492 -3.53161 0
M  V30 9311 C 893.762 -0.522275 -4.46758 0
M  V30 9312 C 895.081 1.53645 -4.12409 0
M  V30 9313 H 892.2 0.118599 -0.727395 0
M  V30 9314 H 894.842 -0.393054 -1.8589 0
M  V30 9315 H 892.992 1.31983 -3.65394 0
M  V30 9316 H 894.664 -1.16082 -4.46456 0
M  V30 9317 H 892.907 -1.15865 -4.1804 0
M  V30 9318 H 893.578 -0.217295 -5.51572 0
M  V30 9319 H 896.054 1.01583 -4.0351 0
M  V30 9320 H 894.93 1.76633 -5.19704 0
M  V30 9321 H 895.191 2.5204 -3.63219 0
M  V30 9322 N 894.251 1.57596 -0.0117121 0
M  V30 9323 C 895.199 2.1029 0.994035 0
M  V30 9324 C 896.193 1.02549 1.34833 0
M  V30 9325 O 897.399 1.21003 1.3326 0
M  V30 9326 H 893.774 0.671624 0.338268 0
M  V30 9327 H 895.745 2.93761 0.524147 0
M  V30 9328 C 894.494 2.63099 2.27319 0
M  V30 9329 H 893.817 3.45642 2.00927 0
M  V30 9330 H 895.257 3.03635 2.95942 0
M  V30 9331 C 893.716 1.55044 2.99104 0
M  V30 9332 O 894.246 0.940127 3.90544 0
M  V30 9333 N 892.452 1.27506 2.61133 0
M  V30 9334 H 891.999 1.77322 1.86855 0
M  V30 9335 H 891.957 0.554292 3.09475 0
M  V30 9336 N 895.729 -0.261212 1.5542 0
M  V30 9337 C 896.662 -1.34906 1.84054 0
M  V30 9338 C 897.64 -1.47024 0.694466 0
M  V30 9339 O 898.824 -1.63463 0.938719 0
M  V30 9340 C 895.951 -2.7242 2.01259 0
M  V30 9341 C 894.997 -2.77526 3.23855 0
M  V30 9342 S 895.83 -2.35578 4.80898 0
M  V30 9343 C 896.986 -3.75045 5.01091 0
M  V30 9344 H 897.219 -1.10416 2.76035 0
M  V30 9345 H 894.752 -0.461461 1.47343 0
M  V30 9346 H 896.71 -3.51606 2.11857 0
M  V30 9347 H 895.371 -2.94155 1.10145 0
M  V30 9348 H 894.564 -3.78483 3.32816 0
M  V30 9349 H 894.166 -2.0637 3.11909 0
M  V30 9350 H 896.458 -4.7042 4.87556 0
M  V30 9351 H 897.401 -3.71027 6.03112 0
M  V30 9352 H 897.809 -3.66894 4.29009 0
M  V30 9353 N 897.207 -1.48554 -0.526253 0
M  V30 9354 C 898.453 -1.56994 -1.28378 0
M  V30 9355 C 898.786 -0.244701 -1.92652 0
M  V30 9356 O 898.061 0.749636 -1.79473 0
M  V30 9357 C 898.344 -2.71092 -2.37026 0
M  V30 9358 C 898.197 -4.13331 -1.77418 0
M  V30 9359 C 899.516 -2.80934 -3.38769 0
M  V30 9360 H 896.635 -0.571466 -0.465398 0
M  V30 9361 H 899.277 -1.80742 -0.585861 0
M  V30 9362 H 897.427 -2.50973 -2.96555 0
M  V30 9363 H 899.099 -4.44899 -1.21912 0
M  V30 9364 H 897.342 -4.20158 -1.07936 0
M  V30 9365 H 898.013 -4.88994 -2.56104 0
M  V30 9366 H 900.489 -2.9917 -2.892 0
M  V30 9367 H 899.365 -3.62489 -4.12181 0
M  V30 9368 H 899.626 -1.89244 -3.99549 0
M  V30 9369 N 898.685 0.775411 -1.37205 0
M  V30 9370 C 899.615 1.90258 -1.35367 0
M  V30 9371 C 900.596 1.68634 -0.222864 0
M  V30 9372 O 901.781 1.89545 -0.422659 0
M  V30 9373 C 898.911 3.27488 -1.15623 0
M  V30 9374 C 897.865 3.63668 -2.25676 0
M  V30 9375 C 897.191 4.994 -1.91059 0
M  V30 9376 C 898.491 3.70797 -3.67841 0
M  V30 9377 H 900.185 1.92053 -2.29687 0
M  V30 9378 H 897.731 0.922597 -1.10563 0
M  V30 9379 H 899.684 4.05976 -1.12968 0
M  V30 9380 H 898.408 3.26117 -0.177573 0
M  V30 9381 H 897.067 2.87486 -2.2748 0
M  V30 9382 H 896.715 4.94565 -0.917324 0
M  V30 9383 H 896.415 5.24576 -2.64751 0
M  V30 9384 H 897.939 5.80291 -1.89985 0
M  V30 9385 H 899.353 4.39444 -3.68187 0
M  V30 9386 H 897.75 4.07468 -4.40556 0
M  V30 9387 H 898.82 2.71549 -4.01732 0
M  V30 9388 N 900.163 1.21714 1.00117 0
M  V30 9389 C 901.095 0.937627 2.09144 0
M  V30 9390 C 902.108 -0.0806291 1.626 0
M  V30 9391 O 903.297 0.152348 1.77849 0
M  V30 9392 C 900.397 0.387036 3.36683 0
M  V30 9393 C 899.57 1.46054 4.12295 0
M  V30 9394 C 898.629 0.918505 5.18122 0
M  V30 9395 O 897.655 1.60282 5.46167 0
M  V30 9396 N 898.857 -0.264308 5.79898 0
M  V30 9397 H 901.622 1.87622 2.33705 0
M  V30 9398 H 899.183 1.12291 1.16629 0
M  V30 9399 H 901.175 0.00992825 4.04699 0
M  V30 9400 H 899.745 -0.456467 3.09249 0
M  V30 9401 H 898.965 2.01133 3.39027 0
M  V30 9402 H 900.253 2.18306 4.59587 0
M  V30 9403 H 899.651 -0.837242 5.5947 0
M  V30 9404 H 898.208 -0.582886 6.49188 0
M  V30 9405 N 901.641 -1.19671 1.02551 0
M  V30 9406 C 902.866 -1.93774 0.739363 0
M  V30 9407 C 903.291 -1.74787 -0.695064 0
M  V30 9408 O 902.649 -1.04796 -1.47944 0
M  V30 9409 C 902.697 -3.43684 1.09149 0
M  V30 9410 O 901.801 -4.11874 0.208213 0
M  V30 9411 H 901.142 -0.605064 0.273484 0
M  V30 9412 H 903.672 -1.51846 1.37128 0
M  V30 9413 H 903.682 -3.94339 1.04695 0
M  V30 9414 H 902.357 -3.56826 2.13654 0
M  V30 9415 H 900.934 -3.716 0.311045 0
M  V30 9416 N 903.119 -0.802921 -1.35613 0
M  V30 9417 C 904.344 -0.392846 -2.03645 0
M  V30 9418 C 904.769 0.987075 -1.6012 0
M  V30 9419 O 904.127 1.63849 -0.776101 0
M  V30 9420 C 904.175 -0.480208 -3.57388 0
M  V30 9421 O 903.279 0.507751 -4.09262 0
M  V30 9422 H 902.62 -0.16464 -0.643265 0
M  V30 9423 H 905.15 -1.08779 -1.73287 0
M  V30 9424 H 905.16 -0.348683 -4.06507 0
M  V30 9425 H 903.835 -1.48675 -3.88418 0
M  V30 9426 H 902.412 0.336769 -3.71376 0
M  V30 9427 N 904.597 1.47463 -0.556102 0
M  V30 9428 C 905.527 2.32801 0.180497 0
M  V30 9429 C 906.508 1.43721 0.909848 0
M  V30 9430 O 907.693 1.72578 0.89053 0
M  V30 9431 C 904.823 3.25478 1.21167 0
M  V30 9432 C 903.777 4.2379 0.598846 0
M  V30 9433 C 903.103 5.05783 1.73457 0
M  V30 9434 C 904.403 5.20387 -0.446659 0
M  V30 9435 H 906.097 2.94636 -0.531956 0
M  V30 9436 H 903.643 1.41683 -0.257267 0
M  V30 9437 H 905.596 3.8402 1.73513 0
M  V30 9438 H 904.32 2.61695 1.95405 0
M  V30 9439 H 902.979 3.66472 0.0966897 0
M  V30 9440 H 902.627 4.38405 2.46596 0
M  V30 9441 H 902.327 5.72343 1.33031 0
M  V30 9442 H 903.851 5.67183 2.26131 0
M  V30 9443 H 905.265 5.73299 -0.00930019 0
M  V30 9444 H 903.662 5.95143 -0.769735 0
M  V30 9445 H 904.732 4.65932 -1.34295 0
M  V30 9446 N 906.075 0.2925 1.54862 0
M  V30 9447 C 907.323 -0.318633 1.99572 0
M  V30 9448 C 907.644 -1.55062 1.1824 0
M  V30 9449 O 906.914 -1.93943 0.276226 0
M  V30 9450 H 905.494 -0.120722 0.737181 0
M  V30 9451 H 908.156 0.401862 1.90712 0
M  V30 9452 H 907.252 -0.596542 3.06346 0
M  V30 9453 N 907.553 -1.57587 0.0200696 0
M  V30 9454 C 908.501 -2.10814 -0.982868 0
M  V30 9455 C 909.495 -1.03263 -1.34287 0
M  V30 9456 O 910.701 -1.21708 -1.32617 0
M  V30 9457 H 907.076 -0.673409 -0.334701 0
M  V30 9458 H 909.047 -2.94034 -0.50856 0
M  V30 9459 C 907.796 -2.64301 -2.25921 0
M  V30 9460 H 907.119 -3.46703 -1.99091 0
M  V30 9461 H 908.559 -3.052 -2.94328 0
M  V30 9462 C 907.018 -1.56628 -2.98277 0
M  V30 9463 O 907.548 -0.960825 -3.9004 0
M  V30 9464 N 905.754 -1.28889 -2.60453 0
M  V30 9465 H 905.301 -1.7831 -1.85912 0
M  V30 9466 H 905.259 -0.570697 -3.09177 0
M  V30 9467 N 909.032 0.252966 -1.55557 0
M  V30 9468 C 910.309 1.00432 -1.67847 0
M  V30 9469 C 910.689 2.03587 -0.55816 0
M  V30 9470 O 910.037 2.24239 0.439197 0
M  V30 9471 C 910.247 1.64313 -3.079 0
M  V30 9472 C 911.595 2.14726 -3.66303 0
M  V30 9473 O 912.619 1.74264 -3.10661 0
M  V30 9474 O 911.478 2.89 -4.63833 0
M  V30 9475 H 908.572 0.467102 -0.682455 0
M  V30 9476 H 911.118 0.247233 -1.67889 0
M  V30 9477 H 909.89 0.896681 -3.80888 0
M  V30 9478 H 909.513 2.46657 -3.11843 0
M  V30 9479 N 910.51 1.48831 0.518367 0
M  V30 9480 C 911.44 1.67119 1.63075 0
M  V30 9481 C 912.421 0.519948 1.61958 0
M  V30 9482 O 913.606 0.753824 1.78972 0
M  V30 9483 C 910.736 1.72158 3.01627 0
M  V30 9484 C 909.69 2.86898 3.17606 0
M  V30 9485 C 909.016 2.77035 4.57335 0
M  V30 9486 C 910.316 4.28057 2.99274 0
M  V30 9487 H 912.01 2.60248 1.48025 0
M  V30 9488 H 909.556 1.2524 0.710694 0
M  V30 9489 H 911.509 1.83539 3.7933 0
M  V30 9490 H 910.233 0.756157 3.17726 0
M  V30 9491 H 908.892 2.75091 2.42323 0
M  V30 9492 H 908.54 1.78438 4.70286 0
M  V30 9493 H 908.24 3.54036 4.6897 0
M  V30 9494 H 909.764 2.904 5.37122 0
M  V30 9495 H 911.178 4.40636 3.6676 0
M  V30 9496 H 909.575 5.06145 3.22393 0
M  V30 9497 H 910.645 4.4371 1.95574 0
M  V30 9498 N 911.988 -0.768124 1.37614 0
M  V30 9499 C 913.404 -1.06919 1.18493 0
M  V30 9500 C 913.604 -2.01486 0.0235753 0
M  V30 9501 O 912.66 -2.4438 -0.635209 0
M  V30 9502 C 913.973 -1.66321 2.50515 0
M  V30 9503 C 915.521 -1.78562 2.57069 0
M  V30 9504 C 915.996 -2.41377 3.89231 0
M  V30 9505 N 917.487 -2.48824 3.90693 0
M  V30 9506 C 918.222 -2.98288 4.89706 0
M  V30 9507 N 917.718 -3.47897 5.99115 0
M  V30 9508 N 919.511 -2.97196 4.77107 0
M  V30 9509 H 911.662 -0.140286 2.11936 0
M  V30 9510 H 913.925 -0.124863 0.939741 0
M  V30 9511 H 913.631 -1.04303 3.35878 0
M  V30 9512 H 913.505 -2.65571 2.67866 0
M  V30 9513 H 915.892 -2.39712 1.72111 0
M  V30 9514 H 915.973 -0.780574 2.43599 0
M  V30 9515 H 915.617 -1.80866 4.74605 0
M  V30 9516 H 915.547 -3.42495 4.00006 0
M  V30 9517 H 918.038 -2.1372 3.1166 0
M  V30 9518 H 918.351 -3.84053 6.70614 0
M  V30 9519 H 916.696 -3.45993 6.02755 0
M  V30 9520 H 919.887 -2.57741 3.90752 0
M  V30 9521 H 920.06 -3.35434 5.54426 0
M  V30 9522 N 913.466 -1.22244 -0.994698 0
M  V30 9523 C 914.712 -1.04746 -1.73655 0
M  V30 9524 C 915.045 0.41668 -1.89677 0
M  V30 9525 O 914.32 1.30897 -1.43862 0
M  V30 9526 C 914.603 -1.75716 -3.14318 0
M  V30 9527 C 914.456 -3.29714 -3.05955 0
M  V30 9528 C 915.775 -1.50809 -4.13455 0
M  V30 9529 H 912.894 -0.381921 -0.630322 0
M  V30 9530 H 915.536 -1.50559 -1.15897 0
M  V30 9531 H 913.686 -1.3677 -3.63629 0
M  V30 9532 H 915.358 -3.78093 -2.64279 0
M  V30 9533 H 913.601 -3.59484 -2.42804 0
M  V30 9534 H 914.272 -3.74547 -4.05485 0
M  V30 9535 H 916.748 -1.84636 -3.72892 0
M  V30 9536 H 915.624 -2.02964 -5.09997 0
M  V30 9537 H 915.885 -0.440292 -4.39902 0
M  V30 9538 N 914.944 1.19125 -1.03184 0
M  V30 9539 C 916.221 1.84674 -0.644574 0
M  V30 9540 C 916.601 1.92042 0.876534 0
M  V30 9541 O 915.949 1.43965 1.77444 0
M  V30 9542 C 916.159 3.23477 -1.3101 0
M  V30 9543 C 917.507 3.99608 -1.43524 0
M  V30 9544 O 918.531 3.32886 -1.2675 0
M  V30 9545 O 917.39 5.19132 -1.70776 0
M  V30 9546 H 914.484 0.795968 -0.22442 0
M  V30 9547 H 917.03 1.2659 -1.13018 0
M  V30 9548 H 915.802 3.12967 -2.34878 0
M  V30 9549 H 915.425 3.89209 -0.812547 0
M  V30 9550 N 916.422 0.810101 1.35185 0
M  V30 9551 C 917.67 0.391343 1.98275 0
M  V30 9552 C 917.991 -1.04592 1.64577 0
M  V30 9553 O 917.261 -1.72417 0.93001 0
M  V30 9554 H 915.841 0.141715 0.733434 0
M  V30 9555 H 918.503 1.03672 1.6504 0
M  V30 9556 H 917.599 0.49991 3.0807 0
M  V30 9557 N 917.9 -1.47166 0.563914 0
M  V30 9558 C 918.863 -2.28571 -0.169624 0
M  V30 9559 C 919.863 -1.37331 -0.836467 0
M  V30 9560 O 921.053 -1.59896 -0.6913 0
M  V30 9561 C 918.185 -3.17201 -1.24886 0
M  V30 9562 H 919.378 -2.94896 0.545539 0
M  V30 9563 H 916.931 -1.52966 0.321121 0
M  V30 9564 H 917.666 -2.55582 -1.99621 0
M  V30 9565 H 917.451 -3.84356 -0.775426 0
M  V30 9566 H 918.941 -3.7852 -1.76388 0
M  V30 9567 N 919.378 -0.300708 -1.54705 0
M  V30 9568 C 920.603 0.314073 -2.05008 0
M  V30 9569 C 921.028 1.46759 -1.17657 0
M  V30 9570 O 920.386 1.80398 -0.180598 0
M  V30 9571 C 920.434 0.748243 -3.52752 0
M  V30 9572 O 919.538 1.85305 -3.68424 0
M  V30 9573 H 918.879 0.0610139 -0.661191 0
M  V30 9574 H 921.409 -0.442467 -1.99758 0
M  V30 9575 H 921.419 1.03713 -3.94598 0
M  V30 9576 H 920.094 -0.095573 -4.1579 0
M  V30 9577 H 918.671 1.56473 -3.38483 0
M  V30 9578 N 920.856 1.57574 -0.0284266 0
M  V30 9579 C 922.105 1.9095 0.649704 0
M  V30 9580 C 922.418 0.906421 1.7333 0
M  V30 9581 O 923.624 1.1314 2.46803 0
M  V30 9582 C 922.08 3.39061 1.20687 0
M  V30 9583 C 921.688 4.47726 0.156597 0
M  V30 9584 C 923.432 3.81505 1.86156 0
M  V30 9585 C 921.339 5.86935 0.725365 0
M  V30 9586 H 920.269 0.712589 0.24644 0
M  V30 9587 H 922.92 1.83261 -0.0936143 0
M  V30 9588 H 921.302 3.41679 2.00178 0
M  V30 9589 H 922.476 4.56667 -0.6158 0
M  V30 9590 H 920.791 4.14481 -0.399288 0
M  V30 9591 H 923.388 4.82865 2.29665 0
M  V30 9592 H 923.731 3.16529 2.70398 0
M  V30 9593 H 924.264 3.81307 1.13356 0
M  V30 9594 H 921.003 6.55453 -0.0789081 0
M  V30 9595 H 920.523 5.81602 1.46627 0
M  V30 9596 H 922.202 6.35483 1.21532 0
M  V30 9597 N 922.334 -0.244713 1.55689 0
M  V30 9598 C 923.281 -1.30301 1.905 0
M  V30 9599 C 924.251 -1.4772 0.759478 0
M  V30 9600 O 925.436 -1.61667 1.01333 0
M  V30 9601 C 922.576 -2.653 2.20703 0
M  V30 9602 C 921.689 -2.55872 3.48071 0
M  V30 9603 C 920.824 -3.83238 3.67834 0
M  V30 9604 C 919.863 -3.68436 4.88796 0
M  V30 9605 N 919 -4.877 5.05068 0
M  V30 9606 H 923.84 -0.999143 2.80751 0
M  V30 9607 H 921.377 -0.482099 1.38976 0
M  V30 9608 H 923.335 -3.43884 2.36219 0
M  V30 9609 H 921.965 -2.93831 1.33653 0
M  V30 9610 H 921.017 -1.68846 3.40874 0
M  V30 9611 H 922.329 -2.40845 4.36801 0
M  V30 9612 H 921.483 -4.70266 3.83321 0
M  V30 9613 H 920.222 -4.01165 2.77341 0
M  V30 9614 H 919.227 -2.79793 4.73282 0
M  V30 9615 H 920.452 -3.52003 5.8075 0
M  V30 9616 H 918.398 -5.05983 4.17513 0
M  V30 9617 H 918.315 -4.75312 5.8789 0
M  V30 9618 H 919.583 -5.76219 5.24969 0
M  V30 9619 N 923.813 -1.49104 -0.510467 0
M  V30 9620 C 925.06 -1.58112 -1.26518 0
M  V30 9621 C 925.388 -0.263603 -1.92705 0
M  V30 9622 O 924.643 0.747743 -1.80852 0
M  V30 9623 C 924.942 -2.68259 -2.36161 0
M  V30 9624 C 924.608 -4.10069 -1.87495 0
M  V30 9625 C 923.27 -4.48662 -1.73942 0
M  V30 9626 C 925.622 -4.98859 -1.5096 0
M  V30 9627 C 922.95 -5.73829 -1.22217 0
M  V30 9628 C 925.302 -6.24535 -1.00691 0
M  V30 9629 C 923.966 -6.61967 -0.857691 0
M  V30 9630 H 923.236 -0.578574 -0.462962 0
M  V30 9631 H 925.883 -1.82899 -0.567475 0
M  V30 9632 H 924.188 -2.37407 -3.11681 0
M  V30 9633 H 925.885 -2.7244 -2.9424 0
M  V30 9634 H 922.475 -3.79601 -1.99001 0
M  V30 9635 H 926.659 -4.69706 -1.60282 0
M  V30 9636 H 921.915 -6.01539 -1.09368 0
M  V30 9637 H 926.089 -6.9272 -0.71498 0
M  V30 9638 H 923.716 -7.58839 -0.454702 0
M  V30 9639 N 925.291 0.760815 -1.38019 0
M  V30 9640 C 926.568 1.5098 -1.24356 0
M  V30 9641 C 926.948 2.10507 0.158169 0
M  V30 9642 O 926.296 1.96455 1.16695 0
M  V30 9643 C 926.506 2.58195 -2.34811 0
M  V30 9644 C 927.854 3.25297 -2.72886 0
M  V30 9645 O 928.878 2.68496 -2.34069 0
M  V30 9646 O 927.737 4.28018 -3.39799 0
M  V30 9647 H 924.831 0.66921 -0.485888 0
M  V30 9648 H 927.377 0.796844 -1.49828 0
M  V30 9649 H 926.149 2.12406 -3.28633 0
M  V30 9650 H 925.772 3.37079 -2.10864 0
M  V30 9651 N 926.769 1.22769 0.988202 0
M  V30 9652 C 927.994 1.08239 1.76915 0
M  V30 9653 C 928.419 -0.362519 1.84574 0
M  V30 9654 O 927.777 -1.26202 1.30165 0
M  V30 9655 C 927.825 1.70363 3.17819 0
M  V30 9656 O 926.929 0.960484 4.01059 0
M  V30 9657 H 926.27 0.379872 0.544604 0
M  V30 9658 H 928.8 1.62663 1.24104 0
M  V30 9659 H 928.81 1.7528 3.6843 0
M  V30 9660 H 927.485 2.75505 3.1156 0
M  V30 9661 H 926.062 0.987667 3.59582 0
M  V30 9662 N 928.247 -1.18576 1.03814 0
M  V30 9663 C 929.496 -1.87822 0.735235 0
M  V30 9664 C 929.809 -1.81069 -0.739819 0
M  V30 9665 O 931.015 -2.45654 -1.15614 0
M  V30 9666 C 929.471 -3.36941 1.26486 0
M  V30 9667 C 929.079 -3.5223 2.76836 0
M  V30 9668 C 930.823 -4.11604 1.03836 0
M  V30 9669 C 928.73 -4.95294 3.23169 0
M  V30 9670 H 927.66 -0.703487 0.271333 0
M  V30 9671 H 930.311 -1.34 1.25365 0
M  V30 9672 H 928.693 -3.90217 0.674318 0
M  V30 9673 H 929.867 -3.09239 3.41625 0
M  V30 9674 H 928.182 -2.90969 2.97869 0
M  V30 9675 H 930.779 -5.17123 1.3597 0
M  V30 9676 H 931.122 -4.16293 -0.0244945 0
M  V30 9677 H 931.655 -3.64494 1.59338 0
M  V30 9678 H 928.394 -4.95772 4.28824 0
M  V30 9679 H 927.914 -5.3901 2.63113 0
M  V30 9680 H 929.593 -5.63996 3.17045 0
M  V30 9681 N 929.725 -0.817259 -1.34754 0
M  V30 9682 C 930.965 -0.408429 -2.00278 0
M  V30 9683 C 931.329 1.00818 -1.634 0
M  V30 9684 O 932.53 1.51959 -2.21725 0
M  V30 9685 C 930.801 -0.598219 -3.52358 0
M  V30 9686 S 932.36 -0.281395 -4.37897 0
M  V30 9687 H 929.178 -0.154587 -0.693991 0
M  V30 9688 H 931.78 -1.06184 -1.6415 0
M  V30 9689 H 930.484 -1.62901 -3.76685 0
M  V30 9690 H 930.015 0.0701299 -3.93337 0
M  V30 9691 H 932.03 0.907024 -4.8784 0
M  V30 9692 N 931.203 1.46865 -0.571711 0
M  V30 9693 C 932.133 2.3298 0.155795 0
M  V30 9694 C 933.114 1.44678 0.894553 0
M  V30 9695 O 934.299 1.73513 0.872176 0
M  V30 9696 C 931.429 3.26745 1.17708 0
M  V30 9697 C 930.383 4.24401 0.553863 0
M  V30 9698 C 929.709 5.07595 1.68083 0
M  V30 9699 C 931.009 5.19884 -0.501827 0
M  V30 9700 H 932.703 2.94056 -0.563176 0
M  V30 9701 H 930.249 1.41402 -0.27228 0
M  V30 9702 H 932.202 3.85838 1.6943 0
M  V30 9703 H 930.926 2.63753 1.92618 0
M  V30 9704 H 929.585 3.66554 0.057815 0
M  V30 9705 H 929.233 4.40996 2.41933 0
M  V30 9706 H 928.933 5.73722 1.26953 0
M  V30 9707 H 930.457 5.6955 2.20103 0
M  V30 9708 H 931.871 5.73257 -0.0701057 0
M  V30 9709 H 930.268 5.94293 -0.832815 0
M  V30 9710 H 931.338 4.64482 -1.39229 0
M  V30 9711 N 932.681 0.308908 1.54543 0
M  V30 9712 C 933.911 -0.299983 2.04411 0
M  V30 9713 C 934.319 -1.47463 1.18538 0
M  V30 9714 O 933.662 -1.82547 0.205463 0
M  V30 9715 C 933.724 -0.811579 3.50219 0
M  V30 9716 C 933.388 0.238834 4.56375 0
M  V30 9717 C 934.385 1.06997 5.08771 0
M  V30 9718 C 932.07 0.382808 5.00839 0
M  V30 9719 C 934.064 2.03096 6.04178 0
M  V30 9720 C 931.751 1.34723 5.96065 0
M  V30 9721 C 932.749 2.16978 6.47618 0
M  V30 9722 O 932.437 3.11783 7.40977 0
M  V30 9723 H 932.169 -0.0679682 0.672574 0
M  V30 9724 H 934.723 0.448815 2.00437 0
M  V30 9725 H 932.953 -1.61104 3.51543 0
M  V30 9726 H 934.642 -1.33721 3.83241 0
M  V30 9727 H 935.408 0.969654 4.75208 0
M  V30 9728 H 931.287 -0.247507 4.60335 0
M  V30 9729 H 934.831 2.67338 6.44342 0
M  V30 9730 H 930.728 1.44824 6.29044 0
M  V30 9731 H 931.496 3.06853 7.58804 0
M  V30 9732 N 934.159 -1.57557 0.0367827 0
M  V30 9733 C 935.122 -2.09591 -0.927589 0
M  V30 9734 C 936.122 -1.01252 -1.24919 0
M  V30 9735 O 937.312 -1.27382 -1.18825 0
M  V30 9736 C 934.444 -2.56816 -2.24184 0
M  V30 9737 H 935.637 -2.96086 -0.476784 0
M  V30 9738 H 933.19 -1.54864 -0.211385 0
M  V30 9739 H 933.925 -1.73673 -2.73876 0
M  V30 9740 H 933.71 -3.35973 -2.0215 0
M  V30 9741 H 935.2 -2.97271 -2.93291 0
M  V30 9742 N 935.637 0.236453 -1.55816 0
M  V30 9743 C 936.865 0.980295 -1.82203 0
M  V30 9744 C 937.28 1.7854 -0.613926 0
M  V30 9745 O 936.637 1.77661 0.417491 0
M  V30 9746 C 936.688 1.90982 -3.06933 0
M  V30 9747 O 936.409 1.13728 -4.23081 0
M  V30 9748 C 937.91 2.76879 -3.46198 0
M  V30 9749 H 935.13 0.28799 -0.606055 0
M  V30 9750 H 937.674 0.256182 -2.02889 0
M  V30 9751 H 935.829 2.58808 -2.88266 0
M  V30 9752 H 936.243 1.76694 -4.93842 0
M  V30 9753 H 937.717 3.37831 -4.36548 0
M  V30 9754 H 938.194 3.48522 -2.67262 0
M  V30 9755 H 938.8 2.1449 -3.67252 0
M  V30 9756 N 937.115 1.49373 0.502552 0
M  V30 9757 C 938.362 1.58781 1.25678 0
M  V30 9758 C 938.69 0.273819 1.92563 0
M  V30 9759 O 937.945 -0.738141 1.81246 0
M  V30 9760 C 938.244 2.69508 2.34735 0
M  V30 9761 C 937.91 4.11057 1.85318 0
M  V30 9762 C 936.572 4.49578 1.7156 0
M  V30 9763 C 938.924 4.99653 1.48312 0
M  V30 9764 C 936.252 5.74469 1.19172 0
M  V30 9765 C 938.604 6.2506 0.97377 0
M  V30 9766 C 937.268 6.62412 0.822573 0
M  V30 9767 H 936.538 0.581021 0.459887 0
M  V30 9768 H 939.185 1.83197 0.557767 0
M  V30 9769 H 937.49 2.39057 3.10418 0
M  V30 9770 H 939.187 2.73997 2.92791 0
M  V30 9771 H 935.777 3.80651 1.96985 0
M  V30 9772 H 939.961 4.70549 1.57789 0
M  V30 9773 H 935.217 6.0211 1.06176 0
M  V30 9774 H 939.391 6.93089 0.678233 0
M  V30 9775 H 937.018 7.59069 0.414453 0
M  V30 9776 N 938.594 -0.753485 1.38421 0
M  V30 9777 C 939.841 -1.51261 1.34634 0
M  V30 9778 C 940.169 -1.94396 -0.0635771 0
M  V30 9779 O 939.424 -1.65736 -1.04068 0
M  V30 9780 C 939.723 -2.77836 2.24816 0
M  V30 9781 C 939.389 -2.53662 3.72782 0
M  V30 9782 C 938.051 -2.46779 4.13103 0
M  V30 9783 C 940.403 -2.32548 4.66445 0
M  V30 9784 C 937.731 -2.16796 5.45176 0
M  V30 9785 C 940.083 -2.04085 5.98775 0
M  V30 9786 C 938.747 -1.95658 6.3818 0
M  V30 9787 H 938.017 -0.553503 0.492661 0
M  V30 9788 H 940.664 -0.866406 1.7078 0
M  V30 9789 H 938.969 -3.47106 1.81726 0
M  V30 9790 H 940.666 -3.35793 2.19189 0
M  V30 9791 H 937.256 -2.59891 3.40815 0
M  V30 9792 H 941.44 -2.36845 4.3614 0
M  V30 9793 H 936.696 -2.0878 5.74648 0
M  V30 9794 H 940.87 -1.86751 6.70893 0
M  V30 9795 H 938.497 -1.7219 7.40442 0
M  V30 9796 N 940.072 -1.23292 -0.981677 0
M  V30 9797 C 941.483 -1.05936 -1.53735 0
M  V30 9798 C 941.834 0.373695 -1.92608 0
M  V30 9799 O 940.959 1.26024 -1.75917 0
M  V30 9800 C 941.554 -1.91682 -2.79363 0
M  V30 9801 C 940.113 -1.78591 -3.31334 0
M  V30 9802 C 939.26 -1.87463 -2.04335 0
M  V30 9803 H 942.211 -1.36973 -0.801505 0
M  V30 9804 H 942.232 -1.44085 -3.52164 0
M  V30 9805 H 941.744 -2.95975 -2.51039 0
M  V30 9806 H 939.845 -0.770755 -3.64541 0
M  V30 9807 H 939.958 -2.61902 -4.01179 0
M  V30 9808 H 938.322 -1.3103 -2.18411 0
M  V30 9809 H 939.105 -2.9331 -1.78394 0
M  V30 9810 N 941.55 1.18024 -1.04442 0
M  V30 9811 C 942.483 2.20623 -0.583171 0
M  V30 9812 C 943.461 1.57994 0.384262 0
M  V30 9813 O 944.645 1.86135 0.297673 0
M  V30 9814 C 941.772 3.38378 0.147561 0
M  V30 9815 C 940.818 4.19423 -0.773711 0
M  V30 9816 S 941.651 4.85534 -2.25869 0
M  V30 9817 C 942.807 6.06686 -1.53891 0
M  V30 9818 H 943.04 2.59406 -1.45244 0
M  V30 9819 H 940.573 1.28518 -0.855708 0
M  V30 9820 H 942.531 4.06621 0.562988 0
M  V30 9821 H 941.192 2.97998 0.992765 0
M  V30 9822 H 940.385 5.03568 -0.208694 0
M  V30 9823 H 939.987 3.56579 -1.12816 0
M  V30 9824 H 942.279 6.72347 -0.834045 0
M  V30 9825 H 943.222 6.67702 -2.35755 0
M  V30 9826 H 943.63 5.55031 -1.02961 0
M  V30 9827 N 943.028 0.824394 1.34319 0
M  V30 9828 C 943.991 0.252696 2.27803 0
M  V30 9829 C 944.991 -0.570254 1.50349 0
M  V30 9830 O 946.181 -0.386145 1.69866 0
M  V30 9831 C 943.313 -0.645575 3.34731 0
M  V30 9832 H 944.506 1.07742 2.79878 0
M  V30 9833 H 942.059 0.596367 1.44475 0
M  V30 9834 H 942.794 -1.4933 2.87873 0
M  V30 9835 H 942.579 -0.0569478 3.92059 0
M  V30 9836 H 944.069 -1.03933 4.0446 0
M  V30 9837 N 944.506 -1.46559 0.579492 0
M  V30 9838 C 945.456 -2.27316 -0.17645 0
M  V30 9839 C 946.44 -1.35681 -0.864835 0
M  V30 9840 O 947.632 -1.59879 -0.759462 0
M  V30 9841 C 944.761 -3.21957 -1.19157 0
M  V30 9842 C 943.847 -4.21077 -0.505459 0
M  V30 9843 N 944.238 -5.03908 0.437133 0
M  V30 9844 C 942.536 -4.39535 -0.75661 0
M  V30 9845 C 943.237 -5.75635 0.837819 0
M  V30 9846 N 942.213 -5.43276 0.187679 0
M  V30 9847 H 946.015 -2.88747 0.547932 0
M  V30 9848 H 943.529 -1.5737 0.401048 0
M  V30 9849 H 945.526 -3.78518 -1.74728 0
M  V30 9850 H 944.186 -2.62085 -1.9168 0
M  V30 9851 H 945.197 -5.11487 0.812488 0
M  V30 9852 H 941.874 -3.90815 -1.46867 0
M  V30 9853 H 943.264 -6.52235 1.61364 0
M  V30 9854 N 945.984 -0.3171 -1.54377 0
M  V30 9855 C 946.932 0.567371 -2.25574 0
M  V30 9856 C 947.926 1.12387 -1.2675 0
M  V30 9857 O 949.132 1.07266 -1.44548 0
M  V30 9858 H 945.507 0.201605 -0.724472 0
M  V30 9859 H 947.478 -0.0554644 -2.98348 0
M  V30 9860 C 946.227 1.71984 -3.02187 0
M  V30 9861 H 945.55 1.30086 -3.78044 0
M  V30 9862 H 946.99 2.31443 -3.5526 0
M  V30 9863 C 945.449 2.6336 -2.10103 0
M  V30 9864 O 945.979 3.64899 -1.67962 0
M  V30 9865 N 944.185 2.3145 -1.75725 0
M  V30 9866 H 943.732 1.48921 -2.10191 0
M  V30 9867 H 943.69 2.92852 -1.14391 0
M  V30 9868 N 947.462 1.57535 -0.0451378 0
M  V30 9869 C 948.69 1.96761 0.639742 0
M  V30 9870 C 949.105 0.922405 1.64734 0
M  V30 9871 O 948.462 -0.0940535 1.82257 0
M  V30 9872 C 948.513 3.36066 1.33199 0
M  V30 9873 O 948.234 4.36579 0.364757 0
M  V30 9874 C 949.735 3.90015 2.1072 0
M  V30 9875 H 946.955 0.64769 0.175324 0
M  V30 9876 H 949.499 2.04206 -0.109651 0
M  V30 9877 H 947.654 3.2979 2.03266 0
M  V30 9878 H 948.068 5.17432 0.858168 0
M  V30 9879 H 949.542 4.89785 2.54586 0
M  V30 9880 H 950.019 3.25117 2.95288 0
M  V30 9881 H 950.625 3.99609 1.45577 0
M  V30 9882 N 948.94 -0.228186 1.55939 0
M  V30 9883 C 949.903 -1.26621 1.91049 0
M  V30 9884 C 950.903 -1.40141 0.788491 0
M  V30 9885 O 952.093 -1.3852 1.05631 0
M  V30 9886 C 949.225 -2.64108 2.15545 0
M  V30 9887 H 950.418 -0.966978 2.83883 0
M  V30 9888 H 947.971 -0.468313 1.49119 0
M  V30 9889 H 948.706 -2.99141 1.25241 0
M  V30 9890 H 948.491 -2.55673 2.97277 0
M  V30 9891 H 949.981 -3.39025 2.43827 0
M  V30 9892 N 950.418 -1.49637 -0.494624 0
M  V30 9893 C 951.643 -1.63431 -1.27691 0
M  V30 9894 C 952.068 -0.30813 -1.85559 0
M  V30 9895 O 951.426 0.725083 -1.66169 0
M  V30 9896 C 951.474 -2.71043 -2.3784 0
M  V30 9897 O 950.578 -2.3066 -3.41862 0
M  V30 9898 H 949.919 -0.546804 -0.376698 0
M  V30 9899 H 952.449 -1.95866 -0.591413 0
M  V30 9900 H 952.459 -2.93406 -2.83508 0
M  V30 9901 H 951.134 -3.67306 -1.95088 0
M  V30 9902 H 949.711 -2.18652 -3.02069 0
M  V30 9903 N 951.896 0.746133 -1.38819 0
M  V30 9904 C 953.124 1.53539 -1.38685 0
M  V30 9905 C 953.539 1.88788 0.0215039 0
M  V30 9906 O 952.896 1.53312 0.990031 0
M  V30 9907 C 952.947 2.8299 -2.24942 0
M  V30 9908 O 952.668 2.49242 -3.60292 0
M  V30 9909 C 954.169 3.77085 -2.3307 0
M  V30 9910 H 951.389 0.474842 -0.474095 0
M  V30 9911 H 953.933 0.922844 -1.82493 0
M  V30 9912 H 952.088 3.40603 -1.84576 0
M  V30 9913 H 952.502 3.32319 -4.05789 0
M  V30 9914 H 953.976 4.64845 -2.97696 0
M  V30 9915 H 954.453 4.18049 -1.34655 0
M  V30 9916 H 955.059 3.25394 -2.73859 0
M  V30 9917 N 953.375 1.23811 0.975125 0
M  V30 9918 C 954.305 1.04846 2.08638 0
M  V30 9919 C 955.286 -0.0362859 1.70061 0
M  V30 9920 O 956.471 0.12937 1.93769 0
M  V30 9921 C 953.601 0.644534 3.41267 0
M  V30 9922 C 952.555 1.67722 3.93768 0
M  V30 9923 C 951.881 1.12857 5.22654 0
M  V30 9924 C 953.181 3.07147 4.22443 0
M  V30 9925 H 954.875 1.97795 2.24761 0
M  V30 9926 H 952.421 0.952397 1.08006 0
M  V30 9927 H 954.374 0.498887 4.18436 0
M  V30 9928 H 953.098 -0.320641 3.25022 0
M  V30 9929 H 951.757 1.81095 3.18748 0
M  V30 9930 H 951.405 0.154227 5.02764 0
M  V30 9931 H 951.105 1.81862 5.58749 0
M  V30 9932 H 952.629 0.994891 6.0244 0
M  V30 9933 H 954.043 2.97045 4.90344 0
M  V30 9934 H 952.44 3.73437 4.6975 0
M  V30 9935 H 953.51 3.55743 3.29507 0
M  V30 9936 N 954.853 -1.17469 1.05066 0
M  V30 9937 C 955.763 -2.25089 0.661222 0
M  V30 9938 C 956.779 -1.71086 -0.31712 0
M  V30 9939 O 957.955 -2.00685 -0.169534 0
M  V30 9940 C 955.02 -3.46676 0.0406415 0
M  V30 9941 C 954.081 -4.15771 1.06927 0
M  V30 9942 C 953.314 -5.31553 0.478208 0
M  V30 9943 O 953.537 -5.6593 -0.712714 0
M  V30 9944 O 952.471 -5.89574 1.21185 0
M  V30 9945 H 956.297 -2.60685 1.5581 0
M  V30 9946 H 953.882 -1.24744 0.822147 0
M  V30 9947 H 955.764 -4.203 -0.304312 0
M  V30 9948 H 954.439 -3.1288 -0.829909 0
M  V30 9949 H 953.346 -3.44171 1.46619 0
M  V30 9950 H 954.679 -4.53591 1.91092 0
M  V30 9951 N 956.331 -0.831506 -1.3388 0
M  V30 9952 C 957.294 -0.264773 -2.27666 0
M  V30 9953 C 958.294 0.562273 -1.50649 0
M  V30 9954 O 959.484 0.377131 -1.70069 0
M  V30 9955 C 956.616 0.627814 -3.35069 0
M  V30 9956 H 957.809 -1.09225 -2.79303 0
M  V30 9957 H 955.362 -0.604021 -1.44157 0
M  V30 9958 H 956.097 1.47802 -2.88661 0
M  V30 9959 H 955.882 0.0361552 -3.92083 0
M  V30 9960 H 957.372 1.01786 -4.05005 0
M  V30 9961 N 957.809 1.4625 -0.587256 0
M  V30 9962 C 958.742 2.27392 0.191837 0
M  V30 9963 C 959.72 1.35905 0.89267 0
M  V30 9964 O 960.904 1.65319 0.905643 0
M  V30 9965 C 958.031 3.13758 1.27567 0
M  V30 9966 C 957.077 4.21041 0.680186 0
M  V30 9967 S 957.91 5.33194 -0.496419 0
M  V30 9968 C 959.066 6.23127 0.588506 0
M  V30 9969 H 959.299 2.93123 -0.496635 0
M  V30 9970 H 956.832 1.49795 -0.37426 0
M  V30 9971 H 958.79 3.6408 1.8962 0
M  V30 9972 H 957.451 2.47332 1.93612 0
M  V30 9973 H 956.644 4.81316 1.49503 0
M  V30 9974 H 956.246 3.73755 0.135227 0
M  V30 9975 H 958.538 6.61294 1.47298 0
M  V30 9976 H 959.481 7.08096 0.0224093 0
M  V30 9977 H 959.889 5.57365 0.894696 0
M  V30 9978 N 959.287 0.325282 1.54207 0
M  V30 9979 C 960.217 -0.532574 2.27345 0
M  V30 9980 C 961.198 -1.11791 1.28206 0
M  V30 9981 O 962.383 -1.14272 1.57021 0
M  V30 9982 C 959.513 -1.69274 3.03255 0
M  V30 9983 C 958.467 -1.23662 4.09746 0
M  V30 9984 C 957.793 -2.48386 4.73506 0
M  V30 9985 C 959.093 -0.350244 5.21124 0
M  V30 9986 H 960.787 0.0775108 2.993 0
M  V30 9987 H 958.333 0.0387193 1.43948 0
M  V30 9988 H 960.286 -2.29917 3.53152 0
M  V30 9989 H 959.01 -2.32944 2.28921 0
M  V30 9990 H 957.669 -0.653106 3.60735 0
M  V30 9991 H 957.317 -3.10424 3.95786 0
M  V30 9992 H 957.017 -2.18558 5.45441 0
M  V30 9993 H 958.541 -3.09789 5.26178 0
M  V30 9994 H 959.955 -0.863011 5.66767 0
M  V30 9995 H 958.352 -0.14466 5.99926 0
M  V30 9996 H 959.422 0.618457 4.8094 0
M  V30 9997 N 960.765 -1.57509 0.0534917 0
M  V30 9998 C 962.181 -1.56696 -0.303067 0
M  V30 9999 C 962.381 -1.06135 -1.71282 0
M  V30 10000 O 961.437 -0.71899 -2.42047 0
M  V30 10001 C 962.75 -3.00421 -0.129418 0
M  V30 10002 C 964.298 -3.12358 -0.200346 0
M  V30 10003 C 964.773 -4.57967 -0.0551971 0
M  V30 10004 N 966.264 -4.63066 -0.111398 0
M  V30 10005 C 966.999 -5.73395 -0.0232344 0
M  V30 10006 N 966.495 -6.92701 0.11741 0
M  V30 10007 N 968.288 -5.62045 -0.078984 0
M  V30 10008 H 960.439 -1.88696 0.975064 0
M  V30 10009 H 962.702 -0.869072 0.378706 0
M  V30 10010 H 962.408 -3.41456 0.842653 0
M  V30 10011 H 962.282 -3.66563 -0.889476 0
M  V30 10012 H 964.669 -2.71221 -1.16289 0
M  V30 10013 H 964.75 -2.48891 0.590506 0
M  V30 10014 H 964.394 -4.9979 0.904034 0
M  V30 10015 H 964.324 -5.19443 -0.865223 0
M  V30 10016 H 966.815 -3.77263 -0.219256 0
M  V30 10017 H 967.128 -7.72597 0.177326 0
M  V30 10018 H 965.473 -6.94833 0.152526 0
M  V30 10019 H 968.664 -4.67725 -0.187434 0
M  V30 10020 H 968.837 -6.48 -0.00681731 0
M  V30 10021 N 962.243 0.219913 -1.56058 0
M  V30 10022 C 963.191 1.29215 -1.93407 0
M  V30 10023 C 964.185 1.48434 -0.816307 0
M  V30 10024 O 965.391 1.49589 -1.00115 0
M  V30 10025 H 961.766 0.433256 -0.614649 0
M  V30 10026 H 963.737 0.949977 -2.82875 0
M  V30 10027 C 962.486 2.63501 -2.26854 0
M  V30 10028 H 961.809 2.4952 -3.12377 0
M  V30 10029 H 963.249 3.37334 -2.56869 0
M  V30 10030 C 961.708 3.18634 -1.09425 0
M  V30 10031 O 962.238 4.00117 -0.356243 0
M  V30 10032 N 960.444 2.7703 -0.877642 0
M  V30 10033 H 959.991 2.10875 -1.47951 0
M  V30 10034 H 959.949 3.1426 -0.0936792 0
M  V30 10035 N 963.721 1.49897 0.486681 0
M  V30 10036 C 964.998 1.50614 1.24799 0
M  V30 10037 C 965.378 0.24193 2.09709 0
M  V30 10038 O 964.726 -0.775237 2.14947 0
M  V30 10039 C 964.936 2.79318 2.09243 0
M  V30 10040 C 966.284 3.29371 2.67955 0
M  V30 10041 O 967.308 2.80533 2.19499 0
M  V30 10042 O 966.167 4.14466 3.56202 0
M  V30 10043 H 963.261 0.603447 0.565491 0
M  V30 10044 H 965.807 1.62174 0.499778 0
M  V30 10045 H 964.579 3.62812 1.46572 0
M  V30 10046 H 964.202 2.70687 2.91229 0
M  V30 10047 N 965.199 -0.738761 1.39212 0
M  V30 10048 C 966.427 -1.52801 1.39497 0
M  V30 10049 C 966.842 -1.88797 -0.0114917 0
M  V30 10050 O 966.199 -1.53835 -0.981887 0
M  V30 10051 C 966.25 -2.81793 2.2644 0
M  V30 10052 O 965.971 -2.47328 3.61608 0
M  V30 10053 C 967.472 -3.75844 2.35067 0
M  V30 10054 H 964.692 -0.472322 0.476606 0
M  V30 10055 H 967.236 -0.913153 1.8298 0
M  V30 10056 H 965.391 -3.3962 1.8638 0
M  V30 10057 H 965.805 -3.30162 4.07545 0
M  V30 10058 H 967.279 -4.6326 3.00157 0
M  V30 10059 H 967.756 -4.17329 1.3687 0
M  V30 10060 H 968.362 -3.23937 2.75581 0
M  V30 10061 N 966.677 -1.24326 -0.968545 0
M  V30 10062 C 967.625 -1.03256 -2.08425 0
M  V30 10063 C 968.619 0.0322356 -1.69369 0
M  V30 10064 O 969.825 -0.122251 -1.79584 0
M  V30 10065 H 966.2 -0.31688 -0.681976 0
M  V30 10066 H 968.171 -1.97873 -2.23358 0
M  V30 10067 C 966.92 -0.653144 -3.4151 0
M  V30 10068 H 966.243 -1.46424 -3.72021 0
M  V30 10069 H 967.683 -0.545316 -4.20479 0
M  V30 10070 C 966.142 0.639674 -3.30771 0
M  V30 10071 O 966.672 1.68563 -3.64622 0
M  V30 10072 N 964.878 0.620074 -2.83907 0
M  V30 10073 H 964.425 -0.231449 -2.56558 0
M  V30 10074 H 964.383 1.48528 -2.77104 0
M  V30 10075 N 968.156 1.1691 -1.05688 0
M  V30 10076 C 969.433 1.83266 -0.683601 0
M  V30 10077 C 969.813 1.93858 0.835602 0
M  V30 10078 O 969.161 1.47696 1.7435 0
M  V30 10079 C 969.371 3.20625 -1.37842 0
M  V30 10080 C 970.719 3.96473 -1.51967 0
M  V30 10081 O 971.743 3.30122 -1.33783 0
M  V30 10082 O 970.602 5.15393 -1.81749 0
M  V30 10083 H 967.696 0.791028 -0.241254 0
M  V30 10084 H 970.242 1.24165 -1.15677 0
M  V30 10085 H 969.014 3.07914 -2.41463 0
M  V30 10086 H 968.637 3.87398 -0.894921 0
M  V30 10087 N 969.634 0.838594 1.33437 0
M  V30 10088 C 970.566 0.229006 2.28053 0
M  V30 10089 C 971.579 -0.590103 1.51729 0
M  V30 10090 O 972.768 -0.417218 1.73556 0
M  V30 10091 C 969.868 -0.696251 3.31671 0
M  V30 10092 C 969.041 0.0834606 4.3732 0
M  V30 10093 C 968.1 -0.765097 5.20608 0
M  V30 10094 O 967.126 -0.2044 5.68833 0
M  V30 10095 N 968.328 -2.08249 5.4186 0
M  V30 10096 H 971.093 1.04196 2.81004 0
M  V30 10097 H 968.654 0.697031 1.46127 0
M  V30 10098 H 970.646 -1.26889 3.84293 0
M  V30 10099 H 969.216 -1.40992 2.78998 0
M  V30 10100 H 968.436 0.837481 3.85201 0
M  V30 10101 H 969.724 0.619613 5.05013 0
M  V30 10102 H 969.122 -2.56156 5.04381 0
M  V30 10103 H 967.679 -2.60362 5.97541 0
M  V30 10104 N 971.112 -1.45937 0.595003 0
M  V30 10105 C 972.337 -2.07207 0.0894416 0
M  V30 10106 C 972.762 -1.43884 -1.21157 0
M  V30 10107 O 972.12 -0.526998 -1.73472 0
M  V30 10108 C 972.168 -3.60565 -0.0499828 0
M  V30 10109 O 971.272 -3.97364 -1.10342 0
M  V30 10110 H 970.613 -0.660471 0.0683627 0
M  V30 10111 H 973.143 -1.87386 0.82144 0
M  V30 10112 H 973.153 -4.0722 -0.252234 0
M  V30 10113 H 971.828 -4.06044 0.90006 0
M  V30 10114 H 970.405 -3.62401 -0.878645 0
M  V30 10115 N 972.59 -0.333456 -1.54032 0
M  V30 10116 C 973.837 0.266133 -2.00744 0
M  V30 10117 C 974.165 1.51361 -1.22148 0
M  V30 10118 O 973.42 1.93473 -0.294368 0
M  V30 10119 C 973.719 0.63565 -3.51702 0
M  V30 10120 C 973.385 -0.513786 -4.47963 0
M  V30 10121 C 972.047 -0.829253 -4.74001 0
M  V30 10122 C 974.399 -1.2854 -5.05101 0
M  V30 10123 C 971.727 -1.91888 -5.54433 0
M  V30 10124 C 974.079 -2.3652 -5.86721 0
M  V30 10125 C 972.743 -2.68637 -6.11057 0
M  V30 10126 H 972.013 0.097385 -0.734573 0
M  V30 10127 H 974.66 -0.459282 -1.85911 0
M  V30 10128 H 972.965 1.44163 -3.64313 0
M  V30 10129 H 974.662 1.11129 -3.85294 0
M  V30 10130 H 971.252 -0.25784 -4.27824 0
M  V30 10131 H 975.436 -1.05494 -4.84958 0
M  V30 10132 H 970.692 -2.17208 -5.71516 0
M  V30 10133 H 974.866 -2.96747 -6.30011 0
M  V30 10134 H 972.493 -3.53197 -6.73169 0
M  V30 10135 N 974.068 1.57479 -0.061844 0
M  V30 10136 C 975.016 2.13346 0.926629 0
M  V30 10137 C 976.01 1.06787 1.31502 0
M  V30 10138 O 977.216 1.25181 1.29343 0
M  V30 10139 H 973.591 0.682046 0.316729 0
M  V30 10140 H 975.562 2.95279 0.430424 0
M  V30 10141 C 974.311 2.70198 2.18834 0
M  V30 10142 H 973.634 3.51859 1.89829 0
M  V30 10143 H 975.074 3.12897 2.86132 0
M  V30 10144 C 973.533 1.64481 2.9402 0
M  V30 10145 O 974.063 1.0639 3.87355 0
M  V30 10146 N 972.269 1.35749 2.56944 0
M  V30 10147 H 971.816 1.83177 1.81119 0
M  V30 10148 H 971.774 0.652469 3.07555 0
M  V30 10149 N 975.546 -0.211634 1.56173 0
M  V30 10150 C 976.823 -0.959467 1.70451 0
M  V30 10151 C 977.203 -2.02036 0.611942 0
M  V30 10152 O 976.551 -2.25325 -0.37959 0
M  V30 10153 C 976.761 -1.56092 3.12148 0
M  V30 10154 C 978.109 -2.04939 3.71867 0
M  V30 10155 O 979.133 -1.65966 3.15172 0
M  V30 10156 O 977.992 -2.766 4.71333 0
M  V30 10157 H 975.086 -0.448844 0.6946 0
M  V30 10158 H 977.632 -0.202633 1.68486 0
M  V30 10159 H 976.404 -0.79538 3.83131 0
M  V30 10160 H 976.027 -2.38303 3.18273 0
M  V30 10161 N 977.024 -1.50153 -0.478725 0
M  V30 10162 C 978.254 -1.64266 -1.253 0
M  V30 10163 C 978.662 -0.322256 -1.86435 0
M  V30 10164 O 978.005 0.704925 -1.69636 0
M  V30 10165 C 978.067 -2.67017 -2.40712 0
M  V30 10166 C 977.731 -4.10779 -2.00274 0
M  V30 10167 C 978.728 -4.96889 -1.52963 0
M  V30 10168 C 976.413 -4.5665 -2.09228 0
M  V30 10169 C 978.407 -6.26914 -1.15139 0
M  V30 10170 C 976.094 -5.86683 -1.71015 0
M  V30 10171 C 977.092 -6.71641 -1.24048 0
M  V30 10172 O 976.78 -7.99248 -0.863617 0
M  V30 10173 H 976.512 -0.555382 -0.385392 0
M  V30 10174 H 979.066 -1.97078 -0.578751 0
M  V30 10175 H 977.296 -2.29432 -3.11284 0
M  V30 10176 H 978.985 -2.70428 -3.02694 0
M  V30 10177 H 979.751 -4.62669 -1.45474 0
M  V30 10178 H 975.63 -3.90674 -2.44735 0
M  V30 10179 H 979.174 -6.93179 -0.784089 0
M  V30 10180 H 975.071 -6.20426 -1.78162 0
M  V30 10181 H 975.839 -8.12452 -0.993139 0
M  V30 10182 N 978.502 0.731368 -1.39602 0
M  V30 10183 C 979.432 1.85855 -1.41351 0
M  V30 10184 C 980.413 1.67839 -0.2764 0
M  V30 10185 O 981.598 1.88104 -0.482747 0
M  V30 10186 C 978.728 3.23644 -1.25983 0
M  V30 10187 C 977.682 3.56304 -2.37132 0
M  V30 10188 C 977.008 4.93069 -2.0685 0
M  V30 10189 C 978.308 3.58906 -3.79452 0
M  V30 10190 H 980.002 1.84648 -2.3568 0
M  V30 10191 H 977.548 0.886955 -1.13442 0
M  V30 10192 H 979.501 4.02176 -1.25826 0
M  V30 10193 H 978.225 3.25387 -0.281234 0
M  V30 10194 H 976.884 2.80104 -2.36511 0
M  V30 10195 H 976.532 4.91396 -1.0742 0
M  V30 10196 H 976.232 5.15888 -2.81306 0
M  V30 10197 H 977.756 5.73953 -2.0835 0
M  V30 10198 H 979.17 4.27508 -3.81982 0
M  V30 10199 H 977.567 3.93246 -4.53297 0
M  V30 10200 H 978.637 2.58631 -4.10168 0
M  V30 10201 N 979.98 1.24838 0.961938 0
M  V30 10202 C 981.205 1.11967 1.7458 0
M  V30 10203 C 981.63 -0.323287 1.85301 0
M  V30 10204 O 980.988 -1.23412 1.32812 0
M  V30 10205 C 981.036 1.77066 3.14134 0
M  V30 10206 O 980.14 1.04534 3.98932 0
M  V30 10207 H 979.481 0.391338 0.536424 0
M  V30 10208 H 982.011 1.65259 1.20626 0
M  V30 10209 H 982.021 1.83056 3.64629 0
M  V30 10210 H 980.696 2.82052 3.05646 0
M  V30 10211 H 979.273 1.06372 3.57407 0
M  V30 10212 N 981.458 -1.16348 1.06306 0
M  V30 10213 C 982.421 -2.18941 0.678053 0
M  V30 10214 C 983.421 -1.58409 -0.276277 0
M  V30 10215 O 984.611 -1.74101 -0.0586435 0
M  V30 10216 C 981.743 -3.409 -0.00228684 0
M  V30 10217 H 982.936 -2.54516 1.58624 0
M  V30 10218 H 980.489 -1.30625 0.858298 0
M  V30 10219 H 981.224 -3.10881 -0.923212 0
M  V30 10220 H 981.009 -3.86089 0.683949 0
M  V30 10221 H 982.499 -4.16806 -0.257374 0
M  V30 10222 N 982.937 -0.845659 -1.3299 0
M  V30 10223 C 983.9 -0.288905 -2.27372 0
M  V30 10224 C 984.9 0.546263 -1.51237 0
M  V30 10225 O 986.09 0.359072 -1.70459 0
M  V30 10226 C 983.222 0.59224 -3.35716 0
M  V30 10227 H 984.415 -1.12181 -2.78128 0
M  V30 10228 H 981.968 -0.619276 -1.43508 0
M  V30 10229 H 982.703 1.44732 -2.90212 0
M  V30 10230 H 982.488 -0.00543255 -3.921 0
M  V30 10231 H 983.978 0.974848 -4.06062 0
M  V30 10232 N 984.415 1.45619 -0.602734 0
M  V30 10233 C 985.363 2.32228 0.131484 0
M  V30 10234 C 986.357 1.45681 0.864484 0
M  V30 10235 O 987.563 1.62193 0.7806 0
M  V30 10236 H 983.938 0.7495 0.0612638 0
M  V30 10237 H 985.909 2.91941 -0.617496 0
M  V30 10238 C 984.658 3.29213 1.11866 0
M  V30 10239 H 983.981 3.95801 0.564061 0
M  V30 10240 H 985.421 3.92554 1.60242 0
M  V30 10241 C 983.88 2.56028 2.18978 0
M  V30 10242 O 984.41 2.33806 3.26646 0
M  V30 10243 N 982.616 2.16245 1.94129 0
M  V30 10244 H 982.163 2.34518 1.06579 0
M  V30 10245 H 982.121 1.67601 2.66003 0
M  V30 10246 N 985.893 0.34162 1.53853 0
M  V30 10247 C 986.826 -0.559051 2.21246 0
M  V30 10248 C 987.804 -1.10179 1.1958 0
M  V30 10249 O 988.988 -1.16242 1.48392 0
M  V30 10250 C 986.115 -1.7689 2.88838 0
M  V30 10251 C 985.161 -1.3558 4.04377 0
M  V30 10252 S 985.994 -0.377225 5.3417 0
M  V30 10253 C 987.15 -1.59395 6.05264 0
M  V30 10254 H 987.383 0.013373 2.97297 0
M  V30 10255 H 984.916 0.125694 1.53888 0
M  V30 10256 H 986.874 -2.463 3.284 0
M  V30 10257 H 985.535 -2.31254 2.12557 0
M  V30 10258 H 984.728 -2.25781 4.50599 0
M  V30 10259 H 984.33 -0.741197 3.66582 0
M  V30 10260 H 986.622 -2.52872 6.2854 0
M  V30 10261 H 987.565 -1.17356 6.98307 0
M  V30 10262 H 987.973 -1.78913 5.35397 0
M  V30 10263 N 987.371 -1.57444 0.0701946 0
M  V30 10264 C 988.301 -2.15659 -0.895176 0
M  V30 10265 C 989.282 -1.08321 -1.31151 0
M  V30 10266 O 990.467 -1.36349 -1.38284 0
M  V30 10267 C 987.597 -2.71693 -2.16334 0
M  V30 10268 C 986.551 -3.84183 -1.88645 0
M  V30 10269 C 985.877 -4.26814 -3.22078 0
M  V30 10270 C 987.177 -5.08493 -1.19299 0
M  V30 10271 H 988.871 -2.96576 -0.410217 0
M  V30 10272 H 986.417 -1.42662 -0.195872 0
M  V30 10273 H 988.37 -3.11064 -2.84284 0
M  V30 10274 H 987.094 -1.87994 -2.67069 0
M  V30 10275 H 985.753 -3.45314 -1.23101 0
M  V30 10276 H 985.401 -3.40039 -3.70651 0
M  V30 10277 H 985.101 -5.02642 -3.04344 0
M  V30 10278 H 986.625 -4.68799 -3.91228 0
M  V30 10279 H 988.039 -5.4519 -1.77316 0
M  V30 10280 H 986.436 -5.89588 -1.11828 0
M  V30 10281 H 987.506 -4.84595 -0.171839 0
M  V30 10282 N 988.849 0.203349 -1.56283 0
M  V30 10283 C 990.079 0.940061 -1.83974 0
M  V30 10284 C 990.487 1.77703 -0.649486 0
M  V30 10285 O 989.83 1.79487 0.391189 0
M  V30 10286 C 989.892 1.89249 -3.05655 0
M  V30 10287 C 989.556 1.23828 -4.39904 0
M  V30 10288 C 990.553 0.619231 -5.16199 0
M  V30 10289 C 988.238 1.2446 -4.86636 0
M  V30 10290 C 990.232 0.0152287 -6.37398 0
M  V30 10291 C 987.919 0.636764 -6.07773 0
M  V30 10292 C 988.917 0.0231481 -6.82996 0
M  V30 10293 O 988.605 -0.575187 -8.0184 0
M  V30 10294 H 988.337 0.280199 -0.615194 0
M  V30 10295 H 990.891 0.218111 -2.04239 0
M  V30 10296 H 989.121 2.65392 -2.81254 0
M  V30 10297 H 990.81 2.4963 -3.20062 0
M  V30 10298 H 991.576 0.606545 -4.81192 0
M  V30 10299 H 987.455 1.71161 -4.28048 0
M  V30 10300 H 990.999 -0.464333 -6.96053 0
M  V30 10301 H 986.896 0.646924 -6.4225 0
M  V30 10302 H 987.664 -0.471284 -8.17142 0
M  V30 10303 N 990.327 1.50405 0.470755 0
M  V30 10304 C 991.738 1.54266 1.05162 0
M  V30 10305 C 992.089 0.346359 1.93119 0
M  V30 10306 O 991.214 -0.540699 2.09536 0
M  V30 10307 C 991.809 2.7956 1.91394 0
M  V30 10308 C 990.368 2.86101 2.44588 0
M  V30 10309 C 989.515 2.48557 1.22941 0
M  V30 10310 H 992.466 1.56665 0.253359 0
M  V30 10311 H 992.487 2.61434 2.76464 0
M  V30 10312 H 991.999 3.66611 1.27351 0
M  V30 10313 H 990.1 2.03403 3.12183 0
M  V30 10314 H 990.213 3.88999 2.79672 0
M  V30 10315 H 988.577 2.01003 1.56429 0
M  V30 10316 H 989.36 3.37916 0.605598 0
M  V30 10317 N 991.805 -0.723954 1.39988 0
M  V30 10318 C 993.054 -1.47922 1.3712 0
M  V30 10319 C 993.367 -1.95582 -0.0263665 0
M  V30 10320 O 994.573 -2.70918 -0.177652 0
M  V30 10321 C 993.029 -2.67342 2.40949 0
M  V30 10322 C 992.637 -2.26586 3.86475 0
M  V30 10323 C 994.381 -3.45116 2.47174 0
M  V30 10324 C 992.288 -3.42794 4.81919 0
M  V30 10325 H 991.218 -0.555522 0.509815 0
M  V30 10326 H 993.869 -0.788692 1.65686 0
M  V30 10327 H 992.251 -3.38524 2.0547 0
M  V30 10328 H 993.425 -1.62878 4.31054 0
M  V30 10329 H 991.74 -1.61876 3.83647 0
M  V30 10330 H 994.337 -4.31573 3.15672 0
M  V30 10331 H 994.68 -3.8835 1.49966 0
M  V30 10332 H 995.213 -2.80971 2.81602 0
M  V30 10333 H 991.952 -3.046 5.8043 0
M  V30 10334 H 991.472 -4.05445 4.42012 0
M  V30 10335 H 993.151 -4.08977 5.01345 0
M  V30 10336 N 993.283 -1.25346 -0.955304 0
M  V30 10337 C 994.694 -1.09173 -1.51453 0
M  V30 10338 C 995.045 0.332755 -1.93358 0
M  V30 10339 O 994.17 1.22264 -1.78551 0
M  V30 10340 C 994.765 -1.97564 -2.75234 0
M  V30 10341 C 993.324 -1.85579 -3.27471 0
M  V30 10342 C 992.471 -1.91755 -2.00313 0
M  V30 10343 H 995.422 -1.38642 -0.772271 0
M  V30 10344 H 995.443 -1.51523 -3.49029 0
M  V30 10345 H 994.955 -3.01233 -2.44704 0
M  V30 10346 H 993.056 -0.847906 -3.62824 0
M  V30 10347 H 993.169 -2.70353 -3.95533 0
M  V30 10348 H 991.533 -1.35633 -2.15582 0
M  V30 10349 H 992.316 -2.97028 -1.72132 0
M  V30 10350 N 994.761 1.15782 -1.06922 0
M  V30 10351 C 995.724 2.18578 -0.689654 0
M  V30 10352 C 996.724 1.58553 0.267872 0
M  V30 10353 O 997.914 1.7413 0.0494097 0
M  V30 10354 C 995.046 3.40896 -0.0157919 0
M  V30 10355 H 996.239 2.53672 -1.59971 0
M  V30 10356 H 993.792 1.30168 -0.865214 0
M  V30 10357 H 994.527 3.11367 0.906712 0
M  V30 10358 H 994.312 3.85721 -0.704415 0
M  V30 10359 H 995.802 4.16937 0.235266 0
M  V30 10360 N 996.239 0.8527 1.3254 0
M  V30 10361 C 997.187 0.284659 2.30852 0
M  V30 10362 C 998.181 -0.5909 1.5876 0
M  V30 10363 O 999.387 -0.478922 1.73512 0
M  V30 10364 H 995.762 0.0733452 0.748415 0
M  V30 10365 H 997.733 1.1281 2.76254 0
M  V30 10366 C 996.482 -0.51379 3.43883 0
M  V30 10367 H 995.805 0.150644 3.99516 0
M  V30 10368 H 997.245 -0.876866 4.14834 0
M  V30 10369 C 995.704 -1.69823 2.90967 0
M  V30 10370 O 996.234 -2.79727 2.88298 0
M  V30 10371 N 994.44 -1.52465 2.47392 0
M  V30 10372 H 993.987 -0.630599 2.49762 0
M  V30 10373 H 993.945 -2.31859 2.12341 0
M  V30 10374 N 997.718 -1.45297 0.610449 0
M  V30 10375 C 998.681 -2.28995 -0.0968194 0
M  V30 10376 C 999.681 -1.39923 -0.792353 0
M  V30 10377 O 1000.87 -1.62014 -0.64008 0
M  V30 10378 C 998.003 -3.21013 -1.14731 0
M  V30 10379 H 999.196 -2.93012 0.639082 0
M  V30 10380 H 996.749 -1.51867 0.369624 0
M  V30 10381 H 997.484 -2.61803 -1.91388 0
M  V30 10382 H 997.269 -3.86628 -0.652753 0
M  V30 10383 H 998.759 -3.8394 -1.64256 0
M  V30 10384 N 999.196 -0.349774 -1.5367 0
M  V30 10385 C 1000.42 0.246038 -2.05432 0
M  V30 10386 C 1000.84 1.43719 -1.22435 0
M  V30 10387 O 1000.2 1.80622 -0.261166 0
M  V30 10388 C 1000.25 0.65501 -3.55516 0
M  V30 10389 O 999.968 -0.488782 -4.35365 0
M  V30 10390 C 1001.47 1.31088 -4.23475 0
M  V30 10391 H 998.689 0.0463952 -0.669394 0
M  V30 10392 H 1001.23 -0.503566 -1.98203 0
M  V30 10393 H 999.388 1.35455 -3.62947 0
M  V30 10394 H 999.802 -0.161528 -5.24251 0
M  V30 10395 H 1001.28 1.54774 -5.29857 0
M  V30 10396 H 1001.75 2.26636 -3.76208 0
M  V30 10397 H 1002.36 0.653211 -4.20254 0
M  V30 10398 N 1000.67 1.57404 -0.0785433 0
M  V30 10399 C 1001.62 2.14316 0.903949 0
M  V30 10400 C 1002.62 1.08176 1.30362 0
M  V30 10401 O 1003.82 1.26546 1.28008 0
M  V30 10402 H 1000.2 0.685367 0.309477 0
M  V30 10403 H 1002.17 2.95719 0.399081 0
M  V30 10404 C 1000.92 2.72504 2.15956 0
M  V30 10405 H 1000.24 3.53853 1.86087 0
M  V30 10406 H 1001.68 3.15914 2.82798 0
M  V30 10407 C 1000.14 1.6759 2.92259 0
M  V30 10408 O 1000.67 1.10492 3.86205 0
M  V30 10409 N 998.875 1.38467 2.5549 0
M  V30 10410 H 998.422 1.85088 1.79166 0
M  V30 10411 H 998.38 0.685053 3.06846 0
M  V30 10412 N 1002.15 -0.195058 1.56388 0
M  V30 10413 C 1003.4 -0.9168 1.80894 0
M  V30 10414 C 1003.73 -1.82907 0.652592 0
M  V30 10415 O 1003.01 -1.91382 -0.346853 0
M  V30 10416 C 1003.29 -1.733 3.15657 0
M  V30 10417 C 1003.14 -0.845449 4.41783 0
M  V30 10418 C 1004.46 -2.70557 3.47112 0
M  V30 10419 H 1001.58 -0.331861 0.658056 0
M  V30 10420 H 1004.22 -0.184174 1.89105 0
M  V30 10421 H 1002.37 -2.3576 3.08787 0
M  V30 10422 H 1004.04 -0.235557 4.60698 0
M  V30 10423 H 1002.29 -0.152172 4.33533 0
M  V30 10424 H 1002.96 -1.45152 5.32574 0
M  V30 10425 H 1005.43 -2.1823 3.54281 0
M  V30 10426 H 1004.31 -3.24749 4.42526 0
M  V30 10427 H 1004.57 -3.49605 2.70608 0
M  V30 10428 N 1003.63 -1.50653 -0.462772 0
M  V30 10429 C 1005.04 -1.54821 -1.04342 0
M  V30 10430 C 1005.39 -0.356595 -1.92932 0
M  V30 10431 O 1004.52 0.529579 -2.0982 0
M  V30 10432 C 1005.11 -2.80571 -1.89909 0
M  V30 10433 C 1003.67 -2.87394 -2.43067 0
M  V30 10434 C 1002.82 -2.49206 -1.21621 0
M  V30 10435 H 1005.77 -1.56797 -0.245048 0
M  V30 10436 H 1005.79 -2.62897 -2.75074 0
M  V30 10437 H 1005.3 -3.67281 -1.25405 0
M  V30 10438 H 1003.4 -2.05055 -3.111 0
M  V30 10439 H 1003.52 -3.90477 -2.77605 0
M  V30 10440 H 1001.88 -2.01829 -1.55361 0
M  V30 10441 H 1002.66 -3.38233 -0.587669 0
M  V30 10442 N 1005.11 0.71652 -1.4037 0
M  V30 10443 C 1006.36 1.47193 -1.37903 0
M  V30 10444 C 1006.67 1.95593 0.0159939 0
M  V30 10445 O 1007.88 2.71009 0.163282 0
M  V30 10446 C 1006.33 2.6606 -2.42363 0
M  V30 10447 C 1005.94 2.24533 -3.87671 0
M  V30 10448 C 1007.68 3.438 -2.49001 0
M  V30 10449 C 1005.59 3.40234 -4.8373 0
M  V30 10450 H 1004.52 0.552811 -0.512753 0
M  V30 10451 H 1007.17 0.779894 -1.66102 0
M  V30 10452 H 1005.55 3.37429 -2.07262 0
M  V30 10453 H 1006.73 1.6059 -4.31911 0
M  V30 10454 H 1005.04 1.59839 -3.845 0
M  V30 10455 H 1007.64 4.29893 -3.17956 0
M  V30 10456 H 1007.98 3.8755 -1.52023 0
M  V30 10457 H 1008.52 2.79474 -2.83088 0
M  V30 10458 H 1005.26 3.01517 -5.82037 0
M  V30 10459 H 1004.78 4.03095 -4.44156 0
M  V30 10460 H 1006.45 4.06312 -5.03507 0
M  V30 10461 N 1006.59 1.25851 0.948643 0
M  V30 10462 C 1007.81 1.13813 1.73382 0
M  V30 10463 C 1008.24 -0.303615 1.85633 0
M  V30 10464 O 1007.59 -1.21997 1.34114 0
M  V30 10465 C 1007.64 1.80388 3.12238 0
M  V30 10466 O 1006.75 1.08759 3.978 0
M  V30 10467 H 1006.09 0.397006 0.532243 0
M  V30 10468 H 1008.62 1.66529 1.18866 0
M  V30 10469 H 1008.63 1.86913 3.62667 0
M  V30 10470 H 1007.3 2.85278 3.02637 0
M  V30 10471 H 1005.88 1.10157 3.56258 0
M  V30 10472 N 1008.06 -1.15214 1.07534 0
M  V30 10473 C 1009.31 -1.85388 0.794617 0
M  V30 10474 C 1009.63 -1.83331 -0.681838 0
M  V30 10475 O 1010.83 -2.49207 -1.0774 0
M  V30 10476 C 1009.29 -3.32747 1.37141 0
M  V30 10477 C 1008.9 -3.43244 2.87902 0
M  V30 10478 C 1010.64 -4.08093 1.16879 0
M  V30 10479 C 1008.55 -4.84762 3.38763 0
M  V30 10480 H 1007.48 -0.694499 0.293577 0
M  V30 10481 H 1010.13 -1.29944 1.29564 0
M  V30 10482 H 1008.51 -3.87874 0.798121 0
M  V30 10483 H 1009.68 -2.98214 3.51291 0
M  V30 10484 H 1008 -2.81345 3.06975 0
M  V30 10485 H 1010.6 -5.12535 1.52353 0
M  V30 10486 H 1010.94 -4.1616 0.107958 0
M  V30 10487 H 1011.47 -3.59241 1.70854 0
M  V30 10488 H 1008.21 -4.81879 4.4438 0
M  V30 10489 H 1007.73 -5.30366 2.80128 0
M  V30 10490 H 1009.41 -5.53624 3.34827 0
M  V30 10491 N 1009.54 -0.859717 -1.32086 0
M  V30 10492 C 1010.95 -0.519529 -1.79326 0
M  V30 10493 C 1011.3 0.96295 -1.70944 0
M  V30 10494 O 1010.43 1.75139 -1.27104 0
M  V30 10495 C 1011.02 -0.936267 -3.25606 0
M  V30 10496 C 1009.58 -0.647899 -3.70782 0
M  V30 10497 C 1008.73 -1.13323 -2.53087 0
M  V30 10498 H 1011.68 -1.04643 -1.19312 0
M  V30 10499 H 1011.7 -0.254714 -3.79646 0
M  V30 10500 H 1011.21 -2.01527 -3.31675 0
M  V30 10501 H 1009.32 0.420172 -3.70223 0
M  V30 10502 H 1009.43 -1.21774 -4.63366 0
M  V30 10503 H 1007.79 -0.553325 -2.48617 0
M  V30 10504 H 1008.58 -2.21945 -2.61907 0
M  V30 10505 N 1011.02 1.44971 -0.618145 0
M  V30 10506 C 1012.25 2.07039 -0.122395 0
M  V30 10507 C 1012.67 1.45793 1.18853 0
M  V30 10508 O 1012.03 0.55453 1.72611 0
M  V30 10509 C 1012.08 3.60599 -0.0073864 0
M  V30 10510 O 1011.18 3.99069 1.04007 0
M  V30 10511 H 1010.52 0.6593 -0.0788615 0
M  V30 10512 H 1013.05 1.86055 -0.851147 0
M  V30 10513 H 1013.06 4.07569 0.187417 0
M  V30 10514 H 1011.74 4.04561 -0.964544 0
M  V30 10515 H 1010.31 3.63753 0.820879 0
M  V30 10516 N 1012.5 0.357919 1.53482 0
M  V30 10517 C 1013.91 0.00655107 1.59599 0
M  V30 10518 C 1014.11 -1.47449 1.37336 0
M  V30 10519 O 1013.17 -2.2351 1.17472 0
M  V30 10520 C 1014.48 0.455617 2.97228 0
M  V30 10521 C 1016.03 0.409183 3.10314 0
M  V30 10522 C 1016.51 0.833941 4.50344 0
M  V30 10523 N 1018 0.788695 4.56436 0
M  V30 10524 C 1018.73 1.08914 5.62961 0
M  V30 10525 N 1018.23 1.45847 6.77274 0
M  V30 10526 N 1020.02 1.01243 5.52907 0
M  V30 10527 H 1012.17 1.32248 1.66206 0
M  V30 10528 H 1014.44 0.540047 0.779136 0
M  V30 10529 H 1014.14 1.48881 3.18634 0
M  V30 10530 H 1014.02 -0.161751 3.76853 0
M  V30 10531 H 1016.4 -0.614863 2.88623 0
M  V30 10532 H 1016.48 1.06195 2.32715 0
M  V30 10533 H 1016.13 1.85607 4.72771 0
M  V30 10534 H 1016.06 0.158507 5.26361 0
M  V30 10535 H 1018.55 0.516497 3.74354 0
M  V30 10536 H 1018.86 1.67218 7.54492 0
M  V30 10537 H 1017.21 1.49705 6.78685 0
M  V30 10538 H 1020.4 0.723137 4.62481 0
M  V30 10539 H 1020.57 1.24991 6.35831 0
M  V30 10540 N 1013.98 -1.5736 0.0868897 0
M  V30 10541 C 1014.92 -2.14793 -0.892571 0
M  V30 10542 C 1015.92 -1.08866 -1.29787 0
M  V30 10543 O 1017.12 -1.27223 -1.27335 0
M  V30 10544 H 1013.5 -0.686998 -0.305838 0
M  V30 10545 H 1015.47 -2.95927 -0.383393 0
M  V30 10546 C 1014.22 -2.73646 -2.14507 0
M  V30 10547 H 1013.54 -3.54835 -1.84207 0
M  V30 10548 H 1014.98 -3.17409 -2.81118 0
M  V30 10549 C 1013.44 -1.69138 -2.91366 0
M  V30 10550 O 1013.97 -1.12539 -3.85614 0
M  V30 10551 N 1012.18 -1.3982 -2.54752 0
M  V30 10552 H 1011.72 -1.86035 -1.78182 0
M  V30 10553 H 1011.68 -0.701316 -3.06478 0
M  V30 10554 N 1015.45 0.186762 -1.56489 0
M  V30 10555 C 1016.7 0.902594 -1.82277 0
M  V30 10556 C 1017.06 1.80536 -0.665179 0
M  V30 10557 O 1016.35 1.88573 0.339224 0
M  V30 10558 C 1016.54 1.74719 -3.11782 0
M  V30 10559 C 1016.37 0.92769 -4.40027 0
M  V30 10560 C 1015.14 0.608832 -5.01619 0
M  V30 10561 C 1017.34 0.276471 -5.13556 0
M  V30 10562 N 1015.32 -0.228425 -6.13475 0
M  V30 10563 C 1016.69 -0.42262 -6.18558 0
M  V30 10564 C 1018.75 0.19305 -4.97526 0
M  V30 10565 C 1017.45 -1.1972 -7.09267 0
M  V30 10566 C 1019.48 -0.568152 -5.88665 0
M  V30 10567 C 1018.84 -1.25566 -6.93118 0
M  V30 10568 H 1014.94 0.309403 -0.718188 0
M  V30 10569 H 1017.52 0.170693 -1.9395 0
M  V30 10570 H 1015.69 2.45063 -3.01328 0
M  V30 10571 H 1017.42 2.40314 -3.25625 0
M  V30 10572 H 1014.18 0.935247 -4.64274 0
M  V30 10573 H 1014.6 -0.636908 -6.73997 0
M  V30 10574 H 1019.25 0.71023 -4.16792 0
M  V30 10575 H 1016.96 -1.72578 -7.89457 0
M  V30 10576 H 1020.55 -0.634164 -5.78333 0
M  V30 10577 H 1019.43 -1.83524 -7.62423 0
M  V30 10578 N 1016.93 1.50896 0.454776 0
M  V30 10579 C 1017.9 1.70377 1.53312 0
M  V30 10580 C 1018.9 0.57408 1.50203 0
M  V30 10581 O 1020.09 0.841374 1.52534 0
M  V30 10582 C 1017.22 1.74411 2.92905 0
M  V30 10583 H 1018.41 2.66599 1.37349 0
M  V30 10584 H 1015.96 1.40622 0.68228 0
M  V30 10585 H 1016.7 0.799408 3.14293 0
M  V30 10586 H 1016.48 2.56496 2.96568 0
M  V30 10587 H 1017.97 1.91382 3.71164 0
M  V30 10588 N 1018.41 -0.709066 1.40748 0
M  V30 10589 C 1019.37 -1.80485 1.41272 0
M  V30 10590 C 1020.37 -1.57872 0.305463 0
M  V30 10591 O 1021.56 -1.64793 0.564691 0
M  V30 10592 C 1018.7 -3.1867 1.21087 0
M  V30 10593 H 1019.89 -1.81417 2.38805 0
M  V30 10594 H 1017.44 -0.915356 1.26692 0
M  V30 10595 H 1018.18 -3.23385 0.243406 0
M  V30 10596 H 1017.96 -3.36484 2.01299 0
M  V30 10597 H 1019.45 -3.98685 1.24257 0
M  V30 10598 N 1019.89 -1.26353 -0.941956 0
M  V30 10599 C 1021.14 -1.11851 -1.68806 0
M  V30 10600 C 1021.46 0.33829 -1.91535 0
M  V30 10601 O 1020.72 1.26495 -1.49324 0
M  V30 10602 C 1021.02 -1.83195 -3.06879 0
M  V30 10603 C 1020.68 -3.33093 -3.03908 0
M  V30 10604 C 1019.35 -3.73982 -3.02805 0
M  V30 10605 C 1021.7 -4.28803 -2.96273 0
M  V30 10606 C 1019.03 -5.08971 -2.91832 0
M  V30 10607 C 1021.38 -5.6383 -2.86842 0
M  V30 10608 C 1020.04 -6.04032 -2.84081 0
M  V30 10609 H 1019.31 -0.409293 -0.617706 0
M  V30 10610 H 1021.96 -1.56785 -1.09957 0
M  V30 10611 H 1020.26 -1.30728 -3.69347 0
M  V30 10612 H 1021.96 -1.69416 -3.63455 0
M  V30 10613 H 1018.55 -3.00566 -3.05546 0
M  V30 10614 H 1022.74 -3.98195 -2.96234 0
M  V30 10615 H 1017.99 -5.39282 -2.88072 0
M  V30 10616 H 1022.17 -6.37676 -2.79898 0
M  V30 10617 H 1019.79 -7.08586 -2.75335 0
M  V30 10618 N 1021.37 1.14642 -1.08144 0
M  V30 10619 C 1022.78 1.37604 -0.808537 0
M  V30 10620 C 1022.98 1.92868 0.583452 0
M  V30 10621 O 1022.04 2.13964 1.34073 0
M  V30 10622 C 1023.35 2.3396 -1.889 0
M  V30 10623 C 1024.9 2.47605 -1.9147 0
M  V30 10624 C 1025.38 3.47258 -2.98623 0
M  V30 10625 N 1026.87 3.548 -2.97777 0
M  V30 10626 C 1027.6 4.31751 -3.77331 0
M  V30 10627 N 1027.1 5.11966 -4.66757 0
M  V30 10628 N 1028.89 4.2692 -3.65645 0
M  V30 10629 H 1021.04 0.771154 -1.97906 0
M  V30 10630 H 1023.3 0.401694 -0.858688 0
M  V30 10631 H 1023.01 2.00484 -2.88962 0
M  V30 10632 H 1022.88 3.33833 -1.756 0
M  V30 10633 H 1025.27 2.80375 -0.920548 0
M  V30 10634 H 1025.35 1.47702 -2.08848 0
M  V30 10635 H 1025 3.15223 -3.98243 0
M  V30 10636 H 1024.93 4.46935 -2.7849 0
M  V30 10637 H 1027.42 2.97553 -2.3296 0
M  V30 10638 H 1027.73 5.67951 -5.24072 0
M  V30 10639 H 1026.08 5.11245 -4.70801 0
M  V30 10640 H 1029.27 3.63322 -2.95152 0
M  V30 10641 H 1029.44 4.8664 -4.27885 0
M  V30 10642 N 1022.85 0.866709 1.31628 0
M  V30 10643 C 1024.09 0.475086 1.96437 0
M  V30 10644 C 1024.41 -0.975179 1.68865 0
M  V30 10645 O 1023.68 -1.68317 1.0023 0
M  V30 10646 H 1022.26 0.172695 0.726764 0
M  V30 10647 H 1024.93 1.10578 1.60494 0
M  V30 10648 H 1024.02 0.630123 3.05673 0
M  V30 10649 N 1024.32 -1.44642 0.625825 0
M  V30 10650 C 1025.57 -2.02939 0.13689 0
M  V30 10651 C 1025.92 -1.48308 -1.22566 0
M  V30 10652 O 1025.22 -0.655458 -1.8004 0
M  V30 10653 C 1025.41 -3.57352 0.0584381 0
M  V30 10654 C 1025.24 -4.26963 1.41184 0
M  V30 10655 C 1024.01 -4.64153 1.99725 0
M  V30 10656 C 1026.21 -4.5775 2.34455 0
M  V30 10657 N 1024.19 -5.18706 3.28356 0
M  V30 10658 C 1025.56 -5.1333 3.47696 0
M  V30 10659 C 1027.62 -4.39699 2.336 0
M  V30 10660 C 1026.32 -5.5276 4.60271 0
M  V30 10661 C 1028.35 -4.80173 3.45235 0
M  V30 10662 C 1027.71 -5.35862 4.572 0
M  V30 10663 H 1023.81 -0.776343 0.0938879 0
M  V30 10664 H 1026.39 -1.76209 0.828162 0
M  V30 10665 H 1024.56 -3.83705 -0.6021 0
M  V30 10666 H 1026.29 -4.02314 -0.438835 0
M  V30 10667 H 1023.05 -4.48298 1.52728 0
M  V30 10668 H 1023.47 -5.50464 3.94105 0
M  V30 10669 H 1028.11 -3.95942 1.48289 0
M  V30 10670 H 1025.83 -5.95473 5.46294 0
M  V30 10671 H 1029.42 -4.67924 3.45743 0
M  V30 10672 H 1028.3 -5.66602 5.42154 0
M  V30 10673 N 1025.8 -0.366053 -1.5329 0
M  V30 10674 C 1026.76 0.467904 -2.24373 0
M  V30 10675 C 1027.76 1.00934 -1.25176 0
M  V30 10676 O 1028.95 0.895015 -1.49449 0
M  V30 10677 C 1026.09 1.65405 -2.98084 0
M  V30 10678 H 1027.28 -0.154105 -2.99504 0
M  V30 10679 H 1024.83 -0.117751 -1.55856 0
M  V30 10680 H 1025.57 2.31413 -2.27197 0
M  V30 10681 H 1025.35 1.27277 -3.70868 0
M  V30 10682 H 1026.84 2.24503 -3.52119 0
M  V30 10683 N 1027.28 1.57312 -0.0952337 0
M  V30 10684 C 1028.53 1.94358 0.568442 0
M  V30 10685 C 1028.85 0.97698 1.68182 0
M  V30 10686 O 1028.11 -0.00340398 1.957 0
M  V30 10687 C 1028.41 3.37937 1.16332 0
M  V30 10688 C 1028.07 4.50565 0.173715 0
M  V30 10689 C 1026.74 4.81099 -0.0984673 0
M  V30 10690 C 1029.09 5.18777 -0.501992 0
M  V30 10691 C 1026.42 5.77172 -1.05305 0
M  V30 10692 C 1028.77 6.15874 -1.44505 0
M  V30 10693 C 1027.43 6.44813 -1.72546 0
M  V30 10694 H 1026.7 0.711206 0.208007 0
M  V30 10695 H 1029.35 1.90734 -0.171096 0
M  V30 10696 H 1027.65 3.3814 1.97911 0
M  V30 10697 H 1029.35 3.63902 1.68453 0
M  V30 10698 H 1025.94 4.26766 0.396042 0
M  V30 10699 H 1030.13 4.95363 -0.304855 0
M  V30 10700 H 1025.38 5.97909 -1.2773 0
M  V30 10701 H 1029.56 6.67824 -1.97444 0
M  V30 10702 H 1027.18 7.19067 -2.46671 0
M  V30 10703 N 1028.76 -0.17846 1.56586 0
M  V30 10704 C 1029.99 -0.911996 1.85715 0
M  V30 10705 C 1030.4 -1.76138 0.679766 0
M  V30 10706 O 1029.76 -1.79088 -0.351266 0
M  V30 10707 C 1029.81 -1.79459 3.1381 0
M  V30 10708 O 1029.53 -0.979476 4.2701 0
M  V30 10709 C 1031.03 -2.6384 3.56235 0
M  V30 10710 H 1028.25 -0.265299 0.616326 0
M  V30 10711 H 1030.79 -0.180704 2.037 0
M  V30 10712 H 1028.95 -2.4793 2.97673 0
M  V30 10713 H 1029.36 -1.58244 5.00059 0
M  V30 10714 H 1030.84 -3.21396 4.48786 0
M  V30 10715 H 1031.31 -3.38363 2.80013 0
M  V30 10716 H 1031.92 -2.00712 3.7496 0
M  V30 10717 N 1030.24 -1.51135 -0.446768 0
M  V30 10718 C 1031.65 -1.39101 -0.782504 0
M  V30 10719 C 1031.85 -0.46599 -1.96038 0
M  V30 10720 O 1030.91 0.0823679 -2.52366 0
M  V30 10721 C 1032.22 -2.80953 -1.07173 0
M  V30 10722 C 1033.77 -2.90038 -1.17673 0
M  V30 10723 C 1034.24 -4.32777 -1.49894 0
M  V30 10724 N 1035.73 -4.3584 -1.56837 0
M  V30 10725 C 1036.47 -5.43305 -1.83322 0
M  V30 10726 N 1035.97 -6.60945 -2.07662 0
M  V30 10727 N 1037.76 -5.30775 -1.85026 0
M  V30 10728 H 1029.91 -2.09835 0.329114 0
M  V30 10729 H 1032.17 -0.944199 0.0848054 0
M  V30 10730 H 1031.88 -3.50591 -0.279037 0
M  V30 10731 H 1031.75 -3.197 -2.00179 0
M  V30 10732 H 1034.14 -2.20603 -1.96005 0
M  V30 10733 H 1034.22 -2.54801 -0.225892 0
M  V30 10734 H 1033.86 -5.02757 -0.720924 0
M  V30 10735 H 1033.79 -4.6552 -2.46168 0
M  V30 10736 H 1036.29 -3.51023 -1.39968 0
M  V30 10737 H 1036.6 -7.38643 -2.27214 0
M  V30 10738 H 1034.94 -6.64077 -2.05003 0
M  V30 10739 H 1038.13 -4.37858 -1.65523 0
M  V30 10740 H 1038.31 -6.14609 -2.05329 0
M  V30 10741 N 1031.71 0.701592 -1.41122 0
M  V30 10742 C 1032.64 1.82815 -1.45262 0
M  V30 10743 C 1033.62 1.67215 -0.311939 0
M  V30 10744 O 1034.81 1.87038 -0.522538 0
M  V30 10745 C 1031.94 3.20899 -1.32819 0
M  V30 10746 C 1030.89 3.51194 -2.44636 0
M  V30 10747 C 1030.22 4.8857 -2.17263 0
M  V30 10748 C 1031.52 3.50777 -3.86979 0
M  V30 10749 H 1033.21 1.79608 -2.39544 0
M  V30 10750 H 1030.76 0.862693 -1.15298 0
M  V30 10751 H 1032.71 3.99417 -1.34329 0
M  V30 10752 H 1031.44 3.24717 -0.350191 0
M  V30 10753 H 1030.1 2.75024 -2.42399 0
M  V30 10754 H 1029.74 4.89007 -1.17819 0
M  V30 10755 H 1029.44 5.09805 -2.92186 0
M  V30 10756 H 1030.97 5.69405 -2.20478 0
M  V30 10757 H 1032.38 4.19309 -3.90964 0
M  V30 10758 H 1030.78 3.83542 -4.61536 0
M  V30 10759 H 1031.85 2.49873 -4.15562 0
M  V30 10760 N 1033.19 1.2685 0.935242 0
M  V30 10761 C 1034.14 1.08923 2.03481 0
M  V30 10762 C 1035.11 -0.00749786 1.66098 0
M  V30 10763 O 1036.29 0.153401 1.90182 0
M  V30 10764 C 1033.43 0.734529 3.37192 0
M  V30 10765 C 1032.55 1.90812 3.87576 0
M  V30 10766 C 1031.68 1.49599 5.097 0
M  V30 10767 C 1030.72 2.63752 5.5236 0
M  V30 10768 N 1029.86 2.23179 6.65684 0
M  V30 10769 H 1034.7 2.03016 2.18148 0
M  V30 10770 H 1032.23 1.01072 1.06878 0
M  V30 10771 H 1034.19 0.509734 4.14074 0
M  V30 10772 H 1032.82 -0.169438 3.22355 0
M  V30 10773 H 1031.87 2.24567 3.0704 0
M  V30 10774 H 1033.19 2.7647 4.1517 0
M  V30 10775 H 1032.34 1.23199 5.9406 0
M  V30 10776 H 1031.08 0.61039 4.83865 0
M  V30 10777 H 1030.08 2.90874 4.66554 0
M  V30 10778 H 1031.31 3.5292 5.80193 0
M  V30 10779 H 1029.26 1.37061 6.41522 0
M  V30 10780 H 1029.17 3.02379 6.92895 0
M  V30 10781 H 1030.44 2.00007 7.53404 0
M  V30 10782 N 1034.67 -1.14067 1.0875 0
M  V30 10783 C 1035.9 -1.89041 0.840902 0
M  V30 10784 C 1036.31 -1.78768 -0.60725 0
M  V30 10785 O 1035.67 -1.14945 -1.41753 0
M  V30 10786 C 1035.72 -3.38891 1.25838 0
M  V30 10787 O 1035.44 -3.48886 2.64972 0
M  V30 10788 C 1036.94 -4.30852 1.04315 0
M  V30 10789 H 1034.16 -0.598685 0.303014 0
M  V30 10790 H 1036.71 -1.44438 1.44769 0
M  V30 10791 H 1034.86 -3.81103 0.695627 0
M  V30 10792 H 1035.28 -4.41989 2.82393 0
M  V30 10793 H 1036.75 -5.34353 1.38461 0
M  V30 10794 H 1037.23 -4.39196 -0.0195784 0
M  V30 10795 H 1037.83 -3.944 1.59151 0
M  V30 10796 N 1036.15 -0.873678 -1.31166 0
M  V30 10797 C 1037.1 -0.330288 -2.28424 0
M  V30 10798 C 1038.07 0.573299 -1.55893 0
M  V30 10799 O 1039.25 0.504143 -1.84019 0
M  V30 10800 C 1036.39 0.459004 -3.42034 0
M  V30 10801 C 1035.5 -0.472519 -4.29408 0
M  V30 10802 C 1034.64 0.331261 -5.30166 0
M  V30 10803 C 1033.68 -0.596453 -6.09187 0
M  V30 10804 N 1032.81 0.171305 -7.01891 0
M  V30 10805 H 1037.65 -1.16485 -2.7429 0
M  V30 10806 H 1035.19 -0.585813 -1.34932 0
M  V30 10807 H 1037.15 0.932432 -4.06647 0
M  V30 10808 H 1035.78 1.25824 -2.97268 0
M  V30 10809 H 1034.83 -1.06441 -3.65205 0
M  V30 10810 H 1036.14 -1.18372 -4.84551 0
M  V30 10811 H 1035.3 0.867038 -6.00473 0
M  V30 10812 H 1034.04 1.07573 -4.75688 0
M  V30 10813 H 1033.04 -1.14395 -5.37767 0
M  V30 10814 H 1034.27 -1.33983 -6.65752 0
M  V30 10815 H 1032.21 0.89852 -6.49817 0
M  V30 10816 H 1032.13 -0.480481 -7.54472 0
M  V30 10817 H 1033.4 0.688192 -7.76456 0
M  V30 10818 N 1037.63 1.44308 -0.633487 0
M  V30 10819 C 1038.54 2.34492 0.0711787 0
M  V30 10820 C 1039.55 1.52754 0.8332 0
M  V30 10821 O 1040.73 1.85475 0.784929 0
M  V30 10822 C 1037.79 3.30767 1.03895 0
M  V30 10823 C 1036.85 4.28412 0.276043 0
M  V30 10824 C 1036.09 5.20087 1.19772 0
M  V30 10825 O 1036.31 5.15743 2.4365 0
M  V30 10826 O 1035.24 5.98038 0.680764 0
M  V30 10827 H 1039.07 2.96203 -0.67063 0
M  V30 10828 H 1036.66 1.4412 -0.393678 0
M  V30 10829 H 1038.54 3.90021 1.59566 0
M  V30 10830 H 1037.21 2.71586 1.76133 0
M  V30 10831 H 1036.12 3.72696 -0.32377 0
M  V30 10832 H 1037.45 4.9052 -0.406364 0
M  V30 10833 N 1039.1 0.374177 1.53094 0
M  V30 10834 C 1040.33 -0.213325 2.05797 0
M  V30 10835 C 1040.75 -1.41753 1.24706 0
M  V30 10836 O 1040.1 -1.80183 0.289868 0
M  V30 10837 C 1040.16 -0.598367 3.56513 0
M  V30 10838 O 1039.88 0.557983 4.34532 0
M  V30 10839 C 1041.38 -1.24334 4.25507 0
M  V30 10840 H 1038.6 -0.0357398 0.670048 0
M  V30 10841 H 1041.14 0.535035 1.97377 0
M  V30 10842 H 1039.3 -1.29663 3.65056 0
M  V30 10843 H 1039.71 0.244911 5.23928 0
M  V30 10844 H 1041.18 -1.46325 5.32253 0
M  V30 10845 H 1041.66 -2.20622 3.79766 0
M  V30 10846 H 1042.27 -0.586269 4.2124 0
M  V30 10847 N 1040.58 -1.57259 0.103575 0
M  V30 10848 C 1041.99 -1.81816 -0.424239 0
M  V30 10849 C 1042.34 -1.01976 -1.67617 0
M  V30 10850 O 1041.47 -0.251673 -2.14932 0
M  V30 10851 C 1042.06 -3.29783 -0.776453 0
M  V30 10852 C 1040.62 -3.55074 -1.24897 0
M  V30 10853 C 1039.77 -2.76172 -0.249875 0
M  V30 10854 H 1042.72 -1.55254 0.328913 0
M  V30 10855 H 1042.74 -3.43569 -1.63526 0
M  V30 10856 H 1042.25 -3.87865 0.134906 0
M  V30 10857 H 1040.36 -3.02332 -2.17775 0
M  V30 10858 H 1040.47 -4.637 -1.20495 0
M  V30 10859 H 1038.83 -2.43902 -0.733767 0
M  V30 10860 H 1039.62 -3.37007 0.65431 0
M  V30 10861 N 1042.06 0.170153 -1.56679 0
M  V30 10862 C 1043.29 0.90618 -1.86556 0
M  V30 10863 C 1043.71 1.74986 -0.690044 0
M  V30 10864 O 1043.07 1.77672 0.360862 0
M  V30 10865 C 1043.12 1.75777 -3.14857 0
M  V30 10866 O 1042.22 2.85952 -2.97162 0
M  V30 10867 H 1041.56 0.253781 -0.613589 0
M  V30 10868 H 1044.09 0.167943 -2.0391 0
M  V30 10869 H 1044.1 2.15747 -3.46291 0
M  V30 10870 H 1042.78 1.13807 -4.00026 0
M  V30 10871 H 1041.35 2.49557 -2.77084 0
M  V30 10872 N 1043.54 1.5137 0.438746 0
M  V30 10873 C 1044.47 1.75528 1.53987 0
M  V30 10874 C 1045.45 0.605067 1.58975 0
M  V30 10875 O 1046.63 0.847634 1.74725 0
M  V30 10876 C 1043.76 1.87904 2.92078 0
M  V30 10877 C 1042.72 3.0333 3.01951 0
M  V30 10878 C 1042.04 3.00888 4.42007 0
M  V30 10879 C 1043.34 4.43319 2.76163 0
M  V30 10880 H 1045.04 2.67728 1.34022 0
M  V30 10881 H 1042.58 1.28831 0.643308 0
M  V30 10882 H 1044.54 2.03388 3.69068 0
M  V30 10883 H 1043.26 0.923514 3.13271 0
M  V30 10884 H 1041.92 2.87549 2.274 0
M  V30 10885 H 1041.57 2.03116 4.60166 0
M  V30 10886 H 1041.27 3.78397 4.49544 0
M  V30 10887 H 1042.79 3.18464 5.20973 0
M  V30 10888 H 1044.21 4.59458 3.42887 0
M  V30 10889 H 1042.6 5.22523 2.9511 0
M  V30 10890 H 1043.67 4.53453 1.71779 0
M  V30 10891 N 1045.02 -0.694098 1.41492 0
M  V30 10892 C 1046.26 -1.45127 1.4065 0
M  V30 10893 C 1046.59 -1.94993 0.0170289 0
M  V30 10894 O 1045.86 -1.71799 -0.941372 0
M  V30 10895 H 1044.44 -0.538493 0.51772 0
M  V30 10896 H 1047.1 -0.821441 1.76744 0
M  V30 10897 H 1046.19 -2.31372 2.0946 0
M  V30 10898 N 1046.49 -1.27344 -0.928501 0
M  V30 10899 C 1047.72 -1.16557 -1.7155 0
M  V30 10900 C 1048.14 0.274044 -1.86093 0
M  V30 10901 O 1047.5 1.19847 -1.36038 0
M  V30 10902 C 1047.55 -1.85332 -3.09329 0
M  V30 10903 O 1046.65 -1.15074 -3.9602 0
M  V30 10904 H 1046 -0.405423 -0.525859 0
M  V30 10905 H 1048.53 -1.68399 -1.16202 0
M  V30 10906 H 1048.54 -1.92659 -3.59648 0
M  V30 10907 H 1047.21 -2.90056 -2.98061 0
M  V30 10908 H 1045.79 -1.1581 -3.54461 0
M  V30 10909 N 1047.97 1.13488 -1.09353 0
M  V30 10910 C 1049.22 1.84383 -0.827488 0
M  V30 10911 C 1049.54 1.83892 0.648745 0
M  V30 10912 O 1048.81 1.29415 1.47066 0
M  V30 10913 H 1047.39 0.682732 -0.303127 0
M  V30 10914 H 1050.05 1.37477 -1.38152 0
M  V30 10915 H 1049.15 2.88919 -1.18035 0
M  V30 10916 N 1049.45 0.880621 1.30701 0
M  V30 10917 C 1050.68 0.51094 2.00182 0
M  V30 10918 C 1051.09 -0.903914 1.66211 0
M  V30 10919 O 1050.43 -1.60529 0.893089 0
M  V30 10920 C 1050.49 0.600775 3.54445 0
M  V30 10921 C 1050.16 1.97915 4.1192 0
M  V30 10922 C 1051.16 2.94802 4.28238 0
M  V30 10923 C 1048.84 2.28336 4.47401 0
M  V30 10924 C 1050.83 4.20245 4.79242 0
M  V30 10925 C 1048.52 3.54026 4.98105 0
M  V30 10926 C 1049.52 4.49796 5.13978 0
M  V30 10927 O 1049.21 5.73256 5.63589 0
M  V30 10928 H 1048.94 0.196477 0.646818 0
M  V30 10929 H 1051.49 1.18659 1.67658 0
M  V30 10930 H 1049.72 -0.131832 3.86475 0
M  V30 10931 H 1051.41 0.242996 4.05172 0
M  V30 10932 H 1052.18 2.7261 4.01134 0
M  V30 10933 H 1048.06 1.54564 4.34317 0
M  V30 10934 H 1051.6 4.95003 4.91546 0
M  V30 10935 H 1047.5 3.76057 5.24644 0
M  V30 10936 H 1048.27 5.75577 5.81939 0
M  V30 10937 N 1050.93 -1.4397 0.641131 0
M  V30 10938 C 1052.21 -1.95436 0.0800918 0
M  V30 10939 C 1052.59 -1.58282 -1.39678 0
M  V30 10940 O 1051.93 -0.861867 -2.11623 0
M  V30 10941 C 1052.14 -3.47589 0.313531 0
M  V30 10942 C 1053.49 -4.2407 0.212034 0
M  V30 10943 O 1054.52 -3.55353 0.245434 0
M  V30 10944 O 1053.38 -5.46356 0.125455 0
M  V30 10945 H 1050.47 -0.826834 -0.0165735 0
M  V30 10946 H 1053.02 -1.5397 0.71353 0
M  V30 10947 H 1051.79 -3.67716 1.33793 0
M  V30 10948 H 1051.41 -3.96025 -0.353563 0
M  V30 10949 N 1052.41 -0.382291 -1.52893 0
M  V30 10950 C 1053.82 0.0932841 -1.86467 0
M  V30 10951 C 1054.17 1.4675 -1.30226 0
M  V30 10952 O 1053.29 2.07001 -0.63084 0
M  V30 10953 C 1053.89 0.176048 -3.38342 0
M  V30 10954 C 1052.45 0.595904 -3.71653 0
M  V30 10955 C 1051.6 -0.246511 -2.76202 0
M  V30 10956 H 1054.55 -0.600443 -1.46903 0
M  V30 10957 H 1054.57 0.996512 -3.67219 0
M  V30 10958 H 1054.08 -0.824264 -3.79246 0
M  V30 10959 H 1052.18 1.60384 -3.36315 0
M  V30 10960 H 1052.29 0.358919 -4.77754 0
M  V30 10961 H 1050.66 0.287162 -2.53076 0
M  V30 10962 H 1051.44 -1.24467 -3.19942 0
M  V30 10963 N 1053.89 1.57202 -0.111913 0
M  V30 10964 C 1055.12 1.99008 0.554907 0
M  V30 10965 C 1055.52 0.990323 1.61212 0
M  V30 10966 O 1054.87 -0.0259612 1.83682 0
M  V30 10967 C 1054.93 3.37218 1.24598 0
M  V30 10968 C 1054.59 4.55752 0.337549 0
M  V30 10969 C 1055.59 5.18192 -0.421026 0
M  V30 10970 C 1053.27 5.01674 0.25069 0
M  V30 10971 C 1055.27 6.24938 -1.25426 0
M  V30 10972 C 1052.96 6.08282 -0.586186 0
M  V30 10973 C 1053.95 6.6978 -1.3373 0
M  V30 10974 O 1053.64 7.7433 -2.16029 0
M  V30 10975 H 1053.37 0.658669 0.152091 0
M  V30 10976 H 1055.93 2.04492 -0.192937 0
M  V30 10977 H 1054.16 3.28467 2.04074 0
M  V30 10978 H 1055.85 3.63359 1.809 0
M  V30 10979 H 1056.61 4.83634 -0.363752 0
M  V30 10980 H 1052.49 4.53558 0.825005 0
M  V30 10981 H 1056.04 6.72869 -1.84102 0
M  V30 10982 H 1051.93 6.42271 -0.64488 0
M  V30 10983 H 1052.7 7.91395 -2.08894 0
M  V30 10984 N 1055.36 -0.161842 1.56767 0
M  V30 10985 C 1056.59 -0.890953 1.86402 0
M  V30 10986 C 1057 -1.75918 0.696373 0
M  V30 10987 O 1056.34 -1.80461 -0.343463 0
M  V30 10988 C 1056.41 -1.81079 3.10565 0
M  V30 10989 C 1056.07 -1.12121 4.43032 0
M  V30 10990 C 1057.07 -0.482152 5.17659 0
M  V30 10991 C 1054.75 -1.11514 4.89765 0
M  V30 10992 C 1056.75 0.153772 6.37214 0
M  V30 10993 C 1054.43 -0.4754 6.09248 0
M  V30 10994 C 1055.43 0.157944 6.82817 0
M  V30 10995 O 1055.12 0.787579 8.00033 0
M  V30 10996 H 1054.85 -0.26379 0.622407 0
M  V30 10997 H 1057.41 -0.163884 2.04745 0
M  V30 10998 H 1055.64 -2.57842 2.88192 0
M  V30 10999 H 1057.32 -2.41056 3.26568 0
M  V30 11000 H 1058.09 -0.478752 4.82631 0
M  V30 11001 H 1053.97 -1.59752 4.32435 0
M  V30 11002 H 1057.51 0.648716 6.94577 0
M  V30 11003 H 1053.41 -0.476416 6.43739 0
M  V30 11004 H 1054.18 0.687769 8.15605 0
M  V30 11005 N 1056.84 -1.516 -0.430713 0
M  V30 11006 C 1058.07 -1.68414 -1.20185 0
M  V30 11007 C 1058.48 -0.384297 -1.84847 0
M  V30 11008 O 1057.84 0.637808 -1.70992 0
M  V30 11009 C 1057.89 -2.80451 -2.28099 0
M  V30 11010 O 1057.61 -4.05399 -1.66081 0
M  V30 11011 C 1059.11 -3.0859 -3.18256 0
M  V30 11012 H 1056.33 -0.564982 -0.361989 0
M  V30 11013 H 1058.88 -1.9805 -0.50954 0
M  V30 11014 H 1057.03 -2.53395 -2.93036 0
M  V30 11015 H 1057.45 -4.67671 -2.37453 0
M  V30 11016 H 1058.92 -3.9055 -3.90096 0
M  V30 11017 H 1059.4 -2.21264 -3.79393 0
M  V30 11018 H 1060 -3.37331 -2.59014 0
M  V30 11019 N 1058.32 0.686584 -1.41858 0
M  V30 11020 C 1059.55 1.47305 -1.44862 0
M  V30 11021 C 1059.96 1.8912 -0.0549286 0
M  V30 11022 O 1059.3 1.57941 0.938101 0
M  V30 11023 C 1059.36 2.76107 -2.30229 0
M  V30 11024 C 1059.03 2.5644 -3.78269 0
M  V30 11025 C 1060.02 2.21803 -4.70212 0
M  V30 11026 C 1057.71 2.71801 -4.22409 0
M  V30 11027 C 1059.7 2.02778 -6.04284 0
M  V30 11028 C 1057.39 2.52392 -5.56544 0
M  V30 11029 C 1058.39 2.17933 -6.47298 0
M  V30 11030 O 1058.08 1.98701 -7.78956 0
M  V30 11031 H 1057.81 0.460174 -0.495193 0
M  V30 11032 H 1060.36 0.852069 -1.86893 0
M  V30 11033 H 1058.59 3.40644 -1.83026 0
M  V30 11034 H 1060.28 3.37947 -2.24826 0
M  V30 11035 H 1061.05 2.09542 -4.37398 0
M  V30 11036 H 1056.93 2.97605 -3.52069 0
M  V30 11037 H 1060.47 1.75805 -6.75084 0
M  V30 11038 H 1056.37 2.64246 -5.88935 0
M  V30 11039 H 1057.13 2.13393 -7.90193 0
M  V30 11040 N 1059.8 1.27835 0.921735 0
M  V30 11041 C 1061.02 1.17465 1.70929 0
M  V30 11042 C 1061.45 -0.264171 1.86236 0
M  V30 11043 O 1060.81 -1.19124 1.36671 0
M  V30 11044 C 1060.85 1.8697 3.08342 0
M  V30 11045 O 1059.96 1.17173 3.95404 0
M  V30 11046 H 1059.3 0.408206 0.523702 0
M  V30 11047 H 1061.83 1.69013 1.15307 0
M  V30 11048 H 1061.84 1.94564 3.58621 0
M  V30 11049 H 1060.51 2.91633 2.96518 0
M  V30 11050 H 1059.09 1.17688 3.53842 0
M  V30 11051 N 1061.28 -1.12907 1.09954 0
M  V30 11052 C 1062.52 -1.83941 0.837255 0
M  V30 11053 C 1062.84 -1.84234 -0.638984 0
M  V30 11054 O 1062.11 -1.30193 -1.46378 0
M  V30 11055 H 1060.69 -0.681115 0.306743 0
M  V30 11056 H 1063.36 -1.36743 1.38879 0
M  V30 11057 H 1062.45 -2.88289 1.19565 0
M  V30 11058 N 1062.75 -0.88754 -1.30232 0
M  V30 11059 C 1063.98 -0.521562 -2.00735 0
M  V30 11060 C 1064.4 0.883247 -1.66073 0
M  V30 11061 O 1063.76 1.58581 -0.878731 0
M  V30 11062 C 1063.81 -0.706521 -3.53611 0
M  V30 11063 O 1062.91 0.246447 -4.11663 0
M  V30 11064 H 1062.25 -0.205216 -0.631492 0
M  V30 11065 H 1064.78 -1.19579 -1.66018 0
M  V30 11066 H 1064.79 -0.606501 -4.03467 0
M  V30 11067 H 1063.47 -1.73076 -3.78177 0
M  V30 11068 H 1062.05 0.0999062 -3.72766 0
M  V30 11069 N 1064.23 1.43628 -0.648757 0
M  V30 11070 C 1065.48 2.01083 -0.157692 0
M  V30 11071 C 1065.79 1.51756 1.23408 0
M  V30 11072 O 1067 2.01455 1.82012 0
M  V30 11073 C 1065.46 3.59157 -0.231118 0
M  V30 11074 C 1065.06 4.17478 -1.6253 0
M  V30 11075 C 1066.81 4.24016 0.202573 0
M  V30 11076 C 1064.72 5.67832 -1.6529 0
M  V30 11077 H 1063.65 0.751977 -0.0551897 0
M  V30 11078 H 1066.3 1.64648 -0.810139 0
M  V30 11079 H 1064.68 3.92972 0.488755 0
M  V30 11080 H 1065.85 3.9517 -2.37017 0
M  V30 11081 H 1064.17 3.64973 -2.00459 0
M  V30 11082 H 1066.76 5.34319 0.20174 0
M  V30 11083 H 1067.11 3.97616 1.23319 0
M  V30 11084 H 1067.64 3.95068 -0.465398 0
M  V30 11085 H 1064.38 5.98994 -2.66246 0
M  V30 11086 H 1063.9 5.92209 -0.951217 0
M  V30 11087 H 1065.58 6.3179 -1.39465 0
M  V30 11088 N 1065.71 0.390394 1.52688 0
M  V30 11089 C 1067.12 -0.083394 1.86514 0
M  V30 11090 C 1067.47 -1.46057 1.31003 0
M  V30 11091 O 1066.6 -2.06663 0.641809 0
M  V30 11092 C 1067.19 -0.158102 3.38431 0
M  V30 11093 C 1065.75 -0.576186 3.71964 0
M  V30 11094 C 1064.9 0.261156 2.76068 0
M  V30 11095 H 1067.85 0.608226 1.46582 0
M  V30 11096 H 1067.87 -0.977023 3.67742 0
M  V30 11097 H 1067.38 0.844365 3.78803 0
M  V30 11098 H 1065.48 -1.58598 3.37161 0
M  V30 11099 H 1065.6 -0.333577 4.77937 0
M  V30 11100 H 1063.96 -0.273737 2.53225 0
M  V30 11101 H 1064.74 1.26162 3.19277 0
M  V30 11102 N 1067.19 -1.57141 0.120249 0
M  V30 11103 C 1068.42 -1.993 -0.544346 0
M  V30 11104 C 1068.83 -0.998858 -1.60684 0
M  V30 11105 O 1068.17 0.0162197 -1.83693 0
M  V30 11106 C 1068.23 -3.37874 -1.22808 0
M  V30 11107 C 1067.9 -4.55924 -0.313374 0
M  V30 11108 C 1068.89 -5.17962 0.448501 0
M  V30 11109 C 1066.58 -5.018 -0.224082 0
M  V30 11110 C 1068.57 -6.24264 1.28739 0
M  V30 11111 C 1066.26 -6.07963 0.618437 0
M  V30 11112 C 1067.26 -6.69061 1.3728 0
M  V30 11113 O 1066.94 -7.73173 2.20133 0
M  V30 11114 H 1066.68 -0.659466 -0.148596 0
M  V30 11115 H 1069.23 -2.04387 0.203779 0
M  V30 11116 H 1067.46 -3.29545 -2.02329 0
M  V30 11117 H 1069.15 -3.64314 -1.7897 0
M  V30 11118 H 1069.92 -4.83434 0.389395 0
M  V30 11119 H 1065.79 -4.53989 -0.80094 0
M  V30 11120 H 1069.34 -6.71883 1.87667 0
M  V30 11121 H 1065.24 -6.4192 0.678932 0
M  V30 11122 H 1066 -7.90276 2.13088 0
M  V30 11123 N 1068.67 0.153526 -1.5685 0
M  V30 11124 C 1069.6 1.19162 -2.00805 0
M  V30 11125 C 1070.58 1.45172 -0.886518 0
M  V30 11126 O 1071.76 1.56203 -1.15387 0
M  V30 11127 C 1068.89 2.52637 -2.38311 0
M  V30 11128 C 1067.85 2.41161 -3.53589 0
M  V30 11129 C 1067.17 3.79287 -3.76889 0
M  V30 11130 C 1068.47 1.90122 -4.86468 0
M  V30 11131 H 1070.17 0.82617 -2.87776 0
M  V30 11132 H 1067.71 0.395972 -1.38449 0
M  V30 11133 H 1069.67 3.25478 -2.6766 0
M  V30 11134 H 1068.39 2.91005 -1.4827 0
M  V30 11135 H 1067.05 1.70772 -3.24395 0
M  V30 11136 H 1066.7 4.15079 -2.84109 0
M  V30 11137 H 1066.4 3.72472 -4.54465 0
M  V30 11138 H 1067.92 4.53687 -4.08657 0
M  V30 11139 H 1069.33 2.52752 -5.14577 0
M  V30 11140 H 1067.73 1.94214 -5.67804 0
M  V30 11141 H 1068.8 0.856517 -4.77275 0
M  V30 11142 N 1070.14 1.51827 0.422667 0
M  V30 11143 C 1071.42 1.55772 1.18299 0
M  V30 11144 C 1071.8 0.330657 2.08494 0
M  V30 11145 O 1071.15 -0.683373 2.18042 0
M  V30 11146 C 1071.36 2.87941 1.97208 0
M  V30 11147 C 1072.71 3.4044 2.53744 0
M  V30 11148 O 1073.73 2.8959 2.07403 0
M  V30 11149 O 1072.59 4.29201 3.38303 0
M  V30 11150 H 1069.68 0.626889 0.539388 0
M  V30 11151 H 1072.23 1.64147 0.430545 0
M  V30 11152 H 1071 3.68702 1.31052 0
M  V30 11153 H 1070.63 2.82795 2.79486 0
M  V30 11154 N 1071.62 -0.679052 1.4222 0
M  V30 11155 C 1072.87 -1.43627 1.42182 0
M  V30 11156 C 1073.19 -1.94964 0.0377095 0
M  V30 11157 O 1072.46 -1.72788 -0.923098 0
M  V30 11158 H 1071.04 -0.532972 0.523402 0
M  V30 11159 H 1073.7 -0.802649 1.77605 0
M  V30 11160 H 1072.8 -2.29137 2.11902 0
M  V30 11161 N 1073.1 -1.28322 -0.914942 0
M  V30 11162 C 1074.33 -1.18254 -1.69775 0
M  V30 11163 C 1074.74 0.258978 -1.87015 0
M  V30 11164 O 1074.1 1.17514 -1.3963 0
M  V30 11165 C 1074.15 -1.8753 -3.09054 0
M  V30 11166 O 1073.87 -3.26051 -2.92613 0
M  V30 11167 C 1075.37 -1.83749 -4.03424 0
M  V30 11168 H 1072.59 -0.41055 -0.530744 0
M  V30 11169 H 1075.14 -1.69425 -1.14523 0
M  V30 11170 H 1073.29 -1.40233 -3.61128 0
M  V30 11171 H 1073.71 -3.60729 -3.80756 0
M  V30 11172 H 1075.18 -2.36813 -4.98622 0
M  V30 11173 H 1075.66 -0.809601 -4.31674 0
M  V30 11174 H 1076.26 -2.3072 -3.57279 0
M  V30 11175 N 1074.58 1.12322 -1.10551 0
M  V30 11176 C 1075.83 1.83858 -0.848674 0
M  V30 11177 C 1076.15 1.84159 0.62575 0
M  V30 11178 O 1075.41 1.28341 1.4774 0
M  V30 11179 C 1075.71 3.31177 -1.34375 0
M  V30 11180 C 1075.37 3.51046 -2.8298 0
M  V30 11181 C 1074.04 3.56177 -3.23561 0
M  V30 11182 C 1076.39 3.58061 -3.78737 0
M  V30 11183 C 1073.72 3.65868 -4.58647 0
M  V30 11184 C 1076.07 3.69283 -5.13627 0
M  V30 11185 C 1074.73 3.7267 -5.53781 0
M  V30 11186 H 1074 0.672784 -0.310552 0
M  V30 11187 H 1076.65 1.3253 -1.38232 0
M  V30 11188 H 1074.95 3.84937 -0.730144 0
M  V30 11189 H 1076.65 3.84998 -1.12148 0
M  V30 11190 H 1073.24 3.47716 -2.50582 0
M  V30 11191 H 1077.42 3.53366 -3.48491 0
M  V30 11192 H 1072.68 3.66763 -4.89178 0
M  V30 11193 H 1076.85 3.73654 -5.8767 0
M  V30 11194 H 1074.48 3.79932 -6.58449 0
M  V30 11195 N 1076.06 0.894434 1.2976 0
M  V30 11196 C 1077.29 0.532143 1.99629 0
M  V30 11197 C 1077.69 -0.886234 1.6716 0
M  V30 11198 O 1077.04 -1.59573 0.910065 0
M  V30 11199 C 1077.1 0.638335 3.53787 0
M  V30 11200 C 1076.76 2.02273 4.09798 0
M  V30 11201 C 1077.76 2.99327 4.25087 0
M  V30 11202 C 1075.45 2.33069 4.44954 0
M  V30 11203 C 1077.44 4.25304 4.74758 0
M  V30 11204 C 1075.13 3.59289 4.94322 0
M  V30 11205 C 1076.12 4.55222 5.09178 0
M  V30 11206 O 1075.81 5.79202 5.57477 0
M  V30 11207 H 1075.54 0.203326 0.644697 0
M  V30 11208 H 1078.1 1.2043 1.6639 0
M  V30 11209 H 1076.33 -0.0908338 3.86593 0
M  V30 11210 H 1078.02 0.285956 4.04891 0
M  V30 11211 H 1078.78 2.76849 3.9822 0
M  V30 11212 H 1074.66 1.59162 4.32653 0
M  V30 11213 H 1078.21 5.00189 4.86269 0
M  V30 11214 H 1074.1 3.816 5.20626 0
M  V30 11215 H 1074.87 5.81717 5.75802 0
M  V30 11216 N 1077.53 -1.43282 0.656365 0
M  V30 11217 C 1078.46 -2.33492 -0.0196962 0
M  V30 11218 C 1079.45 -1.49647 -0.80868 0
M  V30 11219 O 1080.63 -1.78303 -0.769529 0
M  V30 11220 C 1077.76 -3.33052 -0.984574 0
M  V30 11221 C 1076.71 -4.26908 -0.305483 0
M  V30 11222 C 1076.04 -5.16531 -1.38202 0
M  V30 11223 C 1077.34 -5.16073 0.804081 0
M  V30 11224 H 1079.03 -2.90272 0.733661 0
M  V30 11225 H 1076.58 -1.39574 0.354259 0
M  V30 11226 H 1078.53 -3.9506 -1.46647 0
M  V30 11227 H 1077.26 -2.74535 -1.76913 0
M  V30 11228 H 1075.92 -3.66268 0.155995 0
M  V30 11229 H 1075.56 -4.54351 -2.1581 0
M  V30 11230 H 1075.26 -5.80148 -0.932878 0
M  V30 11231 H 1076.79 -5.81414 -1.86522 0
M  V30 11232 H 1078.2 -5.71873 0.404212 0
M  V30 11233 H 1076.6 -5.88427 1.17789 0
M  V30 11234 H 1077.67 -4.55574 1.66073 0
M  V30 11235 N 1079.01 -0.398486 -1.52479 0
M  V30 11236 C 1079.96 0.447001 -2.28264 0
M  V30 11237 C 1080.96 1.05511 -1.32529 0
M  V30 11238 O 1082.16 0.994528 -1.5003 0
M  V30 11239 H 1078.54 0.162919 -0.73414 0
M  V30 11240 H 1080.51 -0.213534 -2.97635 0
M  V30 11241 C 1079.26 1.55724 -3.10879 0
M  V30 11242 H 1078.58 1.09864 -3.84409 0
M  V30 11243 H 1080.02 2.12286 -3.67029 0
M  V30 11244 C 1078.48 2.51853 -2.23768 0
M  V30 11245 O 1079.01 3.55483 -1.87069 0
M  V30 11246 N 1077.21 2.2181 -1.87746 0
M  V30 11247 H 1076.76 1.3757 -2.17789 0
M  V30 11248 H 1076.72 2.86376 -1.29753 0
M  V30 11249 N 1080.49 1.57075 -0.12858 0
M  V30 11250 C 1081.44 2.12379 0.829418 0
M  V30 11251 C 1082.43 1.04694 1.2218 0
M  V30 11252 O 1083.62 1.30909 1.1913 0
M  V30 11253 C 1080.75 2.73436 2.07575 0
M  V30 11254 C 1079.83 3.88217 1.7073 0
M  V30 11255 N 1080.22 4.94864 1.04609 0
M  V30 11256 C 1078.52 3.9858 2.00125 0
M  V30 11257 C 1079.22 5.7514 0.871137 0
M  V30 11258 N 1078.2 5.25284 1.39918 0
M  V30 11259 H 1082 2.92209 0.314816 0
M  V30 11260 H 1079.51 1.62233 0.0735788 0
M  V30 11261 H 1081.51 3.11406 2.77185 0
M  V30 11262 H 1080.17 1.95073 2.5957 0
M  V30 11263 H 1081.18 5.13025 0.708961 0
M  V30 11264 H 1077.86 3.3127 2.541 0
M  V30 11265 H 1079.25 6.7098 0.351395 0
M  V30 11266 N 1081.97 -0.145205 1.5693 0
M  V30 11267 C 1083.2 -0.872398 1.87608 0
M  V30 11268 C 1083.61 -1.74657 0.716975 0
M  V30 11269 O 1082.97 -1.79792 -0.3132 0
M  V30 11270 C 1083.02 -1.72762 3.17546 0
M  V30 11271 O 1082.74 -0.888681 4.28992 0
M  V30 11272 C 1084.24 -2.56224 3.61751 0
M  V30 11273 H 1081.46 -0.252166 0.621815 0
M  V30 11274 H 1084.01 -0.137456 2.04038 0
M  V30 11275 H 1082.16 -2.41561 3.02865 0
M  V30 11276 H 1082.58 -1.47601 5.03303 0
M  V30 11277 H 1084.05 -3.11804 4.55502 0
M  V30 11278 H 1084.53 -3.32347 2.87127 0
M  V30 11279 H 1085.13 -1.92714 3.79133 0
M  V30 11280 N 1083.45 -1.52049 -0.414609 0
M  V30 11281 C 1084.69 -1.65838 -1.16206 0
M  V30 11282 C 1085.02 -0.385623 -1.90639 0
M  V30 11283 O 1084.28 0.631214 -1.85241 0
M  V30 11284 C 1084.58 -2.82735 -2.18622 0
M  V30 11285 C 1084.24 -4.21163 -1.61037 0
M  V30 11286 C 1082.9 -4.58816 -1.45056 0
M  V30 11287 C 1085.26 -5.0745 -1.18928 0
M  V30 11288 C 1082.58 -5.8044 -0.854761 0
M  V30 11289 C 1084.94 -6.29674 -0.607686 0
M  V30 11290 C 1083.6 -6.66081 -0.434968 0
M  V30 11291 H 1082.87 -0.606845 -0.425229 0
M  V30 11292 H 1085.52 -1.86137 -0.450009 0
M  V30 11293 H 1083.82 -2.56749 -2.95952 0
M  V30 11294 H 1085.52 -2.90601 -2.76319 0
M  V30 11295 H 1082.11 -3.91488 -1.74457 0
M  V30 11296 H 1086.29 -4.78948 -1.30086 0
M  V30 11297 H 1081.55 -6.07276 -0.70891 0
M  V30 11298 H 1085.72 -6.95865 -0.272988 0
M  V30 11299 H 1083.35 -7.60195 0.0288116 0
M  V30 11300 N 1084.93 0.6715 -1.42579 0
M  V30 11301 C 1085.87 1.78496 -1.46314 0
M  V30 11302 C 1086.84 1.63091 -0.314743 0
M  V30 11303 O 1088.03 1.83597 -0.519292 0
M  V30 11304 C 1085.17 3.16548 -1.37447 0
M  V30 11305 C 1084.28 3.43216 -2.62348 0
M  V30 11306 C 1083.42 4.71014 -2.456 0
M  V30 11307 C 1082.45 4.90728 -3.65859 0
M  V30 11308 N 1081.59 6.09769 -3.48032 0
M  V30 11309 H 1086.43 1.74638 -2.41466 0
M  V30 11310 H 1083.97 0.852491 -1.19879 0
M  V30 11311 H 1085.93 3.96329 -1.30303 0
M  V30 11312 H 1084.56 3.19522 -0.458891 0
M  V30 11313 H 1083.61 2.57664 -2.79846 0
M  V30 11314 H 1084.92 3.53675 -3.51732 0
M  V30 11315 H 1084.07 5.58892 -2.3606 0
M  V30 11316 H 1082.81 4.62843 -1.53712 0
M  V30 11317 H 1081.82 4.01291 -3.75827 0
M  V30 11318 H 1083.04 5.00741 -4.58732 0
M  V30 11319 H 1080.99 6.02765 -2.58864 0
M  V30 11320 H 1080.91 6.21104 -4.31005 0
M  V30 11321 H 1082.17 7.00317 -3.42311 0
M  V30 11322 N 1086.4 1.28806 0.908124 0
M  V30 11323 C 1087.35 1.13215 2.01125 0
M  V30 11324 C 1088.32 0.0277357 1.66077 0
M  V30 11325 O 1089.51 0.193707 1.89814 0
M  V30 11326 C 1086.65 0.805887 3.35558 0
M  V30 11327 C 1085.76 1.9899 3.83441 0
M  V30 11328 C 1084.89 1.60376 5.06412 0
M  V30 11329 C 1083.93 2.75409 5.46641 0
M  V30 11330 N 1083.07 2.37249 6.60801 0
M  V30 11331 H 1087.91 2.07598 2.13792 0
M  V30 11332 H 1085.45 1.03316 1.0471 0
M  V30 11333 H 1087.4 0.597451 4.129 0
M  V30 11334 H 1086.03 -0.101023 3.22642 0
M  V30 11335 H 1085.09 2.31029 3.02208 0
M  V30 11336 H 1086.4 2.85214 4.09212 0
M  V30 11337 H 1085.55 1.35772 5.91313 0
M  V30 11338 H 1084.29 0.712888 4.82462 0
M  V30 11339 H 1083.3 3.00705 4.60279 0
M  V30 11340 H 1084.52 3.65148 5.72577 0
M  V30 11341 H 1082.47 1.50638 6.3847 0
M  V30 11342 H 1082.38 3.17008 6.86325 0
M  V30 11343 H 1083.65 2.15943 7.48992 0
M  V30 11344 N 1087.88 -1.11734 1.11145 0
M  V30 11345 C 1089.13 -1.83677 0.859684 0
M  V30 11346 C 1089.46 -1.84265 -0.613182 0
M  V30 11347 O 1088.74 -1.29351 -1.45254 0
M  V30 11348 C 1089.02 -3.31003 1.41805 0
M  V30 11349 C 1088.87 -3.38827 2.95831 0
M  V30 11350 C 1090.19 -4.26984 1.06645 0
M  V30 11351 H 1087.31 -0.666879 0.313754 0
M  V30 11352 H 1089.95 -1.31038 1.37583 0
M  V30 11353 H 1088.1 -3.75961 0.979054 0
M  V30 11354 H 1089.77 -3.02451 3.48312 0
M  V30 11355 H 1088.02 -2.79143 3.32056 0
M  V30 11356 H 1088.69 -4.42508 3.29986 0
M  V30 11357 H 1091.16 -3.9019 1.44537 0
M  V30 11358 H 1090.04 -5.2846 1.48394 0
M  V30 11359 H 1090.3 -4.42094 -0.0231866 0
M  V30 11360 N 1089.36 -0.901303 -1.29284 0
M  V30 11361 C 1090.32 -0.385081 -2.25942 0
M  V30 11362 C 1091.32 0.481626 -1.53418 0
M  V30 11363 O 1092.51 0.286451 -1.71829 0
M  V30 11364 C 1089.64 0.449319 -3.37926 0
M  V30 11365 H 1090.84 -1.23877 -2.7312 0
M  V30 11366 H 1088.39 -0.679586 -1.40753 0
M  V30 11367 H 1089.13 1.32292 -2.9609 0
M  V30 11368 H 1088.91 -0.171731 -3.91724 0
M  V30 11369 H 1090.4 0.801746 -4.09831 0
M  V30 11370 N 1090.84 1.42931 -0.663954 0
M  V30 11371 C 1092.09 2.00904 -0.179011 0
M  V30 11372 C 1092.4 1.53056 1.21791 0
M  V30 11373 O 1093.61 2.03374 1.79865 0
M  V30 11374 C 1092.06 3.58892 -0.269198 0
M  V30 11375 C 1091.67 4.15731 -1.66949 0
M  V30 11376 C 1093.41 4.24207 0.157589 0
M  V30 11377 C 1091.32 5.66047 -1.71303 0
M  V30 11378 H 1090.25 0.75135 -0.0631623 0
M  V30 11379 H 1092.9 1.6378 -0.827556 0
M  V30 11380 H 1091.28 3.93469 0.447048 0
M  V30 11381 H 1092.46 3.92634 -2.41195 0
M  V30 11382 H 1090.77 3.62826 -2.04318 0
M  V30 11383 H 1093.37 5.34503 0.145057 0
M  V30 11384 H 1093.71 3.98901 1.19095 0
M  V30 11385 H 1094.25 3.94552 -0.507274 0
M  V30 11386 H 1090.98 5.96136 -2.72584 0
M  V30 11387 H 1090.5 5.91167 -1.01398 0
M  V30 11388 H 1092.18 6.30275 -1.46158 0
M  V30 11389 N 1092.32 0.406567 1.52266 0
M  V30 11390 C 1093.54 -0.169624 2.06204 0
M  V30 11391 C 1093.96 -1.39076 1.27684 0
M  V30 11392 O 1093.32 -1.79528 0.328023 0
M  V30 11393 C 1093.37 -0.522611 3.57702 0
M  V30 11394 O 1093.09 0.650028 4.33251 0
M  V30 11395 C 1094.59 -1.15281 4.28048 0
M  V30 11396 H 1091.81 -0.0215191 0.670655 0
M  V30 11397 H 1094.35 0.576781 1.96198 0
M  V30 11398 H 1092.51 -1.21891 3.67725 0
M  V30 11399 H 1092.92 0.355989 5.23291 0
M  V30 11400 H 1094.4 -1.35002 5.35237 0
M  V30 11401 H 1094.87 -2.12517 3.84361 0
M  V30 11402 H 1095.48 -0.496786 4.22389 0
M  V30 11403 N 1093.79 -1.57004 0.136909 0
M  V30 11404 C 1095.04 -1.95797 -0.516711 0
M  V30 11405 C 1095.37 -1.02123 -1.65533 0
M  V30 11406 O 1094.62 -0.0484835 -1.9564 0
M  V30 11407 C 1094.92 -3.40903 -1.07331 0
M  V30 11408 C 1094.59 -4.50867 -0.0541941 0
M  V30 11409 C 1093.25 -4.80669 0.225988 0
M  V30 11410 C 1095.6 -5.17264 0.639361 0
M  V30 11411 C 1092.93 -5.74177 1.2057 0
M  V30 11412 C 1095.28 -6.11827 1.60783 0
M  V30 11413 C 1093.95 -6.40012 1.89581 0
M  V30 11414 H 1093.22 -0.716471 -0.189078 0
M  V30 11415 H 1095.86 -1.90213 0.221605 0
M  V30 11416 H 1094.17 -3.43268 -1.88876 0
M  V30 11417 H 1095.87 -3.6824 -1.58745 0
M  V30 11418 H 1092.46 -4.27666 -0.282754 0
M  V30 11419 H 1096.64 -4.9438 0.436085 0
M  V30 11420 H 1091.9 -5.94312 1.43538 0
M  V30 11421 H 1096.07 -6.62354 2.15081 0
M  V30 11422 H 1093.7 -7.12274 2.65649 0
M  V30 11423 N 1095.27 0.136881 -1.57004 0
M  V30 11424 C 1096.55 0.87705 -1.74835 0
M  V30 11425 C 1096.93 1.98886 -0.707639 0
M  V30 11426 O 1096.28 2.26879 0.271652 0
M  V30 11427 C 1096.49 1.41021 -3.1924 0
M  V30 11428 C 1097.84 1.86963 -3.81222 0
M  V30 11429 O 1098.86 1.5074 -3.22732 0
M  V30 11430 O 1097.72 2.53798 -4.83993 0
M  V30 11431 H 1094.81 0.415192 -0.715223 0
M  V30 11432 H 1097.36 0.122016 -1.69261 0
M  V30 11433 H 1096.13 0.611677 -3.8649 0
M  V30 11434 H 1095.75 2.22846 -3.2928 0
M  V30 11435 N 1096.75 1.52266 0.40654 0
M  V30 11436 C 1097.98 1.70598 1.17945 0
M  V30 11437 C 1098.4 0.415793 1.83447 0
M  V30 11438 O 1097.76 -0.626968 1.70114 0
M  V30 11439 C 1097.81 2.84449 2.21633 0
M  V30 11440 O 1096.91 2.50199 3.27833 0
M  V30 11441 H 1096.25 0.567837 0.344177 0
M  V30 11442 H 1098.78 1.98981 0.476211 0
M  V30 11443 H 1098.79 3.09436 2.65919 0
M  V30 11444 H 1097.47 3.78055 1.73341 0
M  V30 11445 H 1096.04 2.35892 2.88807 0
M  V30 11446 N 1098.23 -0.663929 1.42933 0
M  V30 11447 C 1099.45 -1.45691 1.47611 0
M  V30 11448 C 1099.88 -1.87875 0.0920305 0
M  V30 11449 O 1099.24 -1.56696 -0.91192 0
M  V30 11450 C 1099.28 -2.67517 2.41799 0
M  V30 11451 O 1098.39 -3.66187 1.89686 0
M  V30 11452 H 1097.73 -0.437257 0.499702 0
M  V30 11453 H 1100.26 -0.813397 1.87737 0
M  V30 11454 H 1100.27 -3.1546 2.58745 0
M  V30 11455 H 1098.94 -2.36155 3.4235 0
M  V30 11456 H 1097.52 -3.25274 1.82349 0
M  V30 11457 N 1099.71 -1.29285 -0.901281 0
M  V30 11458 C 1100.95 -1.17339 -1.65407 0
M  V30 11459 C 1101.29 0.274834 -1.92245 0
M  V30 11460 O 1100.56 1.19865 -1.53176 0
M  V30 11461 C 1100.84 -1.98547 -3.00418 0
M  V30 11462 C 1100.7 -3.51501 -2.80655 0
M  V30 11463 C 1102.02 -1.81062 -4.01129 0
M  V30 11464 H 1099.13 -0.427624 -0.600255 0
M  V30 11465 H 1101.78 -1.58741 -1.0441 0
M  V30 11466 H 1099.93 -1.63366 -3.52482 0
M  V30 11467 H 1101.6 -3.96655 -2.35505 0
M  V30 11468 H 1099.84 -3.76504 -2.15469 0
M  V30 11469 H 1100.51 -4.03593 -3.76585 0
M  V30 11470 H 1102.99 -2.11788 -3.58169 0
M  V30 11471 H 1101.86 -2.40235 -4.93536 0
M  V30 11472 H 1102.13 -0.765388 -4.35424 0
M  V30 11473 N 1101.18 1.11143 -1.11736 0
M  V30 11474 C 1102.41 1.87285 -0.891007 0
M  V30 11475 C 1102.83 1.79758 0.553971 0
M  V30 11476 O 1102.19 1.16221 1.39149 0
M  V30 11477 C 1102.24 3.33924 -1.36114 0
M  V30 11478 O 1101.34 4.08917 -0.534851 0
M  V30 11479 H 1100.69 0.581418 -0.320701 0
M  V30 11480 H 1103.22 1.40469 -1.4876 0
M  V30 11481 H 1103.23 3.84772 -1.35701 0
M  V30 11482 H 1101.9 3.38719 -2.41334 0
M  V30 11483 H 1100.48 3.67954 -0.605355 0
M  V30 11484 N 1102.66 0.908147 1.28804 0
M  V30 11485 C 1103.91 0.548635 1.95861 0
M  V30 11486 C 1104.26 -0.896789 1.70222 0
M  V30 11487 O 1103.56 -1.6285 1.00948 0
M  V30 11488 C 1103.75 0.787327 3.4862 0
M  V30 11489 C 1103.58 2.2544 3.8911 0
M  V30 11490 C 1102.35 2.90345 4.13555 0
M  V30 11491 C 1104.55 3.23034 4.00192 0
M  V30 11492 N 1102.53 4.27408 4.40676 0
M  V30 11493 C 1103.9 4.45242 4.31462 0
M  V30 11494 C 1105.96 3.18509 3.82696 0
M  V30 11495 C 1104.66 5.63498 4.47059 0
M  V30 11496 C 1106.68 4.36059 3.99508 0
M  V30 11497 C 1106.05 5.5704 4.31145 0
M  V30 11498 H 1102.15 0.250526 0.740784 0
M  V30 11499 H 1104.73 1.17071 1.55571 0
M  V30 11500 H 1102.9 0.194565 3.87912 0
M  V30 11501 H 1104.63 0.392407 4.02793 0
M  V30 11502 H 1101.39 2.411 4.07637 0
M  V30 11503 H 1101.81 4.98259 4.5833 0
M  V30 11504 H 1106.45 2.26058 3.57292 0
M  V30 11505 H 1104.17 6.56434 4.71296 0
M  V30 11506 H 1107.76 4.34054 3.87413 0
M  V30 11507 H 1106.64 6.46483 4.4388 0
M  V30 11508 N 1104.14 -1.42577 0.671525 0
M  V30 11509 C 1105.55 -1.84736 0.270084 0
M  V30 11510 C 1105.9 -1.56212 -1.18711 0
M  V30 11511 O 1105.03 -1.02028 -1.90838 0
M  V30 11512 C 1105.62 -3.35334 0.483409 0
M  V30 11513 C 1104.18 -3.76154 0.136119 0
M  V30 11514 C 1103.33 -2.66179 0.777444 0
M  V30 11515 H 1106.28 -1.3247 0.873919 0
M  V30 11516 H 1106.3 -3.79573 -0.265483 0
M  V30 11517 H 1105.81 -3.56063 1.54405 0
M  V30 11518 H 1103.91 -3.61033 -0.921209 0
M  V30 11519 H 1104.03 -4.75645 0.574356 0
M  V30 11520 H 1102.39 -2.53841 0.209055 0
M  V30 11521 H 1103.17 -2.89732 1.84148 0
M  V30 11522 N 1105.62 -0.414636 -1.52048 0
M  V30 11523 C 1106.87 0.159034 -2.01473 0
M  V30 11524 C 1107.19 1.45176 -1.30188 0
M  V30 11525 O 1106.46 1.91134 -0.429469 0
M  V30 11526 H 1105.04 0.0617604 -0.744443 0
M  V30 11527 H 1107.7 -0.552141 -1.86916 0
M  V30 11528 H 1106.8 0.351217 -3.10118 0
M  V30 11529 N 1107.1 1.56929 -0.145233 0
M  V30 11530 C 1108.04 2.17958 0.812237 0
M  V30 11531 C 1109.04 1.13608 1.25657 0
M  V30 11532 O 1110.24 1.31861 1.22526 0
M  V30 11533 H 1106.62 0.697876 0.28013 0
M  V30 11534 H 1108.59 2.97146 0.273297 0
M  V30 11535 C 1107.34 2.81418 2.04203 0
M  V30 11536 H 1106.66 3.61427 1.70911 0
M  V30 11537 H 1108.1 3.27624 2.69144 0
M  V30 11538 C 1106.56 1.79835 2.84888 0
M  V30 11539 O 1107.09 1.26773 3.81171 0
M  V30 11540 N 1105.3 1.49179 2.49387 0
M  V30 11541 H 1104.84 1.9252 1.71154 0
M  V30 11542 H 1104.8 0.81458 3.03664 0
M  V30 11543 N 1108.58 -0.128553 1.57075 0
M  V30 11544 C 1109.85 -0.867766 1.75297 0
M  V30 11545 C 1110.23 -1.98508 0.718176 0
M  V30 11546 O 1109.58 -2.2702 -0.259616 0
M  V30 11547 C 1109.79 -1.39326 3.19983 0
M  V30 11548 C 1111.14 -1.84939 3.82208 0
M  V30 11549 O 1112.16 -1.49027 3.23527 0
M  V30 11550 O 1111.02 -2.51227 4.85332 0
M  V30 11551 H 1108.12 -0.411393 0.717415 0
M  V30 11552 H 1110.66 -0.113038 1.69323 0
M  V30 11553 H 1109.43 -0.591172 3.86809 0
M  V30 11554 H 1109.06 -2.21097 3.30457 0
M  V30 11555 N 1110.05 -1.5248 -0.398459 0
M  V30 11556 C 1111.47 -1.4152 -0.737854 0
M  V30 11557 C 1111.67 -0.528122 -1.94456 0
M  V30 11558 O 1110.73 0.00203799 -2.525 0
M  V30 11559 C 1112.04 -2.8422 -0.9818 0
M  V30 11560 C 1113.59 -2.93635 -1.08386 0
M  V30 11561 C 1114.06 -4.37327 -1.3605 0
M  V30 11562 N 1115.55 -4.40609 -1.42892 0
M  V30 11563 C 1116.29 -5.48863 -1.65944 0
M  V30 11564 N 1115.78 -6.67217 -1.86529 0
M  V30 11565 N 1117.58 -5.36393 -1.68046 0
M  V30 11566 H 1109.73 -2.08681 0.395705 0
M  V30 11567 H 1111.99 -0.941023 0.114801 0
M  V30 11568 H 1111.7 -3.51302 -0.167358 0
M  V30 11569 H 1111.57 -3.25907 -1.89907 0
M  V30 11570 H 1113.96 -2.26728 -1.88888 0
M  V30 11571 H 1114.04 -2.5539 -0.144714 0
M  V30 11572 H 1113.68 -5.04797 -0.56061 0
M  V30 11573 H 1113.61 -4.73116 -2.31233 0
M  V30 11574 H 1116.1 -3.55298 -1.2873 0
M  V30 11575 H 1116.42 -7.45498 -2.03599 0
M  V30 11576 H 1114.76 -6.70263 -1.83773 0
M  V30 11577 H 1117.95 -4.42903 -1.51509 0
M  V30 11578 H 1118.13 -6.2083 -1.85672 0
M  V30 11579 N 1111.53 0.65634 -1.43283 0
M  V30 11580 C 1112.46 1.78101 -1.51004 0
M  V30 11581 C 1113.44 1.66138 -0.36498 0
M  V30 11582 O 1114.63 1.85281 -0.581778 0
M  V30 11583 C 1111.76 3.16511 -1.42961 0
M  V30 11584 C 1110.71 3.43233 -2.55685 0
M  V30 11585 C 1110.04 4.81411 -2.32696 0
M  V30 11586 C 1111.34 3.38288 -3.97943 0
M  V30 11587 H 1113.03 1.71896 -2.45137 0
M  V30 11588 H 1110.58 0.825575 -1.17984 0
M  V30 11589 H 1112.53 3.94941 -1.46968 0
M  V30 11590 H 1111.25 3.23439 -0.45332 0
M  V30 11591 H 1109.91 2.67173 -2.51026 0
M  V30 11592 H 1109.56 4.85011 -1.33317 0
M  V30 11593 H 1109.26 5.00251 -3.08257 0
M  V30 11594 H 1110.79 5.62102 -2.38481 0
M  V30 11595 H 1112.2 4.06659 -4.04106 0
M  V30 11596 H 1110.6 3.68664 -4.73505 0
M  V30 11597 H 1111.67 2.36525 -4.23301 0
M  V30 11598 N 1113.01 1.29761 0.894412 0
M  V30 11599 C 1113.94 1.17902 2.01547 0
M  V30 11600 C 1114.92 0.0719402 1.69948 0
M  V30 11601 O 1116.11 0.252338 1.92554 0
M  V30 11602 C 1113.24 0.860262 3.36477 0
M  V30 11603 C 1112.19 1.92424 3.82305 0
M  V30 11604 C 1111.52 1.45868 5.14419 0
M  V30 11605 C 1112.82 3.33391 4.02054 0
M  V30 11606 H 1114.51 2.11688 2.11727 0
M  V30 11607 H 1112.06 1.01916 1.01731 0
M  V30 11608 H 1114.01 0.763987 4.14417 0
M  V30 11609 H 1112.73 -0.113289 3.26403 0
M  V30 11610 H 1111.39 2.00999 3.06586 0
M  V30 11611 H 1111.04 0.473654 5.00765 0
M  V30 11612 H 1110.74 2.17028 5.46052 0
M  V30 11613 H 1112.26 1.37601 5.94894 0
M  V30 11614 H 1113.68 3.27628 4.7046 0
M  V30 11615 H 1112.07 4.02555 4.4505 0
M  V30 11616 H 1113.14 3.75978 3.06216 0
M  V30 11617 N 1114.49 -1.10549 1.12324 0
M  V30 11618 C 1115.72 -1.8627 0.900618 0
M  V30 11619 C 1116.13 -1.80609 -0.550069 0
M  V30 11620 O 1115.49 -1.19396 -1.38025 0
M  V30 11621 C 1115.54 -3.34716 1.36556 0
M  V30 11622 O 1115.26 -3.40279 2.75938 0
M  V30 11623 C 1116.76 -4.27315 1.17969 0
M  V30 11624 H 1113.98 -0.588741 0.321908 0
M  V30 11625 H 1116.52 -1.39759 1.49291 0
M  V30 11626 H 1114.68 -3.78697 0.81652 0
M  V30 11627 H 1115.09 -4.32781 2.96312 0
M  V30 11628 H 1116.57 -5.29677 1.55391 0
M  V30 11629 H 1117.04 -4.39036 0.120158 0
M  V30 11630 H 1117.65 -3.89137 1.71617 0
M  V30 11631 N 1115.97 -0.914965 -1.28321 0
M  V30 11632 C 1117.38 -0.59512 -1.76961 0
M  V30 11633 C 1117.73 0.88958 -1.74874 0
M  V30 11634 O 1116.85 1.6959 -1.34418 0
M  V30 11635 C 1117.45 -1.07353 -3.21342 0
M  V30 11636 C 1116.01 -0.804577 -3.677 0
M  V30 11637 C 1115.15 -1.23955 -2.48053 0
M  V30 11638 H 1118.1 -1.0961 -1.14767 0
M  V30 11639 H 1118.13 -0.415506 -3.78225 0
M  V30 11640 H 1117.64 -2.15413 -3.22829 0
M  V30 11641 H 1115.74 0.26277 -3.71672 0
M  V30 11642 H 1115.85 -1.41317 -4.57784 0
M  V30 11643 H 1114.22 -0.658274 -2.46046 0
M  V30 11644 H 1115 -2.32853 -2.52258 0
M  V30 11645 N 1117.44 1.42219 -0.679077 0
M  V30 11646 C 1118.39 2.32599 0.00820028 0
M  V30 11647 C 1119.39 1.50059 0.786046 0
M  V30 11648 O 1120.59 1.66103 0.693528 0
M  V30 11649 H 1116.97 0.751694 0.0214483 0
M  V30 11650 H 1118.94 2.88257 -0.77138 0
M  V30 11651 C 1117.69 3.3468 0.942581 0
M  V30 11652 H 1117.01 3.98234 0.353463 0
M  V30 11653 H 1118.45 4.00496 1.39208 0
M  V30 11654 C 1116.91 2.67275 2.05099 0
M  V30 11655 O 1117.44 2.50793 3.13793 0
M  V30 11656 N 1115.64 2.26232 1.82394 0
M  V30 11657 H 1115.19 2.39838 0.939983 0
M  V30 11658 H 1115.15 1.81465 2.56744 0
M  V30 11659 N 1118.92 0.422693 1.51826 0
M  V30 11660 C 1119.83 -0.40261 2.31119 0
M  V30 11661 C 1120.85 -1.04117 1.39412 0
M  V30 11662 O 1122.02 -1.03973 1.72486 0
M  V30 11663 C 1119.09 -1.49699 3.12716 0
M  V30 11664 C 1118.15 -0.880088 4.20182 0
M  V30 11665 C 1117.38 -1.92232 4.97878 0
M  V30 11666 O 1117.61 -3.14246 4.76031 0
M  V30 11667 O 1116.54 -1.521 5.82365 0
M  V30 11668 H 1120.37 0.244308 3.02716 0
M  V30 11669 H 1117.95 0.185569 1.48243 0
M  V30 11670 H 1119.83 -2.13202 3.63487 0
M  V30 11671 H 1118.51 -2.12826 2.43899 0
M  V30 11672 H 1117.41 -0.207404 3.73525 0
M  V30 11673 H 1118.75 -0.292535 4.9133 0
M  V30 11674 N 1120.4 -1.5685 0.153553 0
M  V30 11675 C 1121.65 -1.96334 -0.495915 0
M  V30 11676 C 1121.97 -1.03873 -1.64441 0
M  V30 11677 O 1121.23 -0.069231 -1.95578 0
M  V30 11678 C 1121.53 -3.42022 -1.0371 0
M  V30 11679 C 1121.19 -4.509 -0.00637049 0
M  V30 11680 C 1119.86 -4.80402 0.276956 0
M  V30 11681 C 1122.21 -5.16556 0.694187 0
M  V30 11682 C 1119.54 -5.72866 1.26653 0
M  V30 11683 C 1121.89 -6.10087 1.67263 0
M  V30 11684 C 1120.55 -6.37965 1.96359 0
M  V30 11685 H 1119.82 -0.718436 -0.181468 0
M  V30 11686 H 1122.47 -1.89968 0.241768 0
M  V30 11687 H 1120.77 -3.45252 -1.85225 0
M  V30 11688 H 1122.47 -3.69903 -1.54831 0
M  V30 11689 H 1119.06 -4.27942 -0.237378 0
M  V30 11690 H 1123.25 -4.9389 0.488496 0
M  V30 11691 H 1118.5 -5.92756 1.49833 0
M  V30 11692 H 1122.68 -6.60036 2.22094 0
M  V30 11693 H 1120.3 -7.09416 2.73189 0
M  V30 11694 N 1121.88 0.120221 -1.57141 0
M  V30 11695 C 1122.79 1.16641 -2.03549 0
M  V30 11696 C 1123.8 1.45407 -0.955656 0
M  V30 11697 O 1124.98 1.56547 -1.26708 0
M  V30 11698 C 1122.04 2.4734 -2.42948 0
M  V30 11699 C 1121.11 2.25982 -3.65008 0
M  V30 11700 C 1120.34 3.50449 -4.02518 0
M  V30 11701 O 1120.56 4.57706 -3.40384 0
M  V30 11702 O 1119.5 3.41524 -4.95626 0
M  V30 11703 H 1123.32 0.802323 -2.9291 0
M  V30 11704 H 1120.91 0.330927 -1.45689 0
M  V30 11705 H 1122.79 3.24348 -2.69029 0
M  V30 11706 H 1121.46 2.83225 -1.56733 0
M  V30 11707 H 1120.37 1.46837 -3.44078 0
M  V30 11708 H 1121.7 1.95002 -4.51924 0
M  V30 11709 N 1123.36 1.52689 0.390367 0
M  V30 11710 C 1124.61 1.6689 1.13272 0
M  V30 11711 C 1124.92 0.414433 1.91159 0
M  V30 11712 O 1126.12 0.436559 2.67967 0
M  V30 11713 C 1124.58 2.94929 2.06264 0
M  V30 11714 C 1124.19 4.27551 1.33805 0
M  V30 11715 C 1125.93 3.18497 2.80642 0
M  V30 11716 C 1123.84 5.46698 2.25554 0
M  V30 11717 H 1122.77 0.621749 0.426549 0
M  V30 11718 H 1125.42 1.79185 0.395615 0
M  V30 11719 H 1123.8 2.76378 2.83604 0
M  V30 11720 H 1124.98 4.56651 0.616997 0
M  V30 11721 H 1123.29 4.10234 0.713913 0
M  V30 11722 H 1125.89 4.04693 3.49467 0
M  V30 11723 H 1126.23 2.33511 3.44642 0
M  V30 11724 H 1126.76 3.37607 2.10395 0
M  V30 11725 H 1123.5 6.34088 1.66171 0
M  V30 11726 H 1123.02 5.21913 2.95579 0
M  V30 11727 H 1124.7 5.80519 2.85668 0
M  V30 11728 N 1124.83 -0.648732 1.43629 0
M  V30 11729 C 1125.78 -1.76145 1.49136 0
M  V30 11730 C 1126.75 -1.62569 0.340649 0
M  V30 11731 O 1127.94 -1.82748 0.548435 0
M  V30 11732 C 1125.08 -3.14321 1.42466 0
M  V30 11733 C 1124.19 -3.38999 2.67776 0
M  V30 11734 C 1123.32 -4.67047 2.53062 0
M  V30 11735 C 1122.36 -4.84845 3.7362 0
M  V30 11736 N 1121.5 -6.04155 3.57689 0
M  V30 11737 H 1126.34 -1.70774 2.44213 0
M  V30 11738 H 1123.88 -0.833311 1.2122 0
M  V30 11739 H 1125.84 -3.94206 1.36592 0
M  V30 11740 H 1124.47 -3.18751 0.509666 0
M  V30 11741 H 1123.52 -2.53179 2.83909 0
M  V30 11742 H 1124.83 -3.48035 3.57314 0
M  V30 11743 H 1123.98 -5.55066 2.44922 0
M  V30 11744 H 1122.72 -4.60339 1.61056 0
M  V30 11745 H 1121.73 -3.95261 3.82163 0
M  V30 11746 H 1122.95 -4.9338 4.6664 0
M  V30 11747 H 1120.9 -5.9857 2.6842 0
M  V30 11748 H 1120.82 -6.14169 4.40832 0
M  V30 11749 H 1122.08 -6.94782 3.53409 0
M  V30 11750 N 1126.31 -1.30234 -0.887518 0
M  V30 11751 C 1127.73 -1.0851 -1.17037 0
M  V30 11752 C 1127.93 0.155788 -2.00897 0
M  V30 11753 O 1126.98 0.850123 -2.37759 0
M  V30 11754 C 1128.3 -2.34723 -1.87951 0
M  V30 11755 C 1129.85 -2.40163 -2.00726 0
M  V30 11756 C 1130.32 -3.66211 -2.75051 0
M  V30 11757 N 1131.81 -3.67004 -2.82599 0
M  V30 11758 C 1132.55 -4.61224 -3.40676 0
M  V30 11759 N 1132.04 -5.65786 -3.99823 0
M  V30 11760 N 1133.84 -4.48772 -3.38467 0
M  V30 11761 H 1125.99 -2.09847 -0.328297 0
M  V30 11762 H 1128.25 -0.924904 -0.20798 0
M  V30 11763 H 1127.96 -3.25265 -1.33773 0
M  V30 11764 H 1127.83 -2.43175 -2.8835 0
M  V30 11765 H 1130.22 -1.50101 -2.54074 0
M  V30 11766 H 1130.3 -2.35688 -0.994218 0
M  V30 11767 H 1129.94 -4.56631 -2.22376 0
M  V30 11768 H 1129.87 -3.67947 -3.76726 0
M  V30 11769 H 1132.36 -2.91409 -2.40602 0
M  V30 11770 H 1132.68 -6.33783 -4.42197 0
M  V30 11771 H 1131.02 -5.69581 -3.9825 0
M  V30 11772 H 1134.21 -3.6627 -2.91485 0
M  V30 11773 H 1134.38 -5.22382 -3.83433 0
M  V30 11774 N 1127.79 1.09952 -1.12909 0
M  V30 11775 C 1129.02 1.8633 -0.910821 0
M  V30 11776 C 1129.44 1.80335 0.534874 0
M  V30 11777 O 1128.8 1.1769 1.37908 0
M  V30 11778 C 1128.85 3.32462 -1.39648 0
M  V30 11779 O 1127.95 4.08327 -0.578192 0
M  V30 11780 H 1127.29 0.577984 -0.32685 0
M  V30 11781 H 1129.82 1.38883 -1.50242 0
M  V30 11782 H 1129.83 3.83311 -1.39774 0
M  V30 11783 H 1128.51 3.36141 -2.44913 0
M  V30 11784 H 1127.08 3.67291 -0.644347 0
M  V30 11785 N 1129.27 0.921757 1.27833 0
M  V30 11786 C 1130.51 0.559906 1.94918 0
M  V30 11787 C 1130.85 -0.895532 1.72319 0
M  V30 11788 O 1130.12 -1.638 1.04879 0
M  V30 11789 C 1130.41 0.879458 3.49196 0
M  V30 11790 C 1130.26 2.38821 3.81162 0
M  V30 11791 C 1131.58 0.381183 4.38446 0
M  V30 11792 H 1128.7 0.204893 0.707946 0
M  V30 11793 H 1131.34 1.15246 1.51058 0
M  V30 11794 H 1129.49 0.375177 3.86684 0
M  V30 11795 H 1131.16 2.96373 3.53498 0
M  V30 11796 H 1129.4 2.83988 3.27923 0
M  V30 11797 H 1130.07 2.56234 4.88926 0
M  V30 11798 H 1132.55 0.813289 4.08075 0
M  V30 11799 H 1131.43 0.633778 5.45229 0
M  V30 11800 H 1131.69 -0.718651 4.3622 0
M  V30 11801 N 1130.75 -1.41857 0.686609 0
M  V30 11802 C 1132.02 -1.95082 0.142228 0
M  V30 11803 C 1132.4 -1.62646 -1.34572 0
M  V30 11804 O 1131.75 -0.928757 -2.08773 0
M  V30 11805 C 1131.96 -3.46415 0.423955 0
M  V30 11806 C 1133.31 -4.23181 0.346842 0
M  V30 11807 O 1134.33 -3.54393 0.358363 0
M  V30 11808 O 1133.19 -5.4568 0.299211 0
M  V30 11809 H 1130.29 -0.826943 0.00974 0
M  V30 11810 H 1132.83 -1.51622 0.762153 0
M  V30 11811 H 1131.6 -3.63273 1.45424 0
M  V30 11812 H 1131.23 -3.96949 -0.227391 0
M  V30 11813 N 1132.22 -0.430739 -1.51599 0
M  V30 11814 C 1133.47 0.137657 -2.01631 0
M  V30 11815 C 1133.79 1.43787 -1.31721 0
M  V30 11816 O 1133.06 1.90668 -0.449717 0
M  V30 11817 H 1131.64 0.0538611 -0.745056 0
M  V30 11818 H 1134.31 -0.571935 -1.86319 0
M  V30 11819 H 1133.4 0.318305 -3.10473 0
M  V30 11820 N 1133.7 1.56767 -0.161869 0
M  V30 11821 C 1134.61 2.21083 0.784814 0
M  V30 11822 C 1135.63 1.19959 1.26039 0
M  V30 11823 O 1136.8 1.52588 1.31449 0
M  V30 11824 C 1133.87 2.83153 2.00063 0
M  V30 11825 C 1132.93 3.9945 1.57285 0
M  V30 11826 C 1132.16 4.5855 2.7307 0
M  V30 11827 O 1132.39 4.16534 3.89686 0
M  V30 11828 O 1131.32 5.48575 2.47688 0
M  V30 11829 H 1135.15 3.02522 0.267243 0
M  V30 11830 H 1132.73 1.49255 0.0658783 0
M  V30 11831 H 1134.61 3.22546 2.71186 0
M  V30 11832 H 1133.29 2.04718 2.50744 0
M  V30 11833 H 1132.2 3.64745 0.831393 0
M  V30 11834 H 1133.53 4.7945 1.11304 0
M  V30 11835 N 1135.18 -0.111886 1.57202 0
M  V30 11836 C 1136.43 -0.816794 1.84859 0
M  V30 11837 C 1136.75 -1.80079 0.748113 0
M  V30 11838 O 1136.02 -1.94578 -0.227235 0
M  V30 11839 H 1134.6 -0.304633 0.682061 0
M  V30 11840 H 1137.26 -0.097513 1.94656 0
M  V30 11841 H 1136.36 -1.35768 2.81022 0
M  V30 11842 N 1136.66 -1.52894 -0.382264 0
M  V30 11843 C 1137.89 -1.71902 -1.146 0
M  V30 11844 C 1138.3 -0.44017 -1.84009 0
M  V30 11845 O 1137.64 0.595616 -1.73776 0
M  V30 11846 C 1137.7 -2.81785 -2.23244 0
M  V30 11847 C 1137.37 -4.22684 -1.73745 0
M  V30 11848 C 1138.36 -5.05611 -1.21054 0
M  V30 11849 C 1136.05 -4.69031 -1.79763 0
M  V30 11850 C 1138.04 -6.32968 -0.750368 0
M  V30 11851 C 1135.73 -5.96371 -1.33358 0
M  V30 11852 C 1136.73 -6.7817 -0.810832 0
M  V30 11853 O 1136.41 -8.03122 -0.353577 0
M  V30 11854 H 1136.15 -0.578767 -0.349292 0
M  V30 11855 H 1138.7 -2.00359 -0.452246 0
M  V30 11856 H 1136.93 -2.48764 -2.96063 0
M  V30 11857 H 1138.62 -2.89131 -2.84883 0
M  V30 11858 H 1139.39 -4.70984 -1.15755 0
M  V30 11859 H 1135.26 -4.05447 -2.19394 0
M  V30 11860 H 1138.81 -6.96763 -0.341666 0
M  V30 11861 H 1134.71 -6.30501 -1.38344 0
M  V30 11862 H 1135.47 -8.17124 -0.474439 0
M  V30 11863 N 1138.14 0.641106 -1.43971 0
M  V30 11864 C 1139.09 1.77474 -1.50352 0
M  V30 11865 C 1140.08 1.65173 -0.376052 0
M  V30 11866 O 1141.29 1.71373 -0.550572 0
M  V30 11867 H 1137.66 0.585747 -0.471597 0
M  V30 11868 H 1139.63 1.69213 -2.45784 0
M  V30 11869 C 1138.38 3.15778 -1.45532 0
M  V30 11870 H 1137.7 3.25886 -2.316 0
M  V30 11871 H 1139.14 3.95022 -1.54058 0
M  V30 11872 C 1137.6 3.36447 -0.174624 0
M  V30 11873 O 1138.13 3.9446 0.759215 0
M  V30 11874 N 1136.34 2.90487 -0.0809383 0
M  V30 11875 H 1135.89 2.43461 -0.841691 0
M  V30 11876 H 1135.84 3.04693 0.775231 0
M  V30 11877 N 1139.62 1.30703 0.880598 0
M  V30 11878 C 1140.86 1.19955 1.63519 0
M  V30 11879 C 1141.19 -0.244214 1.92658 0
M  V30 11880 O 1140.47 -1.17412 1.55063 0
M  V30 11881 C 1140.75 2.03302 2.97221 0
M  V30 11882 C 1140.61 3.55921 2.75028 0
M  V30 11883 C 1141.92 1.87421 3.98198 0
M  V30 11884 H 1139.04 0.43712 0.593376 0
M  V30 11885 H 1141.69 1.60382 1.01871 0
M  V30 11886 H 1139.84 1.68953 3.49839 0
M  V30 11887 H 1141.51 4.00352 2.29164 0
M  V30 11888 H 1139.75 3.79885 2.09452 0
M  V30 11889 H 1140.42 4.09533 3.70117 0
M  V30 11890 H 1142.9 2.17459 3.54755 0
M  V30 11891 H 1141.77 2.48057 4.89652 0
M  V30 11892 H 1142.03 0.834563 4.34151 0
M  V30 11893 N 1141.09 -1.09351 1.1349 0
M  V30 11894 C 1142.06 -2.14185 0.815919 0
M  V30 11895 C 1143.06 -1.59845 -0.174976 0
M  V30 11896 O 1144.25 -1.74122 0.0521971 0
M  V30 11897 C 1141.38 -3.40224 0.214517 0
M  V30 11898 H 1142.57 -2.43913 1.74489 0
M  V30 11899 H 1140.12 -1.24902 0.939634 0
M  V30 11900 H 1140.86 -3.16123 -0.723634 0
M  V30 11901 H 1140.64 -3.80958 0.928102 0
M  V30 11902 H 1142.13 -4.17599 0.00821999 0
M  V30 11903 N 1142.57 -0.928524 -1.27343 0
M  V30 11904 C 1143.5 -0.385563 -2.25934 0
M  V30 11905 C 1144.52 0.484178 -1.55433 0
M  V30 11906 O 1145.71 0.296668 -1.76017 0
M  V30 11907 C 1142.81 0.466116 -3.35679 0
M  V30 11908 C 1141.98 -0.384523 -4.35707 0
M  V30 11909 C 1141.04 0.404644 -5.24642 0
M  V30 11910 O 1140.06 -0.187943 -5.6889 0
M  V30 11911 N 1141.27 1.70426 -5.54919 0
M  V30 11912 H 1144.03 -1.23306 -2.73159 0
M  V30 11913 H 1141.59 -0.796039 -1.40978 0
M  V30 11914 H 1143.58 1.00115 -3.92121 0
M  V30 11915 H 1142.15 1.21437 -2.88048 0
M  V30 11916 H 1141.37 -1.10085 -3.78517 0
M  V30 11917 H 1142.66 -0.966033 -4.99545 0
M  V30 11918 H 1142.06 2.20802 -5.20829 0
M  V30 11919 H 1140.62 2.1858 -6.14057 0
M  V30 11920 N 1144.05 1.41491 -0.694123 0
M  V30 11921 C 1145.29 2.03117 -0.228614 0
M  V30 11922 C 1145.65 1.53782 1.14957 0
M  V30 11923 O 1146.85 2.07325 1.71084 0
M  V30 11924 C 1145.13 3.56283 -0.282341 0
M  V30 11925 S 1146.68 4.38664 0.109333 0
M  V30 11926 H 1143.5 0.704993 -0.092227 0
M  V30 11927 H 1146.1 1.72947 -0.911578 0
M  V30 11928 H 1144.81 3.89685 -1.2874 0
M  V30 11929 H 1144.34 3.91154 0.419818 0
M  V30 11930 H 1146.35 4.77835 1.33747 0
M  V30 11931 N 1145.53 0.438773 1.51369 0
M  V30 11932 C 1146.48 -0.386324 2.29369 0
M  V30 11933 C 1147.47 -1.0196 1.3528 0
M  V30 11934 O 1148.68 -0.9544 1.52615 0
M  V30 11935 H 1145.05 -0.143397 0.738201 0
M  V30 11936 H 1147.02 0.292372 2.96964 0
M  V30 11937 C 1145.77 -1.47426 3.14898 0
M  V30 11938 H 1145.09 -0.996335 3.87186 0
M  V30 11939 H 1146.53 -2.02481 3.72529 0
M  V30 11940 C 1144.99 -2.45831 2.30366 0
M  V30 11941 O 1145.52 -3.50398 1.96428 0
M  V30 11942 N 1143.73 -2.16754 1.93561 0
M  V30 11943 H 1143.28 -1.31748 2.2136 0
M  V30 11944 H 1143.23 -2.82836 1.373 0
M  V30 11945 N 1147.01 -1.56678 0.170181 0
M  V30 11946 C 1147.94 -2.13747 -0.799203 0
M  V30 11947 C 1148.92 -1.06725 -1.22673 0
M  V30 11948 O 1150.1 -1.34694 -1.3187 0
M  V30 11949 C 1147.23 -2.67611 -2.07611 0
M  V30 11950 C 1146.27 -3.86994 -1.7927 0
M  V30 11951 S 1147.11 -5.26771 -0.962951 0
M  V30 11952 C 1148.26 -5.84039 -2.25054 0
M  V30 11953 H 1148.5 -2.95637 -0.313976 0
M  V30 11954 H 1146.03 -1.54336 -0.0444708 0
M  V30 11955 H 1147.99 -2.99291 -2.80954 0
M  V30 11956 H 1146.65 -1.85808 -2.53247 0
M  V30 11957 H 1145.84 -4.23006 -2.74011 0
M  V30 11958 H 1145.44 -3.56195 -1.14023 0
M  V30 11959 H 1147.73 -5.96883 -3.20525 0
M  V30 11960 H 1148.68 -6.81145 -1.93513 0
M  V30 11961 H 1149.09 -5.12449 -2.36763 0
M  V30 11962 N 1148.48 0.103547 -1.57259 0
M  V30 11963 C 1149.71 0.82235 -1.89855 0
M  V30 11964 C 1150.13 1.72694 -0.76303 0
M  V30 11965 O 1149.48 1.8056 0.265421 0
M  V30 11966 C 1149.53 1.64282 -3.22015 0
M  V30 11967 O 1149.26 0.774628 -4.31197 0
M  V30 11968 C 1150.76 2.46543 -3.68418 0
M  V30 11969 H 1147.98 0.235591 -0.628282 0
M  V30 11970 H 1150.52 0.0833106 -2.0433 0
M  V30 11971 H 1148.68 2.33446 -3.09163 0
M  V30 11972 H 1149.09 1.34205 -5.0704 0
M  V30 11973 H 1150.56 2.99618 -4.63609 0
M  V30 11974 H 1151.04 3.24618 -2.95838 0
M  V30 11975 H 1151.65 1.82594 -3.84109 0
M  V30 11976 N 1149.96 1.53094 0.37415 0
M  V30 11977 C 1150.91 1.78927 1.45787 0
M  V30 11978 C 1151.88 0.633187 1.53558 0
M  V30 11979 O 1153.06 0.874472 1.69581 0
M  V30 11980 C 1150.2 1.97726 2.8284 0
M  V30 11981 C 1149.32 3.25436 2.84104 0
M  V30 11982 C 1148.45 3.3447 4.12678 0
M  V30 11983 C 1147.49 4.56246 4.08051 0
M  V30 11984 N 1146.63 4.6248 5.28258 0
M  V30 11985 H 1151.47 2.71404 1.2306 0
M  V30 11986 H 1149 1.34453 0.596716 0
M  V30 11987 H 1150.96 2.06611 3.62447 0
M  V30 11988 H 1149.59 1.08593 3.03986 0
M  V30 11989 H 1148.64 3.25548 1.96781 0
M  V30 11990 H 1149.96 4.15112 2.76556 0
M  V30 11991 H 1149.11 3.4262 5.00696 0
M  V30 11992 H 1147.85 2.42795 4.22968 0
M  V30 11993 H 1146.85 4.48206 3.1842 0
M  V30 11994 H 1148.08 5.49254 3.99371 0
M  V30 11995 H 1146.03 3.73703 5.3915 0
M  V30 11996 H 1145.94 5.46049 5.22845 0
M  V30 11997 H 1147.21 4.74903 6.18132 0
M  V30 11998 N 1151.44 -0.633461 1.44309 0
M  V30 11999 C 1152.72 -1.3917 1.37444 0
M  V30 12000 C 1153.1 -2.11076 0.0319994 0
M  V30 12001 O 1152.44 -2.06164 -0.98533 0
M  V30 12002 C 1152.65 -2.36005 2.57104 0
M  V30 12003 C 1154 -2.99407 3.01065 0
M  V30 12004 O 1155.03 -2.46331 2.57292 0
M  V30 12005 O 1153.89 -3.95686 3.76954 0
M  V30 12006 H 1150.98 -0.622746 0.544166 0
M  V30 12007 H 1153.53 -0.658712 1.56394 0
M  V30 12008 H 1152.3 -1.81955 3.46422 0
M  V30 12009 H 1151.92 -3.16725 2.40356 0
M  V30 12010 N 1152.92 -1.31168 -0.873655 0
M  V30 12011 C 1154.16 -1.21831 -1.62877 0
M  V30 12012 C 1154.52 0.222272 -1.91112 0
M  V30 12013 O 1153.81 1.15463 -1.52902 0
M  V30 12014 C 1154.01 -1.99204 -2.96736 0
M  V30 12015 C 1153.84 -3.50639 -2.81571 0
M  V30 12016 C 1152.61 -4.19992 -2.80953 0
M  V30 12017 C 1154.8 -4.45658 -2.56697 0
M  V30 12018 N 1152.79 -5.57609 -2.56799 0
M  V30 12019 C 1154.16 -5.70917 -2.41771 0
M  V30 12020 C 1156.21 -4.35126 -2.42012 0
M  V30 12021 C 1154.91 -6.86837 -2.13654 0
M  V30 12022 C 1156.94 -5.50825 -2.15282 0
M  V30 12023 C 1156.3 -6.75071 -2.01142 0
M  V30 12024 H 1152.4 -0.500911 -0.60051 0
M  V30 12025 H 1154.99 -1.65313 -1.02857 0
M  V30 12026 H 1153.16 -1.58096 -3.54768 0
M  V30 12027 H 1154.89 -1.81916 -3.61509 0
M  V30 12028 H 1151.64 -3.71928 -2.932 0
M  V30 12029 H 1152.07 -6.30058 -2.47703 0
M  V30 12030 H 1156.71 -3.39736 -2.51673 0
M  V30 12031 H 1154.43 -7.82257 -2.0273 0
M  V30 12032 H 1158.01 -5.44591 -2.04725 0
M  V30 12033 H 1156.89 -7.63085 -1.8075 0
M  V30 12034 N 1154.4 1.08748 -1.14068 0
M  V30 12035 C 1155.64 1.81065 -0.906738 0
M  V30 12036 C 1155.97 1.86057 0.566844 0
M  V30 12037 O 1155.23 1.32976 1.43582 0
M  V30 12038 C 1155.53 3.26734 -1.44843 0
M  V30 12039 C 1155.19 3.41866 -2.94005 0
M  V30 12040 C 1153.85 3.45703 -3.34729 0
M  V30 12041 C 1156.21 3.45831 -3.89937 0
M  V30 12042 C 1153.53 3.51092 -4.70055 0
M  V30 12043 C 1155.89 3.52755 -5.25116 0
M  V30 12044 C 1154.55 3.54863 -5.65357 0
M  V30 12045 H 1153.82 0.662564 -0.331799 0
M  V30 12046 H 1156.47 1.28065 -1.42378 0
M  V30 12047 H 1154.77 3.82419 -0.852239 0
M  V30 12048 H 1156.47 3.81236 -1.2434 0
M  V30 12049 H 1153.06 3.39568 -2.61518 0
M  V30 12050 H 1157.24 3.421 -3.59557 0
M  V30 12051 H 1152.5 3.51015 -5.00598 0
M  V30 12052 H 1156.67 3.54768 -5.9926 0
M  V30 12053 H 1154.3 3.58792 -6.70203 0
M  V30 12054 N 1155.87 0.935264 1.26849 0
M  V30 12055 C 1156.8 0.457776 2.28969 0
M  V30 12056 C 1157.79 -0.48587 1.63013 0
M  V30 12057 O 1158.97 -0.388998 1.90264 0
M  V30 12058 C 1156.1 -0.283332 3.46142 0
M  V30 12059 C 1155.05 0.573196 4.24144 0
M  V30 12060 C 1154.38 -0.297525 5.33872 0
M  V30 12061 C 1155.68 1.84153 4.88759 0
M  V30 12062 H 1157.37 1.31125 2.69159 0
M  V30 12063 H 1154.92 0.631956 1.29392 0
M  V30 12064 H 1156.87 -0.628366 4.16689 0
M  V30 12065 H 1155.6 -1.1709 3.04889 0
M  V30 12066 H 1154.26 0.901043 3.55354 0
M  V30 12067 H 1153.9 -1.18427 4.8886 0
M  V30 12068 H 1153.6 0.272126 5.8697 0
M  V30 12069 H 1155.13 -0.637961 6.07258 0
M  V30 12070 H 1156.54 1.5641 5.51551 0
M  V30 12071 H 1154.94 2.35528 5.51948 0
M  V30 12072 H 1156.01 2.5565 4.12033 0
M  V30 12073 N 1157.35 -1.41121 0.701616 0
M  V30 12074 C 1158.6 -2.01428 0.235495 0
M  V30 12075 C 1158.93 -1.55463 -1.16382 0
M  V30 12076 O 1158.21 -0.768477 -1.78675 0
M  V30 12077 C 1158.49 -3.58849 0.299919 0
M  V30 12078 C 1158.34 -4.14924 1.73661 0
M  V30 12079 C 1159.66 -4.38809 -0.336856 0
M  V30 12080 H 1156.78 -0.731842 0.0870456 0
M  V30 12081 H 1159.42 -1.67787 0.891479 0
M  V30 12082 H 1157.57 -3.87638 -0.258611 0
M  V30 12083 H 1159.24 -3.96987 2.34945 0
M  V30 12084 H 1157.49 -3.69738 2.26884 0
M  V30 12085 H 1158.16 -5.24085 1.73318 0
M  V30 12086 H 1160.63 -4.15868 0.138886 0
M  V30 12087 H 1159.51 -5.48278 -0.261264 0
M  V30 12088 H 1159.77 -4.18728 -1.41843 0
M  V30 12089 N 1158.83 -0.446794 -1.51134 0
M  V30 12090 C 1159.76 0.395804 -2.25757 0
M  V30 12091 C 1160.78 0.978178 -1.30137 0
M  V30 12092 O 1161.96 0.87071 -1.55823 0
M  V30 12093 C 1159.06 1.56665 -3.00515 0
M  V30 12094 C 1158.24 1.10146 -4.23305 0
M  V30 12095 C 1157.3 2.14352 -4.80562 0
M  V30 12096 O 1156.32 1.73401 -5.42145 0
M  V30 12097 N 1157.52 3.46932 -4.65423 0
M  V30 12098 H 1160.29 -0.243808 -2.98707 0
M  V30 12099 H 1157.85 -0.276205 -1.59527 0
M  V30 12100 H 1159.84 2.26019 -3.35704 0
M  V30 12101 H 1158.41 2.11142 -2.30516 0
M  V30 12102 H 1157.63 0.234644 -3.93501 0
M  V30 12103 H 1158.92 0.768185 -5.02968 0
M  V30 12104 H 1158.32 3.82929 -4.16391 0
M  V30 12105 H 1156.88 4.12154 -5.04948 0
M  V30 12106 N 1160.31 1.56586 -0.178487 0
M  V30 12107 C 1161.24 2.14168 0.787856 0
M  V30 12108 C 1162.22 1.07374 1.22105 0
M  V30 12109 O 1163.4 1.35391 1.31154 0
M  V30 12110 C 1160.53 2.68708 2.06189 0
M  V30 12111 C 1159.58 3.8794 1.77215 0
M  V30 12112 S 1160.41 5.27274 0.935002 0
M  V30 12113 C 1161.57 5.85224 2.21954 0
M  V30 12114 H 1161.8 2.958 0.298293 0
M  V30 12115 H 1159.33 1.54357 0.0362853 0
M  V30 12116 H 1161.29 3.00777 2.79363 0
M  V30 12117 H 1159.95 1.87149 2.52258 0
M  V30 12118 H 1159.14 4.24453 2.71764 0
M  V30 12119 H 1158.75 3.56795 1.12132 0
M  V30 12120 H 1161.04 5.98575 3.17355 0
M  V30 12121 H 1161.98 6.82162 1.89898 0
M  V30 12122 H 1162.39 5.13697 2.34042 0
M  V30 12123 N 1161.79 -0.095206 1.57312 0
M  V30 12124 C 1162.72 -1.11627 2.05089 0
M  V30 12125 C 1163.7 -1.41782 0.939787 0
M  V30 12126 O 1164.88 -1.51813 1.21105 0
M  V30 12127 C 1162.01 -2.43618 2.47523 0
M  V30 12128 C 1160.97 -2.27872 3.62296 0
M  V30 12129 C 1160.29 -3.65038 3.90706 0
M  V30 12130 C 1161.59 -1.71936 4.93189 0
M  V30 12131 H 1163.29 -0.718795 2.90644 0
M  V30 12132 H 1160.83 -0.344315 1.39823 0
M  V30 12133 H 1162.79 -3.1532 2.79556 0
M  V30 12134 H 1161.51 -2.85301 1.58968 0
M  V30 12135 H 1160.17 -1.58615 3.3051 0
M  V30 12136 H 1159.82 -4.04249 2.99319 0
M  V30 12137 H 1159.52 -3.55349 4.67976 0
M  V30 12138 H 1161.04 -4.38208 4.25213 0
M  V30 12139 H 1162.45 -2.33479 5.23603 0
M  V30 12140 H 1160.85 -1.73006 5.74621 0
M  V30 12141 H 1161.92 -0.678789 4.80125 0
M  V30 12142 N 1163.26 -1.53291 -0.366026 0
M  V30 12143 C 1164.23 -1.79025 -1.43117 0
M  V30 12144 C 1165.23 -0.660676 -1.46601 0
M  V30 12145 O 1166.42 -0.928875 -1.47369 0
M  V30 12146 C 1163.55 -1.91192 -2.82238 0
M  V30 12147 H 1164.74 -2.74154 -1.21572 0
M  V30 12148 H 1162.3 -1.44361 -0.599132 0
M  V30 12149 H 1163.03 -0.98129 -3.09097 0
M  V30 12150 H 1162.82 -2.7335 -2.81109 0
M  V30 12151 H 1164.31 -2.12696 -3.59375 0
M  V30 12152 N 1164.74 0.6258 -1.44643 0
M  V30 12153 C 1165.69 1.75869 -1.52226 0
M  V30 12154 C 1166.68 1.64765 -0.39355 0
M  V30 12155 O 1167.89 1.70779 -0.568718 0
M  V30 12156 H 1164.27 0.580712 -0.477784 0
M  V30 12157 H 1166.24 1.66596 -2.47565 0
M  V30 12158 C 1164.99 3.14217 -1.48873 0
M  V30 12159 H 1164.31 3.23411 -2.35043 0
M  V30 12160 H 1165.75 3.93365 -1.58239 0
M  V30 12161 C 1164.21 3.36243 -0.210299 0
M  V30 12162 O 1164.74 3.95243 0.717335 0
M  V30 12163 N 1162.94 2.90385 -0.111744 0
M  V30 12164 H 1162.49 2.42555 -0.867466 0
M  V30 12165 H 1162.45 3.05498 0.742871 0
M  V30 12166 N 1166.22 1.31629 0.866686 0
M  V30 12167 C 1167.45 1.24293 1.6503 0
M  V30 12168 C 1167.86 -0.193556 1.88207 0
M  V30 12169 O 1167.2 -1.13712 1.44275 0
M  V30 12170 C 1167.26 1.92032 3.03914 0
M  V30 12171 C 1166.93 3.41373 3.03831 0
M  V30 12172 C 1167.92 4.37064 2.81551 0
M  V30 12173 C 1165.61 3.83118 3.24848 0
M  V30 12174 C 1167.6 5.72474 2.80272 0
M  V30 12175 C 1165.29 5.18639 3.23197 0
M  V30 12176 C 1166.29 6.13128 3.00936 0
M  V30 12177 O 1165.98 7.46172 2.99137 0
M  V30 12178 H 1165.71 0.430569 0.521139 0
M  V30 12179 H 1168.26 1.74105 1.0898 0
M  V30 12180 H 1166.49 1.36774 3.61704 0
M  V30 12181 H 1168.18 1.78567 3.64512 0
M  V30 12182 H 1168.95 4.06142 2.65093 0
M  V30 12183 H 1164.83 3.10001 3.41204 0
M  V30 12184 H 1168.37 6.46199 2.62816 0
M  V30 12185 H 1164.27 5.49196 3.39197 0
M  V30 12186 H 1165.04 7.55385 3.15175 0
M  V30 12187 N 1167.7 -1.08142 1.14644 0
M  V30 12188 C 1168.65 -2.17229 0.831513 0
M  V30 12189 C 1169.64 -1.68311 -0.19173 0
M  V30 12190 O 1170.85 -1.79937 -0.0475596 0
M  V30 12191 H 1167.22 -0.708807 0.25119 0
M  V30 12192 H 1169.19 -2.41014 1.75939 0
M  V30 12193 C 1167.94 -3.46146 0.328347 0
M  V30 12194 H 1167.27 -3.84166 1.10708 0
M  V30 12195 H 1168.71 -4.23747 0.146568 0
M  V30 12196 C 1167.16 -3.2327 -0.948594 0
M  V30 12197 O 1167.69 -3.47111 -2.0218 0
M  V30 12198 N 1165.9 -2.76799 -0.884909 0
M  V30 12199 H 1165.45 -2.57597 -0.011399 0
M  V30 12200 H 1165.41 -2.61871 -1.73985 0
M  V30 12201 N 1169.18 -0.941978 -1.26351 0
M  V30 12202 C 1170.43 -0.585711 -1.93009 0
M  V30 12203 C 1170.74 0.879507 -1.74711 0
M  V30 12204 O 1171.95 1.34518 -2.35833 0
M  V30 12205 C 1170.4 -0.996787 -3.45821 0
M  V30 12206 C 1170.01 -2.48367 -3.72851 0
M  V30 12207 C 1171.75 -0.712452 -4.18479 0
M  V30 12208 C 1169.66 -2.83341 -5.19107 0
M  V30 12209 H 1168.59 -0.215342 -0.722595 0
M  V30 12210 H 1171.24 -1.14472 -1.43417 0
M  V30 12211 H 1169.62 -0.366295 -3.94302 0
M  V30 12212 H 1170.8 -3.16328 -3.35072 0
M  V30 12213 H 1169.11 -2.74139 -3.13427 0
M  V30 12214 H 1171.71 -0.95007 -5.26192 0
M  V30 12215 H 1172.05 0.350811 -4.14819 0
M  V30 12216 H 1172.59 -1.3027 -3.75865 0
M  V30 12217 H 1169.32 -3.88633 -5.27868 0
M  V30 12218 H 1168.84 -2.20043 -5.5798 0
M  V30 12219 H 1170.52 -2.71849 -5.87118 0
M  V30 12220 N 1170.66 1.40747 -0.709091 0
M  V30 12221 C 1171.9 2.00606 -0.245324 0
M  V30 12222 C 1172.22 1.56489 1.16346 0
M  V30 12223 O 1171.49 0.801456 1.78755 0
M  V30 12224 H 1170.07 0.741833 -0.0877098 0
M  V30 12225 H 1172.74 1.72178 -0.913271 0
M  V30 12226 H 1171.83 3.10901 -0.273322 0
M  V30 12227 N 1172.13 0.454803 1.50895 0
M  V30 12228 C 1173.36 -0.103785 2.06339 0
M  V30 12229 C 1173.77 -1.35494 1.32053 0
M  V30 12230 O 1173.11 -1.79758 0.37852 0
M  V30 12231 C 1173.18 -0.474076 3.5636 0
M  V30 12232 C 1172.84 0.672736 4.52021 0
M  V30 12233 C 1173.84 1.55003 4.96256 0
M  V30 12234 C 1171.52 0.858435 4.9491 0
M  V30 12235 C 1173.52 2.59757 5.82069 0
M  V30 12236 C 1171.2 1.90922 5.8051 0
M  V30 12237 C 1172.2 2.77717 6.23989 0
M  V30 12238 O 1171.89 3.80989 7.07886 0
M  V30 12239 H 1171.62 -0.0035531 0.675991 0
M  V30 12240 H 1174.18 0.637816 1.95246 0
M  V30 12241 H 1172.41 -1.26863 3.65298 0
M  V30 12242 H 1174.09 -0.965845 3.94241 0
M  V30 12243 H 1174.86 1.41818 4.63802 0
M  V30 12244 H 1170.74 0.192384 4.60598 0
M  V30 12245 H 1174.28 3.27535 6.15927 0
M  V30 12246 H 1170.18 2.04121 6.12376 0
M  V30 12247 H 1170.95 3.7778 7.26102 0
M  V30 12248 N 1173.61 -1.56489 0.186789 0
M  V30 12249 C 1174.54 -2.15911 -0.769104 0
M  V30 12250 C 1175.56 -1.11872 -1.18273 0
M  V30 12251 O 1176.75 -1.38999 -1.1199 0
M  V30 12252 C 1173.85 -2.69957 -2.04882 0
M  V30 12253 C 1173.02 -3.98812 -1.79631 0
M  V30 12254 C 1172.08 -4.37767 -2.9197 0
M  V30 12255 O 1171.1 -5.0535 -2.61935 0
M  V30 12256 N 1172.31 -4.0059 -4.20128 0
M  V30 12257 H 1175.07 -2.98561 -0.261007 0
M  V30 12258 H 1172.63 -1.61899 0.00453357 0
M  V30 12259 H 1174.62 -2.93006 -2.79158 0
M  V30 12260 H 1173.19 -1.91808 -2.46837 0
M  V30 12261 H 1172.41 -3.8398 -0.891776 0
M  V30 12262 H 1173.7 -4.82939 -1.60148 0
M  V30 12263 H 1173.1 -3.46213 -4.47385 0
M  V30 12264 H 1171.66 -4.28608 -4.91059 0
M  V30 12265 N 1175.09 0.086862 -1.5736 0
M  V30 12266 C 1176.34 0.787281 -1.86135 0
M  V30 12267 C 1176.66 1.78866 -0.776667 0
M  V30 12268 O 1175.93 1.94915 0.19625 0
M  V30 12269 H 1174.51 0.293744 -0.686821 0
M  V30 12270 H 1177.17 0.0665326 -1.94786 0
M  V30 12271 H 1176.27 1.3128 -2.83147 0
M  V30 12272 N 1176.57 1.53483 0.357892 0
M  V30 12273 C 1177.81 1.70037 1.09971 0
M  V30 12274 C 1178.14 0.456112 1.89076 0
M  V30 12275 O 1177.4 -0.562029 1.87456 0
M  V30 12276 C 1177.7 2.90654 2.07978 0
M  V30 12277 C 1177.36 4.26849 1.45295 0
M  V30 12278 C 1176.02 4.63884 1.27928 0
M  V30 12279 C 1178.38 5.11514 1.00013 0
M  V30 12280 C 1175.7 5.83213 0.638745 0
M  V30 12281 C 1178.06 6.31496 0.373568 0
M  V30 12282 C 1176.72 6.67237 0.187457 0
M  V30 12283 H 1175.99 0.622209 0.402414 0
M  V30 12284 H 1178.64 1.87679 0.380615 0
M  V30 12285 H 1176.94 2.67556 2.86219 0
M  V30 12286 H 1178.64 3.00656 2.65343 0
M  V30 12287 H 1175.23 3.97693 1.59807 0
M  V30 12288 H 1179.41 4.83446 1.12221 0
M  V30 12289 H 1174.67 6.09489 0.483035 0
M  V30 12290 H 1178.84 6.96398 0.0145346 0
M  V30 12291 H 1176.47 7.59564 -0.310933 0
M  V30 12292 N 1178.05 -0.61812 1.44973 0
M  V30 12293 C 1179.28 -1.40225 1.51725 0
M  V30 12294 C 1179.68 -1.88643 0.145098 0
M  V30 12295 O 1179.03 -1.62237 -0.861677 0
M  V30 12296 C 1179.09 -2.64808 2.4314 0
M  V30 12297 C 1178.75 -2.381 3.90073 0
M  V30 12298 C 1179.75 -1.99116 4.80259 0
M  V30 12299 C 1177.43 -2.51338 4.34896 0
M  V30 12300 C 1179.43 -1.73716 6.13271 0
M  V30 12301 C 1177.12 -2.25552 5.67952 0
M  V30 12302 C 1178.11 -1.86801 6.56958 0
M  V30 12303 O 1177.8 -1.6131 7.8755 0
M  V30 12304 H 1177.53 -0.436024 0.516584 0
M  V30 12305 H 1180.09 -0.761929 1.90745 0
M  V30 12306 H 1178.32 -3.31524 1.9907 0
M  V30 12307 H 1180.01 -3.26835 2.40694 0
M  V30 12308 H 1180.77 -1.88435 4.46897 0
M  V30 12309 H 1176.65 -2.80468 3.65867 0
M  V30 12310 H 1180.2 -1.43395 6.82703 0
M  V30 12311 H 1176.09 -2.35847 6.00872 0
M  V30 12312 H 1176.86 -1.75449 7.99475 0
M  V30 12313 N 1179.52 -1.32087 -0.859693 0
M  V30 12314 C 1180.77 -1.21716 -1.60836 0
M  V30 12315 C 1181.09 0.220904 -1.94349 0
M  V30 12316 O 1182.29 0.446422 -2.67805 0
M  V30 12317 C 1180.75 -2.13143 -2.89997 0
M  V30 12318 C 1180.36 -3.62003 -2.63928 0
M  V30 12319 C 1182.1 -2.11596 -3.68004 0
M  V30 12320 C 1180.01 -4.45407 -3.89059 0
M  V30 12321 H 1178.94 -0.45199 -0.603507 0
M  V30 12322 H 1181.59 -1.57013 -0.949687 0
M  V30 12323 H 1179.97 -1.70755 -3.57294 0
M  V30 12324 H 1181.14 -4.12701 -2.04974 0
M  V30 12325 H 1179.46 -3.6563 -1.99258 0
M  V30 12326 H 1182.06 -2.71149 -4.6085 0
M  V30 12327 H 1182.4 -1.10568 -4.01348 0
M  V30 12328 H 1182.93 -2.52238 -3.07605 0
M  V30 12329 H 1179.67 -5.4723 -3.60859 0
M  V30 12330 H 1179.19 -3.99462 -4.47427 0
M  V30 12331 H 1180.87 -4.58149 -4.56846 0
M  V30 12332 N 1181 1.07532 -1.15215 0
M  V30 12333 C 1182.41 1.61567 -0.935568 0
M  V30 12334 C 1182.76 1.89085 0.523557 0
M  V30 12335 O 1181.89 1.65495 1.39429 0
M  V30 12336 C 1182.48 2.93531 -1.69189 0
M  V30 12337 C 1181.04 3.44316 -1.52063 0
M  V30 12338 C 1180.19 2.18404 -1.70866 0
M  V30 12339 H 1183.14 0.906431 -1.30267 0
M  V30 12340 H 1183.16 3.62377 -1.16031 0
M  V30 12341 H 1182.67 2.73471 -2.75381 0
M  V30 12342 H 1180.77 3.69462 -0.482567 0
M  V30 12343 H 1180.89 4.20478 -2.29642 0
M  V30 12344 H 1179.25 2.28012 -1.13502 0
M  V30 12345 H 1180.03 2.00841 -2.7842 0
M  V30 12346 N 1182.48 0.948665 1.2585 0
M  V30 12347 C 1183.39 0.470525 2.29833 0
M  V30 12348 C 1184.41 -0.45919 1.67832 0
M  V30 12349 O 1185.58 -0.336893 1.98562 0
M  V30 12350 C 1182.65 -0.249635 3.458 0
M  V30 12351 C 1181.71 0.717559 4.23261 0
M  V30 12352 C 1180.94 0.0316724 5.33691 0
M  V30 12353 O 1181.16 -1.18384 5.5798 0
M  V30 12354 O 1180.1 0.71418 5.97648 0
M  V30 12355 H 1183.92 1.33447 2.72811 0
M  V30 12356 H 1181.51 0.714864 1.31187 0
M  V30 12357 H 1183.39 -0.654993 4.16279 0
M  V30 12358 H 1182.07 -1.08885 3.04837 0
M  V30 12359 H 1180.97 1.17301 3.55234 0
M  V30 12360 H 1182.31 1.52461 4.67992 0
M  V30 12361 N 1183.96 -1.40369 0.716545 0
M  V30 12362 C 1185.18 -2.05704 0.264729 0
M  V30 12363 C 1185.61 -1.53634 -1.08527 0
M  V30 12364 O 1184.97 -0.67212 -1.68381 0
M  V30 12365 C 1185.01 -3.59692 0.255778 0
M  V30 12366 O 1184.12 -4.05286 -0.762686 0
M  V30 12367 H 1183.46 -0.652301 0.124092 0
M  V30 12368 H 1185.99 -1.7975 0.977295 0
M  V30 12369 H 1186 -4.07892 0.0937944 0
M  V30 12370 H 1184.67 -3.96955 1.24095 0
M  V30 12371 H 1183.25 -3.68543 -0.568347 0
M  V30 12372 N 1185.44 -0.462799 -1.50652 0
M  V30 12373 C 1186.67 0.0928413 -2.06391 0
M  V30 12374 C 1187.07 1.34791 -1.3277 0
M  V30 12375 O 1186.42 1.79555 -0.388048 0
M  V30 12376 C 1186.48 0.45517 -3.56607 0
M  V30 12377 C 1186.14 -0.696698 -4.51658 0
M  V30 12378 C 1187.14 -1.57633 -4.95427 0
M  V30 12379 C 1184.83 -0.884669 -4.94448 0
M  V30 12380 C 1186.82 -2.62841 -5.80684 0
M  V30 12381 C 1184.51 -1.93998 -5.79489 0
M  V30 12382 C 1185.5 -2.81022 -6.22508 0
M  V30 12383 O 1185.19 -3.84738 -7.05856 0
M  V30 12384 H 1184.92 -3.18898e-05 -0.676 0
M  V30 12385 H 1187.48 -0.648161 -1.94905 0
M  V30 12386 H 1185.71 1.24924 -3.65966 0
M  V30 12387 H 1187.4 0.944923 -3.94748 0
M  V30 12388 H 1188.16 -1.44276 -4.63044 0
M  V30 12389 H 1184.04 -0.216807 -4.6049 0
M  V30 12390 H 1187.59 -3.30797 -6.14182 0
M  V30 12391 H 1183.48 -2.07366 -6.11285 0
M  V30 12392 H 1184.25 -3.81626 -7.24088 0
M  V30 12393 N 1186.91 1.56388 -0.195085 0
M  V30 12394 C 1187.86 2.19091 0.725793 0
M  V30 12395 C 1188.83 1.13814 1.20977 0
M  V30 12396 O 1190.02 1.42065 1.27366 0
M  V30 12397 C 1187.16 2.85427 1.93973 0
M  V30 12398 C 1186.27 4.05229 1.49712 0
M  V30 12399 C 1185.4 4.59421 2.66656 0
M  V30 12400 C 1184.44 5.71581 2.19001 0
M  V30 12401 N 1183.58 6.2018 3.29123 0
M  V30 12402 H 1188.42 2.97429 0.184334 0
M  V30 12403 H 1185.96 1.46886 0.0792434 0
M  V30 12404 H 1187.92 3.22057 2.65208 0
M  V30 12405 H 1186.55 2.09652 2.4545 0
M  V30 12406 H 1185.6 3.74261 0.680641 0
M  V30 12407 H 1186.91 4.8635 1.10749 0
M  V30 12408 H 1186.06 4.98357 3.46014 0
M  V30 12409 H 1184.8 3.77407 3.08893 0
M  V30 12410 H 1183.81 5.32174 1.38097 0
M  V30 12411 H 1185.03 6.55413 1.77795 0
M  V30 12412 H 1182.98 5.41088 3.70891 0
M  V30 12413 H 1182.9 6.96353 2.94328 0
M  V30 12414 H 1184.16 6.63769 4.08694 0
M  V30 12415 N 1188.39 -0.0785156 1.57404 0
M  V30 12416 C 1189.67 -0.811557 1.77969 0
M  V30 12417 C 1190.05 -1.96123 0.780966 0
M  V30 12418 O 1189.4 -2.27731 -0.18726 0
M  V30 12419 C 1189.61 -1.29075 3.24254 0
M  V30 12420 C 1190.96 -1.72685 3.87898 0
M  V30 12421 O 1191.98 -1.38658 3.28104 0
M  V30 12422 O 1190.84 -2.3566 4.93079 0
M  V30 12423 H 1187.93 -0.388361 0.73014 0
M  V30 12424 H 1190.48 -0.0591118 1.69597 0
M  V30 12425 H 1189.25 -0.467813 3.88494 0
M  V30 12426 H 1188.87 -2.10472 3.37324 0
M  V30 12427 N 1189.87 -1.5367 -0.349747 0
M  V30 12428 C 1191.29 -1.43796 -0.692457 0
M  V30 12429 C 1191.49 -0.58972 -1.92677 0
M  V30 12430 O 1190.54 -0.078294 -2.52379 0
M  V30 12431 C 1191.86 -2.872 -0.890881 0
M  V30 12432 C 1193.4 -2.96935 -0.989892 0
M  V30 12433 C 1193.88 -4.41433 -1.22068 0
M  V30 12434 N 1195.37 -4.44932 -1.28802 0
M  V30 12435 C 1196.1 -5.53864 -1.48398 0
M  V30 12436 N 1195.6 -6.72814 -1.65208 0
M  V30 12437 N 1197.39 -5.41467 -1.50896 0
M  V30 12438 H 1189.54 -2.07317 0.461895 0
M  V30 12439 H 1191.81 -0.936895 0.144681 0
M  V30 12440 H 1191.51 -3.51656 -0.0555095 0
M  V30 12441 H 1191.39 -3.31784 -1.79442 0
M  V30 12442 H 1193.77 -2.32622 -1.81579 0
M  V30 12443 H 1193.86 -2.55721 -0.0633906 0
M  V30 12444 H 1193.5 -5.06325 -0.399729 0
M  V30 12445 H 1193.43 -4.80233 -2.16064 0
M  V30 12446 H 1195.92 -3.59214 -1.17361 0
M  V30 12447 H 1196.23 -7.51598 -1.79779 0
M  V30 12448 H 1194.58 -6.7577 -1.62356 0
M  V30 12449 H 1197.77 -4.47498 -1.37342 0
M  V30 12450 H 1197.94 -6.26423 -1.65826 0
M  V30 12451 N 1191.35 0.610423 -1.45298 0
M  V30 12452 C 1192.28 1.73493 -1.48241 0
M  V30 12453 C 1193.26 1.59025 -0.339065 0
M  V30 12454 O 1194.44 1.80625 -0.539144 0
M  V30 12455 C 1191.57 3.11291 -1.33476 0
M  V30 12456 C 1190.62 3.44355 -2.51638 0
M  V30 12457 S 1191.45 3.39512 -4.14116 0
M  V30 12458 C 1192.61 4.79895 -4.01811 0
M  V30 12459 H 1192.84 1.70734 -2.43387 0
M  V30 12460 H 1190.37 0.786833 -1.32847 0
M  V30 12461 H 1192.33 3.90799 -1.25644 0
M  V30 12462 H 1190.99 3.11568 -0.39805 0
M  V30 12463 H 1190.18 4.44679 -2.37226 0
M  V30 12464 H 1189.79 2.72356 -2.56317 0
M  V30 12465 H 1192.08 5.6963 -3.6678 0
M  V30 12466 H 1193.02 4.99363 -5.02038 0
M  V30 12467 H 1193.43 4.55443 -3.33515 0
M  V30 12468 N 1192.83 1.32541 0.852676 0
M  V30 12469 C 1194.06 1.26037 1.63702 0
M  V30 12470 C 1194.46 -0.173583 1.88402 0
M  V30 12471 O 1193.81 -1.12175 1.45473 0
M  V30 12472 C 1193.87 1.95245 3.01861 0
M  V30 12473 C 1193.53 3.44576 3.00193 0
M  V30 12474 C 1194.53 4.40026 2.76899 0
M  V30 12475 C 1192.22 3.86541 3.20766 0
M  V30 12476 C 1194.21 5.75414 2.74185 0
M  V30 12477 C 1191.9 5.22038 3.17678 0
M  V30 12478 C 1192.89 6.16286 2.94416 0
M  V30 12479 O 1192.58 7.49303 2.91206 0
M  V30 12480 H 1192.31 0.436073 0.516543 0
M  V30 12481 H 1194.87 1.75251 1.07127 0
M  V30 12482 H 1193.1 1.40603 3.60233 0
M  V30 12483 H 1194.79 1.82423 3.62597 0
M  V30 12484 H 1195.55 4.0893 2.6077 0
M  V30 12485 H 1191.43 3.13603 3.37897 0
M  V30 12486 H 1194.98 6.4895 2.55947 0
M  V30 12487 H 1190.87 5.52762 3.33353 0
M  V30 12488 H 1191.64 7.58686 3.07146 0
M  V30 12489 N 1194.3 -1.0692 1.15784 0
M  V30 12490 C 1195.53 -1.83849 0.959903 0
M  V30 12491 C 1195.95 -1.8169 -0.486873 0
M  V30 12492 O 1195.31 -1.21305 -1.34739 0
M  V30 12493 C 1195.36 -3.28642 1.48414 0
M  V30 12494 O 1194.46 -4.0665 0.686249 0
M  V30 12495 H 1193.81 -0.569115 0.342059 0
M  V30 12496 H 1196.34 -1.34851 1.53871 0
M  V30 12497 H 1196.35 -3.7947 1.49888 0
M  V30 12498 H 1195.02 -3.29529 2.53739 0
M  V30 12499 H 1193.6 -3.65453 0.741501 0
M  V30 12500 N 1195.78 -0.955326 -1.25345 0
M  V30 12501 C 1197.03 -0.610484 -1.93079 0
M  V30 12502 C 1197.36 0.852591 -1.74817 0
M  V30 12503 O 1196.61 1.6272 -1.08723 0
M  V30 12504 C 1196.91 -0.916173 -3.45458 0
M  V30 12505 C 1196.58 -2.36539 -3.83875 0
M  V30 12506 C 1195.24 -2.76152 -3.94073 0
M  V30 12507 C 1197.59 -3.30652 -4.02888 0
M  V30 12508 C 1194.92 -4.08944 -4.20692 0
M  V30 12509 C 1197.27 -4.63057 -4.31 0
M  V30 12510 C 1195.94 -5.02464 -4.39415 0
M  V30 12511 H 1195.21 -0.223392 -0.706525 0
M  V30 12512 H 1197.85 -1.20449 -1.48877 0
M  V30 12513 H 1196.16 -0.23978 -3.91066 0
M  V30 12514 H 1197.85 -0.627929 -3.96053 0
M  V30 12515 H 1194.44 -2.04819 -3.76493 0
M  V30 12516 H 1198.63 -3.01237 -3.94423 0
M  V30 12517 H 1193.88 -4.39118 -4.25423 0
M  V30 12518 H 1198.06 -5.3596 -4.44657 0
M  V30 12519 H 1195.69 -6.05386 -4.59795 0
M  V30 12520 N 1197.26 1.39987 -0.723979 0
M  V30 12521 C 1198.51 2.00731 -0.267115 0
M  V30 12522 C 1198.84 1.57424 1.14228 0
M  V30 12523 O 1198.09 0.789205 1.79081 0
M  V30 12524 C 1198.39 3.56101 -0.304472 0
M  V30 12525 C 1198.06 4.1902 -1.66533 0
M  V30 12526 C 1196.72 4.3592 -2.03783 0
M  V30 12527 C 1199.07 4.54034 -2.55935 0
M  V30 12528 C 1196.4 4.85119 -3.29964 0
M  V30 12529 C 1198.75 5.04637 -3.81477 0
M  V30 12530 C 1197.41 5.19745 -4.18833 0
M  V30 12531 H 1196.68 0.734525 -0.0977442 0
M  V30 12532 H 1199.33 1.67476 -0.928659 0
M  V30 12533 H 1197.64 3.89314 0.440647 0
M  V30 12534 H 1199.33 4.00944 0.0669875 0
M  V30 12535 H 1195.92 4.0626 -1.36569 0
M  V30 12536 H 1200.11 4.40606 -2.2843 0
M  V30 12537 H 1195.36 4.95001 -3.58865 0
M  V30 12538 H 1199.54 5.30705 -4.50916 0
M  V30 12539 H 1197.16 5.5763 -5.16675 0
M  V30 12540 N 1198.74 0.470782 1.50404 0
M  V30 12541 C 1200.16 0.124919 1.5911 0
M  V30 12542 C 1200.36 -1.36855 1.47895 0
M  V30 12543 O 1199.41 -2.1418 1.33728 0
M  V30 12544 C 1200.72 0.674839 2.9303 0
M  V30 12545 C 1202.27 0.638239 3.06424 0
M  V30 12546 C 1202.75 1.1657 4.42917 0
M  V30 12547 N 1204.24 1.1251 4.49328 0
M  V30 12548 C 1204.97 1.50373 5.53331 0
M  V30 12549 N 1204.47 1.95684 6.6459 0
M  V30 12550 N 1206.26 1.41978 5.43874 0
M  V30 12551 H 1198.41 1.44212 1.55938 0
M  V30 12552 H 1200.68 0.596354 0.73693 0
M  V30 12553 H 1200.38 1.72106 3.06712 0
M  V30 12554 H 1200.26 0.118234 3.77015 0
M  V30 12555 H 1202.64 -0.399075 2.92389 0
M  V30 12556 H 1202.72 1.23164 2.24197 0
M  V30 12557 H 1202.37 2.20164 4.57701 0
M  V30 12558 H 1202.3 0.548513 5.23736 0
M  V30 12559 H 1204.79 0.79276 3.69491 0
M  V30 12560 H 1205.1 2.22724 7.40009 0
M  V30 12561 H 1203.45 1.99636 6.65711 0
M  V30 12562 H 1206.64 1.0642 4.55842 0
M  V30 12563 H 1206.81 1.71812 6.24808 0
M  V30 12564 N 1200.22 -1.56282 0.203376 0
M  V30 12565 C 1201.17 -2.20822 -0.730784 0
M  V30 12566 C 1202.16 -1.18193 -1.21354 0
M  V30 12567 O 1203.37 -1.36318 -1.17547 0
M  V30 12568 H 1199.74 -0.707792 -0.254036 0
M  V30 12569 H 1201.71 -2.97955 -0.162825 0
M  V30 12570 C 1200.46 -2.88803 -1.93618 0
M  V30 12571 H 1199.78 -3.67521 -1.57379 0
M  V30 12572 H 1201.22 -3.37387 -2.56799 0
M  V30 12573 C 1199.68 -1.90285 -2.78017 0
M  V30 12574 O 1200.21 -1.40833 -3.76203 0
M  V30 12575 N 1198.42 -1.58332 -2.43679 0
M  V30 12576 H 1197.97 -1.9874 -1.63891 0
M  V30 12577 H 1197.92 -0.926722 -3.00432 0
M  V30 12578 N 1201.7 0.070167 -1.57444 0
M  V30 12579 C 1202.94 0.769014 -1.8733 0
M  V30 12580 C 1203.27 1.77496 -0.79533 0
M  V30 12581 O 1202.53 1.94586 0.208495 0
M  V30 12582 C 1202.82 1.5111 -3.23883 0
M  V30 12583 C 1202.49 0.644988 -4.46263 0
M  V30 12584 C 1201.15 0.406307 -4.79482 0
M  V30 12585 C 1203.5 0.0444938 -5.21181 0
M  V30 12586 C 1200.83 -0.442322 -5.8503 0
M  V30 12587 C 1203.18 -0.791599 -6.27628 0
M  V30 12588 C 1201.85 -1.04014 -6.59346 0
M  V30 12589 H 1201.12 0.281402 -0.685488 0
M  V30 12590 H 1203.77 0.029752 -1.91477 0
M  V30 12591 H 1202.07 2.32261 -3.15535 0
M  V30 12592 H 1203.77 2.05665 -3.44242 0
M  V30 12593 H 1200.36 0.841148 -4.20265 0
M  V30 12594 H 1204.54 0.216005 -4.9583 0
M  V30 12595 H 1199.8 -0.643607 -6.08003 0
M  V30 12596 H 1203.97 -1.26363 -6.8484 0
M  V30 12597 H 1201.6 -1.69949 -7.4096 0
M  V30 12598 N 1203.17 1.53854 0.341593 0
M  V30 12599 C 1204.11 1.78295 1.44027 0
M  V30 12600 C 1205.12 0.664303 1.4863 0
M  V30 12601 O 1206.31 0.941073 1.51678 0
M  V30 12602 C 1203.41 1.86947 2.82673 0
M  V30 12603 C 1202.58 3.16898 3.01487 0
M  V30 12604 C 1201.64 3.16483 4.20386 0
M  V30 12605 O 1200.67 3.90197 4.14409 0
M  V30 12606 N 1201.87 2.3899 5.29022 0
M  V30 12607 H 1204.63 2.73102 1.23431 0
M  V30 12608 H 1202.19 1.52928 0.531483 0
M  V30 12609 H 1204.19 1.84118 3.60392 0
M  V30 12610 H 1202.76 0.993169 2.96403 0
M  V30 12611 H 1201.98 3.32835 2.11221 0
M  V30 12612 H 1203.26 4.02733 3.1094 0
M  V30 12613 H 1202.66 1.78657 5.36748 0
M  V30 12614 H 1201.22 2.41957 6.05227 0
M  V30 12615 N 1204.65 -0.602709 1.4562 0
M  V30 12616 C 1206.06 -1.1847 1.44297 0
M  V30 12617 C 1206.41 -1.95434 0.17316 0
M  V30 12618 O 1205.54 -2.03894 -0.724986 0
M  V30 12619 C 1206.13 -2.15508 2.61422 0
M  V30 12620 C 1204.69 -2.69073 2.63204 0
M  V30 12621 C 1203.84 -1.44568 2.36633 0
M  V30 12622 H 1206.79 -0.391745 1.53789 0
M  V30 12623 H 1206.81 -2.98628 2.35799 0
M  V30 12624 H 1206.32 -1.59464 3.53826 0
M  V30 12625 H 1204.42 -3.29042 1.7482 0
M  V30 12626 H 1204.54 -3.13173 3.62573 0
M  V30 12627 H 1202.9 -1.73692 1.86287 0
M  V30 12628 H 1203.68 -0.903852 3.31188 0
M  V30 12629 N 1206.13 -1.32992 -0.845635 0
M  V30 12630 C 1207.06 -1.17018 -1.95913 0
M  V30 12631 C 1208.04 -0.0673433 -1.6246 0
M  V30 12632 O 1209.22 -0.22833 -1.87112 0
M  V30 12633 C 1206.35 -0.793343 -3.29278 0
M  V30 12634 C 1205.4 -1.90271 -3.81705 0
M  V30 12635 S 1206.23 -3.51256 -4.04202 0
M  V30 12636 C 1207.39 -3.15564 -5.40528 0
M  V30 12637 H 1207.62 -2.11278 -2.09163 0
M  V30 12638 H 1205.15 -1.17756 -0.998644 0
M  V30 12639 H 1207.11 -0.582694 -4.06343 0
M  V30 12640 H 1205.77 0.130539 -3.13829 0
M  V30 12641 H 1204.96 -1.59225 -4.78188 0
M  V30 12642 H 1204.57 -2.06968 -3.11513 0
M  V30 12643 H 1206.86 -2.65969 -6.23111 0
M  V30 12644 H 1207.8 -4.11102 -5.76542 0
M  V30 12645 H 1208.21 -2.52341 -5.04959 0
M  V30 12646 N 1207.61 1.06304 -1.1635 0
M  V30 12647 C 1208.83 1.83338 -0.969639 0
M  V30 12648 C 1209.26 1.81945 0.477231 0
M  V30 12649 O 1208.62 1.22018 1.34094 0
M  V30 12650 C 1208.66 3.2785 -1.50155 0
M  V30 12651 O 1207.77 4.06281 -0.707805 0
M  V30 12652 H 1207.11 0.567293 -0.345072 0
M  V30 12653 H 1209.64 1.34033 -1.54584 0
M  V30 12654 H 1209.65 3.7867 -1.51898 0
M  V30 12655 H 1208.32 3.28179 -2.55483 0
M  V30 12656 H 1206.9 3.65055 -0.760872 0
M  V30 12657 N 1209.09 0.96196 1.24836 0
M  V30 12658 C 1210.5 0.667561 1.44968 0
M  V30 12659 C 1210.7 -0.772521 1.86103 0
M  V30 12660 O 1209.76 -1.54704 1.99557 0
M  V30 12661 C 1211.07 1.64675 2.516 0
M  V30 12662 C 1212.62 1.65874 2.65433 0
M  V30 12663 C 1213.09 2.62576 3.75257 0
M  V30 12664 N 1214.58 2.60984 3.82677 0
M  V30 12665 C 1215.32 3.32484 4.67163 0
M  V30 12666 N 1214.82 4.13482 5.55882 0
M  V30 12667 N 1216.61 3.21336 4.61193 0
M  V30 12668 H 1208.76 1.89248 0.964307 0
M  V30 12669 H 1211.02 0.814443 0.485167 0
M  V30 12670 H 1210.73 2.67572 2.2825 0
M  V30 12671 H 1210.6 1.415 3.49653 0
M  V30 12672 H 1212.99 0.636912 2.88145 0
M  V30 12673 H 1213.07 1.9311 1.67756 0
M  V30 12674 H 1212.71 3.6489 3.53295 0
M  V30 12675 H 1212.64 2.32622 4.72435 0
M  V30 12676 H 1215.14 2.02187 3.19263 0
M  V30 12677 H 1215.45 4.6494 6.17293 0
M  V30 12678 H 1213.79 4.17578 5.55566 0
M  V30 12679 H 1216.98 2.57524 3.90895 0
M  V30 12680 H 1217.16 3.77323 5.26812 0
M  V30 12681 N 1210.56 -1.39601 0.731392 0
M  V30 12682 C 1211.5 -2.29147 0.0494974 0
M  V30 12683 C 1212.51 -1.46635 -0.707248 0
M  V30 12684 O 1213.7 -1.6975 -0.552008 0
M  V30 12685 C 1210.8 -3.25191 -0.954152 0
M  V30 12686 C 1209.97 -4.36629 -0.259674 0
M  V30 12687 C 1209.03 -5.13007 -1.17092 0
M  V30 12688 O 1208.06 -5.65479 -0.64976 0
M  V30 12689 N 1209.26 -5.23865 -2.50092 0
M  V30 12690 H 1212.02 -2.88308 0.818433 0
M  V30 12691 H 1209.58 -1.51142 0.580316 0
M  V30 12692 H 1211.58 -3.73161 -1.56629 0
M  V30 12693 H 1210.15 -2.67085 -1.62432 0
M  V30 12694 H 1209.37 -3.90582 0.532888 0
M  V30 12695 H 1210.65 -5.08317 0.221753 0
M  V30 12696 H 1210.05 -4.82745 -2.94913 0
M  V30 12697 H 1208.61 -5.75288 -3.0641 0
M  V30 12698 N 1212.04 -0.478751 -1.50152 0
M  V30 12699 C 1213.29 0.073694 -2.02666 0
M  V30 12700 C 1213.62 1.38679 -1.35947 0
M  V30 12701 O 1212.9 1.88286 -0.4877 0
M  V30 12702 C 1213.18 0.249516 -3.59235 0
M  V30 12703 C 1213.03 -1.08514 -4.36514 0
M  V30 12704 C 1214.35 1.00053 -4.28576 0
M  V30 12705 H 1211.47 0.0253082 -0.736565 0
M  V30 12706 H 1214.11 -0.625834 -1.79397 0
M  V30 12707 H 1212.26 0.845343 -3.79192 0
M  V30 12708 H 1213.93 -1.71814 -4.28109 0
M  V30 12709 H 1212.18 -1.67992 -3.99952 0
M  V30 12710 H 1212.85 -0.915676 -5.44352 0
M  V30 12711 H 1215.32 0.495422 -4.1314 0
M  V30 12712 H 1214.2 1.09236 -5.37921 0
M  V30 12713 H 1214.46 2.03896 -3.92274 0
M  V30 12714 N 1213.52 1.56172 -0.211661 0
M  V30 12715 C 1214.77 1.98332 0.423332 0
M  V30 12716 C 1215.1 1.09895 1.60115 0
M  V30 12717 O 1214.37 0.154477 1.93886 0
M  V30 12718 C 1214.66 3.49495 0.86747 0
M  V30 12719 C 1214.51 4.48708 -0.313302 0
M  V30 12720 C 1215.83 4.04793 1.72716 0
M  V30 12721 H 1212.95 0.72107 0.152402 0
M  V30 12722 H 1215.59 1.87521 -0.305912 0
M  V30 12723 H 1213.74 3.58839 1.48885 0
M  V30 12724 H 1215.41 4.51385 -0.951291 0
M  V30 12725 H 1213.66 4.2299 -0.96238 0
M  V30 12726 H 1214.33 5.51985 0.0402402 0
M  V30 12727 H 1216.8 3.98332 1.20296 0
M  V30 12728 H 1215.68 5.10898 2.00684 0
M  V30 12729 H 1215.94 3.51067 2.68709 0
M  V30 12730 N 1215 -0.0618163 1.57479 0
M  V30 12731 C 1216.28 -0.792636 1.7882 0
M  V30 12732 C 1216.66 -1.95283 0.801724 0
M  V30 12733 O 1216 -2.27917 -0.163095 0
M  V30 12734 C 1216.21 -1.25629 3.25605 0
M  V30 12735 C 1217.56 -1.68561 3.89708 0
M  V30 12736 O 1218.59 -1.35171 3.29556 0
M  V30 12737 O 1217.44 -2.30417 4.95551 0
M  V30 12738 H 1214.54 -0.380595 0.734218 0
M  V30 12739 H 1217.08 -0.0411205 1.6965 0
M  V30 12740 H 1215.86 -0.426582 3.88968 0
M  V30 12741 H 1215.48 -2.06882 3.39537 0
M  V30 12742 N 1216.48 -1.54033 -0.333429 0
M  V30 12743 C 1217.75 -1.62404 -1.09015 0
M  V30 12744 C 1218.13 -0.451653 -2.06212 0
M  V30 12745 O 1217.48 0.555086 -2.21655 0
M  V30 12746 C 1217.69 -2.98949 -1.80085 0
M  V30 12747 C 1219.04 -3.54655 -2.33464 0
M  V30 12748 O 1220.06 -3.0119 -1.90166 0
M  V30 12749 O 1218.92 -4.48195 -3.12703 0
M  V30 12750 H 1216.02 -0.65727 -0.501921 0
M  V30 12751 H 1218.56 -1.66378 -0.33411 0
M  V30 12752 H 1217.33 -3.75716 -1.09332 0
M  V30 12753 H 1216.96 -2.98609 -2.62523 0
M  V30 12754 N 1217.95 0.594978 -1.45938 0
M  V30 12755 C 1219.18 1.37994 -1.5416 0
M  V30 12756 C 1219.6 1.87954 -0.17848 0
M  V30 12757 O 1218.95 1.62932 0.822161 0
M  V30 12758 C 1219.01 2.57586 -2.53637 0
M  V30 12759 O 1218.73 2.09698 -3.84653 0
M  V30 12760 C 1220.23 3.50292 -2.71681 0
M  V30 12761 H 1217.45 0.421983 -0.5217 0
M  V30 12762 H 1219.99 0.724459 -1.91238 0
M  V30 12763 H 1218.15 3.19149 -2.19597 0
M  V30 12764 H 1218.56 2.87492 -4.3869 0
M  V30 12765 H 1220.03 4.30717 -3.45234 0
M  V30 12766 H 1220.51 4.01444 -1.78156 0
M  V30 12767 H 1221.12 2.94573 -3.06768 0
M  V30 12768 N 1219.43 1.33438 0.838571 0
M  V30 12769 C 1220.38 1.23717 1.94841 0
M  V30 12770 C 1221.35 0.11573 1.65696 0
M  V30 12771 O 1222.53 0.294051 1.8852 0
M  V30 12772 C 1219.67 0.982626 3.30815 0
M  V30 12773 C 1218.79 2.19036 3.72354 0
M  V30 12774 C 1217.92 1.86995 4.97199 0
M  V30 12775 C 1216.96 3.03998 5.31274 0
M  V30 12776 N 1216.1 2.71943 6.47295 0
M  V30 12777 H 1220.94 2.18639 2.02487 0
M  V30 12778 H 1218.48 1.08721 0.990861 0
M  V30 12779 H 1220.43 0.81548 4.09152 0
M  V30 12780 H 1219.06 0.0701443 3.22724 0
M  V30 12781 H 1218.12 2.46724 2.89537 0
M  V30 12782 H 1219.43 3.06505 3.93518 0
M  V30 12783 H 1218.58 1.66925 5.83285 0
M  V30 12784 H 1217.32 0.967628 4.78004 0
M  V30 12785 H 1216.33 3.24681 4.43692 0
M  V30 12786 H 1217.55 3.94985 5.52416 0
M  V30 12787 H 1215.5 1.8427 6.29588 0
M  V30 12788 H 1215.41 3.52943 6.68556 0
M  V30 12789 H 1216.68 2.55342 7.36492 0
M  V30 12790 N 1220.91 -1.05686 1.16912 0
M  V30 12791 C 1222.14 -1.82018 0.977392 0
M  V30 12792 C 1222.55 -1.83072 -0.477636 0
M  V30 12793 O 1221.89 -1.25296 -1.34338 0
M  V30 12794 C 1221.95 -3.29592 1.4356 0
M  V30 12795 C 1221.62 -3.5223 2.91175 0
M  V30 12796 C 1222.61 -3.44767 3.89142 0
M  V30 12797 C 1220.3 -3.79353 3.29236 0
M  V30 12798 C 1222.29 -3.64104 5.2317 0
M  V30 12799 C 1219.98 -3.98339 4.63432 0
M  V30 12800 C 1220.98 -3.90713 5.60207 0
M  V30 12801 O 1220.67 -4.09175 6.91976 0
M  V30 12802 H 1220.4 -0.580578 0.346273 0
M  V30 12803 H 1222.95 -1.34199 1.55498 0
M  V30 12804 H 1221.18 -3.78302 0.80153 0
M  V30 12805 H 1222.87 -3.87435 1.21032 0
M  V30 12806 H 1223.64 -3.23796 3.61083 0
M  V30 12807 H 1219.52 -3.84395 2.54482 0
M  V30 12808 H 1223.06 -3.58068 5.98693 0
M  V30 12809 H 1218.96 -4.18801 4.91198 0
M  V30 12810 H 1219.73 -4.26429 6.98642 0
M  V30 12811 N 1222.39 -0.968567 -1.24324 0
M  V30 12812 C 1223.34 -0.498817 -2.25345 0
M  V30 12813 C 1224.31 0.456082 -1.59716 0
M  V30 12814 O 1225.49 0.366254 -1.87252 0
M  V30 12815 C 1222.63 0.204027 -3.44496 0
M  V30 12816 C 1221.74 -0.789741 -4.2472 0
M  V30 12817 C 1220.88 -0.0629156 -5.31163 0
M  V30 12818 C 1219.92 -1.04669 -6.03084 0
M  V30 12819 N 1219.05 -0.349812 -7.01228 0
M  V30 12820 H 1223.89 -1.36511 -2.64894 0
M  V30 12821 H 1221.43 -0.684288 -1.30215 0
M  V30 12822 H 1223.39 0.628223 -4.12443 0
M  V30 12823 H 1222.02 1.03426 -3.05782 0
M  V30 12824 H 1221.07 -1.33237 -3.56303 0
M  V30 12825 H 1222.38 -1.53988 -4.74436 0
M  V30 12826 H 1221.54 0.419233 -6.0525 0
M  V30 12827 H 1220.28 0.719915 -4.82357 0
M  V30 12828 H 1219.28 -1.53971 -5.278 0
M  V30 12829 H 1220.51 -1.82998 -6.53979 0
M  V30 12830 H 1218.45 0.414026 -6.54692 0
M  V30 12831 H 1218.37 -1.03881 -7.48829 0
M  V30 12832 H 1219.64 0.11034 -7.79422 0
M  V30 12833 N 1223.87 1.39211 -0.738786 0
M  V30 12834 C 1224.78 2.34374 -0.102958 0
M  V30 12835 C 1225.79 1.58514 0.717596 0
M  V30 12836 O 1226.97 1.90786 0.645186 0
M  V30 12837 C 1224.03 3.37562 0.790733 0
M  V30 12838 C 1223.09 4.29279 -0.0425028 0
M  V30 12839 C 1222.33 5.27539 0.808628 0
M  V30 12840 O 1222.55 5.32396 2.04722 0
M  V30 12841 O 1221.48 6.0144 0.235279 0
M  V30 12842 H 1225.31 2.90412 -0.888498 0
M  V30 12843 H 1222.9 1.40803 -0.499498 0
M  V30 12844 H 1224.78 4.00783 1.30196 0
M  V30 12845 H 1223.45 2.83903 1.55502 0
M  V30 12846 H 1222.36 3.69268 -0.599335 0
M  V30 12847 H 1223.69 4.86154 -0.7691 0
M  V30 12848 N 1225.34 0.486708 1.49896 0
M  V30 12849 C 1226.57 -0.0599944 2.06513 0
M  V30 12850 C 1226.98 -1.32662 1.34898 0
M  V30 12851 O 1226.33 -1.78915 0.416565 0
M  V30 12852 C 1226.39 -0.39838 3.57286 0
M  V30 12853 C 1226.05 0.768465 4.50493 0
M  V30 12854 C 1227.05 1.65495 4.92856 0
M  V30 12855 C 1224.73 0.96322 4.92978 0
M  V30 12856 C 1226.73 2.72046 5.76429 0
M  V30 12857 C 1224.41 2.03193 5.7633 0
M  V30 12858 C 1225.41 2.9089 6.17958 0
M  V30 12859 O 1225.1 3.95919 6.99645 0
M  V30 12860 H 1224.83 0.0107865 0.675914 0
M  V30 12861 H 1227.39 0.679087 1.93849 0
M  V30 12862 H 1225.62 -1.19086 3.67907 0
M  V30 12863 H 1227.31 -0.882003 3.96201 0
M  V30 12864 H 1228.07 1.51624 4.6069 0
M  V30 12865 H 1223.95 0.29004 4.60087 0
M  V30 12866 H 1227.49 3.40526 6.08841 0
M  V30 12867 H 1223.39 2.17064 6.07909 0
M  V30 12868 H 1224.16 3.93097 7.17925 0
M  V30 12869 N 1226.82 -1.56058 0.219941 0
M  V30 12870 C 1227.76 -2.17494 -0.723133 0
M  V30 12871 C 1228.77 -1.14356 -1.15873 0
M  V30 12872 O 1229.96 -1.41343 -1.09016 0
M  V30 12873 C 1227.06 -2.74242 -1.99109 0
M  V30 12874 C 1226.23 -4.02533 -1.71132 0
M  V30 12875 C 1225.29 -4.43862 -2.82618 0
M  V30 12876 O 1224.32 -5.10792 -2.51157 0
M  V30 12877 N 1225.52 -4.09412 -4.11537 0
M  V30 12878 H 1228.28 -2.99048 -0.197619 0
M  V30 12879 H 1225.84 -1.61853 0.0388738 0
M  V30 12880 H 1227.84 -2.98862 -2.7288 0
M  V30 12881 H 1226.41 -1.97 -2.42713 0
M  V30 12882 H 1225.63 -3.85786 -0.810128 0
M  V30 12883 H 1226.91 -4.86227 -1.49868 0
M  V30 12884 H 1226.31 -3.55624 -4.39941 0
M  V30 12885 H 1224.87 -4.38928 -4.81857 0
M  V30 12886 N 1228.3 0.053464 -1.57509 0
M  V30 12887 C 1229.23 1.08863 -2.01696 0
M  V30 12888 C 1230.25 1.33916 -0.925765 0
M  V30 12889 O 1231.44 1.31833 -1.20343 0
M  V30 12890 C 1228.54 2.43567 -2.35644 0
M  V30 12891 C 1227.71 2.38215 -3.66841 0
M  V30 12892 C 1226.77 3.55172 -3.88252 0
M  V30 12893 O 1225.79 3.35769 -4.59617 0
M  V30 12894 N 1227 4.76182 -3.3201 0
M  V30 12895 H 1229.76 0.712192 -2.91115 0
M  V30 12896 H 1227.32 0.241829 -1.60084 0
M  V30 12897 H 1229.31 3.20486 -2.47125 0
M  V30 12898 H 1227.88 2.73145 -1.52022 0
M  V30 12899 H 1227.1 1.46557 -3.65943 0
M  V30 12900 H 1228.39 2.31757 -4.52953 0
M  V30 12901 H 1227.79 4.94849 -2.74118 0
M  V30 12902 H 1226.35 5.5055 -3.4891 0
M  V30 12903 N 1229.78 1.54207 0.325255 0
M  V30 12904 C 1231.03 1.72587 1.06497 0
M  V30 12905 C 1231.36 0.497228 1.87727 0
M  V30 12906 O 1230.63 -0.505804 1.87808 0
M  V30 12907 C 1230.92 3.00046 1.99109 0
M  V30 12908 C 1230.77 4.33158 1.21221 0
M  V30 12909 C 1232.09 3.23251 2.98658 0
M  V30 12910 H 1229.21 0.627974 0.38577 0
M  V30 12911 H 1231.85 1.869 0.34179 0
M  V30 12912 H 1230 2.87973 2.60775 0
M  V30 12913 H 1231.67 4.57111 0.620289 0
M  V30 12914 H 1229.91 4.30739 0.514462 0
M  V30 12915 H 1230.59 5.18558 1.89214 0
M  V30 12916 H 1233.06 3.34774 2.47114 0
M  V30 12917 H 1231.94 4.13796 3.60645 0
M  V30 12918 H 1232.2 2.40401 3.71026 0
M  V30 12919 N 1231.26 -0.58723 1.46251 0
M  V30 12920 C 1232.51 -1.34294 1.51028 0
M  V30 12921 C 1232.83 -1.94329 0.161623 0
M  V30 12922 O 1232.1 -1.78309 -0.811342 0
M  V30 12923 H 1230.68 -0.498607 0.556238 0
M  V30 12924 H 1233.34 -0.688074 1.8235 0
M  V30 12925 H 1232.43 -2.15197 2.26045 0
M  V30 12926 N 1232.74 -1.33881 -0.831482 0
M  V30 12927 C 1233.98 -1.251 -1.58218 0
M  V30 12928 C 1234.3 0.17963 -1.94773 0
M  V30 12929 O 1235.5 0.389516 -2.68691 0
M  V30 12930 C 1233.96 -2.19246 -2.8541 0
M  V30 12931 C 1233.57 -3.6752 -2.5619 0
M  V30 12932 C 1235.31 -2.19355 -3.63433 0
M  V30 12933 C 1233.22 -4.53559 -3.79523 0
M  V30 12934 H 1232.15 -0.46469 -0.593784 0
M  V30 12935 H 1234.8 -1.58992 -0.916169 0
M  V30 12936 H 1233.18 -1.78295 -3.53591 0
M  V30 12937 H 1234.36 -4.16956 -1.96173 0
M  V30 12938 H 1232.67 -3.69774 -1.91458 0
M  V30 12939 H 1235.27 -2.80863 -4.54995 0
M  V30 12940 H 1235.61 -1.19056 -3.98913 0
M  V30 12941 H 1236.14 -2.58706 -3.02185 0
M  V30 12942 H 1232.88 -5.54762 -3.4917 0
M  V30 12943 H 1232.4 -4.08862 -4.38853 0
M  V30 12944 H 1234.08 -4.67736 -4.47025 0
M  V30 12945 N 1234.21 1.05064 -1.1747 0
M  V30 12946 C 1235.14 2.14786 -0.915936 0
M  V30 12947 C 1236.12 1.69502 0.142561 0
M  V30 12948 O 1237.31 1.94198 -0.00794522 0
M  V30 12949 C 1234.44 3.44629 -0.429864 0
M  V30 12950 C 1233.39 4.03486 -1.42769 0
M  V30 12951 C 1232.72 5.28689 -0.799528 0
M  V30 12952 C 1234.02 4.40823 -2.80129 0
M  V30 12953 H 1235.71 2.3669 -1.83352 0
M  V30 12954 H 1233.26 1.13751 -0.882992 0
M  V30 12955 H 1235.21 4.20737 -0.236245 0
M  V30 12956 H 1233.94 3.22381 0.523263 0
M  V30 12957 H 1232.6 3.29449 -1.60808 0
M  V30 12958 H 1232.24 5.02744 0.160474 0
M  V30 12959 H 1231.94 5.69028 -1.46565 0
M  V30 12960 H 1233.47 6.07483 -0.616212 0
M  V30 12961 H 1234.88 5.07959 -2.65801 0
M  V30 12962 H 1233.28 4.92183 -3.43331 0
M  V30 12963 H 1234.35 3.51108 -3.34441 0
M  V30 12964 N 1235.69 0.975146 1.23809 0
M  V30 12965 C 1236.64 0.482305 2.2284 0
M  V30 12966 C 1237.63 -0.439787 1.54773 0
M  V30 12967 O 1238.82 -0.269496 1.74936 0
M  V30 12968 C 1235.95 -0.219056 3.426 0
M  V30 12969 C 1235.03 0.722299 4.17904 0
M  V30 12970 N 1235.42 1.86271 4.70252 0
M  V30 12971 C 1233.72 0.53457 4.42785 0
M  V30 12972 C 1234.42 2.45212 5.2749 0
M  V30 12973 N 1233.4 1.73652 5.15117 0
M  V30 12974 H 1237.2 1.35234 2.60939 0
M  V30 12975 H 1234.71 0.835162 1.3928 0
M  V30 12976 H 1236.71 -0.589401 4.12713 0
M  V30 12977 H 1235.37 -1.08544 3.0602 0
M  V30 12978 H 1236.38 2.24404 4.66758 0
M  V30 12979 H 1233.06 -0.287232 4.16511 0
M  V30 12980 H 1234.45 3.41491 5.78648 0
M  V30 12981 N 1237.17 -1.38817 0.746158 0
M  V30 12982 C 1238.1 -2.29081 0.0737986 0
M  V30 12983 C 1239.11 -1.47377 -0.691656 0
M  V30 12984 O 1240.3 -1.70326 -0.533973 0
M  V30 12985 C 1237.4 -3.26185 -0.919607 0
M  V30 12986 C 1236.58 -4.36879 -0.213349 0
M  V30 12987 C 1235.64 -5.1422 -1.11644 0
M  V30 12988 O 1234.66 -5.66137 -0.589747 0
M  V30 12989 N 1235.86 -5.26488 -2.44521 0
M  V30 12990 H 1238.63 -2.87424 0.848966 0
M  V30 12991 H 1236.19 -1.50518 0.596314 0
M  V30 12992 H 1238.18 -3.74802 -1.52662 0
M  V30 12993 H 1236.75 -2.68793 -1.5959 0
M  V30 12994 H 1235.97 -3.89994 0.574285 0
M  V30 12995 H 1237.26 -5.08053 0.275655 0
M  V30 12996 H 1236.66 -4.85846 -2.89777 0
M  V30 12997 H 1235.21 -5.78505 -3.00291 0
M  V30 12998 N 1238.65 -0.49465 -1.49636 0
M  V30 12999 C 1239.6 0.306278 -2.25933 0
M  V30 13000 C 1240.58 0.941082 -1.30508 0
M  V30 13001 O 1241.77 0.849732 -1.55269 0
M  V30 13002 C 1238.9 1.3739 -3.14609 0
M  V30 13003 C 1237.99 0.745657 -4.17493 0
M  V30 13004 N 1238.38 -0.147977 -5.05583 0
M  V30 13005 C 1236.68 1.00696 -4.34484 0
M  V30 13006 C 1237.38 -0.506949 -5.79487 0
M  V30 13007 N 1236.35 0.123603 -5.43459 0
M  V30 13008 H 1240.16 -0.381753 -2.9141 0
M  V30 13009 H 1237.67 -0.310311 -1.59408 0
M  V30 13010 H 1239.67 1.96108 -3.67896 0
M  V30 13011 H 1238.33 2.06368 -2.50684 0
M  V30 13012 H 1239.34 -0.518378 -5.15299 0
M  V30 13013 H 1236.02 1.68996 -3.81768 0
M  V30 13014 H 1237.41 -1.23766 -6.60403 0
M  V30 13015 N 1240.13 1.55939 -0.228214 0
M  V30 13016 C 1241.07 2.21957 0.69556 0
M  V30 13017 C 1242.07 1.20109 1.19458 0
M  V30 13018 O 1243.27 1.38171 1.15364 0
M  V30 13019 H 1239.65 0.711744 0.242744 0
M  V30 13020 H 1241.62 2.98177 0.115403 0
M  V30 13021 C 1240.37 2.91847 1.88999 0
M  V30 13022 H 1239.69 3.69978 1.51512 0
M  V30 13023 H 1241.13 3.4143 2.51399 0
M  V30 13024 C 1239.59 1.94683 2.74954 0
M  V30 13025 O 1240.12 1.468 3.73915 0
M  V30 13026 N 1238.33 1.62188 2.41129 0
M  V30 13027 H 1237.87 2.01322 1.60709 0
M  V30 13028 H 1237.83 0.9744 2.98919 0
M  V30 13029 N 1241.6 -0.0451101 1.57535 0
M  V30 13030 C 1242.55 -1.0692 2.06569 0
M  V30 13031 C 1243.55 -1.38443 0.976218 0
M  V30 13032 O 1244.75 -1.37536 1.1612 0
M  V30 13033 H 1241.13 -0.36226 0.658993 0
M  V30 13034 H 1243.1 -0.629709 2.9168 0
M  V30 13035 C 1241.85 -2.36656 2.54733 0
M  V30 13036 H 1241.17 -2.13257 3.38174 0
M  V30 13037 H 1242.61 -3.06696 2.92769 0
M  V30 13038 C 1241.07 -3.04499 1.4416 0
M  V30 13039 O 1241.6 -3.93679 0.798721 0
M  V30 13040 N 1239.81 -2.6556 1.18009 0
M  V30 13041 H 1239.35 -1.93126 1.7047 0
M  V30 13042 H 1239.31 -3.11272 0.442363 0
M  V30 13043 N 1243.08 -1.54377 -0.317073 0
M  V30 13044 C 1244.31 -1.77184 -1.07798 0
M  V30 13045 C 1244.73 -0.52204 -1.80711 0
M  V30 13046 O 1244.09 0.52672 -1.7348 0
M  V30 13047 C 1244.14 -2.96887 -2.04671 0
M  V30 13048 O 1243.24 -2.68887 -3.12688 0
M  V30 13049 H 1242.58 -0.586937 -0.310485 0
M  V30 13050 H 1245.11 -2.01419 -0.35939 0
M  V30 13051 H 1245.12 -3.24414 -2.47426 0
M  V30 13052 H 1243.8 -3.87518 -1.51005 0
M  V30 13053 H 1242.38 -2.52329 -2.74562 0
M  V30 13054 N 1244.56 0.579466 -1.4656 0
M  V30 13055 C 1245.81 1.33492 -1.51738 0
M  V30 13056 C 1246.13 1.94241 -0.171926 0
M  V30 13057 O 1245.4 1.78737 0.801875 0
M  V30 13058 H 1243.98 0.49565 -0.558874 0
M  V30 13059 H 1246.64 0.678394 -1.82712 0
M  V30 13060 H 1245.74 2.13995 -2.27183 0
M  V30 13061 N 1246.04 1.3432 0.824371 0
M  V30 13062 C 1247.29 1.26595 1.5805 0
M  V30 13063 C 1247.61 -0.164471 1.93803 0
M  V30 13064 O 1246.87 -1.12537 1.60106 0
M  V30 13065 C 1247.17 2.1008 2.89139 0
M  V30 13066 C 1246.83 3.59102 2.72684 0
M  V30 13067 C 1245.5 3.99726 2.67904 0
M  V30 13068 C 1247.85 4.53736 2.56463 0
M  V30 13069 C 1245.18 5.33178 2.44822 0
M  V30 13070 C 1247.53 5.87366 2.34913 0
M  V30 13071 C 1246.19 6.27155 2.28544 0
M  V30 13072 H 1245.46 0.463245 0.578347 0
M  V30 13073 H 1248.11 1.66048 0.953948 0
M  V30 13074 H 1246.41 1.6345 3.56078 0
M  V30 13075 H 1248.11 2.01451 3.46726 0
M  V30 13076 H 1244.7 3.26855 2.77244 0
M  V30 13077 H 1248.88 4.23248 2.5918 0
M  V30 13078 H 1244.14 5.63028 2.38348 0
M  V30 13079 H 1248.31 6.60286 2.21349 0
M  V30 13080 H 1245.94 7.30498 2.1042 0
M  V30 13081 N 1247.52 -1.0444 1.18026 0
M  V30 13082 C 1248.76 -1.77838 0.974756 0
M  V30 13083 C 1249.1 -1.87792 -0.494755 0
M  V30 13084 O 1248.37 -1.38327 -1.36733 0
M  V30 13085 C 1248.65 -3.21315 1.62569 0
M  V30 13086 C 1248.51 -3.19327 3.16781 0
M  V30 13087 C 1249.83 -4.19337 1.33583 0
M  V30 13088 H 1246.94 -0.645575 0.35553 0
M  V30 13089 H 1249.59 -1.22023 1.45638 0
M  V30 13090 H 1247.74 -3.68974 1.21617 0
M  V30 13091 H 1249.41 -2.79687 3.66842 0
M  V30 13092 H 1247.65 -2.57461 3.49137 0
M  V30 13093 H 1248.32 -4.20626 3.5746 0
M  V30 13094 H 1250.8 -3.80208 1.69059 0
M  V30 13095 H 1249.67 -5.17953 1.81702 0
M  V30 13096 H 1249.94 -4.41346 0.258016 0
M  V30 13097 N 1248.99 -0.981699 -1.2329 0
M  V30 13098 C 1250.24 -0.650015 -1.91361 0
M  V30 13099 C 1250.56 0.819184 -1.76959 0
M  V30 13100 O 1249.83 1.5861 -1.14977 0
M  V30 13101 H 1248.41 -0.237427 -0.708264 0
M  V30 13102 H 1251.08 -1.24579 -1.49887 0
M  V30 13103 H 1250.17 -0.902772 -2.98758 0
M  V30 13104 N 1250.47 1.3842 -0.753509 0
M  V30 13105 C 1251.7 2.04107 -0.319985 0
M  V30 13106 C 1252.11 1.56951 1.05655 0
M  V30 13107 O 1251.45 0.737807 1.68232 0
M  V30 13108 C 1251.52 3.58529 -0.26402 0
M  V30 13109 C 1251.18 4.28741 -1.58209 0
M  V30 13110 C 1252.18 4.54118 -2.53126 0
M  V30 13111 C 1249.86 4.66931 -1.8515 0
M  V30 13112 C 1251.86 5.16719 -3.73203 0
M  V30 13113 C 1249.54 5.29256 -3.05502 0
M  V30 13114 C 1250.54 5.54085 -3.99348 0
M  V30 13115 O 1250.23 6.15112 -5.17584 0
M  V30 13116 H 1249.96 0.662457 -0.134636 0
M  V30 13117 H 1252.51 1.78096 -1.02328 0
M  V30 13118 H 1250.74 3.83512 0.495516 0
M  V30 13119 H 1252.43 4.05659 0.139979 0
M  V30 13120 H 1253.2 4.25043 -2.33588 0
M  V30 13121 H 1249.08 4.46952 -1.12939 0
M  V30 13122 H 1252.62 5.36014 -4.46469 0
M  V30 13123 H 1248.52 5.57754 -3.24932 0
M  V30 13124 H 1249.29 6.33599 -5.18164 0
M  V30 13125 N 1251.95 0.502579 1.49372 0
M  V30 13126 C 1252.88 -0.264307 2.31999 0
M  V30 13127 C 1253.86 -0.96107 1.40348 0
M  V30 13128 O 1255.05 -0.952167 1.69255 0
M  V30 13129 C 1252.18 -1.32822 3.20898 0
M  V30 13130 C 1251.13 -0.751236 4.21355 0
M  V30 13131 C 1250.46 -1.91578 4.99201 0
M  V30 13132 C 1251.76 0.258764 5.21659 0
M  V30 13133 H 1253.45 0.425391 2.96363 0
M  V30 13134 H 1251 0.206022 1.42519 0
M  V30 13135 H 1252.95 -1.87245 3.77515 0
M  V30 13136 H 1251.67 -2.04712 2.54481 0
M  V30 13137 H 1250.33 -0.228743 3.65886 0
M  V30 13138 H 1249.98 -2.62241 4.2923 0
M  V30 13139 H 1249.68 -1.53578 5.67175 0
M  V30 13140 H 1251.2 -2.46432 5.58663 0
M  V30 13141 H 1252.62 -0.197385 5.7296 0
M  V30 13142 H 1251.02 0.554681 5.97531 0
M  V30 13143 H 1252.09 1.1741 4.70471 0
M  V30 13144 N 1253.43 -1.55816 0.23648 0
M  V30 13145 C 1254.39 -2.1967 -0.654041 0
M  V30 13146 C 1255.39 -1.1629 -1.11056 0
M  V30 13147 O 1256.58 -1.41435 -1.01695 0
M  V30 13148 C 1253.71 -2.83196 -1.89771 0
M  V30 13149 H 1254.91 -2.99743 -0.0970911 0
M  V30 13150 H 1252.46 -1.56295 -0.013098 0
M  V30 13151 H 1253.19 -2.07033 -2.49616 0
M  V30 13152 H 1252.98 -3.58915 -1.57868 0
M  V30 13153 H 1254.47 -3.32095 -2.53184 0
M  V30 13154 N 1254.91 0.036755 -1.57557 0
M  V30 13155 C 1256.32 0.584324 -1.7732 0
M  V30 13156 C 1256.67 1.76025 -0.86658 0
M  V30 13157 O 1255.79 2.16318 -0.059443 0
M  V30 13158 C 1256.39 1.06679 -3.21566 0
M  V30 13159 C 1254.95 1.55994 -3.42553 0
M  V30 13160 C 1254.09 0.494604 -2.72853 0
M  V30 13161 H 1257.05 -0.189473 -1.57565 0
M  V30 13162 H 1257.07 1.93446 -3.27657 0
M  V30 13163 H 1256.58 0.210727 -3.87527 0
M  V30 13164 H 1254.68 2.43811 -2.81757 0
M  V30 13165 H 1254.79 1.61274 -4.5114 0
M  V30 13166 H 1253.16 0.947865 -2.36406 0
M  V30 13167 H 1253.94 -0.351868 -3.41492 0
M  V30 13168 N 1256.39 1.54543 0.308881 0
M  V30 13169 C 1257.61 1.77431 1.06422 0
M  V30 13170 C 1258.03 0.529972 1.81209 0
M  V30 13171 O 1257.39 -0.499912 1.7552 0
M  V30 13172 C 1257.44 2.9769 2.05092 0
M  V30 13173 O 1257.16 4.17315 1.33341 0
M  V30 13174 C 1258.66 3.32905 2.92727 0
M  V30 13175 H 1255.88 0.591961 0.315948 0
M  V30 13176 H 1258.42 2.01473 0.350547 0
M  V30 13177 H 1256.58 2.7588 2.71973 0
M  V30 13178 H 1256.99 4.85061 1.99539 0
M  V30 13179 H 1258.47 4.20314 3.57827 0
M  V30 13180 H 1258.94 2.50713 3.6061 0
M  V30 13181 H 1259.55 3.56847 2.31388 0
M  V30 13182 N 1257.86 -0.571685 1.46866 0
M  V30 13183 C 1258.8 -1.69502 1.52788 0
M  V30 13184 C 1259.77 -1.58071 0.381109 0
M  V30 13185 O 1260.96 -1.79132 0.586844 0
M  V30 13186 C 1258.09 -3.07642 1.41682 0
M  V30 13187 C 1257.13 -3.37562 2.6068 0
M  V30 13188 S 1257.96 -3.28413 4.22971 0
M  V30 13189 C 1259.12 -4.69073 4.14393 0
M  V30 13190 H 1259.35 -1.64221 2.47828 0
M  V30 13191 H 1256.89 -0.751334 1.34886 0
M  V30 13192 H 1258.84 -3.8733 1.35962 0
M  V30 13193 H 1257.51 -3.10403 0.480517 0
M  V30 13194 H 1256.7 -4.38233 2.48933 0
M  V30 13195 H 1256.3 -2.65464 2.63448 0
M  V30 13196 H 1258.59 -5.59706 3.81754 0
M  V30 13197 H 1259.54 -4.85877 5.15101 0
M  V30 13198 H 1259.94 -4.4644 3.45473 0
M  V30 13199 N 1259.34 -1.34755 -0.817236 0
M  V30 13200 C 1260.76 -1.14561 -1.11121 0
M  V30 13201 C 1260.96 0.0490776 -2.0144 0
M  V30 13202 O 1260.01 0.722897 -2.41931 0
M  V30 13203 C 1261.33 -2.44356 -1.75244 0
M  V30 13204 C 1262.87 -2.50465 -1.87713 0
M  V30 13205 C 1263.35 -3.80276 -2.55253 0
M  V30 13206 N 1264.84 -3.81468 -2.62747 0
M  V30 13207 C 1265.58 -4.78634 -3.15749 0
M  V30 13208 N 1265.07 -5.86184 -3.6927 0
M  V30 13209 N 1266.86 -4.66083 -3.14203 0
M  V30 13210 H 1259.02 -2.11293 -0.2166 0
M  V30 13211 H 1261.28 -0.934629 -0.158661 0
M  V30 13212 H 1260.98 -3.31899 -1.16344 0
M  V30 13213 H 1260.86 -2.58117 -2.75055 0
M  V30 13214 H 1263.25 -1.63358 -2.45761 0
M  V30 13215 H 1263.33 -2.40627 -0.867887 0
M  V30 13216 H 1262.97 -4.67776 -1.97858 0
M  V30 13217 H 1262.9 -3.87399 -3.56693 0
M  V30 13218 H 1265.39 -3.03753 -2.24817 0
M  V30 13219 H 1265.7 -6.56332 -4.0798 0
M  V30 13220 H 1264.05 -5.8989 -3.67498 0
M  V30 13221 H 1267.24 -3.81206 -2.7166 0
M  V30 13222 H 1267.41 -5.41973 -3.55203 0
M  V30 13223 N 1260.82 1.03812 -1.18578 0
M  V30 13224 C 1261.73 2.15371 -0.930182 0
M  V30 13225 C 1262.75 1.73673 0.106599 0
M  V30 13226 O 1263.92 2.01257 -0.0759054 0
M  V30 13227 C 1260.99 3.43606 -0.462151 0
M  V30 13228 C 1260.05 3.99671 -1.5672 0
M  V30 13229 C 1259.28 5.21785 -1.12141 0
M  V30 13230 O 1259.5 5.70397 0.0188357 0
M  V30 13231 O 1258.44 5.70449 -1.9202 0
M  V30 13232 H 1262.26 2.39791 -1.86371 0
M  V30 13233 H 1259.85 1.13814 -0.967819 0
M  V30 13234 H 1261.73 4.2088 -0.20934 0
M  V30 13235 H 1260.41 3.20654 0.443052 0
M  V30 13236 H 1259.31 3.23774 -1.87406 0
M  V30 13237 H 1260.65 4.2697 -2.44862 0
M  V30 13238 N 1262.3 0.988223 1.22768 0
M  V30 13239 C 1263.55 0.660154 1.91014 0
M  V30 13240 C 1263.87 -0.809788 1.77391 0
M  V30 13241 O 1263.14 -1.57998 1.15817 0
M  V30 13242 H 1261.72 0.24118 0.706995 0
M  V30 13243 H 1264.38 1.25372 1.49224 0
M  V30 13244 H 1263.47 0.918603 2.98275 0
M  V30 13245 N 1263.78 -1.38018 0.760839 0
M  V30 13246 C 1264.71 -2.2899 0.0980916 0
M  V30 13247 C 1265.72 -1.48102 -0.675985 0
M  V30 13248 O 1266.91 -1.70883 -0.515878 0
M  V30 13249 C 1264.01 -3.27142 -0.884959 0
M  V30 13250 C 1263.18 -4.37081 -0.167 0
M  V30 13251 C 1262.24 -5.15375 -1.06184 0
M  V30 13252 O 1261.27 -5.6673 -0.529667 0
M  V30 13253 N 1262.47 -5.29052 -2.38924 0
M  V30 13254 H 1265.23 -2.86508 0.879403 0
M  V30 13255 H 1262.8 -1.49877 0.612245 0
M  V30 13256 H 1264.79 -3.764 -1.48678 0
M  V30 13257 H 1263.36 -2.70471 -1.5673 0
M  V30 13258 H 1262.58 -3.89363 0.615617 0
M  V30 13259 H 1263.87 -5.07732 0.329525 0
M  V30 13260 H 1263.26 -4.88892 -2.84607 0
M  V30 13261 H 1261.82 -5.81658 -2.94139 0
M  V30 13262 N 1265.25 -0.510493 -1.49103 0
M  V30 13263 C 1266.22 0.251915 -2.27811 0
M  V30 13264 C 1267.22 0.885432 -1.34226 0
M  V30 13265 O 1268.41 0.748494 -1.573 0
M  V30 13266 C 1265.54 1.3624 -3.12492 0
M  V30 13267 H 1266.73 -0.438872 -2.96671 0
M  V30 13268 H 1264.28 -0.265767 -1.54024 0
M  V30 13269 H 1265.02 2.08705 -2.48219 0
M  V30 13270 H 1264.8 0.913485 -3.81311 0
M  V30 13271 H 1266.29 1.89919 -3.71915 0
M  V30 13272 N 1266.73 1.55688 -0.24474 0
M  V30 13273 C 1267.96 2.02995 0.38425 0
M  V30 13274 C 1268.37 1.12339 1.52239 0
M  V30 13275 O 1267.71 0.129803 1.83241 0
M  V30 13276 C 1267.77 3.46564 0.955701 0
M  V30 13277 C 1267.44 4.56973 -0.0499176 0
M  V30 13278 C 1268.44 5.1276 -0.858682 0
M  V30 13279 C 1266.12 5.01994 -0.175383 0
M  V30 13280 C 1268.11 6.12059 -1.77939 0
M  V30 13281 C 1265.8 6.01126 -1.0996 0
M  V30 13282 C 1266.8 6.56037 -1.90013 0
M  V30 13283 O 1266.49 7.53235 -2.80877 0
M  V30 13284 H 1266.22 0.669189 0.0957212 0
M  V30 13285 H 1268.77 2.02121 -0.36555 0
M  V30 13286 H 1267 3.44581 1.75502 0
M  V30 13287 H 1268.69 3.77383 1.49454 0
M  V30 13288 H 1269.46 4.78811 -0.772325 0
M  V30 13289 H 1265.34 4.58918 0.437644 0
M  V30 13290 H 1268.88 6.54845 -2.40465 0
M  V30 13291 H 1264.78 6.34494 -1.18689 0
M  V30 13292 H 1265.55 7.70844 -2.75214 0
M  V30 13293 N 1268.21 -0.0283989 1.57574 0
M  V30 13294 C 1269.62 -0.574912 1.77628 0
M  V30 13295 C 1269.97 -1.75563 0.875903 0
M  V30 13296 O 1269.1 -2.16284 0.0709141 0
M  V30 13297 C 1269.69 -1.04972 3.22128 0
M  V30 13298 C 1268.25 -1.54175 3.43376 0
M  V30 13299 C 1267.4 -0.480127 2.73112 0
M  V30 13300 H 1270.35 0.197826 1.57462 0
M  V30 13301 H 1270.37 -1.91705 3.28678 0
M  V30 13302 H 1269.88 -0.190173 3.87634 0
M  V30 13303 H 1267.98 -2.42313 2.83046 0
M  V30 13304 H 1268.1 -1.58879 4.51989 0
M  V30 13305 H 1266.46 -0.935314 2.36905 0
M  V30 13306 H 1267.24 0.369973 3.41301 0
M  V30 13307 N 1269.69 -1.54705 -0.300681 0
M  V30 13308 C 1270.65 -1.84934 -1.35395 0
M  V30 13309 C 1271.65 -0.72226 -1.43666 0
M  V30 13310 O 1272.84 -0.990543 -1.43296 0
M  V30 13311 C 1269.97 -2.02991 -2.73875 0
M  V30 13312 H 1271.17 -2.79063 -1.09835 0
M  V30 13313 H 1268.72 -1.46772 -0.537365 0
M  V30 13314 H 1269.45 -1.11151 -3.04657 0
M  V30 13315 H 1269.24 -2.85027 -2.69262 0
M  V30 13316 H 1270.73 -2.27747 -3.5003 0
M  V30 13317 N 1271.17 0.563888 -1.47167 0
M  V30 13318 C 1272.11 1.69254 -1.59549 0
M  V30 13319 C 1273.11 1.62948 -0.463078 0
M  V30 13320 O 1274.31 1.68214 -0.640639 0
M  V30 13321 H 1270.69 0.559925 -0.501984 0
M  V30 13322 H 1272.66 1.55946 -2.54408 0
M  V30 13323 C 1271.41 3.0762 -1.62066 0
M  V30 13324 H 1270.73 3.13151 -2.48549 0
M  V30 13325 H 1272.17 3.863 -1.74781 0
M  V30 13326 C 1270.63 3.35048 -0.352721 0
M  V30 13327 O 1271.16 3.9793 0.549053 0
M  V30 13328 N 1269.37 2.8965 -0.234805 0
M  V30 13329 H 1268.91 2.38657 -0.969561 0
M  V30 13330 H 1268.87 3.08373 0.61263 0
M  V30 13331 N 1272.64 1.35187 0.810078 0
M  V30 13332 C 1273.89 1.28454 1.56931 0
M  V30 13333 C 1274.22 -0.141747 1.93682 0
M  V30 13334 O 1273.5 -1.09028 1.61069 0
M  V30 13335 C 1273.78 2.18771 2.86027 0
M  V30 13336 C 1273.63 3.69999 2.55774 0
M  V30 13337 C 1274.95 2.08265 3.87703 0
M  V30 13338 H 1272.07 0.467959 0.569371 0
M  V30 13339 H 1274.71 1.65556 0.932262 0
M  V30 13340 H 1272.86 1.8726 3.40391 0
M  V30 13341 H 1274.54 4.11936 2.07621 0
M  V30 13342 H 1272.78 3.90453 1.89021 0
M  V30 13343 H 1273.45 4.28577 3.47888 0
M  V30 13344 H 1275.93 2.35958 3.42729 0
M  V30 13345 H 1274.8 2.73663 4.75815 0
M  V30 13346 H 1275.06 1.06352 4.29117 0
M  V30 13347 N 1274.12 -1.03182 1.19127 0
M  V30 13348 C 1275.53 -1.57984 0.994888 0
M  V30 13349 C 1275.88 -1.90898 -0.453019 0
M  V30 13350 O 1275.01 -1.70556 -1.33191 0
M  V30 13351 C 1275.6 -2.8705 1.79966 0
M  V30 13352 C 1274.16 -3.38435 1.64737 0
M  V30 13353 C 1273.31 -2.11912 1.78854 0
M  V30 13354 H 1276.26 -0.857458 1.33542 0
M  V30 13355 H 1276.28 -3.57821 1.294 0
M  V30 13356 H 1275.79 -2.63062 2.85341 0
M  V30 13357 H 1273.9 -3.67416 0.619358 0
M  V30 13358 H 1274.01 -4.11665 2.45089 0
M  V30 13359 H 1272.37 -2.23642 1.21886 0
M  V30 13360 H 1273.16 -1.90369 2.85682 0
M  V30 13361 N 1275.6 -0.99472 -1.22242 0
M  V30 13362 C 1276.83 -0.689096 -1.94769 0
M  V30 13363 C 1277.24 0.750597 -1.73674 0
M  V30 13364 O 1276.58 1.51836 -1.03399 0
M  V30 13365 C 1276.64 -0.917454 -3.47596 0
M  V30 13366 C 1276.31 -2.34198 -3.92429 0
M  V30 13367 C 1277.3 -3.3216 -3.99957 0
M  V30 13368 C 1274.99 -2.6769 -4.25026 0
M  V30 13369 C 1276.98 -4.61686 -4.3946 0
M  V30 13370 C 1274.67 -3.97435 -4.64208 0
M  V30 13371 C 1275.67 -4.94244 -4.71394 0
M  V30 13372 O 1275.36 -6.2167 -5.09688 0
M  V30 13373 H 1275.09 -0.253914 -0.626501 0
M  V30 13374 H 1277.64 -1.33271 -1.56294 0
M  V30 13375 H 1275.87 -0.21666 -3.86093 0
M  V30 13376 H 1277.56 -0.6068 -4.01339 0
M  V30 13377 H 1278.33 -3.07619 -3.74961 0
M  V30 13378 H 1274.21 -1.93039 -4.18637 0
M  V30 13379 H 1277.75 -5.37248 -4.44983 0
M  V30 13380 H 1273.65 -4.21765 -4.88656 0
M  V30 13381 H 1274.42 -6.25634 -5.27755 0
M  V30 13382 N 1277.08 1.37613 -0.768148 0
M  V30 13383 C 1278.49 1.82437 -0.396703 0
M  V30 13384 C 1278.84 1.64019 1.07668 0
M  V30 13385 O 1277.97 1.14932 1.83356 0
M  V30 13386 C 1278.56 3.31207 -0.713265 0
M  V30 13387 C 1277.12 3.74323 -0.39492 0
M  V30 13388 C 1276.27 2.60191 -0.958962 0
M  V30 13389 H 1279.22 1.26135 -0.963099 0
M  V30 13390 H 1279.24 3.805 0.00337228 0
M  V30 13391 H 1278.75 3.4458 -1.78567 0
M  V30 13392 H 1276.85 3.66521 0.670313 0
M  V30 13393 H 1276.96 4.70558 -0.900653 0
M  V30 13394 H 1275.33 2.51797 -0.383423 0
M  V30 13395 H 1276.11 2.76358 -2.03669 0
M  V30 13396 N 1278.56 0.518393 1.4883 0
M  V30 13397 C 1279.49 -0.239685 2.32267 0
M  V30 13398 C 1280.47 -0.94613 1.41359 0
M  V30 13399 O 1281.65 -0.934162 1.70256 0
M  V30 13400 C 1278.78 -1.29411 3.22289 0
M  V30 13401 C 1277.74 -0.706504 4.22129 0
M  V30 13402 C 1277.06 -1.86273 5.01205 0
M  V30 13403 C 1278.36 0.314079 5.21355 0
M  V30 13404 H 1280.06 0.4568 2.95895 0
M  V30 13405 H 1277.6 0.221126 1.42292 0
M  V30 13406 H 1279.56 -1.8323 3.7948 0
M  V30 13407 H 1278.28 -2.02001 2.56638 0
M  V30 13408 H 1276.94 -0.189924 3.66108 0
M  V30 13409 H 1276.59 -2.57674 4.31988 0
M  V30 13410 H 1276.29 -1.47554 5.68772 0
M  V30 13411 H 1277.81 -2.40492 5.61245 0
M  V30 13412 H 1279.22 -0.136604 5.73137 0
M  V30 13413 H 1277.62 0.618026 5.96909 0
M  V30 13414 H 1278.69 1.22394 4.69199 0
M  V30 13415 N 1280.03 -1.55556 0.252993 0
M  V30 13416 C 1281.28 -1.98267 -0.370571 0
M  V30 13417 C 1281.6 -1.14449 -1.58622 0
M  V30 13418 O 1282.8 -1.472 -2.28132 0
M  V30 13419 C 1281.26 -3.52813 -0.710685 0
M  V30 13420 C 1280.87 -4.45379 0.483908 0
M  V30 13421 C 1282.61 -4.04165 -1.2981 0
M  V30 13422 C 1280.52 -5.91279 0.119611 0
M  V30 13423 H 1279.45 -0.740463 -0.142232 0
M  V30 13424 H 1282.1 -1.8005 0.354169 0
M  V30 13425 H 1280.48 -3.66748 -1.49372 0
M  V30 13426 H 1281.65 -4.43206 1.26116 0
M  V30 13427 H 1279.97 -4.04542 0.986664 0
M  V30 13428 H 1282.57 -5.10696 -1.5841 0
M  V30 13429 H 1282.91 -3.51875 -2.22462 0
M  V30 13430 H 1283.44 -3.93581 -0.577836 0
M  V30 13431 H 1280.18 -6.47619 1.01343 0
M  V30 13432 H 1279.7 -5.96573 -0.621318 0
M  V30 13433 H 1281.38 -6.46322 -0.296052 0
M  V30 13434 N 1281.51 0.0200419 -1.57587 0
M  V30 13435 C 1282.76 0.707627 -1.89307 0
M  V30 13436 C 1283.08 1.7541 -0.851831 0
M  V30 13437 O 1282.35 1.95571 0.113404 0
M  V30 13438 H 1280.93 0.264349 -0.698662 0
M  V30 13439 H 1283.59 -0.0161428 -1.94893 0
M  V30 13440 H 1282.69 1.19152 -2.8846 0
M  V30 13441 N 1282.99 1.54862 0.292472 0
M  V30 13442 C 1283.94 1.86403 1.36098 0
M  V30 13443 C 1284.91 0.713694 1.49985 0
M  V30 13444 O 1286.09 0.963134 1.64707 0
M  V30 13445 C 1283.23 2.1244 2.71962 0
M  V30 13446 C 1282.35 3.40038 2.66454 0
M  V30 13447 C 1281.48 3.55875 3.94368 0
M  V30 13448 C 1280.52 4.77235 3.83293 0
M  V30 13449 N 1279.66 4.89832 5.03 0
M  V30 13450 H 1284.5 2.77546 1.085 0
M  V30 13451 H 1282.03 1.37427 0.524607 0
M  V30 13452 H 1283.99 2.25533 3.50985 0
M  V30 13453 H 1282.62 1.24554 2.97802 0
M  V30 13454 H 1281.67 3.35521 1.79248 0
M  V30 13455 H 1282.99 4.29188 2.54163 0
M  V30 13456 H 1282.14 3.68679 4.8183 0
M  V30 13457 H 1280.88 2.64874 4.09503 0
M  V30 13458 H 1279.88 4.64455 2.94214 0
M  V30 13459 H 1281.11 5.69651 3.69695 0
M  V30 13460 H 1279.05 4.01756 5.18582 0
M  V30 13461 H 1278.97 5.72996 4.93165 0
M  V30 13462 H 1280.24 5.07001 5.92089 0
M  V30 13463 N 1284.47 -0.556076 1.47464 0
M  V30 13464 C 1285.7 -1.33858 1.57764 0
M  V30 13465 C 1286.11 -1.87415 0.22825 0
M  V30 13466 O 1285.47 -1.65054 -0.778674 0
M  V30 13467 C 1285.52 -2.5077 2.60378 0
M  V30 13468 O 1285.24 -1.99426 3.90078 0
M  V30 13469 C 1286.74 -3.42965 2.80873 0
M  V30 13470 H 1283.96 -0.408003 0.532705 0
M  V30 13471 H 1286.51 -0.673501 1.93091 0
M  V30 13472 H 1284.66 -3.13214 2.27982 0
M  V30 13473 H 1285.07 -2.75759 4.46158 0
M  V30 13474 H 1286.55 -4.21412 3.56533 0
M  V30 13475 H 1287.03 -3.96579 1.88737 0
M  V30 13476 H 1287.63 -2.86336 3.14471 0
M  V30 13477 N 1285.95 -1.35615 -0.802897 0
M  V30 13478 C 1286.91 -1.28705 -1.89651 0
M  V30 13479 C 1287.91 -0.197681 -1.5958 0
M  V30 13480 O 1289.1 -0.451618 -1.68244 0
M  V30 13481 C 1286.23 -0.991941 -3.26149 0
M  V30 13482 H 1287.43 -2.25951 -1.97196 0
M  V30 13483 H 1284.98 -1.20192 -0.999179 0
M  V30 13484 H 1285.71 -0.0235051 -3.24291 0
M  V30 13485 H 1285.5 -1.78013 -3.49362 0
M  V30 13486 H 1286.99 -0.969298 -4.06195 0
M  V30 13487 N 1287.43 1.02549 -1.19673 0
M  V30 13488 C 1288.67 1.76265 -1.00293 0
M  V30 13489 C 1289 1.88555 0.464816 0
M  V30 13490 O 1288.28 1.40484 1.34515 0
M  V30 13491 C 1288.56 3.18688 -1.6766 0
M  V30 13492 C 1288.42 3.14247 -3.21821 0
M  V30 13493 C 1289.73 4.17159 -1.40238 0
M  V30 13494 H 1286.85 0.639837 -0.365756 0
M  V30 13495 H 1289.5 1.19691 -1.4756 0
M  V30 13496 H 1287.65 3.66992 -1.27472 0
M  V30 13497 H 1289.32 2.73815 -3.71245 0
M  V30 13498 H 1287.56 2.51874 -3.53188 0
M  V30 13499 H 1288.23 4.14886 -3.64107 0
M  V30 13500 H 1290.71 3.77471 -1.75086 0
M  V30 13501 H 1289.58 5.14997 -1.89919 0
M  V30 13502 H 1289.84 4.4088 -0.328197 0
M  V30 13503 N 1288.9 1.00119 1.21713 0
M  V30 13504 C 1290.18 0.597366 1.86255 0
M  V30 13505 C 1290.56 -0.925124 1.89749 0
M  V30 13506 O 1289.91 -1.8105 1.39402 0
M  V30 13507 C 1290.12 1.22735 3.26707 0
M  V30 13508 C 1291.47 1.33307 4.03131 0
M  V30 13509 O 1292.49 1.18237 3.36003 0
M  V30 13510 O 1291.35 1.57509 5.2331 0
M  V30 13511 H 1288.44 0.204091 0.801421 0
M  V30 13512 H 1290.99 1.09759 1.29426 0
M  V30 13513 H 1289.76 2.26837 3.18843 0
M  V30 13514 H 1289.38 0.713232 3.91151 0
M  V30 13515 N 1290.38 -1.37203 0.775435 0
M  V30 13516 C 1291.61 -2.04396 0.351737 0
M  V30 13517 C 1292.03 -1.58099 -1.01913 0
M  V30 13518 O 1291.39 -0.742932 -1.65379 0
M  V30 13519 C 1291.44 -3.58283 0.408105 0
M  V30 13520 O 1290.54 -4.08156 -0.590104 0
M  V30 13521 H 1289.88 -0.646451 0.151647 0
M  V30 13522 H 1292.41 -1.75443 1.05265 0
M  V30 13523 H 1292.42 -4.07127 0.266711 0
M  V30 13524 H 1291.1 -3.91335 1.40819 0
M  V30 13525 H 1289.67 -3.70622 -0.411524 0
M  V30 13526 N 1291.86 -0.526279 -1.48553 0
M  V30 13527 C 1293.11 0.0111473 -2.01697 0
M  V30 13528 C 1293.42 1.35675 -1.40895 0
M  V30 13529 O 1294.63 1.98233 -1.85515 0
M  V30 13530 C 1293.08 0.0702721 -3.59831 0
M  V30 13531 C 1292.69 -1.27022 -4.29616 0
M  V30 13532 C 1294.44 0.556722 -4.20834 0
M  V30 13533 C 1292.34 -1.17188 -5.79673 0
M  V30 13534 H 1291.27 0.00793697 -0.753958 0
M  V30 13535 H 1293.92 -0.669503 -1.70851 0
M  V30 13536 H 1292.31 0.81592 -3.87503 0
M  V30 13537 H 1293.48 -2.03114 -4.1362 0
M  V30 13538 H 1291.79 -1.69211 -3.80469 0
M  V30 13539 H 1294.39 0.648205 -5.30756 0
M  V30 13540 H 1294.73 1.56163 -3.859 0
M  V30 13541 H 1295.27 -0.133132 -3.97577 0
M  V30 13542 H 1292.01 -2.15182 -6.19174 0
M  V30 13543 H 1291.53 -0.452259 -5.98093 0
M  V30 13544 H 1293.21 -0.861011 -6.41245 0
M  V30 13545 N 1293.34 1.5542 -0.261239 0
M  V30 13546 C 1294.57 2.03687 0.363225 0
M  V30 13547 C 1294.98 1.14007 1.50492 0
M  V30 13548 O 1294.34 0.157349 1.8182 0
M  V30 13549 C 1294.39 3.51184 0.857435 0
M  V30 13550 O 1294.11 4.37449 -0.238776 0
M  V30 13551 C 1295.61 4.15277 1.55113 0
M  V30 13552 H 1292.83 0.665641 0.0846356 0
M  V30 13553 H 1295.37 2.00761 -0.389288 0
M  V30 13554 H 1293.53 3.54599 1.56008 0
M  V30 13555 H 1293.94 5.24316 0.138821 0
M  V30 13556 H 1295.42 5.20129 1.8485 0
M  V30 13557 H 1295.89 3.62619 2.47799 0
M  V30 13558 H 1296.5 4.15826 0.892695 0
M  V30 13559 N 1294.82 -0.0116844 1.57596 0
M  V30 13560 C 1295.75 -1.03477 2.04512 0
M  V30 13561 C 1296.76 -1.31414 0.960945 0
M  V30 13562 O 1297.95 -1.28596 1.23796 0
M  V30 13563 C 1295.05 -2.37234 2.42019 0
M  V30 13564 C 1294.22 -2.28405 3.73028 0
M  V30 13565 C 1293.28 -3.44753 3.97532 0
M  V30 13566 O 1292.31 -3.23465 4.68358 0
M  V30 13567 N 1293.51 -4.67212 3.44518 0
M  V30 13568 H 1296.27 -0.634758 2.92901 0
M  V30 13569 H 1293.84 -0.1993 1.60669 0
M  V30 13570 H 1295.83 -3.13821 2.55535 0
M  V30 13571 H 1294.4 -2.69018 1.5921 0
M  V30 13572 H 1293.62 -1.36804 3.697 0
M  V30 13573 H 1294.91 -2.19666 4.58938 0
M  V30 13574 H 1294.3 -4.87407 2.87142 0
M  V30 13575 H 1292.86 -5.41105 3.63384 0
M  V30 13576 N 1296.29 -1.55015 -0.284256 0
M  V30 13577 C 1297.24 -1.87122 -1.35107 0
M  V30 13578 C 1298.21 -0.721638 -1.49605 0
M  V30 13579 O 1299.4 -0.971855 -1.64194 0
M  V30 13580 C 1296.54 -2.1388 -2.70831 0
M  V30 13581 C 1295.65 -3.41447 -2.64647 0
M  V30 13582 C 1294.78 -3.57961 -3.92476 0
M  V30 13583 C 1293.82 -4.79261 -3.80757 0
M  V30 13584 N 1292.96 -4.92492 -5.00395 0
M  V30 13585 H 1297.8 -2.78117 -1.07027 0
M  V30 13586 H 1295.34 -1.37704 -0.517311 0
M  V30 13587 H 1297.29 -2.27391 -3.49784 0
M  V30 13588 H 1295.92 -1.26132 -2.97137 0
M  V30 13589 H 1294.98 -3.36467 -1.77466 0
M  V30 13590 H 1296.29 -4.3053 -2.51884 0
M  V30 13591 H 1295.44 -3.71229 -4.79868 0
M  V30 13592 H 1294.18 -2.67042 -4.08093 0
M  V30 13593 H 1293.19 -4.66008 -2.91747 0
M  V30 13594 H 1294.41 -5.71604 -3.66669 0
M  V30 13595 H 1292.36 -4.04501 -5.16445 0
M  V30 13596 H 1292.27 -5.75603 -4.9012 0
M  V30 13597 H 1293.54 -5.10134 -5.89392 0
M  V30 13598 N 1297.77 0.548248 -1.47757 0
M  V30 13599 C 1298.72 1.65453 -1.60916 0
M  V30 13600 C 1299.69 1.59836 -0.451831 0
M  V30 13601 O 1300.87 1.78536 -0.673023 0
M  V30 13602 C 1298.01 3.0376 -1.6378 0
M  V30 13603 C 1297.13 3.19747 -2.90492 0
M  V30 13604 C 1296.26 4.48505 -2.84635 0
M  V30 13605 C 1295.3 4.57956 -4.06132 0
M  V30 13606 N 1294.44 5.78079 -3.98458 0
M  V30 13607 H 1299.28 1.53545 -2.55398 0
M  V30 13608 H 1296.81 0.747826 -1.26673 0
M  V30 13609 H 1298.77 3.8386 -1.63424 0
M  V30 13610 H 1297.4 3.14483 -0.728036 0
M  V30 13611 H 1296.45 2.3302 -3.00676 0
M  V30 13612 H 1297.77 3.22594 -3.8044 0
M  V30 13613 H 1296.92 5.36875 -2.82577 0
M  V30 13614 H 1295.66 4.48151 -1.92385 0
M  V30 13615 H 1294.66 3.67995 -4.08484 0
M  V30 13616 H 1295.89 4.60062 -4.9952 0
M  V30 13617 H 1293.84 5.78657 -3.09017 0
M  V30 13618 H 1293.75 5.82342 -4.82093 0
M  V30 13619 H 1295.02 6.68786 -4.00431 0
M  V30 13620 N 1299.25 1.36039 0.795694 0
M  V30 13621 C 1300.5 1.29919 1.5533 0
M  V30 13622 C 1300.82 -0.123325 1.94109 0
M  V30 13623 O 1300.08 -1.09115 1.62457 0
M  V30 13624 C 1300.38 2.16166 2.84617 0
M  V30 13625 C 1300.04 3.64805 2.65006 0
M  V30 13626 C 1298.71 4.05319 2.59365 0
M  V30 13627 C 1301.06 4.59073 2.46781 0
M  V30 13628 C 1298.39 5.38251 2.33458 0
M  V30 13629 C 1300.74 5.92216 2.22402 0
M  V30 13630 C 1299.4 6.31862 2.1519 0
M  V30 13631 H 1298.67 0.475408 0.568391 0
M  V30 13632 H 1301.32 1.68035 0.918512 0
M  V30 13633 H 1299.62 1.70967 3.5253 0
M  V30 13634 H 1301.32 2.0876 3.42375 0
M  V30 13635 H 1297.91 3.32662 2.70248 0
M  V30 13636 H 1302.1 4.28651 2.50144 0
M  V30 13637 H 1297.35 5.67957 2.26352 0
M  V30 13638 H 1301.53 6.64833 2.07293 0
M  V30 13639 H 1299.15 7.34797 1.94878 0
M  V30 13640 N 1300.73 -1.01913 1.20215 0
M  V30 13641 C 1301.66 -2.12282 0.97256 0
M  V30 13642 C 1302.64 -1.6982 -0.0975709 0
M  V30 13643 O 1303.82 -1.94109 0.0594307 0
M  V30 13644 C 1300.95 -3.43369 0.521085 0
M  V30 13645 C 1299.91 -3.99559 1.53417 0
M  V30 13646 C 1299.23 -5.26383 0.93942 0
M  V30 13647 C 1300.53 -4.33241 2.91718 0
M  V30 13648 H 1302.23 -2.31746 1.89563 0
M  V30 13649 H 1299.77 -1.1137 0.912841 0
M  V30 13650 H 1301.73 -4.19963 0.347713 0
M  V30 13651 H 1300.45 -3.23655 -0.437605 0
M  V30 13652 H 1299.11 -3.25069 1.69486 0
M  V30 13653 H 1298.76 -5.02993 -0.0271236 0
M  V30 13654 H 1298.46 -5.64942 1.616 0
M  V30 13655 H 1299.98 -6.05635 0.777059 0
M  V30 13656 H 1301.4 -5.00734 2.79175 0
M  V30 13657 H 1299.79 -4.82907 3.56259 0
M  V30 13658 H 1300.86 -3.42118 3.43633 0
M  V30 13659 N 1302.21 -1.00763 -1.2118 0
M  V30 13660 C 1303.45 -0.700238 -1.92031 0
M  V30 13661 C 1303.81 0.755344 -1.76518 0
M  V30 13662 O 1305.01 1.17484 -2.41766 0
M  V30 13663 C 1303.28 -1.11294 -3.3963 0
M  V30 13664 S 1304.84 -0.926151 -4.28915 0
M  V30 13665 H 1301.66 -0.255559 -0.663484 0
M  V30 13666 H 1304.26 -1.29301 -1.46634 0
M  V30 13667 H 1302.97 -2.16838 -3.48439 0
M  V30 13668 H 1302.5 -0.51257 -3.90047 0
M  V30 13669 H 1304.51 0.175301 -4.9589 0
M  V30 13670 N 1303.68 1.3679 -0.7827 0
M  V30 13671 C 1304.96 1.93639 -0.276278 0
M  V30 13672 C 1305.34 1.7153 1.23048 0
M  V30 13673 O 1304.69 1.07037 2.01879 0
M  V30 13674 C 1304.9 3.42672 -0.661586 0
M  V30 13675 C 1306.25 4.19786 -0.637538 0
M  V30 13676 O 1307.27 3.51082 -0.601645 0
M  V30 13677 O 1306.13 5.42323 -0.674408 0
M  V30 13678 H 1303.22 0.824307 -0.0666832 0
M  V30 13679 H 1305.77 1.46012 -0.864792 0
M  V30 13680 H 1304.54 3.52393 -1.70103 0
M  V30 13681 H 1304.17 3.97573 -0.0465987 0
M  V30 13682 N 1305.16 0.53415 1.48272 0
M  V30 13683 C 1306.58 0.192291 1.58437 0
M  V30 13684 C 1306.78 -1.3046 1.53566 0
M  V30 13685 O 1305.83 -2.08316 1.42692 0
M  V30 13686 C 1307.15 0.798515 2.89904 0
M  V30 13687 C 1308.7 0.76763 3.03441 0
M  V30 13688 C 1309.17 1.3525 4.37574 0
M  V30 13689 N 1310.66 1.31466 4.44152 0
M  V30 13690 C 1311.4 1.73706 5.46456 0
M  V30 13691 N 1310.89 2.23695 6.55692 0
M  V30 13692 N 1312.69 1.64918 5.37363 0
M  V30 13693 H 1304.84 1.50696 1.49681 0
M  V30 13694 H 1307.1 0.627073 0.710973 0
M  V30 13695 H 1306.81 1.8496 2.99136 0
M  V30 13696 H 1306.68 0.278033 3.76174 0
M  V30 13697 H 1309.07 -0.274704 2.93819 0
M  V30 13698 H 1309.15 1.32562 2.18771 0
M  V30 13699 H 1308.79 2.39379 4.47951 0
M  V30 13700 H 1308.72 0.770153 5.20938 0
M  V30 13701 H 1311.21 0.948761 3.65796 0
M  V30 13702 H 1311.53 2.5391 7.29897 0
M  V30 13703 H 1309.87 2.27691 6.56644 0
M  V30 13704 H 1313.06 1.25658 4.50919 0
M  V30 13705 H 1313.23 1.98157 6.16958 0
M  V30 13706 N 1306.64 -1.55279 0.269478 0
M  V30 13707 C 1307.87 -2.03876 -0.352418 0
M  V30 13708 C 1308.28 -1.14804 -1.49885 0
M  V30 13709 O 1307.64 -0.166989 -1.81734 0
M  V30 13710 C 1307.69 -3.51634 -0.838799 0
M  V30 13711 O 1307.41 -4.37316 0.261972 0
M  V30 13712 C 1308.91 -4.16094 -1.52909 0
M  V30 13713 H 1306.13 -0.66608 -0.0811043 0
M  V30 13714 H 1308.68 -2.00551 0.399929 0
M  V30 13715 H 1306.83 -3.55421 -1.54125 0
M  V30 13716 H 1307.25 -5.24383 -0.111013 0
M  V30 13717 H 1308.72 -5.21102 -1.82089 0
M  V30 13718 H 1309.2 -3.63928 -2.45872 0
M  V30 13719 H 1309.8 -4.16293 -0.87063 0
M  V30 13720 N 1308.12 0.00332656 -1.576 0
M  V30 13721 C 1309.05 0.994803 -2.11248 0
M  V30 13722 C 1310.03 1.36061 -1.02085 0
M  V30 13723 O 1311.21 1.44494 -1.2975 0
M  V30 13724 C 1308.34 2.28772 -2.61306 0
M  V30 13725 C 1307.3 2.06362 -3.74965 0
M  V30 13726 C 1306.62 3.41638 -4.11324 0
M  V30 13727 C 1307.92 1.4289 -5.02374 0
M  V30 13728 H 1309.62 0.548119 -2.9434 0
M  V30 13729 H 1307.16 0.262208 -1.41593 0
M  V30 13730 H 1309.12 2.98485 -2.97464 0
M  V30 13731 H 1307.84 2.75547 -1.75332 0
M  V30 13732 H 1306.5 1.39076 -3.39195 0
M  V30 13733 H 1306.15 3.8611 -3.22379 0
M  V30 13734 H 1305.85 3.2746 -4.87897 0
M  V30 13735 H 1307.37 4.12671 -4.50039 0
M  V30 13736 H 1308.79 2.02555 -5.36325 0
M  V30 13737 H 1307.18 1.3921 -5.8373 0
M  V30 13738 H 1308.25 0.397708 -4.83266 0
M  V30 13739 N 1309.6 1.55164 0.276031 0
M  V30 13740 C 1310.84 1.76811 1.00545 0
M  V30 13741 C 1311.2 0.560749 1.84047 0
M  V30 13742 O 1310.49 -0.446608 1.86322 0
M  V30 13743 C 1310.68 3.0127 1.92279 0
M  V30 13744 C 1310.51 4.33996 1.17804 0
M  V30 13745 C 1309.28 4.97311 0.894963 0
M  V30 13746 C 1311.48 5.11132 0.56998 0
M  V30 13747 N 1309.46 6.13777 0.123106 0
M  V30 13748 C 1310.83 6.19963 -0.0678612 0
M  V30 13749 C 1312.89 4.95605 0.47752 0
M  V30 13750 C 1311.59 7.14957 -0.789246 0
M  V30 13751 C 1313.62 5.90952 -0.230266 0
M  V30 13752 C 1312.98 6.99169 -0.856857 0
M  V30 13753 H 1309.08 0.6993 0.350006 0
M  V30 13754 H 1311.66 1.92655 0.281432 0
M  V30 13755 H 1309.83 2.86807 2.61909 0
M  V30 13756 H 1311.57 3.11335 2.58559 0
M  V30 13757 H 1308.32 4.58159 1.19947 0
M  V30 13758 H 1308.75 6.76538 -0.250065 0
M  V30 13759 H 1313.39 4.12043 0.947639 0
M  V30 13760 H 1311.11 7.98041 -1.27106 0
M  V30 13761 H 1314.69 5.81015 -0.302083 0
M  V30 13762 H 1313.57 7.71678 -1.39581 0
M  V30 13763 N 1311.07 -0.540404 1.48045 0
M  V30 13764 C 1312.49 -0.867958 1.33935 0
M  V30 13765 C 1312.69 -1.98568 0.342488 0
M  V30 13766 O 1311.75 -2.51357 -0.240022 0
M  V30 13767 C 1313.06 -1.24532 2.73701 0
M  V30 13768 C 1314.61 -1.3558 2.82112 0
M  V30 13769 C 1315.08 -1.76664 4.22556 0
M  V30 13770 N 1316.57 -1.83785 4.25179 0
M  V30 13771 C 1317.31 -2.16938 5.30778 0
M  V30 13772 N 1316.8 -2.48587 6.46666 0
M  V30 13773 N 1318.6 -2.17855 5.18166 0
M  V30 13774 H 1310.75 0.197251 2.11482 0
M  V30 13775 H 1313.01 0.0255947 0.947654 0
M  V30 13776 H 1312.72 -0.497731 3.4816 0
M  V30 13777 H 1312.59 -2.19779 3.06556 0
M  V30 13778 H 1314.98 -2.09417 2.07915 0
M  V30 13779 H 1315.06 -0.384787 2.52889 0
M  V30 13780 H 1314.7 -1.03391 4.97265 0
M  V30 13781 H 1314.63 -2.74797 4.49215 0
M  V30 13782 H 1317.12 -1.61645 3.41583 0
M  V30 13783 H 1317.44 -2.72959 7.22989 0
M  V30 13784 H 1315.78 -2.4613 6.49958 0
M  V30 13785 H 1318.97 -1.9258 4.2665 0
M  V30 13786 H 1319.15 -2.43361 6.00566 0
M  V30 13787 N 1312.55 -1.36459 -0.788468 0
M  V30 13788 C 1313.8 -1.3007 -1.54158 0
M  V30 13789 C 1314.11 0.117574 -1.95246 0
M  V30 13790 O 1315.32 0.303837 -2.69795 0
M  V30 13791 C 1313.78 -2.28216 -2.78291 0
M  V30 13792 C 1313.38 -3.75484 -2.44368 0
M  V30 13793 C 1315.13 -2.30806 -3.56271 0
M  V30 13794 C 1313.04 -4.65404 -3.64902 0
M  V30 13795 H 1311.97 -0.483345 -0.5787 0
M  V30 13796 H 1314.62 -1.61827 -0.865123 0
M  V30 13797 H 1313 -1.89454 -3.4774 0
M  V30 13798 H 1314.17 -4.22986 -1.82809 0
M  V30 13799 H 1312.49 -3.75678 -1.79597 0
M  V30 13800 H 1315.08 -2.95196 -4.45829 0
M  V30 13801 H 1315.43 -1.31687 -3.94923 0
M  V30 13802 H 1315.96 -2.68189 -2.93802 0
M  V30 13803 H 1312.7 -5.65589 -3.31344 0
M  V30 13804 H 1312.22 -4.22617 -4.25623 0
M  V30 13805 H 1313.9 -4.81721 -4.31919 0
M  V30 13806 N 1314.03 1.01274 -1.20754 0
M  V30 13807 C 1315.44 1.56381 -1.0199 0
M  V30 13808 C 1315.79 1.91595 0.422591 0
M  V30 13809 O 1314.92 1.72653 1.3046 0
M  V30 13810 C 1315.51 2.8415 -1.8451 0
M  V30 13811 C 1314.07 3.35772 -1.70101 0
M  V30 13812 C 1313.22 2.0904 -1.82202 0
M  V30 13813 H 1316.17 0.836105 -1.34889 0
M  V30 13814 H 1316.19 3.55717 -1.35076 0
M  V30 13815 H 1315.7 2.5849 -2.8949 0
M  V30 13816 H 1313.8 3.66384 -0.677732 0
M  V30 13817 H 1313.92 4.07714 -2.51607 0
M  V30 13818 H 1312.28 2.21675 -1.25429 0
M  V30 13819 H 1313.06 1.858 -2.88675 0
M  V30 13820 N 1315.51 1.01404 1.20644 0
M  V30 13821 C 1316.76 0.701909 1.89946 0
M  V30 13822 C 1317.08 -0.768212 1.78686 0
M  V30 13823 O 1316.34 -1.57348 1.16363 0
M  V30 13824 C 1316.64 1.07995 3.40693 0
M  V30 13825 C 1316.3 2.54585 3.72152 0
M  V30 13826 C 1314.97 2.94639 3.80449 0
M  V30 13827 C 1317.32 3.49497 3.86654 0
M  V30 13828 C 1314.65 4.2855 4.00702 0
M  V30 13829 C 1317 4.83093 4.08416 0
M  V30 13830 C 1315.66 5.22857 4.14942 0
M  V30 13831 H 1314.93 0.256847 0.695062 0
M  V30 13832 H 1317.58 1.27415 1.4296 0
M  V30 13833 H 1315.88 0.426089 3.89476 0
M  V30 13834 H 1317.58 0.816176 3.92606 0
M  V30 13835 H 1314.17 2.22548 3.66292 0
M  V30 13836 H 1318.36 3.19713 3.79602 0
M  V30 13837 H 1313.61 4.58916 4.03988 0
M  V30 13838 H 1317.79 5.56565 4.18579 0
M  V30 13839 H 1315.41 6.26634 4.30388 0
M  V30 13840 N 1316.99 -1.36373 0.789944 0
M  V30 13841 C 1318.21 -2.04011 0.373396 0
M  V30 13842 C 1318.64 -1.59171 -1.00231 0
M  V30 13843 O 1318 -0.760431 -1.64582 0
M  V30 13844 C 1318.04 -3.5783 0.446083 0
M  V30 13845 O 1317.15 -4.08759 -0.54678 0
M  V30 13846 H 1316.49 -0.644807 0.158495 0
M  V30 13847 H 1319.02 -1.74317 1.0712 0
M  V30 13848 H 1319.03 -4.06822 0.309877 0
M  V30 13849 H 1317.7 -3.89819 1.44962 0
M  V30 13850 H 1316.28 -3.71038 -0.372192 0
M  V30 13851 N 1318.47 -0.542005 -1.47987 0
M  V30 13852 C 1319.69 -0.0146835 -2.07395 0
M  V30 13853 C 1320.12 1.26266 -1.39422 0
M  V30 13854 O 1319.47 1.75259 -0.464118 0
M  V30 13855 C 1319.52 0.179937 -3.60151 0
M  V30 13856 O 1318.63 1.24596 -3.93128 0
M  V30 13857 H 1317.97 -0.0445076 -0.662507 0
M  V30 13858 H 1320.5 -0.753352 -1.90226 0
M  V30 13859 H 1320.51 0.398876 -4.06046 0
M  V30 13860 H 1319.18 -0.753093 -4.09025 0
M  V30 13861 H 1317.76 1.00872 -3.58997 0
M  V30 13862 N 1319.94 1.55134 -0.277709 0
M  V30 13863 C 1320.89 2.24057 0.624594 0
M  V30 13864 C 1321.89 1.23848 1.15577 0
M  V30 13865 O 1323.09 1.41771 1.1091 0
M  V30 13866 H 1319.47 0.719106 0.219977 0
M  V30 13867 H 1321.44 2.98393 0.0204815 0
M  V30 13868 C 1320.19 2.97712 1.79618 0
M  V30 13869 H 1319.51 3.74611 1.39665 0
M  V30 13870 H 1320.95 3.49255 2.4041 0
M  V30 13871 C 1319.41 2.03332 2.68622 0
M  V30 13872 O 1319.94 1.58622 3.69056 0
M  V30 13873 N 1318.14 1.69778 2.35847 0
M  V30 13874 H 1317.69 2.06333 1.54222 0
M  V30 13875 H 1317.65 1.06901 2.95668 0
M  V30 13876 N 1321.42 0.00503138 1.57599 0
M  V30 13877 C 1322.67 -0.678761 1.90785 0
M  V30 13878 C 1323 -1.73499 0.87911 0
M  V30 13879 O 1322.25 -1.95359 -0.115418 0
M  V30 13880 C 1322.55 -1.35485 3.30724 0
M  V30 13881 C 1322.22 -0.431335 4.48832 0
M  V30 13882 C 1320.88 -0.177078 4.80874 0
M  V30 13883 C 1323.23 0.204219 5.208 0
M  V30 13884 C 1320.56 0.720944 5.82254 0
M  V30 13885 C 1322.91 1.09015 6.23136 0
M  V30 13886 C 1321.57 1.35353 6.53633 0
M  V30 13887 H 1320.84 -0.248376 0.698133 0
M  V30 13888 H 1323.49 0.061638 1.91401 0
M  V30 13889 H 1321.8 -2.16942 3.26257 0
M  V30 13890 H 1323.49 -1.89007 3.53663 0
M  V30 13891 H 1320.08 -0.639676 4.238 0
M  V30 13892 H 1324.27 0.0208074 4.96296 0
M  V30 13893 H 1319.52 0.93296 6.0424 0
M  V30 13894 H 1323.7 1.58894 6.78031 0
M  V30 13895 H 1321.32 2.05107 7.32008 0
M  V30 13896 N 1322.9 -1.55308 -0.267798 0
M  V30 13897 C 1323.83 -1.8348 -1.35685 0
M  V30 13898 C 1324.81 -0.688228 -1.47317 0
M  V30 13899 O 1325.99 -0.931781 -1.6386 0
M  V30 13900 C 1323.12 -2.00103 -2.7327 0
M  V30 13901 C 1322.17 -3.22675 -2.78896 0
M  V30 13902 S 1323 -4.79895 -2.37615 0
M  V30 13903 C 1324.16 -4.99497 -3.77165 0
M  V30 13904 H 1324.39 -2.75565 -1.11585 0
M  V30 13905 H 1321.92 -1.47146 -0.467703 0
M  V30 13906 H 1323.88 -2.10364 -3.52501 0
M  V30 13907 H 1322.54 -1.08897 -2.94619 0
M  V30 13908 H 1321.73 -3.31209 -3.7989 0
M  V30 13909 H 1321.34 -3.11031 -2.07691 0
M  V30 13910 H 1323.63 -4.85558 -4.72483 0
M  V30 13911 H 1324.57 -6.01534 -3.73581 0
M  V30 13912 H 1324.98 -4.2745 -3.68709 0
M  V30 13913 N 1324.38 0.532545 -1.4833 0
M  V30 13914 C 1325.6 1.31809 -1.60129 0
M  V30 13915 C 1326.03 1.86283 -0.260807 0
M  V30 13916 O 1325.39 1.6427 0.767137 0
M  V30 13917 C 1325.43 2.44661 -2.64903 0
M  V30 13918 O 1324.54 3.47622 -2.21885 0
M  V30 13919 H 1323.88 0.390492 -0.53704 0
M  V30 13920 H 1326.41 0.641068 -1.94297 0
M  V30 13921 H 1326.42 2.90883 -2.86096 0
M  V30 13922 H 1325.09 2.04373 -3.62222 0
M  V30 13923 H 1323.67 3.07536 -2.10894 0
M  V30 13924 N 1325.86 1.36875 0.78122 0
M  V30 13925 C 1326.79 1.26232 1.90107 0
M  V30 13926 C 1327.77 0.144779 1.61954 0
M  V30 13927 O 1328.95 0.317344 1.8581 0
M  V30 13928 C 1326.08 0.949543 3.25117 0
M  V30 13929 C 1325.12 2.08266 3.72193 0
M  V30 13930 S 1325.96 3.70141 3.86983 0
M  V30 13931 C 1327.11 3.40994 5.24856 0
M  V30 13932 H 1327.35 2.21016 1.98844 0
M  V30 13933 H 1324.88 1.22387 0.941324 0
M  V30 13934 H 1326.84 0.775902 4.031 0
M  V30 13935 H 1325.5 0.0193416 3.14094 0
M  V30 13936 H 1324.69 1.81858 4.70046 0
M  V30 13937 H 1324.29 2.21595 3.01284 0
M  V30 13938 H 1326.58 2.95395 6.09711 0
M  V30 13939 H 1327.53 4.38141 5.56272 0
M  V30 13940 H 1327.94 2.76146 4.92345 0
M  V30 13941 N 1327.33 -1.00632 1.21289 0
M  V30 13942 C 1328.58 -1.74044 1.02728 0
M  V30 13943 C 1328.9 -1.89963 -0.440351 0
M  V30 13944 O 1328.17 -1.44958 -1.31772 0
M  V30 13945 H 1326.75 -0.644813 0.377127 0
M  V30 13946 H 1329.41 -1.21272 1.52575 0
M  V30 13947 H 1328.51 -2.74011 1.49413 0
M  V30 13948 N 1328.81 -1.02043 -1.20104 0
M  V30 13949 C 1329.77 -0.598682 -2.21243 0
M  V30 13950 C 1330.77 0.333205 -1.5731 0
M  V30 13951 O 1331.96 0.12137 -1.73777 0
M  V30 13952 C 1329.1 0.125183 -3.4067 0
M  V30 13953 H 1330.29 -1.49345 -2.60069 0
M  V30 13954 H 1327.84 -0.810649 -1.33634 0
M  V30 13955 H 1328.58 1.03469 -3.07351 0
M  V30 13956 H 1328.36 -0.544316 -3.88304 0
M  V30 13957 H 1329.85 0.407469 -4.15607 0
M  V30 13958 N 1330.29 1.35952 -0.797165 0
M  V30 13959 C 1331.22 2.32506 -0.215277 0
M  V30 13960 C 1332.2 1.57023 0.654046 0
M  V30 13961 O 1333.39 1.85139 0.586268 0
M  V30 13962 C 1330.52 3.41266 0.644557 0
M  V30 13963 C 1329.47 4.27816 -0.125501 0
M  V30 13964 C 1328.8 5.27813 0.855428 0
M  V30 13965 C 1330.1 5.05367 -1.31913 0
M  V30 13966 H 1331.79 2.8142 -1.02193 0
M  V30 13967 H 1329.34 1.35303 -0.492862 0
M  V30 13968 H 1331.29 4.07808 1.06163 0
M  V30 13969 H 1330.01 2.90938 1.484 0
M  V30 13970 H 1328.67 3.62841 -0.523639 0
M  V30 13971 H 1328.32 4.73755 1.69011 0
M  V30 13972 H 1328.02 5.86589 0.344566 0
M  V30 13973 H 1329.54 5.97227 1.2709 0
M  V30 13974 H 1330.96 5.64907 -0.977418 0
M  V30 13975 H 1329.36 5.73593 -1.76382 0
M  V30 13976 H 1330.43 4.36558 -2.11057 0
M  V30 13977 N 1331.77 0.549846 1.47697 0
M  V30 13978 C 1333 0.0276889 2.06881 0
M  V30 13979 C 1333.41 -1.26273 1.40359 0
M  V30 13980 O 1332.77 -1.75584 0.497644 0
M  V30 13981 C 1332.82 -0.179291 3.61055 0
M  V30 13982 O 1332.54 1.06002 4.25083 0
M  V30 13983 C 1334.04 -0.739571 4.37087 0
M  V30 13984 H 1331.26 0.0425016 0.669653 0
M  V30 13985 H 1333.81 0.761158 1.89807 0
M  V30 13986 H 1331.96 -0.862867 3.77668 0
M  V30 13987 H 1332.37 0.853137 5.17515 0
M  V30 13988 H 1333.85 -0.833722 5.45668 0
M  V30 13989 H 1334.33 -1.74915 4.02867 0
M  V30 13990 H 1334.93 -0.0919294 4.25201 0
M  V30 13991 N 1333.25 -1.54984 0.285932 0
M  V30 13992 C 1334.52 -1.91872 -0.380083 0
M  V30 13993 C 1334.9 -1.21146 -1.72878 0
M  V30 13994 O 1334.25 -0.341999 -2.25926 0
M  V30 13995 C 1334.46 -3.45258 -0.509667 0
M  V30 13996 C 1335.81 -4.17232 -0.787549 0
M  V30 13997 O 1336.83 -3.51211 -0.594062 0
M  V30 13998 O 1335.69 -5.34085 -1.15826 0
M  V30 13999 H 1332.79 -0.799931 -0.209856 0
M  V30 14000 H 1335.33 -1.66403 0.332882 0
M  V30 14001 H 1334.1 -3.88829 0.439049 0
M  V30 14002 H 1333.73 -3.76715 -1.27168 0
M  V30 14003 N 1334.72 -0.0133892 -1.57594 0
M  V30 14004 C 1335.65 0.972341 -2.12292 0
M  V30 14005 C 1336.64 1.34971 -1.03522 0
M  V30 14006 O 1337.82 1.4311 -1.31275 0
M  V30 14007 C 1334.95 2.25988 -2.63717 0
M  V30 14008 C 1333.9 2.02373 -3.77133 0
M  V30 14009 C 1333.23 3.37256 -4.14925 0
M  V30 14010 C 1334.53 1.37553 -5.03861 0
M  V30 14011 H 1336.22 0.516869 -2.94905 0
M  V30 14012 H 1333.77 0.247176 -1.41863 0
M  V30 14013 H 1335.72 2.95313 -3.00613 0
M  V30 14014 H 1334.45 2.73672 -1.78244 0
M  V30 14015 H 1333.11 1.3547 -3.40651 0
M  V30 14016 H 1332.75 3.82669 -3.26456 0
M  V30 14017 H 1332.45 3.22267 -4.91343 0
M  V30 14018 H 1333.98 4.07875 -4.5439 0
M  V30 14019 H 1335.39 1.96855 -5.38443 0
M  V30 14020 H 1333.79 1.33011 -5.85174 0
M  V30 14021 H 1334.86 0.346429 -4.83661 0
M  V30 14022 N 1336.2 1.55448 0.259558 0
M  V30 14023 C 1337.45 1.76337 0.987396 0
M  V30 14024 C 1337.77 0.57505 1.86328 0
M  V30 14025 O 1337.04 -0.409621 1.9157 0
M  V30 14026 H 1335.62 0.650312 0.367565 0
M  V30 14027 H 1338.28 1.9287 0.280551 0
M  V30 14028 H 1337.38 2.66975 1.61651 0
M  V30 14029 N 1337.68 -0.524672 1.4861 0
M  V30 14030 C 1338.61 -1.64481 1.59621 0
M  V30 14031 C 1339.63 -1.55557 0.480181 0
M  V30 14032 O 1340.81 -1.61921 0.751254 0
M  V30 14033 C 1337.91 -3.03158 1.51487 0
M  V30 14034 C 1337.09 -3.37509 2.78221 0
M  V30 14035 C 1336.15 -4.5549 2.63467 0
M  V30 14036 O 1335.17 -4.58448 3.37364 0
M  V30 14037 N 1336.37 -5.53986 1.73437 0
M  V30 14038 H 1339.14 -1.5547 2.56221 0
M  V30 14039 H 1336.7 -0.712059 1.45401 0
M  V30 14040 H 1338.69 -3.79969 1.39305 0
M  V30 14041 H 1337.26 -3.06219 0.628406 0
M  V30 14042 H 1336.48 -2.49824 3.04929 0
M  V30 14043 H 1337.77 -3.57246 3.62288 0
M  V30 14044 H 1337.17 -5.54378 1.12612 0
M  V30 14045 H 1335.73 -6.29993 1.6719 0
M  V30 14046 N 1339.16 -1.37287 -0.77395 0
M  V30 14047 C 1340.11 -1.32955 -1.90855 0
M  V30 14048 C 1341.1 -0.218695 -1.67982 0
M  V30 14049 O 1342.31 -0.386594 -1.75799 0
M  V30 14050 H 1338.68 -0.414289 -0.62759 0
M  V30 14051 H 1340.65 -2.2874 -1.91626 0
M  V30 14052 C 1339.4 -1.15121 -3.28089 0
M  V30 14053 H 1338.72 -1.99852 -3.46264 0
M  V30 14054 H 1340.16 -1.1614 -4.07784 0
M  V30 14055 C 1338.62 0.14327 -3.36595 0
M  V30 14056 O 1339.15 1.12763 -3.85548 0
M  V30 14057 N 1337.36 0.193219 -2.89957 0
M  V30 14058 H 1336.91 -0.608471 -2.50311 0
M  V30 14059 H 1336.86 1.05897 -2.96029 0
M  V30 14060 N 1340.64 0.999871 -1.21821 0
M  V30 14061 C 1341.57 2.10708 -1.00621 0
M  V30 14062 C 1342.55 1.69954 0.0705417 0
M  V30 14063 O 1343.73 1.9399 -0.0903042 0
M  V30 14064 C 1340.86 3.42496 -0.575646 0
M  V30 14065 C 1339.82 3.97068 -1.59754 0
M  V30 14066 C 1339.14 5.24822 -1.02304 0
M  V30 14067 C 1340.44 4.28545 -2.98574 0
M  V30 14068 H 1342.14 2.28701 -1.93226 0
M  V30 14069 H 1339.68 1.09903 -0.930443 0
M  V30 14070 H 1341.64 4.19357 -0.414481 0
M  V30 14071 H 1340.36 3.2431 0.386059 0
M  V30 14072 H 1339.02 3.22332 -1.74636 0
M  V30 14073 H 1338.67 5.02972 -0.0529016 0
M  V30 14074 H 1338.37 5.62299 -1.70567 0
M  V30 14075 H 1339.89 6.04322 -0.873312 0
M  V30 14076 H 1341.3 4.96229 -2.87106 0
M  V30 14077 H 1339.7 4.77178 -3.63897 0
M  V30 14078 H 1340.77 3.36607 -3.49032 0
M  V30 14079 N 1342.11 1.02678 1.19562 0
M  V30 14080 C 1343.04 0.626359 2.24942 0
M  V30 14081 C 1344.03 -0.363612 1.66168 0
M  V30 14082 O 1345.21 -0.246793 1.92625 0
M  V30 14083 C 1342.34 -0.0257912 3.4729 0
M  V30 14084 C 1341.29 0.886237 4.18724 0
M  V30 14085 C 1340.62 0.0993081 5.34608 0
M  V30 14086 C 1341.92 2.19901 4.73752 0
M  V30 14087 H 1343.61 1.50729 2.58691 0
M  V30 14088 H 1341.16 0.726195 1.24348 0
M  V30 14089 H 1343.11 -0.317545 4.20202 0
M  V30 14090 H 1341.84 -0.941511 3.12735 0
M  V30 14091 H 1340.5 1.16215 3.47692 0
M  V30 14092 H 1340.14 -0.81838 4.96298 0
M  V30 14093 H 1339.84 0.706776 5.83334 0
M  V30 14094 H 1341.37 -0.185754 6.10317 0
M  V30 14095 H 1342.78 1.96892 5.3843 0
M  V30 14096 H 1341.18 2.75821 5.32956 0
M  V30 14097 H 1342.25 2.85509 3.91934 0
M  V30 14098 N 1343.59 -1.35528 0.804364 0
M  V30 14099 C 1344.82 -2.02779 0.395517 0
M  V30 14100 C 1345.23 -1.60764 -0.997572 0
M  V30 14101 O 1344.57 -0.799737 -1.65378 0
M  V30 14102 C 1344.64 -3.57302 0.396904 0
M  V30 14103 C 1344.3 -4.22574 1.74012 0
M  V30 14104 C 1345.3 -4.44411 2.69806 0
M  V30 14105 C 1342.98 -4.59738 2.02352 0
M  V30 14106 C 1344.98 -5.02511 3.92124 0
M  V30 14107 C 1342.66 -5.17553 3.24934 0
M  V30 14108 C 1343.66 -5.38881 4.19638 0
M  V30 14109 O 1343.35 -5.95478 5.40056 0
M  V30 14110 H 1343.08 -0.657003 0.15913 0
M  V30 14111 H 1345.63 -1.74176 1.08867 0
M  V30 14112 H 1343.86 -3.85087 -0.352836 0
M  V30 14113 H 1345.55 -4.05899 0.0106754 0
M  V30 14114 H 1346.32 -4.16081 2.49202 0
M  V30 14115 H 1342.2 -4.42452 1.2945 0
M  V30 14116 H 1345.74 -5.19075 4.66055 0
M  V30 14117 H 1341.64 -5.4531 3.45409 0
M  V30 14118 H 1342.41 -6.13931 5.41323 0
M  V30 14119 N 1345.07 -0.557671 -1.47404 0
M  V30 14120 C 1346.03 0.179311 -2.28498 0
M  V30 14121 C 1347.03 0.842281 -1.36975 0
M  V30 14122 O 1348.22 0.698072 -1.59601 0
M  V30 14123 C 1345.36 1.26229 -3.16668 0
M  V30 14124 H 1346.55 -0.533033 -2.95125 0
M  V30 14125 H 1344.1 -0.314634 -1.531 0
M  V30 14126 H 1344.84 2.00702 -2.54733 0
M  V30 14127 H 1344.62 0.791712 -3.84024 0
M  V30 14128 H 1346.11 1.77991 -3.77768 0
M  V30 14129 N 1346.55 1.54831 -0.294147 0
M  V30 14130 C 1347.5 2.24707 0.600795 0
M  V30 14131 C 1348.49 1.25067 1.14257 0
M  V30 14132 O 1349.7 1.42939 1.094 0
M  V30 14133 H 1346.07 0.721399 0.212338 0
M  V30 14134 H 1348.04 2.98398 -0.0111682 0
M  V30 14135 C 1346.79 2.996 1.76451 0
M  V30 14136 H 1346.12 3.76072 1.35684 0
M  V30 14137 H 1347.56 3.51785 2.36692 0
M  V30 14138 C 1346.01 2.0617 2.6645 0
M  V30 14139 O 1346.54 1.62527 3.67353 0
M  V30 14140 N 1344.75 1.7227 2.34033 0
M  V30 14141 H 1344.3 2.07957 1.52025 0
M  V30 14142 H 1344.26 1.10031 2.94518 0
M  V30 14143 N 1348.03 0.0217466 1.57585 0
M  V30 14144 C 1349.25 -0.67246 1.96196 0
M  V30 14145 C 1349.68 -1.6529 0.897827 0
M  V30 14146 O 1349.04 -1.80743 -0.142002 0
M  V30 14147 C 1349.08 -1.36162 3.33905 0
M  V30 14148 O 1348.19 -2.47671 3.29747 0
M  V30 14149 H 1347.53 -0.177238 0.639908 0
M  V30 14150 H 1350.06 0.0814073 2.04438 0
M  V30 14151 H 1350.07 -1.7201 3.69968 0
M  V30 14152 H 1348.74 -0.642893 4.10901 0
M  V30 14153 H 1347.32 -2.13989 3.0539 0
M  V30 14154 N 1349.51 -1.55583 -0.251311 0
M  V30 14155 C 1350.47 -1.89148 -1.29443 0
M  V30 14156 C 1351.47 -0.7676 -1.41296 0
M  V30 14157 O 1352.66 -1.03563 -1.40073 0
M  V30 14158 C 1349.79 -2.11601 -2.67279 0
M  V30 14159 H 1350.98 -2.82416 -1.00901 0
M  V30 14160 H 1348.54 -1.48407 -0.490398 0
M  V30 14161 H 1349.27 -1.20787 -3.00967 0
M  V30 14162 H 1349.06 -2.93449 -2.60058 0
M  V30 14163 H 1350.55 -2.38768 -3.42607 0
M  V30 14164 N 1350.98 0.516783 -1.48886 0
M  V30 14165 C 1351.93 1.61653 -1.60786 0
M  V30 14166 C 1352.92 1.54056 -0.464271 0
M  V30 14167 O 1354.11 1.61853 -0.716412 0
M  V30 14168 C 1351.24 3.0033 -1.66304 0
M  V30 14169 C 1350.32 3.12982 -2.86187 0
M  V30 14170 N 1350.72 2.95568 -4.10455 0
M  V30 14171 C 1349.01 3.44059 -2.83795 0
M  V30 14172 C 1349.71 3.11986 -4.90958 0
M  V30 14173 N 1348.69 3.40156 -4.24022 0
M  V30 14174 H 1352.49 1.4682 -2.546 0
M  V30 14175 H 1350.01 0.722555 -1.4544 0
M  V30 14176 H 1352 3.79345 -1.72924 0
M  V30 14177 H 1350.66 3.16245 -0.736158 0
M  V30 14178 H 1351.67 2.72062 -4.40684 0
M  V30 14179 H 1348.35 3.66249 -2.0042 0
M  V30 14180 H 1349.74 3.03149 -5.99625 0
M  V30 14181 N 1352.46 1.37696 0.766659 0
M  V30 14182 C 1353.42 1.33688 1.86172 0
M  V30 14183 C 1354.42 0.239922 1.59 0
M  V30 14184 O 1355.61 0.496066 1.66988 0
M  V30 14185 C 1352.75 1.07807 3.23405 0
M  V30 14186 H 1353.94 2.311 1.91136 0
M  V30 14187 H 1351.49 1.22799 0.966961 0
M  V30 14188 H 1352.23 0.109477 3.24115 0
M  V30 14189 H 1352.01 1.87213 3.4452 0
M  V30 14190 H 1353.5 1.07665 4.03482 0
M  V30 14191 N 1353.94 -0.993397 1.22349 0
M  V30 14192 C 1354.87 -2.10171 1.01737 0
M  V30 14193 C 1355.85 -1.69989 -0.0615276 0
M  V30 14194 O 1357.04 -1.93939 0.100591 0
M  V30 14195 C 1354.17 -3.42186 0.593801 0
M  V30 14196 C 1353.12 -3.96215 1.61858 0
M  V30 14197 C 1352.45 -5.24272 1.05086 0
M  V30 14198 C 1353.75 -4.26956 3.00842 0
M  V30 14199 H 1355.44 -2.27673 1.94436 0
M  V30 14200 H 1352.99 -1.09408 0.936258 0
M  V30 14201 H 1354.94 -4.19131 0.436715 0
M  V30 14202 H 1353.66 -3.2451 -0.368855 0
M  V30 14203 H 1352.32 -3.21401 1.76343 0
M  V30 14204 H 1351.97 -5.02937 0.0795747 0
M  V30 14205 H 1351.67 -5.61387 1.73547 0
M  V30 14206 H 1353.19 -6.03851 0.905349 0
M  V30 14207 H 1354.61 -4.94699 2.89734 0
M  V30 14208 H 1353 -4.75242 3.66422 0
M  V30 14209 H 1354.07 -3.34752 3.50812 0
M  V30 14210 N 1355.42 -1.03311 -1.19015 0
M  V30 14211 C 1356.69 -0.646539 -1.84606 0
M  V30 14212 C 1357.07 0.87449 -1.92135 0
M  V30 14213 O 1356.42 1.77291 -1.44154 0
M  V30 14214 C 1356.63 -1.31354 -3.23338 0
M  V30 14215 C 1357.98 -1.43949 -3.99455 0
M  V30 14216 O 1359 -1.27104 -3.32751 0
M  V30 14217 O 1357.86 -1.71328 -5.1895 0
M  V30 14218 H 1354.96 -0.225267 -0.795728 0
M  V30 14219 H 1357.5 -1.13152 -1.2647 0
M  V30 14220 H 1356.28 -2.3521 -3.12717 0
M  V30 14221 H 1355.9 -0.816688 -3.89122 0
M  V30 14222 N 1356.9 1.35099 -0.81154 0
M  V30 14223 C 1357.83 2.2756 -0.170838 0
M  V30 14224 C 1358.81 1.48331 0.666085 0
M  V30 14225 O 1359.99 1.77579 0.632294 0
M  V30 14226 C 1357.12 3.30006 0.762483 0
M  V30 14227 C 1356.16 4.265 0.00454934 0
M  V30 14228 S 1357 5.18595 -1.33488 0
M  V30 14229 C 1358.15 6.24581 -0.406132 0
M  V30 14230 H 1358.39 2.81553 -0.95475 0
M  V30 14231 H 1355.92 1.41974 -0.606851 0
M  V30 14232 H 1357.88 3.89523 1.29545 0
M  V30 14233 H 1356.54 2.74882 1.51982 0
M  V30 14234 H 1355.73 4.98922 0.71361 0
M  V30 14235 H 1355.33 3.71178 -0.458613 0
M  V30 14236 H 1357.62 6.76278 0.406707 0
M  V30 14237 H 1358.57 6.99509 -1.09969 0
M  V30 14238 H 1358.98 5.645 0.000376348 0
M  V30 14239 N 1358.37 0.56548 1.47106 0
M  V30 14240 C 1359.6 0.0496298 2.0684 0
M  V30 14241 C 1360.02 -1.24777 1.4169 0
M  V30 14242 O 1359.37 -1.75046 0.516239 0
M  V30 14243 C 1359.42 -0.140987 3.61225 0
M  V30 14244 O 1359.15 1.10504 4.23934 0
M  V30 14245 C 1360.65 -0.693171 4.37847 0
M  V30 14246 H 1357.87 0.0496018 0.669164 0
M  V30 14247 H 1360.41 0.781247 1.88989 0
M  V30 14248 H 1358.57 -0.822762 3.78562 0
M  V30 14249 H 1358.98 0.907978 5.16581 0
M  V30 14250 H 1360.45 -0.7758 5.46521 0
M  V30 14251 H 1360.93 -1.70632 4.04699 0
M  V30 14252 H 1361.54 -0.046826 4.25274 0
M  V30 14253 N 1359.85 -1.54672 0.302354 0
M  V30 14254 C 1361.1 -2.00167 -0.306524 0
M  V30 14255 C 1361.43 -1.19073 -1.53791 0
M  V30 14256 O 1360.68 -0.255328 -1.94027 0
M  V30 14257 C 1360.98 -3.5035 -0.70638 0
M  V30 14258 C 1360.65 -4.48907 0.423429 0
M  V30 14259 C 1359.31 -4.75575 0.733586 0
M  V30 14260 C 1361.66 -5.07588 1.18338 0
M  V30 14261 C 1358.99 -5.58186 1.80679 0
M  V30 14262 C 1361.34 -5.91367 2.24651 0
M  V30 14263 C 1360.01 -6.16345 2.56272 0
M  V30 14264 H 1359.28 -0.732462 -0.112165 0
M  V30 14265 H 1361.92 -1.86798 0.421732 0
M  V30 14266 H 1360.23 -3.61335 -1.51474 0
M  V30 14267 H 1361.92 -3.82977 -1.18869 0
M  V30 14268 H 1358.51 -4.28256 0.171591 0
M  V30 14269 H 1362.7 -4.86985 0.957018 0
M  V30 14270 H 1357.95 -5.75776 2.05649 0
M  V30 14271 H 1362.13 -6.35862 2.83994 0
M  V30 14272 H 1359.76 -6.80148 3.39563 0
M  V30 14273 N 1361.33 -0.0301034 -1.57571 0
M  V30 14274 C 1362.24 0.967086 -2.1374 0
M  V30 14275 C 1363.26 1.35636 -1.0899 0
M  V30 14276 O 1364.43 1.43758 -1.41052 0
M  V30 14277 C 1361.5 2.23058 -2.65417 0
M  V30 14278 C 1360.56 1.90163 -3.84885 0
M  V30 14279 C 1359.79 3.10488 -4.34088 0
M  V30 14280 O 1360.01 4.23179 -3.8246 0
M  V30 14281 O 1358.95 2.92729 -5.25921 0
M  V30 14282 H 1362.77 0.519486 -2.99224 0
M  V30 14283 H 1360.36 0.190559 -1.4818 0
M  V30 14284 H 1362.24 2.97229 -2.98719 0
M  V30 14285 H 1360.92 2.66997 -1.83015 0
M  V30 14286 H 1359.82 1.13373 -3.56507 0
M  V30 14287 H 1361.16 1.51039 -4.68453 0
M  V30 14288 N 1362.81 1.55714 0.243056 0
M  V30 14289 C 1364.05 1.77989 0.971993 0
M  V30 14290 C 1364.39 0.596038 1.84827 0
M  V30 14291 O 1363.66 -0.40554 1.90225 0
M  V30 14292 C 1363.95 3.10178 1.82925 0
M  V30 14293 C 1363.8 4.38974 0.9809 0
M  V30 14294 C 1365.12 3.38628 2.81103 0
M  V30 14295 H 1362.24 0.64754 0.35194 0
M  V30 14296 H 1364.88 1.88449 0.242237 0
M  V30 14297 H 1363.03 3.01392 2.45143 0
M  V30 14298 H 1364.7 4.59756 0.377113 0
M  V30 14299 H 1362.94 4.3286 0.285414 0
M  V30 14300 H 1363.61 5.27858 1.61461 0
M  V30 14301 H 1366.09 3.47403 2.29021 0
M  V30 14302 H 1364.97 4.32331 3.38203 0
M  V30 14303 H 1365.23 2.5973 3.57761 0
M  V30 14304 N 1364.29 -0.50888 1.49158 0
M  V30 14305 C 1365.56 -1.27021 1.48745 0
M  V30 14306 C 1365.94 -2.10045 0.210772 0
M  V30 14307 O 1365.29 -2.13773 -0.807061 0
M  V30 14308 C 1365.5 -2.13367 2.76181 0
M  V30 14309 C 1366.85 -2.72815 3.25357 0
M  V30 14310 O 1367.87 -2.23639 2.77243 0
M  V30 14311 O 1366.73 -3.62316 4.09133 0
M  V30 14312 H 1363.83 -0.574387 0.594986 0
M  V30 14313 H 1366.37 -0.523798 1.61414 0
M  V30 14314 H 1365.14 -1.51941 3.60596 0
M  V30 14315 H 1364.77 -2.95215 2.66334 0
M  V30 14316 N 1365.76 -1.381 -0.759346 0
M  V30 14317 C 1367.18 -1.30379 -1.33635 0
M  V30 14318 C 1367.53 0.0430279 -1.96153 0
M  V30 14319 O 1366.65 0.945029 -1.94675 0
M  V30 14320 C 1367.25 -2.3611 -2.42976 0
M  V30 14321 C 1365.81 -2.31985 -2.96412 0
M  V30 14322 C 1364.95 -2.19281 -1.69739 0
M  V30 14323 H 1367.9 -1.48542 -0.558656 0
M  V30 14324 H 1367.92 -2.01493 -3.22771 0
M  V30 14325 H 1367.44 -3.34122 -1.97445 0
M  V30 14326 H 1365.54 -1.37536 -3.46287 0
M  V30 14327 H 1365.65 -3.25895 -3.51183 0
M  V30 14328 H 1364.01 -1.66035 -1.93144 0
M  V30 14329 H 1364.8 -3.19225 -1.26293 0
M  V30 14330 N 1367.24 0.986894 -1.22875 0
M  V30 14331 C 1368.18 2.07604 -0.947406 0
M  V30 14332 C 1369.15 1.62214 0.111904 0
M  V30 14333 O 1370.34 1.88488 -0.0209682 0
M  V30 14334 C 1367.46 3.3601 -0.42605 0
M  V30 14335 C 1366.51 4.00331 -1.47097 0
M  V30 14336 S 1367.34 4.40412 -3.04627 0
M  V30 14337 C 1368.5 5.7198 -2.54145 0
M  V30 14338 H 1368.73 2.31149 -1.86969 0
M  V30 14339 H 1366.27 1.1222 -1.06047 0
M  V30 14340 H 1368.22 4.10288 -0.131846 0
M  V30 14341 H 1366.88 3.10484 0.475211 0
M  V30 14342 H 1366.08 4.92809 -1.05618 0
M  V30 14343 H 1365.68 3.32403 -1.71418 0
M  V30 14344 H 1367.97 6.48602 -1.9576 0
M  V30 14345 H 1368.91 6.18293 -3.45137 0
M  V30 14346 H 1369.32 5.29669 -1.95221 0
M  V30 14347 N 1368.72 1.0394 1.18466 0
M  V30 14348 C 1370 0.65632 1.8426 0
M  V30 14349 C 1370.38 -0.864288 1.92596 0
M  V30 14350 O 1369.73 -1.76524 1.45092 0
M  V30 14351 C 1369.94 1.33067 3.22636 0
M  V30 14352 C 1371.28 1.46065 3.98686 0
M  V30 14353 O 1372.31 1.28867 3.32072 0
M  V30 14354 O 1371.17 1.74078 5.18034 0
M  V30 14355 H 1368.26 0.229484 0.794523 0
M  V30 14356 H 1370.81 1.13821 1.25868 0
M  V30 14357 H 1369.58 2.36866 3.11465 0
M  V30 14358 H 1369.2 0.837313 3.88683 0
M  V30 14359 N 1370.2 -1.34667 0.818693 0
M  V30 14360 C 1371.11 -2.33375 0.239429 0
M  V30 14361 C 1372.12 -1.62428 -0.623957 0
M  V30 14362 O 1373.3 -1.94223 -0.532854 0
M  V30 14363 C 1370.37 -3.41598 -0.59258 0
M  V30 14364 C 1369.43 -4.28301 0.292712 0
M  V30 14365 C 1368.66 -5.31356 -0.499682 0
M  V30 14366 O 1368.88 -5.43426 -1.73334 0
M  V30 14367 O 1367.82 -6.01789 0.115778 0
M  V30 14368 H 1371.64 -2.84738 1.05631 0
M  V30 14369 H 1369.23 -1.37651 0.58074 0
M  V30 14370 H 1371.11 -4.07692 -1.06607 0
M  V30 14371 H 1369.78 -2.92486 -1.38685 0
M  V30 14372 H 1368.69 -3.65145 0.81361 0
M  V30 14373 H 1370.02 -4.80843 1.05123 0
M  V30 14374 N 1371.68 -0.573274 -1.46804 0
M  V30 14375 C 1373.09 -0.144162 -1.86143 0
M  V30 14376 C 1373.44 1.29033 -1.47801 0
M  V30 14377 O 1372.56 1.97319 -0.888494 0
M  V30 14378 C 1373.16 -0.254851 -3.3784 0
M  V30 14379 C 1371.72 0.119325 -3.76211 0
M  V30 14380 C 1370.86 -0.595115 -2.70839 0
M  V30 14381 H 1373.82 -0.782057 -1.38093 0
M  V30 14382 H 1373.84 0.522321 -3.76898 0
M  V30 14383 H 1373.35 -1.29899 -3.65715 0
M  V30 14384 H 1371.45 1.16396 -3.53953 0
M  V30 14385 H 1371.56 -0.250421 -4.78445 0
M  V30 14386 H 1369.93 -0.0364028 -2.54674 0
M  V30 14387 H 1370.71 -1.64072 -3.01555 0
M  V30 14388 N 1373.15 1.5451 -0.310553 0
M  V30 14389 C 1374.38 2.04739 0.29824 0
M  V30 14390 C 1374.8 1.18737 1.46788 0
M  V30 14391 O 1374.15 0.215114 1.81228 0
M  V30 14392 C 1374.21 3.53734 0.745274 0
M  V30 14393 O 1373.93 4.36468 -0.377826 0
M  V30 14394 C 1375.43 4.20001 1.41823 0
M  V30 14395 H 1372.65 0.667997 0.0634159 0
M  V30 14396 H 1375.19 1.9942 -0.452961 0
M  V30 14397 H 1373.35 3.59383 1.44648 0
M  V30 14398 H 1373.76 5.24492 -0.0280567 0
M  V30 14399 H 1375.23 5.25747 1.68209 0
M  V30 14400 H 1375.71 3.70319 2.36137 0
M  V30 14401 H 1376.32 4.18455 0.759951 0
M  V30 14402 N 1374.63 0.0384594 1.57553 0
M  V30 14403 C 1375.56 -0.938444 2.13812 0
M  V30 14404 C 1376.54 -1.33307 1.05657 0
M  V30 14405 O 1377.73 -1.41003 1.33535 0
M  V30 14406 C 1374.86 -2.21764 2.67279 0
M  V30 14407 C 1373.81 -1.96347 3.80305 0
M  V30 14408 C 1373.14 -3.30612 4.20238 0
M  V30 14409 C 1374.44 -1.2952 5.05986 0
M  V30 14410 H 1376.13 -0.469887 2.9569 0
M  V30 14411 H 1373.68 -0.224576 1.42238 0
M  V30 14412 H 1375.63 -2.90493 3.05273 0
M  V30 14413 H 1374.36 -2.70802 1.82576 0
M  V30 14414 H 1373.02 -1.30033 3.42764 0
M  V30 14415 H 1372.66 -3.77427 3.32502 0
M  V30 14416 H 1372.36 -3.14409 4.96408 0
M  V30 14417 H 1373.89 -4.00594 4.60822 0
M  V30 14418 H 1375.3 -1.88264 5.41507 0
M  V30 14419 H 1373.7 -1.23685 5.87216 0
M  V30 14420 H 1374.77 -0.269439 4.84151 0
M  V30 14421 N 1376.11 -1.55841 -0.234795 0
M  V30 14422 C 1377.04 -1.94344 -1.29432 0
M  V30 14423 C 1378.02 -0.809912 -1.49581 0
M  V30 14424 O 1379.21 -1.07117 -1.61986 0
M  V30 14425 C 1376.34 -2.24866 -2.64675 0
M  V30 14426 C 1375.29 -3.40584 -2.59203 0
M  V30 14427 C 1374.62 -3.56678 -3.98353 0
M  V30 14428 C 1375.92 -4.75935 -2.15135 0
M  V30 14429 H 1377.61 -2.83096 -0.97454 0
M  V30 14430 H 1375.16 -1.36205 -0.467355 0
M  V30 14431 H 1377.11 -2.50392 -3.38942 0
M  V30 14432 H 1375.83 -1.32953 -2.98314 0
M  V30 14433 H 1374.49 -3.15087 -1.87393 0
M  V30 14434 H 1374.14 -2.62164 -4.29277 0
M  V30 14435 H 1373.84 -4.34503 -3.95577 0
M  V30 14436 H 1375.37 -3.84538 -4.74302 0
M  V30 14437 H 1376.78 -5.00753 -2.7914 0
M  V30 14438 H 1375.18 -5.56949 -2.23446 0
M  V30 14439 H 1376.25 -4.72182 -1.10328 0
M  V30 14440 N 1377.59 0.500963 -1.49426 0
M  V30 14441 C 1378.82 1.27725 -1.62388 0
M  V30 14442 C 1379.23 1.86893 -0.294544 0
M  V30 14443 O 1378.57 1.68571 0.73003 0
M  V30 14444 C 1378.63 2.44649 -2.63414 0
M  V30 14445 C 1378.3 2.0635 -4.0776 0
M  V30 14446 C 1379.29 1.60323 -4.94563 0
M  V30 14447 C 1376.98 2.15984 -4.53493 0
M  V30 14448 C 1378.97 1.24433 -6.25136 0
M  V30 14449 C 1376.66 1.79706 -5.8408 0
M  V30 14450 C 1377.66 1.34005 -6.69725 0
M  V30 14451 O 1377.35 0.982171 -7.97878 0
M  V30 14452 H 1377.08 0.393595 -0.549599 0
M  V30 14453 H 1379.63 0.607944 -1.96197 0
M  V30 14454 H 1377.86 3.14656 -2.24785 0
M  V30 14455 H 1379.55 3.06675 -2.65905 0
M  V30 14456 H 1380.32 1.52326 -4.60458 0
M  V30 14457 H 1376.2 2.50507 -3.86998 0
M  V30 14458 H 1379.74 0.886906 -6.91939 0
M  V30 14459 H 1375.64 1.87352 -6.17713 0
M  V30 14460 H 1376.4 1.11364 -8.10889 0
M  V30 14461 N 1379.07 1.38501 0.752011 0
M  V30 14462 C 1380.31 1.34995 1.51341 0
M  V30 14463 C 1380.65 -0.0594724 1.94109 0
M  V30 14464 O 1379.92 -1.02098 1.65548 0
M  V30 14465 C 1380.2 2.30705 2.76491 0
M  V30 14466 C 1380.06 3.80515 2.39851 0
M  V30 14467 C 1381.38 2.24521 3.78521 0
M  V30 14468 H 1378.5 0.491687 0.549011 0
M  V30 14469 H 1381.14 1.69361 0.861205 0
M  V30 14470 H 1379.29 2.01529 3.32142 0
M  V30 14471 H 1380.96 4.20371 1.89962 0
M  V30 14472 H 1379.2 3.98119 1.7229 0
M  V30 14473 H 1379.87 4.42946 3.29397 0
M  V30 14474 H 1382.35 2.50282 3.32413 0
M  V30 14475 H 1381.23 2.93598 4.63779 0
M  V30 14476 H 1381.49 1.24457 4.2422 0
M  V30 14477 N 1380.55 -0.980364 1.23396 0
M  V30 14478 C 1381.48 -2.0908 1.0396 0
M  V30 14479 C 1382.46 -1.70044 -0.0434946 0
M  V30 14480 O 1383.64 -1.93822 0.121155 0
M  V30 14481 C 1380.77 -3.41537 0.630061 0
M  V30 14482 C 1379.73 -3.94476 1.66051 0
M  V30 14483 C 1379.05 -5.23128 1.10641 0
M  V30 14484 C 1380.35 -4.23741 3.05354 0
M  V30 14485 H 1382.05 -2.25598 1.9684 0
M  V30 14486 H 1379.59 -1.08409 0.94781 0
M  V30 14487 H 1381.54 -4.18644 0.481145 0
M  V30 14488 H 1380.27 -3.24883 -0.334416 0
M  V30 14489 H 1378.93 -3.19513 1.79742 0
M  V30 14490 H 1378.58 -5.02824 0.132913 0
M  V30 14491 H 1378.28 -5.59515 1.79492 0
M  V30 14492 H 1379.8 -6.02857 0.969344 0
M  V30 14493 H 1381.21 -4.91598 2.94964 0
M  V30 14494 H 1379.61 -4.71329 3.71442 0
M  V30 14495 H 1380.68 -3.31012 3.54343 0
M  V30 14496 N 1382.02 -1.04567 -1.17913 0
M  V30 14497 C 1383.27 -0.752023 -1.88018 0
M  V30 14498 C 1383.6 0.720567 -1.8066 0
M  V30 14499 O 1382.85 1.54207 -1.20493 0
M  V30 14500 C 1383.15 -1.1699 -3.3771 0
M  V30 14501 C 1382.82 -2.64363 -3.65271 0
M  V30 14502 C 1381.48 -3.04622 -3.72503 0
M  V30 14503 C 1383.83 -3.59626 -3.77251 0
M  V30 14504 C 1381.16 -4.39023 -3.89199 0
M  V30 14505 C 1383.51 -4.93752 -3.95465 0
M  V30 14506 C 1382.18 -5.33675 -4.00933 0
M  V30 14507 H 1381.45 -0.275185 -0.688008 0
M  V30 14508 H 1384.09 -1.31161 -1.39532 0
M  V30 14509 H 1382.4 -0.529202 -3.8821 0
M  V30 14510 H 1384.1 -0.919981 -3.90304 0
M  V30 14511 H 1380.69 -2.32182 -3.60263 0
M  V30 14512 H 1384.87 -3.29665 -3.70992 0
M  V30 14513 H 1380.13 -4.69466 -3.91679 0
M  V30 14514 H 1384.3 -5.67467 -4.03676 0
M  V30 14515 H 1381.93 -6.37825 -4.13623 0
M  V30 14516 N 1383.5 1.34231 -0.825823 0
M  V30 14517 C 1384.41 2.33245 -0.251803 0
M  V30 14518 C 1385.43 1.62756 0.615334 0
M  V30 14519 O 1386.6 1.94503 0.522547 0
M  V30 14520 C 1383.67 3.41908 0.574456 0
M  V30 14521 C 1382.73 4.2814 -0.315422 0
M  V30 14522 C 1381.96 5.31613 0.471496 0
M  V30 14523 O 1382.19 5.44337 1.70449 0
M  V30 14524 O 1381.12 6.01719 -0.147691 0
M  V30 14525 H 1384.95 2.84174 -1.07139 0
M  V30 14526 H 1382.53 1.37341 -0.588032 0
M  V30 14527 H 1384.41 4.08252 1.04444 0
M  V30 14528 H 1383.09 2.93217 1.37132 0
M  V30 14529 H 1381.99 3.64709 -0.832963 0
M  V30 14530 H 1383.33 4.80279 -1.07672 0
M  V30 14531 N 1384.98 0.581051 1.46498 0
M  V30 14532 C 1386.23 0.0660934 2.02692 0
M  V30 14533 C 1386.56 -1.28985 1.45178 0
M  V30 14534 O 1385.83 -1.84479 0.616247 0
M  V30 14535 C 1386.12 -0.00145411 3.601 0
M  V30 14536 C 1385.97 1.38327 4.28002 0
M  V30 14537 C 1387.29 -0.702914 4.3445 0
M  V30 14538 H 1384.41 0.0254923 0.736559 0
M  V30 14539 H 1387.05 0.74793 1.7466 0
M  V30 14540 H 1385.2 -0.582118 3.84114 0
M  V30 14541 H 1386.87 2.00897 4.15257 0
M  V30 14542 H 1385.11 1.95144 3.87429 0
M  V30 14543 H 1385.79 1.28849 5.36751 0
M  V30 14544 H 1388.26 -0.209641 4.15572 0
M  V30 14545 H 1387.14 -0.719202 5.44168 0
M  V30 14546 H 1387.4 -1.76389 4.05388 0
M  V30 14547 N 1386.46 -1.54343 0.318742 0
M  V30 14548 C 1387.7 -2.0048 -0.285276 0
M  V30 14549 C 1388.03 -1.20698 -1.5252 0
M  V30 14550 O 1387.29 -0.275893 -1.93746 0
M  V30 14551 C 1387.59 -3.51079 -0.669181 0
M  V30 14552 C 1387.25 -4.48433 0.471017 0
M  V30 14553 C 1385.91 -4.74771 0.783985 0
M  V30 14554 C 1388.27 -5.06304 1.23715 0
M  V30 14555 C 1385.59 -5.56239 1.86589 0
M  V30 14556 C 1387.95 -5.88951 2.30911 0
M  V30 14557 C 1386.61 -6.13592 2.62794 0
M  V30 14558 H 1385.88 -0.73361 -0.10439 0
M  V30 14559 H 1388.53 -1.86341 0.441521 0
M  V30 14560 H 1386.83 -3.62921 -1.47633 0
M  V30 14561 H 1388.53 -3.84216 -1.148 0
M  V30 14562 H 1385.12 -4.2805 0.217004 0
M  V30 14563 H 1389.3 -4.85943 1.00862 0
M  V30 14564 H 1384.56 -5.73563 2.11744 0
M  V30 14565 H 1388.73 -6.32814 2.90722 0
M  V30 14566 H 1386.36 -6.76508 3.46757 0
M  V30 14567 N 1387.94 -0.0468143 -1.5753 0
M  V30 14568 C 1389.21 0.667567 -1.83856 0
M  V30 14569 C 1389.59 1.89297 -0.934346 0
M  V30 14570 O 1388.94 2.28499 0.00570067 0
M  V30 14571 C 1389.15 1.029 -3.33485 0
M  V30 14572 C 1390.5 1.41315 -4.00394 0
M  V30 14573 O 1391.52 1.12147 -3.38085 0
M  V30 14574 O 1390.38 1.95732 -5.10246 0
M  V30 14575 H 1387.48 0.329112 -0.758692 0
M  V30 14576 H 1390.02 -0.0758456 -1.6953 0
M  V30 14577 H 1388.79 0.157617 -3.90982 0
M  V30 14578 H 1388.42 1.83 -3.52982 0
M  V30 14579 N 1389.41 1.55964 0.226527 0
M  V30 14580 C 1390.66 1.7901 0.95306 0
M  V30 14581 C 1390.99 0.615608 1.84184 0
M  V30 14582 O 1390.27 -0.385341 1.90645 0
M  V30 14583 C 1390.55 3.12101 1.79624 0
M  V30 14584 C 1390.4 4.3999 0.934286 0
M  V30 14585 C 1391.72 3.4159 2.77496 0
M  V30 14586 H 1388.84 0.651236 0.345052 0
M  V30 14587 H 1391.48 1.88696 0.222236 0
M  V30 14588 H 1389.63 3.03975 2.41933 0
M  V30 14589 H 1391.31 4.6013 0.328328 0
M  V30 14590 H 1389.55 4.33138 0.239487 0
M  V30 14591 H 1390.22 5.29541 1.55853 0
M  V30 14592 H 1392.7 3.49812 2.25323 0
M  V30 14593 H 1391.57 4.35894 3.33599 0
M  V30 14594 H 1391.83 2.6351 3.54986 0
M  V30 14595 N 1390.89 -0.493031 1.4969 0
M  V30 14596 C 1392.14 -1.24849 1.59814 0
M  V30 14597 C 1392.47 -1.92059 0.287555 0
M  V30 14598 O 1391.75 -1.81099 -0.709471 0
M  V30 14599 C 1392.03 -2.30929 2.76304 0
M  V30 14600 C 1391.88 -1.68167 4.17181 0
M  V30 14601 C 1393.2 -3.32427 2.8841 0
M  V30 14602 H 1390.32 -0.452553 0.581691 0
M  V30 14603 H 1392.96 -0.545455 1.82002 0
M  V30 14604 H 1391.11 -2.9089 2.57517 0
M  V30 14605 H 1392.78 -1.11971 4.47504 0
M  V30 14606 H 1391.03 -0.985496 4.22458 0
M  V30 14607 H 1391.7 -2.45148 4.94577 0
M  V30 14608 H 1394.17 -2.82464 3.05537 0
M  V30 14609 H 1393.05 -4.04004 3.71581 0
M  V30 14610 H 1393.31 -3.95234 1.98097 0
M  V30 14611 N 1392.37 -1.38898 -0.744656 0
M  V30 14612 C 1393.79 -1.20291 -1.04892 0
M  V30 14613 C 1393.99 -0.0577705 -2.01417 0
M  V30 14614 O 1393.04 0.593638 -2.45422 0
M  V30 14615 C 1394.36 -2.53302 -1.62045 0
M  V30 14616 C 1395.9 -2.60063 -1.74173 0
M  V30 14617 C 1396.38 -3.93272 -2.34736 0
M  V30 14618 N 1397.87 -3.9486 -2.42157 0
M  V30 14619 C 1398.6 -4.94698 -2.89933 0
M  V30 14620 N 1398.1 -6.04934 -3.37678 0
M  V30 14621 N 1399.89 -4.82083 -2.89055 0
M  V30 14622 H 1392.04 -2.12144 -0.104294 0
M  V30 14623 H 1394.31 -0.941725 -0.108895 0
M  V30 14624 H 1394.01 -3.376 -0.985868 0
M  V30 14625 H 1393.89 -2.72335 -2.60986 0
M  V30 14626 H 1396.27 -1.76155 -2.36756 0
M  V30 14627 H 1396.36 -2.44889 -0.739115 0
M  V30 14628 H 1396 -4.77607 -1.72784 0
M  V30 14629 H 1395.93 -4.05762 -3.35656 0
M  V30 14630 H 1398.42 -3.15243 -2.08399 0
M  V30 14631 H 1398.73 -6.77036 -3.72616 0
M  V30 14632 H 1397.08 -6.08541 -3.35712 0
M  V30 14633 H 1400.27 -3.9507 -2.51072 0
M  V30 14634 H 1400.44 -5.60039 -3.25975 0
M  V30 14635 N 1393.85 0.973806 -1.23914 0
M  V30 14636 C 1395.09 1.71852 -1.07678 0
M  V30 14637 C 1395.43 1.90357 0.384425 0
M  V30 14638 O 1394.7 1.46063 1.28436 0
M  V30 14639 C 1394.99 3.1129 -1.81026 0
M  V30 14640 C 1394.84 3.00315 -3.3486 0
M  V30 14641 C 1396.16 4.10835 -1.57805 0
M  V30 14642 H 1393.28 0.623749 -0.392564 0
M  V30 14643 H 1395.92 1.13325 -1.52504 0
M  V30 14644 H 1394.07 3.61255 -1.42922 0
M  V30 14645 H 1395.74 2.57823 -3.82524 0
M  V30 14646 H 1393.98 2.36667 -3.63553 0
M  V30 14647 H 1394.65 3.9907 -3.81376 0
M  V30 14648 H 1397.13 3.69705 -1.90939 0
M  V30 14649 H 1396.01 5.06478 -2.11591 0
M  V30 14650 H 1396.27 4.39091 -0.514894 0
M  V30 14651 N 1395.33 1.05191 1.17357 0
M  V30 14652 C 1396.28 0.623047 2.19322 0
M  V30 14653 C 1397.26 -0.340467 1.57257 0
M  V30 14654 O 1398.45 -0.157698 1.76296 0
M  V30 14655 C 1395.58 -0.000731889 3.433 0
M  V30 14656 C 1394.67 0.986608 4.12464 0
M  V30 14657 N 1395.06 2.158 4.57454 0
M  V30 14658 C 1393.36 0.815082 4.38489 0
M  V30 14659 C 1394.06 2.78262 5.10828 0
M  V30 14660 N 1393.03 2.0606 5.03031 0
M  V30 14661 H 1396.84 1.51555 2.5181 0
M  V30 14662 H 1394.35 0.922048 1.33686 0
M  V30 14663 H 1396.35 -0.325738 4.15625 0
M  V30 14664 H 1395.01 -0.888627 3.12304 0
M  V30 14665 H 1396.02 2.53634 4.51542 0
M  V30 14666 H 1392.69 -0.021765 4.17494 0
M  V30 14667 H 1394.08 3.77599 5.55759 0
M  V30 14668 N 1396.8 -1.33791 0.83293 0
M  V30 14669 C 1397.74 -2.28148 0.219336 0
M  V30 14670 C 1398.75 -1.51477 -0.596529 0
M  V30 14671 O 1399.94 -1.73377 -0.424571 0
M  V30 14672 C 1397.04 -3.31373 -0.710305 0
M  V30 14673 C 1396.21 -4.37352 0.0649215 0
M  V30 14674 C 1395.27 -5.20279 -0.78716 0
M  V30 14675 O 1394.3 -5.68741 -0.228511 0
M  V30 14676 N 1395.5 -5.40973 -2.10544 0
M  V30 14677 H 1398.26 -2.81443 1.03004 0
M  V30 14678 H 1395.82 -1.46421 0.690831 0
M  V30 14679 H 1397.82 -3.83752 -1.28517 0
M  V30 14680 H 1396.39 -2.78398 -1.42173 0
M  V30 14681 H 1395.61 -3.85553 0.821144 0
M  V30 14682 H 1396.89 -5.05271 0.598199 0
M  V30 14683 H 1396.29 -5.03291 -2.58292 0
M  V30 14684 H 1394.85 -5.96432 -2.62893 0
M  V30 14685 N 1398.28 -0.588812 -1.46187 0
M  V30 14686 C 1399.69 -0.163897 -1.85979 0
M  V30 14687 C 1400.04 1.27458 -1.49161 0
M  V30 14688 O 1399.17 1.96365 -0.909372 0
M  V30 14689 C 1399.76 -0.29067 -3.37551 0
M  V30 14690 C 1398.32 0.0794165 -3.76316 0
M  V30 14691 C 1397.47 -0.623807 -2.70192 0
M  V30 14692 H 1400.42 -0.79666 -1.37255 0
M  V30 14693 H 1400.44 0.482316 -3.77431 0
M  V30 14694 H 1399.95 -1.33771 -3.64317 0
M  V30 14695 H 1398.06 1.12636 -3.55168 0
M  V30 14696 H 1398.17 -0.301153 -4.78153 0
M  V30 14697 H 1396.53 -0.0634124 -2.54621 0
M  V30 14698 H 1397.32 -1.67261 -2.99797 0
M  V30 14699 N 1399.76 1.54172 -0.326923 0
M  V30 14700 C 1400.71 2.21189 0.553126 0
M  V30 14701 C 1401.69 1.19356 1.07903 0
M  V30 14702 O 1402.89 1.44972 1.01549 0
M  V30 14703 C 1400.02 2.97573 1.71188 0
M  V30 14704 C 1399.1 4.06748 1.20071 0
M  V30 14705 N 1399.49 5.0414 0.409473 0
M  V30 14706 C 1397.79 4.20759 1.47913 0
M  V30 14707 C 1398.49 5.81546 0.134036 0
M  V30 14708 N 1397.47 5.38796 0.721097 0
M  V30 14709 H 1401.27 2.93841 -0.0586462 0
M  V30 14710 H 1398.78 1.61855 -0.132947 0
M  V30 14711 H 1400.78 3.44072 2.35415 0
M  V30 14712 H 1399.44 2.26443 2.32709 0
M  V30 14713 H 1400.45 5.17874 0.0520181 0
M  V30 14714 H 1397.13 3.60844 2.09995 0
M  V30 14715 H 1398.52 6.70013 -0.503156 0
M  V30 14716 N 1401.24 0.0551678 1.57503 0
M  V30 14717 C 1402.65 -0.3014 1.56728 0
M  V30 14718 C 1402.85 -1.71169 1.06317 0
M  V30 14719 O 1401.91 -2.4197 0.721566 0
M  V30 14720 C 1403.22 -0.12622 3.00435 0
M  V30 14721 C 1404.77 -0.197022 3.12379 0
M  V30 14722 C 1405.25 -0.0503235 4.57972 0
M  V30 14723 N 1406.74 -0.106471 4.63078 0
M  V30 14724 C 1407.47 -0.0171325 5.73397 0
M  V30 14725 N 1406.97 0.124781 6.92688 0
M  V30 14726 N 1408.76 -0.0730028 5.62053 0
M  V30 14727 H 1400.91 0.977072 1.88592 0
M  V30 14728 H 1403.18 0.37963 0.868668 0
M  V30 14729 H 1402.88 0.846286 3.41366 0
M  V30 14730 H 1402.76 -0.885574 3.66657 0
M  V30 14731 H 1405.14 -1.16 2.71345 0
M  V30 14732 H 1405.22 0.593155 2.48828 0
M  V30 14733 H 1404.87 0.909352 4.99693 0
M  V30 14734 H 1404.8 -0.859695 5.19535 0
M  V30 14735 H 1407.29 -0.215241 3.77287 0
M  V30 14736 H 1407.6 0.185548 7.72577 0
M  V30 14737 H 1405.95 0.15992 6.94816 0
M  V30 14738 H 1409.14 -0.182456 4.67744 0
M  V30 14739 H 1409.31 7.85052e-05 6.48 0
M  V30 14740 N 1402.72 -1.56081 -0.218252 0
M  V30 14741 C 1403.96 -1.78893 -0.940296 0
M  V30 14742 C 1404.29 -0.62425 -1.84738 0
M  V30 14743 O 1403.56 0.358686 -1.92588 0
M  V30 14744 H 1402.14 -0.659828 -0.350193 0
M  V30 14745 H 1404.8 -1.93546 -0.229316 0
M  V30 14746 H 1403.89 -2.71167 -1.54516 0
M  V30 14747 N 1404.2 0.485086 -1.49949 0
M  V30 14748 C 1405.44 1.23999 -1.60474 0
M  V30 14749 C 1405.77 1.91904 -0.297736 0
M  V30 14750 O 1405.05 1.81472 0.699857 0
M  V30 14751 C 1405.33 2.2946 -2.77525 0
M  V30 14752 C 1405.19 1.65952 -4.18067 0
M  V30 14753 C 1406.5 3.30893 -2.90169 0
M  V30 14754 H 1403.62 0.449462 -0.584083 0
M  V30 14755 H 1406.27 0.535795 -1.82289 0
M  V30 14756 H 1404.42 2.89521 -2.59056 0
M  V30 14757 H 1406.09 1.09596 -4.48092 0
M  V30 14758 H 1404.33 0.963079 -4.22974 0
M  V30 14759 H 1405 2.42521 -4.9587 0
M  V30 14760 H 1407.48 2.8084 -3.07031 0
M  V30 14761 H 1406.35 4.02027 -3.73718 0
M  V30 14762 H 1406.61 3.94178 -2.0019 0
M  V30 14763 N 1405.67 1.39291 0.737279 0
M  V30 14764 C 1406.92 1.35702 1.49224 0
M  V30 14765 C 1407.24 -0.0450282 1.95548 0
M  V30 14766 O 1408.44 -0.203495 2.70736 0
M  V30 14767 C 1406.9 2.38387 2.69629 0
M  V30 14768 C 1406.51 3.84295 2.30263 0
M  V30 14769 C 1408.25 2.4387 3.47459 0
M  V30 14770 C 1406.16 4.78626 3.47377 0
M  V30 14771 H 1405.09 0.50449 0.560362 0
M  V30 14772 H 1407.74 1.64926 0.804466 0
M  V30 14773 H 1406.12 2.0223 3.40469 0
M  V30 14774 H 1407.29 4.2948 1.66984 0
M  V30 14775 H 1405.61 3.82085 1.6553 0
M  V30 14776 H 1408.21 3.11539 4.34566 0
M  V30 14777 H 1408.55 1.46253 3.89764 0
M  V30 14778 H 1409.08 2.78908 2.83646 0
M  V30 14779 H 1405.82 5.77497 3.10124 0
M  V30 14780 H 1405.34 4.38123 4.09645 0
M  V30 14781 H 1407.02 4.9742 4.13742 0
M  V30 14782 N 1407.15 -0.967221 1.24429 0
M  V30 14783 C 1408.06 -2.09582 1.05417 0
M  V30 14784 C 1409.08 -1.73999 -0.00516127 0
M  V30 14785 O 1410.25 -2.00472 0.193115 0
M  V30 14786 C 1407.32 -3.40327 0.661697 0
M  V30 14787 C 1406.38 -3.89854 1.79756 0
M  V30 14788 C 1405.61 -5.1436 1.42372 0
M  V30 14789 O 1405.84 -5.69536 0.313754 0
M  V30 14790 O 1404.77 -5.58283 2.24952 0
M  V30 14791 H 1408.6 -2.28517 2.00034 0
M  V30 14792 H 1406.18 -1.07978 1.03253 0
M  V30 14793 H 1408.06 -4.18943 0.454369 0
M  V30 14794 H 1406.74 -3.22691 -0.255348 0
M  V30 14795 H 1405.64 -3.12297 2.05964 0
M  V30 14796 H 1406.98 -4.11967 2.69339 0
M  V30 14797 N 1408.63 -1.05812 -1.16797 0
M  V30 14798 C 1409.86 -0.792519 -1.9112 0
M  V30 14799 C 1410.27 0.652549 -1.77164 0
M  V30 14800 O 1409.63 1.44633 -1.113 0
M  V30 14801 C 1409.68 -1.17172 -3.41984 0
M  V30 14802 O 1409.4 -2.56008 -3.55516 0
M  V30 14803 C 1410.9 -0.933162 -4.33367 0
M  V30 14804 H 1408.12 -0.28768 -0.606202 0
M  V30 14805 H 1410.67 -1.41046 -1.48075 0
M  V30 14806 H 1408.82 -0.598413 -3.8275 0
M  V30 14807 H 1409.24 -2.71053 -4.49033 0
M  V30 14808 H 1410.71 -1.24817 -5.37703 0
M  V30 14809 H 1411.19 0.131345 -4.39004 0
M  V30 14810 H 1411.79 -1.49062 -3.98322 0
M  V30 14811 N 1410.11 1.33347 -0.840014 0
M  V30 14812 C 1411.35 1.98037 -0.43692 0
M  V30 14813 C 1411.69 1.66382 1.00154 0
M  V30 14814 O 1410.96 0.944311 1.70038 0
M  V30 14815 C 1411.24 3.54012 -0.65937 0
M  V30 14816 C 1411.1 3.9535 -2.14518 0
M  V30 14817 C 1412.42 4.39972 -0.106258 0
M  V30 14818 H 1409.54 0.719373 -0.160221 0
M  V30 14819 H 1412.18 1.57969 -1.05574 0
M  V30 14820 H 1410.33 3.88274 -0.132633 0
M  V30 14821 H 1412 3.7134 -2.73687 0
M  V30 14822 H 1410.24 3.4504 -2.62926 0
M  V30 14823 H 1410.91 5.03992 -2.25158 0
M  V30 14824 H 1413.39 4.12362 -0.556511 0
M  V30 14825 H 1412.27 5.48125 -0.291583 0
M  V30 14826 H 1412.53 4.30872 0.990032 0
M  V30 14827 N 1411.59 0.596556 1.45873 0
M  V30 14828 C 1412.82 0.093357 2.06389 0
M  V30 14829 C 1413.22 -1.2229 1.44367 0
M  V30 14830 O 1412.57 -1.75332 0.548131 0
M  V30 14831 C 1412.63 -0.132256 3.59257 0
M  V30 14832 C 1412.29 1.10051 4.43551 0
M  V30 14833 C 1413.29 2.01598 4.79223 0
M  V30 14834 C 1410.97 1.32625 4.84475 0
M  V30 14835 C 1412.97 3.14054 5.54661 0
M  V30 14836 C 1410.66 2.45384 5.5967 0
M  V30 14837 C 1411.65 3.35927 5.94678 0
M  V30 14838 O 1411.34 4.46726 6.6835 0
M  V30 14839 H 1411.07 0.0608944 0.673252 0
M  V30 14840 H 1413.63 0.821009 1.88278 0
M  V30 14841 H 1411.86 -0.914678 3.75727 0
M  V30 14842 H 1413.55 -0.585681 4.01652 0
M  V30 14843 H 1414.31 1.85379 4.48174 0
M  V30 14844 H 1410.19 0.630522 4.56668 0
M  V30 14845 H 1413.74 3.8475 5.81904 0
M  V30 14846 H 1409.63 2.6156 5.90133 0
M  V30 14847 H 1410.4 4.45268 6.86789 0
M  V30 14848 N 1413.06 -1.53996 0.335095 0
M  V30 14849 C 1413.99 -2.2768 -0.518087 0
M  V30 14850 C 1414.97 -1.28915 -1.10972 0
M  V30 14851 O 1416.16 -1.57745 -1.1327 0
M  V30 14852 C 1413.29 -3.04327 -1.67339 0
M  V30 14853 C 1412.24 -4.10525 -1.2105 0
M  V30 14854 C 1411.57 -4.75078 -2.45366 0
M  V30 14855 C 1412.87 -5.21337 -0.317055 0
M  V30 14856 H 1414.56 -2.99244 0.0965669 0
M  V30 14857 H 1412.11 -1.4392 0.0478842 0
M  V30 14858 H 1414.06 -3.54608 -2.27664 0
M  V30 14859 H 1412.79 -2.30399 -2.31481 0
M  V30 14860 H 1411.45 -3.61144 -0.630124 0
M  V30 14861 H 1411.09 -3.97754 -3.07897 0
M  V30 14862 H 1410.79 -5.46822 -2.1508 0
M  V30 14863 H 1412.32 -5.2814 -3.06432 0
M  V30 14864 H 1413.73 -5.67305 -0.826905 0
M  V30 14865 H 1412.13 -6.00006 -0.106458 0
M  V30 14866 H 1413.2 -4.80536 0.649068 0
M  V30 14867 N 1414.54 -0.0635198 -1.57472 0
M  V30 14868 C 1415.96 0.293084 -1.56886 0
M  V30 14869 C 1416.16 1.70603 -1.07224 0
M  V30 14870 O 1415.21 2.41584 -0.734388 0
M  V30 14871 C 1416.53 0.110286 -3.00498 0
M  V30 14872 C 1418.07 0.180453 -3.12479 0
M  V30 14873 C 1418.55 0.0260354 -4.57993 0
M  V30 14874 N 1420.04 0.0819109 -4.63128 0
M  V30 14875 C 1420.78 -0.0132764 -5.73398 0
M  V30 14876 N 1420.27 -0.161514 -6.92612 0
M  V30 14877 N 1422.06 0.0431948 -5.62083 0
M  V30 14878 H 1414.22 -0.98706 -1.88072 0
M  V30 14879 H 1416.48 -0.384232 -0.866643 0
M  V30 14880 H 1416.18 -0.864378 -3.40913 0
M  V30 14881 H 1416.06 0.866117 -3.67122 0
M  V30 14882 H 1418.45 1.1456 -2.71956 0
M  V30 14883 H 1418.53 -0.606342 -2.4851 0
M  V30 14884 H 1418.17 -0.935839 -4.99204 0
M  V30 14885 H 1418.1 0.832131 -5.19984 0
M  V30 14886 H 1420.59 0.195229 -3.77395 0
M  V30 14887 H 1420.9 -0.226517 -7.72468 0
M  V30 14888 H 1419.25 -0.196766 -6.94721 0
M  V30 14889 H 1422.44 0.157648 -4.67834 0
M  V30 14890 H 1422.61 -0.0344435 -6.47991 0
M  V30 14891 N 1416.02 1.56195 0.209972 0
M  V30 14892 C 1417.25 1.8384 0.949228 0
M  V30 14893 C 1417.66 0.644141 1.77472 0
M  V30 14894 O 1417.02 -0.387276 1.78344 0
M  V30 14895 C 1417.07 3.10131 1.85745 0
M  V30 14896 O 1416.79 4.2495 1.06531 0
M  V30 14897 C 1418.29 3.50847 2.70963 0
M  V30 14898 H 1415.51 0.610856 0.277662 0
M  V30 14899 H 1418.06 2.03295 0.221708 0
M  V30 14900 H 1416.21 2.92618 2.53877 0
M  V30 14901 H 1416.63 4.96769 1.68287 0
M  V30 14902 H 1418.1 4.4222 3.30372 0
M  V30 14903 H 1418.58 2.73139 3.43936 0
M  V30 14904 H 1419.18 3.7084 2.08226 0
M  V30 14905 N 1417.5 -0.477127 1.50204 0
M  V30 14906 C 1418.91 -1.05815 1.53819 0
M  V30 14907 C 1419.26 -1.93264 0.338169 0
M  V30 14908 O 1418.38 -2.09305 -0.549576 0
M  V30 14909 C 1418.98 -1.92577 2.78746 0
M  V30 14910 C 1417.54 -2.45799 2.85061 0
M  V30 14911 C 1416.69 -1.23994 2.48034 0
M  V30 14912 H 1419.64 -0.259998 1.56556 0
M  V30 14913 H 1419.66 -2.7757 2.6026 0
M  V30 14914 H 1419.17 -1.28904 3.66068 0
M  V30 14915 H 1417.27 -3.13042 2.02077 0
M  V30 14916 H 1417.38 -2.81318 3.8781 0
M  V30 14917 H 1415.75 -1.5728 2.00338 0
M  V30 14918 H 1416.53 -0.619917 3.37657 0
M  V30 14919 N 1418.98 -1.3968 -0.729882 0
M  V30 14920 C 1420.22 -1.37182 -1.48954 0
M  V30 14921 C 1420.55 0.0305728 -1.94476 0
M  V30 14922 O 1419.81 1.0124 -1.67478 0
M  V30 14923 C 1420.11 -2.29499 -2.7398 0
M  V30 14924 C 1419.77 -3.77034 -2.47298 0
M  V30 14925 C 1418.43 -4.17232 -2.39731 0
M  V30 14926 C 1420.79 -4.70325 -2.24597 0
M  V30 14927 C 1418.11 -5.48777 -2.07511 0
M  V30 14928 C 1420.47 -6.02153 -1.93893 0
M  V30 14929 C 1419.13 -6.41409 -1.84798 0
M  V30 14930 H 1418.4 -0.501985 -0.545061 0
M  V30 14931 H 1421.05 -1.72226 -0.837294 0
M  V30 14932 H 1419.35 -1.87592 -3.43972 0
M  V30 14933 H 1421.05 -2.24857 -3.32024 0
M  V30 14934 H 1417.64 -3.45177 -2.54069 0
M  V30 14935 H 1421.82 -4.40097 -2.29408 0
M  V30 14936 H 1417.08 -5.78109 -1.98996 0
M  V30 14937 H 1421.25 -6.73966 -1.75337 0
M  V30 14938 H 1418.88 -7.43258 -1.59598 0
M  V30 14939 N 1420.45 0.960609 -1.2494 0
M  V30 14940 C 1421.68 1.7446 -1.12153 0
M  V30 14941 C 1422.1 1.85335 0.321315 0
M  V30 14942 O 1421.46 1.32944 1.23271 0
M  V30 14943 C 1421.51 3.13945 -1.774 0
M  V30 14944 O 1420.61 3.9882 -1.04958 0
M  V30 14945 H 1419.96 0.536007 -0.391909 0
M  V30 14946 H 1422.49 1.2045 -1.65388 0
M  V30 14947 H 1422.5 3.64434 -1.83444 0
M  V30 14948 H 1421.17 3.05346 -2.82377 0
M  V30 14949 H 1419.75 3.57293 -1.06752 0
M  V30 14950 N 1421.93 1.0643 1.16234 0
M  V30 14951 C 1422.9 0.680383 2.18869 0
M  V30 14952 C 1423.9 -0.274591 1.58438 0
M  V30 14953 O 1425.09 -0.0567907 1.74107 0
M  V30 14954 C 1422.22 0.00134091 3.409 0
M  V30 14955 H 1423.41 1.58894 2.54347 0
M  V30 14956 H 1420.96 0.859688 1.30534 0
M  V30 14957 H 1421.7 -0.919903 3.1098 0
M  V30 14958 H 1421.48 0.688057 3.86016 0
M  V30 14959 H 1422.97 -0.252938 4.16833 0
M  V30 14960 N 1423.41 -1.329 0.847073 0
M  V30 14961 C 1424.66 -1.9712 0.445872 0
M  V30 14962 C 1424.98 -1.67398 -1.00014 0
M  V30 14963 O 1424.25 -0.977204 -1.69787 0
M  V30 14964 H 1422.83 -0.729247 0.161887 0
M  V30 14965 H 1425.49 -1.62118 1.08184 0
M  V30 14966 H 1424.59 -3.06575 0.584676 0
M  V30 14967 N 1424.89 -0.604284 -1.45555 0
M  V30 14968 C 1425.84 0.129013 -2.32242 0
M  V30 14969 C 1426.83 0.862933 -1.45773 0
M  V30 14970 O 1428.04 0.778874 -1.62276 0
M  V30 14971 H 1424.41 0.0604661 -0.749565 0
M  V30 14972 H 1426.38 -0.620603 -2.91875 0
M  V30 14973 C 1425.13 1.11516 -3.29332 0
M  V30 14974 H 1424.45 0.559849 -3.95861 0
M  V30 14975 H 1425.89 1.59824 -3.92724 0
M  V30 14976 C 1424.35 2.18706 -2.5626 0
M  V30 14977 O 1424.88 3.26397 -2.34154 0
M  V30 14978 N 1423.09 1.93899 -2.16452 0
M  V30 14979 H 1422.64 1.0633 -2.34631 0
M  V30 14980 H 1422.59 2.65824 -1.67884 0
M  V30 14981 N 1426.37 1.53816 -0.343257 0
M  V30 14982 C 1427.33 2.23654 0.501161 0
M  V30 14983 C 1428.33 1.23664 1.02781 0
M  V30 14984 O 1429.52 1.48104 0.917103 0
M  V30 14985 C 1426.65 2.95596 1.69812 0
M  V30 14986 H 1427.84 2.997 -0.109626 0
M  V30 14987 H 1425.4 1.56013 -0.0946011 0
M  V30 14988 H 1426.13 2.23736 2.34761 0
M  V30 14989 H 1425.92 3.68938 1.32768 0
M  V30 14990 H 1427.41 3.48748 2.29706 0
M  V30 14991 N 1427.84 0.0718701 1.57436 0
M  V30 14992 C 1429.07 -0.606253 1.97819 0
M  V30 14993 C 1429.49 -1.63144 0.950233 0
M  V30 14994 O 1428.84 -1.82391 -0.0631051 0
M  V30 14995 C 1428.9 -1.27476 3.38278 0
M  V30 14996 O 1428.62 -0.290603 4.37135 0
M  V30 14997 C 1430.12 -2.0407 3.93536 0
M  V30 14998 H 1427.34 -0.164305 0.650573 0
M  V30 14999 H 1429.88 0.144295 2.0399 0
M  V30 15000 H 1428.04 -1.97639 3.33193 0
M  V30 15001 H 1428.45 -0.77022 5.18814 0
M  V30 15002 H 1429.92 -2.46237 4.94036 0
M  V30 15003 H 1430.4 -2.89728 3.30083 0
M  V30 15004 H 1431.01 -1.38773 4.02022 0
M  V30 15005 N 1429.32 -1.56304 -0.201686 0
M  V30 15006 C 1430.55 -1.84341 -0.939465 0
M  V30 15007 C 1430.97 -0.653544 -1.77128 0
M  V30 15008 O 1430.32 0.377813 -1.78546 0
M  V30 15009 C 1430.37 -3.11111 -1.84098 0
M  V30 15010 O 1430.09 -4.25509 -1.04276 0
M  V30 15011 C 1431.6 -3.52279 -2.69099 0
M  V30 15012 H 1428.82 -0.61232 -0.274419 0
M  V30 15013 H 1431.36 -2.03409 -0.210924 0
M  V30 15014 H 1429.51 -2.9396 -2.52322 0
M  V30 15015 H 1429.93 -4.97655 -1.6565 0
M  V30 15016 H 1431.4 -4.43965 -3.28023 0
M  V30 15017 H 1431.88 -2.74959 -3.42482 0
M  V30 15018 H 1432.49 -3.71939 -2.06256 0
M  V30 15019 O 1430.84 0.346968 -1.57729 0
M  V30 15020 H 1431.53 0.99676 -1.66085 0
M  V30 END ATOM
M  V30 BEGIN BOND
M  V30 END BOND
M  V30 END CTAB
M  END
$$$$
