drugbank_target|Q9NYL2 Mitogen-activated protein kinase kinase kinase MLT (DB01254; DB12010)
 OpenBabel12092121033D

  0  0  0     0  0            999 V3000
M  V30 BEGIN CTAB
M  V30 COUNTS 12710 12865 0 0 0
M  V30 BEGIN ATOM
M  V30 1 H -0.908 1.98254 -0.117106 0
M  V30 2 N 0 1.576 0 0
M  V30 3 C 0.933 2.03868 1.02534 0
M  V30 4 C 1.911 0.928543 1.3348 0
M  V30 5 O 3.095 1.19667 1.45644 0
M  V30 6 C 0.222 2.43627 2.35294 0
M  V30 7 C -0.732 3.65373 2.2001 0
M  V30 8 S 0.101 5.13292 1.52614 0
M  V30 9 C 1.257 5.56322 2.86805 0
M  V30 10 H 1.49 2.90518 0.631377 0
M  V30 11 H -0.977 1.52953 0.210867 0
M  V30 12 H 0.981 2.67203 3.11629 0
M  V30 13 H -0.358 1.57376 2.7183 0
M  V30 14 H -1.165 3.90944 3.18086 0
M  V30 15 H -1.563 3.418 1.51819 0
M  V30 16 H 0.729 5.58782 3.83104 0
M  V30 17 H 1.672 6.56266 2.65933 0
M  V30 18 H 2.08 4.83886 2.90714 0
M  V30 19 N 1.4781 -0.272755 1.55222 0
M  V30 20 C 2.7031 -1.02683 1.80197 0
M  V30 21 C 3.1281 -1.79142 0.573551 0
M  V30 22 O 2.4861 -1.74917 -0.476849 0
M  V30 23 C 2.5341 -1.9609 3.02624 0
M  V30 24 O 1.6381 -3.04863 2.77727 0
M  V30 25 H 0.9791 -0.293557 0.595584 0
M  V30 26 H 3.5091 -0.30159 2.02365 0
M  V30 27 H 3.5191 -2.38039 3.31363 0
M  V30 28 H 2.1941 -1.39851 3.91682 0
M  V30 29 H 0.7711 -2.67228 2.60084 0
M  V30 30 N 2.9562 -1.48159 -0.537278 0
M  V30 31 C 4.1812 -1.59707 -1.32319 0
M  V30 32 C 4.6062 -0.254859 -1.86365 0
M  V30 33 O 3.9642 0.772378 -1.64024 0
M  V30 34 C 4.0122 -2.6412 -2.45505 0
M  V30 35 O 3.1162 -2.20774 -3.48328 0
M  V30 36 H 2.4572 -0.535791 -0.392204 0
M  V30 37 H 4.9872 -1.94092 -0.647268 0
M  V30 38 H 4.9972 -2.85166 -2.91795 0
M  V30 39 H 3.6722 -3.61567 -2.05528 0
M  V30 40 H 2.2492 -2.09911 -3.08207 0
M  V30 41 N 4.4343 0.785586 -1.36625 0
M  V30 42 C 5.3643 1.91259 -1.33949 0
M  V30 43 C 6.3453 1.68795 -0.210325 0
M  V30 44 O 7.5303 1.89854 -0.408561 0
M  V30 45 C 4.6603 3.28339 -1.13186 0
M  V30 46 C 3.6143 3.65335 -2.22967 0
M  V30 47 C 2.9403 5.00806 -1.87342 0
M  V30 48 C 4.2403 3.7352 -3.65075 0
M  V30 49 H 5.9343 1.93755 -2.28253 0
M  V30 50 H 3.4803 0.930788 -1.09874 0
M  V30 51 H 5.4333 4.06804 -1.09948 0
M  V30 52 H 4.1573 3.2624 -0.153332 0
M  V30 53 H 2.8163 2.89169 -2.25337 0
M  V30 54 H 2.4643 4.95233 -0.880545 0
M  V30 55 H 2.1643 5.26529 -2.60846 0
M  V30 56 H 3.6883 5.81687 -1.85667 0
M  V30 57 H 5.1023 4.42168 -3.64911 0
M  V30 58 H 3.4993 4.10731 -4.37516 0
M  V30 59 H 4.5693 2.74527 -3.99703 0
M  V30 60 N 5.9124 1.20967 1.01018 0
M  V30 61 C 7.1604 1.02172 1.74371 0
M  V30 62 C 7.4814 -0.446414 1.89821 0
M  V30 63 O 6.7514 -1.32234 1.44537 0
M  V30 64 H 5.3314 0.375066 0.646014 0
M  V30 65 H 7.9934 1.52187 1.21758 0
M  V30 66 H 7.0894 1.48538 2.74487 0
M  V30 67 N 7.3905 -1.2043 1.01659 0
M  V30 68 C 8.3535 -2.21433 0.591616 0
M  V30 69 C 9.3535 -1.57203 -0.338226 0
M  V30 70 O 10.5435 -1.73737 -0.126918 0
M  V30 71 C 7.6755 -3.40628 -0.136058 0
M  V30 72 H 8.8685 -2.60545 1.48514 0
M  V30 73 H 6.4215 -1.33893 0.806379 0
M  V30 74 H 7.1565 -3.07019 -1.04449 0
M  V30 75 H 6.9415 -3.88475 0.531917 0
M  V30 76 H 8.4315 -4.15475 -0.420735 0
M  V30 77 N 8.8686 -0.792821 -1.36206 0
M  V30 78 C 10.0936 -0.377701 -2.03932 0
M  V30 79 C 10.5186 0.998947 -1.59382 0
M  V30 80 O 9.8766 1.64421 -0.763903 0
M  V30 81 C 9.9246 -0.453635 -3.57735 0
M  V30 82 O 9.0286 0.538151 -4.08874 0
M  V30 83 H 8.3696 -0.159855 -0.644471 0
M  V30 84 H 10.8996 -1.07488 -1.7409 0
M  V30 85 H 10.9096 -0.318464 -4.06755 0
M  V30 86 H 9.5846 -1.45784 -3.89512 0
M  V30 87 H 8.1616 0.364359 -3.71116 0
M  V30 88 N 10.3467 1.47872 -0.545128 0
M  V30 89 C 11.5937 2.02493 -0.0165858 0
M  V30 90 C 11.9217 1.42073 1.32836 0
M  V30 91 O 11.1767 0.561459 1.87473 0
M  V30 92 C 11.4757 3.57131 0.13867 0
M  V30 93 C 11.1417 4.36411 -1.13384 0
M  V30 94 C 9.8037 4.57792 -1.48256 0
M  V30 95 C 12.1557 4.82223 -1.97764 0
M  V30 96 C 9.4837 5.22233 -2.67376 0
M  V30 97 C 11.8357 5.47977 -3.16076 0
M  V30 98 C 10.4997 5.67593 -3.51275 0
M  V30 99 H 9.7697 0.740975 -0.00606918 0
M  V30 100 H 12.4167 1.77683 -0.714207 0
M  V30 101 H 10.7217 3.80865 0.919172 0
M  V30 102 H 12.4187 3.97031 0.562782 0
M  V30 103 H 9.0087 4.2004 -0.852297 0
M  V30 104 H 13.1927 4.65493 -1.72132 0
M  V30 105 H 8.4487 5.35616 -2.94831 0
M  V30 106 H 12.6227 5.8244 -3.81755 0
M  V30 107 H 10.2497 6.17298 -4.43675 0
M  V30 108 N 11.8248 0.280983 1.55075 0
M  V30 109 C 13.0708 -0.33461 2.00021 0
M  V30 110 C 13.4038 -1.55063 1.16915 0
M  V30 111 O 12.6788 -1.93006 0.240646 0
M  V30 112 C 12.9618 -0.711007 3.53011 0
M  V30 113 C 12.8148 0.512766 4.46868 0
M  V30 114 C 14.1338 -1.54522 4.12081 0
M  V30 115 H 11.2528 -0.120147 0.727141 0
M  V30 116 H 13.8948 0.389097 1.85973 0
M  V30 117 H 12.0448 -1.32761 3.65112 0
M  V30 118 H 13.7168 1.15131 4.46702 0
M  V30 119 H 11.9598 1.14975 4.18286 0
M  V30 120 H 12.6308 0.205556 5.51617 0
M  V30 121 H 15.1068 -1.02442 4.03293 0
M  V30 122 H 13.9828 -1.77739 5.19327 0
M  V30 123 H 14.2438 -2.52813 3.62682 0
M  V30 124 N 13.3029 -1.57598 0.00835791 0
M  V30 125 C 14.2349 -2.05811 -1.00868 0
M  V30 126 C 15.2479 -0.977579 -1.30182 0
M  V30 127 O 16.4369 -1.25421 -1.27011 0
M  V30 128 C 13.5369 -2.45016 -2.34137 0
M  V30 129 C 12.7099 -3.75903 -2.23643 0
M  V30 130 C 11.7689 -4.01884 -3.3967 0
M  V30 131 O 10.7949 -4.72433 -3.17483 0
M  V30 132 N 11.9969 -3.50432 -4.62793 0
M  V30 133 H 14.7619 -2.93684 -0.597458 0
M  V30 134 H 12.3229 -1.60909 -0.178852 0
M  V30 135 H 14.3149 -2.59506 -3.10546 0
M  V30 136 H 12.8849 -1.62618 -2.66972 0
M  V30 137 H 12.1049 -3.7141 -1.32091 0
M  V30 138 H 13.3929 -4.61695 -2.13812 0
M  V30 139 H 12.7909 -2.93317 -4.83716 0
M  V30 140 H 11.3479 -3.70236 -5.3644 0
M  V30 141 N 14.781 0.264519 -1.55364 0
M  V30 142 C 16.03 0.992812 -1.75574 0
M  V30 143 C 16.343 1.87142 -0.568979 0
M  V30 144 O 17.549 2.63513 -0.653682 0
M  V30 145 C 16.005 1.81519 -3.10771 0
M  V30 146 C 15.613 0.984839 -4.37041 0
M  V30 147 C 17.357 2.53727 -3.40327 0
M  V30 148 C 15.264 1.80209 -5.63275 0
M  V30 149 H 14.194 0.374412 -0.65447 0
M  V30 150 H 16.845 0.248138 -1.81815 0
M  V30 151 H 15.227 2.60115 -2.98591 0
M  V30 152 H 16.401 0.242455 -4.60162 0
M  V30 153 H 14.716 0.37691 -4.14691 0
M  V30 154 H 17.313 3.15292 -4.3185 0
M  V30 155 H 17.656 3.24447 -2.60845 0
M  V30 156 H 18.189 1.82156 -3.53644 0
M  V30 157 H 14.928 1.13896 -6.45529 0
M  V30 158 H 14.448 2.52022 -5.44284 0
M  V30 159 H 16.127 2.37364 -6.01887 0
M  V30 160 N 16.2591 1.48442 0.529413 0
M  V30 161 C 17.2061 1.63007 1.63394 0
M  V30 162 C 18.1761 0.47212 1.59249 0
M  V30 163 O 19.3611 0.695673 1.77666 0
M  V30 164 C 16.5011 1.6763 3.01653 0
M  V30 165 C 15.6141 2.94535 3.16027 0
M  V30 166 C 14.7491 2.90316 4.44849 0
M  V30 167 C 13.7881 4.11923 4.52754 0
M  V30 168 N 12.9251 4.05777 5.72965 0
M  V30 169 H 17.7651 2.5733 1.50285 0
M  V30 170 H 15.3021 1.27613 0.731656 0
M  V30 171 H 17.2601 1.68292 3.81751 0
M  V30 172 H 15.8901 0.76797 3.13532 0
M  V30 173 H 14.9421 3.03615 2.29177 0
M  V30 174 H 16.2541 3.84512 3.17729 0
M  V30 175 H 15.4081 2.89382 5.33238 0
M  V30 176 H 14.1471 1.98068 4.45668 0
M  V30 177 H 13.1521 4.13131 3.62771 0
M  V30 178 H 14.3771 5.0533 4.53672 0
M  V30 179 H 12.3231 3.16351 5.74681 0
M  V30 180 H 12.2401 4.8946 5.76164 0
M  V30 181 H 13.5081 4.08904 6.6364 0
M  V30 182 N 17.7372 -0.778329 1.37039 0
M  V30 183 C 18.9842 -1.53665 1.31884 0
M  V30 184 C 19.3122 -1.9425 -0.0986303 0
M  V30 185 O 18.5672 -1.63832 -1.07041 0
M  V30 186 C 18.8662 -2.81845 2.19768 0
M  V30 187 C 18.5322 -2.60345 3.68146 0
M  V30 188 C 17.1942 -2.5419 4.08584 0
M  V30 189 C 19.5462 -2.40923 4.62175 0
M  V30 190 C 16.8742 -2.26594 5.41177 0
M  V30 191 C 19.2262 -2.14852 5.94997 0
M  V30 192 C 17.8902 -2.07137 6.34547 0
M  V30 193 H 17.1602 -0.562299 0.482598 0
M  V30 194 H 19.8072 -0.897069 1.69189 0
M  V30 195 H 18.1122 -3.50328 1.75436 0
M  V30 196 H 19.8092 -3.39692 2.13097 0
M  V30 197 H 16.3992 -2.65996 3.36072 0
M  V30 198 H 20.5832 -2.44673 4.31797 0
M  V30 199 H 15.8392 -2.19111 5.70789 0
M  V30 200 H 20.0132 -1.98822 6.67415 0
M  V30 201 H 17.6402 -1.85518 7.37216 0
M  V30 202 N 19.2153 -1.21501 -1.00376 0
M  V30 203 C 20.4923 -0.941745 -1.71437 0
M  V30 204 C 20.8723 0.546114 -2.03914 0
M  V30 205 O 20.2203 1.51128 -1.71384 0
M  V30 206 C 20.4303 -1.82812 -2.97289 0
M  V30 207 C 21.7783 -2.07771 -3.70292 0
M  V30 208 O 22.8023 -1.80171 -3.07273 0
M  V30 209 O 21.6613 -2.54456 -4.83647 0
M  V30 210 H 18.7553 -0.353243 -0.747762 0
M  V30 211 H 21.3013 -1.32436 -1.06108 0
M  V30 212 H 20.0733 -2.83501 -2.69709 0
M  V30 213 H 19.6963 -1.4464 -3.70358 0
M  V30 214 N 20.6934 1.19889 -1.02296 0
M  V30 215 C 21.9704 1.85148 -0.630832 0
M  V30 216 C 22.3504 1.91385 0.890782 0
M  V30 217 O 21.6984 1.42642 1.78509 0
M  V30 218 C 21.9084 3.24442 -1.28602 0
M  V30 219 C 23.2564 4.00663 -1.4055 0
M  V30 220 O 24.2804 3.33818 -1.24273 0
M  V30 221 O 23.1394 5.20387 -1.66913 0
M  V30 222 H 20.2334 0.797613 -0.218499 0
M  V30 223 H 22.7794 1.27427 -1.12074 0
M  V30 224 H 21.5514 3.14704 -2.32545 0
M  V30 225 H 21.1744 3.89802 -0.7836 0
M  V30 226 N 22.1715 0.800033 1.35784 0
M  V30 227 C 23.1015 0.220184 2.3246 0
M  V30 228 C 24.0825 -0.65073 1.57161 0
M  V30 229 O 25.2675 -0.582359 1.85263 0
M  V30 230 C 22.3975 -0.637353 3.41402 0
M  V30 231 C 21.3515 0.134531 4.27789 0
M  V30 232 C 20.6775 -0.844285 5.27992 0
M  V30 233 C 21.9775 1.32979 5.05088 0
M  V30 234 H 23.6715 1.02787 2.81203 0
M  V30 235 H 21.2175 0.495717 1.35199 0
M  V30 236 H 23.1705 -1.05302 4.08031 0
M  V30 237 H 21.8945 -1.47785 2.91251 0
M  V30 238 H 20.5535 0.531296 3.6273 0
M  V30 239 H 20.2015 -1.68011 4.74111 0
M  V30 240 H 19.9015 -0.332184 5.8666 0
M  V30 241 H 21.4255 -1.2583 5.97494 0
M  V30 242 H 22.8395 0.98934 5.64699 0
M  V30 243 H 21.2365 1.77593 5.7322 0
M  V30 244 H 22.3065 2.11978 4.36111 0
M  V30 245 N 23.6496 -1.47581 0.552962 0
M  V30 246 C 24.5816 -2.27997 -0.234533 0
M  V30 247 C 25.5946 -1.36753 -0.883321 0
M  V30 248 O 26.7836 -1.61612 -0.757889 0
M  V30 249 C 23.8836 -3.10879 -1.34935 0
M  V30 250 C 23.0566 -4.30056 -0.798158 0
M  V30 251 C 22.1156 -4.94567 -1.79694 0
M  V30 252 O 21.1416 -5.53087 -1.34474 0
M  V30 253 N 22.3436 -4.88878 -3.13015 0
M  V30 254 H 25.1086 -2.96222 0.455255 0
M  V30 255 H 22.6696 -1.57163 0.388761 0
M  V30 256 H 24.6616 -3.50903 -2.01616 0
M  V30 257 H 23.2316 -2.44924 -1.94244 0
M  V30 258 H 22.4516 -3.94174 0.0453079 0
M  V30 259 H 23.7396 -5.07152 -0.409173 0
M  V30 260 H 23.1376 -4.42526 -3.52402 0
M  V30 261 H 21.6946 -5.32934 -3.75266 0
M  V30 262 N 25.1277 -0.289203 -1.54924 0
M  V30 263 C 26.3747 0.323519 -1.99899 0
M  V30 264 C 26.7027 1.54797 -1.17762 0
M  V30 265 O 25.9577 1.94237 -0.238835 0
M  V30 266 C 26.2567 0.736119 -3.49737 0
M  V30 267 C 25.9227 -0.385276 -4.49251 0
M  V30 268 C 24.5847 -0.693156 -4.76181 0
M  V30 269 C 26.9367 -1.14021 -5.08575 0
M  V30 270 C 24.2647 -1.7593 -5.59701 0
M  V30 271 C 26.6167 -2.19619 -5.93254 0
M  V30 272 C 25.2807 -2.51026 -6.185 0
M  V30 273 H 24.5507 0.118384 -0.731482 0
M  V30 274 H 27.1977 -0.405847 -1.8715 0
M  V30 275 H 25.5027 1.54539 -3.60035 0
M  V30 276 H 27.1997 1.22118 -3.81953 0
M  V30 277 H 23.7897 -0.135202 -4.28387 0
M  V30 278 H 27.9737 -0.915611 -4.87781 0
M  V30 279 H 23.2297 -2.0075 -5.77503 0
M  V30 280 H 27.4037 -2.78581 -6.38252 0
M  V30 281 H 25.0307 -3.33772 -6.83008 0
M  V30 282 N 26.6058 1.57591 -0.0167156 0
M  V30 283 C 27.8528 1.91283 0.664597 0
M  V30 284 C 28.1808 0.891949 1.72842 0
M  V30 285 O 27.4358 -0.100931 1.9544 0
M  V30 286 C 27.7348 3.3172 1.33029 0
M  V30 287 C 27.4008 4.4914 0.398047 0
M  V30 288 C 26.0628 4.80992 0.141421 0
M  V30 289 C 28.4148 5.20634 -0.242825 0
M  V30 290 C 25.7428 5.81703 -0.764092 0
M  V30 291 C 28.0948 6.22311 -1.13632 0
M  V30 292 C 26.7588 6.52611 -1.40196 0
M  V30 293 H 26.0288 0.699956 0.243193 0
M  V30 294 H 28.6758 1.9135 -0.0758267 0
M  V30 295 H 26.9808 3.27856 2.14517 0
M  V30 296 H 28.6778 3.55055 1.86379 0
M  V30 297 H 25.2678 4.24262 0.608238 0
M  V30 298 H 29.4518 4.96267 -0.0576019 0
M  V30 299 H 24.7078 6.03532 -0.977732 0
M  V30 300 H 28.8818 6.76834 -1.63917 0
M  V30 301 H 26.5088 7.30467 -2.10529 0
M  V30 302 N 28.0839 -0.256276 1.55502 0
M  V30 303 C 28.9939 -1.33882 1.92647 0
M  V30 304 C 30.0099 -1.53159 0.825727 0
M  V30 305 O 31.1859 -1.66963 1.12629 0
M  V30 306 C 28.2509 -2.6751 2.20543 0
M  V30 307 C 27.3119 -2.56836 3.43997 0
M  V30 308 C 26.5449 -3.84092 3.70553 0
M  V30 309 O 26.7679 -4.85545 2.99336 0
M  V30 310 O 25.7019 -3.83288 4.64084 0
M  V30 311 H 29.5279 -1.05374 2.84833 0
M  V30 312 H 27.1129 -0.456237 1.42263 0
M  V30 313 H 28.9949 -3.46492 2.39835 0
M  V30 314 H 27.6699 -2.9577 1.31536 0
M  V30 315 H 26.5769 -1.76172 3.30021 0
M  V30 316 H 27.9099 -2.33523 4.33275 0
M  V30 317 N 29.562 -1.4872 -0.521534 0
M  V30 318 C 30.51 -1.64328 -1.64618 0
M  V30 319 C 31.504 -0.50953 -1.61555 0
M  V30 320 O 32.71 -0.688525 -1.66311 0
M  V30 321 H 29.085 -0.517805 -0.545328 0
M  V30 322 H 31.056 -2.58767 -1.48601 0
M  V30 323 C 29.805 -1.70805 -3.02855 0
M  V30 324 H 29.128 -2.5741 -3.05909 0
M  V30 325 H 30.568 -1.85766 -3.81139 0
M  V30 326 C 29.027 -0.448479 -3.33902 0
M  V30 327 O 29.557 0.434928 -3.99339 0
M  V30 328 N 27.763 -0.317616 -2.88859 0
M  V30 329 H 27.31 -1.03748 -2.35784 0
M  V30 330 H 27.268 0.524113 -3.10001 0
M  V30 331 N 31.0401 0.771051 -1.3745 0
M  V30 332 C 32.2801 1.54264 -1.34096 0
M  V30 333 C 32.6441 1.91858 0.0737639 0
M  V30 334 O 33.8451 2.67797 0.23203 0
M  V30 335 C 32.1161 2.77326 -2.25445 0
M  V30 336 S 33.6751 3.67383 -2.39948 0
M  V30 337 H 30.4931 0.528122 -0.476034 0
M  V30 338 H 33.0951 0.906633 -1.73206 0
M  V30 339 H 31.7991 2.47788 -3.27153 0
M  V30 340 H 31.3301 3.45886 -1.87421 0
M  V30 341 H 33.3451 4.69334 -1.61059 0
M  V30 342 N 32.5182 1.22032 0.997298 0
M  V30 343 C 33.7662 1.04016 1.73278 0
M  V30 344 C 34.0872 -0.426255 1.90284 0
M  V30 345 O 33.3572 -1.30694 1.45931 0
M  V30 346 H 31.9372 0.381897 0.642 0
M  V30 347 H 34.5992 1.5347 1.20137 0
M  V30 348 H 33.6952 1.51441 2.72896 0
M  V30 349 N 33.9963 -1.19345 1.0293 0
M  V30 350 C 35.2443 -1.88665 0.724574 0
M  V30 351 C 35.5653 -1.80036 -0.749144 0
M  V30 352 O 34.8353 -1.2111 -1.53978 0
M  V30 353 H 33.4153 -0.698406 0.265025 0
M  V30 354 H 36.0773 -1.44885 1.30362 0
M  V30 355 H 35.1733 -2.94987 1.01926 0
M  V30 356 N 35.4744 -0.807222 -1.35358 0
M  V30 357 C 36.7224 -0.387122 -1.98358 0
M  V30 358 C 37.0434 1.04942 -1.64354 0
M  V30 359 O 36.3134 1.72615 -0.926339 0
M  V30 360 H 34.8934 -0.140154 -0.733734 0
M  V30 361 H 37.5554 -1.0332 -1.6526 0
M  V30 362 H 36.6514 -0.493352 -3.08176 0
M  V30 363 N 36.9525 1.47285 -0.560781 0
M  V30 364 C 38.1775 2.07359 -0.0410566 0
M  V30 365 C 38.6025 1.41017 1.24483 0
M  V30 366 O 37.9605 0.486368 1.74654 0
M  V30 367 C 38.0085 3.6035 0.134123 0
M  V30 368 O 37.1125 3.94681 1.19587 0
M  V30 369 H 36.4535 0.661887 -0.0529291 0
M  V30 370 H 38.9835 1.89252 -0.777482 0
M  V30 371 H 38.9935 4.0652 0.347207 0
M  V30 372 H 37.6685 4.08034 -0.805047 0
M  V30 373 H 36.2455 3.60251 0.962987 0
M  V30 374 N 38.4306 0.297415 1.54768 0
M  V30 375 C 39.6776 -0.312913 2.00068 0
M  V30 376 C 40.0056 -1.54171 1.18582 0
M  V30 377 O 39.2606 -1.94108 0.249133 0
M  V30 378 C 39.5596 -0.717561 3.50123 0
M  V30 379 C 39.2256 0.409095 4.4904 0
M  V30 380 C 37.8876 0.718399 4.75807 0
M  V30 381 C 40.2396 1.16717 5.07963 0
M  V30 382 C 37.5676 1.78896 5.5876 0
M  V30 383 C 39.9196 2.22762 5.92081 0
M  V30 384 C 38.5836 2.54303 6.1716 0
M  V30 385 H 37.8536 -0.114503 0.7321 0
M  V30 386 H 40.5006 0.415767 1.86932 0
M  V30 387 H 38.8056 -1.52627 3.60849 0
M  V30 388 H 40.5026 -1.20091 3.82595 0
M  V30 389 H 37.0926 0.157918 4.28309 0
M  V30 390 H 41.2766 0.941466 4.87289 0
M  V30 391 H 36.5326 2.0381 5.7643 0
M  V30 392 H 40.7066 2.81962 6.36765 0
M  V30 393 H 38.3336 3.3739 6.81229 0
M  V30 394 N 39.9087 -1.5758 0.0250728 0
M  V30 395 C 41.1567 -1.91255 -0.653151 0
M  V30 396 C 41.4777 -0.901691 -1.729 0
M  V30 397 O 40.7477 0.0573785 -1.95816 0
M  V30 398 H 39.3277 -0.705942 -0.244243 0
M  V30 399 H 41.9897 -1.94767 0.0719209 0
M  V30 400 H 41.0857 -2.91752 -1.10847 0
M  V30 401 N 41.3868 0.248026 -1.55636 0
M  V30 402 C 42.6118 0.998028 -1.81808 0
M  V30 403 C 43.0368 1.78207 -0.601979 0
M  V30 404 O 42.3948 1.75653 0.448961 0
M  V30 405 C 42.4428 1.9125 -3.05705 0
M  V30 406 O 41.5468 3.00406 -2.82542 0
M  V30 407 H 40.8878 0.284045 -0.600179 0
M  V30 408 H 43.4178 0.269357 -2.02819 0
M  V30 409 H 43.4278 2.32737 -3.35108 0
M  V30 410 H 42.1028 1.33602 -3.93857 0
M  V30 411 H 40.6798 2.63056 -2.64303 0
M  V30 412 N 42.8649 1.48995 0.513639 0
M  V30 413 C 44.1109 1.58076 1.27042 0
M  V30 414 C 44.4439 0.261026 1.92438 0
M  V30 415 O 43.7189 -0.734393 1.80103 0
M  V30 416 C 44.0019 2.73091 2.34719 0
M  V30 417 C 43.8549 4.14821 1.73907 0
M  V30 418 C 45.1739 2.83796 3.36375 0
M  V30 419 H 42.2929 0.575391 0.460536 0
M  V30 420 H 44.9349 1.81232 0.570516 0
M  V30 421 H 43.0849 2.53479 2.94416 0
M  V30 422 H 44.7569 4.45917 1.18135 0
M  V30 423 H 42.9999 4.21058 1.0437 0
M  V30 424 H 43.6709 4.91147 2.51949 0
M  V30 425 H 46.1469 3.01611 2.86653 0
M  V30 426 H 45.0229 3.65971 4.09093 0
M  V30 427 H 45.2839 1.92624 3.9793 0
M  V30 428 N 44.343 -0.763751 1.37857 0
M  V30 429 C 45.573 -1.55067 1.3652 0
M  V30 430 C 45.981 -1.89135 -0.0494227 0
M  V30 431 O 45.324 -1.52529 -1.02375 0
M  V30 432 C 45.386 -2.8838 2.14656 0
M  V30 433 C 45.05 -2.76905 3.63555 0
M  V30 434 C 46.047 -2.4739 4.57268 0
M  V30 435 C 43.732 -2.94676 4.06781 0
M  V30 436 C 45.726 -2.35786 5.92186 0
M  V30 437 C 43.413 -2.82692 5.41782 0
M  V30 438 C 44.411 -2.53289 6.34298 0
M  V30 439 O 44.099 -2.41345 7.66817 0
M  V30 440 H 43.831 -0.486776 0.469069 0
M  V30 441 H 46.385 -0.953812 1.81911 0
M  V30 442 H 44.615 -3.50217 1.63967 0
M  V30 443 H 46.304 -3.49828 2.05852 0
M  V30 444 H 47.07 -2.33339 4.2518 0
M  V30 445 H 42.949 -3.16563 3.35126 0
M  V30 446 H 46.493 -2.12757 6.64365 0
M  V30 447 H 42.39 -2.96314 5.7347 0
M  V30 448 H 43.158 -2.56634 7.77226 0
M  V30 449 N 45.8211 -1.22559 -0.990812 0
M  V30 450 C 47.2371 -0.985996 -1.255 0
M  V30 451 C 47.4371 0.319173 -1.98956 0
M  V30 452 O 46.4931 1.04127 -2.3003 0
M  V30 453 C 47.8061 -2.18607 -2.06474 0
M  V30 454 C 49.3541 -2.22985 -2.19651 0
M  V30 455 C 49.8291 -3.4255 -3.04012 0
M  V30 456 N 51.3201 -3.42725 -3.11599 0
M  V30 457 C 52.0551 -4.31892 -3.7717 0
M  V30 458 N 51.5511 -5.31279 -4.44651 0
M  V30 459 N 53.3441 -4.19662 -3.73952 0
M  V30 460 H 45.4951 -2.06469 -0.49841 0
M  V30 461 H 47.7581 -0.904853 -0.282747 0
M  V30 462 H 47.4641 -3.13267 -1.59865 0
M  V30 463 H 47.3381 -2.18838 -3.07229 0
M  V30 464 H 49.7251 -1.28871 -2.65474 0
M  V30 465 H 49.8061 -2.26791 -1.18319 0
M  V30 466 H 49.4501 -4.36965 -2.58889 0
M  V30 467 H 49.3801 -3.35984 -4.0549 0
M  V30 468 H 51.8711 -2.70807 -2.63575 0
M  V30 469 H 52.1841 -5.95593 -4.92431 0
M  V30 470 H 50.5291 -5.3519 -4.43392 0
M  V30 471 H 53.7201 -3.41268 -3.20396 0
M  V30 472 H 53.8931 -4.89358 -4.24774 0
M  V30 473 N 47.2992 1.18797 -1.03562 0
M  V30 474 C 48.2622 2.20464 -0.626769 0
M  V30 475 C 49.2622 1.57721 0.313173 0
M  V30 476 O 50.4522 1.73917 0.0992615 0
M  V30 477 C 47.5842 3.40802 0.0818498 0
M  V30 478 H 48.7772 2.58149 -1.5264 0
M  V30 479 H 46.3302 1.32593 -0.827578 0
M  V30 480 H 47.0652 3.08642 0.995518 0
M  V30 481 H 46.8502 3.8758 -0.593652 0
M  V30 482 H 48.3402 4.16092 0.354584 0
M  V30 483 N 48.7773 0.814389 1.34928 0
M  V30 484 C 49.7243 0.22822 2.29669 0
M  V30 485 C 50.6943 -0.642164 1.53184 0
M  V30 486 O 51.8793 -0.585605 1.81591 0
M  V30 487 C 49.0193 -0.61089 3.3965 0
M  V30 488 C 48.1323 0.280792 4.31086 0
M  V30 489 C 47.2673 -0.567067 5.28165 0
M  V30 490 C 46.3063 0.324531 6.11239 0
M  V30 491 N 45.4433 -0.483756 7.00431 0
M  V30 492 H 50.2833 1.04153 2.79206 0
M  V30 493 H 47.8203 0.525133 1.37407 0
M  V30 494 H 49.7783 -1.11263 4.0209 0
M  V30 495 H 48.4083 -1.38939 2.91369 0
M  V30 496 H 47.4603 0.900688 3.69583 0
M  V30 497 H 48.7723 0.966723 4.89342 0
M  V30 498 H 47.9263 -1.13363 5.96015 0
M  V30 499 H 46.6653 -1.28654 4.70425 0
M  V30 500 H 45.6703 0.903298 5.42329 0
M  V30 501 H 46.8953 1.04198 6.71059 0
M  V30 502 H 44.8413 -1.18706 6.45171 0
M  V30 503 H 44.7583 0.143965 7.55863 0
M  V30 504 H 46.0263 -1.03334 7.7262 0
M  V30 505 N 50.2554 -1.46986 0.568584 0
M  V30 506 C 51.5014 -2.0332 0.0571487 0
M  V30 507 C 51.8564 -1.43384 -1.28291 0
M  V30 508 O 51.1494 -0.584304 -1.82473 0
M  V30 509 C 51.3434 -3.57306 -0.081836 0
M  V30 510 C 51.1724 -4.32174 1.24321 0
M  V30 511 C 49.9424 -4.71633 1.81358 0
M  V30 512 C 52.1404 -4.66598 2.16312 0
M  V30 513 N 50.1224 -5.31191 3.07748 0
M  V30 514 C 51.4934 -5.26578 3.27285 0
M  V30 515 C 53.5484 -4.48527 2.16166 0
M  V30 516 C 52.2514 -5.70395 4.38226 0
M  V30 517 C 54.2774 -4.93351 3.26127 0
M  V30 518 C 53.6394 -5.5339 4.3582 0
M  V30 519 H 49.7384 -0.77943 0.063351 0
M  V30 520 H 52.3224 -1.79323 0.758378 0
M  V30 521 H 50.4934 -3.81046 -0.752207 0
M  V30 522 H 52.2254 -4.00282 -0.59637 0
M  V30 523 H 48.9804 -4.53946 1.35019 0
M  V30 524 H 49.4044 -5.65505 3.72201 0
M  V30 525 H 54.0464 -4.01456 1.32638 0
M  V30 526 H 51.7644 -6.16452 5.22506 0
M  V30 527 H 55.3504 -4.81131 3.27115 0
M  V30 528 H 54.2304 -5.87441 5.19503 0
M  V30 529 N 51.7335 -0.305618 -1.54608 0
M  V30 530 C 52.9825 0.303098 -1.9941 0
M  V30 531 C 53.2955 1.54648 -1.19764 0
M  V30 532 O 54.5015 2.23007 -1.54855 0
M  V30 533 C 52.9575 0.590588 -3.55021 0
M  V30 534 C 52.5655 -0.634719 -4.43481 0
M  V30 535 C 54.3095 1.16025 -4.08336 0
M  V30 536 C 52.2165 -0.320126 -5.90533 0
M  V30 537 H 51.1465 0.117031 -0.744862 0
M  V30 538 H 53.7975 -0.415045 -1.78745 0
M  V30 539 H 52.1795 1.36845 -3.71604 0
M  V30 540 H 53.3535 -1.41079 -4.38672 0
M  V30 541 H 51.6685 -1.12333 -4.00962 0
M  V30 542 H 54.2655 1.40994 -5.15776 0
M  V30 543 H 54.6085 2.10397 -3.5922 0
M  V30 544 H 55.1415 0.443985 -3.95315 0
M  V30 545 H 51.8805 -1.23254 -6.43808 0
M  V30 546 H 51.4005 0.418579 -5.98338 0
M  V30 547 H 53.0795 0.0766241 -6.46955 0
M  V30 548 N 53.2116 1.57565 -0.0334293 0
M  V30 549 C 54.4366 1.96689 0.657895 0
M  V30 550 C 54.8616 0.910057 1.64619 0
M  V30 551 O 54.2196 -0.128598 1.80843 0
M  V30 552 C 54.2676 3.34905 1.33683 0
M  V30 553 O 53.3716 3.31574 2.45219 0
M  V30 554 H 52.7126 0.641205 0.172489 0
M  V30 555 H 55.2426 2.04372 -0.0965621 0
M  V30 556 H 55.2526 3.71234 1.69262 0
M  V30 557 H 53.9276 4.11366 0.612411 0
M  V30 558 H 52.5046 3.06968 2.11719 0
M  V30 559 N 54.6897 -0.239769 1.55765 0
M  V30 560 C 55.6217 -1.32001 1.87372 0
M  V30 561 C 56.6347 -1.43944 0.760522 0
M  V30 562 O 57.8237 -1.45167 1.0387 0
M  V30 563 C 54.9237 -2.69779 2.05115 0
M  V30 564 C 54.0967 -2.80014 3.36022 0
M  V30 565 C 53.1557 -3.98684 3.4342 0
M  V30 566 O 52.1817 -3.87877 4.16582 0
M  V30 567 N 53.3837 -5.12176 2.73232 0
M  V30 568 H 56.1487 -1.0522 2.80622 0
M  V30 569 H 53.7097 -0.429857 1.56089 0
M  V30 570 H 55.7017 -3.47517 2.07399 0
M  V30 571 H 54.2717 -2.89237 1.18577 0
M  V30 572 H 53.4917 -1.88896 3.45994 0
M  V30 573 H 54.7797 -2.83808 4.22292 0
M  V30 574 H 54.1777 -5.2385 2.13536 0
M  V30 575 H 52.7347 -5.88022 2.81199 0
M  V30 576 N 56.1678 -1.49265 -0.50573 0
M  V30 577 C 57.4448 -1.49012 -1.26707 0
M  V30 578 C 57.8248 -0.215205 -2.1 0
M  V30 579 O 57.1728 0.802547 -2.13943 0
M  V30 580 C 57.3828 -2.7663 -2.12783 0
M  V30 581 C 58.7308 -3.25932 -2.72127 0
M  V30 582 O 59.7548 -2.77715 -2.23054 0
M  V30 583 O 58.6138 -4.09897 -3.61451 0
M  V30 584 H 55.7078 -0.596197 -0.57313 0
M  V30 585 H 58.2538 -1.61524 -0.52039 0
M  V30 586 H 57.0258 -3.60916 -1.5118 0
M  V30 587 H 56.6488 -2.66956 -2.94653 0
M  V30 588 N 57.6459 0.756429 -1.3826 0
M  V30 589 C 58.5929 1.87011 -1.35261 0
M  V30 590 C 59.5629 1.64695 -0.215616 0
M  V30 591 O 60.7479 1.864 -0.407399 0
M  V30 592 C 57.8879 3.24275 -1.18068 0
M  V30 593 C 57.0009 3.58442 -2.41129 0
M  V30 594 C 56.1359 4.84994 -2.16689 0
M  V30 595 C 55.1749 5.11939 -3.35537 0
M  V30 596 N 54.3119 6.29685 -3.10549 0
M  V30 597 H 59.1519 1.8891 -2.30472 0
M  V30 598 H 56.6889 0.923373 -1.14509 0
M  V30 599 H 58.6469 4.03479 -1.06116 0
M  V30 600 H 57.2769 3.21711 -0.264973 0
M  V30 601 H 56.3289 2.74103 -2.63764 0
M  V30 602 H 57.6409 3.74283 -3.29717 0
M  V30 603 H 56.7949 5.72135 -2.01857 0
M  V30 604 H 55.5339 4.71286 -1.25462 0
M  V30 605 H 54.5389 4.23268 -3.50891 0
M  V30 606 H 55.7639 5.27546 -4.27635 0
M  V30 607 H 53.7099 6.17306 -2.21967 0
M  V30 608 H 53.6269 6.46014 -3.92686 0
M  V30 609 H 54.8949 7.19722 -2.99367 0
M  V30 610 N 59.124 1.23083 0.984299 0
M  V30 611 C 60.034 1.02515 2.11016 0
M  V30 612 C 61.05 -0.0291702 1.73976 0
M  V30 613 O 62.226 0.165434 2.00719 0
M  V30 614 C 59.291 0.614673 3.41208 0
M  V30 615 C 58.352 1.74359 3.92297 0
M  V30 616 C 57.585 1.35261 5.16275 0
M  V30 617 O 57.808 0.235136 5.69915 0
M  V30 618 O 56.742 2.17227 5.61334 0
M  V30 619 H 60.568 1.96862 2.31255 0
M  V30 620 H 58.153 1.01753 1.09392 0
M  V30 621 H 60.035 0.396518 4.1953 0
M  V30 622 H 58.71 -0.299851 3.22308 0
M  V30 623 H 57.617 2.01635 3.1511 0
M  V30 624 H 58.95 2.63629 4.15645 0
M  V30 625 N 60.6021 -1.18246 1.0419 0
M  V30 626 C 61.8481 -1.88536 0.747122 0
M  V30 627 C 62.1811 -1.80223 -0.723409 0
M  V30 628 O 61.4561 -1.20337 -1.52804 0
M  V30 629 C 61.7391 -3.38968 1.21544 0
M  V30 630 C 61.5921 -3.56084 2.74816 0
M  V30 631 C 62.9111 -4.32648 0.806482 0
M  V30 632 H 60.0301 -0.684619 0.272883 0
M  V30 633 H 62.6721 -1.39113 1.29413 0
M  V30 634 H 60.8221 -3.8119 0.750081 0
M  V30 635 H 62.4941 -3.22946 3.29399 0
M  V30 636 H 60.7371 -2.98699 3.14582 0
M  V30 637 H 61.4081 -4.61639 3.02644 0
M  V30 638 H 63.8841 -3.98211 1.20695 0
M  V30 639 H 62.7601 -5.36462 1.1619 0
M  V30 640 H 63.0211 -4.41146 -0.29029 0
M  V30 641 N 62.0802 -0.821533 -1.34494 0
M  V30 642 C 63.0432 -0.247847 -2.27856 0
M  V30 643 C 64.0432 0.573453 -1.50227 0
M  V30 644 O 65.2332 0.389759 -1.69784 0
M  V30 645 C 62.3652 0.652698 -3.34593 0
M  V30 646 H 63.5582 -1.07146 -2.80107 0
M  V30 647 H 61.1112 -0.593291 -1.44602 0
M  V30 648 H 61.8462 1.49943 -2.87555 0
M  V30 649 H 61.6312 0.065292 -3.92046 0
M  V30 650 H 63.1212 1.04793 -4.04238 0
M  V30 651 N 63.5583 1.46682 -0.576371 0
M  V30 652 C 64.8043 2.02712 -0.0596221 0
M  V30 653 C 65.1373 1.44765 1.29448 0
M  V30 654 O 64.4123 0.610355 1.84675 0
M  V30 655 C 64.6953 3.60098 0.0129503 0
M  V30 656 C 64.5483 4.28441 -1.3696 0
M  V30 657 C 65.8673 4.34224 0.71678 0
M  V30 658 H 62.9863 0.736637 -0.0231407 0
M  V30 659 H 65.6283 1.74898 -0.742351 0
M  V30 660 H 63.7783 3.83926 0.594378 0
M  V30 661 H 65.4503 4.15896 -1.9957 0
M  V30 662 H 63.6933 3.8805 -1.93907 0
M  V30 663 H 64.3643 5.3716 -1.27135 0
M  V30 664 H 66.8403 4.15503 0.222908 0
M  V30 665 H 65.7163 5.43936 0.73657 0
M  V30 666 H 65.9773 4.04823 1.77682 0
M  V30 667 N 65.0364 0.313813 1.54444 0
M  V30 668 C 65.9834 -0.55655 2.23989 0
M  V30 669 C 66.9534 -1.11943 1.22711 0
M  V30 670 O 68.1384 -1.16158 1.51367 0
M  V30 671 C 65.2784 -1.71635 2.99392 0
M  V30 672 C 64.3914 -1.18364 4.15468 0
M  V30 673 C 63.5264 -2.30834 4.78424 0
M  V30 674 C 62.5654 -1.74762 5.86622 0
M  V30 675 N 61.7024 -2.80855 6.43479 0
M  V30 676 H 66.5424 0.0430893 2.97969 0
M  V30 677 H 64.0794 0.0330359 1.47063 0
M  V30 678 H 66.0374 -2.39868 3.41349 0
M  V30 679 H 64.6674 -2.28742 2.27765 0
M  V30 680 H 63.7194 -0.393163 3.78363 0
M  V30 681 H 65.0314 -0.733262 4.93381 0
M  V30 682 H 64.1854 -3.0699 5.23299 0
M  V30 683 H 62.9244 -2.79204 3.99871 0
M  V30 684 H 61.9294 -0.970995 5.41158 0
M  V30 685 H 63.1544 -1.2728 6.67066 0
M  V30 686 H 61.1004 -3.28535 5.67804 0
M  V30 687 H 61.0174 -2.40351 7.16776 0
M  V30 688 H 62.2854 -3.5687 6.93011 0
M  V30 689 N 66.5145 -1.57545 0.0417849 0
M  V30 690 C 67.4615 -2.10977 -0.935805 0
M  V30 691 C 68.4315 -1.01486 -1.31491 0
M  V30 692 O 69.6165 -1.2898 -1.40602 0
M  V30 693 C 66.7565 -2.65169 -2.2086 0
M  V30 694 C 65.8695 -3.88714 -1.88482 0
M  V30 695 C 65.0045 -4.31254 -3.1015 0
M  V30 696 C 64.0435 -5.47524 -2.7365 0
M  V30 697 N 63.1805 -5.85162 -3.87982 0
M  V30 698 H 68.0205 -2.94218 -0.473249 0
M  V30 699 H 65.5575 -1.45415 -0.221981 0
M  V30 700 H 67.5155 -2.94685 -2.95325 0
M  V30 701 H 66.1455 -1.8474 -2.64709 0
M  V30 702 H 65.1975 -3.65849 -1.04205 0
M  V30 703 H 66.5095 -4.73245 -1.57608 0
M  V30 704 H 65.6635 -4.62273 -3.92923 0
M  V30 705 H 64.4025 -3.45516 -3.44195 0
M  V30 706 H 63.4075 -5.16187 -1.89291 0
M  V30 707 H 64.6325 -6.34971 -2.40807 0
M  V30 708 H 62.5785 -5.02377 -4.21846 0
M  V30 709 H 62.4955 -6.64362 -3.60775 0
M  V30 710 H 63.7635 -6.20791 -4.71422 0
M  V30 711 N 67.9926 0.231505 -1.5589 0
M  V30 712 C 68.9226 1.29022 -1.94617 0
M  V30 713 C 69.9036 1.4941 -0.813067 0
M  V30 714 O 71.0886 1.6176 -1.07459 0
M  V30 715 C 68.2186 2.64199 -2.25424 0
M  V30 716 C 67.1726 2.58484 -3.41131 0
M  V30 717 C 66.4986 3.97599 -3.57518 0
M  V30 718 C 67.7986 2.1413 -4.76388 0
M  V30 719 H 69.4926 0.968563 -2.83301 0
M  V30 720 H 67.0386 0.464479 -1.36303 0
M  V30 721 H 68.9916 3.38413 -2.51107 0
M  V30 722 H 67.7156 2.98032 -1.33583 0
M  V30 723 H 66.3746 1.86727 -3.15481 0
M  V30 724 H 66.0226 4.28723 -2.6307 0
M  V30 725 H 65.7226 3.94659 -4.35337 0
M  V30 726 H 67.2466 4.7349 -3.85538 0
M  V30 727 H 68.6606 2.78083 -5.01341 0
M  V30 728 H 67.0576 2.2227 -5.57419 0
M  V30 729 H 68.1276 1.09331 -4.72414 0
M  V30 730 N 69.4707 1.49531 0.497807 0
M  V30 731 C 70.4007 1.6935 1.60757 0
M  V30 732 C 71.3817 0.542218 1.61227 0
M  V30 733 O 72.5667 0.778417 1.77917 0
M  V30 734 C 69.6967 1.76298 2.99226 0
M  V30 735 C 68.6507 2.91248 3.13622 0
M  V30 736 C 67.9767 2.83312 4.53474 0
M  V30 737 C 69.2767 4.3214 2.93346 0
M  V30 738 H 70.9707 2.62263 1.44425 0
M  V30 739 H 68.5167 1.26208 0.693367 0
M  V30 740 H 70.4697 1.88749 3.76765 0
M  V30 741 H 69.1937 0.799871 3.16654 0
M  V30 742 H 67.8527 2.78404 2.38509 0
M  V30 743 H 67.5007 1.84902 4.67782 0
M  V30 744 H 67.2007 3.60465 4.64046 0
M  V30 745 H 68.7247 2.97775 5.33069 0
M  V30 746 H 70.1387 4.45649 3.60652 0
M  V30 747 H 68.5357 5.1054 3.15387 0
M  V30 748 H 69.6057 4.46363 1.89441 0
M  V30 749 N 70.9488 -0.749086 1.3866 0
M  V30 750 C 71.8958 -1.86291 1.36251 0
M  V30 751 C 72.8658 -1.64578 0.224347 0
M  V30 752 O 74.0508 -1.86181 0.417279 0
M  V30 753 C 71.1908 -3.23644 1.19786 0
M  V30 754 C 70.3038 -3.57158 2.43027 0
M  V30 755 C 69.4388 -4.83838 2.19258 0
M  V30 756 C 68.4778 -5.10152 3.38247 0
M  V30 757 N 67.6148 -6.28029 3.13884 0
M  V30 758 H 72.4548 -1.87685 2.3147 0
M  V30 759 H 69.9918 -0.917287 1.14997 0
M  V30 760 H 71.9498 -4.0291 1.08254 0
M  V30 761 H 70.5798 -3.21566 0.282031 0
M  V30 762 H 69.6318 -2.72701 2.65214 0
M  V30 763 H 70.9438 -3.7253 3.31697 0
M  V30 764 H 70.0978 -5.71057 2.04888 0
M  V30 765 H 68.8368 -4.70614 1.2796 0
M  V30 766 H 67.8418 -4.21401 3.53131 0
M  V30 767 H 69.0668 -5.25271 4.30427 0
M  V30 768 H 67.0128 -6.1612 2.25238 0
M  V30 769 H 66.9298 -6.43922 3.96106 0
M  V30 770 H 68.1978 -7.18124 3.03179 0
M  V30 771 N 72.4269 -1.23603 -0.977757 0
M  V30 772 C 73.6759 -1.06377 -1.71368 0
M  V30 773 C 73.9889 0.399062 -1.91486 0
M  V30 774 O 75.1949 0.691312 -2.62551 0
M  V30 775 C 73.6509 -1.85512 -3.08404 0
M  V30 776 C 73.2589 -3.36141 -2.96164 0
M  V30 777 C 75.0029 -1.76783 -3.85938 0
M  V30 778 C 72.9099 -4.07659 -4.28449 0
M  V30 779 H 71.8399 -0.394452 -0.642591 0
M  V30 780 H 74.4909 -1.47594 -1.09034 0
M  V30 781 H 72.8729 -1.37103 -3.71509 0
M  V30 782 H 74.0469 -3.92056 -2.42133 0
M  V30 783 H 72.3619 -3.45712 -2.32104 0
M  V30 784 H 74.9589 -2.27526 -4.83876 0
M  V30 785 H 75.3019 -0.731116 -4.0983 0
M  V30 786 H 75.8349 -2.22818 -3.2954 0
M  V30 787 H 72.5739 -5.11648 -4.09752 0
M  V30 788 H 72.0939 -3.5653 -4.82334 0
M  V30 789 H 73.7729 -4.141 -4.97122 0
M  V30 790 N 73.905 1.17692 -1.04816 0
M  V30 791 C 74.815 2.25229 -0.65643 0
M  V30 792 C 75.831 1.71018 0.320761 0
M  V30 793 O 77.007 2.00649 0.173805 0
M  V30 794 C 74.072 3.46684 -0.0332629 0
M  V30 795 C 73.133 4.15997 -1.06042 0
M  V30 796 C 72.366 5.31654 -0.466893 0
M  V30 797 O 72.589 5.65777 0.724758 0
M  V30 798 O 71.523 5.89831 -1.1993 0
M  V30 799 H 75.349 2.61016 -1.55255 0
M  V30 800 H 72.934 1.24919 -0.81949 0
M  V30 801 H 74.816 4.20234 0.313256 0
M  V30 802 H 73.491 3.12703 0.836566 0
M  V30 803 H 72.398 3.44482 -1.45886 0
M  V30 804 H 73.731 4.53996 -1.90127 0
M  V30 805 N 75.3831 0.828654 1.34056 0
M  V30 806 C 76.3301 0.252567 2.29414 0
M  V30 807 C 77.3001 -0.62588 1.53857 0
M  V30 808 O 78.4851 -0.566312 1.82202 0
M  V30 809 C 75.6251 -0.574831 3.40279 0
M  V30 810 C 74.7381 0.326499 4.30764 0
M  V30 811 C 73.8731 -0.511016 5.28736 0
M  V30 812 C 72.9121 0.389342 6.1086 0
M  V30 813 N 72.0491 -0.409439 7.00905 0
M  V30 814 H 76.8891 1.07108 2.78086 0
M  V30 815 H 74.4261 0.539677 1.36843 0
M  V30 816 H 76.3841 -1.06992 4.03248 0
M  V30 817 H 75.0141 -1.35841 2.92826 0
M  V30 818 H 74.0661 0.939837 3.68607 0
M  V30 819 H 75.3781 1.01857 4.88289 0
M  V30 820 H 74.5321 -1.07035 5.97184 0
M  V30 821 H 73.2711 -1.23657 4.71763 0
M  V30 822 H 72.2761 0.960769 5.4134 0
M  V30 823 H 73.5011 1.1131 6.69916 0
M  V30 824 H 71.4471 -1.11856 6.46393 0
M  V30 825 H 71.3641 0.224126 7.55668 0
M  V30 826 H 72.6321 -0.951336 7.73673 0
M  V30 827 N 76.8612 -1.46375 0.584142 0
M  V30 828 C 77.7712 -2.34115 -0.150728 0
M  V30 829 C 78.7872 -1.49838 -0.884567 0
M  V30 830 O 79.9632 -1.82704 -0.847429 0
M  V30 831 C 77.0282 -3.2705 -1.15062 0
M  V30 832 C 76.0892 -4.27228 -0.421293 0
M  V30 833 C 75.3222 -5.15722 -1.37355 0
M  V30 834 O 75.5452 -5.07176 -2.61014 0
M  V30 835 O 74.4792 -5.95383 -0.883355 0
M  V30 836 H 78.3052 -2.98309 0.569708 0
M  V30 837 H 75.8902 -1.45373 0.344535 0
M  V30 838 H 77.7722 -3.84381 -1.72712 0
M  V30 839 H 76.4472 -2.65451 -1.8525 0
M  V30 840 H 75.3542 -3.7358 0.197085 0
M  V30 841 H 76.6872 -4.91616 0.239641 0
M  V30 842 N 78.3393 -0.321999 -1.54275 0
M  V30 843 C 79.3023 0.531975 -2.22941 0
M  V30 844 C 80.3023 1.04478 -1.22234 0
M  V30 845 O 81.4923 0.937452 -1.46825 0
M  V30 846 C 78.6243 1.73874 -2.93224 0
M  V30 847 H 79.8173 -0.0682612 -2.99822 0
M  V30 848 H 77.3703 -0.0730644 -1.56129 0
M  V30 849 H 78.1053 2.37825 -2.20476 0
M  V30 850 H 77.8903 1.37847 -3.6707 0
M  V30 851 H 79.3803 2.34496 -3.45545 0
M  V30 852 N 79.8174 1.5752 -0.0501392 0
M  V30 853 C 80.7274 2.14952 0.939827 0
M  V30 854 C 81.7434 1.10706 1.34239 0
M  V30 855 O 82.9194 1.42869 1.41952 0
M  V30 856 C 79.9844 2.68232 2.19665 0
M  V30 857 C 79.0454 3.87272 1.85253 0
M  V30 858 C 78.2784 4.38002 3.04943 0
M  V30 859 O 78.5014 3.87811 4.18281 0
M  V30 860 O 77.4354 5.29602 2.86017 0
M  V30 861 H 81.2614 2.9986 0.481392 0
M  V30 862 H 78.8464 1.4841 0.171699 0
M  V30 863 H 80.7284 3.02475 2.93406 0
M  V30 864 H 79.4034 1.86395 2.64648 0
M  V30 865 H 78.3104 3.5792 1.0883 0
M  V30 866 H 79.6434 4.70336 1.4507 0
M  V30 867 N 81.2955 -0.223234 1.56011 0
M  V30 868 C 82.5445 -0.945912 1.78144 0
M  V30 869 C 82.8575 -1.85567 0.618396 0
M  V30 870 O 84.0635 -2.61688 0.723318 0
M  V30 871 C 82.5195 -1.73216 3.15475 0
M  V30 872 C 82.1275 -0.868619 4.39499 0
M  V30 873 C 83.8715 -2.44615 3.46935 0
M  V30 874 C 81.7785 -1.65212 5.67855 0
M  V30 875 H 80.7085 -0.356929 0.664167 0
M  V30 876 H 83.3595 -0.199845 1.82409 0
M  V30 877 H 81.7415 -2.52107 3.05382 0
M  V30 878 H 82.9155 -0.120366 4.60643 0
M  V30 879 H 81.2305 -0.26683 4.15544 0
M  V30 880 H 83.8275 -3.03732 4.40058 0
M  V30 881 H 84.1705 -3.17417 2.69355 0
M  V30 882 H 84.7035 -1.72715 3.58349 0
M  V30 883 H 81.4425 -0.967407 6.48322 0
M  V30 884 H 80.9625 -2.37503 5.50774 0
M  V30 885 H 82.6415 -2.21322 6.07968 0
M  V30 886 N 82.7736 -1.49793 -0.48987 0
M  V30 887 C 83.7036 -1.70201 -1.59856 0
M  V30 888 C 84.6846 -0.55076 -1.60937 0
M  V30 889 O 85.8696 -0.787841 -1.77501 0
M  V30 890 C 82.9996 -1.77882 -2.98287 0
M  V30 891 C 81.9536 -2.92907 -3.12073 0
M  V30 892 C 81.2796 -2.85712 -4.51965 0
M  V30 893 C 82.5796 -4.3369 -2.91051 0
M  V30 894 H 84.2736 -2.63025 -1.43032 0
M  V30 895 H 81.8196 -1.26574 -0.686664 0
M  V30 896 H 83.7726 -1.90744 -3.75759 0
M  V30 897 H 82.4966 -0.816653 -3.16225 0
M  V30 898 H 81.1556 -2.79665 -2.37029 0
M  V30 899 H 80.8036 -1.8738 -4.66795 0
M  V30 900 H 80.5036 -3.62921 -4.62128 0
M  V30 901 H 82.0276 -3.00598 -5.31482 0
M  V30 902 H 83.4416 -4.47555 -3.58284 0
M  V30 903 H 81.8386 -5.12205 -3.12675 0
M  V30 904 H 82.9086 -4.47362 -1.87071 0
M  V30 905 N 84.2517 0.741722 -1.39055 0
M  V30 906 C 85.4767 1.53607 -1.39354 0
M  V30 907 C 85.9017 1.88096 0.0116905 0
M  V30 908 O 85.2597 1.5143 0.996924 0
M  V30 909 C 85.3077 2.80441 -2.26682 0
M  V30 910 O 84.4117 3.76088 -1.69208 0
M  V30 911 H 83.7527 0.464142 -0.474835 0
M  V30 912 H 86.2827 0.915665 -1.82967 0
M  V30 913 H 86.2927 3.29246 -2.40959 0
M  V30 914 H 84.9677 2.5467 -3.2881 0
M  V30 915 H 83.5447 3.34833 -1.64138 0
M  V30 916 N 85.7298 1.2412 0.971189 0
M  V30 917 C 86.9758 1.08041 1.71625 0
M  V30 918 C 87.3088 -0.380407 1.90438 0
M  V30 919 O 86.5838 -1.28127 1.46334 0
M  V30 920 C 86.8668 1.81682 3.10908 0
M  V30 921 C 86.7198 3.35493 2.99608 0
M  V30 922 C 88.0388 1.58671 4.10501 0
M  V30 923 H 85.1578 0.39388 0.622919 0
M  V30 924 H 87.7998 1.52743 1.13003 0
M  V30 925 H 85.9498 1.43684 3.60953 0
M  V30 926 H 87.6218 3.83068 2.57015 0
M  V30 927 H 85.8648 3.64052 2.35899 0
M  V30 928 H 86.5358 3.82217 3.98264 0
M  V30 929 H 89.0118 1.91719 3.69301 0
M  V30 930 H 87.8878 2.1266 5.06031 0
M  V30 931 H 88.1488 0.524161 4.38982 0
M  V30 932 N 87.2079 -1.17134 1.05439 0
M  V30 933 C 88.1379 -2.2342 0.678649 0
M  V30 934 C 89.1189 -1.66971 -0.32476 0
M  V30 935 O 90.3039 -1.93149 -0.201802 0
M  V30 936 C 87.4339 -3.47256 0.0552099 0
M  V30 937 C 86.3879 -4.16543 0.98365 0
M  V30 938 C 85.7139 -5.34231 0.223961 0
M  V30 939 C 87.0139 -4.68495 2.3089 0
M  V30 940 H 88.7079 -2.55105 1.56722 0
M  V30 941 H 86.2539 -1.2262 0.754998 0
M  V30 942 H 88.2069 -4.20828 -0.21946 0
M  V30 943 H 86.9309 -3.14846 -0.868319 0
M  V30 944 H 85.5899 -3.44887 1.24293 0
M  V30 945 H 85.2379 -4.98071 -0.702412 0
M  V30 946 H 84.9379 -5.81527 0.842627 0
M  V30 947 H 86.4619 -6.10585 -0.0433671 0
M  V30 948 H 87.8759 -5.33691 2.09396 0
M  V30 949 H 86.2729 -5.26379 2.88176 0
M  V30 950 H 87.3429 -3.85169 2.94572 0
M  V30 951 N 88.686 -0.835752 -1.33615 0
M  V30 952 C 89.911 -0.442389 -2.02627 0
M  V30 953 C 90.336 0.947735 -1.62479 0
M  V30 954 O 89.694 1.61907 -0.815826 0
M  V30 955 C 89.742 -0.567216 -3.56111 0
M  V30 956 O 88.846 0.407799 -4.10379 0
M  V30 957 H 88.187 -0.180278 -0.639059 0
M  V30 958 H 90.717 -1.12972 -1.70583 0
M  V30 959 H 90.727 -0.447708 -4.05536 0
M  V30 960 H 89.402 -1.58103 -3.84677 0
M  V30 961 H 87.979 0.246107 -3.72087 0
M  V30 962 N 90.1641 1.46063 -0.591896 0
M  V30 963 C 91.1141 2.27458 0.157172 0
M  V30 964 C 92.0981 1.3641 0.853301 0
M  V30 965 O 93.2901 1.60517 0.74588 0
M  V30 966 C 90.4191 3.22956 1.16423 0
M  V30 967 C 89.5051 4.2149 0.469742 0
M  V30 968 N 89.8961 5.03519 -0.479839 0
M  V30 969 C 88.1941 4.40161 0.719319 0
M  V30 970 C 88.8951 5.74904 -0.886591 0
M  V30 971 N 87.8711 5.43097 -0.233731 0
M  V30 972 H 91.6731 2.88272 -0.572392 0
M  V30 973 H 89.1871 1.57024 -0.414375 0
M  V30 974 H 91.1841 3.79986 1.71513 0
M  V30 975 H 89.8441 2.63701 1.89451 0
M  V30 976 H 90.8551 5.1078 -0.855823 0
M  V30 977 H 87.5321 3.92046 1.43548 0
M  V30 978 H 88.9221 6.50844 -1.66888 0
M  V30 979 N 91.6422 0.330177 1.54103 0
M  V30 980 C 93.0582 -0.0222371 1.59585 0
M  V30 981 C 93.2582 -1.49902 1.34654 0
M  V30 982 O 92.3142 -2.25592 1.13421 0
M  V30 983 C 93.6272 0.401932 2.98002 0
M  V30 984 C 95.1752 0.353145 3.11001 0
M  V30 985 C 95.6502 0.752576 4.51775 0
M  V30 986 N 97.1412 0.706239 4.57784 0
M  V30 987 C 97.8762 0.987417 5.64834 0
M  V30 988 N 97.3722 1.33607 6.79795 0
M  V30 989 N 99.1652 0.91254 5.54643 0
M  V30 990 H 91.3162 1.29228 1.68564 0
M  V30 991 H 93.5792 0.525906 0.78875 0
M  V30 992 H 93.2852 1.4311 3.21267 0
M  V30 993 H 93.1592 -0.229699 3.765 0
M  V30 994 H 95.5462 -0.666822 2.87467 0
M  V30 995 H 95.6272 1.0198 2.34593 0
M  V30 996 H 95.2712 1.77049 4.76042 0
M  V30 997 H 95.2012 0.0635409 5.26562 0
M  V30 998 H 97.6922 0.44889 3.75224 0
M  V30 999 H 98.0052 1.53582 7.57385 0
M  V30 1000 H 96.3502 1.37439 6.81275 0
M  V30 1001 H 99.5412 0.639601 4.6371 0
M  V30 1002 H 99.7142 1.13503 6.37982 0
M  V30 1003 N 93.1203 -1.57491 0.0584922 0
M  V30 1004 C 94.0683 -2.13148 -0.931168 0
M  V30 1005 C 95.0623 -1.06507 -1.31729 0
M  V30 1006 O 96.2683 -1.24906 -1.29609 0
M  V30 1007 H 92.6433 -0.68137 -0.31818 0
M  V30 1008 H 94.6143 -2.95187 -0.436707 0
M  V30 1009 C 93.3633 -2.69732 -2.19408 0
M  V30 1010 H 92.6863 -3.51454 -1.90578 0
M  V30 1011 H 94.1263 -3.12287 -2.86798 0
M  V30 1012 C 92.5853 -1.63855 -2.94369 0
M  V30 1013 O 93.1153 -1.05565 -3.87581 0
M  V30 1014 N 91.3213 -1.35202 -2.57233 0
M  V30 1015 H 90.8683 -1.82791 -1.81508 0
M  V30 1016 H 90.8263 -0.645922 -3.07693 0
M  V30 1017 N 94.5984 0.214957 -1.56127 0
M  V30 1018 C 95.8474 0.936451 -1.78643 0
M  V30 1019 C 96.1604 1.85237 -0.628229 0
M  V30 1020 O 97.3664 2.613 -0.737186 0
M  V30 1021 C 95.8224 1.7154 -3.16389 0
M  V30 1022 C 95.4304 0.845299 -4.39953 0
M  V30 1023 C 97.1744 2.42772 -3.48227 0
M  V30 1024 C 95.0814 1.62198 -5.68723 0
M  V30 1025 H 94.0114 0.353401 -0.666051 0
M  V30 1026 H 96.6624 0.190169 -1.82512 0
M  V30 1027 H 95.0444 2.50484 -3.06715 0
M  V30 1028 H 96.2184 0.0959353 -4.607 0
M  V30 1029 H 94.5334 0.244789 -4.1568 0
M  V30 1030 H 97.1304 3.01394 -4.41663 0
M  V30 1031 H 97.4734 3.15984 -2.71035 0
M  V30 1032 H 98.0064 1.70813 -3.5926 0
M  V30 1033 H 94.7454 0.933011 -6.48826 0
M  V30 1034 H 94.2654 2.34579 -5.52026 0
M  V30 1035 H 95.9444 2.18095 -6.09133 0
M  V30 1036 N 96.0765 1.50051 0.48192 0
M  V30 1037 C 97.3255 1.59741 1.23149 0
M  V30 1038 C 97.6385 0.298163 1.93314 0
M  V30 1039 O 98.8445 0.273835 2.70116 0
M  V30 1040 C 97.3005 2.81926 2.23708 0
M  V30 1041 C 96.9085 4.18685 1.59396 0
M  V30 1042 C 98.6525 3.00956 2.99375 0
M  V30 1043 C 96.5595 5.3207 2.58178 0
M  V30 1044 H 95.4895 0.594838 0.46334 0
M  V30 1045 H 98.1405 1.76467 0.503169 0
M  V30 1046 H 96.5225 2.58736 2.99786 0
M  V30 1047 H 97.6965 4.52088 0.891811 0
M  V30 1048 H 96.0115 4.05171 0.960503 0
M  V30 1049 H 98.6085 3.82836 3.73283 0
M  V30 1050 H 98.9515 2.12258 3.58123 0
M  V30 1051 H 99.4845 3.24277 2.30411 0
M  V30 1052 H 96.2235 6.22888 2.04184 0
M  V30 1053 H 95.7435 5.03098 3.26577 0
M  V30 1054 H 97.4225 5.62196 3.20225 0
M  V30 1055 N 97.5546 -0.734337 1.39446 0
M  V30 1056 C 98.4866 -1.85861 1.34121 0
M  V30 1057 C 99.4996 -1.60871 0.249864 0
M  V30 1058 O 100.689 -1.71093 0.508865 0
M  V30 1059 C 97.7886 -3.21899 1.05991 0
M  V30 1060 C 96.9616 -3.74239 2.26415 0
M  V30 1061 C 96.0206 -4.88841 1.94733 0
M  V30 1062 O 95.0466 -5.02468 2.67422 0
M  V30 1063 N 96.2486 -5.73261 0.913884 0
M  V30 1064 H 99.0136 -1.90934 2.31007 0
M  V30 1065 H 96.5746 -0.915102 1.33557 0
M  V30 1066 H 98.5666 -3.96136 0.828147 0
M  V30 1067 H 97.1366 -3.12091 0.178361 0
M  V30 1068 H 96.3566 -2.91347 2.65539 0
M  V30 1069 H 97.6446 -4.05942 3.06738 0
M  V30 1070 H 97.0426 -5.64842 0.311476 0
M  V30 1071 H 95.5996 -6.47563 0.742015 0
M  V30 1072 N 99.0327 -1.24633 -0.964593 0
M  V30 1073 C 100.28 -1.08788 -1.70796 0
M  V30 1074 C 100.608 0.372783 -1.90894 0
M  V30 1075 O 99.8627 1.29167 -1.47018 0
M  V30 1076 C 100.162 -1.7763 -3.10133 0
M  V30 1077 C 99.8277 -3.27557 -3.09866 0
M  V30 1078 C 98.4897 -3.6846 -3.09501 0
M  V30 1079 C 100.842 -4.23389 -3.03959 0
M  V30 1080 C 98.1697 -5.03624 -3.00965 0
M  V30 1081 C 100.522 -5.58565 -2.96965 0
M  V30 1082 C 99.1857 -5.98809 -2.9493 0
M  V30 1083 H 98.4557 -0.398084 -0.624988 0
M  V30 1084 H 101.103 -1.54777 -1.12767 0
M  V30 1085 H 99.4077 -1.24044 -3.71645 0
M  V30 1086 H 101.105 -1.62832 -3.66451 0
M  V30 1087 H 97.6947 -2.95006 -3.10917 0
M  V30 1088 H 101.879 -3.92787 -3.03368 0
M  V30 1089 H 97.1347 -5.33998 -2.97752 0
M  V30 1090 H 101.309 -6.32523 -2.91354 0
M  V30 1091 H 98.9357 -7.03505 -2.88071 0
M  V30 1092 N 100.511 1.16574 -1.06058 0
M  V30 1093 C 101.741 1.90675 -0.795397 0
M  V30 1094 C 102.149 1.77547 0.653735 0
M  V30 1095 O 101.492 1.11611 1.45907 0
M  V30 1096 C 101.554 3.42011 -1.10764 0
M  V30 1097 C 101.218 3.78924 -2.55471 0
M  V30 1098 C 102.215 3.81042 -3.53699 0
M  V30 1099 C 99.8998 4.09626 -2.90708 0
M  V30 1100 C 101.894 4.13346 -4.85205 0
M  V30 1101 C 99.5808 4.41597 -4.22416 0
M  V30 1102 C 100.579 4.43436 -5.19474 0
M  V30 1103 O 100.267 4.74649 -6.48817 0
M  V30 1104 H 99.9988 0.611554 -0.288058 0
M  V30 1105 H 102.553 1.48711 -1.41683 0
M  V30 1106 H 100.783 3.84312 -0.429128 0
M  V30 1107 H 102.472 3.97384 -0.827077 0
M  V30 1108 H 103.238 3.57437 -3.27817 0
M  V30 1109 H 99.1168 4.07361 -2.15819 0
M  V30 1110 H 102.661 4.14696 -5.60957 0
M  V30 1111 H 98.5578 4.64667 -4.48056 0
M  V30 1112 H 99.3258 4.9247 -6.5377 0
M  V30 1113 N 101.989 0.842826 1.3317 0
M  V30 1114 C 103.237 0.439577 1.97262 0
M  V30 1115 C 103.558 -1.00548 1.67078 0
M  V30 1116 O 102.828 -1.70098 0.971779 0
M  V30 1117 H 101.408 0.159558 0.72976 0
M  V30 1118 H 104.07 1.07665 1.62463 0
M  V30 1119 H 103.166 0.574886 3.0676 0
M  V30 1120 N 103.467 -1.45747 0.599634 0
M  V30 1121 C 104.713 -2.02592 0.0918643 0
M  V30 1122 C 105.046 -1.46806 -1.27128 0
M  V30 1123 O 104.321 -0.639658 -1.83681 0
M  V30 1124 C 104.604 -3.60073 0.0443398 0
M  V30 1125 C 104.457 -4.26208 1.43759 0
M  V30 1126 C 105.776 -4.35309 -0.647608 0
M  V30 1127 H 102.895 -0.736175 0.034857 0
M  V30 1128 H 105.537 -1.73694 0.770081 0
M  V30 1129 H 103.687 -3.84823 -0.533224 0
M  V30 1130 H 105.359 -4.12668 2.06162 0
M  V30 1131 H 103.602 -3.84916 2.00056 0
M  V30 1132 H 104.273 -5.35069 1.35665 0
M  V30 1133 H 106.749 -4.15805 -0.156776 0
M  V30 1134 H 105.625 -5.45038 -0.649942 0
M  V30 1135 H 105.886 -4.07598 -1.71219 0
M  V30 1136 N 104.945 -0.338344 -1.53925 0
M  V30 1137 C 106.194 0.260732 -2.00008 0
M  V30 1138 C 106.507 1.52073 -1.23017 0
M  V30 1139 O 107.713 2.19672 -1.5955 0
M  V30 1140 C 106.169 0.51515 -3.56194 0
M  V30 1141 C 105.777 -0.728645 -4.42035 0
M  V30 1142 C 107.521 1.07337 -4.10706 0
M  V30 1143 C 105.428 -0.445315 -5.89721 0
M  V30 1144 H 104.358 0.101205 -0.747177 0
M  V30 1145 H 107.009 -0.452866 -1.77824 0
M  V30 1146 H 105.391 1.28932 -3.74423 0
M  V30 1147 H 106.565 -1.50352 -4.35581 0
M  V30 1148 H 104.88 -1.20813 -3.98489 0
M  V30 1149 H 107.477 1.30022 -5.18651 0
M  V30 1150 H 107.82 2.0273 -3.63602 0
M  V30 1151 H 108.353 0.360034 -3.96167 0
M  V30 1152 H 105.092 -1.36883 -6.41049 0
M  V30 1153 H 104.612 0.291569 -5.99091 0
M  V30 1154 H 106.291 -0.0606218 -6.46972 0
M  V30 1155 N 106.423 1.57458 -0.0668435 0
M  V30 1156 C 107.353 2.15468 0.899764 0
M  V30 1157 C 108.334 1.08042 1.31381 0
M  V30 1158 O 109.519 1.36054 1.38574 0
M  V30 1159 C 106.649 2.71232 2.16911 0
M  V30 1160 C 105.603 3.83781 1.89463 0
M  V30 1161 C 104.929 4.26127 3.22986 0
M  V30 1162 C 106.229 5.08238 1.20381 0
M  V30 1163 H 107.923 2.96488 0.416529 0
M  V30 1164 H 105.469 1.4262 0.198908 0
M  V30 1165 H 107.422 3.10458 2.84945 0
M  V30 1166 H 106.146 1.87426 2.67468 0
M  V30 1167 H 104.805 3.45051 1.23836 0
M  V30 1168 H 104.453 3.39249 3.71374 0
M  V30 1169 H 104.153 5.01993 3.05413 0
M  V30 1170 H 105.677 4.67966 3.92225 0
M  V30 1171 H 107.091 5.44811 1.78475 0
M  V30 1172 H 105.488 5.89349 1.13083 0
M  V30 1173 H 106.558 4.84558 0.182153 0
M  V30 1174 N 107.901 -0.206675 1.56239 0
M  V30 1175 C 108.811 -1.27686 1.96808 0
M  V30 1176 C 109.827 -1.50455 0.874035 0
M  V30 1177 O 111.003 -1.63295 1.17884 0
M  V30 1178 C 108.068 -2.60358 2.28942 0
M  V30 1179 C 107.129 -2.45762 3.51994 0
M  V30 1180 C 106.362 -3.72108 3.82585 0
M  V30 1181 O 106.585 -4.75776 3.14631 0
M  V30 1182 O 105.519 -3.6833 4.76043 0
M  V30 1183 H 109.345 -0.962593 2.88041 0
M  V30 1184 H 106.93 -0.410746 1.43643 0
M  V30 1185 H 108.812 -3.38687 2.50737 0
M  V30 1186 H 107.487 -2.91435 1.4088 0
M  V30 1187 H 106.394 -1.65584 3.35459 0
M  V30 1188 H 107.727 -2.19621 4.40486 0
M  V30 1189 N 109.379 -1.50304 -0.473955 0
M  V30 1190 C 110.79 -1.54042 -1.0549 0
M  V30 1191 C 111.141 -0.342248 -1.93192 0
M  V30 1192 O 110.266 0.545157 -2.09421 0
M  V30 1193 C 110.861 -2.79152 -1.91989 0
M  V30 1194 C 109.42 -2.8558 -2.45196 0
M  V30 1195 C 108.567 -2.48295 -1.2347 0
M  V30 1196 H 111.518 -1.5661 -0.256693 0
M  V30 1197 H 111.539 -2.60845 -2.7702 0
M  V30 1198 H 111.051 -3.66339 -1.28131 0
M  V30 1199 H 109.152 -2.02738 -3.12615 0
M  V30 1200 H 109.265 -3.88403 -2.80499 0
M  V30 1201 H 107.629 -2.00669 -1.56856 0
M  V30 1202 H 108.412 -3.37787 -0.612789 0
M  V30 1203 N 110.857 0.726932 -1.39834 0
M  V30 1204 C 112.268 1.30558 -1.3346 0
M  V30 1205 C 112.619 1.962 -0.00273003 0
M  V30 1206 O 111.744 1.96826 0.899371 0
M  V30 1207 C 112.339 2.37404 -2.41713 0
M  V30 1208 C 110.898 2.90921 -2.38835 0
M  V30 1209 C 110.045 1.64578 -2.2318 0
M  V30 1210 H 112.996 0.523862 -1.49804 0
M  V30 1211 H 113.017 3.17984 -2.08966 0
M  V30 1212 H 112.529 1.89599 -3.38635 0
M  V30 1213 H 110.63 3.42985 -1.45575 0
M  V30 1214 H 110.743 3.43487 -3.33997 0
M  V30 1215 H 109.107 1.89219 -1.70494 0
M  V30 1216 H 109.89 1.18814 -3.22084 0
M  V30 1217 N 112.336 1.25143 0.95797 0
M  V30 1218 C 113.284 1.05019 2.07542 0
M  V30 1219 C 114.278 -0.0178751 1.69391 0
M  V30 1220 O 115.484 0.137472 1.79474 0
M  V30 1221 H 111.859 0.32265 0.679265 0
M  V30 1222 H 113.83 1.99759 2.21673 0
M  V30 1223 C 112.579 0.682074 3.40944 0
M  V30 1224 H 111.902 1.49573 3.70767 0
M  V30 1225 H 113.342 0.580945 4.20001 0
M  V30 1226 C 111.801 -0.611608 3.31302 0
M  V30 1227 O 112.331 -1.65465 3.66038 0
M  V30 1228 N 110.537 -0.595982 2.84423 0
M  V30 1229 H 110.084 0.253192 2.56353 0
M  V30 1230 H 110.042 -1.46173 2.78354 0
M  V30 1231 N 113.814 -1.1601 1.06675 0
M  V30 1232 C 115.044 -1.90251 0.805497 0
M  V30 1233 C 115.452 -1.77891 -0.64431 0
M  V30 1234 O 114.795 -1.12383 -1.45313 0
M  V30 1235 C 114.857 -3.41419 1.12576 0
M  V30 1236 C 114.521 -3.77564 2.57477 0
M  V30 1237 C 115.518 -3.79161 3.55715 0
M  V30 1238 C 113.203 -4.08079 2.92877 0
M  V30 1239 C 115.197 -4.10767 4.8739 0
M  V30 1240 C 112.884 -4.39351 4.24751 0
M  V30 1241 C 113.882 -4.40675 5.21818 0
M  V30 1242 O 113.57 -4.71202 6.51325 0
M  V30 1243 H 113.302 -0.610018 0.291297 0
M  V30 1244 H 115.856 -1.47958 1.4247 0
M  V30 1245 H 114.086 -3.84079 0.449503 0
M  V30 1246 H 115.775 -3.9694 0.84814 0
M  V30 1247 H 116.541 -3.55693 3.29708 0
M  V30 1248 H 112.42 -4.06211 2.17976 0
M  V30 1249 H 115.964 -4.11715 5.63148 0
M  V30 1250 H 111.861 -4.62285 4.50514 0
M  V30 1251 H 112.629 -4.88996 6.56373 0
M  V30 1252 N 115.292 -0.849877 -1.32721 0
M  V30 1253 C 116.54 -0.450032 -1.97026 0
M  V30 1254 C 116.861 0.996604 -1.67609 0
M  V30 1255 O 116.131 1.6958 -0.980786 0
M  V30 1256 H 114.711 -0.163426 -0.728904 0
M  V30 1257 H 117.373 -1.08526 -1.6189 0
M  V30 1258 H 116.469 -0.591146 -3.0645 0
M  V30 1259 N 116.77 1.45427 -0.607355 0
M  V30 1260 C 118.019 2.01452 -0.100036 0
M  V30 1261 C 118.332 1.48159 1.27704 0
M  V30 1262 O 119.538 1.96159 1.87707 0
M  V30 1263 C 117.994 3.59672 -0.128158 0
M  V30 1264 C 117.602 4.21962 -1.50507 0
M  V30 1265 C 119.346 4.23262 0.323932 0
M  V30 1266 C 117.253 5.72333 -1.48959 0
M  V30 1267 H 116.183 0.75325 -0.0336299 0
M  V30 1268 H 118.834 1.66901 -0.76265 0
M  V30 1269 H 117.216 3.91411 0.601105 0
M  V30 1270 H 118.39 4.01796 -2.25602 0
M  V30 1271 H 116.705 3.70565 -1.89923 0
M  V30 1272 H 119.302 5.33522 0.354691 0
M  V30 1273 H 119.645 3.93921 1.34656 0
M  V30 1274 H 120.178 3.96239 -0.352056 0
M  V30 1275 H 116.917 6.06373 -2.48981 0
M  V30 1276 H 116.437 5.94691 -0.781214 0
M  V30 1277 H 118.116 6.35525 -1.21313 0
M  V30 1278 N 118.248 0.346503 1.53744 0
M  V30 1279 C 119.494 -0.249473 2.0126 0
M  V30 1280 C 119.827 -1.49965 1.23386 0
M  V30 1281 O 119.102 -1.91811 0.32229 0
M  V30 1282 C 119.385 -0.560643 3.55709 0
M  V30 1283 C 119.238 0.701836 4.44291 0
M  V30 1284 C 120.557 -1.36905 4.18264 0
M  V30 1285 H 117.676 -0.0891987 0.731582 0
M  V30 1286 H 120.318 0.467624 1.84156 0
M  V30 1287 H 118.468 -1.17156 3.70414 0
M  V30 1288 H 120.14 1.33974 4.41417 0
M  V30 1289 H 118.383 1.32612 4.13033 0
M  V30 1290 H 119.054 0.43933 5.50249 0
M  V30 1291 H 121.53 -0.852448 4.07275 0
M  V30 1292 H 120.406 -1.55553 5.26398 0
M  V30 1293 H 120.667 -2.37203 3.73078 0
M  V30 1294 N 119.726 -1.57421 0.075193 0
M  V30 1295 C 120.954 -1.97946 -0.602076 0
M  V30 1296 C 121.369 -0.953674 -1.62943 0
M  V30 1297 O 120.726 0.0592551 -1.82404 0
M  V30 1298 C 120.777 -3.38546 -1.26762 0
M  V30 1299 O 120.498 -4.37195 -0.281376 0
M  V30 1300 C 121.999 -3.93966 -2.03239 0
M  V30 1301 H 119.219 -0.650918 -0.162931 0
M  V30 1302 H 121.763 -2.03959 0.148601 0
M  V30 1303 H 119.918 -3.33609 -1.96936 0
M  V30 1304 H 120.332 -5.18975 -0.759267 0
M  V30 1305 H 121.806 -4.94555 -2.45193 0
M  V30 1306 H 122.283 -3.30693 -2.8903 0
M  V30 1307 H 122.889 -4.02315 -1.37924 0
M  V30 1308 N 121.204 0.198386 -1.56346 0
M  V30 1309 C 122.114 1.2664 -1.97483 0
M  V30 1310 C 123.13 1.49989 -0.882002 0
M  V30 1311 O 124.306 1.62668 -1.18748 0
M  V30 1312 C 121.371 2.59141 -2.30319 0
M  V30 1313 C 120.432 2.43892 -3.53292 0
M  V30 1314 C 119.665 3.70074 -3.84553 0
M  V30 1315 O 119.888 4.74101 -3.1715 0
M  V30 1316 O 118.822 3.658 -4.7799 0
M  V30 1317 H 122.648 0.947304 -2.88548 0
M  V30 1318 H 120.233 0.403123 -1.43859 0
M  V30 1319 H 122.115 3.37352 -2.5253 0
M  V30 1320 H 120.79 2.90684 -1.42423 0
M  V30 1321 H 119.697 1.63803 -3.36332 0
M  V30 1322 H 121.03 2.17282 -4.41644 0
M  V30 1323 N 122.682 1.50554 0.465978 0
M  V30 1324 C 123.912 1.65323 1.23903 0
M  V30 1325 C 124.32 0.338051 1.86155 0
M  V30 1326 O 123.663 -0.690518 1.70228 0
M  V30 1327 C 123.725 2.69048 2.3844 0
M  V30 1328 C 123.389 4.12462 1.96784 0
M  V30 1329 C 124.386 4.98168 1.48745 0
M  V30 1330 C 122.071 4.58407 2.05349 0
M  V30 1331 C 124.065 6.27868 1.0982 0
M  V30 1332 C 121.752 5.88112 1.66035 0
M  V30 1333 C 122.75 6.72668 1.18349 0
M  V30 1334 O 122.438 7.99951 0.795825 0
M  V30 1335 H 122.17 0.558629 0.38067 0
M  V30 1336 H 124.724 1.97561 0.562022 0
M  V30 1337 H 122.954 2.32062 3.09328 0
M  V30 1338 H 124.643 2.72985 3.0039 0
M  V30 1339 H 125.409 4.63885 1.41546 0
M  V30 1340 H 121.288 3.92735 2.41414 0
M  V30 1341 H 124.832 6.93819 0.725293 0
M  V30 1342 H 120.729 6.21914 1.72895 0
M  V30 1343 H 121.497 8.13265 0.924222 0
M  V30 1344 N 124.16 -0.719506 1.40217 0
M  V30 1345 C 125.123 -1.8153 1.39927 0
M  V30 1346 C 126.123 -1.58095 0.293723 0
M  V30 1347 O 127.313 -1.65209 0.552429 0
M  V30 1348 C 124.445 -3.19561 1.18716 0
M  V30 1349 H 125.638 -1.83186 2.37451 0
M  V30 1350 H 123.191 -0.924746 1.26008 0
M  V30 1351 H 123.926 -3.23557 0.219366 0
M  V30 1352 H 123.711 -3.3797 1.98793 0
M  V30 1353 H 125.201 -3.99598 1.21291 0
M  V30 1354 N 125.638 -1.25649 -0.95132 0
M  V30 1355 C 126.863 -1.13443 -1.73624 0
M  V30 1356 C 127.288 0.307565 -1.85568 0
M  V30 1357 O 126.646 1.22282 -1.33854 0
M  V30 1358 C 126.694 -1.79723 -3.12621 0
M  V30 1359 O 125.798 -1.07912 -3.98031 0
M  V30 1360 H 125.139 -0.395872 -0.533086 0
M  V30 1361 H 127.669 -1.66276 -1.1922 0
M  V30 1362 H 127.679 -1.86141 -3.63064 0
M  V30 1363 H 126.354 -2.84633 -3.03244 0
M  V30 1364 H 124.931 -1.09398 -3.56492 0
M  V30 1365 N 127.117 1.15442 -1.07289 0
M  V30 1366 C 128.047 2.22312 -0.714107 0
M  V30 1367 C 129.028 1.67467 0.298155 0
M  V30 1368 O 130.213 1.93445 0.171048 0
M  V30 1369 C 127.343 3.47124 -0.110448 0
M  V30 1370 C 126.297 4.14926 -1.04979 0
M  V30 1371 C 125.623 5.33807 -0.308924 0
M  V30 1372 C 126.923 4.64762 -2.38314 0
M  V30 1373 H 128.617 2.5258 -1.6076 0
M  V30 1374 H 126.163 1.21404 -0.77441 0
M  V30 1375 H 128.116 4.21124 0.152482 0
M  V30 1376 H 126.84 3.16187 0.81812 0
M  V30 1377 H 125.499 3.42866 -1.29764 0
M  V30 1378 H 125.147 4.99126 0.623084 0
M  V30 1379 H 124.847 5.80113 -0.935036 0
M  V30 1380 H 126.371 6.10576 -0.0537771 0
M  V30 1381 H 127.785 5.30292 -2.1786 0
M  V30 1382 H 126.182 5.21728 -2.96514 0
M  V30 1383 H 127.252 3.80434 -3.00663 0
M  V30 1384 N 128.595 0.856903 1.32268 0
M  V30 1385 C 129.843 0.460474 1.96784 0
M  V30 1386 C 130.164 -0.987701 1.68135 0
M  V30 1387 O 129.434 -1.69058 0.989765 0
M  V30 1388 H 128.014 0.167289 0.728027 0
M  V30 1389 H 130.676 1.09383 1.61312 0
M  V30 1390 H 129.772 0.60739 3.06133 0
M  V30 1391 N 130.073 -1.45103 0.615059 0
M  V30 1392 C 131.298 -2.07064 0.117988 0
M  V30 1393 C 131.723 -1.4554 -1.19163 0
M  V30 1394 O 131.081 -0.550855 -1.72729 0
M  V30 1395 C 131.129 -3.606 -0.000288387 0
M  V30 1396 O 130.233 -3.98847 -1.04856 0
M  V30 1397 H 129.574 -0.659467 0.0774581 0
M  V30 1398 H 132.104 -1.86236 0.847186 0
M  V30 1399 H 132.114 -4.07529 -0.196091 0
M  V30 1400 H 130.789 -4.04765 0.955932 0
M  V30 1401 H 129.366 -3.63577 -0.828619 0
M  V30 1402 N 131.551 -0.354651 -1.53558 0
M  V30 1403 C 132.481 0.489091 -2.2832 0
M  V30 1404 C 133.462 1.09324 -1.30316 0
M  V30 1405 O 134.647 1.11255 -1.59173 0
M  V30 1406 C 131.777 1.63456 -3.0643 0
M  V30 1407 C 130.731 1.1582 -4.12031 0
M  V30 1408 C 130.057 2.39305 -4.7816 0
M  V30 1409 C 131.357 0.250731 -5.21698 0
M  V30 1410 H 133.051 -0.134614 -2.99097 0
M  V30 1411 H 130.597 -0.0661826 -1.43848 0
M  V30 1412 H 132.55 2.23136 -3.57475 0
M  V30 1413 H 131.274 2.28533 -2.33325 0
M  V30 1414 H 129.933 0.584146 -3.61916 0
M  V30 1415 H 129.581 3.02814 -4.01637 0
M  V30 1416 H 129.281 2.08109 -5.49513 0
M  V30 1417 H 130.805 2.99691 -5.31994 0
M  V30 1418 H 132.219 0.754695 -5.68311 0
M  V30 1419 H 130.616 0.0301468 -6.00092 0
M  V30 1420 H 131.686 -0.710125 -4.79672 0
M  V30 1421 N 133.029 1.57378 -0.0835403 0
M  V30 1422 C 134.259 1.97975 0.590713 0
M  V30 1423 C 134.667 0.961083 1.62972 0
M  V30 1424 O 134.01 -0.0590879 1.83605 0
M  V30 1425 C 134.072 3.34915 1.3066 0
M  V30 1426 C 133.736 4.55069 0.419698 0
M  V30 1427 C 134.733 5.18868 -0.32749 0
M  V30 1428 C 132.418 5.0114 0.341137 0
M  V30 1429 C 134.412 6.27098 -1.14134 0
M  V30 1430 C 132.099 6.0924 -0.476374 0
M  V30 1431 C 133.097 6.72083 -1.21627 0
M  V30 1432 O 132.785 7.781 -2.02028 0
M  V30 1433 H 132.517 0.655818 0.163947 0
M  V30 1434 H 135.071 2.04807 -0.156021 0
M  V30 1435 H 133.301 3.24733 2.09966 0
M  V30 1436 H 134.99 3.60037 1.87424 0
M  V30 1437 H 135.756 4.84211 -0.276459 0
M  V30 1438 H 131.635 4.51996 0.90668 0
M  V30 1439 H 135.179 6.7608 -1.71935 0
M  V30 1440 H 131.076 6.43329 -0.528927 0
M  V30 1441 H 131.844 7.95034 -1.94586 0
M  V30 1442 N 134.507 -0.190092 1.56449 0
M  V30 1443 C 135.784 -0.935886 1.71757 0
M  V30 1444 C 136.164 -2.01173 0.639726 0
M  V30 1445 O 135.512 -2.25827 -0.348502 0
M  V30 1446 C 135.722 -1.51775 3.1427 0
M  V30 1447 C 137.07 -1.99794 3.74656 0
M  V30 1448 O 138.094 -1.61607 3.1743 0
M  V30 1449 O 136.953 -2.70079 4.751 0
M  V30 1450 H 134.047 -0.439229 0.700719 0
M  V30 1451 H 136.593 -0.179395 1.68749 0
M  V30 1452 H 135.365 -0.742505 3.84191 0
M  V30 1453 H 134.988 -2.33894 3.21527 0
M  V30 1454 N 135.985 -1.50799 -0.457987 0
M  V30 1455 C 137.215 -1.65977 -1.23025 0
M  V30 1456 C 137.623 -0.347918 -1.85974 0
M  V30 1457 O 136.966 0.68148 -1.70592 0
M  V30 1458 C 137.028 -2.70309 -2.3701 0
M  V30 1459 C 136.692 -4.135 -1.94594 0
M  V30 1460 C 137.689 -4.98949 -1.46101 0
M  V30 1461 C 135.374 -4.5949 -2.02915 0
M  V30 1462 C 137.368 -6.28442 -1.06489 0
M  V30 1463 C 135.055 -5.88984 -1.62914 0
M  V30 1464 C 136.053 -6.73286 -1.1478 0
M  V30 1465 O 135.741 -8.00362 -0.75339 0
M  V30 1466 H 135.473 -0.56064 -0.377702 0
M  V30 1467 H 138.027 -1.97857 -0.551537 0
M  V30 1468 H 136.257 -2.337 -3.08093 0
M  V30 1469 H 137.946 -2.74574 -2.98938 0
M  V30 1470 H 138.712 -4.6463 -1.39084 0
M  V30 1471 H 134.591 -3.94009 -2.39328 0
M  V30 1472 H 138.135 -6.94194 -0.688488 0
M  V30 1473 H 134.032 -6.22822 -1.69595 0
M  V30 1474 H 134.8 -8.13744 -0.88108 0
M  V30 1475 N 137.463 0.71206 -1.40597 0
M  V30 1476 C 138.712 1.46754 -1.38369 0
M  V30 1477 C 139.025 1.95598 0.0097839 0
M  V30 1478 O 140.231 2.71059 0.154677 0
M  V30 1479 C 138.687 2.65289 -2.43207 0
M  V30 1480 C 138.295 2.23301 -3.88382 0
M  V30 1481 C 140.039 3.43008 -2.50091 0
M  V30 1482 C 137.946 3.38696 -4.84808 0
M  V30 1483 H 136.876 0.55118 -0.514506 0
M  V30 1484 H 139.527 0.774616 -1.66349 0
M  V30 1485 H 137.909 3.36769 -2.08332 0
M  V30 1486 H 139.083 1.59218 -4.32419 0
M  V30 1487 H 137.398 1.58618 -3.85006 0
M  V30 1488 H 139.995 4.28881 -3.1932 0
M  V30 1489 H 140.338 3.87065 -1.53253 0
M  V30 1490 H 140.871 2.78574 -2.83974 0
M  V30 1491 H 137.61 2.99668 -5.82992 0
M  V30 1492 H 137.13 4.01683 -4.45433 0
M  V30 1493 H 138.809 4.04712 -5.04794 0
M  V30 1494 N 138.941 1.26152 0.944643 0
M  V30 1495 C 139.889 1.07215 2.06417 0
M  V30 1496 C 140.883 9.2007e-05 1.694 0
M  V30 1497 O 142.089 0.1565 1.79318 0
M  V30 1498 H 138.464 0.329837 0.675805 0
M  V30 1499 H 140.435 2.02099 2.19541 0
M  V30 1500 C 139.184 0.718197 3.40202 0
M  V30 1501 H 138.507 1.53497 3.69159 0
M  V30 1502 H 139.947 0.625459 4.19361 0
M  V30 1503 C 138.406 -0.576435 3.31932 0
M  V30 1504 O 138.936 -1.61574 3.67773 0
M  V30 1505 N 137.142 -0.565781 2.85039 0
M  V30 1506 H 136.689 0.280367 2.5607 0
M  V30 1507 H 136.647 -1.43213 2.79888 0
M  V30 1508 N 140.419 -1.14872 1.07899 0
M  V30 1509 C 141.644 -1.90202 0.826926 0
M  V30 1510 C 142.069 -1.77774 -0.614664 0
M  V30 1511 O 141.427 -1.11431 -1.43013 0
M  V30 1512 C 141.475 -3.38352 1.24702 0
M  V30 1513 O 140.579 -4.10497 0.39575 0
M  V30 1514 H 139.92 -0.591968 0.300782 0
M  V30 1515 H 142.45 -1.45437 1.43907 0
M  V30 1516 H 142.46 -3.89156 1.22563 0
M  V30 1517 H 141.135 -3.46715 2.29698 0
M  V30 1518 H 139.712 -3.69796 0.480117 0
M  V30 1519 N 141.898 -0.863906 -1.31812 0
M  V30 1520 C 142.846 -0.30422 -2.30602 0
M  V30 1521 C 143.84 0.577419 -1.59255 0
M  V30 1522 O 145.046 0.464194 -1.73912 0
M  V30 1523 H 141.421 -0.0796877 -0.747766 0
M  V30 1524 H 143.392 -1.15148 -2.75288 0
M  V30 1525 C 142.141 0.484617 -3.44306 0
M  V30 1526 H 141.464 -0.18451 -3.99374 0
M  V30 1527 H 142.904 0.841664 -4.15562 0
M  V30 1528 C 141.363 1.6735 -2.92396 0
M  V30 1529 O 141.893 2.77273 -2.90659 0
M  V30 1530 N 140.099 1.50362 -2.48676 0
M  V30 1531 H 139.646 0.609402 -2.50288 0
M  V30 1532 H 139.604 2.30051 -2.14299 0
M  V30 1533 N 143.376 1.44774 -0.622745 0
M  V30 1534 C 144.792 1.56986 -0.287652 0
M  V30 1535 C 144.992 1.61167 1.20944 0
M  V30 1536 O 144.048 1.55015 1.99315 0
M  V30 1537 C 145.361 2.84551 -0.972188 0
M  V30 1538 C 146.909 2.9825 -0.949536 0
M  V30 1539 C 147.384 4.28605 -1.61437 0
M  V30 1540 N 148.875 4.35399 -1.58057 0
M  V30 1541 C 149.61 5.34964 -2.064 0
M  V30 1542 N 149.106 6.40981 -2.62897 0
M  V30 1543 N 150.899 5.26419 -1.97078 0
M  V30 1544 H 143.05 1.40304 -1.59463 0
M  V30 1545 H 145.313 0.671794 -0.668878 0
M  V30 1546 H 145.019 2.87417 -2.02693 0
M  V30 1547 H 144.893 3.73807 -0.504771 0
M  V30 1548 H 147.28 2.94941 0.0967067 0
M  V30 1549 H 147.361 2.10364 -1.45536 0
M  V30 1550 H 147.005 4.32672 -2.66002 0
M  V30 1551 H 146.935 5.15334 -1.08344 0
M  V30 1552 H 149.426 3.59397 -1.16801 0
M  V30 1553 H 149.739 7.13225 -2.97539 0
M  V30 1554 H 148.084 6.4169 -2.66943 0
M  V30 1555 H 151.275 4.42504 -1.52669 0
M  V30 1556 H 151.448 6.03861 -2.35066 0
M  V30 1557 N 144.854 0.36279 1.53368 0
M  V30 1558 C 146.079 -0.231226 2.06107 0
M  V30 1559 C 146.504 -1.419 1.23474 0
M  V30 1560 O 145.862 -1.79524 0.253128 0
M  V30 1561 C 145.91 -0.605523 3.5548 0
M  V30 1562 O 145.014 -1.70312 3.7559 0
M  V30 1563 H 144.355 -0.034327 0.663112 0
M  V30 1564 H 146.885 0.522584 1.97814 0
M  V30 1565 H 146.895 -0.877314 3.98456 0
M  V30 1566 H 145.57 0.263004 4.15068 0
M  V30 1567 H 144.147 -1.4271 3.44512 0
M  V30 1568 N 146.332 -1.57332 0.0918853 0
M  V30 1569 C 147.242 -2.17368 -0.882505 0
M  V30 1570 C 148.258 -1.14226 -1.31257 0
M  V30 1571 O 149.434 -1.46582 -1.38115 0
M  V30 1572 C 146.499 -2.73962 -2.12476 0
M  V30 1573 C 145.56 -3.92048 -1.7492 0
M  V30 1574 C 144.793 -4.45933 -2.93223 0
M  V30 1575 O 145.016 -3.98764 -4.07852 0
M  V30 1576 O 143.95 -5.36999 -2.71875 0
M  V30 1577 H 147.776 -3.01031 -0.40172 0
M  V30 1578 H 145.361 -1.48813 -0.132291 0
M  V30 1579 H 147.243 -3.10147 -2.85283 0
M  V30 1580 H 145.918 -1.93347 -2.59613 0
M  V30 1581 H 144.825 -3.6068 -0.993025 0
M  V30 1582 H 146.158 -4.74017 -1.32548 0
M  V30 1583 N 147.81 0.181792 -1.56548 0
M  V30 1584 C 148.72 1.24538 -1.98815 0
M  V30 1585 C 149.736 1.49045 -0.897861 0
M  V30 1586 O 150.912 1.61399 -1.20467 0
M  V30 1587 C 147.977 2.56683 -2.33055 0
M  V30 1588 C 147.038 2.40131 -3.55859 0
M  V30 1589 C 146.271 3.65975 -3.88456 0
M  V30 1590 O 146.494 4.70711 -3.22161 0
M  V30 1591 O 145.428 3.6071 -4.81842 0
M  V30 1592 H 149.254 0.916647 -2.89536 0
M  V30 1593 H 146.839 0.387842 -1.44278 0
M  V30 1594 H 148.721 3.34655 -2.56094 0
M  V30 1595 H 147.396 2.89157 -1.45498 0
M  V30 1596 H 146.303 1.60226 -3.38051 0
M  V30 1597 H 147.636 2.12585 -4.43924 0
M  V30 1598 N 149.288 1.51039 0.449983 0
M  V30 1599 C 150.221 1.66105 1.56474 0
M  V30 1600 C 151.199 0.508776 1.54435 0
M  V30 1601 O 152.383 0.731005 1.73749 0
M  V30 1602 C 149.51 1.66304 2.9506 0
M  V30 1603 C 148.556 2.87346 3.15174 0
M  V30 1604 S 149.389 4.4835 2.92818 0
M  V30 1605 C 150.545 4.51274 4.33708 0
M  V30 1606 H 150.778 2.60397 1.43459 0
M  V30 1607 H 148.311 1.40565 0.638805 0
M  V30 1608 H 150.269 1.67103 3.74949 0
M  V30 1609 H 148.93 0.732108 3.05449 0
M  V30 1610 H 148.123 2.83849 4.16468 0
M  V30 1611 H 147.725 2.84223 2.43091 0
M  V30 1612 H 150.017 4.26136 5.26701 0
M  V30 1613 H 150.96 5.53017 4.42242 0
M  V30 1614 H 151.368 3.80738 4.16772 0
M  V30 1615 N 150.766 -0.704594 1.40972 0
M  V30 1616 C 152.043 -1.45847 1.30338 0
M  V30 1617 C 152.423 -2.10973 -0.0732344 0
M  V30 1618 O 151.771 -2.00997 -1.08685 0
M  V30 1619 C 151.981 -2.48525 2.45023 0
M  V30 1620 C 153.329 -3.1404 2.8577 0
M  V30 1621 O 154.353 -2.58848 2.44696 0
M  V30 1622 O 153.212 -4.13981 3.56766 0
M  V30 1623 H 150.306 -0.649092 0.512454 0
M  V30 1624 H 152.852 -0.735836 1.52917 0
M  V30 1625 H 151.624 -1.98994 3.36923 0
M  V30 1626 H 151.247 -3.2831 2.24272 0
M  V30 1627 N 152.244 -1.26651 -0.937939 0
M  V30 1628 C 153.177 -1.02811 -2.03728 0
M  V30 1629 C 154.155 0.0481915 -1.62529 0
M  V30 1630 O 155.339 -0.0948839 -1.88261 0
M  V30 1631 C 152.466 -0.557517 -3.3408 0
M  V30 1632 C 151.512 -1.62686 -3.94253 0
M  V30 1633 S 152.345 -3.21667 -4.28125 0
M  V30 1634 C 153.501 -2.76384 -5.61572 0
M  V30 1635 H 153.734 -1.95891 -2.23638 0
M  V30 1636 H 151.267 -1.10367 -1.07974 0
M  V30 1637 H 153.225 -0.292674 -4.09455 0
M  V30 1638 H 151.886 0.353062 -3.12109 0
M  V30 1639 H 151.079 -1.24866 -4.88287 0
M  V30 1640 H 150.681 -1.84324 -3.25424 0
M  V30 1641 H 152.973 -2.2105 -6.40424 0
M  V30 1642 H 153.916 -3.69123 -6.0428 0
M  V30 1643 H 154.324 -2.15847 -5.21604 0
M  V30 1644 N 153.722 1.14298 -1.08507 0
M  V30 1645 C 154.999 1.81544 -0.728088 0
M  V30 1646 C 155.379 1.95838 0.78808 0
M  V30 1647 O 154.727 1.51904 1.70697 0
M  V30 1648 C 154.937 3.17169 -1.45619 0
M  V30 1649 C 156.285 3.9265 -1.61591 0
M  V30 1650 O 157.309 3.26762 -1.41793 0
M  V30 1651 O 156.168 5.10807 -1.94263 0
M  V30 1652 H 153.262 0.78491 -0.260471 0
M  V30 1653 H 155.808 1.21307 -1.18671 0
M  V30 1654 H 154.58 3.01934 -2.489 0
M  V30 1655 H 154.203 3.851 -0.989124 0
M  V30 1656 N 155.201 0.870884 1.31352 0
M  V30 1657 C 156.151 0.298889 2.26032 0
M  V30 1658 C 157.135 -0.564595 1.50669 0
M  V30 1659 O 158.327 -0.411323 1.72154 0
M  V30 1660 C 155.456 -0.497842 3.39671 0
M  V30 1661 C 154.542 0.378937 4.22404 0
M  V30 1662 N 154.933 1.47284 4.83881 0
M  V30 1663 C 153.231 0.171535 4.4567 0
M  V30 1664 C 153.932 2.01359 5.45738 0
M  V30 1665 N 152.908 1.31047 5.27568 0
M  V30 1666 H 156.71 1.13494 2.71102 0
M  V30 1667 H 154.224 0.718745 1.45629 0
M  V30 1668 H 156.221 -0.924155 4.06528 0
M  V30 1669 H 154.881 -1.33149 2.96144 0
M  V30 1670 H 155.892 1.85575 4.8351 0
M  V30 1671 H 152.569 -0.626091 4.12779 0
M  V30 1672 H 153.959 2.93143 6.0458 0
M  V30 1673 N 156.679 -1.44442 0.630414 0
M  V30 1674 C 157.928 -2.01267 0.132073 0
M  V30 1675 C 158.241 -1.50172 -1.25331 0
M  V30 1676 O 159.447 -1.9912 -1.84562 0
M  V30 1677 C 157.903 -3.59422 0.185362 0
M  V30 1678 C 157.511 -4.19514 1.57201 0
M  V30 1679 C 159.255 -4.23724 -0.256553 0
M  V30 1680 C 157.162 -5.69891 1.58045 0
M  V30 1681 H 156.092 -0.752619 0.0456092 0
M  V30 1682 H 158.743 -1.65666 0.789106 0
M  V30 1683 H 157.125 -3.92318 -0.538759 0
M  V30 1684 H 158.299 -3.98156 2.31966 0
M  V30 1685 H 156.614 -3.67496 1.95795 0
M  V30 1686 H 159.211 -5.34019 -0.269767 0
M  V30 1687 H 159.554 -3.96013 -1.28372 0
M  V30 1688 H 160.087 -3.95629 0.41505 0
M  V30 1689 H 156.826 -6.02336 2.58597 0
M  V30 1690 H 156.346 -5.93373 0.875725 0
M  V30 1691 H 158.025 -6.33515 1.31408 0
M  V30 1692 N 158.157 -0.370918 -1.53173 0
M  V30 1693 C 159.09 0.516727 -2.22273 0
M  V30 1694 C 160.068 1.07877 -1.21661 0
M  V30 1695 O 161.252 1.13389 -1.50583 0
M  V30 1696 C 158.379 1.71346 -2.92161 0
M  V30 1697 C 157.425 1.27838 -4.0689 0
M  V30 1698 S 158.258 0.275217 -5.34792 0
M  V30 1699 C 159.414 1.47816 -6.08195 0
M  V30 1700 H 159.647 -0.0701054 -2.97217 0
M  V30 1701 H 157.18 -0.155038 -1.5362 0
M  V30 1702 H 159.138 2.39988 -3.3304 0
M  V30 1703 H 157.799 2.27156 -2.16931 0
M  V30 1704 H 156.992 2.17141 -4.54825 0
M  V30 1705 H 156.594 0.671105 -3.6793 0
M  V30 1706 H 158.886 2.40831 -6.33251 0
M  V30 1707 H 159.829 1.04008 -7.0042 0
M  V30 1708 H 160.237 1.68663 -5.38714 0
M  V30 1709 N 159.635 1.57281 -0.100228 0
M  V30 1710 C 160.863 1.98879 0.570509 0
M  V30 1711 C 161.278 0.979476 1.61405 0
M  V30 1712 O 160.635 -0.0302288 1.82475 0
M  V30 1713 C 160.686 3.4052 1.2136 0
M  V30 1714 O 160.407 4.37588 0.211786 0
M  V30 1715 C 161.908 3.97149 1.96945 0
M  V30 1716 H 159.128 0.653428 0.152555 0
M  V30 1717 H 161.672 2.03697 -0.18103 0
M  V30 1718 H 159.827 3.367 1.91603 0
M  V30 1719 H 160.241 5.20118 0.676607 0
M  V30 1720 H 161.715 4.98393 2.37294 0
M  V30 1721 H 162.192 3.3525 2.83733 0
M  V30 1722 H 162.798 4.04458 1.31506 0
M  V30 1723 N 161.113 -0.173488 1.56642 0
M  V30 1724 C 162.359 -0.887108 1.83035 0
M  V30 1725 C 162.714 -1.79965 0.680461 0
M  V30 1726 O 162.007 -1.88854 -0.323225 0
M  V30 1727 C 162.201 -1.72069 3.13252 0
M  V30 1728 C 162.03 -0.89035 4.40798 0
M  V30 1729 C 160.8 -0.566282 5.02117 0
M  V30 1730 C 162.998 -0.232921 5.13772 0
M  V30 1731 N 160.98 0.280427 6.13259 0
M  V30 1732 C 162.351 0.475046 6.18177 0
M  V30 1733 C 164.406 -0.150863 4.97671 0
M  V30 1734 C 163.109 1.25729 7.08227 0
M  V30 1735 C 165.135 0.618039 5.88162 0
M  V30 1736 C 164.497 1.31438 6.92029 0
M  V30 1737 H 160.596 -0.303303 0.720785 0
M  V30 1738 H 163.18 -0.154244 1.94088 0
M  V30 1739 H 161.351 -2.42499 3.03395 0
M  V30 1740 H 163.083 -2.37545 3.2765 0
M  V30 1741 H 159.838 -0.895852 4.6505 0
M  V30 1742 H 160.262 0.694027 6.73433 0
M  V30 1743 H 164.904 -0.674868 4.17379 0
M  V30 1744 H 162.622 1.79265 7.87966 0
M  V30 1745 H 166.208 0.683173 5.77775 0
M  V30 1746 H 165.088 1.89981 7.6084 0
M  V30 1747 N 162.591 -1.51276 -0.441967 0
M  V30 1748 C 163.554 -1.7167 -1.51862 0
M  V30 1749 C 164.554 -0.586793 -1.49711 0
M  V30 1750 O 165.744 -0.854276 -1.51815 0
M  V30 1751 C 162.876 -1.76889 -2.91416 0
M  V30 1752 H 164.069 -2.67754 -1.35084 0
M  V30 1753 H 161.622 -1.41196 -0.670333 0
M  V30 1754 H 162.357 -0.826026 -3.13604 0
M  V30 1755 H 162.142 -2.59001 -2.94382 0
M  V30 1756 H 163.632 -1.94522 -3.69528 0
M  V30 1757 N 164.069 0.697108 -1.41344 0
M  V30 1758 C 165.297 1.48593 -1.43972 0
M  V30 1759 C 165.712 1.88747 -0.0445612 0
M  V30 1760 O 165.069 1.56682 0.935785 0
M  V30 1761 C 165.12 2.74946 -2.34706 0
M  V30 1762 O 164.841 2.36484 -3.68791 0
M  V30 1763 C 166.342 3.687 -2.46121 0
M  V30 1764 H 163.562 0.457964 -0.490418 0
M  V30 1765 H 166.106 0.858429 -1.8561 0
M  V30 1766 H 164.261 3.33937 -1.9638 0
M  V30 1767 H 164.675 3.17918 -4.17167 0
M  V30 1768 H 166.149 4.54145 -3.13777 0
M  V30 1769 H 166.626 4.13081 -1.49199 0
M  V30 1770 H 167.232 3.15613 -2.85076 0
M  V30 1771 N 165.547 1.27147 0.931209 0
M  V30 1772 C 166.824 1.0401 1.65654 0
M  V30 1773 C 167.204 -0.426297 2.06751 0
M  V30 1774 O 166.552 -1.40879 1.79904 0
M  V30 1775 C 166.762 1.99834 2.86125 0
M  V30 1776 C 168.11 2.29007 3.57549 0
M  V30 1777 O 169.134 1.97779 2.96246 0
M  V30 1778 O 167.993 2.82222 4.67989 0
M  V30 1779 H 165.087 0.396239 0.725895 0
M  V30 1780 H 167.633 1.38397 0.982056 0
M  V30 1781 H 166.405 2.98744 2.52721 0
M  V30 1782 H 166.028 1.65987 3.61295 0
M  V30 1783 N 167.025 -1.13721 1.09112 0
M  V30 1784 C 168.271 -1.85198 0.826414 0
M  V30 1785 C 168.604 -1.83129 -0.646319 0
M  V30 1786 O 167.879 -1.2671 -1.47563 0
M  V30 1787 C 168.162 -3.33507 1.35812 0
M  V30 1788 C 168.015 -3.44108 2.89672 0
M  V30 1789 C 169.334 -4.28838 0.989256 0
M  V30 1790 H 166.453 -0.67243 0.301675 0
M  V30 1791 H 169.095 -1.33499 1.35197 0
M  V30 1792 H 167.245 -3.77666 0.911082 0
M  V30 1793 H 168.917 -3.08684 3.428 0
M  V30 1794 H 167.16 -2.85087 3.26967 0
M  V30 1795 H 167.831 -4.48388 3.21951 0
M  V30 1796 H 170.307 -3.92734 1.37475 0
M  V30 1797 H 169.183 -5.31051 1.38838 0
M  V30 1798 H 169.444 -4.4198 -0.102924 0
M  V30 1799 N 168.503 -0.877838 -1.30888 0
M  V30 1800 C 169.466 -0.344265 -2.266 0
M  V30 1801 C 170.466 0.50922 -1.52524 0
M  V30 1802 O 171.656 0.317398 -1.71284 0
M  V30 1803 C 168.788 0.510198 -3.37061 0
M  V30 1804 H 169.981 -1.1893 -2.7531 0
M  V30 1805 H 167.534 -0.654088 -1.41956 0
M  V30 1806 H 168.269 1.37612 -2.93655 0
M  V30 1807 H 168.054 -0.101047 -3.9197 0
M  V30 1808 H 169.544 0.875537 -4.08319 0
M  V30 1809 N 169.982 1.44106 -0.638065 0
M  V30 1810 C 170.929 2.30715 0.062701 0
M  V30 1811 C 171.899 1.43882 0.829883 0
M  V30 1812 O 173.084 1.72775 0.809532 0
M  V30 1813 C 170.224 3.29258 1.03358 0
M  V30 1814 C 169.337 4.31192 0.26409 0
M  V30 1815 C 168.472 5.16825 1.22741 0
M  V30 1816 C 167.511 6.10462 0.447475 0
M  V30 1817 N 166.648 6.8877 1.36161 0
M  V30 1818 H 171.488 2.90096 -0.681781 0
M  V30 1819 H 169.025 1.42925 -0.347988 0
M  V30 1820 H 170.983 3.84886 1.60992 0
M  V30 1821 H 169.613 2.71562 1.74511 0
M  V30 1822 H 168.665 3.77981 -0.428295 0
M  V30 1823 H 169.977 4.97619 -0.343052 0
M  V30 1824 H 169.131 5.77004 1.87487 0
M  V30 1825 H 167.87 4.50488 1.86847 0
M  V30 1826 H 166.875 5.49386 -0.213433 0
M  V30 1827 H 168.1 6.78837 -0.188968 0
M  V30 1828 H 166.046 6.25096 1.98975 0
M  V30 1829 H 165.963 7.51663 0.808656 0
M  V30 1830 H 167.231 7.53467 1.99769 0
M  V30 1831 N 171.46 0.379036 1.52974 0
M  V30 1832 C 172.708 -0.206014 2.01047 0
M  V30 1833 C 173.029 -1.48175 1.26765 0
M  V30 1834 O 172.299 -1.92085 0.384743 0
M  V30 1835 H 170.879 -0.0791184 0.742798 0
M  V30 1836 H 173.541 0.508366 1.88153 0
M  V30 1837 H 172.637 -0.423501 3.09213 0
M  V30 1838 N 172.938 -1.57226 0.108567 0
M  V30 1839 C 173.871 -2.10447 -0.882464 0
M  V30 1840 C 174.849 -1.01829 -1.26766 0
M  V30 1841 O 176.033 -1.29415 -1.37054 0
M  V30 1842 C 173.16 -2.59258 -2.17952 0
M  V30 1843 C 172.206 -3.79662 -1.94318 0
M  V30 1844 S 173.039 -5.22586 -1.16892 0
M  V30 1845 C 174.195 -5.74758 -2.47799 0
M  V30 1846 H 174.428 -2.94178 -0.429745 0
M  V30 1847 H 171.961 -1.54043 -0.105 0
M  V30 1848 H 173.919 -2.88036 -2.92482 0
M  V30 1849 H 172.58 -1.75728 -2.60343 0
M  V30 1850 H 171.773 -4.11928 -2.90399 0
M  V30 1851 H 171.375 -3.51446 -1.27913 0
M  V30 1852 H 173.667 -5.83846 -3.43701 0
M  V30 1853 H 174.61 -6.73027 -2.20093 0
M  V30 1854 H 175.018 -5.02763 -2.56689 0
M  V30 1855 N 174.416 0.165178 -1.56732 0
M  V30 1856 C 175.366 1.20917 -1.93295 0
M  V30 1857 C 176.35 1.39488 -0.801985 0
M  V30 1858 O 177.542 1.41356 -1.06525 0
M  V30 1859 C 174.671 2.54718 -2.3016 0
M  V30 1860 C 173.757 2.39815 -3.49785 0
M  V30 1861 N 174.148 1.94637 -4.66851 0
M  V30 1862 C 172.446 2.70623 -3.54513 0
M  V30 1863 C 173.147 1.92344 -5.4898 0
M  V30 1864 N 172.123 2.34978 -4.9019 0
M  V30 1865 H 175.925 0.851675 -2.81289 0
M  V30 1866 H 173.439 0.373399 -1.58049 0
M  V30 1867 H 175.436 3.30165 -2.54552 0
M  V30 1868 H 174.096 2.91265 -1.43508 0
M  V30 1869 H 175.107 1.6488 -4.90953 0
M  V30 1870 H 171.784 3.11167 -2.78354 0
M  V30 1871 H 173.174 1.5906 -6.52801 0
M  V30 1872 N 175.894 1.51508 0.433938 0
M  V30 1873 C 177.124 1.67914 1.20369 0
M  V30 1874 C 177.532 0.377461 1.85397 0
M  V30 1875 O 176.875 -0.654255 1.71654 0
M  V30 1876 C 176.937 2.74045 2.32679 0
M  V30 1877 C 176.601 4.16543 1.87991 0
M  V30 1878 C 177.598 5.01211 1.38145 0
M  V30 1879 C 175.283 4.6266 1.95579 0
M  V30 1880 C 177.277 6.30056 0.964774 0
M  V30 1881 C 174.964 5.91501 1.53523 0
M  V30 1882 C 175.962 6.75027 1.04055 0
M  V30 1883 O 175.65 8.01459 0.625964 0
M  V30 1884 H 175.382 0.566578 0.368735 0
M  V30 1885 H 177.936 1.98709 0.51999 0
M  V30 1886 H 176.166 2.38572 3.04336 0
M  V30 1887 H 177.855 2.79295 2.94532 0
M  V30 1888 H 178.621 4.66783 1.31675 0
M  V30 1889 H 174.5 3.97767 2.33029 0
M  V30 1890 H 178.044 6.95202 0.57796 0
M  V30 1891 H 173.941 6.25442 1.59665 0
M  V30 1892 H 174.709 8.15043 0.751509 0
M  V30 1893 N 177.372 -0.689602 1.41712 0
M  V30 1894 C 178.302 -1.81577 1.46806 0
M  V30 1895 C 179.283 -1.66945 0.326105 0
M  V30 1896 O 180.468 -1.86588 0.538377 0
M  V30 1897 C 177.598 -3.19762 1.35535 0
M  V30 1898 C 176.552 -3.49107 2.47605 0
M  V30 1899 C 175.878 -4.86711 2.21397 0
M  V30 1900 C 177.178 -3.47483 3.89939 0
M  V30 1901 H 178.872 -1.7757 2.41058 0
M  V30 1902 H 176.418 -0.852887 1.16025 0
M  V30 1903 H 178.371 -3.98263 1.3771 0
M  V30 1904 H 177.095 -3.24409 0.377708 0
M  V30 1905 H 175.754 -2.72959 2.44722 0
M  V30 1906 H 175.402 -4.8799 1.21961 0
M  V30 1907 H 175.102 -5.0731 2.96497 0
M  V30 1908 H 176.626 -5.67515 2.25297 0
M  V30 1909 H 178.04 -4.1598 3.94505 0
M  V30 1910 H 176.437 -3.79615 4.64771 0
M  V30 1911 H 177.507 -2.46341 4.17665 0
M  V30 1912 N 178.85 -1.27639 -0.924453 0
M  V30 1913 C 179.8 -1.07295 -2.01176 0
M  V30 1914 C 180.784 5.77352e-05 -1.609 0
M  V30 1915 O 181.976 -0.218855 -1.75642 0
M  V30 1916 C 179.105 -0.725592 -3.35544 0
M  V30 1917 C 178.191 -1.83691 -3.82254 0
M  V30 1918 N 178.582 -3.07697 -4.01443 0
M  V30 1919 C 176.88 -1.72433 -4.11319 0
M  V30 1920 C 177.581 -3.80037 -4.40394 0
M  V30 1921 N 176.557 -3.0782 -4.48049 0
M  V30 1922 H 180.359 -2.01399 -2.14046 0
M  V30 1923 H 177.873 -1.18401 -1.11153 0
M  V30 1924 H 179.87 -0.560959 -4.13109 0
M  V30 1925 H 178.53 0.207782 -3.24034 0
M  V30 1926 H 179.541 -3.43424 -3.8766 0
M  V30 1927 H 176.218 -0.862005 -4.08504 0
M  V30 1928 H 177.608 -4.86632 -4.63291 0
M  V30 1929 N 180.328 1.1314 -1.09713 0
M  V30 1930 C 181.261 2.17735 -0.683137 0
M  V30 1931 C 182.239 1.59582 0.311841 0
M  V30 1932 O 183.423 1.87298 0.212514 0
M  V30 1933 C 180.55 3.38699 -0.00684324 0
M  V30 1934 C 179.596 4.1546 -0.964102 0
M  V30 1935 S 180.429 4.74733 -2.47767 0
M  V30 1936 C 181.585 5.9904 -1.81387 0
M  V30 1937 H 181.818 2.52515 -1.56918 0
M  V30 1938 H 179.351 1.24484 -0.913404 0
M  V30 1939 H 181.309 4.08765 0.377044 0
M  V30 1940 H 179.97 3.02214 0.85589 0
M  V30 1941 H 179.163 5.02093 -0.43803 0
M  V30 1942 H 178.765 3.51066 -1.28953 0
M  V30 1943 H 181.057 6.67846 -1.13967 0
M  V30 1944 H 182 6.56261 -2.65947 0
M  V30 1945 H 182.408 5.4976 -1.28155 0
M  V30 1946 N 181.806 0.884767 1.30421 0
M  V30 1947 C 182.716 0.355398 2.31892 0
M  V30 1948 C 183.732 -0.542261 1.65335 0
M  V30 1949 O 184.908 -0.435432 1.96637 0
M  V30 1950 C 181.973 -0.421661 3.44126 0
M  V30 1951 C 181.034 0.505727 4.26311 0
M  V30 1952 C 180.267 -0.234343 5.33185 0
M  V30 1953 O 180.49 -1.46045 5.51386 0
M  V30 1954 O 179.424 0.415443 6.00465 0
M  V30 1955 H 183.25 1.19685 2.79122 0
M  V30 1956 H 180.835 0.648596 1.34587 0
M  V30 1957 H 182.717 -0.861641 4.12497 0
M  V30 1958 H 181.392 -1.23942 2.99032 0
M  V30 1959 H 180.299 0.994513 3.60639 0
M  V30 1960 H 181.632 1.28948 4.75009 0
M  V30 1961 N 183.284 -1.43765 0.645699 0
M  V30 1962 C 184.247 -2.29163 -0.0409488 0
M  V30 1963 C 185.247 -1.41813 -0.757996 0
M  V30 1964 O 186.437 -1.63527 -0.600382 0
M  V30 1965 C 183.569 -3.23716 -1.06869 0
M  V30 1966 H 184.762 -2.91366 0.710345 0
M  V30 1967 H 182.315 -1.5092 0.406547 0
M  V30 1968 H 183.05 -2.66393 -1.84947 0
M  V30 1969 H 182.835 -3.88105 -0.558277 0
M  V30 1970 H 184.325 -3.87831 -1.54845 0
M  V30 1971 N 184.763 -0.387143 -1.52771 0
M  V30 1972 C 186.174 0.0873634 -1.86495 0
M  V30 1973 C 186.525 1.46336 -1.30691 0
M  V30 1974 O 185.65 2.068 -0.637409 0
M  V30 1975 C 186.245 0.165305 -3.38396 0
M  V30 1976 C 184.804 0.584101 -3.7184 0
M  V30 1977 C 183.951 -0.255279 -2.76122 0
M  V30 1978 H 186.902 -0.605104 -1.46711 0
M  V30 1979 H 186.923 0.984848 -3.67534 0
M  V30 1980 H 186.435 -0.836301 -3.78982 0
M  V30 1981 H 184.536 1.59315 -3.36823 0
M  V30 1982 H 184.649 0.343749 -4.77865 0
M  V30 1983 H 183.013 0.279126 -2.53166 0
M  V30 1984 H 183.796 -1.25482 -3.19545 0
M  V30 1985 N 186.241 1.57166 -0.116904 0
M  V30 1986 C 187.487 1.95412 0.542405 0
M  V30 1987 C 187.82 1.00019 1.66463 0
M  V30 1988 O 187.095 0.0370346 1.94465 0
M  V30 1989 C 187.378 3.43615 1.07708 0
M  V30 1990 C 187.231 4.49781 -0.0415868 0
M  V30 1991 C 188.55 3.93616 1.96861 0
M  V30 1992 H 185.669 0.710543 0.195696 0
M  V30 1993 H 188.311 1.89027 -0.192038 0
M  V30 1994 H 186.461 3.49187 1.70296 0
M  V30 1995 H 188.133 4.56308 -0.676793 0
M  V30 1996 H 186.376 4.28033 -0.705019 0
M  V30 1997 H 187.047 5.50733 0.373717 0
M  V30 1998 H 189.523 3.90335 1.44146 0
M  V30 1999 H 188.399 4.97838 2.3119 0
M  V30 2000 H 188.66 3.34188 2.89432 0
M  V30 2001 N 187.719 -0.156864 1.56817 0
M  V30 2002 C 188.666 -1.19394 1.97519 0
M  V30 2003 C 189.636 -1.4322 0.841265 0
M  V30 2004 O 190.821 -1.55719 1.10255 0
M  V30 2005 C 187.961 -2.52483 2.35258 0
M  V30 2006 C 187.074 -2.35914 3.61896 0
M  V30 2007 C 186.209 -3.61969 3.88782 0
M  V30 2008 C 185.248 -3.40395 5.08722 0
M  V30 2009 N 184.385 -4.58556 5.31668 0
M  V30 2010 H 189.225 -0.839845 2.85921 0
M  V30 2011 H 186.762 -0.403264 1.41464 0
M  V30 2012 H 188.72 -3.30071 2.55165 0
M  V30 2013 H 187.35 -2.85859 1.49949 0
M  V30 2014 H 186.402 -1.49429 3.49821 0
M  V30 2015 H 187.714 -2.15926 4.49641 0
M  V30 2016 H 186.868 -4.47989 4.09135 0
M  V30 2017 H 185.607 -3.84951 2.9944 0
M  V30 2018 H 184.612 -2.52763 4.88253 0
M  V30 2019 H 185.837 -3.18822 5.99608 0
M  V30 2020 H 183.783 -4.81729 4.45279 0
M  V30 2021 H 183.7 -4.41535 6.13664 0
M  V30 2022 H 184.968 -5.45817 5.5651 0
M  V30 2023 N 189.197 -1.51736 -0.425897 0
M  V30 2024 C 190.443 -1.65214 -1.1761 0
M  V30 2025 C 190.776 -0.372778 -1.90589 0
M  V30 2026 O 190.051 0.628139 -1.84078 0
M  V30 2027 C 190.334 -2.86312 -2.18398 0
M  V30 2028 C 190.187 -4.24254 -1.49426 0
M  V30 2029 C 191.506 -3.02925 -3.19256 0
M  V30 2030 H 188.625 -0.601263 -0.426206 0
M  V30 2031 H 191.267 -1.8425 -0.463882 0
M  V30 2032 H 189.417 -2.70213 -2.79137 0
M  V30 2033 H 191.089 -4.52046 -0.919362 0
M  V30 2034 H 189.332 -4.26426 -0.796432 0
M  V30 2035 H 190.003 -5.05001 -2.22885 0
M  V30 2036 H 192.479 -3.1781 -2.68581 0
M  V30 2037 H 191.355 -3.89199 -3.8706 0
M  V30 2038 H 191.616 -2.15497 -3.86023 0
M  V30 2039 N 190.675 0.682077 -1.42076 0
M  V30 2040 C 191.924 1.43786 -1.41451 0
M  V30 2041 C 192.237 1.95574 -0.0317074 0
M  V30 2042 O 193.443 2.71326 0.0971462 0
M  V30 2043 C 191.899 2.60071 -2.48779 0
M  V30 2044 C 191.507 2.15013 -3.93031 0
M  V30 2045 C 193.251 3.37626 -2.57311 0
M  V30 2046 C 191.158 3.28336 -4.91883 0
M  V30 2047 H 190.088 0.540143 -0.526082 0
M  V30 2048 H 192.739 0.739157 -1.67955 0
M  V30 2049 H 191.121 3.32275 -2.15429 0
M  V30 2050 H 192.295 1.5001 -4.35699 0
M  V30 2051 H 190.61 1.50416 -3.88284 0
M  V30 2052 H 193.207 4.22012 -3.28345 0
M  V30 2053 H 193.55 3.83727 -1.61429 0
M  V30 2054 H 194.083 2.72488 -2.89819 0
M  V30 2055 H 190.822 2.87234 -5.89217 0
M  V30 2056 H 190.342 3.92145 -4.53853 0
M  V30 2057 H 192.021 3.93913 -5.13265 0
M  V30 2058 N 192.153 1.28127 0.917671 0
M  V30 2059 C 193.103 1.08361 2.00604 0
M  V30 2060 C 194.087 0.00847518 1.60898 0
M  V30 2061 O 195.279 0.228167 1.75523 0
M  V30 2062 C 192.408 0.743376 3.35155 0
M  V30 2063 C 191.494 1.85716 3.81275 0
M  V30 2064 N 191.885 3.09822 3.99805 0
M  V30 2065 C 190.183 1.74612 4.10398 0
M  V30 2066 C 190.884 3.82368 4.38372 0
M  V30 2067 N 189.86 3.10192 4.4641 0
M  V30 2068 H 193.662 2.02531 2.12975 0
M  V30 2069 H 191.176 1.18989 1.10523 0
M  V30 2070 H 193.173 0.582859 4.12805 0
M  V30 2071 H 191.833 -0.190595 3.2414 0
M  V30 2072 H 192.844 3.45475 3.85833 0
M  V30 2073 H 189.521 0.883657 4.08041 0
M  V30 2074 H 190.911 4.89082 4.60704 0
M  V30 2075 N 193.631 -1.12557 1.10312 0
M  V30 2076 C 195.047 -1.36036 0.834649 0
M  V30 2077 C 195.247 -1.93946 -0.546539 0
M  V30 2078 O 194.303 -2.16484 -1.29966 0
M  V30 2079 C 195.616 -2.30312 1.9333 0
M  V30 2080 C 197.164 -2.43906 1.9616 0
M  V30 2081 C 197.639 -3.41496 3.05195 0
M  V30 2082 N 199.13 -3.49053 3.04494 0
M  V30 2083 C 199.865 -4.24471 3.85502 0
M  V30 2084 N 199.361 -5.02966 4.76442 0
M  V30 2085 N 201.154 -4.19864 3.73725 0
M  V30 2086 H 193.305 -0.733246 1.99342 0
M  V30 2087 H 195.568 -0.385234 0.866198 0
M  V30 2088 H 195.274 -1.94933 2.92735 0
M  V30 2089 H 195.148 -3.30421 1.81939 0
M  V30 2090 H 197.535 -2.78567 0.973886 0
M  V30 2091 H 197.616 -1.4369 2.11629 0
M  V30 2092 H 197.26 -3.07565 4.04186 0
M  V30 2093 H 197.19 -4.41539 2.86968 0
M  V30 2094 H 199.681 -2.93053 2.38596 0
M  V30 2095 H 199.994 -5.57846 5.34815 0
M  V30 2096 H 198.339 -5.02167 4.80472 0
M  V30 2097 H 201.53 -3.57623 3.02032 0
M  V30 2098 H 201.703 -4.78386 4.37093 0
M  V30 2099 N 195.109 -0.891671 -1.2995 0
M  V30 2100 C 196.386 -0.433307 -1.9074 0
M  V30 2101 C 196.766 1.08646 -1.80995 0
M  V30 2102 O 196.114 1.92476 -1.23147 0
M  V30 2103 C 196.324 -0.938895 -3.36134 0
M  V30 2104 C 197.672 -0.977829 -4.13187 0
M  V30 2105 O 198.696 -0.886015 -3.45005 0
M  V30 2106 O 197.555 -1.11453 -5.35015 0
M  V30 2107 H 194.649 -0.133699 -0.816121 0
M  V30 2108 H 197.195 -0.981011 -1.38471 0
M  V30 2109 H 195.967 -1.98281 -3.37343 0
M  V30 2110 H 195.59 -0.37074 -3.95868 0
M  V30 2111 N 196.587 1.43421 -0.653314 0
M  V30 2112 C 197.517 2.33487 0.0246656 0
M  V30 2113 C 198.498 1.49475 0.811863 0
M  V30 2114 O 199.683 1.78139 0.773322 0
M  V30 2115 C 196.813 3.32841 0.99166 0
M  V30 2116 C 195.767 4.26842 0.314568 0
M  V30 2117 C 195.093 5.16236 1.39302 0
M  V30 2118 C 196.393 5.16243 -0.793095 0
M  V30 2119 H 198.087 2.90427 -0.727481 0
M  V30 2120 H 195.633 1.39649 -0.351287 0
M  V30 2121 H 197.586 3.94747 1.47487 0
M  V30 2122 H 196.31 2.74158 1.77497 0
M  V30 2123 H 194.969 3.663 -0.148199 0
M  V30 2124 H 194.617 4.53891 2.16776 0
M  V30 2125 H 194.317 5.79948 0.945223 0
M  V30 2126 H 195.841 5.81015 1.87759 0
M  V30 2127 H 197.255 5.71958 -0.392039 0
M  V30 2128 H 195.652 5.88676 -1.16536 0
M  V30 2129 H 196.722 4.55927 -1.65103 0
M  V30 2130 N 198.065 0.39524 1.52563 0
M  V30 2131 C 199.012 -0.437036 2.26624 0
M  V30 2132 C 199.982 -1.05281 1.28472 0
M  V30 2133 O 201.167 -1.07971 1.57311 0
M  V30 2134 C 198.307 -1.55524 3.08069 0
M  V30 2135 C 197.42 -0.961745 4.21158 0
M  V30 2136 C 196.555 -2.05149 4.89987 0
M  V30 2137 C 195.594 -1.4342 5.95061 0
M  V30 2138 N 194.731 -2.46351 6.57462 0
M  V30 2139 H 199.571 0.200976 2.97322 0
M  V30 2140 H 197.108 0.110944 1.46681 0
M  V30 2141 H 199.066 -2.21437 3.53584 0
M  V30 2142 H 197.696 -2.16348 2.3957 0
M  V30 2143 H 196.748 -0.192048 3.79915 0
M  V30 2144 H 198.06 -0.470701 4.96574 0
M  V30 2145 H 197.214 -2.78819 5.38837 0
M  V30 2146 H 195.953 -2.57615 4.14109 0
M  V30 2147 H 194.958 -0.682774 5.45544 0
M  V30 2148 H 196.183 -0.917416 6.72875 0
M  V30 2149 H 194.129 -2.97975 5.8442 0
M  V30 2150 H 194.046 -2.02019 7.28508 0
M  V30 2151 H 195.314 -3.19633 7.10954 0
M  V30 2152 N 199.544 -1.57102 0.125237 0
M  V30 2153 C 200.769 -2.0019 -0.542101 0
M  V30 2154 C 201.194 -1.00449 -1.59034 0
M  V30 2155 O 200.552 0.0229423 -1.81285 0
M  V30 2156 C 200.6 -3.42129 -1.13929 0
M  V30 2157 O 199.704 -3.45307 -2.2547 0
M  V30 2158 H 199.045 -0.650171 -0.134812 0
M  V30 2159 H 201.575 -2.03461 0.215553 0
M  V30 2160 H 201.585 -3.80471 -1.4733 0
M  V30 2161 H 200.26 -4.14237 -0.371531 0
M  V30 2162 H 198.837 -3.1879 -1.93462 0
M  V30 2163 N 201.022 0.148545 -1.56898 0
M  V30 2164 C 202.438 0.501131 -1.51528 0
M  V30 2165 C 202.638 1.83458 -0.833399 0
M  V30 2166 O 201.694 2.49259 -0.40328 0
M  V30 2167 C 203.007 0.512864 -2.96294 0
M  V30 2168 C 204.555 0.598487 -3.07225 0
M  V30 2169 C 205.03 0.640897 -4.53494 0
M  V30 2170 N 206.521 0.703163 -4.57832 0
M  V30 2171 C 207.256 0.756935 -5.68382 0
M  V30 2172 N 206.752 0.770147 -6.88506 0
M  V30 2173 N 208.545 0.797698 -5.56411 0
M  V30 2174 H 200.696 -0.725532 -1.99624 0
M  V30 2175 H 202.959 -0.264358 -0.910395 0
M  V30 2176 H 202.665 -0.398691 -3.49433 0
M  V30 2177 H 202.539 1.35133 -3.52163 0
M  V30 2178 H 204.926 1.50046 -2.54106 0
M  V30 2179 H 205.007 -0.267093 -2.54402 0
M  V30 2180 H 204.651 -0.256915 -5.0725 0
M  V30 2181 H 204.581 1.52295 -5.04097 0
M  V30 2182 H 207.072 0.700314 -3.71354 0
M  V30 2183 H 207.385 0.812983 -7.68512 0
M  V30 2184 H 205.73 0.738049 -6.9107 0
M  V30 2185 H 208.921 0.784535 -4.61479 0
M  V30 2186 H 209.094 0.83614 -6.42583 0
M  V30 2187 N 202.5 1.5196 0.417844 0
M  V30 2188 C 203.448 1.75278 1.52907 0
M  V30 2189 C 204.442 0.619611 1.57662 0
M  V30 2190 O 205.648 0.801457 1.61173 0
M  V30 2191 H 202.023 0.554141 0.508362 0
M  V30 2192 H 203.994 2.68389 1.30422 0
M  V30 2193 C 202.743 1.91262 2.90369 0
M  V30 2194 H 202.066 2.77872 2.8745 0
M  V30 2195 H 203.506 2.11581 3.67436 0
M  V30 2196 C 201.965 0.677431 3.30019 0
M  V30 2197 O 202.495 -0.158799 4.01386 0
M  V30 2198 N 200.701 0.515851 2.85985 0
M  V30 2199 H 200.248 1.19744 2.28077 0
M  V30 2200 H 200.206 -0.309315 3.12875 0
M  V30 2201 N 203.978 -0.674533 1.42435 0
M  V30 2202 C 205.224 -1.43671 1.43131 0
M  V30 2203 C 205.557 -1.94142 0.0476021 0
M  V30 2204 O 204.832 -1.70924 -0.928188 0
M  V30 2205 C 205.115 -2.63355 2.45594 0
M  V30 2206 C 204.968 -2.18514 3.93156 0
M  V30 2207 C 206.287 -3.65571 2.45043 0
M  V30 2208 H 203.406 -0.521077 0.521198 0
M  V30 2209 H 206.048 -0.766551 1.7385 0
M  V30 2210 H 204.198 -3.2053 2.19528 0
M  V30 2211 H 205.87 -1.66504 4.30202 0
M  V30 2212 H 204.113 -1.50086 4.07009 0
M  V30 2213 H 204.784 -3.04484 4.60428 0
M  V30 2214 H 207.26 -3.18113 2.68223 0
M  V30 2215 H 206.136 -4.46893 3.18713 0
M  V30 2216 H 206.397 -4.16716 1.47649 0
M  V30 2217 N 205.456 -1.28612 -0.910864 0
M  V30 2218 C 206.702 -1.16106 -1.66274 0
M  V30 2219 C 207.035 0.289113 -1.92036 0
M  V30 2220 O 206.31 1.21 -1.52281 0
M  V30 2221 C 206.593 -1.96309 -3.01885 0
M  V30 2222 C 206.446 -3.49405 -2.8326 0
M  V30 2223 C 207.765 -1.78076 -4.02463 0
M  V30 2224 H 204.884 -0.423152 -0.603417 0
M  V30 2225 H 207.526 -1.57961 -1.05586 0
M  V30 2226 H 205.676 -1.60742 -3.53687 0
M  V30 2227 H 207.348 -3.94894 -2.38446 0
M  V30 2228 H 205.591 -3.74893 -2.18261 0
M  V30 2229 H 206.262 -4.00784 -3.79574 0
M  V30 2230 H 208.738 -2.0912 -3.59733 0
M  V30 2231 H 207.614 -2.36561 -4.95308 0
M  V30 2232 H 207.875 -0.733008 -4.35981 0
M  V30 2233 N 206.934 1.1197 -1.10907 0
M  V30 2234 C 208.183 1.82947 -0.849302 0
M  V30 2235 C 208.496 1.85275 0.627112 0
M  V30 2236 O 209.702 2.52296 1.00295 0
M  V30 2237 C 208.158 3.28529 -1.46959 0
M  V30 2238 C 207.766 3.34546 -2.97965 0
M  V30 2239 C 209.51 4.04443 -1.28942 0
M  V30 2240 C 207.417 4.74491 -3.53004 0
M  V30 2241 H 206.347 0.685477 -0.314065 0
M  V30 2242 H 208.998 1.2604 -1.33365 0
M  V30 2243 H 207.38 3.85333 -0.912917 0
M  V30 2244 H 208.554 2.87654 -3.59989 0
M  V30 2245 H 206.869 2.72108 -3.15192 0
M  V30 2246 H 209.466 5.07787 -1.67502 0
M  V30 2247 H 209.809 4.15656 -0.231456 0
M  V30 2248 H 210.342 3.5401 -1.81443 0
M  V30 2249 H 207.081 4.68474 -4.58489 0
M  V30 2250 H 206.601 5.21816 -2.9575 0
M  V30 2251 H 208.28 5.4344 -3.51115 0
M  V30 2252 N 208.412 0.89855 1.29475 0
M  V30 2253 C 209.375 0.380272 2.26023 0
M  V30 2254 C 210.375 -0.484891 1.53315 0
M  V30 2255 O 211.565 -0.290108 1.71767 0
M  V30 2256 C 208.697 -0.45651 3.3783 0
M  V30 2257 H 209.89 1.23295 2.73383 0
M  V30 2258 H 207.443 0.676589 1.40897 0
M  V30 2259 H 208.178 -1.32922 2.95808 0
M  V30 2260 H 207.963 0.163393 3.91759 0
M  V30 2261 H 209.453 -0.810466 4.0966 0
M  V30 2262 N 209.89 -1.43072 0.660911 0
M  V30 2263 C 210.853 -2.29194 -0.0166406 0
M  V30 2264 C 211.853 -1.42609 -0.742912 0
M  V30 2265 O 213.043 -1.64155 -0.583004 0
M  V30 2266 C 210.175 -3.24831 -1.0343 0
M  V30 2267 H 211.368 -2.90596 0.741208 0
M  V30 2268 H 208.921 -1.5048 0.422532 0
M  V30 2269 H 209.656 -2.68339 -1.82111 0
M  V30 2270 H 209.441 -3.88676 -0.517082 0
M  V30 2271 H 210.931 -3.89451 -1.50723 0
M  V30 2272 N 211.368 -0.403325 -1.52352 0
M  V30 2273 C 212.645 0.232611 -1.94212 0
M  V30 2274 C 213.025 1.63133 -1.33981 0
M  V30 2275 O 212.373 2.22659 -0.513344 0
M  V30 2276 C 212.583 0.244811 -3.4814 0
M  V30 2277 C 213.931 0.46698 -4.22024 0
M  V30 2278 O 214.955 0.324419 -3.5472 0
M  V30 2279 O 213.814 0.74747 -5.41364 0
M  V30 2280 H 210.908 0.148223 -0.813609 0
M  V30 2281 H 213.454 -0.458848 -1.63379 0
M  V30 2282 H 212.226 -0.734378 -3.84347 0
M  V30 2283 H 211.849 0.980611 -3.85318 0
M  V30 2284 N 212.846 1.57033 -0.133567 0
M  V30 2285 C 214.094 1.953 0.519848 0
M  V30 2286 C 214.415 1.01866 1.66278 0
M  V30 2287 O 213.685 0.0776513 1.95746 0
M  V30 2288 H 212.265 0.721091 0.195032 0
M  V30 2289 H 214.927 1.93809 -0.205921 0
M  V30 2290 H 214.023 2.98695 0.904854 0
M  V30 2291 N 214.325 -0.140222 1.56975 0
M  V30 2292 C 215.571 -0.852949 1.83991 0
M  V30 2293 C 215.904 -1.80512 0.716187 0
M  V30 2294 O 215.179 -1.92479 -0.279681 0
M  V30 2295 C 215.462 -1.6215 3.21527 0
M  V30 2296 C 215.315 -0.690363 4.4447 0
M  V30 2297 C 216.634 -2.58247 3.56366 0
M  V30 2298 H 213.753 -0.308634 0.669264 0
M  V30 2299 H 216.395 -0.117898 1.89634 0
M  V30 2300 H 214.545 -2.24812 3.16847 0
M  V30 2301 H 216.217 -0.0742264 4.6124 0
M  V30 2302 H 214.46 -0.000396433 4.338 0
M  V30 2303 H 215.131 -1.2643 5.37326 0
M  V30 2304 H 217.607 -2.05701 3.61699 0
M  V30 2305 H 216.483 -3.09067 4.53617 0
M  V30 2306 H 216.744 -3.39923 2.82674 0
M  V30 2307 N 215.803 -1.52179 -0.40978 0
M  V30 2308 C 216.733 -1.78435 -1.5061 0
M  V30 2309 C 217.714 -0.635295 -1.57791 0
M  V30 2310 O 218.899 -0.880823 -1.73076 0
M  V30 2311 C 216.029 -1.93444 -2.88439 0
M  V30 2312 C 214.983 -3.09038 -2.96108 0
M  V30 2313 C 214.309 -3.09268 -4.36185 0
M  V30 2314 C 215.609 -4.48508 -2.67652 0
M  V30 2315 H 217.303 -2.70237 -1.28889 0
M  V30 2316 H 214.849 -1.30036 -0.618605 0
M  V30 2317 H 216.802 -2.10394 -3.65119 0
M  V30 2318 H 215.526 -0.983129 -3.11452 0
M  V30 2319 H 214.185 -2.91837 -2.21872 0
M  V30 2320 H 213.833 -2.11861 -4.56206 0
M  V30 2321 H 213.533 -3.86907 -4.42241 0
M  V30 2322 H 215.057 -3.28348 -5.14801 0
M  V30 2323 H 216.471 -4.65918 -3.34056 0
M  V30 2324 H 214.868 -5.28059 -2.85085 0
M  V30 2325 H 215.938 -4.56649 -1.63095 0
M  V30 2326 N 217.281 0.66697 -1.42791 0
M  V30 2327 C 218.228 1.7803 -1.4688 0
M  V30 2328 C 219.198 1.6299 -0.319919 0
M  V30 2329 O 220.383 1.83432 -0.525118 0
M  V30 2330 C 217.523 3.1611 -1.38451 0
M  V30 2331 C 216.636 3.42381 -2.63437 0
M  V30 2332 C 215.771 4.70232 -2.47094 0
M  V30 2333 C 214.81 4.89564 -3.67415 0
M  V30 2334 N 213.947 6.08661 -3.49966 0
M  V30 2335 H 218.787 1.7387 -2.42019 0
M  V30 2336 H 216.324 0.84868 -1.20149 0
M  V30 2337 H 218.282 3.95914 -1.31561 0
M  V30 2338 H 216.912 3.19374 -0.469033 0
M  V30 2339 H 215.964 2.56774 -2.80662 0
M  V30 2340 H 217.276 3.52557 -3.52853 0
M  V30 2341 H 216.43 5.5814 -2.37834 0
M  V30 2342 H 215.169 4.62353 -1.5518 0
M  V30 2343 H 214.174 4.00096 -3.77099 0
M  V30 2344 H 215.399 4.99282 -4.6032 0
M  V30 2345 H 213.345 6.0194 -2.60776 0
M  V30 2346 H 213.262 6.19733 -4.32975 0
M  V30 2347 H 214.53 6.99226 -3.44532 0
M  V30 2348 N 218.759 1.29093 0.90403 0
M  V30 2349 C 220.008 1.16187 1.64874 0
M  V30 2350 C 220.321 -0.286742 1.93487 0
M  V30 2351 O 221.527 -0.537062 2.66135 0
M  V30 2352 C 219.983 2.03177 2.97064 0
M  V30 2353 C 219.591 3.52836 2.76062 0
M  V30 2354 C 221.335 1.98984 3.74974 0
M  V30 2355 C 219.242 4.31945 4.03952 0
M  V30 2356 H 218.172 0.431246 0.618501 0
M  V30 2357 H 220.823 1.53699 1.00243 0
M  V30 2358 H 219.205 1.5853 3.62883 0
M  V30 2359 H 220.379 4.05507 2.18863 0
M  V30 2360 H 218.694 3.58656 2.11553 0
M  V30 2361 H 221.291 2.55351 4.69787 0
M  V30 2362 H 221.634 0.968815 4.0487 0
M  V30 2363 H 222.167 2.41652 3.15989 0
M  V30 2364 H 218.906 5.34667 3.79225 0
M  V30 2365 H 218.426 3.84045 4.60727 0
M  V30 2366 H 220.105 4.42379 4.72133 0
M  V30 2367 N 220.237 -1.11381 1.11499 0
M  V30 2368 C 221.477 -1.84763 0.874188 0
M  V30 2369 C 221.841 -1.82726 -0.589496 0
M  V30 2370 O 223.042 -2.51562 -0.947089 0
M  V30 2371 C 221.313 -3.27931 1.42112 0
M  V30 2372 S 222.872 -4.18557 1.31739 0
M  V30 2373 H 219.69 -0.637115 0.315603 0
M  V30 2374 H 222.292 -1.34097 1.42261 0
M  V30 2375 H 220.996 -3.26978 2.48019 0
M  V30 2376 H 220.527 -3.83665 0.869761 0
M  V30 2377 H 222.542 -4.95396 0.282335 0
M  V30 2378 N 221.715 -0.905404 -1.28997 0
M  V30 2379 C 222.992 -0.453513 -1.9027 0
M  V30 2380 C 223.372 1.06721 -1.82137 0
M  V30 2381 O 222.72 1.91159 -1.25182 0
M  V30 2382 C 222.93 -0.974494 -3.35119 0
M  V30 2383 C 224.278 -1.0216 -4.12127 0
M  V30 2384 O 225.302 -0.922557 -3.44046 0
M  V30 2385 O 224.161 -1.17121 -5.33802 0
M  V30 2386 H 221.255 -0.142347 -0.814657 0
M  V30 2387 H 223.801 -0.995642 -1.37423 0
M  V30 2388 H 222.573 -2.01848 -3.35221 0
M  V30 2389 H 222.196 -0.412706 -3.95452 0
M  V30 2390 N 223.193 1.4272 -0.668489 0
M  V30 2391 C 224.44 2.01624 -0.18814 0
M  V30 2392 C 224.768 1.5282 1.20317 0
M  V30 2393 O 224.023 0.718323 1.8204 0
M  V30 2394 C 224.322 3.57021 -0.164499 0
M  V30 2395 C 223.988 4.25232 -1.49962 0
M  V30 2396 C 222.65 4.4358 -1.8652 0
M  V30 2397 C 225.002 4.63727 -2.37921 0
M  V30 2398 C 222.33 4.97694 -3.10674 0
M  V30 2399 C 224.682 5.19218 -3.6138 0
M  V30 2400 C 223.346 5.3578 -3.98115 0
M  V30 2401 H 222.616 0.737795 -0.0688454 0
M  V30 2402 H 225.263 1.70991 -0.862225 0
M  V30 2403 H 223.568 3.87285 0.593079 0
M  V30 2404 H 225.265 4.00372 0.224271 0
M  V30 2405 H 221.855 4.11306 -1.20522 0
M  V30 2406 H 226.039 4.4923 -2.10964 0
M  V30 2407 H 221.295 5.08702 -3.39164 0
M  V30 2408 H 225.469 5.4799 -4.29743 0
M  V30 2409 H 223.096 5.77475 -4.94395 0
M  V30 2410 N 224.671 0.411399 1.52136 0
M  V30 2411 C 225.919 -0.163322 2.01439 0
M  V30 2412 C 226.24 -1.45453 1.29879 0
M  V30 2413 O 225.51 -1.91225 0.4254 0
M  V30 2414 H 224.09 -0.0633447 0.744309 0
M  V30 2415 H 226.752 0.548161 1.87033 0
M  V30 2416 H 225.848 -0.357817 3.10042 0
M  V30 2417 N 226.149 -1.5696 0.141893 0
M  V30 2418 C 227.112 -2.15316 -0.785587 0
M  V30 2419 C 228.112 -1.09366 -1.1788 0
M  V30 2420 O 229.302 -1.35031 -1.10056 0
M  V30 2421 C 226.434 -2.71211 -2.06537 0
M  V30 2422 H 227.627 -2.98608 -0.278041 0
M  V30 2423 H 225.18 -1.5593 -0.107519 0
M  V30 2424 H 225.915 -1.91571 -2.6167 0
M  V30 2425 H 225.7 -3.4872 -1.79268 0
M  V30 2426 H 227.19 -3.16189 -2.72789 0
M  V30 2427 N 227.627 0.131896 -1.57047 0
M  V30 2428 C 228.852 0.860418 -1.8871 0
M  V30 2429 C 229.277 1.73251 -0.73251 0
M  V30 2430 O 228.635 1.785 0.317429 0
M  V30 2431 C 228.683 1.68047 -3.19049 0
M  V30 2432 O 227.787 2.7862 -3.04047 0
M  V30 2433 H 227.128 0.238743 -0.619595 0
M  V30 2434 H 229.658 0.118169 -2.04258 0
M  V30 2435 H 229.668 2.07238 -3.51449 0
M  V30 2436 H 228.343 1.04018 -4.02682 0
M  V30 2437 H 226.92 2.42726 -2.83088 0
M  V30 2438 N 229.106 1.52395 0.401703 0
M  V30 2439 C 230.522 1.41363 0.740864 0
M  V30 2440 C 230.722 0.523982 1.94568 0
M  V30 2441 O 229.778 -0.00741204 2.52499 0
M  V30 2442 C 231.091 2.84011 0.987847 0
M  V30 2443 C 232.639 2.93404 1.09011 0
M  V30 2444 C 233.114 4.37036 1.3698 0
M  V30 2445 N 234.605 4.40304 1.43829 0
M  V30 2446 C 235.34 5.48508 1.67112 0
M  V30 2447 N 234.836 6.66819 1.87949 0
M  V30 2448 N 236.629 5.36034 1.69187 0
M  V30 2449 H 228.78 2.08765 -0.391262 0
M  V30 2450 H 231.043 0.941265 -0.112798 0
M  V30 2451 H 230.749 3.51265 0.174835 0
M  V30 2452 H 230.623 3.25502 1.906 0
M  V30 2453 H 233.01 2.26325 1.8937 0
M  V30 2454 H 233.091 2.55359 0.15015 0
M  V30 2455 H 232.735 5.04676 0.571353 0
M  V30 2456 H 232.665 4.72623 2.3224 0
M  V30 2457 H 235.156 3.55024 1.29486 0
M  V30 2458 H 235.469 7.45063 2.05185 0
M  V30 2459 H 233.814 6.6987 1.85199 0
M  V30 2460 H 237.005 4.42579 1.52451 0
M  V30 2461 H 237.178 6.20434 1.86993 0
M  V30 2462 N 230.584 -0.659388 1.43143 0
M  V30 2463 C 231.831 -1.41935 1.44433 0
M  V30 2464 C 232.159 -1.94387 0.0663522 0
M  V30 2465 O 231.414 -1.72314 -0.927706 0
M  V30 2466 C 231.713 -2.62206 2.42864 0
M  V30 2467 C 231.379 -2.28208 3.88886 0
M  V30 2468 C 230.041 -2.18647 4.28657 0
M  V30 2469 C 232.393 -2.00887 4.8093 0
M  V30 2470 C 229.721 -1.79914 5.58433 0
M  V30 2471 C 232.073 -1.63653 6.11065 0
M  V30 2472 C 230.737 -1.52614 6.49819 0
M  V30 2473 H 230.007 -0.519376 0.528517 0
M  V30 2474 H 232.654 -0.750453 1.76183 0
M  V30 2475 H 230.959 -3.34199 2.04495 0
M  V30 2476 H 232.656 -3.2041 2.41119 0
M  V30 2477 H 229.246 -2.36557 3.57406 0
M  V30 2478 H 233.43 -2.07198 4.5098 0
M  V30 2479 H 228.686 -1.69948 5.87305 0
M  V30 2480 H 232.86 -1.41543 6.81864 0
M  V30 2481 H 230.487 -1.22371 7.50286 0
M  V30 2482 N 232.062 -1.29571 -0.897171 0
M  V30 2483 C 233.012 -1.11539 -1.98855 0
M  V30 2484 C 233.996 -0.0340716 -1.60864 0
M  V30 2485 O 235.188 -0.256062 -1.75138 0
M  V30 2486 C 232.317 -0.796603 -3.3393 0
M  V30 2487 C 231.403 -1.91758 -3.78272 0
M  V30 2488 N 231.794 -3.16143 -3.94826 0
M  V30 2489 C 230.092 -1.81119 -4.07568 0
M  V30 2490 C 230.793 -3.89293 -4.32233 0
M  V30 2491 N 229.769 -3.17255 -4.41419 0
M  V30 2492 H 233.571 -2.05894 -2.09726 0
M  V30 2493 H 231.085 -1.20732 -1.08616 0
M  V30 2494 H 233.082 -0.648459 -4.11826 0
M  V30 2495 H 231.742 0.139003 -3.24402 0
M  V30 2496 H 232.753 -3.5157 -3.80288 0
M  V30 2497 H 229.43 -0.948461 -4.06584 0
M  V30 2498 H 230.82 -4.9635 -4.52865 0
M  V30 2499 N 233.54 1.10788 -1.12088 0
M  V30 2500 C 234.488 2.19111 -0.780587 0
M  V30 2501 C 235.482 1.67818 0.230961 0
M  V30 2502 O 236.688 1.79777 0.0895427 0
M  V30 2503 H 233.063 0.714477 -0.234578 0
M  V30 2504 H 235.034 2.45055 -1.70266 0
M  V30 2505 C 233.783 3.46818 -0.24747 0
M  V30 2506 H 233.106 3.86646 -1.01712 0
M  V30 2507 H 234.546 4.23973 -0.0476291 0
M  V30 2508 C 233.005 3.20968 1.02378 0
M  V30 2509 O 233.535 3.42298 2.10226 0
M  V30 2510 N 231.741 2.74658 0.949271 0
M  V30 2511 H 231.288 2.57501 0.0715173 0
M  V30 2512 H 231.246 2.57739 1.80049 0
M  V30 2513 N 235.018 0.912232 1.28515 0
M  V30 2514 C 235.968 0.370649 2.24967 0
M  V30 2515 C 236.952 -0.516375 1.52389 0
M  V30 2516 O 238.144 -0.356345 1.73376 0
M  V30 2517 C 235.273 -0.389526 3.41083 0
M  V30 2518 C 234.359 0.51313 4.20984 0
M  V30 2519 N 234.75 1.62604 4.78951 0
M  V30 2520 C 233.048 0.313235 4.44899 0
M  V30 2521 C 233.749 2.18619 5.39055 0
M  V30 2522 N 232.725 1.47765 5.23132 0
M  V30 2523 H 236.527 1.22061 2.67354 0
M  V30 2524 H 234.041 0.764712 1.43269 0
M  V30 2525 H 236.038 -0.794353 4.09262 0
M  V30 2526 H 234.698 -1.2366 3.0023 0
M  V30 2527 H 235.709 2.00864 4.77362 0
M  V30 2528 H 232.386 -0.494452 4.14562 0
M  V30 2529 H 233.776 3.12228 5.94948 0
M  V30 2530 N 236.496 -1.42363 0.676048 0
M  V30 2531 C 237.724 -2.05859 0.207268 0
M  V30 2532 C 238.139 -1.50796 -1.13605 0
M  V30 2533 O 237.496 -0.648265 -1.70598 0
M  V30 2534 C 237.547 -3.61248 0.134975 0
M  V30 2535 O 237.268 -4.1427 1.42521 0
M  V30 2536 C 238.769 -4.41859 -0.357151 0
M  V30 2537 H 235.989 -0.663431 0.100503 0
M  V30 2538 H 238.533 -1.82479 0.923136 0
M  V30 2539 H 236.688 -3.83735 -0.531588 0
M  V30 2540 H 237.102 -5.0815 1.29939 0
M  V30 2541 H 238.576 -5.50847 -0.356641 0
M  V30 2542 H 239.053 -4.16536 -1.39264 0
M  V30 2543 H 239.659 -4.24392 0.27772 0
M  V30 2544 N 237.974 -0.419461 -1.51915 0
M  V30 2545 C 239.202 0.152136 -2.0634 0
M  V30 2546 C 239.617 1.37988 -1.28859 0
M  V30 2547 O 238.974 1.79243 -0.343232 0
M  V30 2548 C 239.025 0.492266 -3.58133 0
M  V30 2549 O 238.746 -0.686736 -4.32684 0
M  V30 2550 C 240.247 1.11648 -4.2901 0
M  V30 2551 H 237.467 0.0158325 -0.670813 0
M  V30 2552 H 240.011 -0.593394 -1.95702 0
M  V30 2553 H 238.166 1.18769 -3.68745 0
M  V30 2554 H 238.58 -0.400341 -5.2297 0
M  V30 2555 H 240.054 1.3046 -5.36362 0
M  V30 2556 H 240.531 2.09251 -3.86148 0
M  V30 2557 H 241.137 0.460958 -4.22795 0
M  V30 2558 N 239.452 1.56882 -0.150215 0
M  V30 2559 C 240.402 2.13501 0.800071 0
M  V30 2560 C 241.386 1.06368 1.20726 0
M  V30 2561 O 242.578 1.32538 1.17314 0
M  V30 2562 C 239.707 2.76271 2.03787 0
M  V30 2563 C 238.793 3.90533 1.65364 0
M  V30 2564 N 239.184 4.96259 0.977794 0
M  V30 2565 C 237.482 4.013 1.94613 0
M  V30 2566 C 238.183 5.76286 0.791794 0
M  V30 2567 N 237.159 5.27163 1.32666 0
M  V30 2568 H 240.961 2.92615 0.274517 0
M  V30 2569 H 238.475 1.62319 0.0512144 0
M  V30 2570 H 240.472 3.15197 2.72867 0
M  V30 2571 H 239.132 1.98631 2.56857 0
M  V30 2572 H 240.143 5.13953 0.638193 0
M  V30 2573 H 236.82 3.3474 2.4951 0
M  V30 2574 H 238.21 6.71401 0.258894 0
M  V30 2575 N 240.93 -0.123565 1.57115 0
M  V30 2576 C 241.863 -1.18202 1.95201 0
M  V30 2577 C 242.841 -1.40349 0.821031 0
M  V30 2578 O 244.025 -1.54578 1.07879 0
M  V30 2579 C 241.152 -2.53671 2.24429 0
M  V30 2580 C 240.198 -2.4798 3.46999 0
M  V30 2581 S 241.031 -1.92389 4.99747 0
M  V30 2582 C 242.187 -3.2954 5.32123 0
M  V30 2583 H 242.42 -0.857212 2.84674 0
M  V30 2584 H 239.953 -0.33014 1.50829 0
M  V30 2585 H 241.911 -3.3162 2.41947 0
M  V30 2586 H 240.572 -2.83332 1.35579 0
M  V30 2587 H 239.765 -3.47758 3.64801 0
M  V30 2588 H 239.367 -1.7815 3.28844 0
M  V30 2589 H 241.659 -4.25736 5.27025 0
M  V30 2590 H 242.602 -3.16569 6.33395 0
M  V30 2591 H 243.01 -3.27758 4.59603 0
M  V30 2592 N 242.408 -1.52605 -0.393616 0
M  V30 2593 C 243.633 -1.71592 -1.16495 0
M  V30 2594 C 244.058 -0.43133 -1.83088 0
M  V30 2595 O 243.416 0.612523 -1.7064 0
M  V30 2596 C 243.464 -2.86318 -2.19213 0
M  V30 2597 O 242.568 -2.52969 -3.257 0
M  V30 2598 H 241.909 -0.570734 -0.33935 0
M  V30 2599 H 244.439 -1.99377 -0.459324 0
M  V30 2600 H 244.449 -3.1168 -2.63286 0
M  V30 2601 H 243.124 -3.79511 -1.7013 0
M  V30 2602 H 241.701 -2.38332 -2.86797 0
M  V30 2603 N 243.887 0.651787 -1.4349 0
M  V30 2604 C 244.817 1.77621 -1.51569 0
M  V30 2605 C 245.798 1.66022 -0.370253 0
M  V30 2606 O 246.983 1.85095 -0.587658 0
M  V30 2607 C 244.113 3.16056 -1.43966 0
M  V30 2608 C 243.067 3.4242 -2.56774 0
M  V30 2609 C 242.393 4.8067 -2.34223 0
M  V30 2610 C 243.693 3.37023 -3.99015 0
M  V30 2611 H 245.387 1.71117 -2.45681 0
M  V30 2612 H 242.933 0.821825 -1.18246 0
M  V30 2613 H 244.886 3.94472 -1.48221 0
M  V30 2614 H 243.61 3.23293 -0.463586 0
M  V30 2615 H 242.269 2.66375 -2.51873 0
M  V30 2616 H 241.917 4.84585 -1.34856 0
M  V30 2617 H 241.617 4.9927 -3.09844 0
M  V30 2618 H 243.141 5.61342 -2.40265 0
M  V30 2619 H 244.555 4.05374 -4.05395 0
M  V30 2620 H 242.952 3.67159 -4.74673 0
M  V30 2621 H 244.022 2.3518 -4.2405 0
M  V30 2622 N 245.365 1.30045 0.890287 0
M  V30 2623 C 246.611 1.18737 1.64406 0
M  V30 2624 C 246.944 -0.258525 1.92472 0
M  V30 2625 O 246.219 -1.18562 1.54186 0
M  V30 2626 C 246.502 2.01087 2.98724 0
M  V30 2627 C 246.355 3.53867 2.77665 0
M  V30 2628 C 247.674 1.84457 3.9958 0
M  V30 2629 H 244.793 0.432698 0.596608 0
M  V30 2630 H 247.435 1.5962 1.0306 0
M  V30 2631 H 245.585 1.66349 3.51084 0
M  V30 2632 H 247.257 3.98637 2.32133 0
M  V30 2633 H 245.5 3.78318 2.12269 0
M  V30 2634 H 246.171 4.06772 3.7315 0
M  V30 2635 H 248.647 2.14817 3.56361 0
M  V30 2636 H 247.523 2.44411 4.91482 0
M  V30 2637 H 247.784 0.802276 4.3476 0
M  V30 2638 N 246.843 -1.10192 1.12674 0
M  V30 2639 C 248.091 -1.81845 0.881861 0
M  V30 2640 C 248.412 -1.85737 -0.593867 0
M  V30 2641 O 247.682 -1.33724 -1.4316 0
M  V30 2642 H 246.262 -0.673432 0.323261 0
M  V30 2643 H 248.924 -1.33316 1.42172 0
M  V30 2644 H 248.02 -2.85288 1.2656 0
M  V30 2645 N 248.321 -0.919034 -1.28029 0
M  V30 2646 C 249.549 -0.570971 -1.98866 0
M  V30 2647 C 249.964 0.848996 -1.68634 0
M  V30 2648 O 249.321 1.56307 -0.942036 0
M  V30 2649 C 249.372 -0.776876 -3.53054 0
M  V30 2650 O 249.093 -2.14097 -3.82222 0
M  V30 2651 C 250.594 -0.436356 -4.41147 0
M  V30 2652 H 247.814 -0.217175 -0.634883 0
M  V30 2653 H 250.358 -1.23368 -1.63097 0
M  V30 2654 H 248.513 -0.161085 -3.87065 0
M  V30 2655 H 248.927 -2.18455 -4.76841 0
M  V30 2656 H 250.401 -0.63117 -5.4838 0
M  V30 2657 H 250.878 0.627686 -4.34692 0
M  V30 2658 H 251.484 -1.02991 -4.12641 0
M  V30 2659 N 249.799 1.42003 -0.683588 0
M  V30 2660 C 251.046 2.01413 -0.209514 0
M  V30 2661 C 251.374 1.54088 1.1869 0
M  V30 2662 O 250.629 0.737591 1.81268 0
M  V30 2663 C 250.928 3.56827 -0.202357 0
M  V30 2664 C 250.594 4.23617 -1.54464 0
M  V30 2665 C 249.256 4.41577 -1.91215 0
M  V30 2666 C 251.608 4.61178 -2.42826 0
M  V30 2667 C 248.936 4.9437 -3.15935 0
M  V30 2668 C 251.288 5.15355 -3.66867 0
M  V30 2669 C 249.952 5.31528 -4.03776 0
M  V30 2670 H 249.222 0.737023 -0.0766668 0
M  V30 2671 H 251.869 1.70067 -0.880312 0
M  V30 2672 H 250.174 3.87892 0.551969 0
M  V30 2673 H 251.871 4.00588 0.181793 0
M  V30 2674 H 248.461 4.10004 -1.24877 0
M  V30 2675 H 252.645 4.46968 -2.15717 0
M  V30 2676 H 247.901 5.05076 -3.44541 0
M  V30 2677 H 252.075 5.43402 -4.35531 0
M  V30 2678 H 249.702 5.72199 -5.00492 0
M  V30 2679 N 251.277 0.427512 1.51691 0
M  V30 2680 C 252.688 -0.0378867 1.86662 0
M  V30 2681 C 253.039 -1.42819 1.34525 0
M  V30 2682 O 252.164 -2.05037 0.692014 0
M  V30 2683 C 252.759 -0.0755266 3.38716 0
M  V30 2684 C 251.318 -0.485309 3.73258 0
M  V30 2685 C 250.465 0.328399 2.75349 0
M  V30 2686 H 253.416 0.64379 1.45055 0
M  V30 2687 H 253.437 -0.887056 3.70016 0
M  V30 2688 H 252.949 0.936487 3.76632 0
M  V30 2689 H 251.05 -1.50329 3.40928 0
M  V30 2690 H 251.163 -0.21693 4.78609 0
M  V30 2691 H 249.527 -0.211905 2.53817 0
M  V30 2692 H 250.31 1.3391 3.16106 0
M  V30 2693 N 252.755 -1.56801 0.158532 0
M  V30 2694 C 254.001 -1.97559 -0.483957 0
M  V30 2695 C 254.356 -1.04239 -1.61716 0
M  V30 2696 O 253.649 -0.079603 -1.91435 0
M  V30 2697 C 253.843 -3.4235 -1.02623 0
M  V30 2698 C 253.672 -4.49669 0.0528929 0
M  V30 2699 C 252.442 -5.02838 0.498234 0
M  V30 2700 C 254.64 -5.0725 0.848616 0
M  V30 2701 N 252.622 -5.93775 1.559 0
M  V30 2702 C 253.993 -5.94506 1.7596 0
M  V30 2703 C 256.048 -4.89788 0.895121 0
M  V30 2704 C 254.751 -6.66169 2.71314 0
M  V30 2705 C 256.777 -5.62161 1.83654 0
M  V30 2706 C 256.139 -6.49134 2.73503 0
M  V30 2707 H 252.238 -0.768332 -0.145566 0
M  V30 2708 H 254.822 -1.93012 0.255799 0
M  V30 2709 H 252.993 -3.47467 -1.73555 0
M  V30 2710 H 254.725 -3.70145 -1.63629 0
M  V30 2711 H 251.48 -4.73498 0.0983222 0
M  V30 2712 H 251.904 -6.43948 2.08949 0
M  V30 2713 H 256.546 -4.22255 0.21453 0
M  V30 2714 H 254.264 -7.32923 3.40367 0
M  V30 2715 H 257.85 -5.5064 1.87847 0
M  V30 2716 H 256.73 -7.04153 3.45163 0
M  V30 2717 N 254.233 0.115231 -1.57178 0
M  V30 2718 C 255.166 1.17166 -1.95825 0
M  V30 2719 C 256.144 1.39912 -0.828463 0
M  V30 2720 O 257.328 1.54004 -1.08697 0
M  V30 2721 C 254.455 2.52478 -2.25771 0
M  V30 2722 C 253.501 2.46136 -3.48309 0
M  V30 2723 S 254.334 1.89736 -5.0076 0
M  V30 2724 C 255.49 3.26713 -5.33863 0
M  V30 2725 H 255.723 0.842103 -2.85124 0
M  V30 2726 H 253.256 0.322136 -1.51002 0
M  V30 2727 H 255.214 3.30332 -2.43702 0
M  V30 2728 H 253.875 2.82609 -1.37079 0
M  V30 2729 H 253.068 3.45819 -3.66641 0
M  V30 2730 H 252.67 1.76404 -3.29784 0
M  V30 2731 H 254.962 4.22935 -5.29275 0
M  V30 2732 H 255.905 3.13205 -6.35065 0
M  V30 2733 H 256.313 3.25316 -4.61335 0
M  V30 2734 N 255.711 1.52812 0.385517 0
M  V30 2735 C 256.674 1.77188 1.45386 0
M  V30 2736 C 257.674 0.641953 1.4743 0
M  V30 2737 O 258.864 0.910033 1.4854 0
M  V30 2738 C 255.996 1.87582 2.8465 0
M  V30 2739 H 257.189 2.72583 1.25054 0
M  V30 2740 H 254.742 1.43586 0.617467 0
M  V30 2741 H 255.477 0.941849 3.10322 0
M  V30 2742 H 255.262 2.69748 2.84567 0
M  V30 2743 H 256.752 2.08102 3.62054 0
M  V30 2744 N 257.189 -0.644168 1.43834 0
M  V30 2745 C 258.6 -1.22554 1.40845 0
M  V30 2746 C 258.951 -1.9585 0.117115 0
M  V30 2747 O 258.076 -2.01734 -0.783086 0
M  V30 2748 C 258.671 -2.22907 2.55143 0
M  V30 2749 C 257.23 -2.76501 2.5539 0
M  V30 2750 C 256.377 -1.51287 2.32396 0
M  V30 2751 H 259.328 -0.43563 1.52604 0
M  V30 2752 H 259.349 -3.05259 2.2715 0
M  V30 2753 H 258.861 -1.69533 3.49114 0
M  V30 2754 H 256.962 -3.33914 1.65324 0
M  V30 2755 H 257.075 -3.23429 3.53455 0
M  V30 2756 H 255.439 -1.78957 1.81236 0
M  V30 2757 H 256.222 -0.998336 3.28463 0
M  V30 2758 N 258.668 -1.30515 -0.883378 0
M  V30 2759 C 259.578 -1.18959 -2.02203 0
M  V30 2760 C 260.594 -0.109172 -1.73657 0
M  V30 2761 O 261.77 -0.324413 -1.9877 0
M  V30 2762 C 258.835 -0.883871 -3.35244 0
M  V30 2763 C 257.896 -2.04982 -3.77201 0
M  V30 2764 C 257.129 -1.75859 -5.03894 0
M  V30 2765 O 257.352 -0.687276 -5.66244 0
M  V30 2766 O 256.286 -2.61146 -5.42297 0
M  V30 2767 H 260.112 -2.14616 -2.1488 0
M  V30 2768 H 257.697 -1.10124 -1.0096 0
M  V30 2769 H 259.579 -0.728644 -4.15053 0
M  V30 2770 H 258.254 0.0427798 -3.23672 0
M  V30 2771 H 257.161 -2.26038 -2.9809 0
M  V30 2772 H 258.494 -2.95825 -3.93381 0
M  V30 2773 N 260.146 1.09593 -1.13257 0
M  V30 2774 C 261.392 1.82003 -0.89458 0
M  V30 2775 C 261.725 1.85402 0.577906 0
M  V30 2776 O 261 1.32099 1.42759 0
M  V30 2777 C 261.283 3.28237 -1.48096 0
M  V30 2778 C 261.136 3.3312 -3.02244 0
M  V30 2779 C 262.455 4.24871 -1.14774 0
M  V30 2780 H 259.574 0.66077 -0.326424 0
M  V30 2781 H 262.216 1.28389 -1.40058 0
M  V30 2782 H 260.366 3.74024 -1.05062 0
M  V30 2783 H 262.038 2.95748 -3.54021 0
M  V30 2784 H 260.281 2.72756 -3.37323 0
M  V30 2785 H 260.952 4.3613 -3.38371 0
M  V30 2786 H 263.428 3.87361 -1.51957 0
M  V30 2787 H 262.304 5.25532 -1.58452 0
M  V30 2788 H 262.565 4.42058 -0.0611849 0
M  V30 2789 N 261.624 0.925811 1.2754 0
M  V30 2790 C 262.873 0.561084 1.93739 0
M  V30 2791 C 263.186 -0.901685 1.73577 0
M  V30 2792 O 264.392 -1.37511 2.34101 0
M  V30 2793 C 262.848 0.952668 3.47062 0
M  V30 2794 C 262.456 2.43599 3.75983 0
M  V30 2795 C 264.2 0.659103 4.19352 0
M  V30 2796 C 262.107 2.76707 5.22673 0
M  V30 2797 H 261.037 0.206122 0.725279 0
M  V30 2798 H 263.688 1.12637 1.44863 0
M  V30 2799 H 262.07 0.316053 3.94737 0
M  V30 2800 H 263.244 3.12035 3.39073 0
M  V30 2801 H 261.559 2.70125 3.16893 0
M  V30 2802 H 264.156 0.882985 5.27359 0
M  V30 2803 H 264.499 -0.403607 4.14339 0
M  V30 2804 H 265.032 1.25473 3.77494 0
M  V30 2805 H 261.771 3.8188 5.32774 0
M  V30 2806 H 261.291 2.12919 5.60737 0
M  V30 2807 H 262.97 2.6435 5.90532 0
M  V30 2808 N 263.102 -1.41638 0.69111 0
M  V30 2809 C 264.034 -2.29194 -0.0161523 0
M  V30 2810 C 265.047 -1.44549 -0.748955 0
M  V30 2811 O 266.236 -1.681 -0.6004 0
M  V30 2812 C 263.336 -3.22325 -1.0469 0
M  V30 2813 C 262.509 -4.35706 -0.384621 0
M  V30 2814 C 261.568 -5.09443 -1.31737 0
M  V30 2815 O 260.594 -5.63386 -0.811451 0
M  V30 2816 N 261.796 -5.16487 -2.64993 0
M  V30 2817 H 264.561 -2.90534 0.735523 0
M  V30 2818 H 262.122 -1.52742 0.53679 0
M  V30 2819 H 264.114 -3.68522 -1.67252 0
M  V30 2820 H 262.684 -2.62323 -1.70015 0
M  V30 2821 H 261.904 -3.91948 0.420804 0
M  V30 2822 H 263.192 -5.08743 0.0760765 0
M  V30 2823 H 262.59 -4.741 -3.08619 0
M  V30 2824 H 261.147 -5.66276 -3.22761 0
M  V30 2825 N 264.58 -0.43555 -1.51462 0
M  V30 2826 C 265.805 0.132627 -2.06976 0
M  V30 2827 C 266.23 1.35848 -1.30104 0
M  V30 2828 O 265.588 1.78112 -0.338493 0
M  V30 2829 C 265.636 0.43523 -3.57964 0
M  V30 2830 O 264.74 1.52198 -3.83288 0
M  V30 2831 H 264.081 0.00265 -0.663995 0
M  V30 2832 H 266.611 -0.616369 -1.95095 0
M  V30 2833 H 266.621 0.686206 -4.02188 0
M  V30 2834 H 265.296 -0.460739 -4.1334 0
M  V30 2835 H 263.873 1.2611 -3.50928 0
M  V30 2836 N 266.058 1.56714 -0.166846 0
M  V30 2837 C 266.988 2.20754 0.760913 0
M  V30 2838 C 267.969 1.16178 1.24244 0
M  V30 2839 O 269.154 1.44592 1.29641 0
M  V30 2840 C 266.284 2.84478 1.99223 0
M  V30 2841 C 265.238 3.95053 1.64672 0
M  V30 2842 C 264.564 4.45805 2.95232 0
M  V30 2843 C 265.864 5.14865 0.878155 0
M  V30 2844 H 267.558 2.98537 0.22713 0
M  V30 2845 H 265.104 1.43596 0.107805 0
M  V30 2846 H 267.057 3.27951 2.64624 0
M  V30 2847 H 265.781 2.04056 2.55007 0
M  V30 2848 H 264.44 3.52228 1.01641 0
M  V30 2849 H 264.088 3.62181 3.49047 0
M  V30 2850 H 263.788 5.204 2.7287 0
M  V30 2851 H 265.312 4.91962 3.6167 0
M  V30 2852 H 266.726 5.55059 1.43466 0
M  V30 2853 H 265.123 5.95348 0.753738 0
M  V30 2854 H 266.193 4.84735 -0.126377 0
M  V30 2855 N 267.536 -0.106894 1.57237 0
M  V30 2856 C 268.947 -0.662723 1.74542 0
M  V30 2857 C 269.298 -1.7971 0.787319 0
M  V30 2858 O 268.423 -2.16368 -0.0369636 0
M  V30 2859 C 269.018 -1.20896 3.16496 0
M  V30 2860 C 267.577 -1.71096 3.35266 0
M  V30 2861 C 266.724 -0.615642 2.7038 0
M  V30 2862 H 269.675 0.119106 1.58252 0
M  V30 2863 H 269.696 -2.07847 3.18716 0
M  V30 2864 H 269.208 -0.383122 3.86204 0
M  V30 2865 H 267.309 -2.56119 2.70618 0
M  V30 2866 H 267.422 -1.81208 4.43509 0
M  V30 2867 H 265.786 -1.05222 2.31949 0
M  V30 2868 H 266.569 0.199419 3.4272 0
M  V30 2869 N 269.014 -1.53014 -0.377408 0
M  V30 2870 C 270.26 -1.68872 -1.12294 0
M  V30 2871 C 270.593 -0.433224 -1.89306 0
M  V30 2872 O 269.868 0.569258 -1.85983 0
M  V30 2873 C 270.151 -2.93115 -2.09179 0
M  V30 2874 C 270.004 -4.28794 -1.35853 0
M  V30 2875 C 271.323 -3.12928 -3.09458 0
M  V30 2876 H 268.442 -0.614518 -0.406862 0
M  V30 2877 H 271.084 -1.85633 -0.40503 0
M  V30 2878 H 269.234 -2.78956 -2.70399 0
M  V30 2879 H 270.906 -4.54742 -0.775082 0
M  V30 2880 H 269.149 -4.28744 -0.660364 0
M  V30 2881 H 269.82 -5.11837 -2.06706 0
M  V30 2882 H 272.296 -3.26194 -2.58334 0
M  V30 2883 H 271.172 -4.01316 -3.74482 0
M  V30 2884 H 271.433 -2.27669 -3.78971 0
M  V30 2885 N 270.492 0.636531 -1.44174 0
M  V30 2886 C 271.717 1.42847 -1.50364 0
M  V30 2887 C 272.142 1.87665 -0.127867 0
M  V30 2888 O 271.5 1.58408 0.88185 0
M  V30 2889 C 271.548 2.62854 -2.4686 0
M  V30 2890 O 270.652 3.62501 -1.9664 0
M  V30 2891 H 269.993 0.427642 -0.507955 0
M  V30 2892 H 272.523 0.777422 -1.89255 0
M  V30 2893 H 272.533 3.10465 -2.64718 0
M  V30 2894 H 271.208 2.29578 -3.46795 0
M  V30 2895 H 269.785 3.21735 -1.88523 0
M  V30 2896 N 271.97 1.30982 0.876444 0
M  V30 2897 C 272.88 1.2003 2.01569 0
M  V30 2898 C 273.896 0.11838 1.73597 0
M  V30 2899 O 275.072 0.33495 1.98595 0
M  V30 2900 C 272.137 0.901637 3.34771 0
M  V30 2901 C 271.198 2.06979 3.76109 0
M  V30 2902 C 270.431 1.78529 5.02954 0
M  V30 2903 O 270.654 0.717296 5.65872 0
M  V30 2904 O 269.588 2.64019 5.40905 0
M  V30 2905 H 273.414 2.15753 2.13739 0
M  V30 2906 H 270.999 1.10658 1.00375 0
M  V30 2907 H 272.881 0.750645 4.1466 0
M  V30 2908 H 271.556 -0.0256141 3.2369 0
M  V30 2909 H 270.463 2.27616 2.96887 0
M  V30 2910 H 271.796 2.97907 3.91807 0
M  V30 2911 N 273.449 -1.08991 1.13837 0
M  V30 2912 C 274.677 -1.85011 0.926202 0
M  V30 2913 C 275.092 -1.8135 -0.525127 0
M  V30 2914 O 274.449 -1.21287 -1.36366 0
M  V30 2915 C 274.5 -3.32802 1.41155 0
M  V30 2916 O 274.221 -3.36444 2.80601 0
M  V30 2917 C 275.722 -4.25649 1.23847 0
M  V30 2918 H 272.942 -0.584249 0.32999 0
M  V30 2919 H 275.486 -1.37688 1.51202 0
M  V30 2920 H 273.641 -3.77536 0.868631 0
M  V30 2921 H 274.055 -4.28657 3.02248 0
M  V30 2922 H 275.529 -5.27485 1.62675 0
M  V30 2923 H 276.006 -4.38828 0.18065 0
M  V30 2924 H 276.612 -3.86735 1.76964 0
M  V30 2925 N 274.927 -0.932562 -1.27047 0
M  V30 2926 C 276.167 -0.582919 -1.95912 0
M  V30 2927 C 276.531 0.860629 -1.71631 0
M  V30 2928 O 277.732 1.31878 -2.34225 0
M  V30 2929 C 276.003 -0.905673 -3.45734 0
M  V30 2930 S 277.562 -0.665277 -4.33727 0
M  V30 2931 H 274.38 -0.215 -0.677714 0
M  V30 2932 H 276.982 -1.20204 -1.54179 0
M  V30 2933 H 275.686 -1.95386 -3.60905 0
M  V30 2934 H 275.217 -0.275939 -3.92431 0
M  V30 2935 H 277.232 0.474635 -4.93925 0
M  V30 2936 N 276.405 1.4127 -0.698611 0
M  V30 2937 C 277.682 1.94955 -0.158762 0
M  V30 2938 C 278.062 1.63781 1.33188 0
M  V30 2939 O 277.41 0.946423 2.07979 0
M  V30 2940 C 277.62 3.46044 -0.453309 0
M  V30 2941 C 278.968 4.22872 -0.382707 0
M  V30 2942 O 279.992 3.54076 -0.388396 0
M  V30 2943 O 278.851 5.45407 -0.345463 0
M  V30 2944 H 275.945 0.82683 -0.0167505 0
M  V30 2945 H 278.491 1.50971 -0.77498 0
M  V30 2946 H 277.263 3.62028 -1.48498 0
M  V30 2947 H 276.886 3.97128 0.19373 0
M  V30 2948 N 277.883 0.443576 1.51229 0
M  V30 2949 C 279.111 -0.11929 2.06556 0
M  V30 2950 C 279.526 -1.35921 1.31038 0
M  V30 2951 O 278.883 -1.78675 0.371704 0
M  V30 2952 C 278.934 -0.435228 3.5887 0
M  V30 2953 O 278.655 0.755486 4.31537 0
M  V30 2954 C 280.156 -1.04808 4.30732 0
M  V30 2955 H 277.376 -0.0051584 0.67098 0
M  V30 2956 H 279.92 0.624453 1.94733 0
M  V30 2957 H 278.075 -1.12887 3.70588 0
M  V30 2958 H 278.489 0.483491 5.22267 0
M  V30 2959 H 279.963 -1.2191 5.3837 0
M  V30 2960 H 280.44 -2.03081 3.89429 0
M  V30 2961 H 281.046 -0.393637 4.23474 0
M  V30 2962 N 279.361 -1.56624 0.175154 0
M  V30 2963 C 280.591 -2.01082 -0.474283 0
M  V30 2964 C 280.999 -1.05447 -1.57091 0
M  V30 2965 O 280.342 -0.0480595 -1.83637 0
M  V30 2966 C 280.404 -3.41963 -1.10911 0
M  V30 2967 C 280.068 -4.56742 -0.153666 0
M  V30 2968 C 281.065 -5.16076 0.629448 0
M  V30 2969 C 278.75 -5.02277 -0.0483776 0
M  V30 2970 C 280.744 -6.19377 1.50501 0
M  V30 2971 C 278.431 -6.05427 0.830768 0
M  V30 2972 C 279.429 -6.63849 1.60605 0
M  V30 2973 O 279.117 -7.64998 2.47049 0
M  V30 2974 H 278.849 -0.664261 -0.125432 0
M  V30 2975 H 281.403 -2.03549 0.275163 0
M  V30 2976 H 279.633 -3.36422 -1.90676 0
M  V30 2977 H 281.322 -3.70352 -1.66114 0
M  V30 2978 H 282.088 -4.81776 0.558297 0
M  V30 2979 H 277.967 -4.56513 -0.641611 0
M  V30 2980 H 281.511 -6.64906 2.1106 0
M  V30 2981 H 277.408 -6.39151 0.903107 0
M  V30 2982 H 278.176 -7.82336 2.40607 0
M  V30 2983 N 280.839 0.0985539 -1.57292 0
M  V30 2984 C 282.064 0.820196 -1.90493 0
M  V30 2985 C 282.489 1.71658 -0.769094 0
M  V30 2986 O 281.847 1.79133 0.279495 0
M  V30 2987 C 281.895 1.61242 -3.22542 0
M  V30 2988 O 280.999 2.72108 -3.09888 0
M  V30 2989 H 280.34 0.225547 -0.62452 0
M  V30 2990 H 282.87 0.0748159 -2.04463 0
M  V30 2991 H 282.88 1.99737 -3.55766 0
M  V30 2992 H 281.555 0.954535 -4.04798 0
M  V30 2993 H 280.132 2.36667 -2.88172 0
M  V30 2994 N 282.317 1.53212 0.369288 0
M  V30 2995 C 283.547 1.72868 1.13139 0
M  V30 2996 C 283.955 0.455754 1.83629 0
M  V30 2997 O 283.298 -0.580861 1.74275 0
M  V30 2998 C 283.36 2.83667 2.20847 0
M  V30 2999 C 283.024 4.24142 1.70155 0
M  V30 3000 C 284.021 5.06619 1.16763 0
M  V30 3001 C 281.706 4.70539 1.7578 0
M  V30 3002 C 283.7 6.33581 0.696678 0
M  V30 3003 C 281.387 5.97481 1.28297 0
M  V30 3004 C 282.385 6.78833 0.753307 0
M  V30 3005 O 282.073 8.03393 0.285475 0
M  V30 3006 H 281.805 0.581707 0.344373 0
M  V30 3007 H 284.359 2.00736 0.435243 0
M  V30 3008 H 282.589 2.51265 2.93944 0
M  V30 3009 H 284.278 2.91536 2.82421 0
M  V30 3010 H 285.044 4.71948 1.11758 0
M  V30 3011 H 280.923 4.07293 2.15949 0
M  V30 3012 H 284.467 6.97027 0.282581 0
M  V30 3013 H 280.364 6.31651 1.32994 0
M  V30 3014 H 281.132 8.17497 0.405145 0
M  V30 3015 N 283.795 -0.628877 1.44509 0
M  V30 3016 C 285.043 -1.38565 1.4712 0
M  V30 3017 C 285.364 -1.94712 0.105899 0
M  V30 3018 O 284.634 -1.75912 -0.862079 0
M  V30 3019 H 283.214 -0.514333 0.541729 0
M  V30 3020 H 285.876 -0.740018 1.80305 0
M  V30 3021 H 284.972 -2.21583 2.19789 0
M  V30 3022 N 285.273 -1.31445 -0.869486 0
M  V30 3023 C 286.519 -1.21337 -1.62496 0
M  V30 3024 C 286.852 0.227872 -1.92858 0
M  V30 3025 O 286.127 1.16094 -1.56053 0
M  V30 3026 C 286.41 -2.05814 -2.95487 0
M  V30 3027 C 286.263 -3.5824 -2.72 0
M  V30 3028 C 287.582 -1.9079 -3.96594 0
M  V30 3029 H 284.701 -0.442135 -0.589649 0
M  V30 3030 H 287.343 -1.6124 -1.00507 0
M  V30 3031 H 285.493 -1.71913 -3.48394 0
M  V30 3032 H 287.165 -4.0228 -2.25762 0
M  V30 3033 H 285.408 -3.81647 -2.06224 0
M  V30 3034 H 286.079 -4.12657 -3.66631 0
M  V30 3035 H 288.555 -2.20459 -3.52898 0
M  V30 3036 H 287.431 -2.52199 -4.87531 0
M  V30 3037 H 287.692 -0.871341 -4.33428 0
M  V30 3038 N 286.751 1.08385 -1.14413 0
M  V30 3039 C 287.997 1.81044 -0.913834 0
M  V30 3040 C 288.33 1.86004 0.558209 0
M  V30 3041 O 287.605 1.33606 1.4135 0
M  V30 3042 C 287.888 3.26648 -1.51569 0
M  V30 3043 C 287.741 3.29895 -3.0576 0
M  V30 3044 C 289.06 4.23629 -1.19273 0
M  V30 3045 H 286.179 0.65727 -0.333414 0
M  V30 3046 H 288.821 1.26896 -1.41412 0
M  V30 3047 H 286.971 3.72889 -1.09023 0
M  V30 3048 H 288.643 2.91977 -3.57137 0
M  V30 3049 H 286.886 2.69163 -3.40197 0
M  V30 3050 H 287.557 4.32516 -3.42977 0
M  V30 3051 H 290.033 3.85727 -1.56057 0
M  V30 3052 H 288.909 5.23822 -1.64017 0
M  V30 3053 H 289.17 4.41968 -0.108068 0
M  V30 3054 N 288.23 0.939286 1.26551 0
M  V30 3055 C 289.16 0.465044 2.28822 0
M  V30 3056 C 290.141 -0.480692 1.63167 0
M  V30 3057 O 291.326 -0.382955 1.90387 0
M  V30 3058 C 288.456 -0.27234 3.46231 0
M  V30 3059 C 287.41 0.58666 4.2396 0
M  V30 3060 C 286.736 -0.280573 5.33963 0
M  V30 3061 C 288.036 1.85704 4.88171 0
M  V30 3062 H 289.73 1.31979 2.68741 0
M  V30 3063 H 287.276 0.636061 1.29191 0
M  V30 3064 H 289.229 -0.615133 4.16886 0
M  V30 3065 H 287.953 -1.16121 3.0526 0
M  V30 3066 H 286.612 0.91232 3.55067 0
M  V30 3067 H 286.26 -1.16874 4.89234 0
M  V30 3068 H 285.96 0.29076 5.8688 0
M  V30 3069 H 287.484 -0.618678 6.07458 0
M  V30 3070 H 288.898 1.58161 5.51052 0
M  V30 3071 H 287.295 2.37279 5.51197 0
M  V30 3072 H 288.365 2.56957 4.11219 0
M  V30 3073 N 289.708 -1.40897 0.706093 0
M  V30 3074 C 290.954 -2.01849 0.250681 0
M  V30 3075 C 291.309 -1.5496 -1.14041 0
M  V30 3076 O 290.602 -0.755566 -1.76073 0
M  V30 3077 C 290.796 -3.5646 0.259099 0
M  V30 3078 C 290.625 -4.18357 1.64947 0
M  V30 3079 C 289.395 -4.522 2.25485 0
M  V30 3080 C 291.593 -4.43856 2.598 0
M  V30 3081 N 289.575 -4.9944 3.56977 0
M  V30 3082 C 290.946 -4.92986 3.75985 0
M  V30 3083 C 293.001 -4.25882 2.57933 0
M  V30 3084 C 291.704 -5.2603 4.90597 0
M  V30 3085 C 293.73 -4.6002 3.71665 0
M  V30 3086 C 293.092 -5.09331 4.86581 0
M  V30 3087 H 289.191 -0.769843 0.137353 0
M  V30 3088 H 291.775 -1.71278 0.925845 0
M  V30 3089 H 289.946 -3.86481 -0.385592 0
M  V30 3090 H 291.678 -4.04144 -0.21213 0
M  V30 3091 H 288.433 -4.3901 1.77671 0
M  V30 3092 H 288.857 -5.27454 4.24407 0
M  V30 3093 H 293.499 -3.86986 1.70298 0
M  V30 3094 H 291.217 -5.63843 5.78884 0
M  V30 3095 H 294.803 -4.47762 3.71484 0
M  V30 3096 H 293.683 -5.35251 5.73129 0
M  V30 3097 N 291.186 -0.45159 -1.50991 0
M  V30 3098 C 292.096 0.358431 -2.31846 0
M  V30 3099 C 293.112 1.01438 -1.41373 0
M  V30 3100 O 294.288 1.00663 -1.74439 0
M  V30 3101 C 291.353 1.43704 -3.15515 0
M  V30 3102 C 290.414 0.799742 -4.21785 0
M  V30 3103 C 289.647 1.82696 -5.01456 0
M  V30 3104 O 289.87 3.05105 -4.81941 0
M  V30 3105 O 288.804 1.40958 -5.85162 0
M  V30 3106 H 292.63 -0.302032 -3.02194 0
M  V30 3107 H 290.215 -0.213825 -1.47862 0
M  V30 3108 H 292.097 2.06227 -3.67489 0
M  V30 3109 H 290.772 2.08133 -2.47916 0
M  V30 3110 H 289.679 0.136084 -3.73852 0
M  V30 3111 H 291.012 0.198718 -4.91799 0
M  V30 3112 N 292.664 1.56529 -0.183458 0
M  V30 3113 C 293.597 2.14417 0.781052 0
M  V30 3114 C 294.575 1.07761 1.21763 0
M  V30 3115 O 295.759 1.35807 1.30724 0
M  V30 3116 C 292.886 2.69361 2.05335 0
M  V30 3117 C 291.932 3.885 1.75982 0
M  V30 3118 S 292.765 5.27568 0.918256 0
M  V30 3119 C 293.921 5.85926 2.20095 0
M  V30 3120 H 294.154 2.95893 0.2889 0
M  V30 3121 H 291.687 1.54368 0.0313844 0
M  V30 3122 H 293.645 3.01662 2.78406 0
M  V30 3123 H 292.306 1.87949 2.51663 0
M  V30 3124 H 291.499 4.25314 2.70415 0
M  V30 3125 H 291.101 3.57149 1.10999 0
M  V30 3126 H 293.393 5.99579 3.15453 0
M  V30 3127 H 294.336 6.82761 1.87731 0
M  V30 3128 H 294.744 5.14438 2.32409 0
M  V30 3129 N 294.142 -0.090211 1.57342 0
M  V30 3130 C 295.072 -1.10976 2.05443 0
M  V30 3131 C 296.053 -1.41482 0.944284 0
M  V30 3132 O 297.238 -1.51428 1.21586 0
M  V30 3133 C 294.368 -2.42831 2.48295 0
M  V30 3134 C 293.322 -2.26721 3.63018 0
M  V30 3135 C 292.648 -3.63796 3.91863 0
M  V30 3136 C 293.948 -1.7037 4.93732 0
M  V30 3137 H 295.642 -0.709564 2.9087 0
M  V30 3138 H 293.188 -0.339874 1.39932 0
M  V30 3139 H 295.141 -3.14431 2.80555 0
M  V30 3140 H 293.865 -2.84795 1.59873 0
M  V30 3141 H 292.524 -1.57565 3.31012 0
M  V30 3142 H 292.172 -4.03297 3.00601 0
M  V30 3143 H 291.872 -3.53861 4.69101 0
M  V30 3144 H 293.396 -4.36855 4.26603 0
M  V30 3145 H 294.81 -2.31816 5.24342 0
M  V30 3146 H 293.207 -1.71181 5.75167 0
M  V30 3147 H 294.277 -0.663542 4.80339 0
M  V30 3148 N 295.62 -1.53406 -0.361157 0
M  V30 3149 C 296.848 -1.73717 -1.12383 0
M  V30 3150 C 297.263 -0.468161 -1.82904 0
M  V30 3151 O 296.62 0.559198 -1.73722 0
M  V30 3152 C 296.671 -2.90558 -2.15078 0
M  V30 3153 O 296.392 -4.12549 -1.47428 0
M  V30 3154 C 297.893 -3.22777 -3.03858 0
M  V30 3155 H 295.113 -0.580896 -0.335858 0
M  V30 3156 H 297.657 -2.00167 -0.418728 0
M  V30 3157 H 295.812 -2.66489 -2.8118 0
M  V30 3158 H 296.226 -4.78009 -2.15887 0
M  V30 3159 H 297.7 -4.07927 -3.71887 0
M  V30 3160 H 298.177 -2.38329 -3.68912 0
M  V30 3161 H 298.783 -3.48787 -2.43367 0
M  V30 3162 N 297.098 0.621204 -1.44841 0
M  V30 3163 C 298.514 0.94048 -1.28946 0
M  V30 3164 C 298.714 2.00154 -0.23249 0
M  V30 3165 O 297.77 2.49651 0.378237 0
M  V30 3166 C 299.083 1.39433 -2.66419 0
M  V30 3167 C 300.631 1.50927 -2.74208 0
M  V30 3168 C 301.106 1.99692 -4.12174 0
M  V30 3169 N 302.597 2.06947 -4.144 0
M  V30 3170 C 303.332 2.45871 -5.1801 0
M  V30 3171 N 302.828 2.83862 -6.31977 0
M  V30 3172 N 304.621 2.46092 -5.05366 0
M  V30 3173 H 296.772 -0.0803548 -2.12248 0
M  V30 3174 H 299.035 0.0266913 -0.947624 0
M  V30 3175 H 298.741 0.688925 -3.44887 0
M  V30 3176 H 298.615 2.36347 -2.93973 0
M  V30 3177 H 301.002 2.20561 -1.96053 0
M  V30 3178 H 301.083 0.523627 -2.50383 0
M  V30 3179 H 300.727 1.30649 -4.90809 0
M  V30 3180 H 300.657 2.99146 -4.33381 0
M  V30 3181 H 303.148 1.80232 -3.32152 0
M  V30 3182 H 303.461 3.12405 -7.0684 0
M  V30 3183 H 301.806 2.8159 -6.35399 0
M  V30 3184 H 304.997 2.1581 -4.15384 0
M  V30 3185 H 305.17 2.76102 -5.86235 0
M  V30 3186 N 298.576 1.31904 0.862503 0
M  V30 3187 C 299.486 1.22161 2.00285 0
M  V30 3188 C 300.502 0.136785 1.73462 0
M  V30 3189 O 301.678 0.355994 1.98229 0
M  V30 3190 C 298.743 0.937093 3.33796 0
M  V30 3191 C 297.804 2.10957 3.73893 0
M  V30 3192 C 297.037 1.83853 5.01033 0
M  V30 3193 O 297.26 0.777274 5.65079 0
M  V30 3194 O 296.194 2.69741 5.38074 0
M  V30 3195 H 300.02 2.18008 2.11439 0
M  V30 3196 H 297.605 1.11716 0.991957 0
M  V30 3197 H 299.487 0.794583 4.13841 0
M  V30 3198 H 298.162 0.00871894 3.23699 0
M  V30 3199 H 297.069 2.30752 2.94456 0
M  V30 3200 H 298.402 3.02046 3.88625 0
M  V30 3201 N 300.054 -1.07777 1.14986 0
M  V30 3202 C 301.3 -1.80557 0.923422 0
M  V30 3203 C 301.633 -1.86298 -0.548337 0
M  V30 3204 O 300.908 -1.34354 -1.40639 0
M  V30 3205 C 301.191 -3.25839 1.53299 0
M  V30 3206 C 301.044 -3.28269 3.07505 0
M  V30 3207 C 302.363 -4.22991 1.21518 0
M  V30 3208 H 299.482 -0.655493 0.336894 0
M  V30 3209 H 302.124 -1.26144 1.42083 0
M  V30 3210 H 300.274 -3.72306 1.10999 0
M  V30 3211 H 301.946 -2.90079 3.58681 0
M  V30 3212 H 300.189 -2.67355 3.4162 0
M  V30 3213 H 300.86 -4.30691 3.45266 0
M  V30 3214 H 303.336 -3.84894 1.581 0
M  V30 3215 H 302.212 -5.22945 1.66793 0
M  V30 3216 H 302.473 -4.41904 0.131505 0
M  V30 3217 N 301.532 -0.945985 -1.26051 0
M  V30 3218 C 302.943 -0.638096 -1.75457 0
M  V30 3219 C 303.294 0.846672 -1.76991 0
M  V30 3220 O 302.419 1.66262 -1.38513 0
M  V30 3221 C 303.014 -1.15157 -3.18629 0
M  V30 3222 C 301.573 -0.894004 -3.65629 0
M  V30 3223 C 300.72 -1.29967 -2.44957 0
M  V30 3224 H 303.671 -1.12376 -1.1206 0
M  V30 3225 H 303.692 -0.507615 -3.77099 0
M  V30 3226 H 303.204 -2.23222 -3.1748 0
M  V30 3227 H 301.305 0.172057 -3.72203 0
M  V30 3228 H 301.418 -1.52439 -4.54202 0
M  V30 3229 H 299.782 -0.718078 -2.44368 0
M  V30 3230 H 300.565 -2.38935 -2.46505 0
M  V30 3231 N 303.011 1.40521 -0.713556 0
M  V30 3232 C 304.258 2.00923 -0.25219 0
M  V30 3233 C 304.586 1.56571 1.15395 0
M  V30 3234 O 303.841 0.775874 1.79663 0
M  V30 3235 C 304.14 3.56317 -0.278 0
M  V30 3236 C 303.806 4.20246 -1.63415 0
M  V30 3237 C 302.468 4.37422 -2.00538 0
M  V30 3238 C 304.82 4.55923 -2.52554 0
M  V30 3239 C 302.148 4.87558 -3.2635 0
M  V30 3240 C 304.5 5.07458 -3.77716 0
M  V30 3241 C 303.164 5.22843 -4.14959 0
M  V30 3242 H 302.434 0.735231 -0.0922829 0
M  V30 3243 H 305.081 1.68161 -0.916188 0
M  V30 3244 H 303.386 3.88976 0.469567 0
M  V30 3245 H 305.083 4.00883 0.0967819 0
M  V30 3246 H 301.673 4.07263 -1.33546 0
M  V30 3247 H 305.857 4.42291 -2.25149 0
M  V30 3248 H 301.113 4.97654 -3.55176 0
M  V30 3249 H 305.287 5.34041 -4.4696 0
M  V30 3250 H 302.914 5.61454 -5.12516 0
M  V30 3251 N 304.489 0.459591 1.5075 0
M  V30 3252 C 305.436 -0.340524 2.28274 0
M  V30 3253 C 306.406 -0.997371 1.32822 0
M  V30 3254 O 307.591 -1.01202 1.61749 0
M  V30 3255 C 304.731 -1.42317 3.14388 0
M  V30 3256 C 303.844 -0.782251 4.24859 0
M  V30 3257 C 302.979 -1.84182 4.98247 0
M  V30 3258 C 302.018 -1.18053 6.00608 0
M  V30 3259 N 301.155 -2.18244 6.67319 0
M  V30 3260 H 305.995 0.326899 2.96202 0
M  V30 3261 H 303.532 0.173057 1.46078 0
M  V30 3262 H 305.49 -2.06241 3.62658 0
M  V30 3263 H 304.12 -2.05992 2.4853 0
M  V30 3264 H 303.172 -0.0307404 3.80388 0
M  V30 3265 H 304.484 -0.259663 4.98124 0
M  V30 3266 H 303.638 -2.55714 5.50177 0
M  V30 3267 H 302.377 -2.39819 4.24662 0
M  V30 3268 H 301.382 -0.450776 5.47949 0
M  V30 3269 H 302.607 -0.631202 6.7616 0
M  V30 3270 H 300.553 -2.72919 5.96533 0
M  V30 3271 H 300.47 -1.70938 7.36421 0
M  V30 3272 H 301.738 -2.89191 7.23871 0
M  V30 3273 N 305.967 -1.56429 0.191757 0
M  V30 3274 C 307.215 -1.97095 -0.447006 0
M  V30 3275 C 307.536 -1.07967 -1.62383 0
M  V30 3276 O 306.806 -0.150248 -1.95323 0
M  V30 3277 H 305.386 -0.727832 -0.168135 0
M  V30 3278 H 308.048 -1.92911 0.27771 0
M  V30 3279 H 307.144 -3.01848 -0.793371 0
M  V30 3280 N 307.445 0.0818655 -1.57387 0
M  V30 3281 C 308.375 1.09885 -2.06028 0
M  V30 3282 C 309.356 1.4098 -0.951774 0
M  V30 3283 O 310.541 1.50781 -1.22387 0
M  V30 3284 C 307.671 2.4151 -2.4958 0
M  V30 3285 C 306.625 2.24792 -3.64215 0
M  V30 3286 C 305.951 3.61712 -3.93787 0
M  V30 3287 C 307.251 1.67749 -4.94629 0
M  V30 3288 H 308.945 0.694128 -2.91243 0
M  V30 3289 H 306.491 0.332448 -1.4011 0
M  V30 3290 H 308.444 3.12939 -2.82219 0
M  V30 3291 H 307.168 2.83943 -1.61381 0
M  V30 3292 H 305.827 1.55807 -3.31843 0
M  V30 3293 H 305.475 4.01697 -3.02735 0
M  V30 3294 H 305.175 3.51368 -4.70971 0
M  V30 3295 H 306.699 4.34587 -4.28913 0
M  V30 3296 H 308.113 2.29032 -5.25564 0
M  V30 3297 H 306.51 1.68128 -5.76067 0
M  V30 3298 H 307.58 0.638059 -4.80684 0
M  V30 3299 N 308.923 1.53595 0.353017 0
M  V30 3300 C 309.833 1.83897 1.45667 0
M  V30 3301 C 310.849 0.728334 1.58023 0
M  V30 3302 O 312.025 1.01968 1.73679 0
M  V30 3303 C 309.09 2.03383 2.80778 0
M  V30 3304 C 308.151 3.27262 2.77845 0
M  V30 3305 C 307.384 3.45809 4.06512 0
M  V30 3306 O 307.607 2.68387 5.03314 0
M  V30 3307 O 306.541 4.39207 4.11559 0
M  V30 3308 H 310.367 2.77686 1.2298 0
M  V30 3309 H 307.952 1.39132 0.544308 0
M  V30 3310 H 309.834 2.17698 3.60812 0
M  V30 3311 H 308.509 1.12783 3.03417 0
M  V30 3312 H 307.416 3.18359 1.96465 0
M  V30 3313 H 308.749 4.17824 2.60161 0
M  V30 3314 N 310.401 -0.613514 1.45168 0
M  V30 3315 C 311.649 -1.36997 1.48581 0
M  V30 3316 C 311.97 -1.94589 0.126545 0
M  V30 3317 O 311.24 -1.76816 -0.843372 0
M  V30 3318 H 309.82 -0.508558 0.547154 0
M  V30 3319 H 312.482 -0.720853 1.81079 0
M  V30 3320 H 311.578 -2.1924 2.22127 0
M  V30 3321 N 311.879 -1.3236 -0.855495 0
M  V30 3322 C 312.809 -1.23833 -1.97958 0
M  V30 3323 C 313.79 -0.122361 -1.69659 0
M  V30 3324 O 314.975 -0.30939 -1.9172 0
M  V30 3325 C 312.105 -0.959772 -3.33775 0
M  V30 3326 C 311.059 -2.03689 -3.76424 0
M  V30 3327 C 310.385 -1.61075 -5.09862 0
M  V30 3328 C 311.685 -3.4518 -3.9198 0
M  V30 3329 H 313.379 -2.1788 -2.0535 0
M  V30 3330 H 310.925 -1.04891 -0.986605 0
M  V30 3331 H 312.878 -0.886678 -4.11966 0
M  V30 3332 H 311.602 0.0163404 -3.26596 0
M  V30 3333 H 310.261 -2.10012 -3.00484 0
M  V30 3334 H 309.909 -0.622107 -4.99138 0
M  V30 3335 H 309.609 -2.33143 -5.39368 0
M  V30 3336 H 311.133 -1.55201 -5.90546 0
M  V30 3337 H 312.547 -3.4145 -4.60526 0
M  V30 3338 H 310.944 -4.1559 -4.32903 0
M  V30 3339 H 312.014 -3.84903 -2.94919 0
M  V30 3340 N 313.357 1.07166 -1.15556 0
M  V30 3341 C 314.289 2.14341 -0.811815 0
M  V30 3342 C 315.302 1.61835 0.177015 0
M  V30 3343 O 316.491 1.78439 -0.0464996 0
M  V30 3344 C 313.591 3.38387 -0.186481 0
M  V30 3345 C 312.764 4.20238 -1.21321 0
M  V30 3346 C 311.823 5.2266 -0.609302 0
M  V30 3347 O 310.849 5.54719 -1.27576 0
M  V30 3348 N 312.051 5.77306 0.608099 0
M  V30 3349 H 314.816 2.44431 -1.73417 0
M  V30 3350 H 312.377 1.23089 -1.0517 0
M  V30 3351 H 314.369 4.04044 0.230339 0
M  V30 3352 H 312.939 3.05994 0.639249 0
M  V30 3353 H 312.159 3.50369 -1.80652 0
M  V30 3354 H 313.447 4.71736 -1.90638 0
M  V30 3355 H 312.845 5.53513 1.1679 0
M  V30 3356 H 311.402 6.44583 0.96725 0
M  V30 3357 N 314.835 0.952656 1.25548 0
M  V30 3358 C 316.081 0.607272 1.93494 0
M  V30 3359 C 316.414 -0.853245 1.74452 0
M  V30 3360 O 315.689 -1.61194 1.08843 0
M  V30 3361 C 315.972 0.96435 3.46947 0
M  V30 3362 C 315.825 2.48045 3.75225 0
M  V30 3363 C 317.144 0.487987 4.37386 0
M  V30 3364 H 314.263 0.222096 0.702739 0
M  V30 3365 H 316.905 1.18895 1.48203 0
M  V30 3366 H 315.055 0.469361 3.85654 0
M  V30 3367 H 316.727 3.04905 3.46166 0
M  V30 3368 H 314.97 2.919 3.209 0
M  V30 3369 H 315.641 2.6808 4.82532 0
M  V30 3370 H 318.117 0.912558 4.0597 0
M  V30 3371 H 316.993 0.766547 5.43521 0
M  V30 3372 H 317.254 -0.612063 4.37843 0
M  V30 3373 N 316.313 -1.40141 0.720998 0
M  V30 3374 C 317.276 -2.29058 0.0805834 0
M  V30 3375 C 318.276 -1.45632 -0.681758 0
M  V30 3376 O 319.466 -1.6648 -0.512856 0
M  V30 3377 C 316.598 -3.28925 -0.895593 0
M  V30 3378 H 317.791 -2.87191 0.863793 0
M  V30 3379 H 315.344 -1.48553 0.485975 0
M  V30 3380 H 316.079 -2.75822 -1.70566 0
M  V30 3381 H 315.864 -3.90519 -0.351766 0
M  V30 3382 H 317.354 -3.95494 -1.34069 0
M  V30 3383 N 317.792 -0.46758 -1.50504 0
M  V30 3384 C 319.038 0.0808869 -2.03239 0
M  V30 3385 C 319.393 1.37721 -1.34353 0
M  V30 3386 O 318.686 1.86016 -0.459194 0
M  V30 3387 C 318.88 0.323995 -3.55928 0
M  V30 3388 C 318.709 -0.947215 -4.39611 0
M  V30 3389 C 317.479 -1.48951 -4.82848 0
M  V30 3390 C 319.677 -1.84166 -4.80195 0
M  V30 3391 N 317.659 -2.71011 -5.50842 0
M  V30 3392 C 319.03 -2.90815 -5.47564 0
M  V30 3393 C 321.085 -1.85246 -4.62156 0
M  V30 3394 C 319.788 -3.98529 -5.98805 0
M  V30 3395 C 321.814 -2.91914 -5.14335 0
M  V30 3396 C 321.176 -3.97282 -5.81676 0
M  V30 3397 H 317.275 -0.0103394 -0.781932 0
M  V30 3398 H 319.859 -0.635003 -1.84054 0
M  V30 3399 H 318.03 1.00892 -3.75067 0
M  V30 3400 H 319.762 0.866492 -3.95315 0
M  V30 3401 H 316.517 -1.03918 -4.62058 0
M  V30 3402 H 316.941 -3.32988 -5.89447 0
M  V30 3403 H 321.583 -1.05103 -4.09528 0
M  V30 3404 H 319.301 -4.79491 -6.50472 0
M  V30 3405 H 322.887 -2.93729 -5.0221 0
M  V30 3406 H 321.767 -4.78462 -6.21324 0
M  V30 3407 N 319.27 1.56325 -0.20005 0
M  V30 3408 C 320.2 2.22318 0.713916 0
M  V30 3409 C 321.181 1.18788 1.21752 0
M  V30 3410 O 322.366 1.47309 1.26545 0
M  V30 3411 C 319.496 2.88639 1.93144 0
M  V30 3412 C 318.45 3.98457 1.56255 0
M  V30 3413 C 317.776 4.51967 2.85709 0
M  V30 3414 C 319.076 5.16612 0.768747 0
M  V30 3415 H 320.77 2.98952 0.163755 0
M  V30 3416 H 318.316 1.43792 0.0773219 0
M  V30 3417 H 320.269 3.33491 2.57608 0
M  V30 3418 H 318.993 2.09419 2.50621 0
M  V30 3419 H 317.652 3.54305 0.941471 0
M  V30 3420 H 317.3 3.69503 3.41287 0
M  V30 3421 H 317 5.26071 2.6177 0
M  V30 3422 H 318.524 4.99523 3.51154 0
M  V30 3423 H 319.938 5.57977 1.3166 0
M  V30 3424 H 318.335 5.96812 0.627286 0
M  V30 3425 H 319.405 4.84358 -0.229168 0
M  V30 3426 N 320.748 -0.0735177 1.57428 0
M  V30 3427 C 321.994 -0.774145 1.87443 0
M  V30 3428 C 322.327 -1.77311 0.792103 0
M  V30 3429 O 321.602 -1.93492 -0.197793 0
M  V30 3430 C 321.885 -1.48367 3.28115 0
M  V30 3431 C 321.738 -0.501227 4.46999 0
M  V30 3432 C 323.057 -2.429 3.66998 0
M  V30 3433 H 320.176 -0.279971 0.681752 0
M  V30 3434 H 322.818 -0.0373616 1.89963 0
M  V30 3435 H 320.968 -2.11171 3.26097 0
M  V30 3436 H 322.64 0.121468 4.6114 0
M  V30 3437 H 320.883 0.183593 4.33411 0
M  V30 3438 H 321.554 -1.03526 5.42205 0
M  V30 3439 H 324.03 -1.90175 3.70098 0
M  V30 3440 H 322.906 -2.89549 4.66318 0
M  V30 3441 H 323.167 -3.27628 2.96837 0
M  V30 3442 N 322.226 -1.5378 -0.344866 0
M  V30 3443 C 323.472 -1.71216 -1.08687 0
M  V30 3444 C 323.805 -0.473281 -1.88345 0
M  V30 3445 O 323.08 0.52968 -1.87149 0
M  V30 3446 C 323.363 -2.97486 -2.02914 0
M  V30 3447 C 323.216 -4.31579 -1.26727 0
M  V30 3448 C 324.535 -3.19422 -3.0275 0
M  V30 3449 H 321.654 -0.62301 -0.393735 0
M  V30 3450 H 324.296 -1.8645 -0.365563 0
M  V30 3451 H 322.446 -2.84629 -2.64421 0
M  V30 3452 H 324.118 -4.56284 -0.67845 0
M  V30 3453 H 322.361 -4.30049 -0.569273 0
M  V30 3454 H 323.032 -5.16106 -1.95803 0
M  V30 3455 H 325.508 -3.316 -2.51357 0
M  V30 3456 H 324.384 -4.09169 -3.65885 0
M  V30 3457 H 324.645 -2.35656 -3.74057 0
M  V30 3458 N 323.704 0.605807 -1.45491 0
M  V30 3459 C 324.614 1.74466 -1.56839 0
M  V30 3460 C 325.63 1.68006 -0.452772 0
M  V30 3461 O 326.806 1.8833 -0.713708 0
M  V30 3462 C 323.871 3.10931 -1.53371 0
M  V30 3463 C 322.932 3.28832 -2.75986 0
M  V30 3464 C 322.165 4.58787 -2.72673 0
M  V30 3465 O 322.388 5.4122 -1.80102 0
M  V30 3466 O 321.322 4.79438 -3.63899 0
M  V30 3467 H 325.148 1.67843 -2.53106 0
M  V30 3468 H 322.733 0.770108 -1.28022 0
M  V30 3469 H 324.615 3.92233 -1.54051 0
M  V30 3470 H 323.29 3.18042 -0.602572 0
M  V30 3471 H 322.197 2.47112 -2.80867 0
M  V30 3472 H 323.53 3.26599 -3.68231 0
M  V30 3473 N 325.182 1.32811 0.848464 0
M  V30 3474 C 326.129 1.22265 1.95755 0
M  V30 3475 C 327.099 0.103413 1.65778 0
M  V30 3476 O 328.284 0.280033 1.88734 0
M  V30 3477 C 325.424 0.958014 3.31536 0
M  V30 3478 C 324.537 2.16262 3.73971 0
M  V30 3479 C 323.672 1.83295 4.98575 0
M  V30 3480 C 322.711 3.00041 5.33518 0
M  V30 3481 N 321.848 2.67125 6.49299 0
M  V30 3482 H 326.688 2.17128 2.04107 0
M  V30 3483 H 324.225 1.07982 0.998913 0
M  V30 3484 H 326.183 0.785052 4.09747 0
M  V30 3485 H 324.813 0.046159 3.22767 0
M  V30 3486 H 323.865 2.44565 2.91362 0
M  V30 3487 H 325.177 3.03572 3.95785 0
M  V30 3488 H 324.331 1.62586 5.84509 0
M  V30 3489 H 323.07 0.932078 4.7871 0
M  V30 3490 H 322.075 3.21374 4.46093 0
M  V30 3491 H 323.3 3.90869 5.55336 0
M  V30 3492 H 321.246 1.79586 6.3094 0
M  V30 3493 H 321.163 3.47965 6.71161 0
M  V30 3494 H 322.431 2.49861 7.3837 0
M  V30 3495 N 326.66 -1.06551 1.16123 0
M  V30 3496 C 327.608 -2.16063 0.861371 0
M  V30 3497 C 328.602 -1.6856 -0.168517 0
M  V30 3498 O 329.808 -1.79986 -0.0227579 0
M  V30 3499 H 326.183 -0.705278 0.260934 0
M  V30 3500 H 328.154 -2.38567 1.79244 0
M  V30 3501 C 326.903 -3.45661 0.376018 0
M  V30 3502 H 326.226 -3.82604 1.15992 0
M  V30 3503 H 327.666 -4.23504 0.204951 0
M  V30 3504 C 326.125 -3.24546 -0.903954 0
M  V30 3505 O 326.655 -3.49865 -1.97377 0
M  V30 3506 N 324.861 -2.77992 -0.846679 0
M  V30 3507 H 324.408 -2.57589 0.0241017 0
M  V30 3508 H 324.366 -2.64244 -1.70359 0
M  V30 3509 N 328.138 -0.959301 -1.25041 0
M  V30 3510 C 329.048 -0.489994 -2.29426 0
M  V30 3511 C 330.064 0.444944 -1.68215 0
M  V30 3512 O 331.24 0.320046 -1.98841 0
M  V30 3513 C 328.305 0.220309 -3.45999 0
M  V30 3514 C 327.366 -0.753418 -4.22637 0
M  V30 3515 C 326.599 -0.076918 -5.33645 0
M  V30 3516 O 326.822 1.13649 -5.58963 0
M  V30 3517 O 325.756 -0.764824 -5.97021 0
M  V30 3518 H 329.582 -1.35755 -2.71669 0
M  V30 3519 H 327.167 -0.725961 -1.30576 0
M  V30 3520 H 329.049 0.619677 -4.16819 0
M  V30 3521 H 327.724 1.06296 -3.0575 0
M  V30 3522 H 326.631 -1.20308 -3.54227 0
M  V30 3523 H 327.964 -1.56423 -4.66683 0
M  V30 3524 N 329.616 1.39756 -0.72842 0
M  V30 3525 C 331.032 1.5442 -0.403308 0
M  V30 3526 C 331.232 1.69694 1.08656 0
M  V30 3527 O 330.288 1.69373 1.87267 0
M  V30 3528 C 331.601 2.76555 -1.18058 0
M  V30 3529 C 333.149 2.90384 -1.16815 0
M  V30 3530 C 333.624 4.15449 -1.92785 0
M  V30 3531 N 335.115 4.22475 -1.89918 0
M  V30 3532 C 335.85 5.1818 -2.45514 0
M  V30 3533 N 335.346 6.19714 -3.09719 0
M  V30 3534 N 337.139 5.1035 -2.35584 0
M  V30 3535 H 329.29 1.28089 -1.69431 0
M  V30 3536 H 331.553 0.620327 -0.716867 0
M  V30 3537 H 331.259 2.7159 -2.23455 0
M  V30 3538 H 331.133 3.69033 -0.780662 0
M  V30 3539 H 333.52 2.94846 -0.12234 0
M  V30 3540 H 333.601 1.98988 -1.6074 0
M  V30 3541 H 333.245 4.11749 -2.97364 0
M  V30 3542 H 333.175 5.05877 -1.46272 0
M  V30 3543 H 335.666 3.49743 -1.43138 0
M  V30 3544 H 335.979 6.8919 -3.49625 0
M  V30 3545 H 334.324 6.20121 -3.13807 0
M  V30 3546 H 337.515 4.2996 -1.85072 0
M  V30 3547 H 337.688 5.84761 -2.79211 0
M  V30 3548 N 331.094 0.475555 1.50254 0
M  V30 3549 C 332.024 -0.30611 2.31485 0
M  V30 3550 C 333.005 -0.986228 1.38591 0
M  V30 3551 O 334.19 -0.982541 1.67511 0
M  V30 3552 C 331.32 -1.38588 3.1845 0
M  V30 3553 C 330.274 -0.827115 4.19932 0
M  V30 3554 C 329.6 -2.00551 4.95665 0
M  V30 3555 C 330.9 0.16463 5.2204 0
M  V30 3556 H 332.594 0.371866 2.97082 0
M  V30 3557 H 330.14 0.180282 1.42867 0
M  V30 3558 H 332.093 -1.94023 3.74076 0
M  V30 3559 H 330.817 -2.09269 2.50747 0
M  V30 3560 H 329.476 -0.294702 3.65414 0
M  V30 3561 H 329.124 -2.6994 4.2443 0
M  V30 3562 H 328.824 -1.63784 5.64313 0
M  V30 3563 H 330.348 -2.56468 5.54127 0
M  V30 3564 H 331.762 -0.300699 5.72511 0
M  V30 3565 H 330.159 0.446813 5.98434 0
M  V30 3566 H 331.229 1.08905 4.72512 0
M  V30 3567 N 332.573 -1.56217 0.208337 0
M  V30 3568 C 333.801 -2.02337 -0.43215 0
M  V30 3569 C 334.216 -1.08834 -1.54275 0
M  V30 3570 O 333.573 -0.0955462 -1.8225 0
M  V30 3571 C 333.624 -3.48072 -0.976138 0
M  V30 3572 O 333.345 -4.38007 0.0901621 0
M  V30 3573 C 334.846 -4.09773 -1.69119 0
M  V30 3574 H 332.066 -0.662385 -0.10718 0
M  V30 3575 H 334.61 -2.01966 0.320923 0
M  V30 3576 H 332.765 -3.49099 -1.67954 0
M  V30 3577 H 333.179 -5.23543 -0.316701 0
M  V30 3578 H 334.653 -5.13556 -2.02397 0
M  V30 3579 H 335.13 -3.53999 -2.59964 0
M  V30 3580 H 335.736 -4.12556 -1.03332 0
M  V30 3581 N 334.051 0.0651679 -1.57465 0
M  V30 3582 C 335.3 0.761916 -1.86756 0
M  V30 3583 C 335.613 1.78406 -0.801925 0
M  V30 3584 O 336.819 2.53084 -0.982885 0
M  V30 3585 C 335.275 1.40603 -3.31299 0
M  V30 3586 C 334.883 0.422115 -4.46007 0
M  V30 3587 C 336.627 2.08476 -3.69781 0
M  V30 3588 C 334.534 1.07252 -5.81593 0
M  V30 3589 H 333.464 0.288308 -0.696702 0
M  V30 3590 H 336.115 0.015344 -1.83494 0
M  V30 3591 H 334.497 2.20109 -3.29193 0
M  V30 3592 H 335.671 -0.343613 -4.59517 0
M  V30 3593 H 333.986 -0.152527 -4.16121 0
M  V30 3594 H 336.583 2.57925 -4.68379 0
M  V30 3595 H 336.926 2.88712 -2.99919 0
M  V30 3596 H 337.459 1.35792 -3.73905 0
M  V30 3597 H 334.198 0.310342 -6.54765 0
M  V30 3598 H 333.718 1.80895 -5.71872 0
M  V30 3599 H 335.397 1.59043 -6.27148 0
M  V30 3600 N 335.529 1.53961 0.336706 0
M  V30 3601 C 336.94 1.62914 0.911925 0
M  V30 3602 C 337.291 0.514795 1.89326 0
M  V30 3603 O 336.416 -0.354395 2.13478 0
M  V30 3604 C 337.011 2.95304 1.66076 0
M  V30 3605 C 335.57 3.06496 2.18489 0
M  V30 3606 C 334.717 2.58403 1.00613 0
M  V30 3607 H 337.668 1.58285 0.114649 0
M  V30 3608 H 337.689 2.84727 2.5241 0
M  V30 3609 H 337.201 3.76387 0.946276 0
M  V30 3610 H 335.302 2.3006 2.93092 0
M  V30 3611 H 335.415 4.1208 2.44391 0
M  V30 3612 H 333.779 2.13977 1.38152 0
M  V30 3613 H 334.562 3.41932 0.306179 0
M  V30 3614 N 337.007 -0.598083 1.45811 0
M  V30 3615 C 338.232 -1.3881 1.54099 0
M  V30 3616 C 338.657 -1.8726 0.177578 0
M  V30 3617 O 338.015 -1.6069 -0.839541 0
M  V30 3618 C 338.063 -2.56217 2.53743 0
M  V30 3619 O 337.167 -3.5716 2.06182 0
M  V30 3620 H 336.508 -0.414024 0.519115 0
M  V30 3621 H 339.038 -0.726971 1.91249 0
M  V30 3622 H 339.048 -3.03337 2.72856 0
M  V30 3623 H 337.723 -2.20303 3.5276 0
M  V30 3624 H 336.3 -3.16624 1.96987 0
M  V30 3625 N 338.485 -1.33259 -0.841409 0
M  V30 3626 C 339.71 -1.2775 -1.63385 0
M  V30 3627 C 340.135 0.149188 -1.87507 0
M  V30 3628 O 339.493 1.10498 -1.43736 0
M  V30 3629 C 339.541 -2.05571 -2.96265 0
M  V30 3630 O 338.645 -1.41257 -3.87453 0
M  V30 3631 H 337.986 -0.439627 -0.497618 0
M  V30 3632 H 340.516 -1.75782 -1.04699 0
M  V30 3633 H 340.526 -2.16241 -3.45982 0
M  V30 3634 H 339.201 -3.09309 -2.7803 0
M  V30 3635 H 337.778 -1.39217 -3.45938 0
M  V30 3636 N 339.963 1.05934 -1.16686 0
M  V30 3637 C 341.203 1.80382 -0.961345 0
M  V30 3638 C 341.567 1.85331 0.501643 0
M  V30 3639 O 342.768 2.55795 0.825986 0
M  V30 3640 C 341.039 3.20777 -1.57596 0
M  V30 3641 S 342.598 4.11795 -1.51559 0
M  V30 3642 H 339.416 0.621332 -0.345641 0
M  V30 3643 H 342.018 1.27157 -1.48497 0
M  V30 3644 H 340.722 3.14773 -2.63337 0
M  V30 3645 H 340.253 3.79078 -1.05182 0
M  V30 3646 H 342.268 4.93485 -0.518374 0
M  V30 3647 N 341.441 0.965919 1.2453 0
M  V30 3648 C 342.852 0.665929 1.7442 0
M  V30 3649 C 343.203 -0.818407 1.78316 0
M  V30 3650 O 342.328 -1.64037 1.41141 0
M  V30 3651 C 342.923 1.20211 3.16757 0
M  V30 3652 C 341.482 0.952059 3.6416 0
M  V30 3653 C 340.629 1.33848 2.42858 0
M  V30 3654 H 343.58 1.14144 1.10258 0
M  V30 3655 H 343.601 0.567544 3.76244 0
M  V30 3656 H 343.113 2.28244 3.13889 0
M  V30 3657 H 341.214 -0.112821 3.72429 0
M  V30 3658 H 341.327 1.59645 4.51719 0
M  V30 3659 H 339.691 0.756864 2.43195 0
M  V30 3660 H 340.474 2.42827 2.42673 0
M  V30 3661 N 342.919 -1.39368 0.735821 0
M  V30 3662 C 344.335 -1.54204 0.411492 0
M  V30 3663 C 344.535 -1.70268 -1.07755 0
M  V30 3664 O 343.591 -1.70364 -1.86366 0
M  V30 3665 C 344.904 -2.75925 1.19523 0
M  V30 3666 C 346.452 -2.89761 1.18354 0
M  V30 3667 C 346.927 -4.14421 1.94986 0
M  V30 3668 N 348.418 -4.21462 1.92156 0
M  V30 3669 C 349.153 -5.16871 2.48258 0
M  V30 3670 N 348.649 -6.18063 3.13001 0
M  V30 3671 N 350.442 -5.09093 2.38287 0
M  V30 3672 H 342.593 -1.27189 1.70108 0
M  V30 3673 H 344.856 -0.616517 0.720147 0
M  V30 3674 H 344.562 -2.70401 2.24892 0
M  V30 3675 H 344.436 -3.68614 0.800222 0
M  V30 3676 H 346.823 -2.94777 0.137975 0
M  V30 3677 H 346.904 -1.98133 1.61793 0
M  V30 3678 H 346.548 -4.10166 2.99543 0
M  V30 3679 H 346.478 -5.05095 1.48953 0
M  V30 3680 H 348.969 -3.48979 1.44991 0
M  V30 3681 H 349.282 -6.87326 3.53275 0
M  V30 3682 H 347.627 -6.18448 3.17091 0
M  V30 3683 H 350.818 -4.28973 1.8735 0
M  V30 3684 H 350.991 -5.83272 2.82308 0
M  V30 3685 N 344.397 -0.483516 -1.5 0
M  V30 3686 C 345.622 0.0667119 -2.07293 0
M  V30 3687 C 346.047 1.3164 -1.3436 0
M  V30 3688 O 345.405 1.76945 -0.394987 0
M  V30 3689 C 345.453 0.321126 -3.59167 0
M  V30 3690 O 344.557 1.39927 -3.87936 0
M  V30 3691 H 343.898 -0.0184758 -0.663743 0
M  V30 3692 H 346.428 -0.678125 -1.93035 0
M  V30 3693 H 346.438 0.557906 -4.04168 0
M  V30 3694 H 345.113 -0.592007 -4.11665 0
M  V30 3695 H 343.69 1.14882 -3.54763 0
M  V30 3696 N 345.875 1.56104 -0.216619 0
M  V30 3697 C 347.122 1.98172 0.416416 0
M  V30 3698 C 347.45 1.10413 1.60122 0
M  V30 3699 O 346.705 0.147967 1.9514 0
M  V30 3700 C 347.004 3.45923 0.898464 0
M  V30 3701 C 346.67 4.50559 -0.175288 0
M  V30 3702 C 345.332 4.78897 -0.470271 0
M  V30 3703 C 347.684 5.1334 -0.901728 0
M  V30 3704 C 345.012 5.67299 -1.4963 0
M  V30 3705 C 347.364 6.02853 -1.91705 0
M  V30 3706 C 346.028 6.29537 -2.21901 0
M  V30 3707 H 345.298 0.725164 0.152377 0
M  V30 3708 H 347.945 1.88839 -0.318103 0
M  V30 3709 H 346.25 3.52434 1.71165 0
M  V30 3710 H 347.947 3.75841 1.39803 0
M  V30 3711 H 344.537 4.28551 0.0647806 0
M  V30 3712 H 348.721 4.91521 -0.687072 0
M  V30 3713 H 343.977 5.86239 -1.73592 0
M  V30 3714 H 348.151 6.50552 -2.48505 0
M  V30 3715 H 345.778 6.97835 -3.01548 0
M  V30 3716 N 347.353 -0.0568162 1.57498 0
M  V30 3717 C 348.316 -1.05038 2.03715 0
M  V30 3718 C 349.316 -1.30709 0.936577 0
M  V30 3719 O 350.506 -1.26178 1.20103 0
M  V30 3720 C 347.638 -2.39034 2.43055 0
M  V30 3721 H 348.831 -0.651715 2.92733 0
M  V30 3722 H 346.384 -0.302947 1.53336 0
M  V30 3723 H 347.119 -2.83703 1.57108 0
M  V30 3724 H 346.904 -2.21739 3.2338 0
M  V30 3725 H 348.394 -3.10421 2.79336 0
M  V30 3726 N 348.832 -1.54138 -0.328536 0
M  V30 3727 C 349.742 -1.86192 -1.42723 0
M  V30 3728 C 350.758 -0.753382 -1.56844 0
M  V30 3729 O 351.934 -1.04718 -1.72035 0
M  V30 3730 C 348.999 -2.07824 -2.77507 0
M  V30 3731 C 348.06 -3.31641 -2.72603 0
M  V30 3732 C 347.293 -3.52232 -4.00959 0
M  V30 3733 O 347.516 -2.7636 -4.9898 0
M  V30 3734 O 346.45 -4.45699 -4.0452 0
M  V30 3735 H 350.276 -2.79608 -1.18547 0
M  V30 3736 H 347.861 -1.3998 -0.522104 0
M  V30 3737 H 349.743 -2.23411 -3.57303 0
M  V30 3738 H 348.418 -1.17596 -3.01584 0
M  V30 3739 H 347.325 -3.21444 -1.91376 0
M  V30 3740 H 348.658 -4.2191 -2.53481 0
M  V30 3741 N 350.31 0.590341 -1.46126 0
M  V30 3742 C 351.24 1.71032 -1.58966 0
M  V30 3743 C 352.221 1.64302 -0.440335 0
M  V30 3744 O 353.406 1.82436 -0.665634 0
M  V30 3745 C 350.536 3.09665 -1.57241 0
M  V30 3746 C 349.49 3.31221 -2.71066 0
M  V30 3747 C 348.816 4.70303 -2.54399 0
M  V30 3748 C 350.116 3.19796 -4.1295 0
M  V30 3749 H 351.81 1.60543 -2.52718 0
M  V30 3750 H 349.356 0.770933 -1.21625 0
M  V30 3751 H 351.309 3.87831 -1.64819 0
M  V30 3752 H 350.033 3.21036 -0.600289 0
M  V30 3753 H 348.692 2.55452 -2.62944 0
M  V30 3754 H 348.34 4.78429 -1.55288 0
M  V30 3755 H 348.04 4.85679 -3.30741 0
M  V30 3756 H 349.564 5.50647 -2.63857 0
M  V30 3757 H 350.978 3.87815 -4.22223 0
M  V30 3758 H 349.375 3.46696 -4.89818 0
M  V30 3759 H 350.445 2.16983 -4.33643 0
M  V30 3760 N 351.788 1.33704 0.83433 0
M  V30 3761 C 352.718 1.26967 1.95963 0
M  V30 3762 C 353.699 0.149337 1.69443 0
M  V30 3763 O 354.884 0.339852 1.91203 0
M  V30 3764 C 352.014 1.01275 3.32206 0
M  V30 3765 C 350.968 2.09652 3.73136 0
M  V30 3766 C 350.294 1.69166 5.07235 0
M  V30 3767 C 351.594 3.51372 3.86439 0
M  V30 3768 H 353.288 2.2112 2.01857 0
M  V30 3769 H 350.834 1.06447 0.969793 0
M  V30 3770 H 352.787 0.952106 4.10503 0
M  V30 3771 H 351.511 0.0356203 3.26581 0
M  V30 3772 H 350.17 2.14766 2.97104 0
M  V30 3773 H 349.818 0.701437 4.98085 0
M  V30 3774 H 349.518 2.41694 5.35591 0
M  V30 3775 H 351.042 1.64576 5.88003 0
M  V30 3776 H 352.456 3.48734 4.55036 0
M  V30 3777 H 350.853 4.22425 4.26236 0
M  V30 3778 H 351.923 3.89546 2.88759 0
M  V30 3779 N 353.266 -1.05314 1.17247 0
M  V30 3780 C 354.216 -2.11313 0.856196 0
M  V30 3781 C 355.2 -1.60013 -0.168694 0
M  V30 3782 O 356.392 -1.76968 0.0335624 0
M  V30 3783 C 353.521 -3.41301 0.369917 0
M  V30 3784 C 352.607 -3.99401 1.42616 0
M  V30 3785 N 352.998 -4.31481 2.63928 0
M  V30 3786 C 351.296 -4.27126 1.28373 0
M  V30 3787 C 351.997 -4.77799 3.31787 0
M  V30 3788 N 350.973 -4.77843 2.59166 0
M  V30 3789 H 354.775 -2.33976 1.77856 0
M  V30 3790 H 352.289 -1.2295 1.06099 0
M  V30 3791 H 354.286 -4.16713 0.124897 0
M  V30 3792 H 352.946 -3.20072 -0.546253 0
M  V30 3793 H 353.957 -4.21519 3.00902 0
M  V30 3794 H 350.634 -4.15289 0.429111 0
M  V30 3795 H 352.024 -5.11743 4.35395 0
M  V30 3796 N 354.744 -0.972509 -1.24016 0
M  V30 3797 C 355.676 -0.464375 -2.24446 0
M  V30 3798 C 356.689 0.4295 -1.57032 0
M  V30 3799 O 357.878 0.234902 -1.76948 0
M  V30 3800 C 354.978 0.348385 -3.37105 0
M  V30 3801 C 354.151 -0.53673 -4.34094 0
M  V30 3802 C 353.21 0.220838 -5.25736 0
M  V30 3803 O 352.236 -0.386867 -5.67884 0
M  V30 3804 N 353.438 1.50907 -5.60542 0
M  V30 3805 H 356.203 -1.32788 -2.68677 0
M  V30 3806 H 353.764 -0.844877 -1.38107 0
M  V30 3807 H 355.756 0.863341 -3.95384 0
M  V30 3808 H 354.326 1.11285 -2.92121 0
M  V30 3809 H 353.546 -1.23261 -3.74433 0
M  V30 3810 H 354.834 -1.14022 -4.95859 0
M  V30 3811 H 354.232 2.02444 -5.28236 0
M  V30 3812 H 352.789 1.96962 -6.21329 0
M  V30 3813 N 356.222 1.38976 -0.743202 0
M  V30 3814 C 357.462 2.02193 -0.29954 0
M  V30 3815 C 357.826 1.5771 1.09506 0
M  V30 3816 O 359.027 2.13184 1.63726 0
M  V30 3817 C 357.298 3.55077 -0.406822 0
M  V30 3818 S 358.857 4.38778 -0.0442109 0
M  V30 3819 H 355.675 0.701335 -0.116836 0
M  V30 3820 H 358.277 1.69651 -0.971529 0
M  V30 3821 H 356.981 3.84942 -1.42295 0
M  V30 3822 H 356.512 3.92383 0.282707 0
M  V30 3823 H 358.527 4.82222 1.16947 0
M  V30 3824 N 357.7 0.491464 1.49741 0
M  V30 3825 C 358.946 -0.0485431 2.03342 0
M  V30 3826 C 359.301 -1.35566 1.36527 0
M  V30 3827 O 358.594 -1.85262 0.488729 0
M  V30 3828 C 358.788 -0.267329 3.56399 0
M  V30 3829 C 358.617 1.01703 4.38049 0
M  V30 3830 C 357.387 1.56614 4.80417 0
M  V30 3831 C 359.585 1.91782 4.77204 0
M  V30 3832 N 357.567 2.7974 5.4646 0
M  V30 3833 C 358.938 2.99489 5.42868 0
M  V30 3834 C 360.993 1.92575 4.5915 0
M  V30 3835 C 359.696 4.08005 5.92389 0
M  V30 3836 C 361.722 3.0006 5.09626 0
M  V30 3837 C 361.084 4.06485 5.75282 0
M  V30 3838 H 357.183 0.0227779 0.781668 0
M  V30 3839 H 359.767 0.664204 1.8302 0
M  V30 3840 H 357.938 -0.949126 3.76625 0
M  V30 3841 H 359.67 -0.803492 3.96644 0
M  V30 3842 H 356.425 1.11256 4.60347 0
M  V30 3843 H 356.849 3.42323 5.84075 0
M  V30 3844 H 361.491 1.11605 4.07804 0
M  V30 3845 H 359.209 4.89779 6.42761 0
M  V30 3846 H 362.795 3.01681 4.97473 0
M  V30 3847 H 361.675 4.88287 6.13633 0
M  V30 3848 N 359.178 -1.55987 0.224894 0
M  V30 3849 C 360.088 -2.24066 -0.69511 0
M  V30 3850 C 361.104 -1.24939 -1.21104 0
M  V30 3851 O 362.28 -1.5776 -1.25195 0
M  V30 3852 C 359.345 -2.90983 -1.88493 0
M  V30 3853 C 358.406 -4.05462 -1.41064 0
M  V30 3854 C 357.639 -4.69179 -2.54375 0
M  V30 3855 O 357.862 -4.31895 -3.72589 0
M  V30 3856 O 356.796 -5.58108 -2.25386 0
M  V30 3857 H 360.622 -3.03353 -0.145149 0
M  V30 3858 H 358.207 -1.49399 -0.00569476 0
M  V30 3859 H 360.089 -3.33209 -2.57972 0
M  V30 3860 H 358.764 -2.14653 -2.42293 0
M  V30 3861 H 357.671 -3.67798 -0.683774 0
M  V30 3862 H 359.004 -4.83545 -0.918985 0
M  V30 3863 N 360.656 0.0484629 -1.57525 0
M  V30 3864 C 361.619 1.03956 -2.04269 0
M  V30 3865 C 362.619 1.30211 -0.943496 0
M  V30 3866 O 363.809 1.25539 -1.20771 0
M  V30 3867 C 360.941 2.37742 -2.44319 0
M  V30 3868 H 362.134 0.636182 -2.93075 0
M  V30 3869 H 359.687 0.294811 -1.53494 0
M  V30 3870 H 360.422 2.82866 -1.5861 0
M  V30 3871 H 360.207 2.20021 -3.24551 0
M  V30 3872 H 361.697 3.08936 -2.80978 0
M  V30 3873 N 362.134 1.5431 0.320358 0
M  V30 3874 C 363.411 1.63322 1.07635 0
M  V30 3875 C 363.791 0.46912 2.05821 0
M  V30 3876 O 363.139 -0.536274 2.22118 0
M  V30 3877 C 363.349 3.00465 1.77544 0
M  V30 3878 C 364.697 3.56621 2.30449 0
M  V30 3879 O 365.721 3.02791 1.87606 0
M  V30 3880 O 364.58 4.5083 3.08892 0
M  V30 3881 H 361.674 0.661502 0.496331 0
M  V30 3882 H 364.22 1.66656 0.319992 0
M  V30 3883 H 362.992 3.76629 1.06143 0
M  V30 3884 H 362.615 3.00824 2.59982 0
M  V30 3885 N 363.613 -0.582584 1.46437 0
M  V30 3886 C 364.576 -1.67366 1.56592 0
M  V30 3887 C 365.576 -1.54575 0.443072 0
M  V30 3888 O 366.766 -1.59191 0.707381 0
M  V30 3889 C 363.898 -3.06791 1.48634 0
M  V30 3890 H 365.091 -1.5972 2.5383 0
M  V30 3891 H 362.644 -0.800432 1.34249 0
M  V30 3892 H 363.379 -3.19993 0.526763 0
M  V30 3893 H 363.164 -3.17484 2.30101 0
M  V30 3894 H 364.654 -3.86218 1.58826 0
M  V30 3895 N 365.091 -1.34144 -0.827227 0
M  V30 3896 C 366.038 -1.25364 -1.93785 0
M  V30 3897 C 367.008 -0.129774 -1.65592 0
M  V30 3898 O 368.193 -0.310024 -1.88264 0
M  V30 3899 C 365.333 -1.01064 -3.2997 0
M  V30 3900 C 364.446 -2.22185 -3.70484 0
M  V30 3901 C 363.581 -1.91203 -4.95595 0
M  V30 3902 C 362.62 -3.08491 -5.28677 0
M  V30 3903 N 361.757 -2.77421 -6.44967 0
M  V30 3904 H 366.597 -2.20347 -2.00627 0
M  V30 3905 H 364.134 -1.09558 -0.981608 0
M  V30 3906 H 366.092 -0.850139 -4.08446 0
M  V30 3907 H 364.722 -0.0975026 -3.22653 0
M  V30 3908 H 363.774 -2.4917 -2.87434 0
M  V30 3909 H 365.086 -3.0983 -3.90905 0
M  V30 3910 H 364.24 -1.71864 -5.81848 0
M  V30 3911 H 362.979 -1.00812 -4.77167 0
M  V30 3912 H 361.984 -3.28431 -4.40923 0
M  V30 3913 H 363.209 -3.99655 -5.49047 0
M  V30 3914 H 361.155 -1.89601 -6.28003 0
M  V30 3915 H 361.072 -3.58598 -6.6554 0
M  V30 3916 H 362.34 -2.61577 -7.34301 0
M  V30 3917 N 366.569 1.04691 -1.17803 0
M  V30 3918 C 367.516 2.12557 -0.899343 0
M  V30 3919 C 368.486 1.65339 0.158771 0
M  V30 3920 O 369.671 1.90789 0.0204797 0
M  V30 3921 C 366.811 3.42481 -0.424315 0
M  V30 3922 C 365.924 4.03346 -1.54713 0
M  V30 3923 C 365.059 5.21208 -1.02546 0
M  V30 3924 C 364.098 5.74089 -2.12339 0
M  V30 3925 N 363.235 6.83247 -1.61612 0
M  V30 3926 H 368.075 2.35734 -1.823 0
M  V30 3927 H 365.612 1.1564 -0.909159 0
M  V30 3928 H 367.57 4.16996 -0.130421 0
M  V30 3929 H 366.2 3.19471 0.462377 0
M  V30 3930 H 365.252 3.2622 -1.95664 0
M  V30 3931 H 366.564 4.38628 -2.37501 0
M  V30 3932 H 365.718 6.02812 -0.685718 0
M  V30 3933 H 364.457 4.87414 -0.167084 0
M  V30 3934 H 363.462 4.91111 -2.47165 0
M  V30 3935 H 364.687 6.0993 -2.98601 0
M  V30 3936 H 362.633 6.5134 -0.780533 0
M  V30 3937 H 362.55 7.17559 -2.38003 0
M  V30 3938 H 363.818 7.68491 -1.30545 0
M  V30 3939 N 368.047 0.979072 1.23499 0
M  V30 3940 C 369.463 0.687475 1.44034 0
M  V30 3941 C 369.663 -0.746801 1.8715 0
M  V30 3942 O 368.719 -1.51939 2.0167 0
M  V30 3943 C 370.032 1.68127 2.49307 0
M  V30 3944 C 371.58 1.69516 2.63122 0
M  V30 3945 C 372.055 2.67723 3.71603 0
M  V30 3946 N 373.546 2.66233 3.79044 0
M  V30 3947 C 374.281 3.38891 4.62537 0
M  V30 3948 N 373.777 4.21103 5.50131 0
M  V30 3949 N 375.57 3.27661 4.56721 0
M  V30 3950 H 367.721 1.90559 0.938135 0
M  V30 3951 H 369.984 0.821051 0.473897 0
M  V30 3952 H 369.69 2.70693 2.2454 0
M  V30 3953 H 369.564 1.46306 3.4767 0
M  V30 3954 H 371.951 0.676561 2.8724 0
M  V30 3955 H 372.032 1.95404 1.65079 0
M  V30 3956 H 371.676 3.69724 3.48233 0
M  V30 3957 H 371.606 2.39111 4.69184 0
M  V30 3958 H 374.097 2.06568 3.16446 0
M  V30 3959 H 374.41 4.73403 6.10827 0
M  V30 3960 H 372.755 4.25195 5.49759 0
M  V30 3961 H 375.946 2.62887 3.87309 0
M  V30 3962 H 376.119 3.84547 5.21562 0
M  V30 3963 N 369.525 -1.3858 0.750561 0
M  V30 3964 C 370.936 -1.82927 0.373438 0
M  V30 3965 C 371.287 -1.62634 -1.09748 0
M  V30 3966 O 370.412 -1.12588 -1.84805 0
M  V30 3967 C 371.007 -3.32088 0.671029 0
M  V30 3968 C 369.566 -3.74795 0.34722 0
M  V30 3969 C 368.713 -2.61391 0.92575 0
M  V30 3970 H 371.664 -1.27351 0.946958 0
M  V30 3971 H 371.685 -3.80465 -0.0518269 0
M  V30 3972 H 371.197 -3.46826 1.74164 0
M  V30 3973 H 369.298 -3.65638 -0.716933 0
M  V30 3974 H 369.411 -4.71667 0.840656 0
M  V30 3975 H 367.775 -2.52265 0.351327 0
M  V30 3976 H 368.558 -2.78929 2.00133 0
M  V30 3977 N 371.003 -0.499398 -1.49478 0
M  V30 3978 C 372.228 0.044722 -2.07352 0
M  V30 3979 C 372.653 1.30207 -1.35749 0
M  V30 3980 O 372.011 1.76516 -0.413732 0
M  V30 3981 C 372.059 0.283013 -3.59488 0
M  V30 3982 O 371.163 1.35804 -3.89398 0
M  V30 3983 H 370.504 -0.0255147 -0.66351 0
M  V30 3984 H 373.034 -0.698561 -1.92305 0
M  V30 3985 H 373.044 0.515007 -4.04737 0
M  V30 3986 H 371.719 -0.635636 -4.11014 0
M  V30 3987 H 370.296 1.11113 -3.55961 0
M  V30 3988 N 372.481 1.55866 -0.233164 0
M  V30 3989 C 373.728 1.98603 0.395374 0
M  V30 3990 C 374.056 1.12105 1.58942 0
M  V30 3991 O 373.311 0.168656 1.94972 0
M  V30 3992 C 373.61 3.46856 0.861724 0
M  V30 3993 C 373.276 4.50348 -0.223066 0
M  V30 3994 C 371.938 4.78371 -0.521038 0
M  V30 3995 C 374.29 5.12355 -0.956124 0
M  V30 3996 C 371.618 5.6568 -1.55638 0
M  V30 3997 C 373.97 6.00786 -1.98089 0
M  V30 3998 C 372.634 6.27148 -2.28565 0
M  V30 3999 H 371.904 0.726739 0.144677 0
M  V30 4000 H 374.551 1.88491 -0.338114 0
M  V30 4001 H 372.856 3.5423 1.67418 0
M  V30 4002 H 374.553 3.77302 1.35809 0
M  V30 4003 H 371.143 4.28596 0.0193234 0
M  V30 4004 H 375.327 4.90765 -0.739166 0
M  V30 4005 H 370.583 5.84365 -1.798 0
M  V30 4006 H 374.757 6.4788 -2.55391 0
M  V30 4007 H 372.384 6.94597 -3.08932 0
M  V30 4008 N 373.959 -0.0401083 1.57549 0
M  V30 4009 C 374.906 -1.04413 2.05831 0
M  V30 4010 C 375.876 -1.36585 0.945184 0
M  V30 4011 O 377.061 -1.47112 1.21502 0
M  V30 4012 C 374.201 -2.34336 2.53339 0
M  V30 4013 C 373.314 -2.08419 3.78398 0
M  V30 4014 C 372.449 -3.32133 4.14561 0
M  V30 4015 C 371.488 -3.01721 5.3257 0
M  V30 4016 N 370.625 -4.17855 5.64218 0
M  V30 4017 H 375.465 -0.625442 2.91363 0
M  V30 4018 H 373.002 -0.297218 1.44066 0
M  V30 4019 H 374.96 -3.10234 2.78946 0
M  V30 4020 H 373.59 -2.73948 1.7074 0
M  V30 4021 H 372.642 -1.23069 3.59942 0
M  V30 4022 H 373.954 -1.81978 4.64419 0
M  V30 4023 H 373.108 -4.16406 4.41238 0
M  V30 4024 H 371.847 -3.61678 3.2717 0
M  V30 4025 H 370.852 -2.15849 5.05657 0
M  V30 4026 H 372.077 -2.73466 6.21605 0
M  V30 4027 H 370.023 -4.47372 4.79786 0
M  V30 4028 H 369.94 -3.94798 6.44725 0
M  V30 4029 H 371.208 -5.03033 5.95465 0
M  V30 4030 N 375.437 -1.54477 -0.31217 0
M  V30 4031 C 376.369 -1.81011 -1.40598 0
M  V30 4032 C 377.382 -0.692546 -1.47335 0
M  V30 4033 O 378.571 -0.969847 -1.49854 0
M  V30 4034 C 375.671 -1.92307 -2.79054 0
M  V30 4035 C 374.844 -3.22594 -2.95384 0
M  V30 4036 C 373.903 -3.24448 -4.1427 0
M  V30 4037 O 372.929 -3.98035 -4.06887 0
M  V30 4038 N 374.131 -2.49042 -5.24365 0
M  V30 4039 H 376.896 -2.75408 -1.18196 0
M  V30 4040 H 374.457 -1.53914 -0.502202 0
M  V30 4041 H 376.449 -1.90962 -3.56813 0
M  V30 4042 H 375.019 -1.04955 -2.94454 0
M  V30 4043 H 374.239 -3.36806 -2.04831 0
M  V30 4044 H 375.527 -4.08593 -3.03198 0
M  V30 4045 H 374.925 -1.88867 -5.33241 0
M  V30 4046 H 373.482 -2.53463 -6.005 0
M  V30 4047 N 376.915 0.57481 -1.46744 0
M  V30 4048 C 378.164 1.32898 -1.51727 0
M  V30 4049 C 378.477 1.948 -0.176692 0
M  V30 4050 O 379.683 2.71299 -0.104385 0
M  V30 4051 C 378.139 2.40901 -2.67385 0
M  V30 4052 C 377.747 1.85266 -4.07898 0
M  V30 4053 C 379.491 3.17609 -2.81646 0
M  V30 4054 C 377.398 2.90945 -5.14883 0
M  V30 4055 H 376.328 0.499631 -0.564699 0
M  V30 4056 H 378.979 0.612536 -1.72975 0
M  V30 4057 H 377.361 3.15379 -2.39483 0
M  V30 4058 H 378.535 1.17278 -4.45626 0
M  V30 4059 H 376.85 1.21199 -3.98371 0
M  V30 4060 H 379.447 3.96493 -3.58744 0
M  V30 4061 H 379.79 3.70696 -1.89448 0
M  V30 4062 H 380.323 2.50239 -3.09233 0
M  V30 4063 H 377.062 2.42736 -6.089 0
M  V30 4064 H 376.582 3.57398 -4.81691 0
M  V30 4065 H 378.261 3.54755 -5.41071 0
M  V30 4066 N 378.394 1.34581 0.820102 0
M  V30 4067 C 379.643 1.26437 1.57151 0
M  V30 4068 C 379.956 -0.163111 1.94919 0
M  V30 4069 O 381.162 -0.366722 2.69012 0
M  V30 4070 C 379.618 2.21658 2.83541 0
M  V30 4071 C 379.226 3.69679 2.53065 0
M  V30 4072 C 380.97 2.22428 3.61561 0
M  V30 4073 C 378.877 4.56761 3.75664 0
M  V30 4074 H 377.807 0.469707 0.589823 0
M  V30 4075 H 380.458 1.59763 0.902656 0
M  V30 4076 H 378.84 1.81287 3.52067 0
M  V30 4077 H 380.014 4.18605 1.92631 0
M  V30 4078 H 378.329 3.71384 1.88316 0
M  V30 4079 H 380.926 2.8471 4.52597 0
M  V30 4080 H 381.269 1.22434 3.97889 0
M  V30 4081 H 381.802 2.61259 2.99981 0
M  V30 4082 H 378.541 5.57702 3.44454 0
M  V30 4083 H 378.061 4.12568 4.35371 0
M  V30 4084 H 379.74 4.71509 4.43044 0
M  V30 4085 N 379.872 -1.04064 1.18357 0
M  V30 4086 C 381.097 -1.81454 1.00445 0
M  V30 4087 C 381.522 -1.82823 -0.442423 0
M  V30 4088 O 380.88 -1.24555 -1.31741 0
M  V30 4089 C 380.928 -3.24925 1.56384 0
M  V30 4090 O 380.032 -4.04856 0.785209 0
M  V30 4091 H 379.373 -0.560604 0.355835 0
M  V30 4092 H 381.903 -1.31059 1.57114 0
M  V30 4093 H 381.913 -3.75702 1.59097 0
M  V30 4094 H 380.588 -3.23244 2.61699 0
M  V30 4095 H 379.165 -3.63537 0.830399 0
M  V30 4096 N 381.35 -0.985608 -1.22978 0
M  V30 4097 C 382.599 -0.652881 -1.90841 0
M  V30 4098 C 382.912 0.817842 -1.77681 0
M  V30 4099 O 384.118 1.26185 -2.40395 0
M  V30 4100 C 382.574 -1.11717 -3.42122 0
M  V30 4101 C 382.182 -2.6126 -3.63933 0
M  V30 4102 C 383.926 -0.85843 -4.1573 0
M  V30 4103 C 381.833 -3.0133 -5.08876 0
M  V30 4104 H 380.763 -0.240491 -0.714619 0
M  V30 4105 H 383.414 -1.1942 -1.39324 0
M  V30 4106 H 381.796 -0.504027 -3.92779 0
M  V30 4107 H 382.97 -3.27858 -3.23799 0
M  V30 4108 H 381.285 -2.84937 -3.03644 0
M  V30 4109 H 383.882 -1.13359 -5.22546 0
M  V30 4110 H 384.225 0.205461 -4.15793 0
M  V30 4111 H 384.758 -1.43341 -3.71077 0
M  V30 4112 H 381.497 -4.06864 -5.13947 0
M  V30 4113 H 381.017 -2.3943 -5.49939 0
M  V30 4114 H 382.696 -2.92224 -5.77247 0
M  V30 4115 N 382.828 1.3818 -0.7579 0
M  V30 4116 C 383.758 2.33027 -0.148597 0
M  V30 4117 C 384.739 1.55085 0.69875 0
M  V30 4118 O 385.924 1.83384 0.639053 0
M  V30 4119 C 383.054 3.3928 0.742034 0
M  V30 4120 C 382.008 4.28 -0.00291946 0
M  V30 4121 C 381.334 5.25146 1.00625 0
M  V30 4122 C 382.634 5.08938 -1.17385 0
M  V30 4123 H 384.328 2.84231 -0.940909 0
M  V30 4124 H 381.874 1.36659 -0.453908 0
M  V30 4125 H 383.827 4.046 1.17799 0
M  V30 4126 H 382.551 2.86569 1.56671 0
M  V30 4127 H 381.21 3.64192 -0.419504 0
M  V30 4128 H 380.858 4.68721 1.8251 0
M  V30 4129 H 380.558 5.85361 0.512428 0
M  V30 4130 H 382.082 5.93342 1.44143 0
M  V30 4131 H 383.496 5.67474 -0.815224 0
M  V30 4132 H 381.893 5.7841 -1.59882 0
M  V30 4133 H 382.963 4.42424 -1.98468 0
M  V30 4134 N 384.306 0.507319 1.49211 0
M  V30 4135 C 385.216 -0.272136 2.33016 0
M  V30 4136 C 386.232 -0.961206 1.45041 0
M  V30 4137 O 387.408 -0.941191 1.78055 0
M  V30 4138 C 384.473 -1.31895 3.20631 0
M  V30 4139 C 383.534 -0.642648 4.24463 0
M  V30 4140 C 382.767 -1.63959 5.07891 0
M  V30 4141 O 382.99 -2.87007 4.92933 0
M  V30 4142 O 381.924 -1.19143 5.8999 0
M  V30 4143 H 385.75 0.413982 3.00865 0
M  V30 4144 H 383.335 0.268556 1.46966 0
M  V30 4145 H 385.217 -1.92446 3.7489 0
M  V30 4146 H 383.892 -1.98788 2.5547 0
M  V30 4147 H 382.799 0.00276252 3.741 0
M  V30 4148 H 384.132 -0.0160534 4.92197 0
M  V30 4149 N 385.784 -1.5574 0.241426 0
M  V30 4150 C 387.009 -2.0366 -0.392111 0
M  V30 4151 C 387.434 -1.11969 -1.51144 0
M  V30 4152 O 386.792 -0.111594 -1.80956 0
M  V30 4153 C 386.84 -3.49638 -0.882371 0
M  V30 4154 O 385.944 -3.6108 -1.99235 0
M  V30 4155 H 385.285 -0.658379 -0.0862122 0
M  V30 4156 H 387.815 -2.01302 0.365881 0
M  V30 4157 H 387.825 -3.90351 -1.18702 0
M  V30 4158 H 386.5 -4.15852 -0.0632361 0
M  V30 4159 H 385.077 -3.32262 -1.69282 0
M  V30 4160 N 387.262 0.0317525 -1.57568 0
M  V30 4161 C 388.195 1.06621 -2.0176 0
M  V30 4162 C 389.173 1.35323 -0.901462 0
M  V30 4163 O 390.357 1.48025 -1.16708 0
M  V30 4164 C 387.484 2.40155 -2.38837 0
M  V30 4165 C 386.53 2.27327 -3.60867 0
M  V30 4166 S 387.363 1.62925 -5.10113 0
M  V30 4167 C 388.519 2.97955 -5.5043 0
M  V30 4168 H 388.752 0.689781 -2.89187 0
M  V30 4169 H 386.285 0.24164 -1.52497 0
M  V30 4170 H 388.243 3.1695 -2.6087 0
M  V30 4171 H 386.904 2.74946 -1.51867 0
M  V30 4172 H 386.097 3.25898 -3.84456 0
M  V30 4173 H 385.699 1.58675 -3.38671 0
M  V30 4174 H 387.991 3.94285 -5.5095 0
M  V30 4175 H 388.934 2.79102 -6.50775 0
M  V30 4176 H 389.342 3.00404 -4.77931 0
M  V30 4177 N 388.74 1.54641 0.303973 0
M  V30 4178 C 389.965 1.78092 1.06292 0
M  V30 4179 C 390.39 0.537342 1.80262 0
M  V30 4180 O 389.748 -0.511993 1.7392 0
M  V30 4181 C 389.796 2.98612 2.02147 0
M  V30 4182 O 388.9 2.71528 3.10397 0
M  V30 4183 H 388.241 0.589548 0.305497 0
M  V30 4184 H 390.771 2.01716 0.3423 0
M  V30 4185 H 390.781 3.265 2.44667 0
M  V30 4186 H 389.456 3.88785 1.47714 0
M  V30 4187 H 388.033 2.54648 2.72413 0
M  V30 4188 N 390.218 -0.567019 1.47046 0
M  V30 4189 C 391.166 -1.69593 1.59188 0
M  V30 4190 C 392.16 -1.63046 0.459609 0
M  V30 4191 O 393.366 -1.6835 0.637058 0
M  V30 4192 H 389.741 -0.560993 0.500791 0
M  V30 4193 H 391.712 -1.56488 2.54075 0
M  V30 4194 C 390.461 -3.07964 1.61411 0
M  V30 4195 H 389.784 -3.13679 2.47881 0
M  V30 4196 H 391.224 -3.86671 1.73958 0
M  V30 4197 C 389.683 -3.35123 0.34559 0
M  V30 4198 O 390.213 -3.97812 -0.557521 0
M  V30 4199 N 388.419 -2.89699 0.22864 0
M  V30 4200 H 387.966 -2.38863 0.964479 0
M  V30 4201 H 387.924 -3.08242 -0.619192 0
M  V30 4202 N 391.696 -1.35014 -0.812953 0
M  V30 4203 C 392.973 -1.18502 -1.55617 0
M  V30 4204 C 393.353 0.238421 -2.09749 0
M  V30 4205 O 392.701 1.2411 -1.91857 0
M  V30 4206 C 392.911 -2.24783 -2.66971 0
M  V30 4207 C 394.259 -2.60268 -3.35478 0
M  V30 4208 O 395.283 -2.23648 -2.77236 0
M  V30 4209 O 394.142 -3.2321 -4.40678 0
M  V30 4210 H 391.236 -0.459984 -0.687272 0
M  V30 4211 H 393.782 -1.46677 -0.853464 0
M  V30 4212 H 392.554 -3.20284 -2.24798 0
M  V30 4213 H 392.177 -1.97841 -3.44884 0
M  V30 4214 N 393.175 1.03435 -1.18907 0
M  V30 4215 C 394.403 1.80381 -1.01342 0
M  V30 4216 C 394.818 1.83649 0.438005 0
M  V30 4217 O 394.175 1.27655 1.30424 0
M  V30 4218 C 394.226 3.25689 -1.56873 0
M  V30 4219 O 393.947 3.22673 -2.96334 0
M  V30 4220 C 395.448 4.19255 -1.44014 0
M  V30 4221 H 392.668 0.56784 -0.35749 0
M  V30 4222 H 395.212 1.30317 -1.576 0
M  V30 4223 H 393.367 3.72962 -1.04777 0
M  V30 4224 H 393.781 4.13748 -3.22355 0
M  V30 4225 H 395.255 5.19123 -1.87657 0
M  V30 4226 H 395.732 4.37467 -0.389815 0
M  V30 4227 H 396.338 3.77851 -1.95214 0
M  V30 4228 N 394.653 0.992116 1.22453 0
M  V30 4229 C 395.878 0.685644 1.95739 0
M  V30 4230 C 396.303 -0.743 1.72804 0
M  V30 4231 O 395.661 -1.50778 1.00676 0
M  V30 4232 C 395.709 0.996293 3.46564 0
M  V30 4233 O 394.813 0.0945512 4.12292 0
M  V30 4234 H 394.154 0.256694 0.612376 0
M  V30 4235 H 396.684 1.32888 1.5557 0
M  V30 4236 H 396.694 0.93781 3.97076 0
M  V30 4237 H 395.369 2.03733 3.62582 0
M  V30 4238 H 393.946 0.208451 3.72317 0
M  V30 4239 N 396.131 -1.37776 0.765217 0
M  V30 4240 C 397.061 -2.32945 0.160953 0
M  V30 4241 C 398.042 -1.55454 -0.690516 0
M  V30 4242 O 399.227 -1.83721 -0.629318 0
M  V30 4243 C 396.357 -3.39669 -0.724031 0
M  V30 4244 C 395.311 -4.27992 0.0256173 0
M  V30 4245 C 394.637 -5.25673 -0.978383 0
M  V30 4246 C 395.937 -5.08309 1.20082 0
M  V30 4247 H 397.631 -2.83728 0.955969 0
M  V30 4248 H 395.177 -1.36416 0.461149 0
M  V30 4249 H 397.13 -4.05219 -1.15652 0
M  V30 4250 H 395.854 -2.87396 -1.5515 0
M  V30 4251 H 394.513 -3.63964 0.438812 0
M  V30 4252 H 394.161 -4.69682 -1.80022 0
M  V30 4253 H 393.861 -5.85625 -0.481378 0
M  V30 4254 H 395.385 -5.94098 -1.40995 0
M  V30 4255 H 396.799 -5.67034 0.845307 0
M  V30 4256 H 395.196 -5.77554 1.62947 0
M  V30 4257 H 396.266 -4.41365 2.00811 0
M  V30 4258 N 397.609 -0.515225 -1.4894 0
M  V30 4259 C 399.02 -0.0710067 -1.86565 0
M  V30 4260 C 399.371 1.34733 -1.42623 0
M  V30 4261 O 398.496 2.00653 -0.810379 0
M  V30 4262 C 399.091 -0.122083 -3.3858 0
M  V30 4263 C 397.65 0.266863 -3.75453 0
M  V30 4264 C 396.797 -0.488376 -2.72966 0
M  V30 4265 H 399.748 -0.727266 -1.41055 0
M  V30 4266 H 399.769 0.669818 -3.74558 0
M  V30 4267 H 399.281 -1.15448 -3.70531 0
M  V30 4268 H 397.382 1.30196 -3.49113 0
M  V30 4269 H 397.495 -0.0624811 -4.79059 0
M  V30 4270 H 395.859 0.0635622 -2.54621 0
M  V30 4271 H 396.642 -1.52113 -3.07761 0
M  V30 4272 N 399.087 1.5561 -0.249682 0
M  V30 4273 C 400.364 1.90932 0.424761 0
M  V30 4274 C 400.744 1.17078 1.75658 0
M  V30 4275 O 400.092 0.289176 2.26663 0
M  V30 4276 C 400.302 3.43975 0.590109 0
M  V30 4277 C 401.65 4.15281 0.884714 0
M  V30 4278 O 402.674 3.49729 0.67587 0
M  V30 4279 O 401.533 5.31236 1.28259 0
M  V30 4280 H 398.627 0.794815 0.228468 0
M  V30 4281 H 401.173 1.67135 -0.293954 0
M  V30 4282 H 399.945 3.89748 -0.34818 0
M  V30 4283 H 399.568 3.73644 1.35926 0
M  V30 4284 N 400.565 -0.0233959 1.57583 0
M  V30 4285 C 401.512 -1.02224 2.06927 0
M  V30 4286 C 402.482 -1.35575 0.959617 0
M  V30 4287 O 403.667 -1.45815 1.23055 0
M  V30 4288 C 400.807 -2.31636 2.5581 0
M  V30 4289 C 399.92 -2.04394 3.80588 0
M  V30 4290 C 399.055 -3.27717 4.18061 0
M  V30 4291 C 398.094 -2.96056 5.3574 0
M  V30 4292 N 397.231 -4.11847 5.68618 0
M  V30 4293 H 402.071 -0.594504 2.9201 0
M  V30 4294 H 399.608 -0.281921 1.44373 0
M  V30 4295 H 401.566 -3.07258 2.82221 0
M  V30 4296 H 400.196 -2.72122 1.73636 0
M  V30 4297 H 399.248 -1.19244 3.61227 0
M  V30 4298 H 400.56 -1.77042 4.66323 0
M  V30 4299 H 399.714 -4.11702 4.4563 0
M  V30 4300 H 398.453 -3.58188 3.30988 0
M  V30 4301 H 397.458 -2.10474 5.07918 0
M  V30 4302 H 398.683 -2.66857 6.24471 0
M  V30 4303 H 396.629 -4.42258 4.84504 0
M  V30 4304 H 396.546 -3.87938 6.48876 0
M  V30 4305 H 397.814 -4.96689 6.00766 0
M  V30 4306 N 402.043 -1.548 -0.295768 0
M  V30 4307 C 403.283 -1.76069 -1.03823 0
M  V30 4308 C 403.647 -0.537992 -1.84309 0
M  V30 4309 O 404.848 -0.628514 -2.61349 0
M  V30 4310 C 403.119 -3.01705 -1.91596 0
M  V30 4311 S 404.678 -3.43998 -2.72416 0
M  V30 4312 H 401.496 -0.618852 -0.350062 0
M  V30 4313 H 404.098 -1.93009 -0.31106 0
M  V30 4314 H 402.802 -3.88812 -1.31351 0
M  V30 4315 H 402.333 -2.87366 -2.68671 0
M  V30 4316 H 404.348 -3.0148 -3.94112 0
M  V30 4317 N 403.521 0.559213 -1.47345 0
M  V30 4318 C 404.469 1.68747 -1.60085 0
M  V30 4319 C 405.463 1.628 -0.46825 0
M  V30 4320 O 406.669 1.68009 -0.645977 0
M  V30 4321 H 403.044 0.558329 -0.503759 0
M  V30 4322 H 405.015 1.55138 -2.54902 0
M  V30 4323 C 403.764 3.07103 -1.63042 0
M  V30 4324 H 403.087 3.12361 -2.49541 0
M  V30 4325 H 404.527 3.85743 -1.76006 0
M  V30 4326 C 402.986 3.34935 -0.363357 0
M  V30 4327 O 403.516 3.98102 0.536416 0
M  V30 4328 N 401.722 2.89574 -0.244 0
M  V30 4329 H 401.269 2.38348 -0.977133 0
M  V30 4330 H 401.227 3.08566 0.602836 0
M  V30 4331 N 404.999 1.35443 0.805782 0
M  V30 4332 C 406.224 1.32037 1.59941 0
M  V30 4333 C 406.649 -0.0994215 1.87837 0
M  V30 4334 O 406.007 -1.06648 1.46615 0
M  V30 4335 C 406.055 2.13354 2.90711 0
M  V30 4336 O 405.159 1.5148 3.83572 0
M  V30 4337 H 404.5 0.452666 0.485787 0
M  V30 4338 H 407.03 1.78496 1.00002 0
M  V30 4339 H 407.04 2.25338 3.40128 0
M  V30 4340 H 405.715 3.16572 2.69732 0
M  V30 4341 H 404.292 1.4834 3.42125 0
M  V30 4342 N 406.477 -1.02803 1.19454 0
M  V30 4343 C 407.724 -1.76217 0.997693 0
M  V30 4344 C 408.052 -1.887 -0.47144 0
M  V30 4345 O 407.307 -1.4011 -1.3663 0
M  V30 4346 C 407.606 -3.18941 1.6128 0
M  V30 4347 C 407.272 -3.26463 3.11019 0
M  V30 4348 C 405.934 -3.28223 3.51885 0
M  V30 4349 C 408.286 -3.25542 4.07028 0
M  V30 4350 C 405.614 -3.26719 4.8731 0
M  V30 4351 C 407.966 -3.25579 5.42385 0
M  V30 4352 C 406.63 -3.25637 5.82681 0
M  V30 4353 H 405.9 -0.644823 0.365082 0
M  V30 4354 H 408.547 -1.20655 1.4871 0
M  V30 4355 H 406.852 -3.77587 1.04572 0
M  V30 4356 H 408.549 -3.74415 1.43577 0
M  V30 4357 H 405.139 -3.25822 2.78457 0
M  V30 4358 H 409.323 -3.23362 3.76498 0
M  V30 4359 H 404.579 -3.25089 5.1781 0
M  V30 4360 H 408.753 -3.23817 6.16535 0
M  V30 4361 H 406.38 -3.24226 6.87591 0
M  V30 4362 N 407.956 -0.998596 -1.21925 0
M  V30 4363 C 408.886 -0.573688 -2.26343 0
M  V30 4364 C 409.867 0.402296 -1.65274 0
M  V30 4365 O 411.052 0.291683 -1.91997 0
M  V30 4366 C 408.182 0.106839 -3.47136 0
M  V30 4367 C 407.136 -0.788269 -4.20678 0
M  V30 4368 C 406.462 0.0254927 -5.34694 0
M  V30 4369 C 407.762 -2.08784 -4.78755 0
M  V30 4370 H 409.456 -1.44651 -2.62138 0
M  V30 4371 H 407.002 -0.696975 -1.26009 0
M  V30 4372 H 408.955 0.415531 -4.19346 0
M  V30 4373 H 407.679 1.01424 -3.10452 0
M  V30 4374 H 406.338 -1.08069 -3.50309 0
M  V30 4375 H 405.986 0.933989 -4.94253 0
M  V30 4376 H 405.686 -0.570437 -5.84825 0
M  V30 4377 H 407.21 0.328147 -6.09718 0
M  V30 4378 H 408.624 -1.84272 -5.42878 0
M  V30 4379 H 407.021 -2.63307 -5.39249 0
M  V30 4380 H 408.091 -2.76284 -3.98491 0
M  V30 4381 N 409.434 1.37368 -0.772513 0
M  V30 4382 C 410.384 2.27613 -0.132823 0
M  V30 4383 C 411.368 1.46138 0.673247 0
M  V30 4384 O 412.56 1.68686 0.536095 0
M  V30 4385 C 409.689 3.35122 0.744864 0
M  V30 4386 C 408.775 4.24044 -0.0690771 0
M  V30 4387 N 409.166 4.93355 -1.1151 0
M  V30 4388 C 407.464 4.45731 0.154782 0
M  V30 4389 C 408.165 5.59 -1.60917 0
M  V30 4390 N 407.141 5.35737 -0.921222 0
M  V30 4391 H 410.943 2.78675 -0.933681 0
M  V30 4392 H 408.457 1.50494 -0.610342 0
M  V30 4393 H 410.454 3.98683 1.21892 0
M  V30 4394 H 409.114 2.85616 1.54446 0
M  V30 4395 H 410.125 4.95785 -1.49726 0
M  V30 4396 H 406.802 4.07096 0.926224 0
M  V30 4397 H 408.192 6.24395 -2.48153 0
M  V30 4398 N 410.912 0.523116 1.48665 0
M  V30 4399 C 411.86 -0.256859 2.31177 0
M  V30 4400 C 412.854 -0.94199 1.40794 0
M  V30 4401 O 414.06 -0.867157 1.57735 0
M  V30 4402 H 410.435 -0.1017 0.745091 0
M  V30 4403 H 412.406 0.458739 2.94853 0
M  V30 4404 C 411.155 -1.29503 3.22683 0
M  V30 4405 H 410.478 -0.777248 3.92172 0
M  V30 4406 H 411.918 -1.81233 3.83315 0
M  V30 4407 C 410.377 -2.32501 2.43813 0
M  V30 4408 O 410.907 -3.3881 2.15803 0
M  V30 4409 N 409.113 -2.05538 2.05432 0
M  V30 4410 H 408.66 -1.19104 2.28412 0
M  V30 4411 H 408.618 -2.74676 1.52973 0
M  V30 4412 N 412.39 -1.55475 0.257931 0
M  V30 4413 C 413.337 -2.21837 -0.636939 0
M  V30 4414 C 414.307 -1.18596 -1.16294 0
M  V30 4415 O 415.492 -1.47081 -1.21539 0
M  V30 4416 C 412.632 -2.9301 -1.82317 0
M  V30 4417 C 411.745 -4.10931 -1.33265 0
M  V30 4418 C 410.88 -4.69791 -2.47931 0
M  V30 4419 C 409.919 -5.7994 -1.95796 0
M  V30 4420 N 409.056 -6.32935 -3.0387 0
M  V30 4421 H 413.896 -2.9793 -0.0643591 0
M  V30 4422 H 411.433 -1.47086 -0.0200031 0
M  V30 4423 H 413.391 -3.3248 -2.52018 0
M  V30 4424 H 412.021 -2.1937 -2.36805 0
M  V30 4425 H 411.073 -3.76699 -0.52931 0
M  V30 4426 H 412.385 -4.90417 -0.910654 0
M  V30 4427 H 411.539 -5.11892 -3.25656 0
M  V30 4428 H 410.278 -3.89545 -2.93438 0
M  V30 4429 H 409.283 -5.37305 -1.16546 0
M  V30 4430 H 410.508 -6.62043 -1.51246 0
M  V30 4431 H 408.454 -5.55591 -3.48791 0
M  V30 4432 H 408.371 -7.07645 -2.66035 0
M  V30 4433 H 409.639 -6.79695 -3.81621 0
M  V30 4434 N 413.868 0.0150385 -1.57593 0
M  V30 4435 C 414.831 0.995996 -2.06428 0
M  V30 4436 C 415.831 1.2818 -0.970903 0
M  V30 4437 O 417.021 1.22949 -1.23406 0
M  V30 4438 C 414.153 2.32506 -2.49307 0
M  V30 4439 H 415.346 0.573873 -2.94358 0
M  V30 4440 H 412.899 0.262186 -1.54085 0
M  V30 4441 H 413.634 2.79438 -1.64575 0
M  V30 4442 H 413.419 2.13087 -3.29145 0
M  V30 4443 H 414.909 3.02906 -2.87468 0
M  V30 4444 N 415.346 1.54954 0.287554 0
M  V30 4445 C 416.256 1.8991 1.37736 0
M  V30 4446 C 417.272 0.794701 1.54792 0
M  V30 4447 O 418.448 1.09243 1.69198 0
M  V30 4448 C 415.513 2.15108 2.71899 0
M  V30 4449 C 414.574 3.38752 2.63715 0
M  V30 4450 C 413.807 3.62739 3.91479 0
M  V30 4451 O 414.03 2.89492 4.91478 0
M  V30 4452 O 412.964 4.56267 3.92561 0
M  V30 4453 H 416.79 2.82652 1.11092 0
M  V30 4454 H 414.375 1.41315 0.484807 0
M  V30 4455 H 416.257 2.32806 3.51254 0
M  V30 4456 H 414.932 1.25551 2.9836 0
M  V30 4457 H 413.839 3.26405 1.82786 0
M  V30 4458 H 415.172 4.28483 2.42205 0
M  V30 4459 N 416.824 -0.551391 1.4764 0
M  V30 4460 C 418.07 -1.30789 1.55774 0
M  V30 4461 C 418.425 -1.91143 0.219562 0
M  V30 4462 O 417.718 -1.7521 -0.775375 0
M  V30 4463 C 417.912 -2.43469 2.61644 0
M  V30 4464 C 417.741 -1.94157 4.05627 0
M  V30 4465 C 416.511 -1.77734 4.7301 0
M  V30 4466 C 418.709 -1.48262 4.92466 0
M  V30 4467 N 416.691 -1.22823 6.01488 0
M  V30 4468 C 418.062 -1.05156 6.11017 0
M  V30 4469 C 420.117 -1.36367 4.78862 0
M  V30 4470 C 418.82 -0.513357 7.17466 0
M  V30 4471 C 420.846 -0.839484 5.85411 0
M  V30 4472 C 420.208 -0.418377 7.03156 0
M  V30 4473 H 416.307 -0.470406 0.624694 0
M  V30 4474 H 418.891 -0.624331 1.84419 0
M  V30 4475 H 417.062 -3.09348 2.34859 0
M  V30 4476 H 418.794 -3.10477 2.59589 0
M  V30 4477 H 415.549 -2.00623 4.29007 0
M  V30 4478 H 415.973 -0.974393 6.69951 0
M  V30 4479 H 420.615 -1.67535 3.88191 0
M  V30 4480 H 418.333 -0.189318 8.07878 0
M  V30 4481 H 421.919 -0.750921 5.76934 0
M  V30 4482 H 420.799 -0.0190538 7.84198 0
M  V30 4483 N 418.302 -1.35869 -0.798587 0
M  V30 4484 C 419.718 -1.16082 -1.09532 0
M  V30 4485 C 419.918 0.0213124 -2.01489 0
M  V30 4486 O 418.974 0.689488 -2.42904 0
M  V30 4487 C 420.287 -2.46748 -1.7186 0
M  V30 4488 C 421.835 -2.53028 -1.84244 0
M  V30 4489 C 422.31 -3.83758 -2.49988 0
M  V30 4490 N 423.801 -3.85053 -2.57465 0
M  V30 4491 C 424.536 -4.8294 -3.09122 0
M  V30 4492 N 424.032 -5.91217 -3.61157 0
M  V30 4493 N 425.825 -4.70369 -3.0775 0
M  V30 4494 H 417.976 -2.11571 -0.187461 0
M  V30 4495 H 420.239 -0.936726 -0.145765 0
M  V30 4496 H 419.945 -3.33471 -1.11759 0
M  V30 4497 H 419.819 -2.61883 -2.71472 0
M  V30 4498 H 422.206 -1.66729 -2.43486 0
M  V30 4499 H 422.287 -2.418 -0.834643 0
M  V30 4500 H 421.931 -4.70459 -1.91393 0
M  V30 4501 H 421.861 -3.92278 -3.5132 0
M  V30 4502 H 424.352 -3.06822 -2.20609 0
M  V30 4503 H 424.665 -6.61892 -3.98896 0
M  V30 4504 H 423.01 -5.94899 -3.59333 0
M  V30 4505 H 426.201 -3.84914 -2.66381 0
M  V30 4506 H 426.374 -5.46816 -3.47701 0
M  V30 4507 N 419.78 1.02168 -1.19998 0
M  V30 4508 C 421.02 1.77232 -1.01825 0
M  V30 4509 C 421.384 1.86833 0.442428 0
M  V30 4510 O 422.585 2.58293 0.744189 0
M  V30 4511 C 420.856 3.15601 -1.67722 0
M  V30 4512 S 422.415 4.06765 -1.64584 0
M  V30 4513 H 419.233 0.610021 -0.365233 0
M  V30 4514 H 421.835 1.22368 -1.52467 0
M  V30 4515 H 420.539 3.06235 -2.73218 0
M  V30 4516 H 420.07 3.7554 -1.17189 0
M  V30 4517 H 422.085 4.91586 -0.67511 0
M  V30 4518 N 421.258 1.00505 1.21394 0
M  V30 4519 C 422.168 0.574806 2.27449 0
M  V30 4520 C 423.184 -0.382206 1.6975 0
M  V30 4521 O 424.36 -0.246027 1.99892 0
M  V30 4522 C 421.425 -0.0917414 3.46579 0
M  V30 4523 C 420.486 0.909758 4.1955 0
M  V30 4524 C 419.719 0.274924 5.32991 0
M  V30 4525 O 419.942 -0.928254 5.62796 0
M  V30 4526 O 418.876 0.985877 5.93771 0
M  V30 4527 H 422.702 1.45744 2.66444 0
M  V30 4528 H 420.287 0.773923 1.27792 0
M  V30 4529 H 422.169 -0.464551 4.18832 0
M  V30 4530 H 420.844 -0.948755 3.09484 0
M  V30 4531 H 419.751 1.33372 3.49518 0
M  V30 4532 H 421.084 1.73636 4.60555 0
M  V30 4533 N 422.737 -1.36956 0.779787 0
M  V30 4534 C 423.986 -1.98738 0.344405 0
M  V30 4535 C 424.299 -1.62596 -1.08728 0
M  V30 4536 O 425.505 -2.1754 -1.62445 0
M  V30 4537 C 423.961 -3.5544 0.564829 0
M  V30 4538 C 423.569 -4.00514 2.0073 0
M  V30 4539 C 425.313 -4.24059 0.193471 0
M  V30 4540 C 423.22 -5.49957 2.17489 0
M  V30 4541 H 422.15 -0.743561 0.12503 0
M  V30 4542 H 424.801 -1.56381 0.960057 0
M  V30 4543 H 423.183 -3.95817 -0.120397 0
M  V30 4544 H 424.357 -3.71362 2.72814 0
M  V30 4545 H 422.672 -3.44703 2.336 0
M  V30 4546 H 425.269 -5.33874 0.297097 0
M  V30 4547 H 425.612 -4.07378 -0.857263 0
M  V30 4548 H 426.145 -3.89012 0.831556 0
M  V30 4549 H 422.884 -5.71574 3.2091 0
M  V30 4550 H 422.404 -5.80767 1.49899 0
M  V30 4551 H 424.083 -6.16043 1.97738 0
M  V30 4552 N 424.215 -0.530993 -1.48385 0
M  V30 4553 C 425.125 0.23503 -2.3342 0
M  V30 4554 C 426.141 0.93801 -1.46552 0
M  V30 4555 O 427.317 0.912745 -1.7953 0
M  V30 4556 C 424.382 1.26778 -3.22689 0
M  V30 4557 C 423.443 0.575038 -4.25431 0
M  V30 4558 C 422.676 1.55858 -5.10435 0
M  V30 4559 O 422.899 2.79129 -4.97437 0
M  V30 4560 O 421.833 1.09742 -5.91811 0
M  V30 4561 H 425.659 -0.461794 -3.00169 0
M  V30 4562 H 423.244 -0.291903 -1.46521 0
M  V30 4563 H 425.126 1.86457 -3.77904 0
M  V30 4564 H 423.801 1.94699 -2.586 0
M  V30 4565 H 422.708 -0.0622782 -3.74048 0
M  V30 4566 H 424.041 -0.062253 -4.92161 0
M  V30 4567 N 425.693 1.55336 -0.266172 0
M  V30 4568 C 426.656 2.20878 0.612001 0
M  V30 4569 C 427.656 1.18388 1.08816 0
M  V30 4570 O 428.846 1.4335 0.989774 0
M  V30 4571 C 425.978 2.86765 1.84332 0
M  V30 4572 H 427.171 2.99873 0.0398718 0
M  V30 4573 H 424.724 1.56291 -0.0167309 0
M  V30 4574 H 425.459 2.11759 2.45619 0
M  V30 4575 H 425.244 3.61862 1.5099 0
M  V30 4576 H 426.734 3.36867 2.46801 0
M  V30 4577 N 427.171 -0.0066808 1.57599 0
M  V30 4578 C 428.399 -0.704087 1.94551 0
M  V30 4579 C 428.814 -1.67677 0.867746 0
M  V30 4580 O 428.171 -1.8185 -0.153925 0
M  V30 4581 C 428.222 -1.44177 3.31505 0
M  V30 4582 O 427.943 -0.508097 4.35144 0
M  V30 4583 C 429.444 -2.23429 3.82876 0
M  V30 4584 H 426.664 -0.196523 0.641576 0
M  V30 4585 H 429.208 0.042453 2.04456 0
M  V30 4586 H 427.363 -2.13999 3.22929 0
M  V30 4587 H 427.777 -1.02782 5.14331 0
M  V30 4588 H 429.251 -2.70552 4.8115 0
M  V30 4589 H 429.728 -3.05818 3.15233 0
M  V30 4590 H 430.334 -1.58636 3.94607 0
M  V30 4591 N 428.649 -1.55105 -0.279332 0
M  V30 4592 C 429.579 -1.90557 -1.34945 0
M  V30 4593 C 430.56 -0.766738 -1.51839 0
M  V30 4594 O 431.745 -1.02434 -1.64988 0
M  V30 4595 C 428.875 -2.17193 -2.71006 0
M  V30 4596 C 427.829 -3.33021 -2.68851 0
M  V30 4597 C 427.155 -3.45123 -4.08405 0
M  V30 4598 C 428.455 -4.69578 -2.28678 0
M  V30 4599 H 430.149 -2.80188 -1.05522 0
M  V30 4600 H 427.695 -1.34811 -0.506173 0
M  V30 4601 H 429.648 -2.40581 -3.45975 0
M  V30 4602 H 428.372 -1.24355 -3.01999 0
M  V30 4603 H 427.031 -3.0959 -1.9634 0
M  V30 4604 H 426.679 -2.49762 -4.3661 0
M  V30 4605 H 426.379 -4.22995 -4.07859 0
M  V30 4606 H 427.903 -3.70796 -4.85121 0
M  V30 4607 H 429.317 -4.92553 -2.93368 0
M  V30 4608 H 427.714 -5.5032 -2.39306 0
M  V30 4609 H 428.784 -4.68828 -1.23807 0
M  V30 4610 N 430.127 0.543554 -1.4793 0
M  V30 4611 C 431.037 1.67657 -1.64098 0
M  V30 4612 C 432.053 1.65934 -0.523622 0
M  V30 4613 O 433.229 1.85133 -0.792943 0
M  V30 4614 C 430.294 3.04146 -1.66421 0
M  V30 4615 C 429.355 3.16831 -2.89684 0
M  V30 4616 C 428.588 4.46809 -2.91886 0
M  V30 4617 O 428.811 5.33095 -2.02895 0
M  V30 4618 O 427.745 4.63573 -3.83906 0
M  V30 4619 H 431.571 1.56957 -2.59997 0
M  V30 4620 H 429.156 0.715116 -1.31173 0
M  V30 4621 H 431.038 3.85346 -1.70548 0
M  V30 4622 H 429.713 3.152 -0.736923 0
M  V30 4623 H 428.62 2.34977 -2.91095 0
M  V30 4624 H 429.953 3.10687 -3.81752 0
M  V30 4625 N 431.605 1.3629 0.791371 0
M  V30 4626 C 433.021 1.16661 1.08914 0
M  V30 4627 C 433.221 -0.0106266 2.01497 0
M  V30 4628 O 432.277 -0.676596 2.43266 0
M  V30 4629 C 433.59 2.47656 1.70549 0
M  V30 4630 C 435.138 2.54002 1.82899 0
M  V30 4631 C 435.613 3.85078 2.47949 0
M  V30 4632 N 437.104 3.86413 2.5542 0
M  V30 4633 C 437.839 4.84572 3.06557 0
M  V30 4634 N 437.335 5.93124 3.58016 0
M  V30 4635 N 439.128 4.71994 3.05251 0
M  V30 4636 H 431.279 2.11668 0.176238 0
M  V30 4637 H 433.542 0.937486 0.140796 0
M  V30 4638 H 433.248 3.34059 1.09989 0
M  V30 4639 H 433.122 2.63319 2.70079 0
M  V30 4640 H 435.509 1.68018 2.42598 0
M  V30 4641 H 435.59 2.42239 0.821808 0
M  V30 4642 H 435.234 4.71467 1.88895 0
M  V30 4643 H 435.164 3.94135 3.49235 0
M  V30 4644 H 437.655 3.07988 2.18979 0
M  V30 4645 H 437.968 6.63999 3.95381 0
M  V30 4646 H 436.313 5.96796 3.56173 0
M  V30 4647 H 439.504 3.86321 2.64336 0
M  V30 4648 H 439.677 5.48653 3.44796 0
M  V30 4649 N 433.083 -1.0153 1.20538 0
M  V30 4650 C 434.013 -2.11972 0.979295 0
M  V30 4651 C 434.994 -1.6985 -0.0921787 0
M  V30 4652 O 436.179 -1.94089 0.0655932 0
M  V30 4653 C 433.309 -3.43201 0.531984 0
M  V30 4654 C 432.263 -3.9907 1.54685 0
M  V30 4655 C 431.589 -5.26082 0.956127 0
M  V30 4656 C 432.889 -4.32313 2.93092 0
M  V30 4657 H 434.583 -2.31143 1.90298 0
M  V30 4658 H 432.129 -1.11079 0.916372 0
M  V30 4659 H 434.082 -4.1985 0.361044 0
M  V30 4660 H 432.806 -3.23792 -0.427327 0
M  V30 4661 H 431.465 -3.2453 1.70517 0
M  V30 4662 H 431.113 -5.02999 -0.0111538 0
M  V30 4663 H 430.813 -5.64426 1.63393 0
M  V30 4664 H 432.337 -6.05386 0.796284 0
M  V30 4665 H 433.751 -4.99845 2.80763 0
M  V30 4666 H 432.148 -4.81774 3.57791 0
M  V30 4667 H 433.218 -3.41025 3.44717 0
M  V30 4668 N 434.561 -1.01147 -1.20859 0
M  V30 4669 C 435.508 -0.577354 -2.23462 0
M  V30 4670 C 436.478 0.399922 -1.61214 0
M  V30 4671 O 437.663 0.300515 -1.88419 0
M  V30 4672 C 434.803 0.083372 -3.44999 0
M  V30 4673 C 433.916 -0.937856 -4.21697 0
M  V30 4674 C 433.051 -0.248717 -5.30617 0
M  V30 4675 C 432.09 -1.25705 -5.99053 0
M  V30 4676 N 431.227 -0.594939 -6.99575 0
M  V30 4677 H 436.067 -1.45695 -2.59956 0
M  V30 4678 H 433.604 -0.729428 -1.27741 0
M  V30 4679 H 435.562 0.483535 -4.14388 0
M  V30 4680 H 434.192 0.926645 -3.09214 0
M  V30 4681 H 433.244 -1.45622 -3.51423 0
M  V30 4682 H 434.556 -1.70493 -4.68757 0
M  V30 4683 H 433.71 0.207215 -6.06346 0
M  V30 4684 H 432.449 0.55071 -4.84581 0
M  V30 4685 H 431.454 -1.72343 -5.2209 0
M  V30 4686 H 432.679 -2.05767 -6.47176 0
M  V30 4687 H 430.625 0.184713 -6.5574 0
M  V30 4688 H 430.542 -1.30017 -7.44736 0
M  V30 4689 H 431.81 -0.162427 -7.79331 0
M  V30 4690 N 436.039 1.36541 -0.78704 0
M  V30 4691 C 436.986 2.30082 -0.181901 0
M  V30 4692 C 437.956 1.5186 0.672896 0
M  V30 4693 O 439.141 1.80374 0.622072 0
M  V30 4694 C 436.281 3.3835 0.679197 0
M  V30 4695 C 435.394 4.31565 -0.193882 0
M  V30 4696 C 434.529 5.26915 0.673364 0
M  V30 4697 C 433.568 6.11769 -0.201315 0
M  V30 4698 N 432.705 6.99315 0.624777 0
M  V30 4699 H 437.545 2.81248 -0.985064 0
M  V30 4700 H 435.082 1.38437 -0.497342 0
M  V30 4701 H 437.04 3.99767 1.19341 0
M  V30 4702 H 435.67 2.8851 1.44781 0
M  V30 4703 H 434.722 3.71323 -0.826044 0
M  V30 4704 H 436.034 4.91191 -0.867937 0
M  V30 4705 H 435.188 5.9361 1.25348 0
M  V30 4706 H 433.927 4.67737 1.38105 0
M  V30 4707 H 432.932 5.44039 -0.793849 0
M  V30 4708 H 434.157 6.73022 -0.906568 0
M  V30 4709 H 432.103 6.42648 1.3168 0
M  V30 4710 H 432.02 7.56 0.00835237 0
M  V30 4711 H 433.288 7.70382 1.18879 0
M  V30 4712 N 437.518 0.538854 1.48102 0
M  V30 4713 C 438.448 -0.207654 2.32575 0
M  V30 4714 C 439.429 -0.926559 1.4265 0
M  V30 4715 O 440.614 -0.91061 1.71527 0
M  V30 4716 C 437.744 -1.24957 3.24042 0
M  V30 4717 C 436.698 -0.648263 4.23062 0
M  V30 4718 C 436.024 -1.79348 5.03725 0
M  V30 4719 C 437.324 0.385897 5.20872 0
M  V30 4720 H 439.018 0.497534 2.95237 0
M  V30 4721 H 436.564 0.240715 1.41974 0
M  V30 4722 H 438.517 -1.77983 3.81969 0
M  V30 4723 H 437.241 -1.98446 2.59397 0
M  V30 4724 H 435.9 -0.139452 3.66335 0
M  V30 4725 H 435.548 -2.51696 4.35498 0
M  V30 4726 H 435.248 -1.39702 5.70751 0
M  V30 4727 H 436.772 -2.32735 5.64506 0
M  V30 4728 H 438.186 -0.057607 5.73271 0
M  V30 4729 H 436.583 0.700227 5.96001 0
M  V30 4730 H 437.653 1.28848 4.67468 0
M  V30 4731 N 438.996 -1.55193 0.274407 0
M  V30 4732 C 439.906 -2.26164 -0.623473 0
M  V30 4733 C 440.922 -1.28729 -1.17068 0
M  V30 4734 O 442.098 -1.61663 -1.20112 0
M  V30 4735 C 439.163 -2.96833 -1.7914 0
M  V30 4736 C 438.224 -4.09745 -1.28093 0
M  V30 4737 C 437.457 -4.77034 -2.3932 0
M  V30 4738 O 437.68 -4.4353 -3.5866 0
M  V30 4739 O 436.614 -5.64996 -2.07516 0
M  V30 4740 H 440.44 -3.03661 -0.0485661 0
M  V30 4741 H 438.025 -1.49341 0.0418382 0
M  V30 4742 H 439.907 -3.41248 -2.4724 0
M  V30 4743 H 438.582 -2.22253 -2.35341 0
M  V30 4744 H 437.489 -3.69787 -0.566416 0
M  V30 4745 H 438.822 -4.86224 -0.764683 0
M  V30 4746 N 440.474 -0.00167713 -1.576 0
M  V30 4747 C 441.89 0.354422 -1.55615 0
M  V30 4748 C 442.09 1.74679 -1.00447 0
M  V30 4749 O 441.146 2.4428 -0.639022 0
M  V30 4750 C 442.459 0.22812 -2.99833 0
M  V30 4751 C 444.007 0.302934 -3.11531 0
M  V30 4752 C 444.482 0.205737 -4.57538 0
M  V30 4753 N 445.973 0.263584 -4.62449 0
M  V30 4754 C 446.708 0.211742 -5.73009 0
M  V30 4755 N 446.204 0.110399 -6.92712 0
M  V30 4756 N 447.997 0.263729 -5.61481 0
M  V30 4757 H 440.148 -0.912498 -1.918 0
M  V30 4758 H 442.411 -0.349928 -0.881053 0
M  V30 4759 H 442.117 -0.729934 -3.44042 0
M  V30 4760 H 441.991 1.00951 -3.6344 0
M  V30 4761 H 444.378 1.25143 -2.67251 0
M  V30 4762 H 444.459 -0.508357 -2.50698 0
M  V30 4763 H 444.103 -0.739225 -5.02492 0
M  V30 4764 H 444.033 1.03554 -5.16318 0
M  V30 4765 H 446.524 0.343173 -3.76339 0
M  V30 4766 H 446.837 0.0767828 -7.72762 0
M  V30 4767 H 445.182 0.0760025 -6.94958 0
M  V30 4768 H 448.373 0.34111 -4.66855 0
M  V30 4769 H 448.546 0.219862 -6.47627 0
M  V30 4770 N 441.952 1.55251 0.271103 0
M  V30 4771 C 443.229 1.66664 1.02384 0
M  V30 4772 C 443.609 0.534363 2.04225 0
M  V30 4773 O 442.957 -0.465337 2.23712 0
M  V30 4774 C 443.167 3.05961 1.67895 0
M  V30 4775 C 444.515 3.63772 2.18986 0
M  V30 4776 O 445.539 3.08606 1.77878 0
M  V30 4777 O 444.398 4.60429 2.94393 0
M  V30 4778 H 441.492 0.676957 0.475035 0
M  V30 4779 H 444.038 1.67589 0.26681 0
M  V30 4780 H 442.81 3.79815 0.941071 0
M  V30 4781 H 442.433 3.08943 2.5028 0
M  V30 4782 N 443.43 -0.535701 1.48216 0
M  V30 4783 C 444.36 -1.65014 1.65204 0
M  V30 4784 C 445.341 -1.62554 0.501011 0
M  V30 4785 O 446.526 -1.7984 0.732886 0
M  V30 4786 C 443.656 -3.03616 1.68626 0
M  V30 4787 C 442.61 -3.20932 2.83172 0
M  V30 4788 C 441.936 -4.60537 2.71679 0
M  V30 4789 C 443.236 -3.04249 4.24535 0
M  V30 4790 H 444.93 -1.51053 2.58502 0
M  V30 4791 H 442.476 -0.725262 1.24402 0
M  V30 4792 H 444.429 -3.81446 1.79099 0
M  V30 4793 H 443.153 -3.18587 0.719026 0
M  V30 4794 H 441.812 -2.45517 2.72244 0
M  V30 4795 H 441.46 -4.72336 1.72937 0
M  V30 4796 H 441.16 -4.73069 3.48538 0
M  V30 4797 H 442.684 -5.40475 2.84112 0
M  V30 4798 H 444.098 -3.71877 4.36326 0
M  V30 4799 H 442.495 -3.28278 5.02348 0
M  V30 4800 H 443.565 -2.00739 4.41397 0
M  V30 4801 N 444.908 -1.36708 -0.784132 0
M  V30 4802 C 446.133 -1.34565 -1.5782 0
M  V30 4803 C 446.558 0.0695257 -1.87971 0
M  V30 4804 O 445.916 1.04302 -1.48293 0
M  V30 4805 C 445.964 -2.17952 -2.87279 0
M  V30 4806 O 445.068 -1.57563 -3.81114 0
M  V30 4807 H 444.409 -0.460337 -0.478524 0
M  V30 4808 H 446.939 -1.80064 -0.971495 0
M  V30 4809 H 446.949 -2.30721 -3.365 0
M  V30 4810 H 445.624 -3.20823 -2.64661 0
M  V30 4811 H 444.201 -1.53764 -3.39722 0
M  V30 4812 N 446.386 1.0089 -1.21074 0
M  V30 4813 C 447.633 1.74607 -1.0256 0
M  V30 4814 C 447.961 1.89426 0.44136 0
M  V30 4815 O 447.216 1.42266 1.34384 0
M  V30 4816 C 447.515 3.16335 -1.66334 0
M  V30 4817 C 447.181 3.21474 -3.16173 0
M  V30 4818 C 445.843 3.22583 -3.57062 0
M  V30 4819 C 448.195 3.19025 -4.12156 0
M  V30 4820 C 445.523 3.18925 -4.92446 0
M  V30 4821 C 447.875 3.16909 -5.47496 0
M  V30 4822 C 446.539 3.16326 -5.87787 0
M  V30 4823 H 445.809 0.638933 -0.375294 0
M  V30 4824 H 448.456 1.18274 -1.50611 0
M  V30 4825 H 446.761 3.75876 -1.10566 0
M  V30 4826 H 448.458 3.72083 -1.49516 0
M  V30 4827 H 445.048 3.2135 -2.83605 0
M  V30 4828 H 449.232 3.17332 -3.81595 0
M  V30 4829 H 444.488 3.16809 -5.22917 0
M  V30 4830 H 448.662 3.13968 -6.21609 0
M  V30 4831 H 446.289 3.13246 -6.92662 0
M  V30 4832 N 447.864 1.01787 1.20321 0
M  V30 4833 C 448.811 0.589197 2.23153 0
M  V30 4834 C 449.781 -0.391367 1.61423 0
M  V30 4835 O 450.966 -0.290518 1.88575 0
M  V30 4836 C 448.106 -0.0650747 3.45039 0
M  V30 4837 C 447.219 0.960207 4.21194 0
M  V30 4838 C 446.354 0.276854 5.30478 0
M  V30 4839 C 445.393 1.2888 5.98378 0
M  V30 4840 N 444.53 0.632031 6.99249 0
M  V30 4841 H 449.37 1.47071 2.59179 0
M  V30 4842 H 446.907 0.736192 1.27352 0
M  V30 4843 H 448.865 -0.461552 4.14639 0
M  V30 4844 H 447.495 -0.910233 3.09701 0
M  V30 4845 H 446.547 1.47484 3.50646 0
M  V30 4846 H 447.859 1.72977 4.67847 0
M  V30 4847 H 447.013 -0.175056 6.06447 0
M  V30 4848 H 445.752 -0.525004 4.84866 0
M  V30 4849 H 444.757 1.75109 5.21169 0
M  V30 4850 H 445.982 2.09196 6.46076 0
M  V30 4851 H 443.928 -0.149935 6.55829 0
M  V30 4852 H 443.845 1.33964 7.44036 0
M  V30 4853 H 445.113 0.203755 7.79234 0
M  V30 4854 N 449.342 -1.36122 0.79427 0
M  V30 4855 C 450.252 -2.33769 0.197296 0
M  V30 4856 C 451.268 -1.61276 -0.653153 0
M  V30 4857 O 452.444 -1.9323 -0.5678 0
M  V30 4858 C 449.509 -3.40474 -0.654098 0
M  V30 4859 C 448.57 -4.28759 0.215411 0
M  V30 4860 C 447.803 -5.30368 -0.595443 0
M  V30 4861 O 448.026 -5.40211 -1.83107 0
M  V30 4862 O 446.96 -6.019 0.00721351 0
M  V30 4863 H 450.786 -2.86597 1.00478 0
M  V30 4864 H 448.371 -1.38676 0.555818 0
M  V30 4865 H 450.253 -4.05703 -1.13944 0
M  V30 4866 H 448.928 -2.89937 -1.43938 0
M  V30 4867 H 447.835 -3.66554 0.747615 0
M  V30 4868 H 449.168 -4.82661 0.964332 0
M  V30 4869 N 450.82 -0.546701 -1.47814 0
M  V30 4870 C 451.752 0.244196 -2.27895 0
M  V30 4871 C 452.765 0.88911 -1.36377 0
M  V30 4872 O 453.954 0.764733 -1.61289 0
M  V30 4873 C 451.054 1.36252 -3.10304 0
M  V30 4874 C 450.227 0.816382 -4.29714 0
M  V30 4875 C 449.286 1.81789 -4.93801 0
M  V30 4876 O 448.312 1.36818 -5.52512 0
M  V30 4877 N 449.514 3.15085 -4.87547 0
M  V30 4878 H 452.279 -0.442694 -2.96412 0
M  V30 4879 H 449.84 -0.382095 -1.57327 0
M  V30 4880 H 451.832 2.03102 -3.50045 0
M  V30 4881 H 450.402 1.95281 -2.44099 0
M  V30 4882 H 449.622 -0.0285981 -3.9419 0
M  V30 4883 H 450.91 0.430668 -5.06974 0
M  V30 4884 H 450.308 3.54275 -4.41028 0
M  V30 4885 H 448.865 3.77522 -5.31339 0
M  V30 4886 N 452.299 1.55045 -0.282633 0
M  V30 4887 C 453.209 2.26491 0.61147 0
M  V30 4888 C 454.225 1.29348 1.16384 0
M  V30 4889 O 455.401 1.62298 1.19253 0
M  V30 4890 C 452.466 2.97779 1.77563 0
M  V30 4891 C 451.527 4.10418 1.25919 0
M  V30 4892 C 450.76 4.78297 2.36786 0
M  V30 4893 O 450.983 4.45426 3.56303 0
M  V30 4894 O 449.917 5.66089 2.04517 0
M  V30 4895 H 453.743 3.03683 0.0324615 0
M  V30 4896 H 451.328 1.49317 -0.0497576 0
M  V30 4897 H 453.21 3.42554 2.45427 0
M  V30 4898 H 451.885 2.23498 2.34159 0
M  V30 4899 H 450.792 3.70082 0.546797 0
M  V30 4900 H 452.125 4.86622 0.738887 0
M  V30 4901 N 453.777 0.010035 1.57597 0
M  V30 4902 C 454.707 -0.976857 2.12084 0
M  V30 4903 C 455.688 -1.35191 1.03235 0
M  V30 4904 O 456.873 -1.43389 1.3097 0
M  V30 4905 C 454.003 -2.26548 2.63236 0
M  V30 4906 C 452.957 -2.03175 3.76701 0
M  V30 4907 C 452.283 -3.38138 4.14206 0
M  V30 4908 C 453.583 -1.38625 5.03568 0
M  V30 4909 H 455.277 -0.523145 2.94794 0
M  V30 4910 H 452.823 -0.250195 1.4181 0
M  V30 4911 H 454.776 -2.95952 2.99984 0
M  V30 4912 H 453.5 -2.74051 1.77661 0
M  V30 4913 H 452.159 -1.36195 3.40362 0
M  V30 4914 H 451.807 -3.83363 3.25641 0
M  V30 4915 H 451.507 -3.23312 4.90656 0
M  V30 4916 H 453.031 -4.08841 4.53521 0
M  V30 4917 H 454.445 -1.98 5.38023 0
M  V30 4918 H 452.842 -1.34256 5.84889 0
M  V30 4919 H 453.912 -0.356722 4.83586 0
M  V30 4920 N 455.255 -1.55392 -0.262866 0
M  V30 4921 C 456.202 -1.88966 -1.32516 0
M  V30 4922 C 457.172 -0.742187 -1.48596 0
M  V30 4923 O 458.357 -0.99439 -1.62839 0
M  V30 4924 C 455.497 -2.17592 -2.67858 0
M  V30 4925 C 454.61 -3.45061 -2.59917 0
M  V30 4926 C 453.745 -3.63336 -3.87505 0
M  V30 4927 C 452.784 -4.84462 -3.74116 0
M  V30 4928 N 451.921 -4.99342 -4.93561 0
M  V30 4929 H 456.761 -2.79566 -1.03184 0
M  V30 4930 H 454.298 -1.38404 -0.498285 0
M  V30 4931 H 456.256 -2.3219 -3.46617 0
M  V30 4932 H 454.886 -1.30215 -2.95371 0
M  V30 4933 H 453.938 -3.38881 -1.72812 0
M  V30 4934 H 455.25 -4.3396 -2.45926 0
M  V30 4935 H 454.404 -3.77807 -4.74707 0
M  V30 4936 H 453.143 -2.72641 -4.04374 0
M  V30 4937 H 452.148 -4.69985 -2.85297 0
M  V30 4938 H 453.373 -5.76603 -3.58757 0
M  V30 4939 H 451.319 -4.1158 -5.10821 0
M  V30 4940 H 451.236 -5.82303 -4.82141 0
M  V30 4941 H 452.504 -5.18208 -5.82306 0
M  V30 4942 N 456.733 0.527833 -1.48498 0
M  V30 4943 C 457.643 1.65907 -1.65867 0
M  V30 4944 C 458.659 1.6537 -0.541192 0
M  V30 4945 O 459.835 1.84282 -0.812534 0
M  V30 4946 C 456.9 3.02364 -1.69637 0
M  V30 4947 C 455.961 3.1374 -2.93028 0
M  V30 4948 C 455.194 4.43688 -2.96609 0
M  V30 4949 O 455.417 5.30913 -2.08538 0
M  V30 4950 O 454.351 4.59475 -3.88802 0
M  V30 4951 H 458.177 1.5419 -2.61647 0
M  V30 4952 H 455.762 0.701163 -1.31924 0
M  V30 4953 H 457.644 3.83515 -1.74625 0
M  V30 4954 H 456.319 3.14401 -0.770312 0
M  V30 4955 H 455.226 2.31877 -2.93571 0
M  V30 4956 H 456.559 3.06621 -3.85026 0
M  V30 4957 N 458.211 1.37122 0.776871 0
M  V30 4958 C 459.627 1.1781 1.07671 0
M  V30 4959 C 459.827 0.0107454 2.01497 0
M  V30 4960 O 458.883 -0.650756 2.4397 0
M  V30 4961 C 460.196 2.49451 1.67913 0
M  V30 4962 C 461.744 2.55927 1.80195 0
M  V30 4963 C 462.219 3.87686 2.43851 0
M  V30 4964 N 463.71 3.891 2.51307 0
M  V30 4965 C 464.445 4.87797 3.014 0
M  V30 4966 N 463.941 5.96888 3.51705 0
M  V30 4967 N 465.734 4.75205 3.00227 0
M  V30 4968 H 457.885 2.11843 0.153778 0
M  V30 4969 H 460.148 0.938927 0.130844 0
M  V30 4970 H 459.854 3.35207 1.06439 0
M  V30 4971 H 459.728 2.66169 2.67271 0
M  V30 4972 H 462.115 1.70582 2.40803 0
M  V30 4973 H 462.196 2.43097 0.796069 0
M  V30 4974 H 461.84 4.73444 1.83884 0
M  V30 4975 H 461.77 3.97817 3.45035 0
M  V30 4976 H 464.261 3.10293 2.157 0
M  V30 4977 H 464.574 6.68155 3.88316 0
M  V30 4978 H 462.919 6.0054 3.49824 0
M  V30 4979 H 466.11 3.89103 2.60224 0
M  V30 4980 H 466.283 5.52279 3.38957 0
M  V30 4981 N 459.689 -1.00246 1.21608 0
M  V30 4982 C 460.599 -2.12515 0.993709 0
M  V30 4983 C 461.615 -1.73913 -0.0549939 0
M  V30 4984 O 462.791 -2.00943 0.135619 0
M  V30 4985 C 459.856 -3.42083 0.563953 0
M  V30 4986 C 458.917 -3.94843 1.68516 0
M  V30 4987 C 458.15 -5.18226 1.27582 0
M  V30 4988 O 458.373 -5.70201 0.150506 0
M  V30 4989 O 457.307 -5.64497 2.0887 0
M  V30 4990 H 461.133 -2.34152 1.93407 0
M  V30 4991 H 458.718 -1.10891 1.00118 0
M  V30 4992 H 460.6 -4.20073 0.334194 0
M  V30 4993 H 459.275 -3.21828 -0.347665 0
M  V30 4994 H 458.182 -3.18068 1.96935 0
M  V30 4995 H 459.515 -4.19512 2.5743 0
M  V30 4996 N 461.167 -1.02423 -1.1978 0
M  V30 4997 C 462.583 -0.740459 -1.41384 0
M  V30 4998 C 462.783 0.676827 -1.89793 0
M  V30 4999 O 461.839 1.4435 -2.0717 0
M  V30 5000 C 463.152 -1.77264 -2.42895 0
M  V30 5001 C 464.7 -1.79165 -2.56649 0
M  V30 5002 C 465.175 -2.8133 -3.6141 0
M  V30 5003 N 466.666 -2.80118 -3.68901 0
M  V30 5004 C 467.401 -3.55824 -4.49641 0
M  V30 5005 N 466.897 -4.41231 -5.34123 0
M  V30 5006 N 468.69 -3.44387 -4.44246 0
M  V30 5007 H 460.841 -1.9391 -0.866764 0
M  V30 5008 H 463.104 -0.838074 -0.443098 0
M  V30 5009 H 462.81 -2.7884 -2.14339 0
M  V30 5010 H 462.684 -1.59108 -3.42001 0
M  V30 5011 H 465.071 -0.782702 -2.84531 0
M  V30 5012 H 465.152 -2.01396 -1.57713 0
M  V30 5013 H 464.796 -3.82394 -3.34271 0
M  V30 5014 H 464.726 -2.56359 -4.59986 0
M  V30 5015 H 467.217 -2.1817 -3.08562 0
M  V30 5016 H 467.53 -4.95747 -5.92836 0
M  V30 5017 H 465.875 -4.45306 -5.33599 0
M  V30 5018 H 469.066 -2.7708 -3.77285 0
M  V30 5019 H 469.239 -4.0364 -5.06931 0
M  V30 5020 N 462.645 1.35699 -0.801477 0
M  V30 5021 C 464.061 1.52065 -0.484596 0
M  V30 5022 C 464.261 1.75215 0.995084 0
M  V30 5023 O 463.317 1.79061 1.78026 0
M  V30 5024 C 464.63 2.69908 -1.32552 0
M  V30 5025 C 466.178 2.83784 -1.32044 0
M  V30 5026 C 466.653 4.04646 -2.14536 0
M  V30 5027 N 468.144 4.11814 -2.12046 0
M  V30 5028 C 468.879 5.04437 -2.72636 0
M  V30 5029 N 468.375 6.02426 -3.42133 0
M  V30 5030 N 470.168 4.97144 -2.62305 0
M  V30 5031 H 462.319 1.18928 -1.75983 0
M  V30 5032 H 464.582 0.581455 -0.748741 0
M  V30 5033 H 464.288 2.59363 -2.37537 0
M  V30 5034 H 464.162 3.64376 -0.975181 0
M  V30 5035 H 466.549 2.93783 -0.27846 0
M  V30 5036 H 466.63 1.90188 -1.71062 0
M  V30 5037 H 466.274 3.95407 -3.18772 0
M  V30 5038 H 466.204 4.97413 -1.72882 0
M  V30 5039 H 468.695 3.41664 -1.61476 0
M  V30 5040 H 469.008 6.69688 -3.85666 0
M  V30 5041 H 467.353 6.02615 -3.46237 0
M  V30 5042 H 470.544 4.19546 -2.07603 0
M  V30 5043 H 470.717 5.69138 -3.09815 0
M  V30 5044 N 464.123 0.554532 1.47522 0
M  V30 5045 C 465.053 -0.182974 2.32782 0
M  V30 5046 C 466.034 -0.911377 1.43624 0
M  V30 5047 O 467.219 -0.892366 1.72483 0
M  V30 5048 C 464.349 -1.21513 3.25349 0
M  V30 5049 C 463.303 -0.603355 4.23726 0
M  V30 5050 C 462.629 -1.73995 5.05598 0
M  V30 5051 C 463.929 0.441121 5.20434 0
M  V30 5052 H 465.623 0.52882 2.94693 0
M  V30 5053 H 463.169 0.255759 1.41711 0
M  V30 5054 H 465.122 -1.73922 3.83835 0
M  V30 5055 H 463.846 -1.95683 2.61487 0
M  V30 5056 H 462.505 -0.10059 3.66462 0
M  V30 5057 H 462.153 -2.47063 4.38143 0
M  V30 5058 H 461.853 -1.3364 5.72201 0
M  V30 5059 H 463.377 -2.26735 5.66942 0
M  V30 5060 H 464.791 0.00319931 5.733 0
M  V30 5061 H 463.188 0.763402 5.95224 0
M  V30 5062 H 464.258 1.33799 4.66075 0
M  V30 5063 N 465.601 -1.54893 0.290851 0
M  V30 5064 C 466.548 -2.23138 -0.58974 0
M  V30 5065 C 467.518 -1.21036 -1.13752 0
M  V30 5066 O 468.703 -1.49626 -1.18392 0
M  V30 5067 C 465.843 -2.96811 -1.76061 0
M  V30 5068 C 464.956 -4.13665 -1.24519 0
M  V30 5069 C 464.091 -4.74944 -2.3791 0
M  V30 5070 C 463.13 -5.83963 -1.83451 0
M  V30 5071 N 462.267 -6.39239 -2.90376 0
M  V30 5072 H 467.107 -2.98 -0.00114915 0
M  V30 5073 H 464.644 -1.47096 0.0112006 0
M  V30 5074 H 466.602 -3.37751 -2.44909 0
M  V30 5075 H 465.232 -2.24344 -2.32098 0
M  V30 5076 H 464.284 -3.77737 -0.449288 0
M  V30 5077 H 465.596 -4.92238 -0.806424 0
M  V30 5078 H 464.75 -5.18684 -3.14724 0
M  V30 5079 H 463.489 -3.95682 -2.85109 0
M  V30 5080 H 462.494 -5.39657 -1.05122 0
M  V30 5081 H 463.719 -6.65103 -1.37169 0
M  V30 5082 H 461.665 -5.62864 -3.36927 0
M  V30 5083 H 461.582 -7.13129 -2.50965 0
M  V30 5084 H 462.85 -6.87637 -3.67118 0
M  V30 5085 N 467.08 -0.0183926 -1.57589 0
M  V30 5086 C 468.013 1.00148 -2.0505 0
M  V30 5087 C 468.991 1.32387 -0.944058 0
M  V30 5088 O 470.175 1.44237 -1.21358 0
M  V30 5089 C 467.302 2.32435 -2.46357 0
M  V30 5090 C 466.348 2.15731 -3.67916 0
M  V30 5091 S 467.181 1.46613 -5.15039 0
M  V30 5092 C 468.337 2.80293 -5.59631 0
M  V30 5093 H 468.57 0.597429 -2.91235 0
M  V30 5094 H 466.103 0.193002 -1.53189 0
M  V30 5095 H 468.061 3.0849 -2.70822 0
M  V30 5096 H 466.722 2.69975 -1.60537 0
M  V30 5097 H 465.915 3.13502 -3.9463 0
M  V30 5098 H 465.517 1.4782 -3.43548 0
M  V30 5099 H 467.809 3.76557 -5.63215 0
M  V30 5100 H 468.752 2.58256 -6.59325 0
M  V30 5101 H 469.16 2.85047 -4.87246 0
M  V30 5102 N 468.558 1.5553 0.254621 0
M  V30 5103 C 469.804 1.7818 0.980989 0
M  V30 5104 C 470.159 0.586059 1.83257 0
M  V30 5105 O 469.452 -0.420889 1.8692 0
M  V30 5106 C 469.646 3.03891 1.88109 0
M  V30 5107 C 469.475 4.35578 1.11812 0
M  V30 5108 C 468.245 4.98497 0.826343 0
M  V30 5109 C 470.443 5.11869 0.499486 0
M  V30 5110 N 468.425 6.13888 0.0385095 0
M  V30 5111 C 469.796 6.1981 -0.153292 0
M  V30 5112 C 471.851 4.96216 0.409175 0
M  V30 5113 C 470.554 7.13801 -0.8877 0
M  V30 5114 C 472.58 5.90578 -0.311683 0
M  V30 5115 C 471.942 6.97922 -0.953129 0
M  V30 5116 H 468.041 0.704057 0.340335 0
M  V30 5117 H 470.625 1.93025 0.254855 0
M  V30 5118 H 468.796 2.90389 2.57932 0
M  V30 5119 H 470.528 3.14869 2.54244 0
M  V30 5120 H 467.283 4.59769 1.13621 0
M  V30 5121 H 467.707 6.76129 -0.343275 0
M  V30 5122 H 472.349 4.1331 0.890765 0
M  V30 5123 H 470.067 7.96214 -1.38092 0
M  V30 5124 H 473.653 5.80544 -0.382125 0
M  V30 5125 H 472.533 7.69681 -1.50203 0
M  V30 5126 N 470.036 -0.519951 1.48776 0
M  V30 5127 C 470.946 -1.65025 1.66745 0
M  V30 5128 C 471.962 -1.6508 0.549954 0
M  V30 5129 O 473.138 -1.83848 0.822295 0
M  V30 5130 C 470.203 -3.0146 1.71238 0
M  V30 5131 C 469.264 -3.12182 2.94688 0
M  V30 5132 C 468.497 -4.42109 2.98958 0
M  V30 5133 O 468.72 -5.29799 2.1135 0
M  V30 5134 O 467.654 -4.57406 3.91233 0
M  V30 5135 H 471.48 -1.52801 2.62461 0
M  V30 5136 H 469.065 -0.694157 1.32294 0
M  V30 5137 H 470.947 -3.82584 1.76657 0
M  V30 5138 H 469.622 -3.13988 0.786975 0
M  V30 5139 H 468.529 -2.30316 2.94797 0
M  V30 5140 H 469.862 -3.04574 3.86646 0
M  V30 5141 N 471.514 -1.37532 -0.769588 0
M  V30 5142 C 472.446 -1.29347 -1.89214 0
M  V30 5143 C 473.459 -0.208842 -1.61455 0
M  V30 5144 O 474.648 -0.465158 -1.72333 0
M  V30 5145 C 471.748 -0.977649 -3.24492 0
M  V30 5146 C 470.921 -2.16817 -3.7988 0
M  V30 5147 C 469.98 -1.82229 -4.93639 0
M  V30 5148 O 469.006 -2.54548 -5.09111 0
M  V30 5149 N 470.208 -0.767696 -5.75401 0
M  V30 5150 H 472.973 -2.26073 -1.96751 0
M  V30 5151 H 470.534 -1.31185 -0.948795 0
M  V30 5152 H 472.526 -0.727065 -3.98115 0
M  V30 5153 H 471.096 -0.0988777 -3.12444 0
M  V30 5154 H 470.316 -2.58038 -2.9801 0
M  V30 5155 H 471.604 -2.96308 -4.13617 0
M  V30 5156 H 471.002 -0.167626 -5.65452 0
M  V30 5157 H 469.559 -0.576973 -6.49241 0
M  V30 5158 N 472.992 0.995999 -1.22138 0
M  V30 5159 C 473.939 2.08551 -0.988687 0
M  V30 5160 C 474.909 1.65864 0.0885021 0
M  V30 5161 O 476.094 1.90704 -0.0604589 0
M  V30 5162 C 473.234 3.40374 -0.569191 0
M  V30 5163 C 472.347 3.96421 -1.71681 0
M  V30 5164 C 471.482 5.1639 -1.2456 0
M  V30 5165 C 470.521 5.64567 -2.36497 0
M  V30 5166 N 469.658 6.75777 -1.90445 0
M  V30 5167 H 474.498 2.2779 -1.92135 0
M  V30 5168 H 472.035 1.1168 -0.957388 0
M  V30 5169 H 473.993 4.16068 -0.307166 0
M  V30 5170 H 472.623 3.21145 0.326462 0
M  V30 5171 H 471.675 3.17628 -2.09324 0
M  V30 5172 H 472.987 4.2816 -2.55891 0
M  V30 5173 H 472.141 5.99362 -0.940774 0
M  V30 5174 H 470.88 4.86266 -0.373662 0
M  V30 5175 H 469.885 4.80185 -2.67772 0
M  V30 5176 H 471.11 5.96716 -3.24202 0
M  V30 5177 H 469.056 6.47443 -1.05609 0
M  V30 5178 H 468.973 7.06818 -2.68223 0
M  V30 5179 H 470.241 7.62262 -1.63022 0
M  V30 5180 N 474.47 1.03057 1.19235 0
M  V30 5181 C 475.4 0.633497 2.24742 0
M  V30 5182 C 476.381 -0.358335 1.66283 0
M  V30 5183 O 477.566 -0.240676 1.92703 0
M  V30 5184 C 474.696 -0.0147648 3.47297 0
M  V30 5185 C 473.65 0.899527 4.18441 0
M  V30 5186 C 472.976 0.116281 5.34574 0
M  V30 5187 C 474.276 2.21404 4.73051 0
M  V30 5188 H 475.97 1.5155 2.58211 0
M  V30 5189 H 473.516 0.73014 1.24117 0
M  V30 5190 H 475.469 -0.304202 4.20301 0
M  V30 5191 H 474.193 -0.931577 3.13032 0
M  V30 5192 H 472.852 1.17319 3.47321 0
M  V30 5193 H 472.5 -0.802619 4.96555 0
M  V30 5194 H 472.2 0.725293 5.83107 0
M  V30 5195 H 473.724 -0.166376 6.10373 0
M  V30 5196 H 475.138 1.98601 5.37802 0
M  V30 5197 H 473.535 2.77512 5.32078 0
M  V30 5198 H 474.605 2.86752 3.91026 0
M  V30 5199 N 475.948 -1.35272 0.808662 0
M  V30 5200 C 477.176 -2.02946 0.402537 0
M  V30 5201 C 477.591 -1.60937 -0.987147 0
M  V30 5202 O 476.948 -0.807917 -1.63643 0
M  V30 5203 C 476.999 -3.58317 0.47868 0
M  V30 5204 O 476.72 -3.98799 1.81358 0
M  V30 5205 C 478.221 -4.43251 0.0656281 0
M  V30 5206 H 475.441 -0.650831 0.163279 0
M  V30 5207 H 477.985 -1.72849 1.09286 0
M  V30 5208 H 476.14 -3.87055 -0.163415 0
M  V30 5209 H 476.554 -4.93451 1.77781 0
M  V30 5210 H 478.028 -5.51738 0.170017 0
M  V30 5211 H 478.505 -4.27913 -0.989278 0
M  V30 5212 H 479.111 -4.19813 0.68096 0
M  V30 5213 N 477.426 -0.562348 -1.47226 0
M  V30 5214 C 478.336 0.185466 -2.33866 0
M  V30 5215 C 479.352 0.906713 -1.48508 0
M  V30 5216 O 480.528 0.874458 -1.81425 0
M  V30 5217 C 477.593 1.19904 -3.25306 0
M  V30 5218 C 476.654 0.484669 -4.26555 0
M  V30 5219 C 475.887 1.44996 -5.13626 0
M  V30 5220 O 476.11 2.68515 -5.03245 0
M  V30 5221 O 475.044 0.971642 -5.94006 0
M  V30 5222 H 478.87 -0.525361 -2.99121 0
M  V30 5223 H 476.455 -0.322916 -1.45868 0
M  V30 5224 H 478.337 1.78399 -3.81774 0
M  V30 5225 H 477.012 1.8917 -2.62672 0
M  V30 5226 H 475.919 -0.141605 -3.73832 0
M  V30 5227 H 477.252 -0.166634 -4.91918 0
M  V30 5228 N 478.904 1.54736 -0.299062 0
M  V30 5229 C 479.836 2.20891 0.61153 0
M  V30 5230 C 480.849 1.20104 1.09904 0
M  V30 5231 O 482.038 1.46707 1.01683 0
M  V30 5232 C 479.138 2.84018 1.84897 0
M  V30 5233 C 478.311 4.10719 1.50428 0
M  V30 5234 C 477.37 4.57667 2.59667 0
M  V30 5235 O 476.396 5.2291 2.24842 0
M  V30 5236 N 477.598 4.29821 3.90172 0
M  V30 5237 H 480.363 2.99666 0.0452001 0
M  V30 5238 H 477.924 1.61446 -0.121178 0
M  V30 5239 H 479.916 3.1236 2.5732 0
M  V30 5240 H 478.486 2.09095 2.32375 0
M  V30 5241 H 477.706 3.89408 0.612781 0
M  V30 5242 H 478.994 4.93223 1.24934 0
M  V30 5243 H 478.392 3.77549 4.21276 0
M  V30 5244 H 476.949 4.62877 4.58899 0
M  V30 5245 N 480.382 0.0267497 1.57577 0
M  V30 5246 C 481.607 -0.666227 1.96408 0
M  V30 5247 C 482.032 -1.65004 0.903071 0
M  V30 5248 O 481.39 -1.80787 -0.136263 0
M  V30 5249 C 481.438 -1.35101 3.34335 0
M  V30 5250 O 480.542 -2.46623 3.30531 0
M  V30 5251 H 479.883 -0.175206 0.640468 0
M  V30 5252 H 482.413 0.0878977 2.04411 0
M  V30 5253 H 482.423 -1.70834 3.70513 0
M  V30 5254 H 481.098 -0.629844 4.11103 0
M  V30 5255 H 479.675 -2.13019 3.06068 0
M  V30 5256 N 481.861 -1.55662 -0.24637 0
M  V30 5257 C 482.809 -1.91186 -1.3248 0
M  V30 5258 C 483.803 -0.790996 -1.49799 0
M  V30 5259 O 485.009 -0.975617 -1.51267 0
M  V30 5260 H 481.384 -0.607207 -0.443626 0
M  V30 5261 H 483.355 -2.81221 -0.997853 0
M  V30 5262 C 482.104 -2.22349 -2.67313 0
M  V30 5263 H 481.427 -3.08097 -2.54786 0
M  V30 5264 H 482.867 -2.51107 -3.41645 0
M  V30 5265 C 481.326 -1.04001 -3.20446 0
M  V30 5266 O 481.856 -0.28828 -4.00664 0
M  V30 5267 N 480.062 -0.830494 -2.7848 0
M  V30 5268 H 479.609 -1.4435 -2.13356 0
M  V30 5269 H 479.567 -0.0403258 -3.14374 0
M  V30 5270 N 483.339 0.512053 -1.4905 0
M  V30 5271 C 484.567 1.29116 -1.61669 0
M  V30 5272 C 484.982 1.86655 -0.283787 0
M  V30 5273 O 484.339 1.67293 0.729331 0
M  V30 5274 C 484.39 2.4293 -2.67707 0
M  V30 5275 O 484.111 1.87758 -3.95826 0
M  V30 5276 C 485.612 3.34476 -2.90931 0
M  V30 5277 H 482.832 0.392009 -0.544583 0
M  V30 5278 H 485.376 0.615881 -1.95006 0
M  V30 5279 H 483.531 3.06308 -2.37179 0
M  V30 5280 H 483.945 2.62393 -4.54148 0
M  V30 5281 H 485.419 4.10642 -3.68886 0
M  V30 5282 H 485.896 3.90801 -2.00427 0
M  V30 5283 H 486.502 2.76874 -3.22832 0
M  V30 5284 N 484.817 1.37938 0.762283 0
M  V30 5285 C 486.228 1.30094 1.33912 0
M  V30 5286 C 486.579 -0.0472026 1.96143 0
M  V30 5287 O 485.704 -0.94917 1.94473 0
M  V30 5288 C 486.299 2.35592 2.43478 0
M  V30 5289 C 484.858 2.31353 2.96905 0
M  V30 5290 C 484.005 2.18919 1.70205 0
M  V30 5291 H 486.956 1.48423 0.561816 0
M  V30 5292 H 486.977 2.00806 3.23199 0
M  V30 5293 H 486.489 3.33701 1.98155 0
M  V30 5294 H 484.59 1.36799 3.46579 0
M  V30 5295 H 484.703 3.25147 3.51875 0
M  V30 5296 H 483.067 1.65624 1.93496 0
M  V30 5297 H 483.85 3.18956 1.26973 0
M  V30 5298 N 486.295 -0.989507 1.22664 0
M  V30 5299 C 487.225 -2.09847 1.02404 0
M  V30 5300 C 488.206 -1.70007 -0.0561303 0
M  V30 5301 O 489.391 -1.93906 0.106748 0
M  V30 5302 C 486.521 -3.41996 0.604663 0
M  V30 5303 C 485.475 -3.95699 1.63115 0
M  V30 5304 C 484.801 -5.23936 1.0675 0
M  V30 5305 C 486.101 -4.25999 3.02196 0
M  V30 5306 H 487.795 -2.27054 1.95158 0
M  V30 5307 H 485.341 -1.09111 0.939727 0
M  V30 5308 H 487.294 -4.1899 0.45002 0
M  V30 5309 H 486.018 -3.24626 -0.35855 0
M  V30 5310 H 484.677 -3.2084 1.77362 0
M  V30 5311 H 484.325 -5.02909 0.0955422 0
M  V30 5312 H 484.025 -5.60833 1.75328 0
M  V30 5313 H 485.549 -6.0356 0.924516 0
M  V30 5314 H 486.963 -4.93777 2.91303 0
M  V30 5315 H 485.36 -4.74076 3.67929 0
M  V30 5316 H 486.43 -3.33636 3.51873 0
M  V30 5317 N 487.773 -1.03688 -1.18687 0
M  V30 5318 C 488.703 -0.645407 -2.24403 0
M  V30 5319 C 489.684 0.349511 -1.66471 0
M  V30 5320 O 490.869 0.230453 -1.92828 0
M  V30 5321 C 487.999 -0.00365337 -3.473 0
M  V30 5322 C 486.953 -0.921705 -4.17958 0
M  V30 5323 C 486.279 -0.144629 -5.34504 0
M  V30 5324 C 487.579 -2.23909 -4.71871 0
M  V30 5325 H 489.273 -1.52917 -2.57404 0
M  V30 5326 H 486.819 -0.736711 -1.23728 0
M  V30 5327 H 488.772 0.281908 -4.20456 0
M  V30 5328 H 487.496 0.914963 -3.13522 0
M  V30 5329 H 486.155 -1.19159 -3.46694 0
M  V30 5330 H 485.803 0.776274 -4.96974 0
M  V30 5331 H 485.503 -0.756206 -5.82714 0
M  V30 5332 H 487.027 0.134004 -6.10453 0
M  V30 5333 H 488.441 -2.0145 -5.36741 0
M  V30 5334 H 486.838 -2.8033 -5.30599 0
M  V30 5335 H 487.908 -2.88822 -3.895 0
M  V30 5336 N 489.251 1.34841 -0.815825 0
M  V30 5337 C 490.662 1.80937 -0.46029 0
M  V30 5338 C 491.013 1.67685 1.01863 0
M  V30 5339 O 490.138 1.21277 1.79223 0
M  V30 5340 C 490.733 3.28509 -0.828708 0
M  V30 5341 C 489.292 3.72712 -0.525644 0
M  V30 5342 C 488.439 2.56676 -1.04941 0
M  V30 5343 H 491.39 1.22688 -1.00664 0
M  V30 5344 H 491.411 3.80279 -0.129757 0
M  V30 5345 H 490.923 3.38122 -1.90513 0
M  V30 5346 H 489.024 3.68642 0.541666 0
M  V30 5347 H 489.137 4.67119 -1.06474 0
M  V30 5348 H 487.501 2.50302 -0.471286 0
M  V30 5349 H 488.284 2.69063 -2.13214 0
M  V30 5350 N 490.729 0.570148 1.46925 0
M  V30 5351 C 491.954 0.0542592 2.07329 0
M  V30 5352 C 492.379 -1.23582 1.41806 0
M  V30 5353 O 491.737 -1.74341 0.497479 0
M  V30 5354 C 491.785 -0.111175 3.60429 0
M  V30 5355 O 490.889 -1.17071 3.95434 0
M  V30 5356 H 490.23 0.0571425 0.661537 0
M  V30 5357 H 492.76 0.789516 1.88753 0
M  V30 5358 H 492.77 -0.321315 4.06733 0
M  V30 5359 H 491.445 0.831012 4.07513 0
M  V30 5360 H 490.022 -0.940029 3.60857 0
M  V30 5361 N 492.207 -1.54576 0.307264 0
M  V30 5362 C 493.454 -2.00263 -0.300167 0
M  V30 5363 C 493.782 -1.19561 -1.53413 0
M  V30 5364 O 493.037 -0.261487 -1.93945 0
M  V30 5365 C 493.336 -3.50572 -0.695253 0
M  V30 5366 C 493.002 -4.48771 0.437679 0
M  V30 5367 C 491.664 -4.7534 0.748681 0
M  V30 5368 C 494.016 -5.0721 1.19949 0
M  V30 5369 C 491.344 -5.5761 1.8245 0
M  V30 5370 C 493.696 -5.90651 2.26527 0
M  V30 5371 C 492.36 -6.15528 2.58227 0
M  V30 5372 H 491.63 -0.732814 -0.109839 0
M  V30 5373 H 494.277 -1.86664 0.427661 0
M  V30 5374 H 492.582 -3.61814 -1.50326 0
M  V30 5375 H 494.279 -3.83352 -1.17653 0
M  V30 5376 H 490.869 -4.282 0.185187 0
M  V30 5377 H 495.053 -4.86679 0.972474 0
M  V30 5378 H 490.309 -5.75121 2.07476 0
M  V30 5379 H 494.483 -6.34957 2.86011 0
M  V30 5380 H 492.11 -6.79066 3.4172 0
M  V30 5381 N 493.685 -0.035106 -1.57561 0
M  V30 5382 C 494.595 0.960295 -2.14046 0
M  V30 5383 C 495.611 1.3529 -1.0942 0
M  V30 5384 O 496.787 1.43309 -1.41508 0
M  V30 5385 C 493.852 2.22214 -2.66124 0
M  V30 5386 C 492.913 1.8894 -3.85487 0
M  V30 5387 C 492.146 3.09109 -4.35072 0
M  V30 5388 O 492.369 4.21963 -3.83802 0
M  V30 5389 O 491.303 2.91058 -5.26848 0
M  V30 5390 H 495.129 0.509983 -2.99387 0
M  V30 5391 H 492.714 0.185853 -1.48239 0
M  V30 5392 H 494.596 2.96279 -2.99661 0
M  V30 5393 H 493.271 2.66414 -1.83862 0
M  V30 5394 H 492.178 1.12241 -3.56865 0
M  V30 5395 H 493.511 1.49551 -4.6893 0
M  V30 5396 N 495.163 1.55791 0.238111 0
M  V30 5397 C 496.412 1.77234 0.962868 0
M  V30 5398 C 496.725 0.600661 1.86149 0
M  V30 5399 O 497.931 0.698315 2.62366 0
M  V30 5400 C 496.387 3.13808 1.76218 0
M  V30 5401 C 495.995 4.3865 0.910518 0
M  V30 5402 C 497.739 3.44585 2.47914 0
M  V30 5403 C 495.646 5.66252 1.70623 0
M  V30 5404 H 494.576 0.660731 0.36325 0
M  V30 5405 H 497.227 1.8221 0.217242 0
M  V30 5406 H 495.609 3.02963 2.55009 0
M  V30 5407 H 496.783 4.60507 0.164316 0
M  V30 5408 H 495.098 4.15271 0.30647 0
M  V30 5409 H 497.695 4.3714 3.07917 0
M  V30 5410 H 498.038 2.66314 3.19973 0
M  V30 5411 H 498.571 3.56685 1.76127 0
M  V30 5412 H 495.31 6.47369 1.02923 0
M  V30 5413 H 494.83 5.48483 2.42748 0
M  V30 5414 H 496.509 6.05829 2.27114 0
M  V30 5415 N 496.642 -0.504142 1.49319 0
M  V30 5416 C 497.89 -1.25598 1.58334 0
M  V30 5417 C 498.211 -1.93114 0.270538 0
M  V30 5418 O 497.481 -1.82585 -0.709891 0
M  V30 5419 H 496.061 -0.466571 0.58337 0
M  V30 5420 H 498.723 -0.584547 1.85928 0
M  V30 5421 H 497.819 -2.02159 2.37778 0
M  V30 5422 N 498.12 -1.38341 -0.754957 0
M  V30 5423 C 499.083 -1.35262 -1.85032 0
M  V30 5424 C 500.083 -0.253393 -1.58791 0
M  V30 5425 O 501.273 -0.510205 -1.66561 0
M  V30 5426 C 498.405 -1.10544 -3.22479 0
M  V30 5427 H 499.598 -2.32712 -1.8917 0
M  V30 5428 H 497.151 -1.23614 -0.956515 0
M  V30 5429 H 497.886 -0.136952 -3.24011 0
M  V30 5430 H 497.671 -1.90127 -3.4292 0
M  V30 5431 H 499.161 -1.11082 -4.02555 0
M  V30 5432 N 499.598 0.982988 -1.23187 0
M  V30 5433 C 500.844 1.7273 -1.07405 0
M  V30 5434 C 501.199 1.885 0.385447 0
M  V30 5435 O 500.492 1.4243 1.28157 0
M  V30 5436 C 500.686 3.12736 -1.73006 0
M  V30 5437 C 500.515 3.10621 -3.25184 0
M  V30 5438 C 499.285 3.15957 -3.94334 0
M  V30 5439 C 501.483 2.93992 -4.21987 0
M  V30 5440 N 499.465 3.03701 -5.33516 0
M  V30 5441 C 500.836 2.8987 -5.48065 0
M  V30 5442 C 502.891 2.78457 -4.12754 0
M  V30 5443 C 501.594 2.71804 -6.65969 0
M  V30 5444 C 503.62 2.61754 -5.30319 0
M  V30 5445 C 502.982 2.58328 -6.55321 0
M  V30 5446 H 499.081 0.641279 -0.447533 0
M  V30 5447 H 501.665 1.16664 -1.55877 0
M  V30 5448 H 499.836 3.67026 -1.2707 0
M  V30 5449 H 501.568 3.75786 -1.50224 0
M  V30 5450 H 498.323 3.24034 -3.45397 0
M  V30 5451 H 498.747 3.00855 -6.06478 0
M  V30 5452 H 503.389 2.79898 -3.16886 0
M  V30 5453 H 501.107 2.69108 -7.61975 0
M  V30 5454 H 504.693 2.50702 -5.25014 0
M  V30 5455 H 503.573 2.45564 -7.4476 0
M  V30 5456 N 501.076 1.04316 1.18135 0
M  V30 5457 C 502.304 0.768117 1.92113 0
M  V30 5458 C 502.719 -0.675057 1.76319 0
M  V30 5459 O 502.076 -1.46038 1.09449 0
M  V30 5460 C 502.127 1.12808 3.43448 0
M  V30 5461 O 501.848 2.5146 3.58747 0
M  V30 5462 C 503.349 0.8779 4.3452 0
M  V30 5463 H 500.569 0.279937 0.609817 0
M  V30 5464 H 503.113 1.39149 1.49859 0
M  V30 5465 H 501.268 0.549623 3.83481 0
M  V30 5466 H 501.682 2.65313 4.52448 0
M  V30 5467 H 503.156 1.17959 5.39249 0
M  V30 5468 H 503.633 -0.187239 4.38801 0
M  V30 5469 H 504.239 1.43977 4.00188 0
M  V30 5470 N 502.554 -1.34406 0.822964 0
M  V30 5471 C 503.464 -2.33298 0.246838 0
M  V30 5472 C 504.48 -1.62625 -0.618797 0
M  V30 5473 O 505.656 -1.94391 -0.526685 0
M  V30 5474 C 502.721 -3.41785 -0.581731 0
M  V30 5475 C 501.782 -4.28206 0.306309 0
M  V30 5476 C 501.015 -5.31512 -0.48281 0
M  V30 5477 O 501.238 -5.43973 -1.71607 0
M  V30 5478 O 500.172 -6.01749 0.134884 0
M  V30 5479 H 503.998 -2.84401 1.06534 0
M  V30 5480 H 501.583 -1.37466 0.585108 0
M  V30 5481 H 503.465 -4.08028 -1.05313 0
M  V30 5482 H 502.14 -2.92925 -1.37756 0
M  V30 5483 H 501.047 -3.64885 0.825199 0
M  V30 5484 H 502.38 -4.80507 1.06649 0
M  V30 5485 N 504.032 -0.577932 -1.46621 0
M  V30 5486 C 505.309 0.00495287 -1.95599 0
M  V30 5487 C 505.689 1.46428 -1.5206 0
M  V30 5488 O 505.037 2.1517 -0.769046 0
M  V30 5489 C 505.247 -0.162114 -3.48623 0
M  V30 5490 C 506.595 -0.0274623 -4.24591 0
M  V30 5491 O 507.619 -0.0907067 -3.56084 0
M  V30 5492 O 506.478 0.1122 -5.46385 0
M  V30 5493 H 503.572 0.0525057 -0.825332 0
M  V30 5494 H 506.118 -0.645914 -1.56927 0
M  V30 5495 H 504.89 -1.17679 -3.73185 0
M  V30 5496 H 504.513 0.525407 -3.94113 0
M  V30 5497 N 505.51 1.54411 -0.315457 0
M  V30 5498 C 506.787 1.92562 0.343398 0
M  V30 5499 C 507.167 1.24423 1.70535 0
M  V30 5500 O 506.515 0.385051 2.25232 0
M  V30 5501 C 506.725 3.46168 0.443687 0
M  V30 5502 C 508.073 4.18659 0.707783 0
M  V30 5503 O 509.097 3.52281 0.52693 0
M  V30 5504 O 507.956 5.36198 1.05612 0
M  V30 5505 H 505.05 0.80379 0.194552 0
M  V30 5506 H 507.596 1.65738 -0.364577 0
M  V30 5507 H 506.368 3.8792 -0.513172 0
M  V30 5508 H 505.991 3.79073 1.19956 0
M  V30 5509 N 506.988 0.0434614 1.5754 0
M  V30 5510 C 508.234 -0.632971 1.92669 0
M  V30 5511 C 508.567 -1.70947 0.921446 0
M  V30 5512 O 507.842 -1.94426 -0.0537202 0
M  V30 5513 C 508.125 -1.23619 3.38216 0
M  V30 5514 C 507.978 -0.168274 4.49485 0
M  V30 5515 C 509.297 -2.15008 3.84005 0
M  V30 5516 H 506.416 -0.228629 0.700641 0
M  V30 5517 H 509.058 0.103651 1.89717 0
M  V30 5518 H 507.208 -1.864 3.40863 0
M  V30 5519 H 508.88 0.463196 4.58969 0
M  V30 5520 H 507.123 0.504581 4.30855 0
M  V30 5521 H 507.794 -0.630218 5.48391 0
M  V30 5522 H 510.27 -1.62198 3.83185 0
M  V30 5523 H 509.146 -2.54161 4.86511 0
M  V30 5524 H 509.407 -3.04707 3.20322 0
M  V30 5525 N 508.466 -1.55915 -0.229846 0
M  V30 5526 C 509.696 -1.82352 -0.971152 0
M  V30 5527 C 510.104 -0.619231 -1.7878 0
M  V30 5528 O 509.447 0.421597 -1.78797 0
M  V30 5529 C 509.509 -3.02399 -1.9441 0
M  V30 5530 C 509.173 -4.37739 -1.31277 0
M  V30 5531 C 510.17 -5.15074 -0.706757 0
M  V30 5532 C 507.855 -4.84454 -1.32702 0
M  V30 5533 C 509.849 -6.37281 -0.123413 0
M  V30 5534 C 507.536 -6.06605 -0.739831 0
M  V30 5535 C 508.534 -6.82858 -0.139071 0
M  V30 5536 O 508.222 -8.027 0.439007 0
M  V30 5537 H 507.954 -0.61035 -0.290601 0
M  V30 5538 H 510.508 -2.03839 -0.252746 0
M  V30 5539 H 508.738 -2.76709 -2.70128 0
M  V30 5540 H 510.427 -3.15779 -2.55026 0
M  V30 5541 H 511.193 -4.80093 -0.688131 0
M  V30 5542 H 507.072 -4.25081 -1.78402 0
M  V30 5543 H 510.616 -6.96741 0.346124 0
M  V30 5544 H 506.513 -6.4106 -0.755841 0
M  V30 5545 H 507.281 -8.17824 0.332521 0
M  V30 5546 N 509.944 0.496216 -1.49584 0
M  V30 5547 C 511.184 1.26015 -1.60933 0
M  V30 5548 C 511.548 1.89772 -0.291646 0
M  V30 5549 O 512.749 2.67334 -0.280357 0
M  V30 5550 C 511.02 2.29506 -2.73974 0
M  V30 5551 S 512.579 3.15175 -3.05303 0
M  V30 5552 H 509.397 0.428194 -0.567601 0
M  V30 5553 H 511.999 0.561484 -1.87263 0
M  V30 5554 H 510.703 1.81205 -3.68229 0
M  V30 5555 H 510.234 3.04036 -2.49651 0
M  V30 5556 H 512.249 4.30244 -2.47193 0
M  V30 5557 N 511.423 1.38739 0.74761 0
M  V30 5558 C 512.669 1.3648 1.50814 0
M  V30 5559 C 513.024 -0.0431982 1.92351 0
M  V30 5560 O 512.317 -1.0071 1.62997 0
M  V30 5561 C 512.511 2.25992 2.7688 0
M  V30 5562 C 512.34 3.75354 2.47668 0
M  V30 5563 C 511.11 4.44348 2.40589 0
M  V30 5564 C 513.308 4.67642 2.14046 0
M  V30 5565 N 511.29 5.79114 2.03715 0
M  V30 5566 C 512.661 5.90965 1.87512 0
M  V30 5567 C 514.716 4.55787 2.00407 0
M  V30 5568 C 513.419 7.03759 1.48714 0
M  V30 5569 C 515.445 5.68491 1.63011 0
M  V30 5570 C 514.807 6.90879 1.37353 0
M  V30 5571 H 510.906 0.554695 0.551214 0
M  V30 5572 H 513.49 1.7418 0.870033 0
M  V30 5573 H 511.661 1.9047 3.3849 0
M  V30 5574 H 513.393 2.14815 3.42982 0
M  V30 5575 H 510.148 3.97634 2.57262 0
M  V30 5576 H 510.572 6.504 1.87906 0
M  V30 5577 H 515.214 3.61712 2.18916 0
M  V30 5578 H 512.932 7.97746 1.28945 0
M  V30 5579 H 516.518 5.613 1.53081 0
M  V30 5580 H 515.398 7.76609 1.08848 0
M  V30 5581 N 512.901 -0.976442 1.23707 0
M  V30 5582 C 514.147 -1.72081 1.07312 0
M  V30 5583 C 514.48 -1.90275 -0.388476 0
M  V30 5584 O 513.755 -1.4579 -1.28746 0
M  V30 5585 C 514.038 -3.11675 1.80363 0
M  V30 5586 C 513.891 -3.01027 3.3422 0
M  V30 5587 C 515.21 -4.1117 1.5693 0
M  V30 5588 H 512.329 -0.624583 0.391236 0
M  V30 5589 H 514.971 -1.13649 1.52263 0
M  V30 5590 H 513.121 -3.61559 1.42153 0
M  V30 5591 H 514.793 -2.58637 3.81975 0
M  V30 5592 H 513.036 -2.3744 3.63049 0
M  V30 5593 H 513.707 -3.9988 3.80525 0
M  V30 5594 H 516.183 -3.7011 1.90151 0
M  V30 5595 H 515.059 -5.06928 2.10513 0
M  V30 5596 H 515.32 -4.392 0.505548 0
M  V30 5597 N 514.379 -1.04941 -1.1758 0
M  V30 5598 C 515.311 -0.606174 -2.21039 0
M  V30 5599 C 516.324 0.328763 -1.59446 0
M  V30 5600 O 517.513 0.121895 -1.78083 0
M  V30 5601 C 514.613 0.133294 -3.38638 0
M  V30 5602 C 513.786 -0.811711 -4.29802 0
M  V30 5603 C 512.845 -0.113958 -5.26077 0
M  V30 5604 O 511.871 -0.747237 -5.64274 0
M  V30 5605 N 513.073 1.14953 -5.69004 0
M  V30 5606 H 515.838 -1.49606 -2.59689 0
M  V30 5607 H 513.399 -0.930997 -1.32454 0
M  V30 5608 H 515.391 0.610144 -4.00074 0
M  V30 5609 H 513.961 0.924816 -2.98607 0
M  V30 5610 H 513.181 -1.46824 -3.65837 0
M  V30 5611 H 514.469 -1.45326 -4.87604 0
M  V30 5612 H 513.867 1.68441 -5.40041 0
M  V30 5613 H 512.424 1.57049 -6.32597 0
M  V30 5614 N 515.857 1.33968 -0.830081 0
M  V30 5615 C 516.789 2.28194 -0.21448 0
M  V30 5616 C 517.802 1.5135 0.599752 0
M  V30 5617 O 518.991 1.73286 0.42826 0
M  V30 5618 C 516.091 3.31221 0.717356 0
M  V30 5619 C 515.264 4.37365 -0.055613 0
M  V30 5620 C 514.323 5.2011 0.798231 0
M  V30 5621 O 513.349 5.68691 0.240616 0
M  V30 5622 N 514.551 5.40523 2.11695 0
M  V30 5623 H 517.316 2.81662 -1.02405 0
M  V30 5624 H 514.877 1.46568 -0.687713 0
M  V30 5625 H 516.869 3.83477 1.29334 0
M  V30 5626 H 515.439 2.78095 1.42765 0
M  V30 5627 H 514.659 3.85727 -0.812936 0
M  V30 5628 H 515.947 5.05397 -0.587444 0
M  V30 5629 H 515.345 5.0274 2.59363 0
M  V30 5630 H 513.902 5.95871 2.64162 0
M  V30 5631 N 517.335 0.585699 1.46312 0
M  V30 5632 C 518.265 -0.133556 2.33118 0
M  V30 5633 C 519.246 -0.880707 1.45525 0
M  V30 5634 O 520.431 -0.855579 1.74337 0
M  V30 5635 C 517.561 -1.14585 3.27853 0
M  V30 5636 C 516.515 -0.513341 4.2491 0
M  V30 5637 C 515.841 -1.63231 5.09175 0
M  V30 5638 C 517.141 0.551413 5.19381 0
M  V30 5639 H 518.835 0.59121 2.93505 0
M  V30 5640 H 516.381 0.285761 1.41136 0
M  V30 5641 H 518.334 -1.65741 3.87438 0
M  V30 5642 H 517.058 -1.90093 2.65579 0
M  V30 5643 H 515.717 -0.0228349 3.66593 0
M  V30 5644 H 515.365 -2.37713 4.43285 0
M  V30 5645 H 515.065 -1.21473 5.74907 0
M  V30 5646 H 516.589 -2.14658 5.71624 0
M  V30 5647 H 518.003 0.124804 5.73164 0
M  V30 5648 H 516.4 0.889486 5.93471 0
M  V30 5649 H 517.47 1.43655 4.63132 0
M  V30 5650 N 518.813 -1.54241 0.323641 0
M  V30 5651 C 520.059 -2.00867 -0.279323 0
M  V30 5652 C 520.392 -1.21146 -1.5178 0
M  V30 5653 O 519.667 -0.29378 -1.92269 0
M  V30 5654 C 519.95 -3.54837 -0.613387 0
M  V30 5655 C 519.803 -4.45284 0.635803 0
M  V30 5656 C 521.122 -4.16186 -1.43099 0
M  V30 5657 H 518.241 -0.730177 -0.100049 0
M  V30 5658 H 520.883 -1.84829 0.440235 0
M  V30 5659 H 519.033 -3.68634 -1.22641 0
M  V30 5660 H 520.705 -4.43357 1.27406 0
M  V30 5661 H 518.948 -4.14956 1.26466 0
M  V30 5662 H 519.619 -5.5084 0.357597 0
M  V30 5663 H 522.095 -4.05964 -0.912814 0
M  V30 5664 H 520.971 -5.24031 -1.6335 0
M  V30 5665 H 521.232 -3.69516 -2.42715 0
M  V30 5666 N 520.291 -0.0518155 -1.57515 0
M  V30 5667 C 521.707 0.304735 -1.56664 0
M  V30 5668 C 521.907 1.71395 -1.05953 0
M  V30 5669 O 520.963 2.42123 -0.716414 0
M  V30 5670 C 522.276 0.132614 -3.00407 0
M  V30 5671 C 523.824 0.20367 -3.12337 0
M  V30 5672 C 524.299 0.0600706 -4.57961 0
M  V30 5673 N 525.79 0.116326 -4.63054 0
M  V30 5674 C 526.525 0.0293363 -5.73392 0
M  V30 5675 N 526.021 -0.110038 -6.92713 0
M  V30 5676 N 527.814 0.0849651 -5.62036 0
M  V30 5677 H 519.965 -0.973056 -1.888 0
M  V30 5678 H 522.228 -0.377781 -0.869474 0
M  V30 5679 H 521.934 -0.839019 -3.41546 0
M  V30 5680 H 521.808 0.893376 -3.66468 0
M  V30 5681 H 524.195 1.16578 -2.71097 0
M  V30 5682 H 524.276 -0.587857 -2.48954 0
M  V30 5683 H 523.92 -0.898715 -4.99886 0
M  V30 5684 H 523.85 0.87075 -5.19351 0
M  V30 5685 H 526.341 0.22327 -3.7724 0
M  V30 5686 H 526.654 -0.169104 -7.72615 0
M  V30 5687 H 524.999 -0.145132 -6.94848 0
M  V30 5688 H 528.19 0.192411 -4.67704 0
M  V30 5689 H 528.363 0.0137131 -6.47999 0
M  V30 5690 N 521.769 1.56035 0.221574 0
M  V30 5691 C 522.716 1.92413 1.27459 0
M  V30 5692 C 523.686 0.781323 1.46576 0
M  V30 5693 O 524.871 1.03721 1.60145 0
M  V30 5694 C 522.011 2.24617 2.61995 0
M  V30 5695 C 521.124 3.51831 2.50677 0
M  V30 5696 C 520.259 3.73482 3.77736 0
M  V30 5697 C 519.298 4.94211 3.6114 0
M  V30 5698 N 518.435 5.12252 4.80148 0
M  V30 5699 H 523.275 2.82203 0.957355 0
M  V30 5700 H 520.812 1.39676 0.461415 0
M  V30 5701 H 522.77 2.41298 3.40339 0
M  V30 5702 H 521.4 1.38 2.91815 0
M  V30 5703 H 520.452 3.43343 1.63767 0
M  V30 5704 H 521.764 4.40328 2.34334 0
M  V30 5705 H 520.918 3.9026 4.64523 0
M  V30 5706 H 519.657 2.83266 3.97003 0
M  V30 5707 H 518.662 4.77384 2.72736 0
M  V30 5708 H 519.887 5.85912 3.43343 0
M  V30 5709 H 517.833 4.24978 4.99729 0
M  V30 5710 H 517.75 5.94881 4.66532 0
M  V30 5711 H 519.018 5.33465 5.68362 0
M  V30 5712 N 523.247 -0.488276 1.49845 0
M  V30 5713 C 524.495 -1.23911 1.59657 0
M  V30 5714 C 524.816 -1.92816 0.291005 0
M  V30 5715 O 524.086 -1.83328 -0.690485 0
M  V30 5716 H 522.666 -0.460357 0.588286 0
M  V30 5717 H 525.328 -0.564794 1.86537 0
M  V30 5718 H 524.424 -1.99625 2.39909 0
M  V30 5719 N 524.725 -1.39134 -0.740242 0
M  V30 5720 C 526.002 -1.26584 -1.49117 0
M  V30 5721 C 526.382 0.126902 -2.10718 0
M  V30 5722 O 525.73 1.13765 -1.98166 0
M  V30 5723 C 525.94 -2.38619 -2.54681 0
M  V30 5724 C 527.288 -2.77685 -3.21211 0
M  V30 5725 O 528.312 -2.38029 -2.64991 0
M  V30 5726 O 527.171 -3.46115 -4.22926 0
M  V30 5727 H 524.265 -0.495769 -0.661923 0
M  V30 5728 H 526.811 -1.50995 -0.774514 0
M  V30 5729 H 525.583 -3.3175 -2.07504 0
M  V30 5730 H 525.206 -2.15845 -3.33911 0
M  V30 5731 N 526.204 0.969867 -1.24223 0
M  V30 5732 C 527.429 1.75289 -1.10853 0
M  V30 5733 C 527.854 1.85091 0.335079 0
M  V30 5734 O 527.212 1.32024 1.24255 0
M  V30 5735 C 527.26 3.15255 -1.75062 0
M  V30 5736 O 526.364 3.99589 -1.01992 0
M  V30 5737 H 525.705 0.538904 -0.387915 0
M  V30 5738 H 528.235 1.21675 -1.64488 0
M  V30 5739 H 528.245 3.65787 -1.80731 0
M  V30 5740 H 526.92 3.07436 -2.801 0
M  V30 5741 H 525.497 3.58077 -1.04094 0
M  V30 5742 N 527.682 1.05563 1.17022 0
M  V30 5743 C 528.907 0.788437 1.91829 0
M  V30 5744 C 529.332 -0.650356 1.76499 0
M  V30 5745 O 528.69 -1.45229 1.08527 0
M  V30 5746 C 528.738 1.1786 3.40795 0
M  V30 5747 O 527.842 0.312965 4.11211 0
M  V30 5748 H 527.183 0.288794 0.597908 0
M  V30 5749 H 529.713 1.40948 1.48307 0
M  V30 5750 H 529.723 1.14697 3.91546 0
M  V30 5751 H 528.398 2.22666 3.51273 0
M  V30 5752 H 526.975 0.405515 3.70689 0
M  V30 5753 N 529.16 -1.33526 0.837174 0
M  V30 5754 C 530.123 -2.27551 0.274421 0
M  V30 5755 C 531.123 -1.50886 -0.555881 0
M  V30 5756 O 532.313 -1.70227 -0.369918 0
M  V30 5757 C 529.445 -3.35332 -0.613605 0
M  V30 5758 H 530.638 -2.78837 1.10408 0
M  V30 5759 H 528.191 -1.439 0.610126 0
M  V30 5760 H 528.926 -2.89285 -1.46577 0
M  V30 5761 H 528.711 -3.92095 -0.0195341 0
M  V30 5762 H 530.201 -4.05433 -1.00068 0
M  V30 5763 N 530.638 -0.59345 -1.46 0
M  V30 5764 C 531.548 0.135817 -2.34207 0
M  V30 5765 C 532.564 0.875008 -1.50398 0
M  V30 5766 O 533.74 0.835778 -1.83239 0
M  V30 5767 C 530.805 1.12977 -3.27776 0
M  V30 5768 C 529.866 0.394081 -4.27487 0
M  V30 5769 C 529.099 1.34068 -5.16586 0
M  V30 5770 O 529.322 2.5778 -5.08828 0
M  V30 5771 O 528.256 0.845426 -5.95933 0
M  V30 5772 H 532.082 -0.588691 -2.9794 0
M  V30 5773 H 529.667 -0.353784 -1.45151 0
M  V30 5774 H 531.549 1.70261 -3.85473 0
M  V30 5775 H 530.224 1.83556 -2.66625 0
M  V30 5776 H 529.131 -0.220869 -3.73447 0
M  V30 5777 H 530.464 -0.270939 -4.91454 0
M  V30 5778 N 532.116 1.54067 -0.331816 0
M  V30 5779 C 533.049 2.20886 0.573127 0
M  V30 5780 C 534.027 1.18876 1.10938 0
M  V30 5781 O 535.211 1.47649 1.17184 0
M  V30 5782 C 532.338 2.87706 1.78726 0
M  V30 5783 C 531.384 4.03505 1.38152 0
M  V30 5784 S 532.217 5.33919 0.41123 0
M  V30 5785 C 533.373 6.04236 1.63246 0
M  V30 5786 H 533.606 2.97299 0.00555737 0
M  V30 5787 H 531.139 1.53964 -0.115893 0
M  V30 5788 H 533.097 3.26825 2.48386 0
M  V30 5789 H 531.758 2.1108 2.32603 0
M  V30 5790 H 530.951 4.49152 2.28645 0
M  V30 5791 H 530.553 3.66102 0.764524 0
M  V30 5792 H 532.845 6.26917 2.56869 0
M  V30 5793 H 533.788 6.97546 1.218 0
M  V30 5794 H 534.196 5.34247 1.82318 0
M  V30 5795 N 533.594 0.0601682 1.57485 0
M  V30 5796 C 534.819 -0.624416 1.97777 0
M  V30 5797 C 535.244 -1.63051 0.937867 0
M  V30 5798 O 534.602 -1.81036 -0.0978845 0
M  V30 5799 C 534.65 -1.27979 3.37126 0
M  V30 5800 O 533.754 -2.39556 3.35688 0
M  V30 5801 H 533.095 -0.161581 0.64404 0
M  V30 5802 H 535.625 0.131237 2.04179 0
M  V30 5803 H 535.635 -1.62937 3.74053 0
M  V30 5804 H 534.31 -0.542501 4.12347 0
M  V30 5805 H 532.887 -2.06478 3.10517 0
M  V30 5806 N 535.072 -1.5615 -0.213296 0
M  V30 5807 C 536.318 -1.79812 -0.937849 0
M  V30 5808 C 536.651 -0.631201 -1.83656 0
M  V30 5809 O 535.926 0.369165 -1.90964 0
M  V30 5810 C 536.209 -3.13613 -1.76972 0
M  V30 5811 C 536.062 -4.40766 -0.89695 0
M  V30 5812 C 537.381 -3.43931 -2.7459 0
M  V30 5813 H 534.5 -0.654138 -0.339518 0
M  V30 5814 H 537.142 -1.88877 -0.20623 0
M  V30 5815 H 535.292 -3.06015 -2.39347 0
M  V30 5816 H 536.964 -4.60392 -0.289306 0
M  V30 5817 H 535.207 -4.33326 -0.202756 0
M  V30 5818 H 535.878 -5.30843 -1.51358 0
M  V30 5819 H 538.354 -3.5171 -2.22349 0
M  V30 5820 H 537.23 -4.38706 -3.29891 0
M  V30 5821 H 537.491 -2.6651 -3.52739 0
M  V30 5822 N 536.55 0.480323 -1.50102 0
M  V30 5823 C 537.78 1.25475 -1.64133 0
M  V30 5824 C 538.188 1.8647 -0.320272 0
M  V30 5825 O 537.531 1.69561 0.70673 0
M  V30 5826 C 537.593 2.40996 -2.6676 0
M  V30 5827 C 537.257 2.00711 -4.10565 0
M  V30 5828 C 538.254 1.53492 -4.96725 0
M  V30 5829 C 535.939 2.09714 -4.56427 0
M  V30 5830 C 537.933 1.15806 -6.26792 0
M  V30 5831 C 535.62 1.7164 -5.86501 0
M  V30 5832 C 536.618 1.24763 -6.71508 0
M  V30 5833 O 536.306 0.872122 -7.99155 0
M  V30 5834 H 536.038 0.385983 -0.554971 0
M  V30 5835 H 538.592 0.580848 -1.97016 0
M  V30 5836 H 536.822 3.11528 -2.291 0
M  V30 5837 H 538.511 3.02981 -2.70106 0
M  V30 5838 H 539.277 1.45966 -4.62514 0
M  V30 5839 H 535.156 2.4515 -3.90413 0
M  V30 5840 H 538.7 0.791465 -6.93096 0
M  V30 5841 H 534.597 1.78822 -6.20236 0
M  V30 5842 H 535.365 1.00178 -8.12346 0
M  V30 5843 N 538.028 1.39524 0.732853 0
M  V30 5844 C 538.991 1.38189 1.82857 0
M  V30 5845 C 539.991 0.278624 1.58368 0
M  V30 5846 O 541.181 0.536639 1.65728 0
M  V30 5847 C 538.313 1.15661 3.2068 0
M  V30 5848 H 539.506 2.35692 1.85444 0
M  V30 5849 H 537.059 1.2512 0.936728 0
M  V30 5850 H 537.794 0.188482 3.23752 0
M  V30 5851 H 537.579 1.95559 3.39852 0
M  V30 5852 H 539.069 1.17472 4.00737 0
M  V30 5853 N 539.506 -0.963266 1.24736 0
M  V30 5854 C 540.731 -1.74699 1.11781 0
M  V30 5855 C 541.156 -1.85267 -0.325258 0
M  V30 5856 O 540.514 -1.32681 -1.23553 0
M  V30 5857 C 540.562 -3.14322 1.76731 0
M  V30 5858 O 539.666 -3.99043 1.04109 0
M  V30 5859 H 539.007 -0.53684 0.390767 0
M  V30 5860 H 541.537 -1.20801 1.65131 0
M  V30 5861 H 541.547 -3.64824 1.82668 0
M  V30 5862 H 540.222 -3.05946 2.81726 0
M  V30 5863 H 538.799 -3.5752 1.05991 0
M  V30 5864 N 540.985 -1.06182 -1.16461 0
M  V30 5865 C 541.915 -0.692861 -2.22984 0
M  V30 5866 C 542.896 0.314122 -1.67174 0
M  V30 5867 O 544.081 0.189499 -1.93273 0
M  V30 5868 C 541.211 -0.07732 -3.47214 0
M  V30 5869 C 540.165 -1.01015 -4.15909 0
M  V30 5870 C 539.491 -0.257973 -5.34077 0
M  V30 5871 C 540.791 -2.33868 -4.67015 0
M  V30 5872 H 542.485 -1.58343 -2.54102 0
M  V30 5873 H 540.031 -0.76279 -1.22137 0
M  V30 5874 H 541.984 0.19266 -4.20959 0
M  V30 5875 H 540.708 0.848254 -3.15392 0
M  V30 5876 H 539.367 -1.26486 -3.44088 0
M  V30 5877 H 539.015 0.670684 -4.98509 0
M  V30 5878 H 538.715 -0.879638 -5.80979 0
M  V30 5879 H 540.239 0.00448788 -6.106 0
M  V30 5880 H 541.653 -2.1279 -5.32347 0
M  V30 5881 H 540.05 -2.91522 -5.24533 0
M  V30 5882 H 541.12 -2.97019 -3.83286 0
M  V30 5883 N 542.463 1.3308 -0.844243 0
M  V30 5884 C 543.71 1.97605 -0.44255 0
M  V30 5885 C 544.038 1.66856 0.999458 0
M  V30 5886 O 543.293 0.943586 1.7145 0
M  V30 5887 C 543.592 3.52045 -0.616354 0
M  V30 5888 C 543.258 4.02757 -2.02726 0
M  V30 5889 C 541.92 4.16316 -2.41317 0
M  V30 5890 C 544.272 4.29776 -2.9486 0
M  V30 5891 C 541.6 4.54232 -3.71335 0
M  V30 5892 C 543.952 4.69146 -4.24364 0
M  V30 5893 C 542.616 4.80911 -4.62904 0
M  V30 5894 H 541.886 0.723088 -0.161941 0
M  V30 5895 H 544.533 1.58663 -1.0723 0
M  V30 5896 H 542.838 3.91681 0.0966812 0
M  V30 5897 H 544.535 3.99981 -0.285756 0
M  V30 5898 H 541.125 3.9268 -1.71756 0
M  V30 5899 H 545.309 4.18818 -2.6628 0
M  V30 5900 H 540.565 4.61535 -4.00993 0
M  V30 5901 H 544.739 4.89008 -4.95827 0
M  V30 5902 H 542.366 5.10048 -5.63698 0
M  V30 5903 N 543.941 0.601185 1.45683 0
M  V30 5904 C 544.888 -0.121396 2.30481 0
M  V30 5905 C 545.858 -0.866232 1.41724 0
M  V30 5906 O 547.043 -0.85324 1.70659 0
M  V30 5907 C 544.183 -1.11704 3.26521 0
M  V30 5908 C 543.296 -0.373741 4.3038 0
M  V30 5909 C 542.431 -1.35854 5.13534 0
M  V30 5910 C 541.47 -0.602689 6.09126 0
M  V30 5911 N 540.607 -1.53645 6.85082 0
M  V30 5912 H 545.447 0.607732 2.91737 0
M  V30 5913 H 542.984 0.311502 1.43764 0
M  V30 5914 H 544.942 -1.70735 3.80664 0
M  V30 5915 H 543.572 -1.81366 2.67032 0
M  V30 5916 H 542.624 0.331962 3.78949 0
M  V30 5917 H 543.936 0.2163 4.98331 0
M  V30 5918 H 543.09 -2.02111 5.72046 0
M  V30 5919 H 541.829 -1.98251 4.45587 0
M  V30 5920 H 540.834 0.0735482 5.49751 0
M  V30 5921 H 542.059 0.0161467 6.79098 0
M  V30 5922 H 540.005 -2.14819 6.1983 0
M  V30 5923 H 539.922 -0.999688 7.49361 0
M  V30 5924 H 541.19 -2.1888 7.48139 0
M  V30 5925 N 545.419 -1.53889 0.339982 0
M  V30 5926 C 546.329 -2.28604 -0.526988 0
M  V30 5927 C 547.345 -1.33578 -1.11503 0
M  V30 5928 O 548.521 -1.66612 -1.13148 0
M  V30 5929 C 545.586 -3.04164 -1.66389 0
M  V30 5930 C 544.647 -4.14809 -1.10599 0
M  V30 5931 C 543.88 -4.86756 -2.18871 0
M  V30 5932 O 544.103 -4.58343 -3.39526 0
M  V30 5933 O 543.037 -5.73289 -1.83366 0
M  V30 5934 H 546.863 -3.03594 0.0802707 0
M  V30 5935 H 544.448 -1.4903 0.105141 0
M  V30 5936 H 546.33 -3.51427 -2.32544 0
M  V30 5937 H 545.005 -2.32035 -2.25703 0
M  V30 5938 H 543.912 -3.71857 -0.409067 0
M  V30 5939 H 545.245 -4.89029 -0.557771 0
M  V30 5940 N 546.897 -0.0685191 -1.57451 0
M  V30 5941 C 547.845 0.917577 -2.13736 0
M  V30 5942 C 548.839 1.31049 -1.07344 0
M  V30 5943 O 550.045 1.28811 -1.25728 0
M  V30 5944 H 546.42 0.313835 -0.683382 0
M  V30 5945 H 548.391 0.417903 -2.95459 0
M  V30 5946 C 547.14 2.17686 -2.71123 0
M  V30 5947 H 546.463 1.88336 -3.52661 0
M  V30 5948 H 547.903 2.84803 -3.14107 0
M  V30 5949 C 546.362 2.9332 -1.65726 0
M  V30 5950 O 546.892 3.86901 -1.08031 0
M  V30 5951 N 545.098 2.56367 -1.36837 0
M  V30 5952 H 544.645 1.80341 -1.83943 0
M  V30 5953 H 544.603 3.07276 -0.665501 0
M  V30 5954 N 548.375 1.56261 0.205012 0
M  V30 5955 C 549.323 1.94631 1.27364 0
M  V30 5956 C 550.317 0.830434 1.47649 0
M  V30 5957 O 551.523 1.01538 1.48627 0
M  V30 5958 H 547.898 0.618755 0.427371 0
M  V30 5959 H 549.869 2.83768 0.922941 0
M  V30 5960 C 548.618 2.29358 2.61324 0
M  V30 5961 H 547.941 3.14744 2.46528 0
M  V30 5962 H 549.381 2.60076 3.34868 0
M  V30 5963 C 547.84 1.12461 3.17575 0
M  V30 5964 O 548.37 0.394407 3.99759 0
M  V30 5965 N 546.576 0.904036 2.7618 0
M  V30 5966 H 546.123 1.49956 2.09454 0
M  V30 5967 H 546.081 0.123662 3.14157 0
M  V30 5968 N 549.853 -0.472356 1.50355 0
M  V30 5969 C 551.102 -1.2213 1.60522 0
M  V30 5970 C 551.415 -1.9312 0.310466 0
M  V30 5971 O 552.621 -2.69936 0.291029 0
M  V30 5972 C 551.077 -2.21909 2.83345 0
M  V30 5973 C 550.685 -1.56727 4.19691 0
M  V30 5974 C 552.429 -2.97453 3.02856 0
M  V30 5975 C 550.336 -2.54785 5.33703 0
M  V30 5976 H 549.266 -0.459543 0.597776 0
M  V30 5977 H 551.917 -0.491922 1.76783 0
M  V30 5978 H 550.299 -2.98133 2.60639 0
M  V30 5979 H 551.473 -0.863007 4.52646 0
M  V30 5980 H 549.788 -0.934685 4.05774 0
M  V30 5981 H 552.385 -3.70838 3.85205 0
M  V30 5982 H 552.728 -3.56764 2.14534 0
M  V30 5983 H 553.261 -2.28342 3.25737 0
M  V30 5984 H 550 -2.00214 6.24175 0
M  V30 5985 H 549.52 -3.23367 5.05167 0
M  V30 5986 H 551.199 -3.16639 5.64224 0
M  V30 5987 N 551.331 -1.39911 -0.725443 0
M  V30 5988 C 552.559 -1.40949 -1.51463 0
M  V30 5989 C 552.974 -0.0065242 -1.88799 0
M  V30 5990 O 552.331 0.967163 -1.54765 0
M  V30 5991 C 552.382 -2.29119 -2.79619 0
M  V30 5992 O 552.103 -3.63952 -2.43866 0
M  V30 5993 C 553.604 -2.38642 -3.73584 0
M  V30 5994 H 550.824 -0.481091 -0.467752 0
M  V30 5995 H 553.368 -1.83843 -0.895651 0
M  V30 5996 H 551.523 -1.89612 -3.37826 0
M  V30 5997 H 551.937 -4.10677 -3.26258 0
M  V30 5998 H 553.411 -3.04563 -4.60375 0
M  V30 5999 H 553.888 -1.40846 -4.16004 0
M  V30 6000 H 554.494 -2.78659 -3.21293 0
M  V30 6001 N 552.809 0.956637 -1.25245 0
M  V30 6002 C 554.057 1.69764 -1.09657 0
M  V30 6003 C 554.378 1.91583 0.363464 0
M  V30 6004 O 553.648 1.50149 1.25825 0
M  V30 6005 H 552.228 0.629097 -0.402798 0
M  V30 6006 H 554.89 1.15026 -1.57337 0
M  V30 6007 H 553.986 2.67769 -1.60331 0
M  V30 6008 N 554.287 1.06798 1.15896 0
M  V30 6009 C 555.234 0.683314 2.20453 0
M  V30 6010 C 556.204 -0.32255 1.62938 0
M  V30 6011 O 557.389 -0.210276 1.89638 0
M  V30 6012 C 554.529 0.0813266 3.45004 0
M  V30 6013 C 553.642 1.13799 4.16742 0
M  V30 6014 C 552.777 0.501598 5.28826 0
M  V30 6015 C 551.816 1.54144 5.92373 0
M  V30 6016 N 550.953 0.928038 6.9594 0
M  V30 6017 H 555.793 1.57932 2.52708 0
M  V30 6018 H 553.33 0.789544 1.24115 0
M  V30 6019 H 555.288 -0.285274 4.16224 0
M  V30 6020 H 553.918 -0.77806 3.13283 0
M  V30 6021 H 552.97 1.62223 3.44075 0
M  V30 6022 H 554.282 1.92664 4.60089 0
M  V30 6023 H 553.436 0.0823162 6.06644 0
M  V30 6024 H 552.175 -0.318883 4.86656 0
M  V30 6025 H 551.18 1.97056 5.13273 0
M  V30 6026 H 552.405 2.3641 6.36621 0
M  V30 6027 H 550.351 0.12836 6.55874 0
M  V30 6028 H 550.268 1.65401 7.37685 0
M  V30 6029 H 551.536 0.534071 7.77668 0
M  V30 6030 N 555.766 -1.3263 0.851289 0
M  V30 6031 C 557.182 -1.50162 0.5407 0
M  V30 6032 C 557.382 -1.78788 -0.929369 0
M  V30 6033 O 556.438 -1.85545 -1.71258 0
M  V30 6034 C 557.751 -2.64803 1.42478 0
M  V30 6035 C 559.299 -2.78688 1.42485 0
M  V30 6036 C 559.774 -3.96405 2.29407 0
M  V30 6037 N 561.265 -4.0366 2.27184 0
M  V30 6038 C 562 -4.93971 2.9117 0
M  V30 6039 N 561.496 -5.89313 3.64256 0
M  V30 6040 N 563.289 -4.87066 2.80576 0
M  V30 6041 H 555.44 -1.12315 1.80275 0
M  V30 6042 H 557.703 -0.553266 0.769806 0
M  V30 6043 H 557.409 -2.50368 2.46999 0
M  V30 6044 H 557.283 -3.60506 1.10974 0
M  V30 6045 H 559.67 -2.92547 0.387304 0
M  V30 6046 H 559.751 -1.83708 1.78002 0
M  V30 6047 H 559.395 -3.83304 3.33228 0
M  V30 6048 H 559.325 -4.90654 1.91224 0
M  V30 6049 H 561.816 -3.35435 1.74045 0
M  V30 6050 H 562.129 -6.54913 4.10255 0
M  V30 6051 H 560.474 -5.8935 3.68364 0
M  V30 6052 H 563.665 -4.11552 2.23031 0
M  V30 6053 H 563.838 -5.57248 3.30725 0
M  V30 6054 N 557.244 -0.608902 -1.45362 0
M  V30 6055 C 558.174 0.0964526 -2.33301 0
M  V30 6056 C 559.155 0.857444 -1.46908 0
M  V30 6057 O 560.34 0.827735 -1.75676 0
M  V30 6058 C 557.47 1.09354 -3.29635 0
M  V30 6059 C 556.424 0.445676 -4.25673 0
M  V30 6060 C 555.75 1.5511 -5.11708 0
M  V30 6061 C 557.05 -0.633972 -5.18438 0
M  V30 6062 H 558.744 -0.637829 -2.92527 0
M  V30 6063 H 556.29 -0.308178 -1.40664 0
M  V30 6064 H 558.243 1.59556 -3.90025 0
M  V30 6065 H 556.967 1.85843 -2.6857 0
M  V30 6066 H 555.626 -0.0354897 -3.66583 0
M  V30 6067 H 555.274 2.30631 -4.4701 0
M  V30 6068 H 554.974 1.12311 -5.76767 0
M  V30 6069 H 556.498 2.05537 -5.74967 0
M  V30 6070 H 557.912 -0.215974 -5.72893 0
M  V30 6071 H 556.309 -0.983789 -5.91981 0
M  V30 6072 H 557.379 -1.51005 -4.60788 0
M  V30 6073 N 558.722 1.53707 -0.348139 0
M  V30 6074 C 559.652 2.28111 0.498766 0
M  V30 6075 C 560.633 1.29851 1.09876 0
M  V30 6076 O 561.818 1.587 1.11928 0
M  V30 6077 C 558.948 3.05735 1.64753 0
M  V30 6078 C 557.902 4.11537 1.17565 0
M  V30 6079 C 557.228 4.77142 2.4133 0
M  V30 6080 C 558.528 5.21587 0.272844 0
M  V30 6081 H 560.222 2.99152 -0.121934 0
M  V30 6082 H 557.768 1.43875 -0.0600842 0
M  V30 6083 H 559.721 3.56526 2.24649 0
M  V30 6084 H 558.445 2.32354 2.2952 0
M  V30 6085 H 557.104 3.61665 0.599483 0
M  V30 6086 H 556.752 4.0035 3.04514 0
M  V30 6087 H 556.452 5.48626 2.10436 0
M  V30 6088 H 557.976 5.30719 3.01943 0
M  V30 6089 H 559.39 5.67986 0.778779 0
M  V30 6090 H 557.787 6.00074 0.0555849 0
M  V30 6091 H 558.857 4.79969 -0.689785 0
M  V30 6092 N 560.2 0.0768682 1.57412 0
M  V30 6093 C 561.13 -0.886026 2.16037 0
M  V30 6094 C 562.111 -1.30691 1.08876 0
M  V30 6095 O 563.296 -1.37705 1.36934 0
M  V30 6096 C 560.426 -2.1518 2.72608 0
M  V30 6097 C 559.38 -1.87015 3.8498 0
M  V30 6098 C 558.706 -3.20266 4.28175 0
M  V30 6099 C 560.006 -1.17143 5.08994 0
M  V30 6100 H 561.7 -0.397642 2.96748 0
M  V30 6101 H 559.246 -0.189823 1.42743 0
M  V30 6102 H 561.199 -2.82962 3.12266 0
M  V30 6103 H 559.923 -2.66269 1.89125 0
M  V30 6104 H 558.582 -1.21636 3.45833 0
M  V30 6105 H 558.23 -3.69207 3.41607 0
M  V30 6106 H 557.93 -3.0221 5.03927 0
M  V30 6107 H 559.454 -3.89237 4.70454 0
M  V30 6108 H 560.868 -1.75003 5.45937 0
M  V30 6109 H 559.265 -1.09328 5.90057 0
M  V30 6110 H 560.335 -0.151295 4.84664 0
M  V30 6111 N 561.678 -1.56367 -0.196722 0
M  V30 6112 C 562.608 -1.97442 -1.24655 0
M  V30 6113 C 563.589 -0.846147 -1.47561 0
M  V30 6114 O 564.774 -1.11035 -1.59326 0
M  V30 6115 C 561.904 -2.31253 -2.59112 0
M  V30 6116 C 560.858 -3.46804 -2.50821 0
M  V30 6117 C 560.184 -3.66286 -3.89536 0
M  V30 6118 C 561.484 -4.8104 -2.03465 0
M  V30 6119 H 563.178 -2.85388 -0.905216 0
M  V30 6120 H 560.724 -1.37304 -0.434002 0
M  V30 6121 H 562.677 -2.58583 -3.32736 0
M  V30 6122 H 561.401 -1.40188 -2.94983 0
M  V30 6123 H 560.06 -3.19563 -1.79653 0
M  V30 6124 H 559.708 -2.72555 -4.22756 0
M  V30 6125 H 559.408 -4.4402 -3.84864 0
M  V30 6126 H 560.932 -3.9599 -4.64784 0
M  V30 6127 H 562.346 -5.07411 -2.66846 0
M  V30 6128 H 560.743 -5.62232 -2.09798 0
M  V30 6129 H 561.813 -4.74732 -0.98781 0
M  V30 6130 N 563.156 0.464375 -1.50603 0
M  V30 6131 C 564.066 1.58723 -1.72754 0
M  V30 6132 C 565.082 1.62925 -0.610844 0
M  V30 6133 O 566.258 1.8067 -0.889963 0
M  V30 6134 C 563.323 2.94897 -1.82309 0
M  V30 6135 C 562.384 3.0103 -3.06071 0
M  V30 6136 C 561.617 4.30708 -3.1516 0
M  V30 6137 O 561.84 5.2159 -2.30868 0
M  V30 6138 O 560.774 4.42571 -4.0794 0
M  V30 6139 H 564.6 1.42954 -2.67951 0
M  V30 6140 H 562.185 0.644579 -1.3478 0
M  V30 6141 H 564.067 3.75764 -1.90735 0
M  V30 6142 H 562.742 3.10851 -0.902967 0
M  V30 6143 H 561.649 2.19217 -3.03142 0
M  V30 6144 H 562.982 2.90014 -3.97684 0
M  V30 6145 N 564.634 1.40294 0.718013 0
M  V30 6146 C 565.544 1.42678 1.86226 0
M  V30 6147 C 566.56 0.319655 1.71039 0
M  V30 6148 O 567.736 0.563852 1.93346 0
M  V30 6149 C 564.801 1.2852 3.21999 0
M  V30 6150 C 563.862 2.49354 3.49458 0
M  V30 6151 C 563.095 2.35863 4.78753 0
M  V30 6152 O 563.318 1.37114 5.53675 0
M  V30 6153 O 562.252 3.25189 5.06494 0
M  V30 6154 H 566.078 2.39167 1.87171 0
M  V30 6155 H 563.663 1.2159 0.868112 0
M  V30 6156 H 565.545 1.22824 4.03103 0
M  V30 6157 H 564.22 0.351359 3.21787 0
M  V30 6158 H 563.127 2.60628 2.68373 0
M  V30 6159 H 564.46 3.41491 3.54464 0
M  V30 6160 N 566.112 -0.949982 1.2575 0
M  V30 6161 C 567.022 -2.08109 1.08295 0
M  V30 6162 C 568.038 -1.7399 0.0188181 0
M  V30 6163 O 569.214 -2.00187 0.220724 0
M  V30 6164 C 566.279 -3.39383 0.708534 0
M  V30 6165 C 565.34 -3.8734 1.85111 0
M  V30 6166 C 564.573 -5.12349 1.49447 0
M  V30 6167 O 564.796 -5.6905 0.392212 0
M  V30 6168 O 563.73 -5.5513 2.32624 0
M  V30 6169 H 567.556 -2.25738 2.03165 0
M  V30 6170 H 565.141 -1.06545 1.04731 0
M  V30 6171 H 567.023 -4.18277 0.512061 0
M  V30 6172 H 565.698 -3.23013 -0.210854 0
M  V30 6173 H 564.605 -3.09429 2.10248 0
M  V30 6174 H 565.938 -4.08216 2.74991 0
M  V30 6175 N 567.59 -1.07411 -1.15328 0
M  V30 6176 C 568.867 -0.710732 -1.82231 0
M  V30 6177 C 569.247 0.806732 -1.95077 0
M  V30 6178 O 568.595 1.72139 -1.50268 0
M  V30 6179 C 568.805 -1.42586 -3.18544 0
M  V30 6180 C 570.153 -1.57836 -3.94174 0
M  V30 6181 O 571.177 -1.38669 -3.281 0
M  V30 6182 O 570.036 -1.8938 -5.12638 0
M  V30 6183 H 567.13 -0.25297 -0.78736 0
M  V30 6184 H 569.676 -1.17508 -1.22434 0
M  V30 6185 H 568.448 -2.46008 -3.04296 0
M  V30 6186 H 568.071 -0.952332 -3.86026 0
M  V30 6187 N 569.068 1.32177 -0.85831 0
M  V30 6188 C 569.998 2.31282 -0.321041 0
M  V30 6189 C 570.979 1.59841 0.581786 0
M  V30 6190 O 572.164 1.87619 0.501262 0
M  V30 6191 C 569.294 3.4385 0.48832 0
M  V30 6192 C 568.248 4.26799 -0.320391 0
M  V30 6193 C 567.574 5.31164 0.613934 0
M  V30 6194 C 568.874 4.98829 -1.54813 0
M  V30 6195 H 570.568 2.76469 -1.14915 0
M  V30 6196 H 568.114 1.32916 -0.554028 0
M  V30 6197 H 570.067 4.12224 0.874626 0
M  V30 6198 H 568.791 2.97401 1.34983 0
M  V30 6199 H 567.45 3.60077 -0.688497 0
M  V30 6200 H 567.098 4.80967 1.47239 0
M  V30 6201 H 566.798 5.8755 0.0768097 0
M  V30 6202 H 568.322 6.024 0.997336 0
M  V30 6203 H 569.736 5.59864 -1.23392 0
M  V30 6204 H 568.133 5.64957 -2.02346 0
M  V30 6205 H 569.203 4.26483 -2.30739 0
M  V30 6206 N 570.547 0.616602 1.45037 0
M  V30 6207 C 571.494 -0.0969439 2.30596 0
M  V30 6208 C 572.464 -0.851151 1.42635 0
M  V30 6209 O 573.649 -0.835092 1.71554 0
M  V30 6210 C 570.789 -1.08234 3.27688 0
M  V30 6211 C 569.902 -0.328072 4.30752 0
M  V30 6212 C 569.037 -1.30399 5.14946 0
M  V30 6213 C 568.076 -0.538049 6.09731 0
M  V30 6214 N 567.213 -1.46371 6.86673 0
M  V30 6215 H 572.053 0.63864 2.91076 0
M  V30 6216 H 569.59 0.326733 1.43425 0
M  V30 6217 H 571.548 -1.66688 3.82454 0
M  V30 6218 H 570.178 -1.78523 2.68941 0
M  V30 6219 H 569.23 0.372136 3.78575 0
M  V30 6220 H 570.542 0.269142 4.98073 0
M  V30 6221 H 569.696 -1.96032 5.74157 0
M  V30 6222 H 568.435 -1.93514 4.47665 0
M  V30 6223 H 567.44 0.131852 5.49642 0
M  V30 6224 H 568.665 0.0881732 6.79043 0
M  V30 6225 H 566.611 -2.08233 6.22073 0
M  V30 6226 H 566.528 -0.920152 7.50379 0
M  V30 6227 H 567.796 -2.10932 7.50418 0
M  V30 6228 N 572.025 -1.5352 0.356285 0
M  V30 6229 C 573.302 -1.93405 -0.292223 0
M  V30 6230 C 573.682 -1.28901 -1.67176 0
M  V30 6231 O 573.03 -0.444632 -2.24132 0
M  V30 6232 C 573.24 -3.47223 -0.35175 0
M  V30 6233 C 574.588 -4.20389 -0.596534 0
M  V30 6234 O 575.612 -3.53554 -0.433344 0
M  V30 6235 O 574.471 -5.3881 -0.913589 0
M  V30 6236 H 571.565 -0.808666 -0.173172 0
M  V30 6237 H 574.111 -1.64713 0.408391 0
M  V30 6238 H 572.883 -3.86423 0.615841 0
M  V30 6239 H 572.506 -3.8212 -1.09864 0
M  V30 6240 N 573.503 -0.0852151 -1.57369 0
M  V30 6241 C 574.436 0.913608 -2.09113 0
M  V30 6242 C 575.414 1.28264 -0.999358 0
M  V30 6243 O 576.598 1.3896 -1.27367 0
M  V30 6244 C 573.725 2.21777 -2.55993 0
M  V30 6245 C 572.771 1.99932 -3.76735 0
M  V30 6246 S 573.604 1.24637 -5.20794 0
M  V30 6247 C 574.76 2.56304 -5.71016 0
M  V30 6248 H 574.993 0.473369 -2.93507 0
M  V30 6249 H 572.526 0.127856 -1.5387 0
M  V30 6250 H 574.484 2.96726 -2.83662 0
M  V30 6251 H 573.145 2.62923 -1.71843 0
M  V30 6252 H 572.338 2.96482 -4.07571 0
M  V30 6253 H 571.94 1.33116 -3.49509 0
M  V30 6254 H 574.232 3.5233 -5.78679 0
M  V30 6255 H 575.175 2.3006 -6.69685 0
M  V30 6256 H 575.583 2.64125 -4.98897 0
M  V30 6257 N 574.981 1.5647 0.188427 0
M  V30 6258 C 576.229 1.80655 0.905986 0
M  V30 6259 C 576.55 0.659391 1.83513 0
M  V30 6260 O 575.82 -0.321868 1.93238 0
M  V30 6261 H 574.4 0.666391 0.337538 0
M  V30 6262 H 577.062 1.93949 0.192339 0
M  V30 6263 H 576.158 2.74066 1.49313 0
M  V30 6264 N 576.459 -0.456382 1.50847 0
M  V30 6265 C 577.708 -1.2042 1.61808 0
M  V30 6266 C 578.021 -1.9278 0.330932 0
M  V30 6267 O 579.227 -2.69612 0.319643 0
M  V30 6268 C 577.683 -2.18891 2.85683 0
M  V30 6269 C 577.291 -1.52267 4.2133 0
M  V30 6270 C 579.035 -2.94224 3.05994 0
M  V30 6271 C 576.942 -2.4911 5.36375 0
M  V30 6272 H 575.872 -0.453177 0.602616 0
M  V30 6273 H 578.523 -0.473144 1.77295 0
M  V30 6274 H 576.905 -2.95351 2.63787 0
M  V30 6275 H 578.079 -0.814949 4.53536 0
M  V30 6276 H 576.394 -0.891594 4.06743 0
M  V30 6277 H 578.991 -3.66732 3.89117 0
M  V30 6278 H 579.334 -3.54469 2.18306 0
M  V30 6279 H 579.867 -2.24874 3.28141 0
M  V30 6280 H 576.606 -1.93582 6.26264 0
M  V30 6281 H 576.126 -3.17991 5.08569 0
M  V30 6282 H 577.805 -3.10637 5.67551 0
M  V30 6283 N 577.937 -1.40673 -0.710563 0
M  V30 6284 C 579.183 -1.39428 -1.47267 0
M  V30 6285 C 579.516 0.00182129 -1.942 0
M  V30 6286 O 578.791 0.971387 -1.68506 0
M  V30 6287 C 579.074 -2.38812 -2.6952 0
M  V30 6288 C 578.927 -3.87467 -2.28449 0
M  V30 6289 C 580.246 -2.3566 -3.71689 0
M  V30 6290 H 577.365 -0.507768 -0.534173 0
M  V30 6291 H 580.007 -1.71843 -0.810547 0
M  V30 6292 H 578.157 -2.113 -3.26013 0
M  V30 6293 H 579.829 -4.25825 -1.77399 0
M  V30 6294 H 578.072 -4.03058 -1.60395 0
M  V30 6295 H 578.743 -4.5253 -3.16103 0
M  V30 6296 H 581.219 -2.6004 -3.24836 0
M  V30 6297 H 580.095 -3.07237 -4.54859 0
M  V30 6298 H 580.356 -1.36996 -4.20339 0
M  V30 6299 N 579.415 0.9433 -1.26252 0
M  V30 6300 C 580.64 1.72898 -1.14547 0
M  V30 6301 C 581.065 1.85761 0.295743 0
M  V30 6302 O 580.423 1.3463 1.21427 0
M  V30 6303 C 580.471 3.11471 -1.8171 0
M  V30 6304 O 579.575 3.97336 -1.10445 0
M  V30 6305 H 578.916 0.530555 -0.399259 0
M  V30 6306 H 581.446 1.18159 -1.67032 0
M  V30 6307 H 581.456 3.61872 -1.88449 0
M  V30 6308 H 580.131 3.01425 -2.86558 0
M  V30 6309 H 578.708 3.55788 -1.11666 0
M  V30 6310 N 580.893 1.08022 1.14757 0
M  V30 6311 C 581.84 0.706657 2.19716 0
M  V30 6312 C 582.81 -0.30525 1.63271 0
M  V30 6313 O 583.995 -0.19015 1.8985 0
M  V30 6314 C 581.135 0.117914 3.44898 0
M  V30 6315 C 580.248 1.18212 4.15512 0
M  V30 6316 C 579.383 0.557659 5.28265 0
M  V30 6317 C 578.422 1.60418 5.90705 0
M  V30 6318 N 577.559 1.0018 6.94916 0
M  V30 6319 H 582.399 1.60603 2.51019 0
M  V30 6320 H 579.936 0.802664 1.23271 0
M  V30 6321 H 581.894 -0.241112 4.16503 0
M  V30 6322 H 580.524 -0.744788 3.1409 0
M  V30 6323 H 579.576 1.65863 3.42335 0
M  V30 6324 H 580.888 1.97533 4.5802 0
M  V30 6325 H 580.042 0.146654 6.06523 0
M  V30 6326 H 578.781 -0.267249 4.86967 0
M  V30 6327 H 577.786 2.02489 5.11154 0
M  V30 6328 H 579.011 2.43149 6.34078 0
M  V30 6329 H 576.957 0.197917 6.55701 0
M  V30 6330 H 576.874 1.73216 7.35889 0
M  V30 6331 H 578.142 0.616523 7.77058 0
M  V30 6332 N 582.371 -1.3172 0.865308 0
M  V30 6333 C 583.619 -1.96487 0.472995 0
M  V30 6334 C 583.94 -1.68761 -0.976975 0
M  V30 6335 O 583.21 -1.00051 -1.68424 0
M  V30 6336 H 581.79 -0.726947 0.171922 0
M  V30 6337 H 584.452 -1.60612 1.10407 0
M  V30 6338 H 583.548 -3.0574 0.62687 0
M  V30 6339 N 583.85 -0.624285 -1.44708 0
M  V30 6340 C 584.8 0.106466 -2.27751 0
M  V30 6341 C 585.784 0.822703 -1.38277 0
M  V30 6342 O 586.976 0.709939 -1.62138 0
M  V30 6343 C 584.105 1.092 -3.25469 0
M  V30 6344 C 583.191 0.375737 -4.22432 0
M  V30 6345 N 583.582 -0.591881 -5.02325 0
M  V30 6346 C 581.88 0.621093 -4.41654 0
M  V30 6347 C 582.581 -1.01443 -5.72786 0
M  V30 6348 N 581.557 -0.354651 -5.42442 0
M  V30 6349 H 585.359 -0.636464 -2.86926 0
M  V30 6350 H 582.873 -0.44925 -1.56062 0
M  V30 6351 H 584.87 1.63006 -3.83712 0
M  V30 6352 H 583.529 1.8353 -2.67856 0
M  V30 6353 H 584.541 -0.969389 -5.08747 0
M  V30 6354 H 581.218 1.34779 -3.95147 0
M  V30 6355 H 582.608 -1.81345 -6.46965 0
M  V30 6356 N 585.328 1.53329 -0.364422 0
M  V30 6357 C 586.577 2.00421 0.226747 0
M  V30 6358 C 586.89 1.25581 1.49963 0
M  V30 6359 O 588.096 1.63256 2.16933 0
M  V30 6360 C 586.552 3.57017 0.454618 0
M  V30 6361 C 586.16 4.40734 -0.803568 0
M  V30 6362 C 587.904 4.12468 1.00351 0
M  V30 6363 C 585.811 5.8888 -0.545345 0
M  V30 6364 H 584.741 0.748787 0.0885082 0
M  V30 6365 H 587.392 1.7703 -0.482983 0
M  V30 6366 H 585.774 3.76558 1.22558 0
M  V30 6367 H 586.948 4.32967 -1.57723 0
M  V30 6368 H 585.263 3.96381 -1.27559 0
M  V30 6369 H 587.86 5.20783 1.212 0
M  V30 6370 H 588.203 3.6699 1.9653 0
M  V30 6371 H 588.736 3.96721 0.29274 0
M  V30 6372 H 585.475 6.38633 -1.47743 0
M  V30 6373 H 584.995 5.99499 0.189842 0
M  V30 6374 H 586.674 6.46776 -0.170425 0
M  V30 6375 N 586.806 0.0935595 1.57322 0
M  V30 6376 C 588.055 -0.570191 1.93473 0
M  V30 6377 C 588.368 -1.69434 0.977318 0
M  V30 6378 O 589.574 -2.41914 1.23248 0
M  V30 6379 C 588.03 -1.06564 3.43762 0
M  V30 6380 C 587.638 0.0286723 4.47991 0
M  V30 6381 C 589.382 -1.70221 3.88877 0
M  V30 6382 C 587.289 -0.482046 5.89432 0
M  V30 6383 H 586.219 -0.216764 0.72217 0
M  V30 6384 H 588.87 0.169313 1.82717 0
M  V30 6385 H 587.252 -1.85878 3.49664 0
M  V30 6386 H 588.426 0.804106 4.5373 0
M  V30 6387 H 586.741 0.570336 4.12476 0
M  V30 6388 H 589.338 -2.09502 4.91948 0
M  V30 6389 H 589.681 -2.57078 3.27439 0
M  V30 6390 H 590.214 -0.974919 3.85668 0
M  V30 6391 H 586.953 0.349871 6.54566 0
M  V30 6392 H 586.473 -1.22452 5.87167 0
M  V30 6393 H 588.152 -0.951508 6.39965 0
M  V30 6394 N 588.284 -1.56567 -0.180126 0
M  V30 6395 C 589.234 -1.92132 -1.22756 0
M  V30 6396 C 590.218 -0.788639 -1.40247 0
M  V30 6397 O 591.41 -1.05171 -1.42366 0
M  V30 6398 C 588.539 -2.27719 -2.56902 0
M  V30 6399 C 587.625 -3.47481 -2.43142 0
M  V30 6400 N 588.016 -4.64973 -1.99082 0
M  V30 6401 C 586.314 -3.51914 -2.73994 0
M  V30 6402 C 587.015 -5.47119 -1.97574 0
M  V30 6403 N 585.991 -4.87925 -2.39645 0
M  V30 6404 H 589.793 -2.80464 -0.878478 0
M  V30 6405 H 587.307 -1.57686 -0.388463 0
M  V30 6406 H 589.304 -2.51389 -3.32579 0
M  V30 6407 H 587.964 -1.40722 -2.92621 0
M  V30 6408 H 588.975 -4.89358 -1.69557 0
M  V30 6409 H 585.652 -2.75372 -3.13809 0
M  V30 6410 H 587.042 -6.51254 -1.65282 0
M  V30 6411 N 589.762 0.448376 -1.51087 0
M  V30 6412 C 591.009 1.19872 -1.63209 0
M  V30 6413 C 591.337 1.91451 -0.343062 0
M  V30 6414 O 590.592 1.83789 0.672321 0
M  V30 6415 C 590.891 2.24866 -2.77795 0
M  V30 6416 C 590.557 1.70378 -4.17471 0
M  V30 6417 C 589.219 1.55241 -4.55471 0
M  V30 6418 C 591.571 1.30203 -5.04675 0
M  V30 6419 C 588.899 0.983844 -5.78392 0
M  V30 6420 C 591.251 0.747798 -6.28165 0
M  V30 6421 C 589.915 0.583233 -6.64947 0
M  V30 6422 H 589.185 0.438642 -0.597222 0
M  V30 6423 H 591.832 0.49136 -1.85089 0
M  V30 6424 H 590.137 3.01598 -2.50092 0
M  V30 6425 H 591.834 2.82723 -2.84374 0
M  V30 6426 H 588.424 1.83134 -3.87505 0
M  V30 6427 H 592.608 1.40723 -4.75932 0
M  V30 6428 H 587.864 0.844007 -6.05546 0
M  V30 6429 H 592.038 0.427927 -6.95084 0
M  V30 6430 H 589.665 0.140532 -7.6007 0
M  V30 6431 N 591.24 1.41047 0.703093 0
M  V30 6432 C 592.187 1.42302 1.81711 0
M  V30 6433 C 593.157 0.278336 1.63751 0
M  V30 6434 O 594.342 0.478266 1.84709 0
M  V30 6435 C 591.482 1.30362 3.19531 0
M  V30 6436 C 590.595 2.54638 3.48975 0
M  V30 6437 C 589.73 2.35047 4.76368 0
M  V30 6438 C 588.769 3.54837 4.98756 0
M  V30 6439 N 587.906 3.34363 6.1737 0
M  V30 6440 H 592.746 2.37516 1.79973 0
M  V30 6441 H 590.283 1.1795 0.878983 0
M  V30 6442 H 592.241 1.21443 3.99134 0
M  V30 6443 H 590.871 0.387602 3.20464 0
M  V30 6444 H 589.923 2.74037 2.63833 0
M  V30 6445 H 591.235 3.43766 3.61423 0
M  V30 6446 H 590.389 2.23552 5.64012 0
M  V30 6447 H 589.128 1.43363 4.66153 0
M  V30 6448 H 588.133 3.66795 4.09563 0
M  V30 6449 H 589.358 4.47464 5.10835 0
M  V30 6450 H 587.304 2.45373 6.08382 0
M  V30 6451 H 587.221 4.17063 6.30551 0
M  V30 6452 H 588.489 3.26626 7.07768 0
M  V30 6453 N 592.718 -0.936591 1.26751 0
M  V30 6454 C 593.943 -1.72288 1.15462 0
M  V30 6455 C 594.368 -1.85915 -0.285887 0
M  V30 6456 O 593.726 -1.35272 -1.20711 0
M  V30 6457 C 593.774 -3.10503 1.83359 0
M  V30 6458 O 592.878 -3.96745 1.1255 0
M  V30 6459 H 592.219 -0.52843 0.402067 0
M  V30 6460 H 594.749 -1.17271 1.67656 0
M  V30 6461 H 594.759 -3.60867 1.90365 0
M  V30 6462 H 593.434 -2.99901 2.88153 0
M  V30 6463 H 592.011 -3.55191 1.13551 0
M  V30 6464 N 594.196 -1.08629 -1.14182 0
M  V30 6465 C 595.159 -0.722027 -2.1753 0
M  V30 6466 C 596.159 0.244305 -1.58933 0
M  V30 6467 O 597.349 0.0235545 -1.74184 0
M  V30 6468 C 594.481 -0.0663966 -3.40835 0
M  V30 6469 H 595.674 -1.63719 -2.51269 0
M  V30 6470 H 593.227 -0.884442 -1.28869 0
M  V30 6471 H 593.962 0.860389 -3.12678 0
M  V30 6472 H 593.747 -0.761598 -3.84632 0
M  V30 6473 H 595.237 0.173346 -4.1724 0
M  V30 6474 N 595.674 1.31259 -0.872281 0
M  V30 6475 C 596.923 1.95893 -0.480493 0
M  V30 6476 C 597.236 1.697 0.972688 0
M  V30 6477 O 598.442 2.28214 1.47073 0
M  V30 6478 C 596.898 3.50705 -0.808342 0
M  V30 6479 C 596.506 3.85735 -2.27844 0
M  V30 6480 C 598.25 4.21719 -0.485136 0
M  V30 6481 C 596.157 5.33668 -2.54858 0
M  V30 6482 H 595.087 0.733182 -0.175955 0
M  V30 6483 H 597.738 1.49396 -1.0655 0
M  V30 6484 H 596.12 3.95706 -0.152558 0
M  V30 6485 H 597.294 3.51686 -2.97748 0
M  V30 6486 H 595.609 3.27792 -2.56791 0
M  V30 6487 H 598.206 5.30559 -0.664166 0
M  V30 6488 H 598.549 4.12316 0.574592 0
M  V30 6489 H 599.082 3.82359 -1.09756 0
M  V30 6490 H 595.821 5.48109 -3.59523 0
M  V30 6491 H 595.341 5.69061 -1.8955 0
M  V30 6492 H 597.02 6.00958 -2.39706 0
M  V30 6493 N 597.152 0.631951 1.44375 0
M  V30 6494 C 598.062 -0.073674 2.34484 0
M  V30 6495 C 599.078 -0.834825 1.52665 0
M  V30 6496 O 600.254 -0.786902 1.85391 0
M  V30 6497 C 597.319 -1.04247 3.30656 0
M  V30 6498 C 596.38 -0.280602 4.28382 0
M  V30 6499 C 595.613 -1.20325 5.19959 0
M  V30 6500 O 595.836 -2.44199 5.15484 0
M  V30 6501 O 594.77 -0.687128 5.97965 0
M  V30 6502 H 598.596 0.667477 2.96274 0
M  V30 6503 H 596.181 0.392144 1.44162 0
M  V30 6504 H 598.063 -1.59981 3.89851 0
M  V30 6505 H 596.738 -1.76422 2.71398 0
M  V30 6506 H 595.645 0.319804 3.72731 0
M  V30 6507 H 596.978 0.401144 4.90563 0
M  V30 6508 N 598.631 -1.53133 0.372548 0
M  V30 6509 C 599.578 -2.25951 -0.470631 0
M  V30 6510 C 600.548 -1.26895 -1.07176 0
M  V30 6511 O 601.733 -1.55691 -1.10294 0
M  V30 6512 C 598.873 -3.05726 -1.6008 0
M  V30 6513 C 597.986 -4.19684 -1.02416 0
M  V30 6514 C 597.121 -4.86888 -2.124 0
M  V30 6515 C 596.16 -5.92866 -1.52238 0
M  V30 6516 N 595.297 -6.53732 -2.56084 0
M  V30 6517 H 600.137 -2.97587 0.156816 0
M  V30 6518 H 597.674 -1.4683 0.0891571 0
M  V30 6519 H 599.632 -3.50258 -2.26661 0
M  V30 6520 H 598.262 -2.36331 -2.1988 0
M  V30 6521 H 597.314 -3.79588 -0.248426 0
M  V30 6522 H 598.626 -4.95821 -0.544366 0
M  V30 6523 H 597.78 -5.34638 -2.86787 0
M  V30 6524 H 596.519 -4.10239 -2.63734 0
M  V30 6525 H 595.524 -5.4447 -0.763685 0
M  V30 6526 H 596.749 -6.71439 -1.0172 0
M  V30 6527 H 594.695 -5.79932 -3.06618 0
M  V30 6528 H 594.612 -7.25429 -2.12811 0
M  V30 6529 H 595.88 -7.0613 -3.30152 0
M  V30 6530 N 600.109 -0.101901 -1.5727 0
M  V30 6531 C 601.039 0.851544 -2.17419 0
M  V30 6532 C 602.02 1.28942 -1.10941 0
M  V30 6533 O 603.205 1.35509 -1.39107 0
M  V30 6534 C 600.335 2.10816 -2.75996 0
M  V30 6535 C 599.289 1.80867 -3.87906 0
M  V30 6536 C 598.615 3.13413 -4.33216 0
M  V30 6537 C 599.915 1.0903 -5.10793 0
M  V30 6538 H 601.609 0.350381 -2.97343 0
M  V30 6539 H 599.155 0.16709 -1.43027 0
M  V30 6540 H 601.108 2.77959 -3.16729 0
M  V30 6541 H 599.832 2.63227 -1.93337 0
M  V30 6542 H 598.491 1.16119 -3.47724 0
M  V30 6543 H 598.139 3.63725 -3.47438 0
M  V30 6544 H 597.839 2.94155 -5.08671 0
M  V30 6545 H 599.363 3.81704 -4.76586 0
M  V30 6546 H 600.777 1.66295 -5.48652 0
M  V30 6547 H 599.174 0.99927 -5.91722 0
M  V30 6548 H 600.244 0.0741704 -4.84843 0
M  V30 6549 N 601.587 1.56661 0.17182 0
M  V30 6550 C 602.815 1.861 0.904115 0
M  V30 6551 C 603.23 0.687227 1.75848 0
M  V30 6552 O 602.587 -0.343671 1.79235 0
M  V30 6553 C 602.638 3.14568 1.78127 0
M  V30 6554 O 602.359 4.27422 0.961366 0
M  V30 6555 C 603.86 3.5735 2.62327 0
M  V30 6556 H 601.08 0.617445 0.262684 0
M  V30 6557 H 603.624 2.03775 0.172068 0
M  V30 6558 H 601.779 2.98721 2.46666 0
M  V30 6559 H 602.193 5.00725 1.56123 0
M  V30 6560 H 603.667 4.50144 3.1949 0
M  V30 6561 H 604.144 2.81445 3.37173 0
M  V30 6562 H 604.75 3.75807 1.99121 0
M  V30 6563 N 603.065 -0.440357 1.51323 0
M  V30 6564 C 604.015 -1.53263 1.68803 0
M  V30 6565 C 604.999 -1.51494 0.542057 0
M  V30 6566 O 606.191 -1.57999 0.797839 0
M  V30 6567 C 603.32 -2.91479 1.8137 0
M  V30 6568 C 602.406 -2.98015 3.01742 0
M  V30 6569 N 602.797 -2.743 4.24962 0
M  V30 6570 C 601.095 -3.29173 3.00934 0
M  V30 6571 C 601.796 -2.86601 5.06197 0
M  V30 6572 N 600.772 -3.1814 4.40781 0
M  V30 6573 H 604.574 -1.33675 2.61741 0
M  V30 6574 H 602.088 -0.647616 1.48929 0
M  V30 6575 H 604.085 -3.70055 1.92002 0
M  V30 6576 H 602.745 -3.12089 0.896117 0
M  V30 6577 H 603.756 -2.49287 4.53957 0
M  V30 6578 H 600.433 -3.55577 2.18796 0
M  V30 6579 H 601.823 -2.72246 6.14274 0
M  V30 6580 N 604.543 -1.41418 -0.695603 0
M  V30 6581 C 605.82 -1.31264 -1.45014 0
M  V30 6582 C 606.2 0.0597994 -2.11015 0
M  V30 6583 O 605.548 1.07403 -2.01685 0
M  V30 6584 C 605.758 -2.466 -2.4696 0
M  V30 6585 C 607.106 -2.87763 -3.12214 0
M  V30 6586 O 608.13 -2.46339 -2.57285 0
M  V30 6587 O 606.989 -3.59395 -4.11701 0
M  V30 6588 H 604.083 -0.516576 -0.645816 0
M  V30 6589 H 606.629 -1.53382 -0.726084 0
M  V30 6590 H 605.401 -3.38183 -1.96845 0
M  V30 6591 H 605.024 -2.26358 -3.26876 0
M  V30 6592 N 606.021 0.929856 -1.27246 0
M  V30 6593 C 607.251 1.70895 -1.16096 0
M  V30 6594 C 607.659 1.87039 0.285122 0
M  V30 6595 O 607.002 1.38557 1.20614 0
M  V30 6596 C 607.064 3.12919 -1.7698 0
M  V30 6597 C 606.728 3.2012 -3.26148 0
M  V30 6598 C 607.725 3.02533 -4.22812 0
M  V30 6599 C 605.41 3.43148 -3.66817 0
M  V30 6600 C 607.404 3.07861 -5.58122 0
M  V30 6601 C 605.091 3.48109 -5.02258 0
M  V30 6602 C 606.089 3.30483 -5.97721 0
M  V30 6603 O 605.777 3.35175 -7.30694 0
M  V30 6604 H 605.509 0.54152 -0.404639 0
M  V30 6605 H 608.063 1.17342 -1.68582 0
M  V30 6606 H 606.293 3.67945 -1.18969 0
M  V30 6607 H 607.982 3.72787 -1.60576 0
M  V30 6608 H 608.748 2.84586 -3.92728 0
M  V30 6609 H 604.627 3.55918 -2.9299 0
M  V30 6610 H 608.171 2.94021 -6.32612 0
M  V30 6611 H 604.068 3.65579 -5.31998 0
M  V30 6612 H 604.836 3.51644 -7.39114 0
M  V30 6613 N 607.499 1.09233 1.13605 0
M  V30 6614 C 608.748 0.82205 1.84188 0
M  V30 6615 C 609.061 -0.654548 1.84323 0
M  V30 6616 O 610.267 -1.04029 2.50779 0
M  V30 6617 C 608.723 1.42066 3.30674 0
M  V30 6618 C 608.331 2.92965 3.38933 0
M  V30 6619 C 610.075 1.22924 4.06313 0
M  V30 6620 C 607.982 3.45922 4.79679 0
M  V30 6621 H 606.912 0.303854 0.690064 0
M  V30 6622 H 609.563 1.31479 1.28006 0
M  V30 6623 H 607.945 0.855613 3.86646 0
M  V30 6624 H 609.119 3.55679 2.92966 0
M  V30 6625 H 607.434 3.11118 2.76757 0
M  V30 6626 H 610.031 1.59945 5.10217 0
M  V30 6627 H 610.374 0.169726 4.15954 0
M  V30 6628 H 610.907 1.76168 3.56665 0
M  V30 6629 H 607.646 4.51484 4.75229 0
M  V30 6630 H 607.166 2.87971 5.26149 0
M  V30 6631 H 608.845 3.43009 5.48592 0
M  V30 6632 N 608.977 -1.30795 0.87923 0
M  V30 6633 C 609.925 -2.30231 0.331112 0
M  V30 6634 C 610.919 -1.59918 -0.558794 0
M  V30 6635 O 612.125 -1.74441 -0.443866 0
M  V30 6636 H 608.5 -0.746785 0.088409 0
M  V30 6637 H 610.471 -2.73925 1.18353 0
M  V30 6638 C 609.22 -3.44848 -0.444401 0
M  V30 6639 H 608.543 -3.99131 0.231106 0
M  V30 6640 H 609.983 -4.16516 -0.793109 0
M  V30 6641 C 608.442 -2.94329 -1.63926 0
M  V30 6642 O 608.972 -2.93875 -2.73862 0
M  V30 6643 N 607.178 -2.50413 -1.4745 0
M  V30 6644 H 606.725 -2.50982 -0.58015 0
M  V30 6645 H 606.683 -2.16969 -2.27534 0
M  V30 6646 N 610.455 -0.639598 -1.44038 0
M  V30 6647 C 611.385 0.0469443 -2.33453 0
M  V30 6648 C 612.366 0.82609 -1.48694 0
M  V30 6649 O 613.551 0.790285 -1.77393 0
M  V30 6650 C 610.681 1.02338 -3.3188 0
M  V30 6651 C 609.635 0.355284 -4.26523 0
M  V30 6652 C 608.961 1.44221 -5.14883 0
M  V30 6653 C 610.261 -0.743798 -5.16977 0
M  V30 6654 H 611.955 -0.699735 -2.91108 0
M  V30 6655 H 609.501 -0.337946 -1.39978 0
M  V30 6656 H 611.454 1.51247 -3.93322 0
M  V30 6657 H 610.178 1.80105 -2.72451 0
M  V30 6658 H 608.837 -0.113239 -3.66425 0
M  V30 6659 H 608.485 2.21097 -4.51802 0
M  V30 6660 H 608.185 1.00052 -5.79019 0
M  V30 6661 H 609.709 1.93295 -5.79197 0
M  V30 6662 H 611.123 -0.337444 -5.72306 0
M  V30 6663 H 609.52 -1.10914 -5.89761 0
M  V30 6664 H 610.59 -1.60745 -4.57481 0
M  V30 6665 N 611.933 1.52934 -0.380664 0
M  V30 6666 C 613.18 2.01467 0.204278 0
M  V30 6667 C 613.508 1.26744 1.47533 0
M  V30 6668 O 612.763 0.353723 1.92477 0
M  V30 6669 C 613.062 3.5349 0.527199 0
M  V30 6670 C 612.728 4.46171 -0.651295 0
M  V30 6671 C 611.39 4.71227 -0.974619 0
M  V30 6672 C 613.742 5.00909 -1.44012 0
M  V30 6673 C 611.07 5.4827 -2.08847 0
M  V30 6674 C 613.422 5.7917 -2.5445 0
M  V30 6675 C 612.086 6.02507 -2.87301 0
M  V30 6676 H 611.356 0.73722 0.0747504 0
M  V30 6677 H 614.003 1.84411 -0.516234 0
M  V30 6678 H 612.308 3.68574 1.32892 0
M  V30 6679 H 614.005 3.88529 0.992283 0
M  V30 6680 H 610.595 4.26829 -0.389276 0
M  V30 6681 H 614.779 4.81485 -1.20357 0
M  V30 6682 H 610.035 5.64567 -2.34679 0
M  V30 6683 H 614.209 6.20588 -3.1598 0
M  V30 6684 H 611.836 6.61989 -3.7373 0
M  V30 6685 N 613.412 0.11024 1.57214 0
M  V30 6686 C 614.362 -0.854147 2.11396 0
M  V30 6687 C 615.346 -1.23394 1.03261 0
M  V30 6688 O 616.538 -1.20649 1.2951 0
M  V30 6689 C 613.667 -2.10752 2.70995 0
M  V30 6690 C 612.753 -1.75249 3.86198 0
M  V30 6691 N 613.144 -1.10377 4.9361 0
M  V30 6692 C 611.442 -2.04763 3.96217 0
M  V30 6693 C 612.143 -0.938199 5.74084 0
M  V30 6694 N 611.119 -1.46039 5.23616 0
M  V30 6695 H 614.921 -0.348897 2.91822 0
M  V30 6696 H 612.435 -0.0925071 1.62136 0
M  V30 6697 H 614.432 -2.80801 3.0815 0
M  V30 6698 H 613.092 -2.61829 1.9203 0
M  V30 6699 H 614.103 -0.768785 5.12162 0
M  V30 6700 H 610.78 -2.57948 3.28282 0
M  V30 6701 H 612.17 -0.429678 6.70525 0
M  V30 6702 N 614.89 -1.56749 -0.16351 0
M  V30 6703 C 616.137 -1.82434 -0.878866 0
M  V30 6704 C 616.465 -0.688557 -1.81904 0
M  V30 6705 O 615.72 0.323644 -1.93005 0
M  V30 6706 C 616.019 -3.14342 -1.70071 0
M  V30 6707 C 615.685 -4.41647 -0.908775 0
M  V30 6708 C 614.347 -4.76224 -0.690236 0
M  V30 6709 C 616.699 -5.19998 -0.353815 0
M  V30 6710 C 614.027 -5.86624 0.0942374 0
M  V30 6711 C 616.379 -6.3122 0.41761 0
M  V30 6712 C 615.043 -6.64358 0.646879 0
M  V30 6713 H 614.313 -0.667574 -0.3216 0
M  V30 6714 H 616.96 -1.90963 -0.14337 0
M  V30 6715 H 615.265 -3.0119 -2.50583 0
M  V30 6716 H 616.962 -3.31426 -2.25738 0
M  V30 6717 H 613.552 -4.1453 -1.08916 0
M  V30 6718 H 617.736 -4.93673 -0.509975 0
M  V30 6719 H 612.992 -6.10751 0.281529 0
M  V30 6720 H 617.166 -6.91133 0.854849 0
M  V30 6721 H 614.793 -7.49742 1.25662 0
M  V30 6722 N 616.368 0.432326 -1.51554 0
M  V30 6723 C 617.779 1.01202 -1.56892 0
M  V30 6724 C 618.13 1.92175 -0.395394 0
M  V30 6725 O 617.255 2.10844 0.487198 0
M  V30 6726 C 617.85 1.84217 -2.8434 0
M  V30 6727 C 616.409 2.37228 -2.92233 0
M  V30 6728 C 615.556 1.16576 -2.51606 0
M  V30 6729 H 618.507 0.213407 -1.57259 0
M  V30 6730 H 618.528 2.69721 -2.68385 0
M  V30 6731 H 618.04 1.17979 -3.69733 0
M  V30 6732 H 616.141 3.06905 -2.11282 0
M  V30 6733 H 616.254 2.69682 -3.95991 0
M  V30 6734 H 614.618 1.51263 -2.04919 0
M  V30 6735 H 615.401 0.519404 -3.39348 0
M  V30 6736 N 617.846 1.41785 0.688094 0
M  V30 6737 C 619.257 1.3701 1.26828 0
M  V30 6738 C 619.608 0.056835 1.96118 0
M  V30 6739 O 618.733 -0.84475 1.99231 0
M  V30 6740 C 619.328 2.48168 2.30648 0
M  V30 6741 C 617.887 2.46766 2.84224 0
M  V30 6742 C 617.034 2.27633 1.58361 0
M  V30 6743 H 619.985 1.51192 0.482351 0
M  V30 6744 H 620.006 2.17655 3.121 0
M  V30 6745 H 619.518 3.43735 1.80188 0
M  V30 6746 H 617.619 1.54978 3.3884 0
M  V30 6747 H 617.732 3.43342 3.34145 0
M  V30 6748 H 616.096 1.75648 1.84445 0
M  V30 6749 H 616.879 3.25238 1.09887 0
M  V30 6750 N 619.324 -0.923095 1.27737 0
M  V30 6751 C 620.254 -2.04124 1.13383 0
M  V30 6752 C 621.235 -1.70066 0.0340658 0
M  V30 6753 O 622.42 -1.93068 0.209383 0
M  V30 6754 C 619.55 -3.3831 0.785097 0
M  V30 6755 C 618.504 -3.86496 1.8386 0
M  V30 6756 C 617.83 -5.1754 1.34373 0
M  V30 6757 C 619.13 -4.09381 3.24353 0
M  V30 6758 H 620.824 -2.1639 2.06919 0
M  V30 6759 H 618.37 -1.03976 0.996243 0
M  V30 6760 H 620.323 -4.16016 0.671485 0
M  V30 6761 H 619.047 -3.2607 -0.185969 0
M  V30 6762 H 617.706 -3.10987 1.9412 0
M  V30 6763 H 617.354 -5.01696 0.361989 0
M  V30 6764 H 617.054 -5.50751 2.04811 0
M  V30 6765 H 618.578 -5.97811 1.24315 0
M  V30 6766 H 619.992 -4.77641 3.17067 0
M  V30 6767 H 618.389 -4.53906 3.92542 0
M  V30 6768 H 619.459 -3.14515 3.69064 0
M  V30 6769 N 620.802 -1.09834 -1.13024 0
M  V30 6770 C 622.051 -0.831806 -1.83749 0
M  V30 6771 C 622.364 0.644763 -1.84668 0
M  V30 6772 O 623.57 1.02697 -2.51327 0
M  V30 6773 C 622.026 -1.43817 -3.29916 0
M  V30 6774 C 621.634 -2.94759 -3.37374 0
M  V30 6775 C 623.378 -1.25077 -4.05655 0
M  V30 6776 C 621.285 -3.48461 -4.77838 0
M  V30 6777 H 620.215 -0.30751 -0.688443 0
M  V30 6778 H 622.866 -1.32156 -1.27307 0
M  V30 6779 H 621.248 -0.876106 -3.86187 0
M  V30 6780 H 622.422 -3.57228 -2.91076 0
M  V30 6781 H 620.737 -3.12581 -2.75103 0
M  V30 6782 H 623.334 -1.62649 -5.09362 0
M  V30 6783 H 623.677 -0.191782 -4.15858 0
M  V30 6784 H 624.21 -1.78057 -3.55725 0
M  V30 6785 H 620.949 -4.53998 -4.72828 0
M  V30 6786 H 620.469 -2.90757 -5.24615 0
M  V30 6787 H 622.148 -3.45914 -5.46766 0
M  V30 6788 N 622.28 1.30327 -0.886154 0
M  V30 6789 C 623.227 2.28099 -0.352069 0
M  V30 6790 C 624.197 1.56433 0.558397 0
M  V30 6791 O 625.382 1.84492 0.486561 0
M  V30 6792 C 622.522 3.42456 0.426346 0
M  V30 6793 C 621.635 4.28938 -0.513472 0
M  V30 6794 C 620.77 5.30458 0.280657 0
M  V30 6795 C 619.809 6.0859 -0.654556 0
M  V30 6796 N 618.946 7.02022 0.104322 0
M  V30 6797 H 623.786 2.73166 -1.19097 0
M  V30 6798 H 621.323 1.34367 -0.598662 0
M  V30 6799 H 623.281 4.07518 0.893587 0
M  V30 6800 H 621.911 2.98455 1.22981 0
M  V30 6801 H 620.963 3.64173 -1.09921 0
M  V30 6802 H 622.275 4.83399 -1.2299 0
M  V30 6803 H 621.429 6.01273 0.8097 0
M  V30 6804 H 620.168 4.76693 1.03029 0
M  V30 6805 H 619.173 5.36651 -1.19522 0
M  V30 6806 H 620.398 6.64443 -1.4033 0
M  V30 6807 H 618.344 6.50645 0.836472 0
M  V30 6808 H 618.261 7.53979 -0.552453 0
M  V30 6809 H 619.529 7.77077 0.614069 0
M  V30 6810 N 623.758 0.647228 1.43697 0
M  V30 6811 C 625.035 0.0883758 1.954 0
M  V30 6812 C 625.415 -1.39006 1.58873 0
M  V30 6813 O 624.763 -2.11255 0.87083 0
M  V30 6814 C 624.973 0.328263 3.47453 0
M  V30 6815 C 626.321 0.230009 4.23977 0
M  V30 6816 O 627.345 0.260496 3.55246 0
M  V30 6817 O 626.204 0.148615 5.46298 0
M  V30 6818 H 623.298 -0.0130683 0.826897 0
M  V30 6819 H 625.844 0.72005 1.53666 0
M  V30 6820 H 624.616 1.3535 3.67146 0
M  V30 6821 H 624.239 -0.336772 3.96171 0
M  V30 6822 N 625.236 -1.5273 0.388769 0
M  V30 6823 C 626.461 -2.0647 -0.19621 0
M  V30 6824 C 626.886 -1.25865 -1.39784 0
M  V30 6825 O 626.244 -0.283562 -1.79069 0
M  V30 6826 C 626.292 -3.56456 -0.5451 0
M  V30 6827 O 625.396 -3.78426 -1.63912 0
M  V30 6828 H 624.737 -0.663599 -0.023067 0
M  V30 6829 H 627.267 -1.96898 0.556084 0
M  V30 6830 H 627.277 -3.99888 -0.809557 0
M  V30 6831 H 625.952 -4.14561 0.333417 0
M  V30 6832 H 624.529 -3.46884 -1.36842 0
M  V30 6833 N 626.714 -0.118576 -1.57153 0
M  V30 6834 C 627.962 0.538461 -1.94795 0
M  V30 6835 C 628.283 1.67243 -1.00274 0
M  V30 6836 O 627.553 1.95811 -0.0589692 0
M  V30 6837 H 626.133 0.201904 -0.719197 0
M  V30 6838 H 628.795 -0.187418 -1.93997 0
M  V30 6839 H 627.891 0.933315 -2.97818 0
M  V30 6840 N 628.193 1.56834 0.155195 0
M  V30 6841 C 629.441 1.82536 0.867462 0
M  V30 6842 C 629.762 0.698168 1.82073 0
M  V30 6843 O 629.032 -0.280807 1.93877 0
M  V30 6844 H 627.612 0.673401 0.323327 0
M  V30 6845 H 630.274 1.94313 0.151156 0
M  V30 6846 H 629.37 2.77171 1.43466 0
M  V30 6847 N 629.671 -0.424282 1.51781 0
M  V30 6848 C 630.581 -1.54087 1.76902 0
M  V30 6849 C 631.597 -1.61249 0.653826 0
M  V30 6850 O 632.773 -1.78247 0.937552 0
M  V30 6851 C 629.838 -2.8996 1.90063 0
M  V30 6852 C 628.899 -2.92809 3.13945 0
M  V30 6853 C 628.132 -4.22201 3.26469 0
M  V30 6854 O 628.355 -5.15286 2.44616 0
M  V30 6855 O 627.289 -4.31599 4.1953 0
M  V30 6856 H 631.115 -1.358 2.71647 0
M  V30 6857 H 628.7 -0.608618 1.36441 0
M  V30 6858 H 630.582 -3.70575 2.0063 0
M  V30 6859 H 629.257 -3.08347 0.985067 0
M  V30 6860 H 628.164 -2.11102 3.08847 0
M  V30 6861 H 629.497 -2.79369 4.05233 0
M  V30 6862 N 631.149 -1.42148 -0.680565 0
M  V30 6863 C 632.56 -1.3768 -1.26099 0
M  V30 6864 C 632.911 -0.0672348 -1.96085 0
M  V30 6865 O 632.036 0.834172 -1.99676 0
M  V30 6866 C 632.631 -2.49387 -2.29328 0
M  V30 6867 C 631.19 -2.4827 -2.82911 0
M  V30 6868 C 630.337 -2.2847 -1.57152 0
M  V30 6869 H 633.288 -1.51446 -0.474326 0
M  V30 6870 H 633.309 -2.19307 -3.10941 0
M  V30 6871 H 632.821 -3.44686 -1.78363 0
M  V30 6872 H 630.922 -1.56773 -3.38013 0
M  V30 6873 H 631.035 -3.45109 -3.3232 0
M  V30 6874 H 629.399 -1.76623 -1.83511 0
M  V30 6875 H 630.182 -3.25816 -1.0816 0
M  V30 6876 N 632.627 0.916307 -1.28225 0
M  V30 6877 C 633.537 2.05165 -1.13775 0
M  V30 6878 C 634.553 1.73879 -0.0649418 0
M  V30 6879 O 635.729 1.99531 -0.273722 0
M  V30 6880 C 632.794 3.37385 -0.798267 0
M  V30 6881 C 631.855 3.82296 -1.95316 0
M  V30 6882 C 631.088 5.08206 -1.62978 0
M  V30 6883 O 631.311 5.6781 -0.542948 0
M  V30 6884 O 630.245 5.48768 -2.47261 0
M  V30 6885 H 634.071 2.20273 -2.09078 0
M  V30 6886 H 631.656 1.0373 -1.07519 0
M  V30 6887 H 633.538 4.16773 -0.62278 0
M  V30 6888 H 632.213 3.23458 0.125139 0
M  V30 6889 H 631.12 3.03746 -2.18378 0
M  V30 6890 H 632.453 4.00782 -2.85718 0
M  V30 6891 N 634.105 1.10431 1.1244 0
M  V30 6892 C 635.015 0.765502 2.21759 0
M  V30 6893 C 636.031 -0.236966 1.72379 0
M  V30 6894 O 637.207 -0.0757329 2.01258 0
M  V30 6895 C 634.272 0.202316 3.46109 0
M  V30 6896 C 633.333 1.26205 4.1033 0
M  V30 6897 C 632.566 0.725648 5.28744 0
M  V30 6898 O 632.789 -0.447942 5.68638 0
M  V30 6899 O 631.723 1.48555 5.83279 0
M  V30 6900 H 635.549 1.67801 2.53133 0
M  V30 6901 H 633.134 0.879443 1.20773 0
M  V30 6902 H 635.016 -0.107918 4.21262 0
M  V30 6903 H 633.691 -0.683052 3.16411 0
M  V30 6904 H 632.598 1.62514 3.36957 0
M  V30 6905 H 633.931 2.12044 4.44183 0
M  V30 6906 N 635.583 -1.29855 0.893053 0
M  V30 6907 C 636.531 -2.29867 0.355512 0
M  V30 6908 C 637.525 -1.60502 -0.541801 0
M  V30 6909 O 638.731 -1.74902 -0.425339 0
M  V30 6910 H 635.106 -0.745805 0.0963247 0
M  V30 6911 H 637.077 -2.72655 1.21252 0
M  V30 6912 C 635.826 -3.453 -0.407801 0
M  V30 6913 H 635.149 -3.98864 0.273426 0
M  V30 6914 H 636.589 -4.17334 -0.748887 0
M  V30 6915 C 635.048 -2.96051 -1.60795 0
M  V30 6916 O 635.578 -2.96763 -2.7073 0
M  V30 6917 N 633.784 -2.51963 -1.44786 0
M  V30 6918 H 633.331 -2.51583 -0.553498 0
M  V30 6919 H 633.289 -2.1937 -2.2522 0
M  V30 6920 N 637.061 -0.65484 -1.43351 0
M  V30 6921 C 637.971 0.0363603 -2.34572 0
M  V30 6922 C 638.987 0.810432 -1.53974 0
M  V30 6923 O 640.163 0.757308 -1.86619 0
M  V30 6924 C 637.228 0.989733 -3.32273 0
M  V30 6925 C 636.289 0.212414 -4.28774 0
M  V30 6926 C 635.522 1.12038 -5.21808 0
M  V30 6927 O 635.745 2.35967 -5.19303 0
M  V30 6928 O 634.679 0.59191 -5.98982 0
M  V30 6929 H 638.505 -0.714527 -2.95175 0
M  V30 6930 H 636.09 -0.415029 -1.4352 0
M  V30 6931 H 637.972 1.53759 -3.92347 0
M  V30 6932 H 636.647 1.72082 -2.74171 0
M  V30 6933 H 635.554 -0.379062 -3.72175 0
M  V30 6934 H 636.887 -0.479138 -4.89862 0
M  V30 6935 N 638.539 1.52521 -0.396863 0
M  V30 6936 C 639.449 2.30403 0.44178 0
M  V30 6937 C 640.465 1.37625 1.06468 0
M  V30 6938 O 641.641 1.70697 1.06886 0
M  V30 6939 C 638.706 3.1013 1.54986 0
M  V30 6940 C 637.767 4.18628 0.951279 0
M  V30 6941 C 637 4.94543 2.00655 0
M  V30 6942 O 637.223 4.70629 3.22281 0
M  V30 6943 O 636.157 5.797 1.61962 0
M  V30 6944 H 639.983 3.03087 -0.192892 0
M  V30 6945 H 637.568 1.48537 -0.16038 0
M  V30 6946 H 639.45 3.59816 2.19341 0
M  V30 6947 H 638.125 2.40251 2.16935 0
M  V30 6948 H 637.032 3.73119 0.270773 0
M  V30 6949 H 638.365 4.90763 0.375887 0
M  V30 6950 N 640.017 0.126909 1.57088 0
M  V30 6951 C 640.964 -0.82036 2.15728 0
M  V30 6952 C 641.934 -1.25811 1.08447 0
M  V30 6953 O 643.119 -1.33422 1.36393 0
M  V30 6954 C 640.259 -2.06199 2.76724 0
M  V30 6955 C 639.372 -1.67188 3.98337 0
M  V30 6956 C 638.507 -2.86378 4.47393 0
M  V30 6957 C 637.546 -2.43644 5.61519 0
M  V30 6958 N 636.683 -3.55775 6.05284 0
M  V30 6959 H 641.523 -0.313472 2.96347 0
M  V30 6960 H 639.06 -0.14303 1.46403 0
M  V30 6961 H 641.018 -2.78959 3.10222 0
M  V30 6962 H 639.648 -2.54333 1.98782 0
M  V30 6963 H 638.7 -0.842714 3.70948 0
M  V30 6964 H 640.012 -1.31789 4.81075 0
M  V30 6965 H 639.166 -3.67353 4.82842 0
M  V30 6966 H 637.905 -3.25009 3.63621 0
M  V30 6967 H 636.91 -1.61104 5.25667 0
M  V30 6968 H 638.135 -2.06122 6.47063 0
M  V30 6969 H 636.081 -3.94065 5.24451 0
M  V30 6970 H 635.998 -3.24325 6.82898 0
M  V30 6971 H 637.266 -4.37166 6.45373 0
M  V30 6972 N 641.495 -1.56914 -0.146875 0
M  V30 6973 C 642.744 -1.82546 -0.857898 0
M  V30 6974 C 643.057 -0.708169 -1.8233 0
M  V30 6975 O 644.263 -0.850093 -2.57848 0
M  V30 6976 C 642.719 -3.23548 -1.57623 0
M  V30 6977 C 642.327 -4.43212 -0.653224 0
M  V30 6978 C 644.071 -3.58453 -2.27402 0
M  V30 6979 C 641.978 -5.75237 -1.37318 0
M  V30 6980 H 640.908 -0.680786 -0.32411 0
M  V30 6981 H 643.559 -1.83166 -0.110639 0
M  V30 6982 H 641.941 -3.17315 -2.36912 0
M  V30 6983 H 643.115 -4.60682 0.104452 0
M  V30 6984 H 641.43 -4.16351 -0.0638336 0
M  V30 6985 H 644.027 -4.54349 -2.81907 0
M  V30 6986 H 644.37 -2.84516 -3.03901 0
M  V30 6987 H 644.903 -3.66347 -1.55032 0
M  V30 6988 H 641.642 -6.52269 -0.650041 0
M  V30 6989 H 641.162 -5.61703 -2.10357 0
M  V30 6990 H 642.841 -6.18039 -1.91406 0
M  V30 6991 N 642.974 0.416227 -1.52004 0
M  V30 6992 C 644.22 1.16555 -1.6596 0
M  V30 6993 C 644.553 1.90347 -0.384906 0
M  V30 6994 O 643.828 1.84474 0.616405 0
M  V30 6995 C 644.111 2.1657 -2.87696 0
M  V30 6996 C 643.964 1.46722 -4.25197 0
M  V30 6997 C 645.283 3.17321 -3.04951 0
M  V30 6998 H 642.402 0.422369 -0.603965 0
M  V30 6999 H 645.044 0.452141 -1.84542 0
M  V30 7000 H 643.194 2.77411 -2.71985 0
M  V30 7001 H 644.866 0.89056 -4.52622 0
M  V30 7002 H 643.109 0.769263 -4.26925 0
M  V30 7003 H 643.78 2.19665 -5.0641 0
M  V30 7004 H 646.256 2.66552 -3.19514 0
M  V30 7005 H 645.132 3.84573 -3.91656 0
M  V30 7006 H 645.393 3.84643 -2.17951 0
M  V30 7007 N 644.452 1.42507 0.673017 0
M  V30 7008 C 645.4 1.46362 1.80779 0
M  V30 7009 C 646.394 0.339166 1.6597 0
M  V30 7010 O 647.6 0.512262 1.72557 0
M  V30 7011 H 643.975 0.458433 0.596107 0
M  V30 7012 H 645.946 2.41953 1.74646 0
M  V30 7013 C 644.695 1.38462 3.18941 0
M  V30 7014 H 644.018 2.24283 3.30964 0
M  V30 7015 H 645.458 1.45221 3.98355 0
M  V30 7016 C 643.917 0.0996354 3.36753 0
M  V30 7017 O 644.447 -0.846894 3.92671 0
M  V30 7018 N 642.653 0.016211 2.90595 0
M  V30 7019 H 642.2 0.78725 2.45276 0
M  V30 7020 H 642.158 -0.84291 3.0289 0
M  V30 7021 N 645.93 -0.909495 1.28709 0
M  V30 7022 C 646.86 -2.0291 1.15542 0
M  V30 7023 C 647.841 -1.7002 0.0521017 0
M  V30 7024 O 649.026 -1.92835 0.229849 0
M  V30 7025 C 646.156 -3.37458 0.820935 0
M  V30 7026 C 645.11 -3.84524 1.87949 0
M  V30 7027 C 644.436 -5.16086 1.39854 0
M  V30 7028 C 645.736 -4.05918 3.28676 0
M  V30 7029 H 647.43 -2.14183 2.09203 0
M  V30 7030 H 644.976 -1.02913 1.00722 0
M  V30 7031 H 646.929 -4.1528 0.715571 0
M  V30 7032 H 645.653 -3.26249 -0.151374 0
M  V30 7033 H 644.312 -3.08911 1.97408 0
M  V30 7034 H 643.96 -5.01284 0.41518 0
M  V30 7035 H 643.66 -5.48547 2.1064 0
M  V30 7036 H 645.184 -5.96459 1.30649 0
M  V30 7037 H 646.598 -4.74252 3.22115 0
M  V30 7038 H 644.995 -4.49717 3.97334 0
M  V30 7039 H 646.065 -3.10583 3.72379 0
M  V30 7040 N 647.408 -1.11026 -1.11852 0
M  V30 7041 C 648.318 -0.777252 -2.2135 0
M  V30 7042 C 649.334 0.227821 -1.72502 0
M  V30 7043 O 650.51 0.0650587 -2.01295 0
M  V30 7044 C 647.575 -0.220668 -3.45997 0
M  V30 7045 C 646.636 -1.2838 -4.09655 0
M  V30 7046 C 645.869 -0.753678 -5.28352 0
M  V30 7047 O 646.092 0.417779 -5.68868 0
M  V30 7048 O 645.026 -1.51647 -5.82483 0
M  V30 7049 H 648.852 -1.69141 -2.5224 0
M  V30 7050 H 646.437 -0.885836 -1.20305 0
M  V30 7051 H 648.319 0.0855756 -4.21313 0
M  V30 7052 H 646.994 0.666262 -3.16769 0
M  V30 7053 H 645.901 -1.64299 -3.3609 0
M  V30 7054 H 647.234 -2.14396 -4.43052 0
M  V30 7055 N 648.886 1.2938 -0.899927 0
M  V30 7056 C 649.816 2.30144 -0.39446 0
M  V30 7057 C 650.797 1.61611 0.530639 0
M  V30 7058 O 651.982 1.89119 0.441319 0
M  V30 7059 C 649.112 3.45229 0.37868 0
M  V30 7060 C 648.066 4.25564 -0.456012 0
M  V30 7061 C 647.392 5.32848 0.444637 0
M  V30 7062 C 648.692 4.93651 -1.70605 0
M  V30 7063 H 650.386 2.72673 -1.23653 0
M  V30 7064 H 647.932 1.31086 -0.596034 0
M  V30 7065 H 649.885 4.14797 0.743037 0
M  V30 7066 H 648.609 3.01545 1.25453 0
M  V30 7067 H 647.268 3.57704 -0.802704 0
M  V30 7068 H 646.916 4.85408 1.31863 0
M  V30 7069 H 646.616 5.87497 -0.110154 0
M  V30 7070 H 648.14 6.05268 0.805182 0
M  V30 7071 H 649.554 5.55655 -1.41141 0
M  V30 7072 H 647.951 5.58233 -2.20217 0
M  V30 7073 H 649.021 4.18926 -2.4419 0
M  V30 7074 N 650.364 0.662433 1.43002 0
M  V30 7075 C 651.61 0.179857 2.02001 0
M  V30 7076 C 651.943 -1.20625 1.52195 0
M  V30 7077 O 651.218 -1.80726 0.718911 0
M  V30 7078 C 651.501 0.200845 3.59539 0
M  V30 7079 C 651.354 1.62153 4.19555 0
M  V30 7080 C 652.673 -0.457738 4.37713 0
M  V30 7081 H 649.792 0.0668305 0.733964 0
M  V30 7082 H 652.434 0.84487 1.70182 0
M  V30 7083 H 650.584 -0.365411 3.86778 0
M  V30 7084 H 652.256 2.23908 4.03315 0
M  V30 7085 H 650.499 2.16601 3.75854 0
M  V30 7086 H 651.17 1.58799 5.28665 0
M  V30 7087 H 653.646 0.0241495 4.16093 0
M  V30 7088 H 652.522 -0.412363 5.47349 0
M  V30 7089 H 652.783 -1.53336 4.14657 0
M  V30 7090 N 651.842 -1.52309 0.404946 0
M  V30 7091 C 653.089 -2.01767 -0.1722 0
M  V30 7092 C 653.417 -1.29075 -1.45498 0
M  V30 7093 O 652.672 -0.3843 -1.9189 0
M  V30 7094 C 652.971 -3.54284 -0.470895 0
M  V30 7095 C 652.637 -4.45079 0.722194 0
M  V30 7096 C 651.299 -4.69617 1.04946 0
M  V30 7097 C 653.651 -4.98555 1.51962 0
M  V30 7098 C 650.979 -5.44878 2.17543 0
M  V30 7099 C 653.331 -5.75049 2.63632 0
M  V30 7100 C 651.995 -5.9786 2.9685 0
M  V30 7101 H 651.265 -0.738316 -0.0630125 0
M  V30 7102 H 653.912 -1.83566 0.545506 0
M  V30 7103 H 652.217 -3.70642 -1.27012 0
M  V30 7104 H 653.914 -3.90058 -0.930346 0
M  V30 7105 H 650.504 -4.26155 0.457131 0
M  V30 7106 H 654.688 -4.79509 1.28002 0
M  V30 7107 H 649.944 -5.60762 2.43631 0
M  V30 7108 H 654.118 -6.15483 3.25813 0
M  V30 7109 H 651.745 -6.5596 3.84215 0
M  V30 7110 N 653.32 -0.135238 -1.57019 0
M  V30 7111 C 654.568 0.51777 -1.95355 0
M  V30 7112 C 654.889 1.6617 -1.02042 0
M  V30 7113 O 654.159 1.95738 -0.0797343 0
M  V30 7114 H 652.739 0.194264 -0.721298 0
M  V30 7115 H 655.401 -0.207983 -1.93787 0
M  V30 7116 H 654.497 0.901675 -2.98791 0
M  V30 7117 N 654.798 1.5699 0.138552 0
M  V30 7118 C 656.045 1.83809 0.849732 0
M  V30 7119 C 656.373 0.717409 1.80786 0
M  V30 7120 O 655.628 -0.292897 1.93496 0
M  V30 7121 C 655.927 3.17007 1.65049 0
M  V30 7122 C 655.593 4.43037 0.838398 0
M  V30 7123 C 654.255 4.77262 0.614385 0
M  V30 7124 C 656.607 5.20495 0.271044 0
M  V30 7125 C 653.935 5.864 -0.187552 0
M  V30 7126 C 656.287 6.30476 -0.517979 0
M  V30 7127 C 654.951 6.63245 -0.75249 0
M  V30 7128 H 654.221 0.672605 0.310939 0
M  V30 7129 H 656.868 1.91166 0.112971 0
M  V30 7130 H 655.173 3.05138 2.4576 0
M  V30 7131 H 656.87 3.34975 2.20437 0
M  V30 7132 H 653.46 4.16211 1.02307 0
M  V30 7133 H 657.644 4.94422 0.431371 0
M  V30 7134 H 652.9 6.10226 -0.378659 0
M  V30 7135 H 657.074 6.89686 -0.964694 0
M  V30 7136 H 654.701 7.47648 -1.37573 0
M  V30 7137 N 656.276 -0.40816 1.52223 0
M  V30 7138 C 657.226 -1.49648 1.72016 0
M  V30 7139 C 658.21 -1.50311 0.574069 0
M  V30 7140 O 659.402 -1.56271 0.831173 0
M  V30 7141 C 656.531 -2.87566 1.87512 0
M  V30 7142 C 655.617 -2.91547 3.07995 0
M  V30 7143 N 656.008 -2.65225 4.30685 0
M  V30 7144 C 654.306 -3.22715 3.07849 0
M  V30 7145 C 655.007 -2.75799 5.12162 0
M  V30 7146 N 653.983 -3.08719 4.4743 0
M  V30 7147 H 657.785 -1.28093 2.64517 0
M  V30 7148 H 655.299 -0.61588 1.50269 0
M  V30 7149 H 657.296 -3.65899 1.99809 0
M  V30 7150 H 655.956 -3.10118 0.962114 0
M  V30 7151 H 656.967 -2.39601 4.59142 0
M  V30 7152 H 653.644 -3.50856 2.26289 0
M  V30 7153 H 655.034 -2.59155 6.1991 0
M  V30 7154 N 657.755 -1.42862 -0.66545 0
M  V30 7155 C 658.685 -1.49867 -1.79059 0
M  V30 7156 C 659.666 -0.354394 -1.66367 0
M  V30 7157 O 660.851 -0.569969 -1.85647 0
M  V30 7158 C 657.981 -1.40943 -3.17415 0
M  V30 7159 C 656.935 -2.53495 -3.44854 0
M  V30 7160 C 656.261 -2.29626 -4.82883 0
M  V30 7161 C 657.561 -3.95781 -3.40815 0
M  V30 7162 H 659.255 -2.44037 -1.73453 0
M  V30 7163 H 656.801 -1.17456 -0.833071 0
M  V30 7164 H 658.754 -1.4445 -3.95869 0
M  V30 7165 H 657.478 -0.432716 -3.23721 0
M  V30 7166 H 656.137 -2.4932 -2.68766 0
M  V30 7167 H 655.785 -1.30226 -4.8585 0
M  V30 7168 H 655.485 -3.05065 -5.02204 0
M  V30 7169 H 657.009 -2.34897 -5.63609 0
M  V30 7170 H 658.423 -4.01508 -4.09224 0
M  V30 7171 H 656.82 -4.71148 -3.71672 0
M  V30 7172 H 657.89 -4.21786 -2.39216 0
M  V30 7173 N 659.233 0.902656 -1.29189 0
M  V30 7174 C 660.18 2.00643 -1.14066 0
M  V30 7175 C 661.15 1.66064 -0.0347756 0
M  V30 7176 O 662.335 1.8973 -0.201752 0
M  V30 7177 C 659.475 3.35214 -0.820104 0
M  V30 7178 C 658.588 3.82594 -2.00614 0
M  V30 7179 C 657.723 5.05727 -1.62522 0
M  V30 7180 C 656.762 5.45469 -2.77724 0
M  V30 7181 N 655.899 6.59789 -2.40048 0
M  V30 7182 H 660.739 2.1291 -2.08502 0
M  V30 7183 H 658.276 1.04271 -1.03759 0
M  V30 7184 H 660.234 4.12643 -0.614949 0
M  V30 7185 H 658.864 3.22682 0.0873452 0
M  V30 7186 H 657.916 3.01226 -2.32308 0
M  V30 7187 H 659.228 4.07999 -2.86946 0
M  V30 7188 H 658.382 5.90732 -1.38277 0
M  V30 7189 H 657.121 4.82155 -0.733333 0
M  V30 7190 H 656.126 4.59 -3.02653 0
M  V30 7191 H 657.351 5.71024 -3.67572 0
M  V30 7192 H 655.297 6.37826 -1.53343 0
M  V30 7193 H 655.214 6.84975 -3.19914 0
M  V30 7194 H 656.482 7.4807 -2.19116 0
M  V30 7195 N 660.711 1.11618 1.11262 0
M  V30 7196 C 662.122 0.881942 1.64556 0
M  V30 7197 C 662.473 -0.585442 1.87262 0
M  V30 7198 O 661.598 -1.44795 1.60821 0
M  V30 7199 C 662.193 1.59446 2.98935 0
M  V30 7200 C 660.752 1.40661 3.4913 0
M  V30 7201 C 659.899 1.63593 2.23903 0
M  V30 7202 H 662.85 1.27217 0.94877 0
M  V30 7203 H 662.871 1.04054 3.65996 0
M  V30 7204 H 662.383 2.66241 2.82378 0
M  V30 7205 H 660.484 0.360835 3.70849 0
M  V30 7206 H 660.597 2.15693 4.27801 0
M  V30 7207 H 658.961 1.05944 2.3162 0
M  V30 7208 H 659.744 2.71666 2.09886 0
M  V30 7209 N 662.189 -1.289 0.906776 0
M  V30 7210 C 663.437 -1.94883 0.535266 0
M  V30 7211 C 663.758 -1.71784 -0.922791 0
M  V30 7212 O 663.028 -1.05359 -1.65156 0
M  V30 7213 H 661.608 -0.721109 0.194962 0
M  V30 7214 H 664.27 -1.57018 1.15461 0
M  V30 7215 H 663.366 -3.03591 0.723821 0
M  V30 7216 N 663.667 -0.670007 -1.42649 0
M  V30 7217 C 664.895 -0.19854 -2.05945 0
M  V30 7218 C 665.31 1.14243 -1.50313 0
M  V30 7219 O 664.667 1.70872 -0.641027 0
M  V30 7220 C 664.718 -0.11966 -3.61302 0
M  V30 7221 O 664.439 -1.40764 -4.1487 0
M  V30 7222 C 665.94 0.375878 -4.41704 0
M  V30 7223 H 663.16 -0.0976894 -0.663851 0
M  V30 7224 H 665.704 -0.915392 -1.82868 0
M  V30 7225 H 663.859 0.547851 -3.83507 0
M  V30 7226 H 664.273 -1.27784 -5.08696 0
M  V30 7227 H 665.747 0.379988 -5.50691 0
M  V30 7228 H 666.224 1.41028 -4.15942 0
M  V30 7229 H 666.83 -0.259727 -4.24506 0
M  V30 7230 N 665.145 1.52092 -0.413018 0
M  V30 7231 C 666.393 2.01456 0.161178 0
M  V30 7232 C 666.714 1.30034 1.45314 0
M  V30 7233 O 665.984 0.427435 1.9118 0
M  V30 7234 H 664.564 0.744376 0.0625526 0
M  V30 7235 H 667.226 1.86974 -0.550151 0
M  V30 7236 H 666.322 3.1008 0.354517 0
M  V30 7237 N 666.623 0.143563 1.56945 0
M  V30 7238 C 668.034 -0.37783 1.82837 0
M  V30 7239 C 668.385 -1.64967 1.06209 0
M  V30 7240 O 667.51 -2.14221 0.306291 0
M  V30 7241 C 668.105 -0.692274 3.31652 0
M  V30 7242 C 666.664 -1.1582 3.58138 0
M  V30 7243 C 665.811 -0.17951 2.76718 0
M  V30 7244 H 668.762 0.368317 1.54367 0
M  V30 7245 H 668.783 -1.54729 3.47619 0
M  V30 7246 H 668.295 0.233572 3.87397 0
M  V30 7247 H 666.396 -2.10011 3.07776 0
M  V30 7248 H 666.509 -1.08655 4.66616 0
M  V30 7249 H 664.873 -0.671458 2.4569 0
M  V30 7250 H 665.656 0.739865 3.35233 0
M  V30 7251 N 668.101 -1.57061 -0.130224 0
M  V30 7252 C 669.033 -1.96147 -1.18571 0
M  V30 7253 C 670.046 -0.859347 -1.38272 0
M  V30 7254 O 671.235 -1.13769 -1.37545 0
M  V30 7255 C 668.335 -2.23484 -2.54771 0
M  V30 7256 C 667.508 -3.54786 -2.55824 0
M  V30 7257 C 666.567 -3.70467 -3.73686 0
M  V30 7258 O 665.593 -4.42693 -3.57787 0
M  V30 7259 N 666.795 -3.08389 -4.91809 0
M  V30 7260 H 669.56 -2.87295 -0.853333 0
M  V30 7261 H 667.121 -1.58714 -0.319621 0
M  V30 7262 H 669.113 -2.312 -3.32158 0
M  V30 7263 H 667.683 -1.38518 -2.80235 0
M  V30 7264 H 666.903 -3.5836 -1.64232 0
M  V30 7265 H 668.191 -4.4111 -2.53573 0
M  V30 7266 H 667.589 -2.49656 -5.0763 0
M  V30 7267 H 666.146 -3.21642 -5.66912 0
M  V30 7268 N 669.579 0.400081 -1.52437 0
M  V30 7269 C 670.856 1.15973 -1.57511 0
M  V30 7270 C 671.236 2.0798 -0.361572 0
M  V30 7271 O 670.584 2.19032 0.650929 0
M  V30 7272 C 670.794 1.92912 -2.90837 0
M  V30 7273 C 672.142 2.48662 -3.44169 0
M  V30 7274 O 673.166 2.03081 -2.92637 0
M  V30 7275 O 672.025 3.31894 -4.34176 0
M  V30 7276 H 669.119 0.530023 -0.634827 0
M  V30 7277 H 671.665 0.40613 -1.64769 0
M  V30 7278 H 670.437 1.25564 -3.70607 0
M  V30 7279 H 670.06 2.75257 -2.86913 0
M  V30 7280 N 671.057 1.43213 0.657864 0
M  V30 7281 C 672.297 1.46083 1.42965 0
M  V30 7282 C 672.661 0.0809712 1.91829 0
M  V30 7283 O 673.862 -0.0156305 2.68795 0
M  V30 7284 C 672.133 2.47044 2.58271 0
M  V30 7285 S 673.692 2.68753 3.46868 0
M  V30 7286 H 670.51 0.517015 0.488074 0
M  V30 7287 H 673.112 1.79945 0.764213 0
M  V30 7288 H 671.816 3.46044 2.20639 0
M  V30 7289 H 671.347 2.14665 3.2967 0
M  V30 7290 H 673.362 1.98329 4.54841 0
M  V30 7291 N 672.536 -0.895792 1.29666 0
M  V30 7292 C 673.483 -2.00035 1.15129 0
M  V30 7293 C 674.453 -1.66043 0.0435819 0
M  V30 7294 O 675.638 -1.89621 0.211811 0
M  V30 7295 C 672.778 -3.34774 0.83787 0
M  V30 7296 C 671.891 -3.81525 2.0264 0
M  V30 7297 C 671.026 -5.04858 1.65201 0
M  V30 7298 C 670.065 -5.43988 2.80612 0
M  V30 7299 N 669.202 -6.58507 2.43544 0
M  V30 7300 H 674.042 -2.11802 2.09628 0
M  V30 7301 H 671.579 -1.03719 1.04311 0
M  V30 7302 H 673.537 -4.12311 0.636824 0
M  V30 7303 H 672.167 -3.22724 -0.0702314 0
M  V30 7304 H 671.219 -2.9999 2.33903 0
M  V30 7305 H 672.531 -4.06472 2.89106 0
M  V30 7306 H 671.685 -5.8999 1.41408 0
M  V30 7307 H 670.424 -4.81759 0.758893 0
M  V30 7308 H 669.429 -4.57388 3.05083 0
M  V30 7309 H 670.654 -5.69066 3.70595 0
M  V30 7310 H 668.6 -6.37004 1.56724 0
M  V30 7311 H 668.517 -6.83269 3.23542 0
M  V30 7312 H 669.785 -7.46897 2.2308 0
M  V30 7313 N 674.014 -1.12206 -1.10668 0
M  V30 7314 C 675.26 -0.887096 -1.83036 0
M  V30 7315 C 675.615 0.580887 -1.83422 0
M  V30 7316 O 674.908 1.42379 -1.28213 0
M  V30 7317 C 675.102 -1.39276 -3.29146 0
M  V30 7318 C 674.931 -2.90837 -3.42992 0
M  V30 7319 C 673.701 -3.59047 -3.55546 0
M  V30 7320 C 675.899 -3.8885 -3.36601 0
M  V30 7321 N 673.881 -4.98747 -3.57945 0
M  V30 7322 C 675.252 -5.14666 -3.45716 0
M  V30 7323 C 677.307 -3.81296 -3.20184 0
M  V30 7324 C 676.01 -6.33814 -3.40106 0
M  V30 7325 C 678.036 -4.99965 -3.15895 0
M  V30 7326 C 677.398 -6.24637 -3.25589 0
M  V30 7327 H 673.497 -0.377857 -0.684652 0
M  V30 7328 H 676.081 -1.42791 -1.32358 0
M  V30 7329 H 674.252 -0.879026 -3.78322 0
M  V30 7330 H 675.984 -1.10011 -3.89461 0
M  V30 7331 H 672.739 -3.09533 -3.5845 0
M  V30 7332 H 673.163 -5.71606 -3.62762 0
M  V30 7333 H 677.805 -2.85806 -3.11569 0
M  V30 7334 H 675.523 -7.29574 -3.47487 0
M  V30 7335 H 679.109 -4.95847 -3.04347 0
M  V30 7336 H 677.989 -7.14921 -3.22269 0
M  V30 7337 N 675.492 1.28418 -0.913599 0
M  V30 7338 C 676.439 2.27301 -0.400373 0
M  V30 7339 C 677.409 1.57582 0.52509 0
M  V30 7340 O 678.594 1.85482 0.447318 0
M  V30 7341 C 675.734 3.43284 0.35361 0
M  V30 7342 C 674.847 4.27752 -0.604341 0
M  V30 7343 C 673.982 5.30934 0.168075 0
M  V30 7344 C 673.021 6.07065 -0.783499 0
M  V30 7345 N 672.158 7.02086 -0.0446112 0
M  V30 7346 H 676.998 2.70579 -1.24865 0
M  V30 7347 H 674.535 1.33067 -0.627028 0
M  V30 7348 H 676.493 4.09322 0.806945 0
M  V30 7349 H 675.123 3.00997 1.16623 0
M  V30 7350 H 674.175 3.61759 -1.17621 0
M  V30 7351 H 675.487 4.80682 -1.33216 0
M  V30 7352 H 674.641 6.02855 0.681979 0
M  V30 7353 H 673.38 4.78771 0.928947 0
M  V30 7354 H 672.385 5.33995 -1.30878 0
M  V30 7355 H 673.61 6.61317 -1.54392 0
M  V30 7356 H 671.556 6.52273 0.698272 0
M  V30 7357 H 671.473 7.52637 -0.712258 0
M  V30 7358 H 672.741 7.78205 0.449102 0
M  V30 7359 N 676.97 0.677563 1.42291 0
M  V30 7360 C 677.903 -0.0492638 2.28147 0
M  V30 7361 C 678.881 -0.805936 1.41221 0
M  V30 7362 O 680.065 -0.80049 1.70659 0
M  V30 7363 C 677.192 -1.07697 3.21122 0
M  V30 7364 C 676.238 -0.41556 4.24471 0
M  V30 7365 S 677.071 0.828876 5.29046 0
M  V30 7366 C 678.227 -0.197687 6.25588 0
M  V30 7367 H 678.46 0.678965 2.89443 0
M  V30 7368 H 675.993 0.467201 1.47162 0
M  V30 7369 H 677.951 -1.66482 3.75225 0
M  V30 7370 H 676.612 -1.77766 2.58956 0
M  V30 7371 H 675.805 -1.19112 4.89723 0
M  V30 7372 H 675.407 0.0987632 3.7387 0
M  V30 7373 H 677.699 -1.05656 6.69211 0
M  V30 7374 H 678.642 0.420437 7.06851 0
M  V30 7375 H 679.05 -0.544401 5.61869 0
M  V30 7376 N 678.448 -1.51871 0.421078 0
M  V30 7377 C 679.678 -2.06057 -0.149723 0
M  V30 7378 C 680.086 -1.29002 -1.38402 0
M  V30 7379 O 679.429 -0.338385 -1.80556 0
M  V30 7380 C 679.491 -3.55216 -0.553339 0
M  V30 7381 C 679.155 -4.53408 0.571879 0
M  V30 7382 C 680.152 -4.99586 1.4391 0
M  V30 7383 C 677.837 -4.967 0.747979 0
M  V30 7384 C 679.831 -5.87711 2.46727 0
M  V30 7385 C 677.518 -5.84619 1.77944 0
M  V30 7386 C 678.516 -6.30021 2.63748 0
M  V30 7387 O 678.204 -7.16197 3.65126 0
M  V30 7388 H 677.936 -0.675744 -0.0186102 0
M  V30 7389 H 680.49 -1.96618 0.594166 0
M  V30 7390 H 678.72 -3.62381 -1.34969 0
M  V30 7391 H 680.409 -3.91992 -1.05342 0
M  V30 7392 H 681.175 -4.66846 1.31451 0
M  V30 7393 H 677.054 -4.60913 0.0897357 0
M  V30 7394 H 680.598 -6.2307 3.13734 0
M  V30 7395 H 676.495 -6.16771 1.90429 0
M  V30 7396 H 677.263 -7.34337 3.61512 0
M  V30 7397 N 679.926 -0.151884 -1.56866 0
M  V30 7398 C 680.859 0.824094 -2.128 0
M  V30 7399 C 681.837 1.2391 -1.05286 0
M  V30 7400 O 683.021 1.33433 -1.33146 0
M  V30 7401 C 680.148 2.1072 -2.65169 0
M  V30 7402 C 679.194 1.83774 -3.84876 0
M  V30 7403 S 680.027 1.02436 -5.25611 0
M  V30 7404 C 681.183 2.31855 -5.81373 0
M  V30 7405 H 681.416 0.348456 -2.95251 0
M  V30 7406 H 678.949 0.0624794 -1.54274 0
M  V30 7407 H 680.907 2.84428 -2.95992 0
M  V30 7408 H 679.568 2.55398 -1.8284 0
M  V30 7409 H 678.761 2.78929 -4.19779 0
M  V30 7410 H 678.363 1.18172 -3.5484 0
M  V30 7411 H 680.655 3.27469 -5.93102 0
M  V30 7412 H 681.598 2.01449 -6.7884 0
M  V30 7413 H 682.006 2.42727 -5.09651 0
M  V30 7414 N 681.404 1.57128 0.121893 0
M  V30 7415 C 682.314 2.03425 1.16857 0
M  V30 7416 C 683.33 0.954108 1.45509 0
M  V30 7417 O 684.506 1.26541 1.56682 0
M  V30 7418 C 681.571 2.42685 2.47599 0
M  V30 7419 C 680.632 3.64767 2.2637 0
M  V30 7420 C 679.865 4.02145 3.50878 0
M  V30 7421 O 680.088 3.39897 4.58068 0
M  V30 7422 O 679.022 4.95262 3.42051 0
M  V30 7423 H 682.848 2.92825 0.80544 0
M  V30 7424 H 680.433 1.45654 0.332477 0
M  V30 7425 H 682.315 2.68684 3.24634 0
M  V30 7426 H 680.99 1.56432 2.83392 0
M  V30 7427 H 679.897 3.43922 1.47203 0
M  V30 7428 H 681.23 4.51716 1.95482 0
M  V30 7429 N 682.882 -0.391992 1.52647 0
M  V30 7430 C 683.815 -1.50019 1.71958 0
M  V30 7431 C 684.793 -1.5238 0.567365 0
M  V30 7432 O 685.977 -1.70831 0.796806 0
M  V30 7433 C 683.104 -2.88496 1.77447 0
M  V30 7434 C 682.15 -3.03974 2.99169 0
M  V30 7435 S 682.983 -2.75487 4.59203 0
M  V30 7436 C 684.139 -4.16163 4.67503 0
M  V30 7437 H 684.372 -1.33413 2.65685 0
M  V30 7438 H 681.905 -0.584674 1.42902 0
M  V30 7439 H 683.863 -3.68296 1.81296 0
M  V30 7440 H 682.524 -3.02431 0.848188 0
M  V30 7441 H 681.717 -4.05328 2.99542 0
M  V30 7442 H 681.319 -2.32062 2.93297 0
M  V30 7443 H 683.611 -5.10048 4.45934 0
M  V30 7444 H 684.554 -4.20806 5.69498 0
M  V30 7445 H 684.962 -4.01933 3.96371 0
M  V30 7446 N 684.36 -1.4356 -0.65026 0
M  V30 7447 C 685.637 -1.35811 -1.40765 0
M  V30 7448 C 686.017 -0.00736379 -2.11099 0
M  V30 7449 O 685.365 1.00932 -2.05 0
M  V30 7450 C 685.575 -2.54332 -2.3899 0
M  V30 7451 C 686.923 -2.97551 -3.02901 0
M  V30 7452 O 687.947 -2.544 -2.49317 0
M  V30 7453 O 686.806 -3.72311 -4.00059 0
M  V30 7454 H 683.9 -0.536861 -0.629054 0
M  V30 7455 H 686.446 -1.55615 -0.676919 0
M  V30 7456 H 685.218 -3.44274 -1.85986 0
M  V30 7457 H 684.841 -2.36643 -3.19509 0
M  V30 7458 N 685.838 0.888903 -1.30139 0
M  V30 7459 C 687.086 1.63713 -1.18501 0
M  V30 7460 C 687.407 1.9324 0.261399 0
M  V30 7461 O 686.677 1.56608 1.17689 0
M  V30 7462 H 685.257 0.606861 -0.435579 0
M  V30 7463 H 687.919 1.06525 -1.63213 0
M  V30 7464 H 687.015 2.58894 -1.743 0
M  V30 7465 N 687.317 1.12792 1.10072 0
M  V30 7466 C 688.594 0.796867 1.78632 0
M  V30 7467 C 688.974 -0.712739 1.98704 0
M  V30 7468 O 688.322 -1.64773 1.5831 0
M  V30 7469 C 688.532 1.57622 3.11378 0
M  V30 7470 C 689.88 1.76463 3.86194 0
M  V30 7471 O 690.904 1.54165 3.2111 0
M  V30 7472 O 689.763 2.13623 5.03018 0
M  V30 7473 H 686.857 0.290248 0.774394 0
M  V30 7474 H 689.403 1.23215 1.16688 0
M  V30 7475 H 688.175 2.60246 2.92212 0
M  V30 7476 H 687.798 1.13543 3.81043 0
M  V30 7477 N 688.795 -1.27931 0.920396 0
M  V30 7478 C 689.705 -2.30824 0.419212 0
M  V30 7479 C 690.721 -1.66767 -0.496461 0
M  V30 7480 O 691.897 -1.97763 -0.38104 0
M  V30 7481 C 688.962 -3.45158 -0.326601 0
M  V30 7482 C 688.023 -4.24754 0.623098 0
M  V30 7483 C 687.256 -5.33629 -0.0872172 0
M  V30 7484 O 687.479 -5.55204 -1.30784 0
M  V30 7485 O 686.413 -5.99091 0.580875 0
M  V30 7486 H 690.239 -2.75716 1.27337 0
M  V30 7487 H 687.824 -1.32747 0.685465 0
M  V30 7488 H 689.706 -4.14716 -0.747559 0
M  V30 7489 H 688.381 -3.02336 -1.15648 0
M  V30 7490 H 687.288 -3.57759 1.09359 0
M  V30 7491 H 688.621 -4.71272 1.41998 0
M  V30 7492 N 690.273 -0.685099 -1.4193 0
M  V30 7493 C 691.522 -0.208816 -2.00616 0
M  V30 7494 C 691.835 1.19506 -1.54847 0
M  V30 7495 O 693.041 1.76826 -2.06021 0
M  V30 7496 C 691.497 -0.322446 -3.58453 0
M  V30 7497 C 691.105 -1.73102 -4.13206 0
M  V30 7498 C 692.849 0.0945979 -4.24395 0
M  V30 7499 C 690.756 -1.79687 -5.63442 0
M  V30 7500 H 689.686 -0.0743092 -0.750329 0
M  V30 7501 H 692.337 -0.851778 -1.62533 0
M  V30 7502 H 690.719 0.388588 -3.94089 0
M  V30 7503 H 691.893 -2.46997 -3.8901 0
M  V30 7504 H 690.208 -2.09682 -3.59753 0
M  V30 7505 H 692.805 0.0656937 -5.3466 0
M  V30 7506 H 693.148 1.1316 -4.00625 0
M  V30 7507 H 693.681 -0.56579 -3.93756 0
M  V30 7508 H 690.42 -2.81404 -5.92024 0
M  V30 7509 H 689.94 -1.10162 -5.89597 0
M  V30 7510 H 691.619 -1.55498 -6.28036 0
M  V30 7511 N 691.751 1.51645 -0.429126 0
M  V30 7512 C 692.714 2.26116 0.374726 0
M  V30 7513 C 693.714 1.29242 0.956714 0
M  V30 7514 O 694.904 1.53022 0.832452 0
M  V30 7515 C 692.036 3.04669 1.52937 0
M  V30 7516 H 693.229 2.9861 -0.277818 0
M  V30 7517 H 690.782 1.55236 -0.182097 0
M  V30 7518 H 691.517 2.36571 2.21821 0
M  V30 7519 H 691.302 3.75814 1.11833 0
M  V30 7520 H 692.792 3.61102 2.09751 0
M  V30 7521 N 693.229 0.160201 1.56784 0
M  V30 7522 C 694.478 -0.487619 1.95717 0
M  V30 7523 C 694.791 -1.65136 1.0483 0
M  V30 7524 O 695.997 -2.36468 1.33398 0
M  V30 7525 C 694.453 -0.91888 3.47972 0
M  V30 7526 C 694.061 0.218655 4.47466 0
M  V30 7527 C 695.805 -1.53575 3.95746 0
M  V30 7528 C 693.712 -0.231614 5.90946 0
M  V30 7529 H 692.642 -0.185939 0.730714 0
M  V30 7530 H 695.293 0.246657 1.81835 0
M  V30 7531 H 693.675 -1.70881 3.57234 0
M  V30 7532 H 694.849 0.995825 4.49911 0
M  V30 7533 H 693.164 0.744767 4.09685 0
M  V30 7534 H 695.761 -1.88448 5.00391 0
M  V30 7535 H 696.104 -2.42959 3.38048 0
M  V30 7536 H 696.637 -0.810467 3.89456 0
M  V30 7537 H 693.376 0.62718 6.52493 0
M  V30 7538 H 692.896 -0.974379 5.91833 0
M  V30 7539 H 694.575 -0.67922 6.43425 0
M  V30 7540 N 694.707 -1.5719 -0.113559 0
M  V30 7541 C 695.935 -1.89328 -0.834422 0
M  V30 7542 C 696.35 -0.752018 -1.73177 0
M  V30 7543 O 695.707 0.276912 -1.80387 0
M  V30 7544 C 695.758 -3.20962 -1.66329 0
M  V30 7545 O 695.479 -4.30695 -0.802069 0
M  V30 7546 C 696.98 -3.6684 -2.48884 0
M  V30 7547 H 694.2 -0.626769 -0.239587 0
M  V30 7548 H 696.744 -2.04273 -0.0963195 0
M  V30 7549 H 694.899 -3.0767 -2.35409 0
M  V30 7550 H 695.313 -5.06175 -1.37431 0
M  V30 7551 H 696.787 -4.61692 -3.02563 0
M  V30 7552 H 697.264 -2.93765 -3.26495 0
M  V30 7553 H 697.87 -3.82938 -1.85036 0
M  V30 7554 N 696.185 0.383891 -1.52853 0
M  V30 7555 C 697.415 1.14783 -1.7178 0
M  V30 7556 C 697.823 1.84055 -0.438211 0
M  V30 7557 O 697.166 1.73713 0.597465 0
M  V30 7558 C 697.228 2.23543 -2.81547 0
M  V30 7559 C 696.892 1.74195 -4.22499 0
M  V30 7560 C 697.889 1.21591 -5.05481 0
M  V30 7561 C 695.574 1.80262 -4.6884 0
M  V30 7562 C 697.568 0.757104 -6.32888 0
M  V30 7563 C 695.255 1.33993 -5.96229 0
M  V30 7564 C 696.253 0.818049 -6.78083 0
M  V30 7565 O 695.941 0.362123 -8.03084 0
M  V30 7566 H 695.673 0.349908 -0.578395 0
M  V30 7567 H 698.227 0.454377 -2.00311 0
M  V30 7568 H 696.457 2.96328 -2.48449 0
M  V30 7569 H 698.146 2.8519 -2.88828 0
M  V30 7570 H 698.912 1.16257 -4.7086 0
M  V30 7571 H 694.791 2.19825 -4.05213 0
M  V30 7572 H 698.335 0.34908 -6.96726 0
M  V30 7573 H 694.232 1.39015 -6.30353 0
M  V30 7574 H 695 0.483134 -8.17073 0
M  V30 7575 N 697.663 1.43903 0.642637 0
M  V30 7576 C 698.912 1.45362 1.39831 0
M  V30 7577 C 699.225 0.0856289 1.95412 0
M  V30 7578 O 700.431 -0.0222856 2.71491 0
M  V30 7579 C 698.887 2.55857 2.53111 0
M  V30 7580 C 698.495 3.98811 2.04092 0
M  V30 7581 C 700.239 2.66524 3.30402 0
M  V30 7582 C 698.146 5.00751 3.14647 0
M  V30 7583 H 697.076 0.540777 0.52543 0
M  V30 7584 H 699.727 1.69929 0.692559 0
M  V30 7585 H 698.109 2.2451 3.26207 0
M  V30 7586 H 699.283 4.3967 1.37938 0
M  V30 7587 H 697.598 3.92284 1.39651 0
M  V30 7588 H 700.195 3.39858 4.12796 0
M  V30 7589 H 700.538 1.71949 3.79129 0
M  V30 7590 H 701.071 2.97224 2.64392 0
M  V30 7591 H 697.81 5.96914 2.70876 0
M  V30 7592 H 697.33 4.64495 3.79479 0
M  V30 7593 H 699.009 5.23933 3.79609 0
M  V30 7594 N 699.141 -0.881989 1.30609 0
M  V30 7595 C 700.088 -1.98803 1.17244 0
M  V30 7596 C 701.058 -1.65987 0.0611905 0
M  V30 7597 O 702.243 -1.89385 0.231911 0
M  V30 7598 C 699.383 -3.33867 0.87333 0
M  V30 7599 C 698.496 -3.79354 2.06675 0
M  V30 7600 C 697.631 -5.03078 1.70547 0
M  V30 7601 C 696.67 -5.40981 2.86366 0
M  V30 7602 N 695.807 -6.55886 2.50514 0
M  V30 7603 H 700.647 -2.09566 2.11863 0
M  V30 7604 H 698.184 -1.02607 1.05405 0
M  V30 7605 H 700.142 -4.11612 0.680519 0
M  V30 7606 H 698.772 -3.2278 -0.0359983 0
M  V30 7607 H 697.824 -2.97492 2.37071 0
M  V30 7608 H 699.136 -4.03382 2.93401 0
M  V30 7609 H 698.29 -5.88457 1.47658 0
M  V30 7610 H 697.029 -4.80927 0.809947 0
M  V30 7611 H 696.034 -4.54127 3.09917 0
M  V30 7612 H 697.259 -5.65104 3.76609 0
M  V30 7613 H 695.205 -6.35306 1.63471 0
M  V30 7614 H 695.122 -6.79799 3.30771 0
M  V30 7615 H 696.39 -7.44489 2.30989 0
M  V30 7616 N 700.619 -1.13374 -1.09472 0
M  V30 7617 C 701.896 -0.806329 -1.78207 0
M  V30 7618 C 702.276 0.702191 -1.99079 0
M  V30 7619 O 701.624 1.63931 -1.59182 0
M  V30 7620 C 701.834 -1.59271 -3.10538 0
M  V30 7621 C 703.182 -1.78509 -3.85253 0
M  V30 7622 O 704.206 -1.55866 -3.20288 0
M  V30 7623 O 703.065 -2.16287 -5.01879 0
M  V30 7624 H 700.159 -0.29435 -0.772843 0
M  V30 7625 H 702.705 -1.23833 -1.16033 0
M  V30 7626 H 701.477 -2.61792 -2.90828 0
M  V30 7627 H 701.1 -1.15562 -3.80436 0
M  V30 7628 N 702.098 1.27442 -0.927168 0
M  V30 7629 C 703.344 1.94679 -0.568164 0
M  V30 7630 C 703.677 1.72697 0.888219 0
M  V30 7631 O 702.952 1.05573 1.63354 0
M  V30 7632 C 703.235 3.4882 -0.894253 0
M  V30 7633 C 703.088 3.80146 -2.40435 0
M  V30 7634 C 704.407 4.38281 -0.399766 0
M  V30 7635 H 701.526 0.707071 -0.207892 0
M  V30 7636 H 704.168 1.50568 -1.15885 0
M  V30 7637 H 702.318 3.86522 -0.391566 0
M  V30 7638 H 703.99 3.52238 -2.97869 0
M  V30 7639 H 702.233 3.26716 -2.85375 0
M  V30 7640 H 702.904 4.87835 -2.58304 0
M  V30 7641 H 705.38 4.07726 -0.83058 0
M  V30 7642 H 704.256 5.44955 -0.656885 0
M  V30 7643 H 704.517 4.36521 0.700153 0
M  V30 7644 N 703.576 0.692616 1.41565 0
M  V30 7645 C 704.804 0.231279 2.05603 0
M  V30 7646 C 705.219 -1.11837 1.52111 0
M  V30 7647 O 704.576 -1.6983 0.66813 0
M  V30 7648 C 704.627 0.177125 3.61066 0
M  V30 7649 O 704.348 1.47346 4.12578 0
M  V30 7650 C 705.849 -0.30556 4.42246 0
M  V30 7651 H 703.069 0.108238 0.662213 0
M  V30 7652 H 705.613 0.944369 1.81389 0
M  V30 7653 H 703.768 -0.486769 3.8433 0
M  V30 7654 H 704.182 1.35861 5.06599 0
M  V30 7655 H 705.656 -0.29233 5.51225 0
M  V30 7656 H 706.133 -1.34393 4.18133 0
M  V30 7657 H 706.739 0.327229 4.24039 0
M  V30 7658 N 705.054 -1.51416 0.437162 0
M  V30 7659 C 706.301 -2.02086 -0.129364 0
M  V30 7660 C 706.629 -1.32133 -1.42728 0
M  V30 7661 O 705.884 -0.424916 -1.91031 0
M  V30 7662 C 706.183 -3.55203 -0.39564 0
M  V30 7663 C 705.849 -4.43447 0.81644 0
M  V30 7664 C 704.511 -4.67285 1.14884 0
M  V30 7665 C 706.863 -4.95219 1.62503 0
M  V30 7666 C 704.191 -5.40141 2.29052 0
M  V30 7667 C 706.543 -5.69327 2.7577 0
M  V30 7668 C 705.207 -5.91429 3.09464 0
M  V30 7669 H 704.477 -0.739486 -0.0473375 0
M  V30 7670 H 707.124 -1.82368 0.584321 0
M  V30 7671 H 705.429 -3.73252 -1.19121 0
M  V30 7672 H 707.126 -3.91944 -0.847399 0
M  V30 7673 H 703.716 -4.2509 0.547422 0
M  V30 7674 H 707.9 -4.76686 1.38144 0
M  V30 7675 H 703.156 -5.55468 2.55471 0
M  V30 7676 H 707.33 -6.08433 3.38795 0
M  V30 7677 H 704.957 -6.47662 3.98042 0
M  V30 7678 N 706.532 -0.168513 -1.56696 0
M  V30 7679 C 707.48 0.779791 -2.19139 0
M  V30 7680 C 708.474 1.23957 -1.1546 0
M  V30 7681 O 709.68 1.20555 -1.33666 0
M  V30 7682 H 706.055 0.269739 -0.701958 0
M  V30 7683 H 708.026 0.229156 -2.97519 0
M  V30 7684 C 706.775 2.00003 -2.84419 0
M  V30 7685 H 706.098 1.65527 -3.63924 0
M  V30 7686 H 707.538 2.64251 -3.31583 0
M  V30 7687 C 705.997 2.82187 -1.84044 0
M  V30 7688 O 706.527 3.79247 -1.32418 0
M  V30 7689 N 704.733 2.47145 -1.52864 0
M  V30 7690 H 704.28 1.68277 -1.9504 0
M  V30 7691 H 704.238 3.02422 -0.859569 0
M  V30 7692 N 708.01 1.57248 0.105221 0
M  V30 7693 C 709.238 1.89768 0.82437 0
M  V30 7694 C 709.653 0.761192 1.72775 0
M  V30 7695 O 709.01 -0.267342 1.80531 0
M  V30 7696 C 709.061 3.2184 1.64625 0
M  V30 7697 O 708.782 4.31115 0.779217 0
M  V30 7698 C 710.283 3.68155 2.46935 0
M  V30 7699 H 707.503 0.628031 0.236259 0
M  V30 7700 H 710.047 2.04321 0.085485 0
M  V30 7701 H 708.202 3.08915 2.33775 0
M  V30 7702 H 708.616 5.06897 1.34745 0
M  V30 7703 H 710.09 4.6329 3.00111 0
M  V30 7704 H 710.567 2.95492 3.24932 0
M  V30 7705 H 711.173 3.83914 1.83002 0
M  V30 7706 N 709.488 -0.375779 1.53054 0
M  V30 7707 C 710.436 -1.48015 1.79428 0
M  V30 7708 C 711.43 -1.55893 0.662854 0
M  V30 7709 O 712.636 -1.58901 0.845599 0
M  V30 7710 H 709.011 -0.492887 0.56795 0
M  V30 7711 H 710.982 -1.22971 2.71884 0
M  V30 7712 C 709.731 -2.84984 1.99197 0
M  V30 7713 H 709.054 -2.79677 2.85693 0
M  V30 7714 H 710.494 -3.61462 2.21633 0
M  V30 7715 C 708.953 -3.28025 0.768183 0
M  V30 7716 O 709.483 -4.01671 -0.0480482 0
M  V30 7717 N 707.689 -2.84454 0.594521 0
M  V30 7718 H 707.236 -2.24688 1.25988 0
M  V30 7719 H 707.194 -3.13609 -0.222916 0
M  V30 7720 N 710.966 -1.44241 -0.634997 0
M  V30 7721 C 711.896 -1.53632 -1.7584 0
M  V30 7722 C 712.877 -0.389603 -1.65578 0
M  V30 7723 O 714.062 -0.609219 -1.84397 0
M  V30 7724 C 711.192 -1.47644 -3.14354 0
M  V30 7725 C 710.146 -2.60752 -3.394 0
M  V30 7726 C 709.472 -2.39817 -4.77904 0
M  V30 7727 C 710.772 -4.02921 -3.32343 0
M  V30 7728 H 712.466 -2.47662 -1.68238 0
M  V30 7729 H 710.012 -1.19197 -0.807969 0
M  V30 7730 H 711.965 -1.52815 -3.92716 0
M  V30 7731 H 710.689 -0.501284 -3.2273 0
M  V30 7732 H 709.348 -2.54965 -2.63417 0
M  V30 7733 H 708.996 -1.40502 -4.82978 0
M  V30 7734 H 708.696 -3.15649 -4.9562 0
M  V30 7735 H 710.22 -2.46799 -5.585 0
M  V30 7736 H 711.634 -4.10098 -4.00615 0
M  V30 7737 H 710.031 -4.78925 -3.61595 0
M  V30 7738 H 711.101 -4.26766 -2.30215 0
M  V30 7739 N 712.444 0.87505 -1.31075 0
M  V30 7740 C 713.855 1.4433 -1.18431 0
M  V30 7741 C 714.206 1.9506 0.211189 0
M  V30 7742 O 713.331 1.85847 1.10859 0
M  V30 7743 C 713.926 2.62341 -2.14389 0
M  V30 7744 C 712.485 3.15225 -2.05694 0
M  V30 7745 C 711.632 1.87929 -2.03907 0
M  V30 7746 H 714.583 0.684061 -1.432 0
M  V30 7747 H 714.604 3.3887 -1.73053 0
M  V30 7748 H 714.116 2.25388 -3.15946 0
M  V30 7749 H 712.217 3.56812 -1.07314 0
M  V30 7750 H 712.33 3.77853 -2.94558 0
M  V30 7751 H 710.694 2.06679 -1.48849 0
M  V30 7752 H 711.477 1.53221 -3.07211 0
M  V30 7753 N 713.922 1.13953 1.08869 0
M  V30 7754 C 715.199 0.815768 1.77777 0
M  V30 7755 C 715.579 -0.691624 1.99449 0
M  V30 7756 O 714.927 -1.63085 1.60049 0
M  V30 7757 C 715.137 1.60916 3.09689 0
M  V30 7758 C 716.485 1.80549 3.84301 0
M  V30 7759 O 717.509 1.57562 3.19457 0
M  V30 7760 O 716.368 2.18946 5.00724 0
M  V30 7761 H 713.462 0.298445 0.771271 0
M  V30 7762 H 716.008 1.24446 1.15374 0
M  V30 7763 H 714.78 2.6333 2.89435 0
M  V30 7764 H 714.403 1.17578 3.79817 0
M  V30 7765 N 715.4 -1.26948 0.933913 0
M  V30 7766 C 716.363 -2.24889 0.442457 0
M  V30 7767 C 717.363 -1.54594 -0.442426 0
M  V30 7768 O 718.553 -1.72502 -0.242629 0
M  V30 7769 C 715.685 -3.3896 -0.363173 0
M  V30 7770 H 716.878 -2.69879 1.30787 0
M  V30 7771 H 714.431 -1.38978 0.715187 0
M  V30 7772 H 715.166 -2.99361 -1.24714 0
M  V30 7773 H 714.951 -3.9116 0.271366 0
M  V30 7774 H 716.441 -4.11739 -0.697186 0
M  V30 7775 N 716.879 -0.700114 -1.41195 0
M  V30 7776 C 717.789 -0.0382854 -2.34569 0
M  V30 7777 C 718.805 0.761036 -1.56474 0
M  V30 7778 O 719.981 0.697553 -1.88934 0
M  V30 7779 C 717.046 0.883522 -3.35253 0
M  V30 7780 C 716.107 0.0758957 -4.29233 0
M  V30 7781 C 715.34 0.9538 -5.25108 0
M  V30 7782 O 715.563 2.19326 -5.26547 0
M  V30 7783 O 714.497 0.401049 -6.00562 0
M  V30 7784 H 718.323 -0.808073 -2.92752 0
M  V30 7785 H 715.908 -0.460479 -1.42127 0
M  V30 7786 H 717.79 1.41199 -3.9704 0
M  V30 7787 H 716.465 1.63272 -2.79506 0
M  V30 7788 H 715.372 -0.497274 -3.7078 0
M  V30 7789 H 716.705 -0.634741 -4.8809 0
M  V30 7790 N 718.357 1.51182 -0.445186 0
M  V30 7791 C 719.606 2.01342 0.120189 0
M  V30 7792 C 719.919 1.33353 1.43095 0
M  V30 7793 O 721.125 1.74525 2.07974 0
M  V30 7794 C 719.581 3.58925 0.264732 0
M  V30 7795 C 719.189 4.35855 -1.03606 0
M  V30 7796 C 720.933 4.17208 0.783455 0
M  V30 7797 C 718.84 5.85162 -0.856731 0
M  V30 7798 H 717.77 0.752426 0.0486922 0
M  V30 7799 H 720.421 1.74221 -0.576143 0
M  V30 7800 H 718.803 3.82525 1.02425 0
M  V30 7801 H 719.977 4.23997 -1.80452 0
M  V30 7802 H 718.292 3.89062 -1.48391 0
M  V30 7803 H 720.889 5.26475 0.934239 0
M  V30 7804 H 721.232 3.76892 1.768 0
M  V30 7805 H 721.765 3.97715 0.0820346 0
M  V30 7806 H 718.504 6.29904 -1.81388 0
M  V30 7807 H 718.024 5.99663 -0.128206 0
M  V30 7808 H 719.703 6.44963 -0.513027 0
M  V30 7809 N 719.835 0.176821 1.56605 0
M  V30 7810 C 720.765 -0.746841 2.21234 0
M  V30 7811 C 721.746 -1.23502 1.16967 0
M  V30 7812 O 722.931 -1.28718 1.45414 0
M  V30 7813 C 720.061 -1.97407 2.8574 0
M  V30 7814 C 719.015 -1.62153 3.96094 0
M  V30 7815 C 718.341 -2.92387 4.47676 0
M  V30 7816 C 719.641 -0.845353 5.15413 0
M  V30 7817 H 721.335 -0.208116 2.98676 0
M  V30 7818 H 718.881 -0.0986594 1.43662 0
M  V30 7819 H 720.834 -2.62531 3.2963 0
M  V30 7820 H 719.558 -2.53703 2.05676 0
M  V30 7821 H 718.217 -0.993964 3.52868 0
M  V30 7822 H 717.865 -3.46734 3.64396 0
M  V30 7823 H 717.565 -2.69551 5.22127 0
M  V30 7824 H 719.089 -3.5853 4.94255 0
M  V30 7825 H 720.503 -1.39929 5.55961 0
M  V30 7826 H 718.9 -0.715814 5.95815 0
M  V30 7827 H 719.97 0.157239 4.84645 0
M  V30 7828 N 721.313 -1.57302 -0.09688 0
M  V30 7829 C 722.26 -2.01933 -1.11766 0
M  V30 7830 C 723.23 -0.895329 -1.39904 0
M  V30 7831 O 724.415 -1.16119 -1.51397 0
M  V30 7832 C 721.555 -2.44726 -2.43317 0
M  V30 7833 C 720.668 -3.70639 -2.21925 0
M  V30 7834 C 719.803 -4.02318 -3.46862 0
M  V30 7835 C 718.842 -5.21346 -3.20725 0
M  V30 7836 N 717.979 -5.48787 -4.37924 0
M  V30 7837 H 722.819 -2.88919 -0.730075 0
M  V30 7838 H 720.356 -1.42901 -0.348962 0
M  V30 7839 H 722.314 -2.6758 -3.20088 0
M  V30 7840 H 720.944 -1.60753 -2.79926 0
M  V30 7841 H 719.996 -3.55271 -1.35965 0
M  V30 7842 H 721.308 -4.57557 -1.98603 0
M  V30 7843 H 720.462 -4.25939 -4.32042 0
M  V30 7844 H 719.201 -3.13918 -3.73238 0
M  V30 7845 H 718.206 -4.97547 -2.33938 0
M  V30 7846 H 719.431 -6.11343 -2.95697 0
M  V30 7847 H 717.377 -4.63346 -4.64378 0
M  V30 7848 H 717.294 -6.30073 -4.17785 0
M  V30 7849 H 718.562 -5.76943 -5.24173 0
M  V30 7850 N 722.791 0.367657 -1.53252 0
M  V30 7851 C 723.724 1.47264 -1.74323 0
M  V30 7852 C 724.702 1.51458 -0.591535 0
M  V30 7853 O 725.886 1.69542 -0.823883 0
M  V30 7854 C 723.013 2.85637 -1.82015 0
M  V30 7855 C 722.059 2.99176 -3.03967 0
M  V30 7856 S 722.892 2.68147 -4.63527 0
M  V30 7857 C 724.048 4.08673 -4.74065 0
M  V30 7858 H 724.281 1.29169 -2.67773 0
M  V30 7859 H 721.814 0.561866 -1.43814 0
M  V30 7860 H 723.772 3.65365 -1.87132 0
M  V30 7861 H 722.433 3.01043 -0.896195 0
M  V30 7862 H 721.626 4.00511 -3.05953 0
M  V30 7863 H 721.228 2.27367 -2.96952 0
M  V30 7864 H 723.52 5.02889 -4.53992 0
M  V30 7865 H 724.463 4.11693 -5.7612 0
M  V30 7866 H 724.871 3.95576 -4.02716 0
M  V30 7867 N 724.269 1.44576 0.627338 0
M  V30 7868 C 725.497 1.51048 1.41394 0
M  V30 7869 C 725.912 0.136568 1.88305 0
M  V30 7870 O 725.269 -0.858251 1.6106 0
M  V30 7871 C 725.32 2.47837 2.63172 0
M  V30 7872 O 725.041 3.79887 2.18215 0
M  V30 7873 C 726.542 2.63811 3.56257 0
M  V30 7874 H 723.762 0.512171 0.4335 0
M  V30 7875 H 726.306 1.89576 0.766878 0
M  V30 7876 H 724.461 2.12433 3.23961 0
M  V30 7877 H 724.875 4.32177 2.97192 0
M  V30 7878 H 726.349 3.35554 4.38301 0
M  V30 7879 H 726.826 1.69169 4.05313 0
M  V30 7880 H 727.432 3.0013 3.01333 0
M  V30 7881 N 725.747 -0.868086 1.31537 0
M  V30 7882 C 726.694 -1.97548 1.19346 0
M  V30 7883 C 727.664 -1.65913 0.0787922 0
M  V30 7884 O 728.849 -1.89129 0.251985 0
M  V30 7885 C 725.989 -3.32922 0.908692 0
M  V30 7886 C 725.102 -3.77141 2.10687 0
M  V30 7887 C 724.237 -5.01241 1.75873 0
M  V30 7888 C 723.276 -5.37914 2.92088 0
M  V30 7889 N 722.413 -6.53192 2.57457 0
M  V30 7890 H 727.253 -2.07307 2.14074 0
M  V30 7891 H 724.79 -1.01483 1.06487 0
M  V30 7892 H 726.748 -4.10867 0.724138 0
M  V30 7893 H 725.378 -3.228 -0.0017611 0
M  V30 7894 H 724.43 -2.94961 2.40213 0
M  V30 7895 H 725.742 -4.00248 2.97663 0
M  V30 7896 H 724.896 -5.86858 1.53891 0
M  V30 7897 H 723.635 -4.80041 0.86091 0
M  V30 7898 H 722.64 -4.50814 3.14717 0
M  V30 7899 H 723.865 -5.61077 3.82582 0
M  V30 7900 H 721.811 -6.33536 1.702 0
M  V30 7901 H 721.728 -6.76252 3.37963 0
M  V30 7902 H 722.996 -7.41997 2.38873 0
M  V30 7903 N 727.225 -1.14528 -1.08264 0
M  V30 7904 C 728.636 -0.925261 -1.6216 0
M  V30 7905 C 728.987 0.535587 -1.88748 0
M  V30 7906 O 728.112 1.4048 -1.64604 0
M  V30 7907 C 728.707 -1.67316 -2.94603 0
M  V30 7908 C 727.266 -1.49868 -3.45278 0
M  V30 7909 C 726.413 -1.69471 -2.19487 0
M  V30 7910 H 729.364 -1.29687 -0.914707 0
M  V30 7911 H 729.385 -1.13721 -3.63109 0
M  V30 7912 H 728.897 -2.73635 -2.75219 0
M  V30 7913 H 726.998 -0.459032 -3.69762 0
M  V30 7914 H 727.111 -2.2696 -4.21931 0
M  V30 7915 H 725.475 -1.12048 -2.2873 0
M  V30 7916 H 726.258 -2.77136 -2.0261 0
M  V30 7917 N 728.703 1.26451 -0.940633 0
M  V30 7918 C 730.114 1.75726 -0.630653 0
M  V30 7919 C 730.465 1.76631 0.854167 0
M  V30 7920 O 729.59 1.37807 1.66848 0
M  V30 7921 C 730.185 3.19114 -1.13805 0
M  V30 7922 C 728.744 3.66005 -0.878497 0
M  V30 7923 C 727.891 2.45505 -1.28928 0
M  V30 7924 H 730.842 1.12535 -1.119 0
M  V30 7925 H 730.863 3.77311 -0.491625 0
M  V30 7926 H 730.375 3.18424 -2.21874 0
M  V30 7927 H 728.476 3.72126 0.187833 0
M  V30 7928 H 728.589 4.54844 -1.50512 0
M  V30 7929 H 726.953 2.4467 -0.707713 0
M  V30 7930 H 727.736 2.47516 -2.37888 0
M  V30 7931 N 730.181 0.707592 1.40822 0
M  V30 7932 C 731.428 0.243671 2.01029 0
M  V30 7933 C 731.756 -1.16057 1.5608 0
M  V30 7934 O 731.011 -1.7999 0.768251 0
M  V30 7935 C 731.31 0.262892 3.56432 0
M  V30 7936 C 730.976 1.61632 4.20935 0
M  V30 7937 C 729.638 1.98682 4.38268 0
M  V30 7938 C 731.99 2.50619 4.5699 0
M  V30 7939 C 729.318 3.2428 4.88937 0
M  V30 7940 C 731.67 3.75562 5.09054 0
M  V30 7941 C 730.334 4.12739 5.24598 0
M  V30 7942 H 729.604 0.0891654 0.735616 0
M  V30 7943 H 732.251 0.909051 1.68548 0
M  V30 7944 H 730.556 -0.486052 3.88773 0
M  V30 7945 H 732.253 -0.113775 4.00839 0
M  V30 7946 H 728.843 1.31818 4.07826 0
M  V30 7947 H 733.027 2.23272 4.43242 0
M  V30 7948 H 728.283 3.53064 4.99155 0
M  V30 7949 H 732.457 4.44692 5.35931 0
M  V30 7950 H 730.084 5.10132 5.63622 0
M  V30 7951 N 731.66 -1.50943 0.453197 0
M  V30 7952 C 732.906 -2.02512 -0.108082 0
M  V30 7953 C 733.239 -1.33574 -1.40967 0
M  V30 7954 O 732.514 -0.455671 -1.89087 0
M  V30 7955 C 732.797 -3.58759 -0.310453 0
M  V30 7956 C 732.65 -4.38293 1.0109 0
M  V30 7957 C 733.969 -4.26816 -1.07313 0
M  V30 7958 H 731.088 -0.73603 -0.0378064 0
M  V30 7959 H 733.73 -1.80433 0.595295 0
M  V30 7960 H 731.88 -3.77702 -0.909582 0
M  V30 7961 H 733.552 -4.30964 1.64523 0
M  V30 7962 H 731.795 -4.02745 1.61179 0
M  V30 7963 H 732.466 -5.45828 0.82315 0
M  V30 7964 H 734.942 -4.1224 -0.565473 0
M  V30 7965 H 733.818 -5.35989 -1.1835 0
M  V30 7966 H 734.079 -3.88757 -2.10525 0
M  V30 7967 N 733.138 -0.185124 -1.56509 0
M  V30 7968 C 734.071 0.77877 -2.145 0
M  V30 7969 C 735.049 1.21649 -1.07891 0
M  V30 7970 O 736.233 1.30579 -1.35946 0
M  V30 7971 C 733.36 2.05048 -2.69579 0
M  V30 7972 C 732.406 1.75569 -3.88687 0
M  V30 7973 S 733.239 0.912642 -5.27666 0
M  V30 7974 C 734.395 2.19471 -5.8616 0
M  V30 7975 H 734.628 0.285751 -2.95924 0
M  V30 7976 H 732.161 0.0297417 -1.54371 0
M  V30 7977 H 734.119 2.78085 -3.01958 0
M  V30 7978 H 732.78 2.51462 -1.88216 0
M  V30 7979 H 731.973 2.69962 -4.25601 0
M  V30 7980 H 731.575 1.10619 -3.57267 0
M  V30 7981 H 733.867 3.14815 -5.99915 0
M  V30 7982 H 734.81 1.87005 -6.8296 0
M  V30 7983 H 735.218 2.31862 -5.14685 0
M  V30 7984 N 734.616 1.57351 0.0885366 0
M  V30 7985 C 735.526 2.05858 1.12516 0
M  V30 7986 C 736.542 0.984758 1.43452 0
M  V30 7987 O 737.718 1.29836 1.53963 0
M  V30 7988 C 734.783 2.47882 2.42395 0
M  V30 7989 C 733.844 3.69487 2.18582 0
M  V30 7990 C 733.077 4.09497 3.42268 0
M  V30 7991 O 733.3 3.49536 4.50755 0
M  V30 7992 O 732.234 5.02406 3.31469 0
M  V30 7993 H 736.06 2.94467 0.743146 0
M  V30 7994 H 733.645 1.46326 0.301507 0
M  V30 7995 H 735.527 2.75509 3.18862 0
M  V30 7996 H 734.202 1.62408 2.8001 0
M  V30 7997 H 733.109 3.46967 1.39875 0
M  V30 7998 H 734.442 4.55761 1.85857 0
M  V30 7999 N 736.094 -0.359525 1.53444 0
M  V30 8000 C 737.041 -1.44073 1.8031 0
M  V30 8001 C 738.011 -1.52946 0.647811 0
M  V30 8002 O 739.196 -1.68739 0.890614 0
M  V30 8003 C 736.336 -2.80941 2.00416 0
M  V30 8004 C 735.449 -2.80986 3.28132 0
M  V30 8005 C 734.584 -4.09468 3.38393 0
M  V30 8006 C 733.623 -4.03679 4.60119 0
M  V30 8007 N 732.76 -5.23821 4.675 0
M  V30 8008 H 737.6 -1.20464 2.72566 0
M  V30 8009 H 735.137 -0.583859 1.35017 0
M  V30 8010 H 737.095 -3.60459 2.1006 0
M  V30 8011 H 735.725 -3.02936 1.11489 0
M  V30 8012 H 734.777 -1.93666 3.27411 0
M  V30 8013 H 736.089 -2.72583 4.17732 0
M  V30 8014 H 735.243 -4.97404 3.47382 0
M  V30 8015 H 733.982 -4.20632 2.4682 0
M  V30 8016 H 732.987 -3.14129 4.51224 0
M  V30 8017 H 734.212 -3.94112 5.5304 0
M  V30 8018 H 732.158 -5.35559 3.7883 0
M  V30 8019 H 732.075 -5.17611 5.51013 0
M  V30 8020 H 733.343 -6.13572 4.8078 0
M  V30 8021 N 737.572 -1.44907 -0.619662 0
M  V30 8022 C 738.818 -1.49504 -1.37914 0
M  V30 8023 C 739.173 -0.130158 -1.91959 0
M  V30 8024 O 738.466 0.856263 -1.71402 0
M  V30 8025 C 738.66 -2.50002 -2.55409 0
M  V30 8026 C 738.489 -3.96128 -2.12867 0
M  V30 8027 C 737.259 -4.64204 -1.99606 0
M  V30 8028 C 739.457 -4.85014 -1.71074 0
M  V30 8029 N 737.439 -5.95104 -1.50748 0
M  V30 8030 C 738.81 -6.05447 -1.33544 0
M  V30 8031 C 740.865 -4.71979 -1.58557 0
M  V30 8032 C 739.568 -7.1429 -0.847484 0
M  V30 8033 C 741.594 -5.80858 -1.11165 0
M  V30 8034 C 740.956 -7.00439 -0.745932 0
M  V30 8035 H 737.055 -0.60207 -0.499034 0
M  V30 8036 H 739.639 -1.81305 -0.70968 0
M  V30 8037 H 737.81 -2.20172 -3.19967 0
M  V30 8038 H 739.542 -2.44823 -3.22248 0
M  V30 8039 H 736.297 -4.19182 -2.20417 0
M  V30 8040 H 736.721 -6.64676 -1.28585 0
M  V30 8041 H 741.363 -3.79953 -1.85461 0
M  V30 8042 H 739.081 -8.06116 -0.565974 0
M  V30 8043 H 742.667 -5.72803 -1.01923 0
M  V30 8044 H 741.547 -7.83255 -0.384848 0
M  V30 8045 N 739.05 0.861098 -1.31996 0
M  V30 8046 C 740.299 1.60965 -1.21545 0
M  V30 8047 C 740.612 1.94325 0.222972 0
M  V30 8048 O 741.818 2.67757 0.449272 0
M  V30 8049 C 740.274 2.90223 -2.12834 0
M  V30 8050 C 739.882 2.64313 -3.61722 0
M  V30 8051 C 741.626 3.68229 -2.11205 0
M  V30 8052 C 739.533 3.89532 -4.44993 0
M  V30 8053 H 738.463 0.603988 -0.451348 0
M  V30 8054 H 741.114 0.951358 -1.56912 0
M  V30 8055 H 739.496 3.57475 -1.70375 0
M  V30 8056 H 740.67 2.05413 -4.12483 0
M  V30 8057 H 738.985 1.99647 -3.65418 0
M  V30 8058 H 741.582 4.61138 -2.70658 0
M  V30 8059 H 741.925 4.01466 -1.1014 0
M  V30 8060 H 742.458 3.07873 -2.51911 0
M  V30 8061 H 739.197 3.61441 -5.46846 0
M  V30 8062 H 738.717 4.47851 -3.98985 0
M  V30 8063 H 740.396 4.57334 -4.57663 0
M  V30 8064 N 740.528 1.15101 1.07655 0
M  V30 8065 C 741.774 0.925343 1.80458 0
M  V30 8066 C 742.107 -0.546354 1.86356 0
M  V30 8067 O 741.382 -1.40496 1.34503 0
M  V30 8068 C 741.665 1.53646 3.25676 0
M  V30 8069 C 741.518 3.07854 3.27942 0
M  V30 8070 C 742.837 1.21968 4.22861 0
M  V30 8071 H 739.956 0.337592 0.655134 0
M  V30 8072 H 742.598 1.42217 1.25993 0
M  V30 8073 H 740.748 1.11395 3.72187 0
M  V30 8074 H 742.42 3.58989 2.89697 0
M  V30 8075 H 740.663 3.41904 2.66991 0
M  V30 8076 H 741.334 3.45725 4.30324 0
M  V30 8077 H 743.81 1.5851 3.84726 0
M  V30 8078 H 742.686 1.67349 5.22767 0
M  V30 8079 H 742.947 0.136207 4.4189 0
M  V30 8080 N 742.006 -1.2595 0.947325 0
M  V30 8081 C 743.254 -1.93081 0.596996 0
M  V30 8082 C 743.575 -1.74632 -0.867672 0
M  V30 8083 O 742.845 -1.1056 -1.6172 0
M  V30 8084 H 741.425 -0.714542 0.217805 0
M  V30 8085 H 744.087 -1.53265 1.20398 0
M  V30 8086 H 743.183 -3.01134 0.82004 0
M  V30 8087 N 743.484 -0.715051 -1.40445 0
M  V30 8088 C 744.733 -0.251322 -2.00128 0
M  V30 8089 C 745.046 1.16194 -1.57347 0
M  V30 8090 O 746.252 1.72416 -2.09726 0
M  V30 8091 C 744.708 -0.398407 -3.57688 0
M  V30 8092 C 744.316 -1.81828 -4.09442 0
M  V30 8093 C 746.06 0.00455625 -4.245 0
M  V30 8094 C 743.967 -1.91598 -5.59503 0
M  V30 8095 H 742.897 -0.0902081 -0.748584 0
M  V30 8096 H 745.548 -0.886062 -1.6069 0
M  V30 8097 H 743.93 0.304908 -3.94824 0
M  V30 8098 H 745.104 -2.55193 -3.83684 0
M  V30 8099 H 743.419 -2.17266 -3.55225 0
M  V30 8100 H 746.016 -0.0477303 -5.34679 0
M  V30 8101 H 746.359 1.04636 -4.02935 0
M  V30 8102 H 746.892 -0.649184 -3.92467 0
M  V30 8103 H 743.631 -2.93898 -5.85922 0
M  V30 8104 H 743.151 -1.22644 -5.87127 0
M  V30 8105 H 744.83 -1.68785 -6.24596 0
M  V30 8106 N 744.962 1.50701 -0.461195 0
M  V30 8107 C 745.925 2.2686 0.326679 0
M  V30 8108 C 746.925 1.31243 0.929085 0
M  V30 8109 O 748.115 1.54754 0.799807 0
M  V30 8110 C 745.247 3.07844 1.46441 0
M  V30 8111 H 746.44 2.97954 -0.341095 0
M  V30 8112 H 743.993 1.54814 -0.214984 0
M  V30 8113 H 744.728 2.41223 2.16753 0
M  V30 8114 H 744.513 3.78101 1.03836 0
M  V30 8115 H 746.003 3.65469 2.02044 0
M  V30 8116 N 746.441 0.193421 1.56409 0
M  V30 8117 C 747.388 -0.728124 2.19014 0
M  V30 8118 C 748.358 -1.21098 1.13686 0
M  V30 8119 O 749.543 -1.27517 1.4193 0
M  V30 8120 C 746.683 -1.94277 2.8522 0
M  V30 8121 C 745.796 -1.50143 4.05069 0
M  V30 8122 C 744.931 -2.67145 4.59137 0
M  V30 8123 C 743.97 -2.19609 5.71348 0
M  V30 8124 N 743.107 -3.29782 6.19829 0
M  V30 8125 H 747.947 -0.187499 2.9741 0
M  V30 8126 H 745.484 -0.0808064 1.46878 0
M  V30 8127 H 747.442 -2.65551 3.21774 0
M  V30 8128 H 746.072 -2.45673 2.09391 0
M  V30 8129 H 745.124 -0.684624 3.74189 0
M  V30 8130 H 746.436 -1.11266 4.86232 0
M  V30 8131 H 745.59 -3.46544 4.97988 0
M  V30 8132 H 744.329 -3.09295 3.77078 0
M  V30 8133 H 743.334 -1.38664 5.32027 0
M  V30 8134 H 744.559 -1.78492 6.55223 0
M  V30 8135 H 742.505 -3.71466 5.40693 0
M  V30 8136 H 742.422 -2.95069 6.96039 0
M  V30 8137 H 743.69 -4.094 6.63334 0
M  V30 8138 N 747.919 -1.57396 -0.0801906 0
M  V30 8139 C 749.144 -1.91437 -0.797909 0
M  V30 8140 C 749.569 -0.789075 -1.70749 0
M  V30 8141 O 748.927 0.25857 -1.79447 0
M  V30 8142 C 748.975 -3.24402 -1.57467 0
M  V30 8143 O 748.079 -3.13043 -2.68473 0
M  V30 8144 H 747.42 -0.627109 -0.218243 0
M  V30 8145 H 749.95 -2.04537 -0.050949 0
M  V30 8146 H 749.96 -3.58072 -1.95571 0
M  V30 8147 H 748.635 -4.05884 -0.907229 0
M  V30 8148 H 747.212 -2.90915 -2.33287 0
M  V30 8149 N 749.397 0.351382 -1.53633 0
M  V30 8150 C 750.329 1.45159 -1.77374 0
M  V30 8151 C 751.342 1.4905 -0.654826 0
M  V30 8152 O 752.531 1.52274 -0.931396 0
M  V30 8153 C 749.631 2.83858 -1.85143 0
M  V30 8154 C 748.804 3.03498 -3.14972 0
M  V30 8155 C 747.863 4.22393 -3.138 0
M  V30 8156 O 746.889 4.16885 -3.87551 0
M  V30 8157 N 748.091 5.30533 -2.35617 0
M  V30 8158 H 750.856 1.25167 -2.72311 0
M  V30 8159 H 748.417 0.54121 -1.52586 0
M  V30 8160 H 750.409 3.61557 -1.8182 0
M  V30 8161 H 748.979 2.9703 -0.974275 0
M  V30 8162 H 748.199 2.13336 -3.31484 0
M  V30 8163 H 749.487 3.13498 -4.00745 0
M  V30 8164 H 748.885 5.37875 -1.75235 0
M  V30 8165 H 747.442 6.06756 -2.38098 0
M  V30 8166 N 750.875 1.45233 0.611969 0
M  V30 8167 C 752.103 1.52539 1.39784 0
M  V30 8168 C 752.518 0.156533 1.8815 0
M  V30 8169 O 751.875 -0.84112 1.61961 0
M  V30 8170 C 751.926 2.50614 2.60528 0
M  V30 8171 O 751.647 3.8218 2.14173 0
M  V30 8172 C 753.148 2.67574 3.53439 0
M  V30 8173 H 750.368 0.51674 0.428043 0
M  V30 8174 H 752.912 1.90379 0.746727 0
M  V30 8175 H 751.067 2.15858 3.2169 0
M  V30 8176 H 751.481 4.35305 2.92592 0
M  V30 8177 H 752.955 3.40184 4.34717 0
M  V30 8178 H 753.432 1.73458 4.03496 0
M  V30 8179 H 754.038 3.0331 2.98133 0
M  V30 8180 N 752.353 -0.854086 1.3245 0
M  V30 8181 C 753.599 -1.61069 1.23225 0
M  V30 8182 C 753.932 -1.93111 -0.205349 0
M  V30 8183 O 753.207 -1.57397 -1.14265 0
M  V30 8184 C 753.49 -2.93065 2.09249 0
M  V30 8185 C 753.343 -2.67801 3.6139 0
M  V30 8186 C 754.662 -3.94341 1.95406 0
M  V30 8187 H 751.781 -0.584449 0.448986 0
M  V30 8188 H 754.423 -0.986189 1.62402 0
M  V30 8189 H 752.573 -3.46364 1.75967 0
M  V30 8190 H 754.245 -2.21052 4.04887 0
M  V30 8191 H 752.488 -2.01756 3.84027 0
M  V30 8192 H 753.159 -3.6179 4.16907 0
M  V30 8193 H 755.635 -3.50301 2.24562 0
M  V30 8194 H 754.511 -4.84555 2.57872 0
M  V30 8195 H 754.772 -4.32382 0.921865 0
M  V30 8196 N 753.831 -1.1567 -1.07043 0
M  V30 8197 C 754.741 -0.870435 -2.17855 0
M  V30 8198 C 755.757 0.154452 -1.73313 0
M  V30 8199 O 756.933 -0.0203759 -2.0139 0
M  V30 8200 C 753.998 -0.367219 -3.4475 0
M  V30 8201 C 753.059 -1.45639 -4.03841 0
M  V30 8202 C 752.292 -0.977092 -5.2468 0
M  V30 8203 O 752.515 0.176127 -5.70128 0
M  V30 8204 O 751.449 -1.76215 -5.75527 0
M  V30 8205 H 755.275 -1.79687 -2.44839 0
M  V30 8206 H 752.86 -0.936064 -1.1644 0
M  V30 8207 H 754.742 -0.0931947 -4.21297 0
M  V30 8208 H 753.417 0.53131 -3.1931 0
M  V30 8209 H 752.324 -1.78406 -3.28819 0
M  V30 8210 H 753.657 -2.32995 -4.3356 0
M  V30 8211 N 755.309 1.25446 -0.953992 0
M  V30 8212 C 756.549 1.94894 -0.616087 0
M  V30 8213 C 756.913 1.73067 0.831374 0
M  V30 8214 O 758.114 2.3643 1.27884 0
M  V30 8215 C 756.385 3.44147 -0.964225 0
M  V30 8216 S 757.944 4.32536 -0.738798 0
M  V30 8217 H 754.762 0.673967 -0.226472 0
M  V30 8218 H 757.364 1.52117 -1.22803 0
M  V30 8219 H 756.068 3.57537 -2.01484 0
M  V30 8220 H 755.599 3.91906 -0.342507 0
M  V30 8221 H 757.614 4.94659 0.390732 0
M  V30 8222 N 756.787 0.722489 1.40064 0
M  V30 8223 C 758.015 0.274838 2.05066 0
M  V30 8224 C 758.43 -1.08586 1.54449 0
M  V30 8225 O 757.787 -1.68375 0.704003 0
M  V30 8226 C 757.838 0.253673 3.60609 0
M  V30 8227 O 757.559 1.56064 4.0936 0
M  V30 8228 C 759.06 -0.211684 4.42794 0
M  V30 8229 H 756.28 0.12226 0.659768 0
M  V30 8230 H 758.824 0.982632 1.79345 0
M  V30 8231 H 756.979 -0.405137 3.85276 0
M  V30 8232 H 757.393 1.46576 5.03603 0
M  V30 8233 H 758.867 -0.175341 5.51721 0
M  V30 8234 H 759.344 -1.25493 4.2089 0
M  V30 8235 H 759.95 0.4171 4.2325 0
M  V30 8236 N 758.265 -1.50454 0.469181 0
M  V30 8237 C 759.511 -2.02615 -0.0865971 0
M  V30 8238 C 759.844 -1.35062 -1.39542 0
M  V30 8239 O 759.119 -0.475701 -1.88593 0
M  V30 8240 C 759.402 -3.59068 -0.272385 0
M  V30 8241 C 759.255 -4.37196 1.05733 0
M  V30 8242 C 760.574 -4.2793 -1.0278 0
M  V30 8243 H 757.693 -0.736389 -0.0299977 0
M  V30 8244 H 760.335 -1.79792 0.614399 0
M  V30 8245 H 758.485 -3.78646 -0.869471 0
M  V30 8246 H 760.157 -4.29195 1.69084 0
M  V30 8247 H 758.4 -4.01013 1.65442 0
M  V30 8248 H 759.071 -5.44924 0.880997 0
M  V30 8249 H 761.547 -4.12816 -0.521718 0
M  V30 8250 H 760.423 -5.37214 -1.12659 0
M  V30 8251 H 760.684 -3.90968 -2.0639 0
M  V30 8252 N 759.743 -0.201713 -1.56304 0
M  V30 8253 C 760.971 0.440723 -2.02152 0
M  V30 8254 C 761.386 1.54735 -1.08179 0
M  V30 8255 O 760.743 1.82289 -0.0878196 0
M  V30 8256 C 760.794 0.990884 -3.47655 0
M  V30 8257 O 760.515 -0.0715937 -4.38041 0
M  V30 8258 C 762.016 1.70854 -4.09052 0
M  V30 8259 H 759.236 0.109987 -0.661924 0
M  V30 8260 H 761.78 -0.312358 -2.021 0
M  V30 8261 H 759.935 1.69432 -3.48384 0
M  V30 8262 H 760.349 0.338892 -5.23404 0
M  V30 8263 H 761.823 2.04572 -5.12693 0
M  V30 8264 H 762.3 2.61462 -3.52894 0
M  V30 8265 H 762.906 1.0508 -4.12114 0
M  V30 8266 N 761.222 1.57436 0.0718424 0
M  V30 8267 C 762.452 1.91196 0.782795 0
M  V30 8268 C 762.86 0.795927 1.71644 0
M  V30 8269 O 762.203 -0.239604 1.82131 0
M  V30 8270 C 762.265 3.20421 1.63005 0
M  V30 8271 C 761.929 4.48724 0.865782 0
M  V30 8272 C 762.926 5.19571 0.185051 0
M  V30 8273 C 760.611 4.95345 0.832971 0
M  V30 8274 C 762.605 6.3529 -0.518264 0
M  V30 8275 C 760.292 6.1097 0.125884 0
M  V30 8276 C 761.29 6.80794 -0.548533 0
M  V30 8277 O 760.978 7.94213 -1.24423 0
M  V30 8278 H 760.71 0.636486 0.227731 0
M  V30 8279 H 763.264 2.05348 0.0464187 0
M  V30 8280 H 761.494 3.02478 2.40923 0
M  V30 8281 H 763.183 3.39831 2.21968 0
M  V30 8282 H 763.949 4.8458 0.201707 0
M  V30 8283 H 759.828 4.40871 1.34737 0
M  V30 8284 H 763.372 6.89725 -1.04523 0
M  V30 8285 H 759.269 6.45411 0.107155 0
M  V30 8286 H 760.037 8.10331 -1.1535 0
M  V30 8287 N 762.7 -0.34323 1.53817 0
M  V30 8288 C 763.61 -1.44493 1.84821 0
M  V30 8289 C 764.626 -1.57556 0.738381 0
M  V30 8290 O 765.802 -1.73026 1.03072 0
M  V30 8291 C 762.867 -2.79478 2.05166 0
M  V30 8292 C 761.928 -2.75756 3.29025 0
M  V30 8293 C 761.161 -4.04302 3.4839 0
M  V30 8294 O 761.384 -5.01595 2.71586 0
M  V30 8295 O 760.318 -4.08754 4.41819 0
M  V30 8296 H 764.144 -1.21209 2.78464 0
M  V30 8297 H 761.729 -0.535437 1.39476 0
M  V30 8298 H 763.611 -3.59419 2.19991 0
M  V30 8299 H 762.286 -3.02692 1.14713 0
M  V30 8300 H 761.193 -1.94434 3.19603 0
M  V30 8301 H 762.526 -2.57495 4.19472 0
M  V30 8302 N 764.178 -1.45556 -0.604258 0
M  V30 8303 C 765.403 -1.53509 -1.39462 0
M  V30 8304 C 765.828 -0.169638 -1.87333 0
M  V30 8305 O 765.186 0.846346 -1.60333 0
M  V30 8306 C 765.234 -2.52654 -2.5729 0
M  V30 8307 O 764.338 -2.04666 -3.5803 0
M  V30 8308 H 763.679 -0.517355 -0.416221 0
M  V30 8309 H 766.209 -1.90939 -0.735072 0
M  V30 8310 H 766.219 -2.71568 -3.04491 0
M  V30 8311 H 764.894 -3.51823 -2.21797 0
M  V30 8312 H 763.471 -1.95643 -3.17456 0
M  V30 8313 N 765.656 0.84705 -1.32902 0
M  V30 8314 C 766.933 1.58583 -1.14503 0
M  V30 8315 C 767.313 2.09075 0.291724 0
M  V30 8316 O 766.661 1.88636 1.28952 0
M  V30 8317 C 766.871 2.72605 -2.17916 0
M  V30 8318 C 768.219 3.41993 -2.51646 0
M  V30 8319 O 769.243 2.82838 -2.1652 0
M  V30 8320 O 768.102 4.48761 -3.1189 0
M  V30 8321 H 765.196 0.698756 -0.442345 0
M  V30 8322 H 767.742 0.890516 -1.44457 0
M  V30 8323 H 766.514 2.32876 -3.14459 0
M  V30 8324 H 766.137 3.49807 -1.89 0
M  V30 8325 N 767.134 1.16236 1.06428 0
M  V30 8326 C 768.38 0.944431 1.79467 0
M  V30 8327 C 768.713 -0.526558 1.86925 0
M  V30 8328 O 767.988 -1.39061 1.35986 0
M  V30 8329 C 768.271 1.57092 3.24028 0
M  V30 8330 C 768.124 3.11315 3.24658 0
M  V30 8331 C 769.443 1.26447 4.21544 0
M  V30 8332 H 766.562 0.344521 0.651517 0
M  V30 8333 H 769.204 1.43545 1.24478 0
M  V30 8334 H 767.354 1.15337 3.70985 0
M  V30 8335 H 769.026 3.62042 2.85873 0
M  V30 8336 H 767.269 3.44716 2.6335 0
M  V30 8337 H 767.94 3.50269 4.26633 0
M  V30 8338 H 770.416 1.62581 3.83023 0
M  V30 8339 H 769.292 1.72885 5.20963 0
M  V30 8340 H 769.553 0.183068 4.41721 0
M  V30 8341 N 768.612 -1.24939 0.960631 0
M  V30 8342 C 770.028 -1.45039 0.666018 0
M  V30 8343 C 770.228 -1.86021 -0.774501 0
M  V30 8344 O 769.284 -1.99392 -1.54916 0
M  V30 8345 C 770.597 -2.51775 1.64408 0
M  V30 8346 C 772.145 -2.6561 1.65592 0
M  V30 8347 C 772.62 -3.75536 2.62177 0
M  V30 8348 N 774.111 -3.82954 2.60577 0
M  V30 8349 C 774.846 -4.67517 3.31987 0
M  V30 8350 N 774.342 -5.56321 4.1289 0
M  V30 8351 N 776.135 -4.61535 3.20845 0
M  V30 8352 H 768.286 -0.96632 1.89145 0
M  V30 8353 H 770.549 -0.486034 0.813926 0
M  V30 8354 H 770.255 -2.28534 2.67329 0
M  V30 8355 H 770.129 -3.49804 1.41128 0
M  V30 8356 H 772.516 -2.88212 0.633846 0
M  V30 8357 H 772.597 -1.67962 1.92931 0
M  V30 8358 H 772.241 -3.53684 3.64514 0
M  V30 8359 H 772.171 -4.72682 2.32119 0
M  V30 8360 H 774.662 -3.19478 2.01847 0
M  V30 8361 H 774.975 -6.17787 4.64283 0
M  V30 8362 H 773.32 -5.5601 4.16987 0
M  V30 8363 H 776.511 -3.91169 2.57108 0
M  V30 8364 H 776.684 -5.27214 3.76762 0
M  V30 8365 N 770.09 -0.729906 -1.39679 0
M  V30 8366 C 771.318 -0.285709 -2.04918 0
M  V30 8367 C 771.733 1.07765 -1.55023 0
M  V30 8368 O 771.09 1.67999 -0.712923 0
M  V30 8369 C 771.141 -0.272793 -3.60469 0
M  V30 8370 O 770.862 -1.58233 -4.08527 0
M  V30 8371 C 772.363 0.188199 -4.429 0
M  V30 8372 H 769.583 -0.125758 -0.65911 0
M  V30 8373 H 772.127 -0.992129 -1.78821 0
M  V30 8374 H 770.282 0.384699 -3.85485 0
M  V30 8375 H 770.696 -1.49245 -5.02818 0
M  V30 8376 H 772.17 0.14608 -5.51807 0
M  V30 8377 H 772.647 1.2326 -4.21549 0
M  V30 8378 H 773.253 -0.439541 -4.23023 0
M  V30 8379 N 771.568 1.50203 -0.477153 0
M  V30 8380 C 772.979 1.86685 -0.0235041 0
M  V30 8381 C 773.33 1.39148 1.38319 0
M  V30 8382 O 772.455 0.759051 2.02651 0
M  V30 8383 C 773.05 3.38781 -0.0358767 0
M  V30 8384 C 771.609 3.74652 0.362327 0
M  V30 8385 C 770.756 2.7412 -0.41875 0
M  V30 8386 H 773.707 1.4286 -0.691133 0
M  V30 8387 H 773.728 3.72732 0.764924 0
M  V30 8388 H 773.24 3.73349 -1.05981 0
M  V30 8389 H 771.341 3.45686 1.39039 0
M  V30 8390 H 771.454 4.79063 0.059457 0
M  V30 8391 H 769.818 2.54376 0.128341 0
M  V30 8392 H 770.601 3.11532 -1.44231 0
M  V30 8393 N 773.046 0.209999 1.56195 0
M  V30 8394 C 773.993 -0.704854 2.19774 0
M  V30 8395 C 774.963 -1.19886 1.14964 0
M  V30 8396 O 776.148 -1.26005 1.43274 0
M  V30 8397 C 773.288 -1.91241 2.87265 0
M  V30 8398 C 772.401 -1.45838 4.06639 0
M  V30 8399 C 771.536 -2.6226 4.61945 0
M  V30 8400 C 770.575 -2.13537 5.73645 0
M  V30 8401 N 769.712 -3.2319 6.23292 0
M  V30 8402 H 774.552 -0.155944 2.97592 0
M  V30 8403 H 772.089 -0.0652235 1.46955 0
M  V30 8404 H 774.047 -2.62123 3.24573 0
M  V30 8405 H 772.677 -2.43439 2.11985 0
M  V30 8406 H 771.729 -0.644897 3.74894 0
M  V30 8407 H 773.041 -1.06103 4.87384 0
M  V30 8408 H 772.195 -3.41243 5.01636 0
M  V30 8409 H 770.934 -3.05278 3.80338 0
M  V30 8410 H 769.939 -1.33013 5.33468 0
M  V30 8411 H 771.164 -1.71533 6.57079 0
M  V30 8412 H 769.11 -3.65711 5.44602 0
M  V30 8413 H 769.027 -2.8767 6.99129 0
M  V30 8414 H 770.295 -4.02342 6.67639 0
M  V30 8415 N 774.524 -1.57472 -0.0634922 0
M  V30 8416 C 775.749 -1.92273 -0.77756 0
M  V30 8417 C 776.174 -0.807141 -1.69902 0
M  V30 8418 O 775.532 0.239523 -1.79711 0
M  V30 8419 C 775.58 -3.26054 -1.54017 0
M  V30 8420 O 774.684 -3.15873 -2.65138 0
M  V30 8421 H 774.025 -0.629389 -0.211579 0
M  V30 8422 H 776.555 -2.04579 -0.0292523 0
M  V30 8423 H 776.565 -3.60127 -1.91763 0
M  V30 8424 H 775.24 -4.06824 -0.864128 0
M  V30 8425 H 773.817 -2.93373 -2.30189 0
M  V30 8426 N 776.003 0.335068 -1.53997 0
M  V30 8427 C 777.231 1.09418 -1.756 0
M  V30 8428 C 777.646 1.82083 -0.499138 0
M  V30 8429 O 777.003 1.74646 0.529631 0
M  V30 8430 C 777.054 2.10115 -2.94166 0
M  V30 8431 O 776.775 1.40404 -4.14992 0
M  V30 8432 C 778.276 2.98336 -3.27888 0
M  V30 8433 H 775.496 0.32595 -0.586513 0
M  V30 8434 H 778.04 0.384693 -2.00849 0
M  V30 8435 H 776.195 2.76616 -2.71224 0
M  V30 8436 H 776.609 2.07743 -4.81605 0
M  V30 8437 H 778.083 3.6491 -4.1418 0
M  V30 8438 H 778.56 3.64814 -2.44556 0
M  V30 8439 H 779.166 2.37412 -3.52868 0
M  V30 8440 N 777.481 1.45874 0.596531 0
M  V30 8441 C 778.428 1.55389 1.70655 0
M  V30 8442 C 779.398 0.399036 1.61236 0
M  V30 8443 O 780.583 0.61396 1.80652 0
M  V30 8444 C 777.723 1.53705 3.0898 0
M  V30 8445 C 776.836 2.79823 3.29125 0
M  V30 8446 C 775.971 2.69735 4.5762 0
M  V30 8447 C 775.01 3.90856 4.71061 0
M  V30 8448 N 774.147 3.79237 5.90867 0
M  V30 8449 H 778.987 2.50211 1.61859 0
M  V30 8450 H 776.524 1.24146 0.789069 0
M  V30 8451 H 778.482 1.50715 3.89026 0
M  V30 8452 H 777.112 0.624247 3.16706 0
M  V30 8453 H 776.164 2.92852 2.42779 0
M  V30 8454 H 777.476 3.69628 3.34927 0
M  V30 8455 H 776.63 2.64773 5.45875 0
M  V30 8456 H 775.369 1.77547 4.54234 0
M  V30 8457 H 774.374 3.96164 3.81227 0
M  V30 8458 H 775.599 4.84124 4.76236 0
M  V30 8459 H 773.545 2.89825 5.88504 0
M  V30 8460 H 773.462 4.62686 5.97877 0
M  V30 8461 H 774.73 3.78227 6.8159 0
M  V30 8462 N 778.959 -0.83999 1.33349 0
M  V30 8463 C 779.909 -1.93817 1.20079 0
M  V30 8464 C 780.893 -1.60564 0.103978 0
M  V30 8465 O 782.085 -1.73859 0.331964 0
M  V30 8466 C 779.214 -3.30151 0.941031 0
M  V30 8467 C 778.3 -3.69577 2.08023 0
M  V30 8468 N 778.691 -3.80707 3.3301 0
M  V30 8469 C 776.989 -3.99309 1.98667 0
M  V30 8470 C 777.69 -4.14899 4.07717 0
M  V30 8471 N 776.666 -4.27208 3.36146 0
M  V30 8472 H 780.468 -2.00576 2.14817 0
M  V30 8473 H 777.982 -1.03264 1.2534 0
M  V30 8474 H 779.979 -4.08617 0.826894 0
M  V30 8475 H 778.639 -3.247 0.00216738 0
M  V30 8476 H 779.65 -3.64644 3.67771 0
M  V30 8477 H 776.327 -4.02076 1.12433 0
M  V30 8478 H 777.717 -4.30857 5.15569 0
M  V30 8479 N 780.437 -1.16799 -1.0581 0
M  V30 8480 C 781.683 -0.953935 -1.78963 0
M  V30 8481 C 782.016 0.516638 -1.87202 0
M  V30 8482 O 781.291 1.38338 -1.36721 0
M  V30 8483 C 781.574 -1.58808 -3.23191 0
M  V30 8484 C 781.427 -3.13032 -3.23003 0
M  V30 8485 C 782.746 -1.2868 -4.20867 0
M  V30 8486 H 779.865 -0.347972 -0.64968 0
M  V30 8487 H 782.507 -1.44204 -1.23715 0
M  V30 8488 H 780.657 -1.17303 -3.70368 0
M  V30 8489 H 782.329 -3.63553 -2.83949 0
M  V30 8490 H 780.572 -3.46108 -2.61518 0
M  V30 8491 H 781.243 -3.52527 -4.24769 0
M  V30 8492 H 783.719 -1.6461 -3.82155 0
M  V30 8493 H 782.595 -1.75645 -5.20038 0
M  V30 8494 H 782.856 -0.206491 -4.41618 0
M  V30 8495 N 781.915 1.24427 -0.967243 0
M  V30 8496 C 782.865 2.23143 -0.468106 0
M  V30 8497 C 783.849 1.5449 0.449633 0
M  V30 8498 O 785.041 1.74761 0.28063 0
M  V30 8499 C 782.17 3.42454 0.240867 0
M  V30 8500 C 781.256 4.18355 -0.695674 0
M  V30 8501 N 781.647 4.71428 -1.83273 0
M  V30 8502 C 779.945 4.43116 -0.506365 0
M  V30 8503 C 780.646 5.29041 -2.41849 0
M  V30 8504 N 779.622 5.16213 -1.70369 0
M  V30 8505 H 783.424 2.61795 -1.3357 0
M  V30 8506 H 780.938 1.39809 -0.826277 0
M  V30 8507 H 782.935 4.12329 0.615668 0
M  V30 8508 H 781.595 3.05323 1.10491 0
M  V30 8509 H 782.606 4.68177 -2.21428 0
M  V30 8510 H 779.283 4.16319 0.313747 0
M  V30 8511 H 780.673 5.80811 -3.37799 0
M  V30 8512 N 783.393 0.737304 1.3929 0
M  V30 8513 C 784.618 0.295237 2.05288 0
M  V30 8514 C 785.043 -1.06235 1.55228 0
M  V30 8515 O 784.401 -1.67365 0.697043 0
M  V30 8516 C 784.449 0.309146 3.59272 0
M  V30 8517 O 783.553 -0.702437 4.06374 0
M  V30 8518 H 782.894 0.133762 0.650387 0
M  V30 8519 H 785.424 1.00387 1.78279 0
M  V30 8520 H 785.434 0.154336 4.07708 0
M  V30 8521 H 784.109 1.29974 3.95069 0
M  V30 8522 H 782.686 -0.513574 3.69346 0
M  V30 8523 N 784.871 -1.49948 0.485112 0
M  V30 8524 C 786.12 -2.01589 -0.066765 0
M  V30 8525 C 786.433 -1.371 -1.39509 0
M  V30 8526 O 787.639 -1.79978 -2.03274 0
M  V30 8527 C 786.095 -3.59501 -0.169476 0
M  V30 8528 C 785.703 -4.32955 1.15126 0
M  V30 8529 C 787.447 -4.19138 -0.672564 0
M  V30 8530 C 785.354 -5.82684 1.01158 0
M  V30 8531 H 784.284 -0.753453 -0.0287259 0
M  V30 8532 H 786.935 -1.72632 0.622132 0
M  V30 8533 H 785.317 -3.85106 -0.922471 0
M  V30 8534 H 786.491 -4.19064 1.9163 0
M  V30 8535 H 784.806 -3.84991 1.58654 0
M  V30 8536 H 787.403 -5.28767 -0.794325 0
M  V30 8537 H 787.746 -3.81447 -1.66745 0
M  V30 8538 H 788.279 -3.97793 0.0234415 0
M  V30 8539 H 785.018 -6.24873 1.98025 0
M  V30 8540 H 784.538 -5.99112 0.287151 0
M  V30 8541 H 786.217 -6.43376 0.683847 0
M  V30 8542 N 786.349 -0.21828 -1.56081 0
M  V30 8543 C 787.281 0.725447 -2.17416 0
M  V30 8544 C 788.294 1.15995 -1.14233 0
M  V30 8545 O 789.483 1.09166 -1.41227 0
M  V30 8546 C 786.583 1.99401 -2.7403 0
M  V30 8547 C 785.756 1.7156 -4.02351 0
M  V30 8548 C 784.815 2.8309 -4.43561 0
M  V30 8549 O 783.841 2.51701 -5.10525 0
M  V30 8550 N 785.043 4.11972 -4.08973 0
M  V30 8551 H 787.808 0.200801 -2.99027 0
M  V30 8552 H 785.369 -0.0371514 -1.61857 0
M  V30 8553 H 787.361 2.73198 -2.98571 0
M  V30 8554 H 785.931 2.42923 -1.96742 0
M  V30 8555 H 785.151 0.814233 -3.85699 0
M  V30 8556 H 786.439 1.50385 -4.86068 0
M  V30 8557 H 785.837 4.40319 -3.55156 0
M  V30 8558 H 784.394 4.82323 -4.38415 0
M  V30 8559 N 787.827 1.57504 0.0551401 0
M  V30 8560 C 789.073 1.89191 0.74688 0
M  V30 8561 C 789.428 0.813936 1.74335 0
M  V30 8562 O 788.721 -0.180217 1.90751 0
M  V30 8563 C 788.915 3.25311 1.48013 0
M  V30 8564 C 788.744 4.46247 0.556176 0
M  V30 8565 C 787.514 5.04954 0.186891 0
M  V30 8566 C 789.712 5.14068 -0.154295 0
M  V30 8567 N 787.694 6.09411 -0.741041 0
M  V30 8568 C 789.065 6.12851 -0.938809 0
M  V30 8569 C 791.12 4.97396 -0.224007 0
M  V30 8570 C 789.823 6.96759 -1.78658 0
M  V30 8571 C 791.849 5.81845 -1.05881 0
M  V30 8572 C 791.211 6.80178 -1.83133 0
M  V30 8573 H 787.31 0.741562 0.248213 0
M  V30 8574 H 789.894 1.94698 0.00777734 0
M  V30 8575 H 788.065 3.20781 2.18985 0
M  V30 8576 H 789.797 3.44594 2.12219 0
M  V30 8577 H 786.552 4.70472 0.543415 0
M  V30 8578 H 786.976 6.66303 -1.19874 0
M  V30 8579 H 791.618 4.21274 0.358924 0
M  V30 8580 H 789.336 7.72245 -2.38042 0
M  V30 8581 H 792.922 5.70997 -1.11595 0
M  V30 8582 H 791.802 7.44389 -2.46687 0
M  V30 8583 N 789.305 -0.326896 1.54172 0
M  V30 8584 C 790.53 -1.08924 1.76494 0
M  V30 8585 C 790.955 -1.81039 0.510523 0
M  V30 8586 O 790.313 -1.73141 -0.537756 0
M  V30 8587 C 790.361 -2.06558 2.95578 0
M  V30 8588 O 789.465 -3.14394 2.6689 0
M  V30 8589 H 788.806 -0.314216 0.584948 0
M  V30 8590 H 791.336 -0.372207 2.01186 0
M  V30 8591 H 791.346 -2.49487 3.22832 0
M  V30 8592 H 790.021 -1.53469 3.86549 0
M  V30 8593 H 788.598 -2.76164 2.50576 0
M  V30 8594 N 790.784 -1.46188 -0.588786 0
M  V30 8595 C 792.2 -1.31009 -0.911524 0
M  V30 8596 C 792.4 -0.277017 -1.99587 0
M  V30 8597 O 791.456 0.322532 -2.50432 0
M  V30 8598 C 792.769 -2.69459 -1.33463 0
M  V30 8599 C 794.317 -2.77502 -1.44782 0
M  V30 8600 C 794.792 -4.1652 -1.90461 0
M  V30 8601 N 796.283 -4.18907 -1.97665 0
M  V30 8602 C 797.018 -5.23359 -2.34271 0
M  V30 8603 N 796.514 -6.38143 -2.69714 0
M  V30 8604 N 798.307 -5.10723 -2.34774 0
M  V30 8605 H 790.458 -2.12016 0.127614 0
M  V30 8606 H 792.721 -0.947984 -0.00557599 0
M  V30 8607 H 792.427 -3.46336 -0.611929 0
M  V30 8608 H 792.301 -2.99165 -2.2974 0
M  V30 8609 H 794.688 -2.00917 -2.1614 0
M  V30 8610 H 794.769 -2.51488 -0.467724 0
M  V30 8611 H 794.413 -4.93597 -1.19684 0
M  V30 8612 H 794.343 -4.39937 -2.89418 0
M  V30 8613 H 796.834 -3.36084 -1.72789 0
M  V30 8614 H 797.147 -7.13624 -2.96582 0
M  V30 8615 H 795.492 -6.41514 -2.67366 0
M  V30 8616 H 798.683 -4.20088 -2.06503 0
M  V30 8617 H 798.856 -5.9224 -2.62975 0
M  V30 8618 N 792.262 0.832906 -1.33792 0
M  V30 8619 C 793.49 1.62048 -1.28639 0
M  V30 8620 C 793.905 1.88269 0.141522 0
M  V30 8621 O 793.262 1.46706 1.08553 0
M  V30 8622 C 793.313 2.96722 -2.0649 0
M  V30 8623 O 793.034 2.7165 -3.43712 0
M  V30 8624 C 794.535 3.91144 -2.08617 0
M  V30 8625 H 791.755 0.504032 -0.442937 0
M  V30 8626 H 794.299 1.03704 -1.76255 0
M  V30 8627 H 792.454 3.51652 -1.62541 0
M  V30 8628 H 792.868 3.57453 -3.83833 0
M  V30 8629 H 794.342 4.82837 -2.67531 0
M  V30 8630 H 794.819 4.25766 -1.07796 0
M  V30 8631 H 795.425 3.42152 -2.52611 0
M  V30 8632 N 793.74 1.17359 1.05189 0
M  V30 8633 C 794.687 0.890325 2.12936 0
M  V30 8634 C 795.657 -0.165779 1.65271 0
M  V30 8635 O 796.842 -0.0285672 1.90779 0
M  V30 8636 C 793.982 0.409793 3.42658 0
M  V30 8637 C 793.095 1.53002 4.03998 0
M  V30 8638 C 792.23 1.00336 5.21638 0
M  V30 8639 C 791.269 2.09903 5.74984 0
M  V30 8640 N 790.406 1.58714 6.83926 0
M  V30 8641 H 795.246 1.81299 2.36505 0
M  V30 8642 H 792.783 0.904249 1.16025 0
M  V30 8643 H 794.741 0.112743 4.17048 0
M  V30 8644 H 793.371 -0.475915 3.19272 0
M  V30 8645 H 792.423 1.9428 3.27047 0
M  V30 8646 H 793.735 2.3564 4.39631 0
M  V30 8647 H 792.889 0.660158 6.03098 0
M  V30 8648 H 791.628 0.14642 4.8748 0
M  V30 8649 H 790.633 2.45081 4.92154 0
M  V30 8650 H 791.858 2.96013 6.1119 0
M  V30 8651 H 789.804 0.752915 6.51665 0
M  V30 8652 H 789.721 2.34959 7.18561 0
M  V30 8653 H 790.989 1.27287 7.69037 0
M  V30 8654 N 795.218 -1.23913 0.973828 0
M  V30 8655 C 796.629 -1.73992 0.677021 0
M  V30 8656 C 796.98 -1.78833 -0.807036 0
M  V30 8657 O 796.105 -1.42183 -1.63135 0
M  V30 8658 C 796.7 -3.15985 1.22226 0
M  V30 8659 C 795.259 -3.63547 0.975228 0
M  V30 8660 C 794.406 -2.42001 1.35392 0
M  V30 8661 H 797.357 -1.09529 1.14844 0
M  V30 8662 H 797.378 -3.75875 0.591489 0
M  V30 8663 H 796.89 -3.12429 2.30238 0
M  V30 8664 H 794.991 -3.72493 -0.0891047 0
M  V30 8665 H 795.104 -4.50693 1.62518 0
M  V30 8666 H 793.468 -2.42708 0.772334 0
M  V30 8667 H 794.251 -2.41122 2.44367 0
M  V30 8668 N 796.696 -0.74468 -1.38897 0
M  V30 8669 C 797.628 -0.0713608 -2.29089 0
M  V30 8670 C 798.641 0.693224 -1.47303 0
M  V30 8671 O 799.83 0.535785 -1.70269 0
M  V30 8672 C 796.93 0.923078 -3.26087 0
M  V30 8673 C 796.103 0.217998 -4.36856 0
M  V30 8674 C 795.162 1.12192 -5.14101 0
M  V30 8675 O 794.188 0.595771 -5.66073 0
M  V30 8676 N 795.39 2.45082 -5.26227 0
M  V30 8677 H 798.155 -0.845906 -2.87514 0
M  V30 8678 H 795.716 -0.594712 -1.50581 0
M  V30 8679 H 797.708 1.53061 -3.74639 0
M  V30 8680 H 796.278 1.59876 -2.68623 0
M  V30 8681 H 795.498 -0.570134 -3.90055 0
M  V30 8682 H 796.786 -0.270248 -5.08082 0
M  V30 8683 H 796.184 2.90294 -4.85537 0
M  V30 8684 H 794.741 3.00907 -5.78185 0
M  V30 8685 N 798.174 1.49689 -0.493057 0
M  V30 8686 C 799.451 1.9525 0.116907 0
M  V30 8687 C 799.831 1.43429 1.54892 0
M  V30 8688 O 799.179 0.644621 2.19219 0
M  V30 8689 C 799.389 3.4898 0.037705 0
M  V30 8690 C 800.737 4.24052 0.215621 0
M  V30 8691 O 801.761 3.5602 0.113266 0
M  V30 8692 O 800.62 5.44847 0.42477 0
M  V30 8693 H 797.714 0.820973 0.099662 0
M  V30 8694 H 800.26 1.60367 -0.555029 0
M  V30 8695 H 799.032 3.79309 -0.961251 0
M  V30 8696 H 798.655 3.9046 0.750137 0
M  V30 8697 N 799.652 0.226554 1.55963 0
M  V30 8698 C 800.562 -0.692725 2.24139 0
M  V30 8699 C 801.578 -1.20971 1.25068 0
M  V30 8700 O 802.754 -1.25027 1.57893 0
M  V30 8701 C 799.819 -1.88183 2.91184 0
M  V30 8702 C 798.88 -1.40633 4.05612 0
M  V30 8703 C 798.113 -2.53875 4.6945 0
M  V30 8704 O 798.336 -3.72129 4.32292 0
M  V30 8705 O 797.27 -2.24792 5.58348 0
M  V30 8706 H 801.096 -0.141921 3.03368 0
M  V30 8707 H 798.681 -0.0041049 1.49399 0
M  V30 8708 H 800.563 -2.57617 3.33484 0
M  V30 8709 H 799.238 -2.42064 2.14911 0
M  V30 8710 H 798.145 -0.67986 3.67871 0
M  V30 8711 H 799.478 -0.913838 4.83642 0
M  V30 8712 N 801.13 -1.57531 -0.0467866 0
M  V30 8713 C 802.376 -1.8873 -0.742218 0
M  V30 8714 C 802.709 -0.822084 -1.75941 0
M  V30 8715 O 801.984 0.164922 -1.938 0
M  V30 8716 C 802.267 -3.30586 -1.42776 0
M  V30 8717 C 802.12 -4.47785 -0.425285 0
M  V30 8718 C 803.439 -3.71068 -2.36636 0
M  V30 8719 H 800.558 -0.686406 -0.268359 0
M  V30 8720 H 803.2 -1.89999 -0.00511341 0
M  V30 8721 H 801.35 -3.29634 -2.05605 0
M  V30 8722 H 803.022 -4.60867 0.199721 0
M  V30 8723 H 801.265 -4.33037 0.25713 0
M  V30 8724 H 801.936 -5.43884 -0.943086 0
M  V30 8725 H 804.412 -3.73273 -1.83866 0
M  V30 8726 H 803.288 -4.71165 -2.81593 0
M  V30 8727 H 803.549 -3.02355 -3.22542 0
M  V30 8728 N 802.608 0.318715 -1.54344 0
M  V30 8729 C 803.555 1.39242 -1.84066 0
M  V30 8730 C 804.525 1.51175 -0.688134 0
M  V30 8731 O 805.71 1.66318 -0.935039 0
M  V30 8732 C 802.85 2.75528 -2.07794 0
M  V30 8733 C 801.963 2.72187 -3.35467 0
M  V30 8734 C 801.098 4.00352 -3.4913 0
M  V30 8735 C 800.137 3.91338 -4.7066 0
M  V30 8736 N 799.274 5.11242 -4.81224 0
M  V30 8737 H 804.114 1.13196 -2.75664 0
M  V30 8738 H 801.651 0.547857 -1.36517 0
M  V30 8739 H 803.609 3.54763 -2.19543 0
M  V30 8740 H 802.239 2.99873 -1.19482 0
M  V30 8741 H 801.291 1.84917 -3.3243 0
M  V30 8742 H 802.603 2.61411 -4.24812 0
M  V30 8743 H 801.757 4.88019 -3.60448 0
M  V30 8744 H 800.496 4.1394 -2.57886 0
M  V30 8745 H 799.501 3.02055 -4.59394 0
M  V30 8746 H 800.726 3.7931 -5.63294 0
M  V30 8747 H 798.672 5.25327 -3.92897 0
M  V30 8748 H 798.589 5.0282 -5.64543 0
M  V30 8749 H 799.857 6.0061 -4.96879 0
M  V30 8750 N 804.086 1.46499 0.581025 0
M  V30 8751 C 805.049 1.5677 1.672 0
M  V30 8752 C 806.049 0.444716 1.54528 0
M  V30 8753 O 807.239 0.709074 1.59116 0
M  V30 8754 C 804.371 1.4896 3.06633 0
M  V30 8755 H 805.564 2.54 1.5945 0
M  V30 8756 H 803.117 1.34334 0.799003 0
M  V30 8757 H 803.852 0.530168 3.19937 0
M  V30 8758 H 803.637 2.30439 3.17239 0
M  V30 8759 H 805.127 1.59237 3.86048 0
M  V30 8760 N 805.565 -0.825799 1.34232 0
M  V30 8761 C 806.811 -1.58419 1.26614 0
M  V30 8762 C 807.144 -1.93503 -0.164341 0
M  V30 8763 O 806.419 -1.59785 -1.109 0
M  V30 8764 C 806.702 -2.8856 2.15418 0
M  V30 8765 C 806.555 -2.60075 3.66989 0
M  V30 8766 C 807.874 -3.90107 2.03726 0
M  V30 8767 H 804.993 -0.574794 0.461282 0
M  V30 8768 H 807.635 -0.951519 1.64457 0
M  V30 8769 H 805.785 -3.42553 1.83275 0
M  V30 8770 H 807.457 -2.12414 4.09485 0
M  V30 8771 H 805.7 -1.93565 3.88221 0
M  V30 8772 H 806.371 -3.52866 4.24488 0
M  V30 8773 H 808.847 -3.45459 2.31942 0
M  V30 8774 H 807.723 -4.78976 2.68092 0
M  V30 8775 H 807.984 -4.30329 1.01337 0
M  V30 8776 N 807.043 -1.17915 -1.04565 0
M  V30 8777 C 807.975 -0.859359 -2.1248 0
M  V30 8778 C 808.988 0.140922 -1.62189 0
M  V30 8779 O 810.177 -0.0862361 -1.78292 0
M  V30 8780 C 807.277 -0.261811 -3.37887 0
M  V30 8781 C 806.45 -1.30651 -4.17431 0
M  V30 8782 C 805.509 -0.725575 -5.21174 0
M  V30 8783 O 804.535 -1.39901 -5.51739 0
M  V30 8784 N 805.737 0.479351 -5.78517 0
M  V30 8785 H 808.502 -1.78818 -2.40508 0
M  V30 8786 H 806.063 -1.07885 -1.20716 0
M  V30 8787 H 808.055 0.14028 -4.04457 0
M  V30 8788 H 806.625 0.570929 -3.07342 0
M  V30 8789 H 805.845 -1.88412 -3.46258 0
M  V30 8790 H 807.133 -2.01099 -4.67372 0
M  V30 8791 H 806.531 1.04431 -5.55977 0
M  V30 8792 H 805.088 0.823427 -6.46578 0
M  V30 8793 N 808.521 1.23394 -0.980386 0
M  V30 8794 C 809.451 2.2717 -0.540024 0
M  V30 8795 C 810.432 1.64659 0.426787 0
M  V30 8796 O 811.617 1.91543 0.320153 0
M  V30 8797 C 808.747 3.46939 0.15836 0
M  V30 8798 C 807.701 4.21802 -0.725732 0
M  V30 8799 C 807.027 5.34597 0.104866 0
M  V30 8800 C 808.327 4.81802 -2.01654 0
M  V30 8801 H 810.021 2.64257 -1.40743 0
M  V30 8802 H 807.567 1.2703 -0.678193 0
M  V30 8803 H 809.52 4.18683 0.477737 0
M  V30 8804 H 808.244 3.08912 1.06022 0
M  V30 8805 H 806.903 3.51875 -1.02857 0
M  V30 8806 H 806.551 4.92812 1.00726 0
M  V30 8807 H 806.251 5.85607 -0.483557 0
M  V30 8808 H 807.775 6.09163 0.418624 0
M  V30 8809 H 809.189 5.45554 -1.76193 0
M  V30 8810 H 807.586 5.43098 -2.55273 0
M  V30 8811 H 808.656 4.02549 -2.70338 0
M  V30 8812 N 809.999 0.752036 1.385 0
M  V30 8813 C 810.962 0.131587 2.28822 0
M  V30 8814 C 811.962 -0.649149 1.47115 0
M  V30 8815 O 813.152 -0.475645 1.67581 0
M  V30 8816 C 810.284 -0.822101 3.30839 0
M  V30 8817 H 811.477 0.927551 2.85196 0
M  V30 8818 H 809.03 0.518945 1.47434 0
M  V30 8819 H 809.765 -1.6438 2.79553 0
M  V30 8820 H 809.55 -0.264689 3.91206 0
M  V30 8821 H 811.04 -1.25226 3.98382 0
M  V30 8822 N 811.477 -1.49425 0.500989 0
M  V30 8823 C 812.726 -2.01649 -0.04538 0
M  V30 8824 C 813.039 -1.38572 -1.38047 0
M  V30 8825 O 814.245 -1.82124 -2.01353 0
M  V30 8826 C 812.701 -3.5966 -0.131337 0
M  V30 8827 C 812.309 -4.3171 1.19711 0
M  V30 8828 C 814.053 -4.19828 -0.628071 0
M  V30 8829 C 811.96 -5.81579 1.07332 0
M  V30 8830 H 810.89 -0.753715 -0.0207329 0
M  V30 8831 H 813.541 -1.71962 0.640407 0
M  V30 8832 H 811.923 -3.86063 -0.881574 0
M  V30 8833 H 813.097 -4.17008 1.96064 0
M  V30 8834 H 811.412 -3.83286 1.62729 0
M  V30 8835 H 814.009 -5.2958 -0.738198 0
M  V30 8836 H 814.352 -3.83194 -1.6269 0
M  V30 8837 H 814.885 -3.97746 0.0656314 0
M  V30 8838 H 811.624 -6.22738 2.04642 0
M  V30 8839 H 811.144 -5.98774 0.350679 0
M  V30 8840 H 812.823 -6.42614 0.752047 0
M  V30 8841 N 812.955 -0.234822 -1.55841 0
M  V30 8842 C 813.887 0.702346 -2.18174 0
M  V30 8843 C 814.9 1.14776 -1.15457 0
M  V30 8844 O 816.089 1.07662 -1.42377 0
M  V30 8845 C 813.189 1.96483 -2.76129 0
M  V30 8846 C 812.362 1.67283 -4.04148 0
M  V30 8847 C 811.421 2.7837 -4.46539 0
M  V30 8848 O 810.447 2.46272 -5.13166 0
M  V30 8849 N 811.649 4.07611 -4.1332 0
M  V30 8850 H 814.414 0.169074 -2.99223 0
M  V30 8851 H 811.975 -0.0543164 -1.61809 0
M  V30 8852 H 813.967 2.70016 -3.01452 0
M  V30 8853 H 812.537 2.40822 -1.99307 0
M  V30 8854 H 811.757 0.773278 -3.86541 0
M  V30 8855 H 813.045 1.45222 -4.87635 0
M  V30 8856 H 812.443 4.36527 -3.59806 0
M  V30 8857 H 811 4.77646 -4.43506 0
M  V30 8858 N 814.433 1.57553 0.0384317 0
M  V30 8859 C 815.661 1.93093 0.743141 0
M  V30 8860 C 816.076 0.833787 1.69391 0
M  V30 8861 O 815.433 -0.190532 1.81503 0
M  V30 8862 C 815.484 3.28533 1.50826 0
M  V30 8863 O 815.205 4.34032 0.595665 0
M  V30 8864 C 816.706 3.78297 2.31098 0
M  V30 8865 H 813.926 0.637486 0.20941 0
M  V30 8866 H 816.47 2.045 -0.00125154 0
M  V30 8867 H 814.625 3.18552 2.20462 0
M  V30 8868 H 815.039 5.12155 1.13124 0
M  V30 8869 H 816.513 4.75602 2.80191 0
M  V30 8870 H 816.99 3.09008 3.12107 0
M  V30 8871 H 817.596 3.91331 1.66555 0
M  V30 8872 N 815.911 -0.310526 1.54511 0
M  V30 8873 C 816.841 -1.38757 1.878 0
M  V30 8874 C 817.822 -1.53353 0.735991 0
M  V30 8875 O 819.007 -1.67018 0.990887 0
M  V30 8876 C 816.137 -2.75327 2.11689 0
M  V30 8877 C 815.091 -2.75506 3.27537 0
M  V30 8878 C 814.417 -4.15275 3.36824 0
M  V30 8879 C 815.717 -2.38093 4.64875 0
M  V30 8880 H 817.411 -1.11146 2.78005 0
M  V30 8881 H 814.957 -0.533232 1.33763 0
M  V30 8882 H 816.91 -3.50752 2.33562 0
M  V30 8883 H 815.634 -3.04443 1.18245 0
M  V30 8884 H 814.293 -2.02538 3.05572 0
M  V30 8885 H 813.941 -4.41553 2.40915 0
M  V30 8886 H 813.641 -4.16299 4.14692 0
M  V30 8887 H 815.165 -4.92493 3.60947 0
M  V30 8888 H 816.579 -3.03232 4.86542 0
M  V30 8889 H 814.976 -2.50345 5.45387 0
M  V30 8890 H 816.046 -1.33227 4.66239 0
M  V30 8891 N 817.389 -1.46805 -0.573248 0
M  V30 8892 C 818.636 -1.52604 -1.3311 0
M  V30 8893 C 818.964 -0.181633 -1.9365 0
M  V30 8894 O 818.219 0.823775 -1.77517 0
M  V30 8895 C 818.518 -2.58001 -2.47326 0
M  V30 8896 C 818.184 -4.01747 -2.04719 0
M  V30 8897 C 816.846 -4.40881 -1.92814 0
M  V30 8898 C 819.198 -4.92008 -1.71982 0
M  V30 8899 C 816.526 -5.68129 -1.46445 0
M  V30 8900 C 818.878 -6.19703 -1.27089 0
M  V30 8901 C 817.542 -6.57733 -1.13768 0
M  V30 8902 H 816.812 -0.558417 -0.487084 0
M  V30 8903 H 819.459 -1.80327 -0.644538 0
M  V30 8904 H 817.764 -2.23974 -3.2147 0
M  V30 8905 H 819.461 -2.59715 -3.05531 0
M  V30 8906 H 816.051 -3.70819 -2.14922 0
M  V30 8907 H 820.235 -4.62485 -1.8006 0
M  V30 8908 H 815.491 -5.96359 -1.34783 0
M  V30 8909 H 819.665 -6.89064 -1.00814 0
M  V30 8910 H 817.292 -7.56228 -0.776142 0
M  V30 8911 N 818.867 0.818669 -1.34668 0
M  V30 8912 C 820.095 1.60674 -1.30351 0
M  V30 8913 C 820.51 1.88408 0.121546 0
M  V30 8914 O 819.867 1.47849 1.06991 0
M  V30 8915 C 819.918 2.94516 -2.09625 0
M  V30 8916 O 819.639 2.6799 -3.46573 0
M  V30 8917 C 821.14 3.8891 -2.12754 0
M  V30 8918 H 818.36 0.499306 -0.448258 0
M  V30 8919 H 820.904 1.01828 -1.77345 0
M  V30 8920 H 819.059 3.49908 -1.66262 0
M  V30 8921 H 819.473 3.53361 -3.87603 0
M  V30 8922 H 820.947 4.79972 -2.72637 0
M  V30 8923 H 821.424 4.24599 -1.12306 0
M  V30 8924 H 822.03 3.39453 -2.56225 0
M  V30 8925 N 820.346 1.18468 1.03938 0
M  V30 8926 C 821.294 0.909286 2.14091 0
M  V30 8927 C 822.288 -0.130928 1.68893 0
M  V30 8928 O 823.494 0.0173403 1.79992 0
M  V30 8929 H 819.869 0.27658 0.699291 0
M  V30 8930 H 821.84 1.84514 2.34515 0
M  V30 8931 C 820.589 0.452922 3.44737 0
M  V30 8932 H 819.912 1.24485 3.79926 0
M  V30 8933 H 821.352 0.299238 4.22943 0
M  V30 8934 C 819.811 -0.831435 3.26479 0
M  V30 8935 O 820.341 -1.89535 3.54174 0
M  V30 8936 N 818.547 -0.784545 2.79809 0
M  V30 8937 H 818.094 0.0814746 2.57471 0
M  V30 8938 H 818.052 -1.64431 2.67973 0
M  V30 8939 N 821.824 -1.22873 0.986916 0
M  V30 8940 C 823.049 -1.96028 0.677341 0
M  V30 8941 C 823.474 -1.72487 -0.750319 0
M  V30 8942 O 822.832 -1.00036 -1.51203 0
M  V30 8943 C 822.88 -3.46983 0.981593 0
M  V30 8944 O 821.984 -4.12328 0.0770729 0
M  V30 8945 H 821.325 -0.613458 0.254096 0
M  V30 8946 H 823.855 -1.56132 1.32227 0
M  V30 8947 H 823.865 -3.9747 0.920969 0
M  V30 8948 H 822.54 -3.63442 2.02194 0
M  V30 8949 H 821.117 -3.72402 0.192666 0
M  V30 8950 N 823.302 -0.75937 -1.38099 0
M  V30 8951 C 824.579 -0.243371 -1.9408 0
M  V30 8952 C 824.959 1.25942 -1.69416 0
M  V30 8953 O 824.307 2.03667 -1.03595 0
M  V30 8954 C 824.517 -0.603328 -3.43745 0
M  V30 8955 C 825.865 -0.566195 -4.20808 0
M  V30 8956 O 826.889 -0.541969 -3.52053 0
M  V30 8957 O 825.748 -0.582261 -5.43389 0
M  V30 8958 H 822.842 -0.0526825 -0.82532 0
M  V30 8959 H 825.388 -0.839884 -1.47459 0
M  V30 8960 H 824.16 -1.64098 -3.55229 0
M  V30 8961 H 823.783 0.0208887 -3.97595 0
M  V30 8962 N 824.78 1.49157 -0.508906 0
M  V30 8963 C 826.028 2.02073 0.0327335 0
M  V30 8964 C 826.349 1.39012 1.3675 0
M  V30 8965 O 825.619 0.548153 1.88075 0
M  V30 8966 H 824.199 0.746848 0.0150864 0
M  V30 8967 H 826.861 1.83097 -0.667946 0
M  V30 8968 H 825.957 3.11707 0.1566 0
M  V30 8969 N 826.258 0.243083 1.55714 0
M  V30 8970 C 827.206 -0.674349 2.2261 0
M  V30 8971 C 828.2 -1.18307 1.21243 0
M  V30 8972 O 829.406 -1.1404 1.39265 0
M  V30 8973 H 825.781 -0.235941 0.714028 0
M  V30 8974 H 827.752 -0.0869446 2.98273 0
M  V30 8975 C 826.501 -1.86206 2.93637 0
M  V30 8976 H 825.824 -1.47975 3.71407 0
M  V30 8977 H 827.264 -2.4813 3.43813 0
M  V30 8978 C 825.723 -2.73084 1.97298 0
M  V30 8979 O 826.253 -3.72497 1.50361 0
M  V30 8980 N 824.459 -2.39571 1.64482 0
M  V30 8981 H 824.006 -1.5878 2.02846 0
M  V30 8982 H 823.964 -2.97976 1.00288 0
M  V30 8983 N 827.736 -1.57571 -0.0300757 0
M  V30 8984 C 829.147 -1.77567 -0.576802 0
M  V30 8985 C 829.498 -0.874034 -1.75656 0
M  V30 8986 O 828.623 -0.0686124 -2.16291 0
M  V30 8987 C 829.218 -3.22016 -1.05315 0
M  V30 8988 C 827.777 -3.43212 -1.5454 0
M  V30 8989 C 826.924 -2.73061 -0.483033 0
M  V30 8990 H 829.875 -1.57483 0.196151 0
M  V30 8991 H 829.896 -3.28474 -1.92055 0
M  V30 8992 H 829.408 -3.87613 -0.194298 0
M  V30 8993 H 827.509 -2.82788 -2.42615 0
M  V30 8994 H 827.622 -4.5182 -1.5936 0
M  V30 8995 H 825.986 -2.36805 -0.937835 0
M  V30 8996 H 826.769 -3.4134 0.366341 0
M  V30 8997 N 829.214 0.302327 -1.54673 0
M  V30 8998 C 830.462 1.03565 -1.73547 0
M  V30 8999 C 830.783 1.87843 -0.523448 0
M  V30 9000 O 830.053 1.90367 0.462295 0
M  V30 9001 H 828.633 0.385358 -0.639928 0
M  V30 9002 H 831.295 0.333632 -1.92023 0
M  V30 9003 H 830.391 1.68952 -2.62415 0
M  V30 9004 N 830.692 1.47107 0.565454 0
M  V30 9005 C 831.917 1.57153 1.35343 0
M  V30 9006 C 832.342 0.219247 1.86818 0
M  V30 9007 O 831.7 -0.803539 1.62521 0
M  V30 9008 C 831.748 2.59387 2.50501 0
M  V30 9009 O 830.852 2.14086 3.52478 0
M  V30 9010 H 830.193 0.528209 0.402357 0
M  V30 9011 H 832.723 1.92821 0.684189 0
M  V30 9012 H 832.733 2.79546 2.97184 0
M  V30 9013 H 831.408 3.57579 2.12391 0
M  V30 9014 H 829.985 2.03991 3.12157 0
M  V30 9015 N 832.17 -0.811516 1.35101 0
M  V30 9016 C 833.586 -1.10634 1.15031 0
M  V30 9017 C 833.786 -2.01459 -0.0405379 0
M  V30 9018 O 832.842 -2.42235 -0.712635 0
M  V30 9019 C 834.155 -1.74207 2.45097 0
M  V30 9020 C 835.703 -1.8665 2.51258 0
M  V30 9021 C 836.178 -2.53638 3.81355 0
M  V30 9022 N 837.669 -2.61128 3.82579 0
M  V30 9023 C 838.404 -3.13717 4.79968 0
M  V30 9024 N 837.9 -3.66782 5.87744 0
M  V30 9025 N 839.693 -3.12224 4.67411 0
M  V30 9026 H 831.844 -0.207641 2.11383 0
M  V30 9027 H 834.107 -0.154697 0.935293 0
M  V30 9028 H 833.813 -1.14936 3.32389 0
M  V30 9029 H 833.687 -2.73958 2.59281 0
M  V30 9030 H 836.074 -2.45066 1.64398 0
M  V30 9031 H 836.155 -0.857678 2.40993 0
M  V30 9032 H 835.799 -1.95873 4.68611 0
M  V30 9033 H 835.729 -3.55047 3.88907 0
M  V30 9034 H 838.22 -2.23527 3.04703 0
M  V30 9035 H 838.533 -4.05194 6.58056 0
M  V30 9036 H 836.878 -3.64994 5.91443 0
M  V30 9037 H 840.069 -2.70042 3.82354 0
M  V30 9038 H 840.242 -3.52903 5.43474 0
M  V30 9039 N 833.648 -1.19017 -1.03309 0
M  V30 9040 C 834.873 -1.01598 -1.80811 0
M  V30 9041 C 835.298 0.430773 -1.83101 0
M  V30 9042 O 834.656 1.30946 -1.25391 0
M  V30 9043 C 834.704 -1.5845 -3.23923 0
M  V30 9044 O 833.808 -0.810972 -4.04348 0
M  V30 9045 H 833.149 -0.359398 -0.558327 0
M  V30 9046 H 835.679 -1.57945 -1.30055 0
M  V30 9047 H 835.689 -1.61486 -3.74682 0
M  V30 9048 H 834.364 -2.63752 -3.21571 0
M  V30 9049 H 832.941 -0.85353 -3.63 0
M  V30 9050 N 835.127 1.22348 -0.993418 0
M  V30 9051 C 836.404 1.86632 -0.585495 0
M  V30 9052 C 836.784 1.89156 0.937187 0
M  V30 9053 O 836.132 1.38247 1.81934 0
M  V30 9054 C 836.342 3.27481 -1.20652 0
M  V30 9055 C 837.69 4.03971 -1.30738 0
M  V30 9056 O 838.714 3.3675 -1.16096 0
M  V30 9057 O 837.573 5.24302 -1.54173 0
M  V30 9058 H 834.667 0.802704 -0.198984 0
M  V30 9059 H 837.213 1.30122 -1.08933 0
M  V30 9060 H 835.985 3.20281 -2.24802 0
M  V30 9061 H 835.608 3.91597 -0.688312 0
M  V30 9062 N 836.605 0.766683 1.37694 0
M  V30 9063 C 837.83 0.338715 2.04615 0
M  V30 9064 C 838.255 -1.02918 1.57447 0
M  V30 9065 O 837.613 -1.65849 0.732386 0
M  V30 9066 C 837.661 0.385284 3.58536 0
M  V30 9067 O 836.765 -0.616081 4.07772 0
M  V30 9068 H 836.106 0.147527 0.647404 0
M  V30 9069 H 838.636 1.04146 1.7611 0
M  V30 9070 H 838.646 0.240782 4.07289 0
M  V30 9071 H 837.321 1.38325 3.92223 0
M  V30 9072 H 835.898 -0.435115 3.70353 0
M  V30 9073 N 838.083 -1.48885 0.516809 0
M  V30 9074 C 839.308 -2.0739 -0.0205201 0
M  V30 9075 C 839.733 -1.37259 -1.28614 0
M  V30 9076 O 839.091 -0.434304 -1.76021 0
M  V30 9077 C 839.139 -3.59793 -0.24104 0
M  V30 9078 O 838.243 -3.90957 -1.31251 0
M  V30 9079 H 837.584 -0.663167 0.0332564 0
M  V30 9080 H 840.114 -1.91477 0.720956 0
M  V30 9081 H 840.124 -4.0531 -0.467737 0
M  V30 9082 H 838.799 -4.10244 0.68356 0
M  V30 9083 H 837.376 -3.57234 -1.06951 0
M  V30 9084 N 839.561 -0.251338 -1.55583 0
M  V30 9085 C 840.524 0.63305 -2.20284 0
M  V30 9086 C 841.524 1.09941 -1.17344 0
M  V30 9087 O 842.714 1.00341 -1.42399 0
M  V30 9088 C 839.846 1.8706 -2.84993 0
M  V30 9089 H 841.039 0.0684846 -2.99822 0
M  V30 9090 H 838.592 -0.00181653 -1.563 0
M  V30 9091 H 839.327 2.47629 -2.09405 0
M  V30 9092 H 839.112 1.54436 -3.60405 0
M  V30 9093 H 840.602 2.50004 -3.34496 0
M  V30 9094 N 841.039 1.57585 0.0217189 0
M  V30 9095 C 842.316 1.80779 0.74687 0
M  V30 9096 C 842.696 0.851163 1.9318 0
M  V30 9097 O 842.044 -0.105039 2.28258 0
M  V30 9098 C 842.254 3.28696 1.17302 0
M  V30 9099 C 843.602 3.93871 1.58589 0
M  V30 9100 O 844.626 3.3289 1.2674 0
M  V30 9101 O 843.485 5.01254 2.1773 0
M  V30 9102 H 840.579 0.743666 0.361786 0
M  V30 9103 H 843.125 1.697 -0.00206785 0
M  V30 9104 H 841.897 3.89927 0.327453 0
M  V30 9105 H 841.52 3.44692 1.98174 0
M  V30 9106 N 842.517 -0.29412 1.54831 0
M  V30 9107 C 843.757 -1.03635 1.76179 0
M  V30 9108 C 844.121 -1.84251 0.539953 0
M  V30 9109 O 845.322 -2.61282 0.631295 0
M  V30 9110 C 843.593 -1.91275 3.01909 0
M  V30 9111 S 845.152 -2.7205 3.44288 0
M  V30 9112 H 841.97 -0.349403 0.619224 0
M  V30 9113 H 844.572 -0.309006 1.93042 0
M  V30 9114 H 843.276 -1.30937 3.88952 0
M  V30 9115 H 842.807 -2.68365 2.87652 0
M  V30 9116 H 844.822 -3.93791 3.01899 0
M  V30 9117 N 843.995 -1.47404 -0.557645 0
M  V30 9118 C 844.927 -1.55917 -1.67995 0
M  V30 9119 C 845.94 -0.445411 -1.56588 0
M  V30 9120 O 847.129 -0.714999 -1.63554 0
M  V30 9121 C 844.229 -1.44697 -3.06457 0
M  V30 9122 C 843.402 -2.70633 -3.43622 0
M  V30 9123 C 842.461 -2.53256 -4.61246 0
M  V30 9124 O 841.487 -3.27068 -4.65849 0
M  V30 9125 N 842.689 -1.61053 -5.57711 0
M  V30 9126 H 845.454 -2.52694 -1.61139 0
M  V30 9127 H 843.015 -1.43778 -0.744271 0
M  V30 9128 H 845.007 -1.30806 -3.82978 0
M  V30 9129 H 843.577 -0.560039 -3.07542 0
M  V30 9130 H 842.797 -2.99288 -2.56555 0
M  V30 9131 H 844.085 -3.5424 -3.65228 0
M  V30 9132 H 843.483 -1.00235 -5.56749 0
M  V30 9133 H 842.04 -1.53115 -6.33561 0
M  V30 9134 N 845.473 0.80434 -1.35529 0
M  V30 9135 C 846.719 1.56328 -1.30127 0
M  V30 9136 C 847.074 1.92008 0.122699 0
M  V30 9137 O 846.367 1.58693 1.07364 0
M  V30 9138 C 846.561 2.85988 -2.14349 0
M  V30 9139 C 846.39 2.62977 -3.64792 0
M  V30 9140 C 845.16 2.58757 -4.34019 0
M  V30 9141 C 847.358 2.332 -4.58391 0
M  V30 9142 N 845.34 2.27487 -5.70195 0
M  V30 9143 C 846.711 2.11788 -5.82706 0
M  V30 9144 C 848.766 2.19082 -4.4711 0
M  V30 9145 C 847.469 1.77688 -6.97008 0
M  V30 9146 C 849.495 1.86378 -5.61264 0
M  V30 9147 C 848.857 1.65804 -6.84608 0
M  V30 9148 H 844.956 0.57368 -0.531428 0
M  V30 9149 H 847.54 0.941313 -1.70433 0
M  V30 9150 H 845.711 3.46077 -1.76311 0
M  V30 9151 H 847.443 3.51571 -2.00449 0
M  V30 9152 H 844.198 2.73484 -3.86656 0
M  V30 9153 H 844.622 2.1464 -6.42074 0
M  V30 9154 H 849.264 2.33686 -3.5235 0
M  V30 9155 H 846.982 1.61822 -7.91732 0
M  V30 9156 H 850.568 1.7616 -5.5449 0
M  V30 9157 H 849.448 1.40868 -7.71444 0
M  V30 9158 N 846.951 1.19563 1.02676 0
M  V30 9159 C 847.881 0.959024 2.12897 0
M  V30 9160 C 848.862 -0.108382 1.69754 0
M  V30 9161 O 850.047 0.0470698 1.94143 0
M  V30 9162 C 847.177 0.499211 3.43693 0
M  V30 9163 C 846.131 1.5087 4.00528 0
M  V30 9164 C 845.457 0.905884 5.2697 0
M  V30 9165 C 846.757 2.88954 4.3509 0
M  V30 9166 H 848.451 1.88084 2.32948 0
M  V30 9167 H 845.997 0.905731 1.11949 0
M  V30 9168 H 847.95 0.320965 4.20176 0
M  V30 9169 H 846.674 -0.458205 3.2337 0
M  V30 9170 H 845.333 1.67413 3.26142 0
M  V30 9171 H 844.981 -0.0591506 5.02965 0
M  V30 9172 H 844.681 1.58 5.65959 0
M  V30 9173 H 846.205 0.73848 6.06118 0
M  V30 9174 H 847.619 2.75981 5.02501 0
M  V30 9175 H 846.016 3.53177 4.85166 0
M  V30 9176 H 847.086 3.41447 3.44299 0
M  V30 9177 N 848.429 -1.21819 0.999893 0
M  V30 9178 C 849.706 -1.86318 0.595384 0
M  V30 9179 C 850.086 -1.8965 -0.927143 0
M  V30 9180 O 849.434 -1.3921 -1.81199 0
M  V30 9181 C 849.644 -3.26837 1.22387 0
M  V30 9182 C 850.992 -4.03272 1.32878 0
M  V30 9183 O 852.016 -3.36129 1.1788 0
M  V30 9184 O 850.875 -5.23477 1.56952 0
M  V30 9185 H 847.969 -0.801638 0.203238 0
M  V30 9186 H 850.515 -1.29542 1.09622 0
M  V30 9187 H 849.287 -3.19084 2.26497 0
M  V30 9188 H 848.91 -3.91226 0.709069 0
M  V30 9189 N 849.908 -0.773975 -1.37286 0
M  V30 9190 C 851.136 -0.350758 -2.03905 0
M  V30 9191 C 851.551 1.02779 -1.58373 0
M  V30 9192 O 850.908 1.65646 -0.766009 0
M  V30 9193 C 850.959 -0.387335 -3.59419 0
M  V30 9194 O 850.68 -1.7115 -4.03286 0
M  V30 9195 C 852.181 0.047198 -4.43275 0
M  V30 9196 H 849.401 -0.146663 -0.654775 0
M  V30 9197 H 851.945 -1.04852 -1.75574 0
M  V30 9198 H 850.1 0.261865 -3.86514 0
M  V30 9199 H 850.514 -1.65166 -4.97816 0
M  V30 9200 H 851.988 -0.0295474 -5.51992 0
M  V30 9201 H 852.465 1.09786 -4.25257 0
M  V30 9202 H 853.071 -0.573899 -4.2141 0
M  V30 9203 N 851.386 1.48609 -0.524698 0
M  V30 9204 C 852.316 2.32366 0.229837 0
M  V30 9205 C 853.297 1.41759 0.940129 0
M  V30 9206 O 854.482 1.7065 0.926936 0
M  V30 9207 C 851.612 3.22835 1.28043 0
M  V30 9208 C 850.566 4.22424 0.688603 0
M  V30 9209 C 849.892 5.0199 1.84146 0
M  V30 9210 C 851.192 5.21217 -0.336176 0
M  V30 9211 H 852.886 2.95698 -0.469339 0
M  V30 9212 H 850.432 1.42197 -0.227156 0
M  V30 9213 H 852.385 3.80253 1.8162 0
M  V30 9214 H 851.109 2.57492 2.00912 0
M  V30 9215 H 849.768 3.66185 0.174402 0
M  V30 9216 H 849.416 4.33076 2.5584 0
M  V30 9217 H 849.116 5.69392 1.45142 0
M  V30 9218 H 850.64 5.62259 2.38111 0
M  V30 9219 H 852.054 5.7319 0.112307 0
M  V30 9220 H 850.451 5.96642 -0.643324 0
M  V30 9221 H 851.521 4.68676 -1.24381 0
M  V30 9222 N 852.864 0.259585 1.55447 0
M  V30 9223 C 854.28 -0.094961 1.59317 0
M  V30 9224 C 854.48 -1.55884 1.2768 0
M  V30 9225 O 853.536 -2.30528 1.0302 0
M  V30 9226 C 854.849 0.265669 2.99524 0
M  V30 9227 C 856.397 0.211007 3.12288 0
M  V30 9228 C 856.872 0.545851 4.54736 0
M  V30 9229 N 858.363 0.496823 4.60528 0
M  V30 9230 C 859.098 0.728909 5.68748 0
M  V30 9231 N 858.594 1.02479 6.85179 0
M  V30 9232 N 860.387 0.658756 5.58226 0
M  V30 9233 H 852.538 1.2141 1.7428 0
M  V30 9234 H 854.801 0.489404 0.811904 0
M  V30 9235 H 854.507 1.28316 3.27457 0
M  V30 9236 H 854.381 -0.401089 3.75061 0
M  V30 9237 H 856.768 -0.797172 2.84129 0
M  V30 9238 H 856.849 0.911799 2.38998 0
M  V30 9239 H 856.493 1.55164 4.83618 0
M  V30 9240 H 856.423 -0.17656 5.26304 0
M  V30 9241 H 858.914 0.277376 3.76881 0
M  V30 9242 H 859.227 1.18897 7.63599 0
M  V30 9243 H 857.572 1.0624 6.86832 0
M  V30 9244 H 860.763 0.427553 4.66143 0
M  V30 9245 H 860.936 0.84302 6.42493 0
M  V30 9246 N 854.342 -1.57594 -0.0133615 0
M  V30 9247 C 855.275 -2.02991 -1.04259 0
M  V30 9248 C 856.253 -0.917193 -1.34262 0
M  V30 9249 O 857.437 -1.18428 -1.46653 0
M  V30 9250 C 854.564 -2.41624 -2.37351 0
M  V30 9251 C 853.61 -3.63495 -2.231 0
M  V30 9252 S 854.443 -5.1198 -1.5696 0
M  V30 9253 C 855.599 -5.5387 -2.91511 0
M  V30 9254 H 855.832 -2.89973 -0.655985 0
M  V30 9255 H 853.365 -1.52769 -0.223827 0
M  V30 9256 H 855.323 -2.64551 -3.13884 0
M  V30 9257 H 853.984 -1.55065 -2.73155 0
M  V30 9258 H 853.177 -3.88233 -3.21389 0
M  V30 9259 H 852.779 -3.405 -1.54711 0
M  V30 9260 H 855.071 -5.55514 -3.87828 0
M  V30 9261 H 856.014 -6.53988 -2.71488 0
M  V30 9262 H 856.422 -4.81404 -2.94806 0
M  V30 9263 N 855.82 0.285905 -1.54985 0
M  V30 9264 C 857.236 0.632405 -1.46536 0
M  V30 9265 C 857.436 1.90074 -0.668888 0
M  V30 9266 O 856.492 2.51839 -0.182586 0
M  V30 9267 C 857.805 0.771361 -2.90638 0
M  V30 9268 C 859.353 0.866262 -3.00774 0
M  V30 9269 C 859.828 1.0371 -4.46103 0
M  V30 9270 N 861.319 1.10294 -4.49877 0
M  V30 9271 C 862.054 1.25369 -5.59527 0
M  V30 9272 N 861.55 1.37246 -6.7907 0
M  V30 9273 N 863.343 1.28377 -5.47244 0
M  V30 9274 H 855.494 -0.547226 -2.0523 0
M  V30 9275 H 857.757 -0.183298 -0.930111 0
M  V30 9276 H 857.463 -0.0899485 -3.51585 0
M  V30 9277 H 857.337 1.65569 -3.3892 0
M  V30 9278 H 859.724 1.71805 -2.39931 0
M  V30 9279 H 859.805 -0.0424049 -2.55765 0
M  V30 9280 H 859.449 0.190021 -5.07544 0
M  V30 9281 H 859.379 1.96022 -4.88757 0
M  V30 9282 H 861.87 1.02407 -3.6376 0
M  V30 9283 H 862.183 1.48546 -7.58389 0
M  V30 9284 H 860.528 1.34274 -6.81906 0
M  V30 9285 H 863.719 1.1872 -4.52795 0
M  V30 9286 H 863.892 1.39782 -6.32744 0
M  V30 9287 N 857.298 1.47698 0.54982 0
M  V30 9288 C 858.23 1.56806 1.67166 0
M  V30 9289 C 859.243 0.453709 1.5635 0
M  V30 9290 O 860.432 0.723663 1.63173 0
M  V30 9291 C 857.532 1.4632 3.05686 0
M  V30 9292 C 856.705 2.72452 3.42182 0
M  V30 9293 C 855.764 2.55698 4.59897 0
M  V30 9294 O 854.79 3.29534 4.64108 0
M  V30 9295 N 855.992 1.64009 5.56849 0
M  V30 9296 H 858.757 2.53545 1.59797 0
M  V30 9297 H 856.318 1.44171 0.736635 0
M  V30 9298 H 858.31 1.32835 3.82279 0
M  V30 9299 H 856.88 0.57634 3.07241 0
M  V30 9300 H 856.1 3.00644 2.54964 0
M  V30 9301 H 857.388 3.56172 3.63344 0
M  V30 9302 H 856.786 1.03186 5.5621 0
M  V30 9303 H 855.343 1.56473 6.3274 0
M  V30 9304 N 858.776 -0.797141 1.35954 0
M  V30 9305 C 860.025 -1.54983 1.29086 0
M  V30 9306 C 860.338 -1.95167 -0.130003 0
M  V30 9307 O 861.544 -2.69596 -0.32101 0
M  V30 9308 C 860 -2.79738 2.26439 0
M  V30 9309 C 859.608 -2.46753 3.73921 0
M  V30 9310 C 861.352 -3.57733 2.28533 0
M  V30 9311 C 859.259 -3.67858 4.63071 0
M  V30 9312 H 858.189 -0.581766 0.479651 0
M  V30 9313 H 860.84 -0.87541 1.61273 0
M  V30 9314 H 859.222 -3.48939 1.87236 0
M  V30 9315 H 860.396 -1.85499 4.21814 0
M  V30 9316 H 858.711 -1.81985 3.74527 0
M  V30 9317 H 861.308 -4.47699 2.92351 0
M  V30 9318 H 861.651 -3.95754 1.29169 0
M  V30 9319 H 862.184 -2.95504 2.66313 0
M  V30 9320 H 858.923 -3.34939 5.63468 0
M  V30 9321 H 858.443 -4.28305 4.19898 0
M  V30 9322 H 860.122 -4.34977 4.78961 0
M  V30 9323 N 860.254 -1.20106 -1.0204 0
M  V30 9324 C 861.217 -0.948261 -2.08664 0
M  V30 9325 C 862.217 0.0746753 -1.60627 0
M  V30 9326 O 863.407 -0.160981 -1.73455 0
M  V30 9327 C 860.539 -0.426854 -3.38217 0
M  V30 9328 H 861.732 -1.894 -2.32524 0
M  V30 9329 H 859.285 -1.0159 -1.18782 0
M  V30 9330 H 860.02 0.524532 -3.2003 0
M  V30 9331 H 859.805 -1.16451 -3.74408 0
M  V30 9332 H 861.295 -0.269346 -4.1673 0
M  V30 9333 N 861.732 1.21287 -1.00634 0
M  V30 9334 C 862.957 1.94925 -0.708441 0
M  V30 9335 C 863.382 1.73659 0.722783 0
M  V30 9336 O 862.74 1.02429 1.49593 0
M  V30 9337 C 862.788 3.45377 -1.03667 0
M  V30 9338 O 861.892 4.12153 -0.142661 0
M  V30 9339 H 861.233 0.609338 -0.263824 0
M  V30 9340 H 863.763 1.54008 -1.34695 0
M  V30 9341 H 863.773 3.95954 -0.984086 0
M  V30 9342 H 862.448 3.6018 -2.0795 0
M  V30 9343 H 861.025 3.72048 -0.251888 0
M  V30 9344 N 863.21 0.781244 1.36873 0
M  V30 9345 C 864.158 0.161889 2.32036 0
M  V30 9346 C 865.152 -0.674225 1.55405 0
M  V30 9347 O 866.358 -0.570223 1.70729 0
M  V30 9348 H 862.733 0.0335702 0.75125 0
M  V30 9349 H 864.704 0.980078 2.81846 0
M  V30 9350 C 863.453 -0.695352 3.40676 0
M  V30 9351 H 862.776 -0.0613425 3.99753 0
M  V30 9352 H 864.216 -1.09553 4.09602 0
M  V30 9353 C 862.675 -1.85008 2.81556 0
M  V30 9354 O 863.205 -2.94616 2.73065 0
M  V30 9355 N 861.411 -1.65364 2.38962 0
M  V30 9356 H 860.958 -0.762106 2.46068 0
M  V30 9357 H 860.916 -2.42789 1.99752 0
M  V30 9358 N 864.689 -1.48329 0.532571 0
M  V30 9359 C 865.917 -2.069 0.00354299 0
M  V30 9360 C 866.332 -1.38876 -1.27902 0
M  V30 9361 O 865.689 -0.477119 -1.76153 0
M  V30 9362 C 865.74 -3.60821 -0.221416 0
M  V30 9363 O 865.461 -4.26291 1.01034 0
M  V30 9364 C 866.962 -4.36194 -0.790531 0
M  V30 9365 H 864.182 -0.670103 0.0346836 0
M  V30 9366 H 866.726 -1.90682 0.738955 0
M  V30 9367 H 864.881 -3.76636 -0.906884 0
M  V30 9368 H 865.295 -5.18475 0.792683 0
M  V30 9369 H 866.769 -5.44657 -0.897347 0
M  V30 9370 H 867.246 -4.00798 -1.79605 0
M  V30 9371 H 867.852 -4.25064 -0.141546 0
M  V30 9372 N 866.167 -0.267825 -1.55308 0
M  V30 9373 C 867.392 0.357487 -2.04296 0
M  V30 9374 C 867.817 1.49222 -1.14518 0
M  V30 9375 O 867.175 1.80741 -0.142292 0
M  V30 9376 C 867.223 0.822899 -3.51085 0
M  V30 9377 O 866.327 1.93078 -3.6441 0
M  V30 9378 H 865.668 0.075025 -0.659748 0
M  V30 9379 H 868.198 -0.399996 -2.00652 0
M  V30 9380 H 868.208 1.12059 -3.92309 0
M  V30 9381 H 866.883 -0.0073562 -4.15899 0
M  V30 9382 H 865.46 1.63618 -3.35087 0
M  V30 9383 N 867.645 1.57599 0.00500368 0
M  V30 9384 C 868.575 2.11143 0.99705 0
M  V30 9385 C 869.556 1.0194 1.3617 0
M  V30 9386 O 870.741 1.29596 1.44632 0
M  V30 9387 C 867.871 2.61062 2.2905 0
M  V30 9388 C 866.825 3.74745 2.0676 0
M  V30 9389 C 866.151 4.10961 3.42075 0
M  V30 9390 C 867.451 5.02222 1.43424 0
M  V30 9391 H 869.145 2.94281 0.551251 0
M  V30 9392 H 866.691 1.41565 0.263715 0
M  V30 9393 H 868.644 2.97146 2.98801 0
M  V30 9394 H 867.368 1.75038 2.75734 0
M  V30 9395 H 866.027 3.39047 1.39436 0
M  V30 9396 H 865.675 3.21968 3.86453 0
M  V30 9397 H 865.375 4.87549 3.27979 0
M  V30 9398 H 866.899 4.49599 4.1315 0
M  V30 9399 H 868.313 5.36109 2.03125 0
M  V30 9400 H 866.71 5.83581 1.39831 0
M  V30 9401 H 867.78 4.83224 0.40285 0
M  V30 9402 N 869.123 -0.277682 1.55134 0
M  V30 9403 C 870.055 -1.36531 1.84098 0
M  V30 9404 C 871.068 -1.45756 0.725194 0
M  V30 9405 O 872.257 -1.47656 1.00299 0
M  V30 9406 C 869.357 -2.74701 1.98476 0
M  V30 9407 C 868.53 -2.88125 3.29094 0
M  V30 9408 C 867.589 -4.0694 3.33596 0
M  V30 9409 O 866.615 -3.9792 4.06999 0
M  V30 9410 N 867.817 -5.18687 2.60661 0
M  V30 9411 H 870.582 -1.12032 2.77973 0
M  V30 9412 H 868.143 -0.467793 1.54995 0
M  V30 9413 H 870.135 -3.52471 1.98863 0
M  V30 9414 H 868.705 -2.92043 1.11488 0
M  V30 9415 H 867.925 -1.97277 3.41285 0
M  V30 9416 H 869.213 -2.94021 4.15246 0
M  V30 9417 H 868.611 -5.28901 2.00699 0
M  V30 9418 H 867.168 -5.94705 2.66776 0
M  V30 9419 N 870.601 -1.47988 -0.541979 0
M  V30 9420 C 872.017 -1.33843 -0.869383 0
M  V30 9421 C 872.217 -0.340374 -1.98604 0
M  V30 9422 O 871.273 0.242696 -2.51331 0
M  V30 9423 C 872.586 -2.73568 -1.24823 0
M  V30 9424 C 874.134 -2.81967 -1.3588 0
M  V30 9425 C 874.609 -4.22368 -1.77114 0
M  V30 9426 N 876.1 -4.24983 -1.84237 0
M  V30 9427 C 876.835 -5.30547 -2.17503 0
M  V30 9428 N 876.331 -6.46401 -2.49275 0
M  V30 9429 N 878.124 -5.17933 -2.18406 0
M  V30 9430 H 870.275 -2.11503 0.195001 0
M  V30 9431 H 872.538 -0.947681 0.0245862 0
M  V30 9432 H 872.244 -3.48107 -0.501435 0
M  V30 9433 H 872.118 -3.06322 -2.20106 0
M  V30 9434 H 874.505 -2.07692 -2.09638 0
M  V30 9435 H 874.586 -2.52848 -0.387478 0
M  V30 9436 H 874.23 -4.97155 -1.0392 0
M  V30 9437 H 874.16 -4.48922 -2.75275 0
M  V30 9438 H 876.651 -3.41411 -1.62009 0
M  V30 9439 H 876.964 -7.22698 -2.73729 0
M  V30 9440 H 875.309 -6.49696 -2.46821 0
M  V30 9441 H 878.5 -4.26445 -1.93034 0
M  V30 9442 H 878.673 -6.00307 -2.44 0
M  V30 9443 N 872.079 0.78992 -1.36375 0
M  V30 9444 C 873.304 1.58389 -1.33895 0
M  V30 9445 C 873.729 1.8794 0.0774934 0
M  V30 9446 O 873.087 1.4785 1.0493 0
M  V30 9447 C 873.135 2.88201 -2.16732 0
M  V30 9448 O 872.239 3.81778 -1.55946 0
M  V30 9449 H 871.58 0.480471 -0.458305 0
M  V30 9450 H 874.11 0.979119 -1.79651 0
M  V30 9451 H 874.12 3.37475 -2.29292 0
M  V30 9452 H 872.795 2.66019 -3.19698 0
M  V30 9453 H 871.372 3.40371 -1.52323 0
M  V30 9454 N 873.557 1.20646 1.01402 0
M  V30 9455 C 874.489 0.915392 2.10127 0
M  V30 9456 C 875.502 -0.0978705 1.62506 0
M  V30 9457 O 876.691 0.133477 1.78 0
M  V30 9458 C 873.791 0.351304 3.37074 0
M  V30 9459 C 872.964 1.41673 4.13821 0
M  V30 9460 C 872.023 0.8635 5.19067 0
M  V30 9461 O 871.049 1.54481 5.47836 0
M  V30 9462 N 872.251 -0.325799 5.79585 0
M  V30 9463 H 875.016 1.85132 2.35682 0
M  V30 9464 H 872.577 1.11048 1.17813 0
M  V30 9465 H 874.569 -0.032996 4.04687 0
M  V30 9466 H 873.139 -0.489242 3.08748 0
M  V30 9467 H 872.359 1.97526 3.41141 0
M  V30 9468 H 873.647 2.1342 4.61876 0
M  V30 9469 H 873.045 -0.896534 5.58551 0
M  V30 9470 H 871.602 -0.651708 6.48534 0
M  V30 9471 N 875.035 -1.20752 1.01276 0
M  V30 9472 C 876.26 -1.94547 0.718769 0
M  V30 9473 C 876.685 -1.7404 -0.713563 0
M  V30 9474 O 876.043 -1.03221 -1.49047 0
M  V30 9475 C 876.091 -3.44823 1.05497 0
M  V30 9476 O 875.195 -4.12072 0.164516 0
M  V30 9477 H 874.536 -0.607931 0.267051 0
M  V30 9478 H 877.066 -1.53292 1.35509 0
M  V30 9479 H 877.076 -3.95427 1.00507 0
M  V30 9480 H 875.751 -3.59072 2.09858 0
M  V30 9481 H 874.328 -3.71909 0.271615 0
M  V30 9482 N 876.513 -0.788492 -1.36457 0
M  V30 9483 C 877.461 -0.174192 -2.31947 0
M  V30 9484 C 878.455 0.665974 -1.5576 0
M  V30 9485 O 879.661 0.561161 -1.71029 0
M  V30 9486 H 876.036 -0.0375538 -0.751062 0
M  V30 9487 H 878.007 -0.995011 -2.81322 0
M  V30 9488 C 876.756 0.677276 -3.4104 0
M  V30 9489 H 876.079 0.0401418 -3.9978 0
M  V30 9490 H 877.519 1.07379 -4.10178 0
M  V30 9491 C 875.978 1.83512 -2.82533 0
M  V30 9492 O 876.508 2.93164 -2.74623 0
M  V30 9493 N 874.714 1.64095 -2.39836 0
M  V30 9494 H 874.261 0.749046 -2.46469 0
M  V30 9495 H 874.219 2.41726 -2.01037 0
M  V30 9496 N 877.991 1.48044 -0.54043 0
M  V30 9497 C 879.402 1.86418 -0.102662 0
M  V30 9498 C 879.753 1.4489 1.32293 0
M  V30 9499 O 878.878 0.844319 1.99249 0
M  V30 9500 C 879.473 3.38324 -0.179533 0
M  V30 9501 C 878.032 3.75852 0.203098 0
M  V30 9502 C 877.179 2.72097 -0.534637 0
M  V30 9503 H 880.13 1.398 -0.751103 0
M  V30 9504 H 880.151 3.75641 0.606147 0
M  V30 9505 H 879.663 3.68518 -1.21721 0
M  V30 9506 H 877.764 3.51272 1.24252 0
M  V30 9507 H 877.877 4.78884 -0.143784 0
M  V30 9508 H 876.241 2.54692 0.0203358 0
M  V30 9509 H 877.024 3.05135 -1.57314 0
M  V30 9510 N 879.47 0.276058 1.55163 0
M  V30 9511 C 880.719 -0.341098 1.98795 0
M  V30 9512 C 881.032 -1.56905 1.16791 0
M  V30 9513 O 882.238 -2.25922 1.50571 0
M  V30 9514 C 880.694 -0.658231 3.5383 0
M  V30 9515 C 880.302 0.549972 4.44611 0
M  V30 9516 C 882.046 -1.23796 4.06048 0
M  V30 9517 C 879.953 0.207373 5.91036 0
M  V30 9518 H 878.883 -0.131224 0.742493 0
M  V30 9519 H 881.534 0.380858 1.79504 0
M  V30 9520 H 879.916 -1.43911 3.68925 0
M  V30 9521 H 881.09 1.32681 4.41285 0
M  V30 9522 H 879.405 1.04661 4.03032 0
M  V30 9523 H 882.002 -1.50811 5.12991 0
M  V30 9524 H 882.345 -2.17214 3.55139 0
M  V30 9525 H 882.878 -0.519345 3.94395 0
M  V30 9526 H 879.617 1.10946 6.46043 0
M  V30 9527 H 879.137 -0.532687 5.9743 0
M  V30 9528 H 880.816 -0.200072 6.46691 0
M  V30 9529 N 880.948 -1.576 0.00335426 0
M  V30 9530 C 881.878 -2.11668 -0.985839 0
M  V30 9531 C 882.859 -1.02661 -1.35627 0
M  V30 9532 O 884.044 -1.30361 -1.43943 0
M  V30 9533 C 881.174 -2.62273 -2.27662 0
M  V30 9534 C 880.128 -3.75837 -2.0477 0
M  V30 9535 C 879.454 -4.12769 -3.39891 0
M  V30 9536 C 880.754 -5.02975 -1.40759 0
M  V30 9537 H 882.448 -2.9457 -0.535637 0
M  V30 9538 H 879.994 -1.41702 -0.256204 0
M  V30 9539 H 881.947 -2.98727 -2.97221 0
M  V30 9540 H 880.671 -1.76498 -2.74802 0
M  V30 9541 H 879.33 -3.39782 -1.37636 0
M  V30 9542 H 878.978 -3.24013 -3.8474 0
M  V30 9543 H 878.678 -4.89281 -3.25389 0
M  V30 9544 H 880.202 -4.51784 -4.1076 0
M  V30 9545 H 881.616 -5.37179 -2.00279 0
M  V30 9546 H 880.013 -5.84315 -1.36734 0
M  V30 9547 H 881.083 -4.83431 -0.377218 0
M  V30 9548 N 882.426 0.269451 -1.5528 0
M  V30 9549 C 883.674 0.998604 -1.75705 0
M  V30 9550 C 883.995 1.86691 -0.563175 0
M  V30 9551 O 883.265 1.91305 0.421811 0
M  V30 9552 H 881.845 0.371698 -0.647958 0
M  V30 9553 H 884.507 0.292826 -1.92688 0
M  V30 9554 H 883.603 1.63348 -2.6594 0
M  V30 9555 N 883.904 1.48273 0.534124 0
M  V30 9556 C 885.129 1.59988 1.31979 0
M  V30 9557 C 885.554 0.258824 1.86311 0
M  V30 9558 O 884.912 -0.768885 1.64188 0
M  V30 9559 C 884.96 2.64642 2.44943 0
M  V30 9560 O 884.064 2.21515 3.47858 0
M  V30 9561 H 883.405 0.536625 0.391063 0
M  V30 9562 H 885.935 1.94229 0.643135 0
M  V30 9563 H 885.945 2.85786 2.91187 0
M  V30 9564 H 884.62 3.62004 2.04758 0
M  V30 9565 H 883.197 2.10567 3.0776 0
M  V30 9566 N 885.382 -0.782676 1.36792 0
M  V30 9567 C 886.793 -1.35828 1.28092 0
M  V30 9568 C 887.144 -1.96052 -0.076315 0
M  V30 9569 O 886.269 -1.93042 -0.977935 0
M  V30 9570 C 886.864 -2.46949 2.31952 0
M  V30 9571 C 885.423 -3.00307 2.2692 0
M  V30 9572 C 884.57 -1.73436 2.16368 0
M  V30 9573 H 887.521 -0.583788 1.47572 0
M  V30 9574 H 887.542 -3.26144 1.95986 0
M  V30 9575 H 887.054 -2.03087 3.30722 0
M  V30 9576 H 885.155 -3.48571 1.31639 0
M  V30 9577 H 885.268 -3.56663 3.19887 0
M  V30 9578 H 883.632 -1.95934 1.62733 0
M  V30 9579 H 884.415 -1.31693 3.17036 0
M  V30 9580 N 886.86 -1.21182 -1.00761 0
M  V30 9581 C 888.107 -1.02746 -1.74498 0
M  V30 9582 C 888.435 0.439344 -1.89473 0
M  V30 9583 O 887.69 1.34232 -1.42409 0
M  V30 9584 C 887.989 -1.6667 -3.16158 0
M  V30 9585 C 887.655 -3.16515 -3.21137 0
M  V30 9586 C 886.317 -3.57405 -3.22203 0
M  V30 9587 C 888.669 -4.12495 -3.18587 0
M  V30 9588 C 885.997 -4.92786 -3.18401 0
M  V30 9589 C 888.349 -5.47833 -3.16326 0
M  V30 9590 C 887.013 -5.88124 -3.157 0
M  V30 9591 H 886.283 -0.375974 -0.638533 0
M  V30 9592 H 888.93 -1.50736 -1.18114 0
M  V30 9593 H 887.235 -1.10966 -3.75758 0
M  V30 9594 H 888.932 -1.49911 -3.71924 0
M  V30 9595 H 885.522 -2.83947 -3.21048 0
M  V30 9596 H 889.706 -3.81932 -3.16925 0
M  V30 9597 H 884.962 -5.23253 -3.16253 0
M  V30 9598 H 889.136 -6.21942 -3.13306 0
M  V30 9599 H 886.763 -6.92995 -3.12508 0
M  V30 9600 N 888.338 1.20213 -1.01915 0
M  V30 9601 C 889.585 1.89647 -0.709955 0
M  V30 9602 C 889.913 1.7901 0.760631 0
M  V30 9603 O 889.168 1.17028 1.56853 0
M  V30 9604 C 889.467 3.40232 -1.09438 0
M  V30 9605 C 889.133 3.7107 -2.5616 0
M  V30 9606 C 887.795 3.79196 -2.96249 0
M  V30 9607 C 890.147 3.85169 -3.51133 0
M  V30 9608 C 887.475 3.98882 -4.30244 0
M  V30 9609 C 889.827 4.06365 -4.8482 0
M  V30 9610 C 888.491 4.12722 -5.24611 0
M  V30 9611 H 887.761 0.693967 -0.259791 0
M  V30 9612 H 890.408 1.42419 -1.2802 0
M  V30 9613 H 888.713 3.89292 -0.442596 0
M  V30 9614 H 890.41 3.92257 -0.832811 0
M  V30 9615 H 887 3.65346 -2.24099 0
M  V30 9616 H 891.184 3.78243 -3.21319 0
M  V30 9617 H 886.44 4.02039 -4.60624 0
M  V30 9618 H 890.614 4.16216 -5.58334 0
M  V30 9619 H 888.241 4.27728 -6.28453 0
M  V30 9620 N 889.816 0.795718 1.36037 0
M  V30 9621 C 891.041 0.38204 2.03851 0
M  V30 9622 C 891.466 -0.995553 1.59594 0
M  V30 9623 O 890.824 -1.64258 0.767401 0
M  V30 9624 C 890.872 0.461248 3.57638 0
M  V30 9625 O 889.976 -0.529448 4.08987 0
M  V30 9626 H 889.317 0.161227 0.644129 0
M  V30 9627 H 891.847 1.07858 1.73861 0
M  V30 9628 H 891.857 0.32712 4.06687 0
M  V30 9629 H 890.532 1.46613 3.89201 0
M  V30 9630 H 889.109 -0.35646 3.71192 0
M  V30 9631 N 891.294 -1.47756 0.548274 0
M  V30 9632 C 892.244 -2.26891 -0.224628 0
M  V30 9633 C 893.228 -1.33816 -0.893421 0
M  V30 9634 O 894.42 -1.58232 -0.793204 0
M  V30 9635 C 891.549 -3.19358 -1.25959 0
M  V30 9636 C 890.635 -4.1991 -0.594662 0
M  V30 9637 N 891.026 -5.04721 0.330148 0
M  V30 9638 C 889.324 -4.37832 -0.849672 0
M  V30 9639 C 890.025 -5.77282 0.71553 0
M  V30 9640 N 889.001 -5.43552 0.0723997 0
M  V30 9641 H 892.803 -2.89844 0.486561 0
M  V30 9642 H 890.317 -1.58185 0.367577 0
M  V30 9643 H 892.314 -3.74726 -1.82718 0
M  V30 9644 H 890.974 -2.57961 -1.97196 0
M  V30 9645 H 891.985 -5.13095 0.703811 0
M  V30 9646 H 888.662 -3.87612 -1.55123 0
M  V30 9647 H 890.052 -6.55512 1.47493 0
M  V30 9648 N 892.772 -0.284283 -1.55015 0
M  V30 9649 C 894.019 0.329864 -1.99795 0
M  V30 9650 C 894.347 1.55171 -1.1727 0
M  V30 9651 O 893.602 1.94312 -0.232667 0
M  V30 9652 C 893.901 0.747219 -3.49502 0
M  V30 9653 C 893.567 -0.37101 -4.49371 0
M  V30 9654 C 892.229 -0.678034 -4.76399 0
M  V30 9655 C 894.581 -1.12406 -5.08935 0
M  V30 9656 C 891.909 -1.74152 -5.60257 0
M  V30 9657 C 894.261 -2.17734 -5.93948 0
M  V30 9658 C 892.925 -2.49061 -6.19294 0
M  V30 9659 H 892.195 0.120706 -0.731103 0
M  V30 9660 H 894.842 -0.399904 -1.87278 0
M  V30 9661 H 893.147 1.55681 -3.59542 0
M  V30 9662 H 894.844 1.2333 -3.81563 0
M  V30 9663 H 891.434 -0.1216 -4.28427 0
M  V30 9664 H 895.618 -0.900119 -4.88069 0
M  V30 9665 H 890.874 -1.98915 -5.78137 0
M  V30 9666 H 895.048 -2.76553 -6.39133 0
M  V30 9667 H 892.675 -3.31602 -6.84064 0
M  V30 9668 N 894.251 1.57596 -0.0117121 0
M  V30 9669 C 895.528 1.82323 0.708356 0
M  V30 9670 C 895.908 0.891947 1.91331 0
M  V30 9671 O 895.256 -0.0565984 2.2843 0
M  V30 9672 C 895.466 3.31111 1.10303 0
M  V30 9673 C 896.814 3.97147 1.50199 0
M  V30 9674 O 897.838 3.35503 1.1965 0
M  V30 9675 O 896.697 5.0576 2.07049 0
M  V30 9676 H 893.791 0.751173 0.345931 0
M  V30 9677 H 896.337 1.69657 -0.0380632 0
M  V30 9678 H 895.109 3.90534 0.24467 0
M  V30 9679 H 894.732 3.48818 1.90818 0
M  V30 9680 N 895.729 -0.261212 1.5542 0
M  V30 9681 C 896.977 -0.989272 1.76232 0
M  V30 9682 C 897.298 -1.86389 0.573067 0
M  V30 9683 O 896.568 -1.91526 -0.41166 0
M  V30 9684 H 895.148 -0.368256 0.64992 0
M  V30 9685 H 897.81 -0.282603 1.9284 0
M  V30 9686 H 896.906 -1.61935 2.66802 0
M  V30 9687 N 897.207 -1.48554 -0.526253 0
M  V30 9688 C 898.139 -1.59446 -1.6465 0
M  V30 9689 C 899.152 -0.478525 -1.55608 0
M  V30 9690 O 900.341 -0.74953 -1.62001 0
M  V30 9691 C 897.441 -1.51164 -3.03319 0
M  V30 9692 C 896.614 -2.77861 -3.37805 0
M  V30 9693 C 895.673 -2.62982 -4.5577 0
M  V30 9694 O 894.699 -3.36876 -4.58806 0
M  V30 9695 N 895.901 -1.72847 -5.5417 0
M  V30 9696 H 898.666 -2.56055 -1.55743 0
M  V30 9697 H 896.227 -1.45325 -0.713606 0
M  V30 9698 H 898.219 -1.389 -3.80117 0
M  V30 9699 H 896.789 -0.625147 -3.06285 0
M  V30 9700 H 896.009 -3.04663 -2.50149 0
M  V30 9701 H 897.297 -3.61908 -3.57632 0
M  V30 9702 H 896.695 -1.12022 -5.54498 0
M  V30 9703 H 895.252 -1.6652 -6.3017 0
M  V30 9704 N 898.685 0.775411 -1.37205 0
M  V30 9705 C 899.962 1.5229 -1.22748 0
M  V30 9706 C 900.342 2.10327 0.180487 0
M  V30 9707 O 899.69 1.95206 1.18772 0
M  V30 9708 C 899.9 2.60671 -2.3206 0
M  V30 9709 C 901.248 3.28173 -2.6942 0
M  V30 9710 O 902.272 2.70963 -2.31208 0
M  V30 9711 O 901.131 4.31598 -3.3524 0
M  V30 9712 H 898.225 0.674326 -0.478762 0
M  V30 9713 H 900.771 0.812691 -1.48975 0
M  V30 9714 H 899.543 2.1588 -3.26361 0
M  V30 9715 H 899.166 3.39296 -2.07277 0
M  V30 9716 N 900.163 1.21714 1.00117 0
M  V30 9717 C 901.388 1.06357 1.78054 0
M  V30 9718 C 901.813 -0.382075 1.84179 0
M  V30 9719 O 901.171 -1.27575 1.28819 0
M  V30 9720 C 901.219 1.66982 3.19608 0
M  V30 9721 O 900.323 0.917892 4.02055 0
M  V30 9722 H 899.664 0.374074 0.548602 0
M  V30 9723 H 902.194 1.61338 1.25822 0
M  V30 9724 H 902.204 1.71363 3.70268 0
M  V30 9725 H 900.879 2.72185 3.14465 0
M  V30 9726 H 899.456 0.949473 3.6061 0
M  V30 9727 N 901.641 -1.19671 1.02551 0
M  V30 9728 C 902.871 -1.92952 0.738441 0
M  V30 9729 C 903.279 -1.75528 -0.706155 0
M  V30 9730 O 902.622 -1.0723 -1.49156 0
M  V30 9731 C 902.684 -3.45149 1.00562 0
M  V30 9732 C 902.348 -3.86341 2.44109 0
M  V30 9733 C 903.345 -3.91374 3.42231 0
M  V30 9734 C 901.03 -4.18076 2.7842 0
M  V30 9735 C 903.024 -4.27568 4.7272 0
M  V30 9736 C 900.711 -4.53943 4.0912 0
M  V30 9737 C 901.709 -4.58663 5.06081 0
M  V30 9738 O 901.397 -4.93701 6.3444 0
M  V30 9739 H 901.129 -0.619836 0.269776 0
M  V30 9740 H 903.683 -1.52852 1.37206 0
M  V30 9741 H 901.913 -3.85416 0.314849 0
M  V30 9742 H 903.602 -3.99664 0.708742 0
M  V30 9743 H 904.368 -3.67011 3.17061 0
M  V30 9744 H 900.247 -4.13589 2.03631 0
M  V30 9745 H 903.791 -4.31166 5.48399 0
M  V30 9746 H 899.688 -4.77764 4.34064 0
M  V30 9747 H 900.456 -5.11662 6.38862 0
M  V30 9748 N 903.119 -0.802921 -1.35613 0
M  V30 9749 C 904.082 -0.216422 -2.28176 0
M  V30 9750 C 905.082 0.594101 -1.49422 0
M  V30 9751 O 906.272 0.41312 -1.6923 0
M  V30 9752 C 903.404 0.698746 -3.33662 0
M  V30 9753 H 904.597 -1.03276 -2.81557 0
M  V30 9754 H 902.15 -0.573307 -1.45406 0
M  V30 9755 H 902.885 1.53891 -2.85461 0
M  V30 9756 H 902.67 0.119314 -3.91918 0
M  V30 9757 H 904.16 1.10354 -4.02755 0
M  V30 9758 N 904.597 1.47463 -0.556102 0
M  V30 9759 C 905.56 2.28478 0.181743 0
M  V30 9760 C 906.56 1.36886 0.843738 0
M  V30 9761 O 907.75 1.59527 0.69977 0
M  V30 9762 C 904.882 3.16534 1.26566 0
M  V30 9763 H 906.075 2.95182 -0.529892 0
M  V30 9764 H 903.628 1.53134 -0.313005 0
M  V30 9765 H 904.363 2.5452 2.00973 0
M  V30 9766 H 904.148 3.83939 0.795798 0
M  V30 9767 H 905.638 3.77579 1.78393 0
M  V30 9768 N 906.075 0.2925 1.54862 0
M  V30 9769 C 907.038 -0.574423 2.21885 0
M  V30 9770 C 908.038 -1.06791 1.20218 0
M  V30 9771 O 909.228 -0.9653 1.45009 0
M  V30 9772 C 906.36 -1.79438 2.89853 0
M  V30 9773 H 907.553 0.0110319 2.99898 0
M  V30 9774 H 905.106 0.043256 1.5624 0
M  V30 9775 H 905.841 -2.4199 2.15897 0
M  V30 9776 H 905.626 -1.44827 3.64373 0
M  V30 9777 H 907.116 -2.41048 3.41007 0
M  V30 9778 N 907.553 -1.57587 0.0200696 0
M  V30 9779 C 908.799 -1.91708 -0.661503 0
M  V30 9780 C 909.132 -0.895968 -1.72296 0
M  V30 9781 O 908.407 0.082577 -1.94325 0
M  V30 9782 C 908.69 -3.36344 -1.28627 0
M  V30 9783 C 908.543 -4.49186 -0.234982 0
M  V30 9784 C 909.862 -3.80771 -2.20685 0
M  V30 9785 H 906.981 -0.69717 -0.239005 0
M  V30 9786 H 909.623 -1.8985 0.0754764 0
M  V30 9787 H 907.773 -3.38058 -1.91439 0
M  V30 9788 H 909.445 -4.59606 0.395011 0
M  V30 9789 H 907.688 -4.31557 0.440565 0
M  V30 9790 H 908.359 -5.47395 -0.711558 0
M  V30 9791 H 910.835 -3.80735 -1.67868 0
M  V30 9792 H 909.711 -4.82685 -2.61356 0
M  V30 9793 H 909.972 -3.15764 -3.09428 0
M  V30 9794 N 909.032 0.252966 -1.55557 0
M  V30 9795 C 910.448 0.60118 -1.47844 0
M  V30 9796 C 910.648 1.88612 -0.709055 0
M  V30 9797 O 909.704 2.51395 -0.235964 0
M  V30 9798 C 911.017 0.709539 -2.92209 0
M  V30 9799 C 912.565 0.802269 -3.02544 0
M  V30 9800 C 913.04 0.94224 -4.48203 0
M  V30 9801 N 914.531 1.00726 -4.52116 0
M  V30 9802 C 915.266 1.13472 -5.6206 0
M  V30 9803 N 914.762 1.22811 -6.81828 0
M  V30 9804 N 916.555 1.1674 -5.49844 0
M  V30 9805 H 908.706 -0.590635 -2.04023 0
M  V30 9806 H 910.969 -0.202986 -0.926013 0
M  V30 9807 H 910.675 -0.164505 -3.51315 0
M  V30 9808 H 910.549 1.58343 -3.42356 0
M  V30 9809 H 912.936 1.66677 -2.43522 0
M  V30 9810 H 913.017 -0.0966469 -2.55617 0
M  V30 9811 H 912.661 0.0823209 -5.07833 0
M  V30 9812 H 912.591 1.85611 -4.92805 0
M  V30 9813 H 915.082 0.946684 -3.6585 0
M  V30 9814 H 915.395 1.32426 -7.61369 0
M  V30 9815 H 913.74 1.19779 -6.84601 0
M  V30 9816 H 916.931 1.09089 -4.55211 0
M  V30 9817 H 917.104 1.26329 -6.35567 0
M  V30 9818 N 910.51 1.48831 0.518367 0
M  V30 9819 C 911.926 1.35209 0.847979 0
M  V30 9820 C 912.126 0.371927 1.98038 0
M  V30 9821 O 911.182 -0.202681 2.51685 0
M  V30 9822 C 912.495 2.7552 1.20455 0
M  V30 9823 C 914.043 2.84094 1.31377 0
M  V30 9824 C 914.518 4.25132 1.70372 0
M  V30 9825 N 916.009 4.27861 1.77453 0
M  V30 9826 C 916.744 5.3394 2.09035 0
M  V30 9827 N 916.24 6.50285 2.3896 0
M  V30 9828 N 918.033 5.21343 2.10139 0
M  V30 9829 H 910.184 2.11166 -0.228624 0
M  V30 9830 H 912.447 0.94717 -0.0396599 0
M  V30 9831 H 912.153 3.48861 0.445991 0
M  V30 9832 H 912.027 3.09785 2.15204 0
M  V30 9833 H 914.414 2.11001 2.06307 0
M  V30 9834 H 914.495 2.53433 0.347203 0
M  V30 9835 H 914.139 4.98745 0.959975 0
M  V30 9836 H 914.069 4.53245 2.68098 0
M  V30 9837 H 916.56 3.43945 1.56557 0
M  V30 9838 H 916.873 7.26961 2.62196 0
M  V30 9839 H 915.218 6.5354 2.36454 0
M  V30 9840 H 918.409 4.29462 1.86225 0
M  V30 9841 H 918.582 6.04112 2.34419 0
M  V30 9842 N 911.988 -0.768124 1.37614 0
M  V30 9843 C 913.399 -1.34462 1.29525 0
M  V30 9844 C 913.75 -1.96121 -0.0555168 0
M  V30 9845 O 912.875 -1.94069 -0.957406 0
M  V30 9846 C 913.47 -2.44475 2.34558 0
M  V30 9847 C 912.029 -2.97883 2.30093 0
M  V30 9848 C 911.176 -1.71131 2.18196 0
M  V30 9849 H 914.127 -0.568103 1.48183 0
M  V30 9850 H 914.148 -3.24047 1.99434 0
M  V30 9851 H 913.66 -1.99568 3.32858 0
M  V30 9852 H 911.761 -3.47156 1.35328 0
M  V30 9853 H 911.874 -3.53251 3.23652 0
M  V30 9854 H 910.238 -1.94197 1.64802 0
M  V30 9855 H 911.021 -1.28323 3.18415 0
M  V30 9856 N 913.466 -1.22244 -0.994698 0
M  V30 9857 C 914.398 -0.948706 -2.08644 0
M  V30 9858 C 915.411 0.0720049 -1.62641 0
M  V30 9859 O 916.6 -0.161778 -1.77765 0
M  V30 9860 C 913.7 -0.404885 -3.36473 0
M  V30 9861 C 912.873 -1.48239 -4.11514 0
M  V30 9862 C 911.932 -0.94597 -5.17627 0
M  V30 9863 O 910.958 -1.63177 -5.45309 0
M  V30 9864 N 912.16 0.23355 -5.8003 0
M  V30 9865 H 914.925 -1.88858 -2.32707 0
M  V30 9866 H 912.486 -1.12908 -1.16032 0
M  V30 9867 H 914.478 -0.0313903 -4.04688 0
M  V30 9868 H 913.048 0.440061 -3.09487 0
M  V30 9869 H 912.268 -2.02928 -3.37955 0
M  V30 9870 H 913.556 -2.20741 -4.58422 0
M  V30 9871 H 912.954 0.80756 -5.59906 0
M  V30 9872 H 911.511 0.54845 -6.49488 0
M  V30 9873 N 914.944 1.19125 -1.03184 0
M  V30 9874 C 916.19 1.89163 -0.731111 0
M  V30 9875 C 916.523 1.79604 0.738662 0
M  V30 9876 O 915.798 1.19037 1.53819 0
M  V30 9877 C 916.081 3.39986 -1.18666 0
M  V30 9878 C 915.934 3.58401 -2.71788 0
M  V30 9879 C 917.253 4.33316 -0.769772 0
M  V30 9880 H 914.372 0.686908 -0.267069 0
M  V30 9881 H 917.014 1.40205 -1.28229 0
M  V30 9882 H 915.164 3.81813 -0.717736 0
M  V30 9883 H 916.836 3.25727 -3.26649 0
M  V30 9884 H 915.079 3.01355 -3.12038 0
M  V30 9885 H 915.75 4.64189 -2.98719 0
M  V30 9886 H 918.226 3.9922 -1.17314 0
M  V30 9887 H 917.102 5.37427 -1.11637 0
M  V30 9888 H 917.363 4.40884 0.327681 0
M  V30 9889 N 916.422 0.810101 1.35185 0
M  V30 9890 C 917.833 0.452616 1.81131 0
M  V30 9891 C 918.184 -1.02573 1.67252 0
M  V30 9892 O 917.309 -1.79735 1.20516 0
M  V30 9893 C 917.904 0.814775 3.28857 0
M  V30 9894 C 916.463 0.509839 3.72931 0
M  V30 9895 C 915.61 1.03852 2.57119 0
M  V30 9896 H 918.561 1.00143 1.23114 0
M  V30 9897 H 918.582 0.113635 3.8033 0
M  V30 9898 H 918.094 1.89078 3.38926 0
M  V30 9899 H 916.195 -0.557289 3.68409 0
M  V30 9900 H 916.308 1.04493 4.67566 0
M  V30 9901 H 914.672 0.460671 2.50499 0
M  V30 9902 H 915.455 2.12071 2.69964 0
M  V30 9903 N 917.9 -1.47166 0.563914 0
M  V30 9904 C 919.149 -2.0166 0.0401871 0
M  V30 9905 C 919.462 -1.44303 -1.32046 0
M  V30 9906 O 920.668 -1.905 -1.93448 0
M  V30 9907 C 919.124 -3.59894 0.0213257 0
M  V30 9908 C 918.732 -4.26244 1.37914 0
M  V30 9909 C 920.476 -4.22114 -0.449442 0
M  V30 9910 C 918.383 -5.76503 1.31902 0
M  V30 9911 H 917.313 -0.753916 0.0112534 0
M  V30 9912 H 919.964 -1.69091 0.712766 0
M  V30 9913 H 918.346 -3.89454 -0.717038 0
M  V30 9914 H 919.52 -4.08317 2.13574 0
M  V30 9915 H 917.835 -3.76039 1.78839 0
M  V30 9916 H 920.432 -5.32234 -0.51292 0
M  V30 9917 H 920.775 -3.89749 -1.46291 0
M  V30 9918 H 921.308 -3.9711 0.23427 0
M  V30 9919 H 918.047 -6.13498 2.3087 0
M  V30 9920 H 917.567 -5.96748 0.604324 0
M  V30 9921 H 919.246 -6.38846 1.02392 0
M  V30 9922 N 919.378 -0.300708 -1.54705 0
M  V30 9923 C 920.325 0.57552 -2.23509 0
M  V30 9924 C 921.295 1.12979 -1.21758 0
M  V30 9925 O 922.48 1.17437 -1.50377 0
M  V30 9926 C 919.62 1.74167 -2.97926 0
M  V30 9927 C 918.733 1.21882 -4.1445 0
M  V30 9928 C 917.868 2.34881 -4.7645 0
M  V30 9929 C 916.907 1.79729 -5.85119 0
M  V30 9930 N 916.044 2.863 -6.41075 0
M  V30 9931 H 920.884 -0.0178257 -2.97995 0
M  V30 9932 H 918.421 -0.0205666 -1.47086 0
M  V30 9933 H 920.379 2.42753 -3.39303 0
M  V30 9934 H 919.009 2.30665 -2.25817 0
M  V30 9935 H 918.061 0.425227 -3.78016 0
M  V30 9936 H 919.373 0.775065 -4.92741 0
M  V30 9937 H 918.527 3.11415 -5.20678 0
M  V30 9938 H 917.266 2.82584 -3.97489 0
M  V30 9939 H 916.271 1.01684 -5.40315 0
M  V30 9940 H 917.496 1.32931 -6.65963 0
M  V30 9941 H 915.442 3.33337 -5.64998 0
M  V30 9942 H 915.359 2.46419 -7.14712 0
M  V30 9943 H 916.627 3.62732 -6.89961 0
M  V30 9944 N 920.856 1.57574 -0.0284266 0
M  V30 9945 C 922.086 1.95787 0.659617 0
M  V30 9946 C 922.494 0.903475 1.66235 0
M  V30 9947 O 921.837 -0.12329 1.83286 0
M  V30 9948 C 921.899 3.30139 1.42298 0
M  V30 9949 C 921.563 4.53322 0.578658 0
M  V30 9950 C 922.56 5.19696 -0.145751 0
M  V30 9951 C 920.245 4.9964 0.516264 0
M  V30 9952 C 922.239 6.30708 -0.921235 0
M  V30 9953 C 919.926 6.10534 -0.262925 0
M  V30 9954 C 920.924 6.75927 -0.980382 0
M  V30 9955 O 920.612 7.84692 -1.7468 0
M  V30 9956 H 920.344 0.649681 0.186792 0
M  V30 9957 H 922.898 2.05227 -0.0842687 0
M  V30 9958 H 921.128 3.17188 2.21199 0
M  V30 9959 H 922.817 3.53259 1.99906 0
M  V30 9960 H 923.583 4.84882 -0.106876 0
M  V30 9961 H 919.462 4.48547 1.06427 0
M  V30 9962 H 923.006 6.81682 -1.48176 0
M  V30 9963 H 918.903 6.44786 -0.303519 0
M  V30 9964 H 919.671 8.01355 -1.6665 0
M  V30 9965 N 922.334 -0.244713 1.55689 0
M  V30 9966 C 923.266 -1.32595 1.86952 0
M  V30 9967 C 924.279 -1.44185 0.755948 0
M  V30 9968 O 925.468 -1.45496 1.03408 0
M  V30 9969 C 922.568 -2.70429 2.04258 0
M  V30 9970 C 921.741 -2.8108 3.35131 0
M  V30 9971 C 920.8 -3.99773 3.42152 0
M  V30 9972 O 919.826 -3.89197 4.15348 0
M  V30 9973 N 921.028 -5.13041 2.71604 0
M  V30 9974 H 923.793 -1.06111 2.80287 0
M  V30 9975 H 921.354 -0.434811 1.55952 0
M  V30 9976 H 923.346 -3.48173 2.06295 0
M  V30 9977 H 921.916 -2.89612 1.17658 0
M  V30 9978 H 921.136 -1.89994 3.45392 0
M  V30 9979 H 922.424 -2.85147 4.21389 0
M  V30 9980 H 921.822 -5.24525 2.11872 0
M  V30 9981 H 920.379 -5.88912 2.79331 0
M  V30 9982 N 923.813 -1.49104 -0.510467 0
M  V30 9983 C 924.745 -1.61183 -1.6295 0
M  V30 9984 C 925.758 -0.495003 -1.55092 0
M  V30 9985 O 926.947 -0.766671 -1.61197 0
M  V30 9986 C 924.047 -1.54373 -3.01699 0
M  V30 9987 C 923.22 -2.81428 -3.34838 0
M  V30 9988 C 922.279 -2.67802 -4.52956 0
M  V30 9989 O 921.305 -3.41723 -4.55208 0
M  V30 9990 N 922.507 -1.78715 -5.52305 0
M  V30 9991 H 925.272 -2.57693 -1.53018 0
M  V30 9992 H 922.833 -1.46073 -0.698152 0
M  V30 9993 H 924.825 -1.42924 -3.78622 0
M  V30 9994 H 923.395 -0.657597 -3.05605 0
M  V30 9995 H 922.615 -3.07299 -2.46903 0
M  V30 9996 H 923.903 -3.6568 -3.53773 0
M  V30 9997 H 923.301 -1.17897 -5.53278 0
M  V30 9998 H 921.858 -1.73194 -6.28369 0
M  V30 9999 N 925.291 0.760815 -1.38019 0
M  V30 10000 C 926.54 1.51506 -1.3315 0
M  V30 10001 C 926.853 1.95444 0.0782124 0
M  V30 10002 O 928.059 2.70352 0.249418 0
M  V30 10003 C 926.515 2.73636 -2.33776 0
M  V30 10004 C 926.123 2.36753 -3.80332 0
M  V30 10005 C 927.867 3.51548 -2.37937 0
M  V30 10006 C 925.774 3.55451 -4.72661 0
M  V30 10007 H 924.704 0.568844 -0.494907 0
M  V30 10008 H 927.355 0.832343 -1.63537 0
M  V30 10009 H 925.737 3.43852 -1.96422 0
M  V30 10010 H 926.911 1.7425 -4.26584 0
M  V30 10011 H 925.226 1.71991 -3.7922 0
M  V30 10012 H 927.823 4.39791 -3.04119 0
M  V30 10013 H 928.166 3.9219 -1.39617 0
M  V30 10014 H 928.699 2.88339 -2.74054 0
M  V30 10015 H 925.438 3.19882 -5.7215 0
M  V30 10016 H 924.958 4.17022 -4.31107 0
M  V30 10017 H 926.637 4.22125 -4.90326 0
M  V30 10018 N 926.769 1.22769 0.988202 0
M  V30 10019 C 927.997 1.08155 1.76381 0
M  V30 10020 C 928.412 -0.367573 1.85187 0
M  V30 10021 O 927.769 -1.25455 1.32541 0
M  V30 10022 C 927.82 1.69193 3.19462 0
M  V30 10023 O 927.541 3.08437 3.11125 0
M  V30 10024 C 929.042 1.59915 4.13451 0
M  V30 10025 H 926.262 0.378908 0.553778 0
M  V30 10026 H 928.806 1.6246 1.24206 0
M  V30 10027 H 926.961 1.18939 3.6869 0
M  V30 10028 H 927.375 3.37916 4.0114 0
M  V30 10029 H 928.849 2.07339 5.1158 0
M  V30 10030 H 929.326 0.556546 4.3566 0
M  V30 10031 H 929.932 2.09497 3.70123 0
M  V30 10032 N 928.247 -1.18576 1.03814 0
M  V30 10033 C 929.658 -1.70159 0.768299 0
M  V30 10034 C 930.009 -1.8286 -0.711106 0
M  V30 10035 O 929.134 -1.5063 -1.55369 0
M  V30 10036 C 929.729 -3.09062 1.38804 0
M  V30 10037 C 928.288 -3.57866 1.16656 0
M  V30 10038 C 927.435 -2.34484 1.48029 0
M  V30 10039 H 930.386 -1.03287 1.20488 0
M  V30 10040 H 930.407 -3.72211 0.7899 0
M  V30 10041 H 929.919 -2.99785 2.46476 0
M  V30 10042 H 928.02 -3.72442 0.108471 0
M  V30 10043 H 928.133 -4.41445 1.8618 0
M  V30 10044 H 926.497 -2.38273 0.899902 0
M  V30 10045 H 927.28 -2.27829 2.56805 0
M  V30 10046 N 929.725 -0.817259 -1.34754 0
M  V30 10047 C 930.971 -0.403244 -1.98751 0
M  V30 10048 C 931.304 1.02963 -1.64658 0
M  V30 10049 O 930.579 1.71617 -0.915314 0
M  V30 10050 C 930.862 -0.599188 -3.5508 0
M  V30 10051 C 930.715 -2.07777 -3.98934 0
M  V30 10052 C 932.034 -0.0315656 -4.40089 0
M  V30 10053 H 929.153 -0.147988 -0.721989 0
M  V30 10054 H 931.795 -1.02877 -1.59738 0
M  V30 10055 H 929.945 -0.0667116 -3.88443 0
M  V30 10056 H 931.617 -2.67345 -3.75931 0
M  V30 10057 H 929.86 -2.57031 -3.49453 0
M  V30 10058 H 930.531 -2.16571 -5.07741 0
M  V30 10059 H 933.007 -0.48644 -4.13247 0
M  V30 10060 H 931.883 -0.198507 -5.48541 0
M  V30 10061 H 932.144 1.06302 -4.2913 0
M  V30 10062 N 931.203 1.46865 -0.571711 0
M  V30 10063 C 932.151 2.31897 0.180714 0
M  V30 10064 C 933.145 1.43815 0.895191 0
M  V30 10065 O 934.351 1.60501 0.814828 0
M  V30 10066 H 930.726 0.748032 0.077148 0
M  V30 10067 H 932.697 2.93185 -0.555432 0
M  V30 10068 C 931.446 3.26766 1.18824 0
M  V30 10069 H 930.769 3.94515 0.64789 0
M  V30 10070 H 932.209 3.89067 1.68532 0
M  V30 10071 C 930.668 2.51325 2.2436 0
M  V30 10072 O 931.198 2.26825 3.31532 0
M  V30 10073 N 929.404 2.12079 1.98673 0
M  V30 10074 H 928.951 2.32204 1.1153 0
M  V30 10075 H 928.909 1.61921 2.69498 0
M  V30 10076 N 932.681 0.308908 1.54543 0
M  V30 10077 C 933.613 -0.597453 2.21276 0
M  V30 10078 C 934.626 -1.09137 1.20801 0
M  V30 10079 O 935.815 -1.00747 1.47351 0
M  V30 10080 C 932.915 -1.83085 2.85189 0
M  V30 10081 C 932.088 -1.4781 4.11669 0
M  V30 10082 C 931.147 -2.56748 4.59311 0
M  V30 10083 O 930.173 -2.21507 5.24331 0
M  V30 10084 N 931.375 -3.87427 4.32297 0
M  V30 10085 H 934.14 -0.0261183 2.99689 0
M  V30 10086 H 931.701 0.131456 1.61365 0
M  V30 10087 H 933.693 -2.55326 3.13992 0
M  V30 10088 H 932.263 -2.31039 2.1057 0
M  V30 10089 H 931.483 -0.587974 3.8979 0
M  V30 10090 H 932.771 -1.2179 4.94009 0
M  V30 10091 H 932.169 -4.18863 3.80224 0
M  V30 10092 H 930.726 -4.55942 4.6579 0
M  V30 10093 N 934.159 -1.57557 0.0367827 0
M  V30 10094 C 935.384 -1.96828 -0.653707 0
M  V30 10095 C 935.809 -0.913559 -1.64425 0
M  V30 10096 O 935.167 0.124749 -1.8087 0
M  V30 10097 C 935.215 -3.35189 -1.32969 0
M  V30 10098 O 934.319 -3.32095 -2.44513 0
M  V30 10099 H 933.66 -0.64157 -0.171124 0
M  V30 10100 H 936.19 -2.04351 0.100912 0
M  V30 10101 H 936.2 -3.71593 -1.68472 0
M  V30 10102 H 934.875 -4.11496 -0.603654 0
M  V30 10103 H 933.452 -3.07418 -2.11065 0
M  V30 10104 N 935.637 0.236453 -1.55816 0
M  V30 10105 C 937.053 0.585465 -1.48474 0
M  V30 10106 C 937.253 1.8785 -0.72902 0
M  V30 10107 O 936.309 2.51131 -0.262614 0
M  V30 10108 C 937.622 0.678506 -2.92945 0
M  V30 10109 C 939.17 0.770135 -3.03378 0
M  V30 10110 C 939.645 0.894649 -4.49177 0
M  V30 10111 N 941.136 0.959253 -4.53158 0
M  V30 10112 C 941.871 1.07505 -5.63232 0
M  V30 10113 N 941.367 1.15572 -6.83092 0
M  V30 10114 N 943.16 1.10902 -5.51051 0
M  V30 10115 H 935.311 -0.612241 -2.03385 0
M  V30 10116 H 937.574 -0.212796 -0.923808 0
M  V30 10117 H 937.28 -0.201757 -3.51121 0
M  V30 10118 H 937.154 1.54703 -3.44016 0
M  V30 10119 H 939.541 1.64085 -2.45276 0
M  V30 10120 H 939.622 -0.123753 -2.555 0
M  V30 10121 H 939.266 0.0284537 -5.07892 0
M  V30 10122 H 939.196 1.80373 -4.94745 0
M  V30 10123 H 941.687 0.907827 -3.66834 0
M  V30 10124 H 942 1.24343 -7.62731 0
M  V30 10125 H 940.345 1.12511 -6.85833 0
M  V30 10126 H 943.536 1.04255 -4.56343 0
M  V30 10127 H 943.709 1.19581 -6.36871 0
M  V30 10128 N 937.115 1.49373 0.502552 0
M  V30 10129 C 938.34 1.62752 1.28556 0
M  V30 10130 C 938.765 0.298285 1.8572 0
M  V30 10131 O 938.123 -0.733885 1.65782 0
M  V30 10132 C 938.171 2.69778 2.39274 0
M  V30 10133 O 937.275 2.28843 3.43081 0
M  V30 10134 H 936.616 0.544799 0.379592 0
M  V30 10135 H 939.146 1.9555 0.601792 0
M  V30 10136 H 939.156 2.91899 2.8506 0
M  V30 10137 H 937.831 3.66266 1.97033 0
M  V30 10138 H 936.408 2.17047 3.03224 0
M  V30 10139 N 938.594 -0.753485 1.38421 0
M  V30 10140 C 939.819 -1.54783 1.38047 0
M  V30 10141 C 940.244 -1.8808 -0.0276371 0
M  V30 10142 O 939.602 -1.5058 -1.00973 0
M  V30 10143 C 939.65 -2.82353 2.24297 0
M  V30 10144 O 938.754 -3.77509 1.66014 0
M  V30 10145 H 938.095 -0.468151 0.470883 0
M  V30 10146 H 940.625 -0.931144 1.82184 0
M  V30 10147 H 940.635 -3.31277 2.38159 0
M  V30 10148 H 939.31 -2.57449 3.26639 0
M  V30 10149 H 937.887 -3.36212 1.61294 0
M  V30 10150 N 940.072 -1.23292 -0.981677 0
M  V30 10151 C 941.297 -1.09176 -1.76339 0
M  V30 10152 C 941.722 0.352726 -1.84763 0
M  V30 10153 O 941.08 1.25509 -1.30832 0
M  V30 10154 C 941.128 -1.72046 -3.16911 0
M  V30 10155 O 940.232 -0.98174 -4.00544 0
M  V30 10156 H 939.573 -0.382755 -0.542581 0
M  V30 10157 H 942.103 -1.63319 -1.23239 0
M  V30 10158 H 942.113 -1.77232 -3.67495 0
M  V30 10159 H 940.788 -2.77154 -3.10095 0
M  V30 10160 H 939.365 -1.00672 -3.59054 0
M  V30 10161 N 941.55 1.18024 -1.04442 0
M  V30 10162 C 942.961 1.69749 -0.777312 0
M  V30 10163 C 943.312 1.83234 0.701399 0
M  V30 10164 O 942.437 1.51452 1.54568 0
M  V30 10165 C 943.032 3.08321 -1.40441 0
M  V30 10166 C 941.591 3.57243 -1.18553 0
M  V30 10167 C 940.738 2.33695 -1.49271 0
M  V30 10168 H 943.689 1.02647 -1.21035 0
M  V30 10169 H 943.71 3.71787 -0.809628 0
M  V30 10170 H 943.222 2.98474 -2.48062 0
M  V30 10171 H 941.323 3.72379 -0.128221 0
M  V30 10172 H 941.436 4.40451 -1.88519 0
M  V30 10173 H 939.8 2.37792 -0.912526 0
M  V30 10174 H 940.583 2.26464 -2.5801 0
M  V30 10175 N 943.028 0.824394 1.34319 0
M  V30 10176 C 944.256 0.426194 2.02463 0
M  V30 10177 C 944.671 -0.968298 1.62078 0
M  V30 10178 O 944.028 -1.62689 0.82696 0
M  V30 10179 C 944.079 0.520465 3.57734 0
M  V30 10180 O 943.8 1.86 3.96656 0
M  V30 10181 C 945.301 0.117353 4.43145 0
M  V30 10182 H 942.521 0.170864 0.648881 0
M  V30 10183 H 945.065 1.11296 1.71562 0
M  V30 10184 H 943.22 -0.118233 3.8722 0
M  V30 10185 H 943.634 1.83528 4.91343 0
M  V30 10186 H 945.108 0.234395 5.51502 0
M  V30 10187 H 945.585 -0.939271 4.29039 0
M  V30 10188 H 946.191 0.729908 4.1899 0
M  V30 10189 N 944.506 -1.46559 0.579492 0
M  V30 10190 C 945.438 -2.28383 -0.19337 0
M  V30 10191 C 946.451 -1.38324 -0.858511 0
M  V30 10192 O 947.64 -1.62952 -0.728615 0
M  V30 10193 C 944.74 -3.13262 -1.29306 0
M  V30 10194 C 943.913 -4.31426 -0.720459 0
M  V30 10195 C 942.972 -4.97728 -1.70744 0
M  V30 10196 O 941.998 -5.55423 -1.24476 0
M  V30 10197 N 943.2 -4.94445 -3.04146 0
M  V30 10198 H 945.965 -2.95353 0.508611 0
M  V30 10199 H 943.526 -1.56436 0.417046 0
M  V30 10200 H 945.518 -3.54483 -1.95254 0
M  V30 10201 H 944.088 -2.48388 -1.89795 0
M  V30 10202 H 943.308 -3.94028 0.116398 0
M  V30 10203 H 944.596 -5.07808 -0.31763 0
M  V30 10204 H 943.994 -4.4881 -3.44363 0
M  V30 10205 H 942.551 -5.39616 -3.65592 0
M  V30 10206 N 945.984 -0.3171 -1.54377 0
M  V30 10207 C 947.214 0.289138 -2.04567 0
M  V30 10208 C 947.622 1.46833 -1.19318 0
M  V30 10209 O 946.965 1.82436 -0.215141 0
M  V30 10210 C 947.027 0.792994 -3.50645 0
M  V30 10211 C 946.691 -0.263033 -4.56242 0
M  V30 10212 C 947.688 -1.09694 -5.08196 0
M  V30 10213 C 945.373 -0.409364 -5.00629 0
M  V30 10214 C 947.367 -2.06297 -6.03092 0
M  V30 10215 C 945.054 -1.37882 -5.95342 0
M  V30 10216 C 946.052 -2.20409 -6.46459 0
M  V30 10217 O 945.74 -3.15708 -7.39313 0
M  V30 10218 H 945.472 0.0644005 -0.672925 0
M  V30 10219 H 948.026 -0.459438 -2.00196 0
M  V30 10220 H 946.256 1.59237 -3.52392 0
M  V30 10221 H 947.945 1.31687 -3.83944 0
M  V30 10222 H 948.711 -0.994842 -4.74687 0
M  V30 10223 H 944.59 0.223091 -4.6046 0
M  V30 10224 H 948.134 -2.70751 -6.42915 0
M  V30 10225 H 944.031 -1.48158 -6.28267 0
M  V30 10226 H 944.799 -3.10873 -7.57166 0
M  V30 10227 N 947.462 1.57535 -0.0451378 0
M  V30 10228 C 948.71 1.92071 0.628743 0
M  V30 10229 C 949.031 0.923635 1.71738 0
M  V30 10230 O 948.301 -0.0324376 1.95873 0
M  V30 10231 H 946.881 0.708995 0.235233 0
M  V30 10232 H 949.543 1.9466 -0.0967177 0
M  V30 10233 H 948.639 2.9314 1.07123 0
M  V30 10234 N 948.94 -0.228186 1.55939 0
M  V30 10235 C 949.87 -1.28607 1.94891 0
M  V30 10236 C 950.851 -1.49236 0.816245 0
M  V30 10237 O 952.036 -1.61531 1.07803 0
M  V30 10238 C 949.166 -2.63719 2.25986 0
M  V30 10239 C 948.12 -2.57757 3.4168 0
M  V30 10240 C 947.446 -3.96837 3.58364 0
M  V30 10241 C 948.746 -2.13116 4.76843 0
M  V30 10242 H 950.44 -0.962531 2.83506 0
M  V30 10243 H 947.986 -0.461577 1.36402 0
M  V30 10244 H 949.939 -3.37878 2.51826 0
M  V30 10245 H 948.663 -2.97747 1.34217 0
M  V30 10246 H 947.322 -1.86055 3.15878 0
M  V30 10247 H 946.97 -4.28162 2.63982 0
M  V30 10248 H 946.67 -3.93731 4.36176 0
M  V30 10249 H 948.194 -4.72668 3.86545 0
M  V30 10250 H 949.608 -2.77015 5.01932 0
M  V30 10251 H 948.005 -2.21083 5.57891 0
M  V30 10252 H 949.075 -1.08326 4.72645 0
M  V30 10253 N 950.418 -1.49637 -0.494624 0
M  V30 10254 C 951.646 -1.63164 -1.2722 0
M  V30 10255 C 952.061 -0.305552 -1.86311 0
M  V30 10256 O 951.418 0.709758 -1.68133 0
M  V30 10257 C 951.469 -2.70524 -2.39789 0
M  V30 10258 O 951.19 -3.97991 -1.83126 0
M  V30 10259 C 952.691 -2.94814 -3.31058 0
M  V30 10260 H 949.911 -0.54912 -0.385627 0
M  V30 10261 H 952.455 -1.95711 -0.593081 0
M  V30 10262 H 950.61 -2.40738 -3.03519 0
M  V30 10263 H 951.024 -4.57179 -2.57075 0
M  V30 10264 H 952.498 -3.73653 -4.06309 0
M  V30 10265 H 952.975 -2.04974 -3.88436 0
M  V30 10266 H 953.581 -3.26042 -2.73088 0
M  V30 10267 N 951.896 0.746133 -1.38819 0
M  V30 10268 C 952.843 1.86001 -1.36647 0
M  V30 10269 C 953.813 1.6453 -0.227849 0
M  V30 10270 O 954.998 1.86092 -0.421241 0
M  V30 10271 C 952.138 3.23388 -1.20474 0
M  V30 10272 C 951.251 3.5664 -2.43786 0
M  V30 10273 C 950.386 4.8337 -2.20287 0
M  V30 10274 C 949.425 5.09431 -3.39332 0
M  V30 10275 N 948.562 6.2736 -3.1522 0
M  V30 10276 H 953.402 1.87192 -2.31869 0
M  V30 10277 H 950.939 0.914838 -1.15192 0
M  V30 10278 H 952.897 4.02679 -1.09112 0
M  V30 10279 H 951.527 3.21505 -0.288874 0
M  V30 10280 H 950.579 2.72135 -2.65794 0
M  V30 10281 H 951.891 3.71823 -3.3249 0
M  V30 10282 H 951.045 5.70619 -2.06103 0
M  V30 10283 H 949.784 4.70341 -1.28961 0
M  V30 10284 H 948.789 4.20648 -3.54027 0
M  V30 10285 H 950.014 5.24354 -4.31544 0
M  V30 10286 H 947.96 6.15639 -2.26549 0
M  V30 10287 H 947.877 6.43078 -3.97476 0
M  V30 10288 H 949.145 7.17477 -3.04707 0
M  V30 10289 N 953.375 1.23811 0.975125 0
M  V30 10290 C 954.323 1.02149 2.0897 0
M  V30 10291 C 955.317 -0.0412172 1.6935 0
M  V30 10292 O 956.523 0.112726 1.79647 0
M  V30 10293 H 952.898 0.313259 0.683647 0
M  V30 10294 H 954.869 1.96686 2.24404 0
M  V30 10295 C 953.618 0.635023 3.41852 0
M  V30 10296 H 952.941 1.44449 3.72793 0
M  V30 10297 H 954.381 0.52301 4.20762 0
M  V30 10298 C 952.84 -0.657207 3.30428 0
M  V30 10299 O 953.37 -1.70494 3.63723 0
M  V30 10300 N 951.576 -0.635122 2.83575 0
M  V30 10301 H 951.123 0.21784 2.56677 0
M  V30 10302 H 951.081 -1.49995 2.76313 0
M  V30 10303 N 954.853 -1.17469 1.05066 0
M  V30 10304 C 956.1 -1.87698 0.759987 0
M  V30 10305 C 956.428 -1.80964 -0.712902 0
M  V30 10306 O 955.683 -1.21146 -1.53695 0
M  V30 10307 C 955.982 -3.37211 1.18421 0
M  V30 10308 C 955.648 -3.64148 2.65909 0
M  V30 10309 C 954.31 -3.71209 3.06199 0
M  V30 10310 C 956.662 -3.75724 3.61222 0
M  V30 10311 C 953.99 -3.87334 4.40669 0
M  V30 10312 C 956.342 -3.93368 4.95424 0
M  V30 10313 C 955.006 -3.98667 5.3537 0
M  V30 10314 H 954.276 -0.686835 0.278099 0
M  V30 10315 H 956.923 -1.38975 1.31751 0
M  V30 10316 H 955.228 -3.87982 0.545654 0
M  V30 10317 H 956.925 -3.89911 0.936518 0
M  V30 10318 H 953.515 -3.59276 2.33707 0
M  V30 10319 H 957.699 -3.69591 3.31235 0
M  V30 10320 H 952.955 -3.89685 4.71122 0
M  V30 10321 H 957.129 -4.01267 5.69173 0
M  V30 10322 H 954.756 -4.10915 6.39572 0
M  V30 10323 N 956.331 -0.831506 -1.3388 0
M  V30 10324 C 957.556 -0.435954 -2.02766 0
M  V30 10325 C 957.981 0.952889 -1.62178 0
M  V30 10326 O 957.339 1.62166 -0.810681 0
M  V30 10327 C 957.387 -0.555907 -3.56289 0
M  V30 10328 O 956.491 0.420826 -4.10247 0
M  V30 10329 H 955.832 -0.178248 -0.639628 0
M  V30 10330 H 958.362 -1.1243 -1.70941 0
M  V30 10331 H 958.372 -0.434831 -4.05676 0
M  V30 10332 H 957.047 -1.56881 -3.85177 0
M  V30 10333 H 955.624 0.257919 -3.72007 0
M  V30 10334 N 957.809 1.4625 -0.587256 0
M  V30 10335 C 959.034 2.07252 -0.0784517 0
M  V30 10336 C 959.459 1.43239 1.21919 0
M  V30 10337 O 958.817 0.517791 1.73749 0
M  V30 10338 C 958.865 3.60534 0.0691037 0
M  V30 10339 O 957.969 3.96773 1.12448 0
M  V30 10340 H 957.31 0.660825 -0.064859 0
M  V30 10341 H 959.84 1.87819 -0.811491 0
M  V30 10342 H 959.85 4.0708 0.273826 0
M  V30 10343 H 958.525 4.06516 -0.878514 0
M  V30 10344 H 957.102 3.6193 0.897852 0
M  V30 10345 N 959.287 0.325282 1.54207 0
M  V30 10346 C 960.217 -0.532574 2.27345 0
M  V30 10347 C 961.198 -1.11791 1.28206 0
M  V30 10348 O 962.383 -1.14272 1.57021 0
M  V30 10349 C 959.513 -1.69274 3.03255 0
M  V30 10350 C 958.467 -1.23662 4.09746 0
M  V30 10351 C 957.793 -2.48386 4.73506 0
M  V30 10352 C 959.093 -0.350244 5.21124 0
M  V30 10353 H 960.787 0.0775108 2.993 0
M  V30 10354 H 958.333 0.0387193 1.43948 0
M  V30 10355 H 960.286 -2.29917 3.53152 0
M  V30 10356 H 959.01 -2.32944 2.28921 0
M  V30 10357 H 957.669 -0.653106 3.60735 0
M  V30 10358 H 957.317 -3.10424 3.95786 0
M  V30 10359 H 957.017 -2.18558 5.45441 0
M  V30 10360 H 958.541 -3.09789 5.26178 0
M  V30 10361 H 959.955 -0.863011 5.66767 0
M  V30 10362 H 958.352 -0.14466 5.99926 0
M  V30 10363 H 959.422 0.618457 4.8094 0
M  V30 10364 N 960.765 -1.57509 0.0534917 0
M  V30 10365 C 961.715 -2.08179 -0.929802 0
M  V30 10366 C 962.699 -0.987451 -1.27036 0
M  V30 10367 O 963.891 -1.25076 -1.2524 0
M  V30 10368 C 961.02 -2.63221 -2.20385 0
M  V30 10369 C 960.106 -3.79629 -1.89058 0
M  V30 10370 N 960.497 -4.8931 -1.28101 0
M  V30 10371 C 958.795 -3.88578 -2.18914 0
M  V30 10372 C 959.496 -5.70329 -1.14455 0
M  V30 10373 N 958.472 -5.18011 -1.64821 0
M  V30 10374 H 962.274 -2.90374 -0.453874 0
M  V30 10375 H 959.788 -1.61697 -0.150899 0
M  V30 10376 H 961.785 -2.97827 -2.91727 0
M  V30 10377 H 960.445 -1.82466 -2.68582 0
M  V30 10378 H 961.456 -5.09058 -0.952924 0
M  V30 10379 H 958.133 -3.18769 -2.69616 0
M  V30 10380 H 959.523 -6.6854 -0.671129 0
M  V30 10381 N 962.243 0.219913 -1.56058 0
M  V30 10382 C 963.173 1.27572 -1.9557 0
M  V30 10383 C 964.154 1.48801 -0.824148 0
M  V30 10384 O 965.339 1.60957 -1.08658 0
M  V30 10385 C 962.469 2.62517 -2.27381 0
M  V30 10386 C 961.423 2.55941 -3.43042 0
M  V30 10387 C 960.749 3.94931 -3.60463 0
M  V30 10388 C 962.049 2.10584 -4.77966 0
M  V30 10389 H 963.743 0.947482 -2.84013 0
M  V30 10390 H 961.289 0.454337 -1.36645 0
M  V30 10391 H 963.242 3.36538 -2.53615 0
M  V30 10392 H 961.966 2.97031 -1.35794 0
M  V30 10393 H 960.625 1.84377 -3.1686 0
M  V30 10394 H 960.273 4.26756 -2.66249 0
M  V30 10395 H 959.973 3.91413 -4.38258 0
M  V30 10396 H 961.497 4.70611 -3.89046 0
M  V30 10397 H 962.911 2.74349 -5.03394 0
M  V30 10398 H 961.308 2.18122 -5.59055 0
M  V30 10399 H 962.378 1.05818 -4.73213 0
M  V30 10400 N 963.721 1.49897 0.486681 0
M  V30 10401 C 964.669 1.68125 1.60738 0
M  V30 10402 C 965.663 0.547097 1.60322 0
M  V30 10403 O 966.869 0.727153 1.64659 0
M  V30 10404 H 963.244 0.530391 0.533094 0
M  V30 10405 H 965.215 2.62165 1.42521 0
M  V30 10406 C 963.964 1.77827 2.98786 0
M  V30 10407 H 963.287 2.6448 2.99818 0
M  V30 10408 H 964.727 1.94611 3.76699 0
M  V30 10409 C 963.186 0.526287 3.32764 0
M  V30 10410 O 963.716 -0.341607 4.00245 0
M  V30 10411 N 961.922 0.384947 2.88039 0
M  V30 10412 H 961.469 1.09222 2.33299 0
M  V30 10413 H 961.427 -0.451618 3.11139 0
M  V30 10414 N 965.199 -0.738761 1.39212 0
M  V30 10415 C 966.424 -1.5331 1.39681 0
M  V30 10416 C 966.849 -1.88098 -0.00768715 0
M  V30 10417 O 966.207 -1.51642 -0.993699 0
M  V30 10418 C 966.255 -2.79958 2.27279 0
M  V30 10419 O 965.359 -3.75727 1.70008 0
M  V30 10420 H 964.7 -0.463131 0.475821 0
M  V30 10421 H 967.23 -0.911768 1.83161 0
M  V30 10422 H 967.24 -3.28732 2.41659 0
M  V30 10423 H 965.915 -2.5397 3.29351 0
M  V30 10424 H 964.492 -3.34483 1.64851 0
M  V30 10425 N 966.677 -1.24326 -0.968545 0
M  V30 10426 C 968.093 -1.00847 -1.23701 0
M  V30 10427 C 968.293 0.283235 -1.99499 0
M  V30 10428 O 967.349 0.999607 -2.31871 0
M  V30 10429 C 968.662 -2.22295 -2.02498 0
M  V30 10430 C 970.21 -2.26911 -2.15593 0
M  V30 10431 C 970.685 -3.47978 -2.97784 0
M  V30 10432 N 972.176 -3.48289 -3.05367 0
M  V30 10433 C 972.911 -4.38625 -3.69318 0
M  V30 10434 N 972.407 -5.39213 -4.34995 0
M  V30 10435 N 974.2 -4.26339 -3.66322 0
M  V30 10436 H 966.351 -2.07335 -0.461087 0
M  V30 10437 H 968.614 -0.909805 -0.26638 0
M  V30 10438 H 968.32 -3.161 -1.54188 0
M  V30 10439 H 968.194 -2.24344 -3.03232 0
M  V30 10440 H 970.581 -1.33639 -2.63106 0
M  V30 10441 H 970.662 -2.28888 -1.14209 0
M  V30 10442 H 970.306 -4.41564 -2.50965 0
M  V30 10443 H 970.236 -3.43244 -3.99364 0
M  V30 10444 H 972.727 -2.75517 -2.58648 0
M  V30 10445 H 973.04 -6.04378 -4.81608 0
M  V30 10446 H 971.385 -5.43101 -4.33667 0
M  V30 10447 H 974.576 -3.46991 -3.14189 0
M  V30 10448 H 974.749 -4.9694 -4.15878 0
M  V30 10449 N 968.156 1.1691 -1.05688 0
M  V30 10450 C 969.433 1.83266 -0.683601 0
M  V30 10451 C 969.813 1.93858 0.835602 0
M  V30 10452 O 969.161 1.47696 1.7435 0
M  V30 10453 C 969.371 3.20625 -1.37842 0
M  V30 10454 C 970.719 3.96473 -1.51967 0
M  V30 10455 O 971.743 3.30122 -1.33783 0
M  V30 10456 O 970.602 5.15393 -1.81749 0
M  V30 10457 H 967.696 0.791028 -0.241254 0
M  V30 10458 H 970.242 1.24165 -1.15677 0
M  V30 10459 H 969.014 3.07914 -2.41463 0
M  V30 10460 H 968.637 3.87398 -0.894921 0
M  V30 10461 N 969.634 0.838594 1.33437 0
M  V30 10462 C 970.859 0.446701 2.02532 0
M  V30 10463 C 971.284 -0.944275 1.62681 0
M  V30 10464 O 970.642 -1.61733 0.81927 0
M  V30 10465 C 970.69 0.574794 3.55989 0
M  V30 10466 O 969.794 -0.399063 4.10465 0
M  V30 10467 H 969.135 0.181637 0.638674 0
M  V30 10468 H 971.665 1.13335 1.70342 0
M  V30 10469 H 971.675 0.456339 4.0544 0
M  V30 10470 H 970.35 1.58921 3.8434 0
M  V30 10471 H 968.927 -0.238187 3.72139 0
M  V30 10472 N 971.112 -1.45937 0.595003 0
M  V30 10473 C 972.36 -2.01921 0.0851368 0
M  V30 10474 C 972.681 -1.46748 -1.28413 0
M  V30 10475 O 971.951 -0.656873 -1.84559 0
M  V30 10476 H 970.531 -0.746457 0.0284826 0
M  V30 10477 H 973.193 -1.78891 0.773561 0
M  V30 10478 H 972.289 -3.1209 0.0254002 0
M  V30 10479 N 972.59 -0.333456 -1.54032 0
M  V30 10480 C 973.837 0.266133 -2.00744 0
M  V30 10481 C 974.165 1.51361 -1.22148 0
M  V30 10482 O 973.42 1.93473 -0.294368 0
M  V30 10483 C 973.719 0.63565 -3.51702 0
M  V30 10484 C 973.385 -0.513786 -4.47963 0
M  V30 10485 C 972.047 -0.829253 -4.74001 0
M  V30 10486 C 974.399 -1.2854 -5.05101 0
M  V30 10487 C 971.727 -1.91888 -5.54433 0
M  V30 10488 C 974.079 -2.3652 -5.86721 0
M  V30 10489 C 972.743 -2.68637 -6.11057 0
M  V30 10490 H 972.013 0.097385 -0.734573 0
M  V30 10491 H 974.66 -0.459282 -1.85911 0
M  V30 10492 H 972.965 1.44163 -3.64313 0
M  V30 10493 H 974.662 1.11129 -3.85294 0
M  V30 10494 H 971.252 -0.25784 -4.27824 0
M  V30 10495 H 975.436 -1.05494 -4.84958 0
M  V30 10496 H 970.692 -2.17208 -5.71516 0
M  V30 10497 H 974.866 -2.96747 -6.30011 0
M  V30 10498 H 972.493 -3.53197 -6.73169 0
M  V30 10499 N 974.068 1.57479 -0.061844 0
M  V30 10500 C 975.293 1.97843 0.622311 0
M  V30 10501 C 975.718 0.939602 1.62951 0
M  V30 10502 O 975.076 -0.095958 1.81046 0
M  V30 10503 C 975.124 3.37262 1.2762 0
M  V30 10504 O 974.228 3.35943 2.39199 0
M  V30 10505 H 973.569 0.644212 0.160896 0
M  V30 10506 H 976.099 2.04165 -0.133409 0
M  V30 10507 H 976.109 3.74226 1.62539 0
M  V30 10508 H 974.784 4.12404 0.538112 0
M  V30 10509 H 973.361 3.10737 2.06148 0
M  V30 10510 N 975.546 -0.211634 1.56173 0
M  V30 10511 C 976.771 -0.955324 1.84088 0
M  V30 10512 C 977.196 -1.76754 0.643407 0
M  V30 10513 O 976.554 -1.76653 -0.407842 0
M  V30 10514 C 976.602 -1.84063 3.10085 0
M  V30 10515 O 975.706 -2.9373 2.89476 0
M  V30 10516 H 975.047 -0.26996 0.606645 0
M  V30 10517 H 977.577 -0.221947 2.03393 0
M  V30 10518 H 977.587 -2.24852 3.40449 0
M  V30 10519 H 976.262 -1.24373 3.96868 0
M  V30 10520 H 974.839 -2.56816 2.7037 0
M  V30 10521 N 977.024 -1.50153 -0.478725 0
M  V30 10522 C 978.272 -1.60443 -1.22892 0
M  V30 10523 C 978.593 -0.303276 -1.92627 0
M  V30 10524 O 977.863 0.678798 -1.83764 0
M  V30 10525 H 976.443 -0.591205 -0.456602 0
M  V30 10526 H 979.105 -1.86893 -0.552905 0
M  V30 10527 H 978.201 -2.41175 -1.98094 0
M  V30 10528 N 978.502 0.731368 -1.39602 0
M  V30 10529 C 979.45 1.86676 -1.38761 0
M  V30 10530 C 980.444 1.6723 -0.270247 0
M  V30 10531 O 981.65 1.74528 -0.440471 0
M  V30 10532 H 978.025 0.614553 -0.433391 0
M  V30 10533 H 979.996 1.84501 -2.34525 0
M  V30 10534 C 978.745 3.24394 -1.25155 0
M  V30 10535 H 978.068 3.39955 -2.10406 0
M  V30 10536 H 979.508 4.04019 -1.28625 0
M  V30 10537 C 977.967 3.36877 0.0396976 0
M  V30 10538 O 978.497 3.88833 1.00854 0
M  V30 10539 N 976.703 2.90414 0.103965 0
M  V30 10540 H 976.25 2.48321 -0.685155 0
M  V30 10541 H 976.208 2.99146 0.967435 0
M  V30 10542 N 979.98 1.24838 0.961938 0
M  V30 10543 C 981.208 1.11871 1.74047 0
M  V30 10544 C 981.623 -0.328209 1.85925 0
M  V30 10545 O 980.98 -1.22616 1.35173 0
M  V30 10546 C 981.031 1.75931 3.15801 0
M  V30 10547 O 980.752 3.14967 3.04512 0
M  V30 10548 C 982.253 1.68649 4.09966 0
M  V30 10549 H 979.473 0.390569 0.545616 0
M  V30 10550 H 982.017 1.65058 1.20732 0
M  V30 10551 H 980.172 1.26733 3.66084 0
M  V30 10552 H 980.586 3.46349 3.93882 0
M  V30 10553 H 982.06 2.18144 5.07067 0
M  V30 10554 H 982.537 0.648831 4.34381 0
M  V30 10555 H 983.143 2.17301 3.65596 0
M  V30 10556 N 981.458 -1.16348 1.06306 0
M  V30 10557 C 982.735 -1.829 0.69331 0
M  V30 10558 C 983.115 -1.94298 -0.82531 0
M  V30 10559 O 982.463 -1.48619 -1.73565 0
M  V30 10560 C 982.673 -3.1989 1.3954 0
M  V30 10561 C 984.021 -3.95662 1.54068 0
M  V30 10562 O 985.045 -3.29408 1.35532 0
M  V30 10563 O 983.904 -5.14422 1.84479 0
M  V30 10564 H 980.998 -0.789738 0.245445 0
M  V30 10565 H 983.544 -1.23549 1.16334 0
M  V30 10566 H 982.316 -3.06629 2.43093 0
M  V30 10567 H 981.939 -3.86918 0.915453 0
M  V30 10568 N 982.937 -0.845659 -1.3299 0
M  V30 10569 C 984.165 -0.45835 -2.01759 0
M  V30 10570 C 984.58 0.94239 -1.63598 0
M  V30 10571 O 983.937 1.61353 -0.852738 0
M  V30 10572 C 983.988 -0.577311 -3.5686 0
M  V30 10573 O 983.709 -1.92287 -3.93646 0
M  V30 10574 C 985.21 -0.187839 -4.42902 0
M  V30 10575 H 982.43 -0.181165 -0.646081 0
M  V30 10576 H 984.974 -1.14011 -1.6977 0
M  V30 10577 H 983.129 0.0566146 -3.87359 0
M  V30 10578 H 983.543 -1.91322 -4.88361 0
M  V30 10579 H 985.017 -0.322105 -5.51059 0
M  V30 10580 H 985.494 0.870896 -4.30479 0
M  V30 10581 H 986.1 -0.796473 -4.17776 0
M  V30 10582 N 984.415 1.45619 -0.602734 0
M  V30 10583 C 985.64 2.07157 -0.100429 0
M  V30 10584 C 986.065 1.44524 1.20393 0
M  V30 10585 O 985.423 0.536191 1.7319 0
M  V30 10586 C 985.471 3.60587 0.0308604 0
M  V30 10587 O 984.575 3.97944 1.08234 0
M  V30 10588 H 983.916 0.6601 -0.0718643 0
M  V30 10589 H 986.446 1.86948 -0.831366 0
M  V30 10590 H 986.456 4.07348 0.230634 0
M  V30 10591 H 985.131 4.05561 -0.921581 0
M  V30 10592 H 983.708 3.62862 0.859414 0
M  V30 10593 N 985.893 0.34162 1.53853 0
M  V30 10594 C 987.118 -0.259608 2.05769 0
M  V30 10595 C 987.543 -1.43588 1.21507 0
M  V30 10596 O 986.901 -1.79856 0.228364 0
M  V30 10597 C 986.949 -0.654455 3.54611 0
M  V30 10598 O 986.053 -1.75472 3.73207 0
M  V30 10599 H 985.394 -0.0434621 0.662576 0
M  V30 10600 H 987.924 0.495274 1.98515 0
M  V30 10601 H 987.934 -0.932142 3.97209 0
M  V30 10602 H 986.609 0.205779 4.15391 0
M  V30 10603 H 985.186 -1.47444 3.42512 0
M  V30 10604 N 987.371 -1.57444 0.0701946 0
M  V30 10605 C 988.281 -2.16132 -0.912377 0
M  V30 10606 C 989.297 -1.12406 -1.32819 0
M  V30 10607 O 990.473 -1.44665 -1.40121 0
M  V30 10608 C 987.538 -2.71008 -2.16231 0
M  V30 10609 C 986.599 -3.896 -1.80306 0
M  V30 10610 C 985.832 -4.4185 -2.9934 0
M  V30 10611 O 986.055 -3.93106 -4.13309 0
M  V30 10612 O 984.989 -5.33201 -2.7925 0
M  V30 10613 H 988.815 -3.00449 -0.443167 0
M  V30 10614 H 986.4 -1.48617 -0.152786 0
M  V30 10615 H 988.282 -3.06186 -2.8953 0
M  V30 10616 H 986.957 -1.8975 -2.62253 0
M  V30 10617 H 985.864 -3.59277 -1.04264 0
M  V30 10618 H 987.197 -4.72145 -1.39068 0
M  V30 10619 N 988.849 0.203349 -1.56283 0
M  V30 10620 C 990.265 0.55384 -1.49682 0
M  V30 10621 C 990.465 1.86261 -0.768701 0
M  V30 10622 O 989.521 2.50517 -0.315824 0
M  V30 10623 C 990.834 0.616216 -2.94318 0
M  V30 10624 C 992.382 0.705611 -3.04943 0
M  V30 10625 C 992.857 0.79917 -4.50974 0
M  V30 10626 N 994.348 0.862916 -4.55091 0
M  V30 10627 C 995.083 0.955334 -5.65386 0
M  V30 10628 N 994.579 1.01057 -6.8539 0
M  V30 10629 N 996.372 0.991884 -5.53279 0
M  V30 10630 H 988.523 -0.655244 -2.0204 0
M  V30 10631 H 990.786 -0.232344 -0.919087 0
M  V30 10632 H 990.492 -0.27619 -3.50614 0
M  V30 10633 H 990.366 1.47371 -3.4722 0
M  V30 10634 H 992.753 1.58845 -2.48701 0
M  V30 10635 H 992.834 -0.177921 -2.5518 0
M  V30 10636 H 992.478 -0.0792841 -5.07838 0
M  V30 10637 H 992.408 1.69838 -4.9846 0
M  V30 10638 H 994.899 0.829812 -3.68677 0
M  V30 10639 H 995.212 1.08137 -7.65197 0
M  V30 10640 H 993.557 0.979384 -6.88065 0
M  V30 10641 H 996.748 0.945514 -4.58451 0
M  V30 10642 H 996.921 1.06045 -6.39264 0
M  V30 10643 N 990.327 1.50405 0.470755 0
M  V30 10644 C 991.575 1.61092 1.2204 0
M  V30 10645 C 991.896 0.313487 1.92464 0
M  V30 10646 O 991.166 -0.669043 1.84121 0
M  V30 10647 H 989.746 0.593618 0.45346 0
M  V30 10648 H 992.408 1.87184 0.542985 0
M  V30 10649 H 991.504 2.42222 1.96812 0
M  V30 10650 N 991.805 -0.723954 1.39988 0
M  V30 10651 C 993.221 -1.03095 1.21834 0
M  V30 10652 C 993.421 -2.01309 0.0876647 0
M  V30 10653 O 992.477 -2.46277 -0.55714 0
M  V30 10654 C 993.79 -1.58267 2.5568 0
M  V30 10655 C 995.338 -1.70293 2.6262 0
M  V30 10656 C 995.813 -2.28872 3.96713 0
M  V30 10657 N 997.304 -2.36269 3.98411 0
M  V30 10658 C 998.039 -2.82557 4.98948 0
M  V30 10659 N 997.535 -3.28661 6.0988 0
M  V30 10660 N 999.328 -2.81866 4.86321 0
M  V30 10661 H 991.479 -0.0727891 2.12275 0
M  V30 10662 H 993.742 -0.0949029 0.943238 0
M  V30 10663 H 993.448 -0.935642 3.39026 0
M  V30 10664 H 993.322 -2.56914 2.76179 0
M  V30 10665 H 995.709 -2.34115 1.7965 0
M  V30 10666 H 995.79 -0.70268 2.45959 0
M  V30 10667 H 995.434 -1.65675 4.80119 0
M  V30 10668 H 995.364 -3.29595 4.107 0
M  V30 10669 H 997.855 -2.03697 3.18302 0
M  V30 10670 H 998.168 -3.62524 6.82493 0
M  V30 10671 H 996.513 -3.26641 6.13458 0
M  V30 10672 H 999.704 -2.45179 3.98754 0
M  V30 10673 H 999.877 -3.17626 5.64817 0
M  V30 10674 N 993.283 -1.25346 -0.955304 0
M  V30 10675 C 994.513 -1.12629 -1.732 0
M  V30 10676 C 994.921 0.322748 -1.86427 0
M  V30 10677 O 994.264 1.23381 -1.36099 0
M  V30 10678 C 994.326 -1.7064 -3.16421 0
M  V30 10679 C 993.99 -3.19632 -3.26626 0
M  V30 10680 C 994.987 -4.1663 -3.10991 0
M  V30 10681 C 992.672 -3.59829 -3.50468 0
M  V30 10682 C 994.666 -5.51806 -3.19043 0
M  V30 10683 C 992.353 -4.95143 -3.58157 0
M  V30 10684 C 993.351 -5.90941 -3.42459 0
M  V30 10685 O 993.039 -7.23792 -3.49828 0
M  V30 10686 H 992.771 -0.393646 -0.549562 0
M  V30 10687 H 995.325 -1.66184 -1.20715 0
M  V30 10688 H 993.555 -1.11532 -3.70267 0
M  V30 10689 H 995.244 -1.53032 -3.75947 0
M  V30 10690 H 996.01 -3.86915 -2.92441 0
M  V30 10691 H 991.889 -2.8576 -3.61749 0
M  V30 10692 H 995.433 -6.26559 -3.06707 0
M  V30 10693 H 991.33 -5.24525 -3.76224 0
M  V30 10694 H 992.098 -7.31879 -3.66463 0
M  V30 10695 N 994.761 1.15782 -1.06922 0
M  V30 10696 C 995.986 1.90896 -0.810771 0
M  V30 10697 C 996.411 1.77246 0.629714 0
M  V30 10698 O 995.769 1.10215 1.43953 0
M  V30 10699 C 995.817 3.39397 -1.21829 0
M  V30 10700 O 994.921 4.10818 -0.360934 0
M  V30 10701 H 994.262 0.594497 -0.295752 0
M  V30 10702 H 996.792 1.46652 -1.42669 0
M  V30 10703 H 996.802 3.90181 -1.19259 0
M  V30 10704 H 995.477 3.4865 -2.2675 0
M  V30 10705 H 994.054 3.7019 -0.448748 0
M  V30 10706 N 996.239 0.8527 1.3254 0
M  V30 10707 C 997.516 0.376491 1.91942 0
M  V30 10708 C 997.896 -1.13972 1.7769 0
M  V30 10709 O 997.244 -1.96047 1.17379 0
M  V30 10710 C 997.454 0.838694 3.38773 0
M  V30 10711 C 998.802 0.854736 4.15908 0
M  V30 10712 O 999.826 0.783203 3.47483 0
M  V30 10713 O 998.685 0.955207 5.38087 0
M  V30 10714 H 995.779 0.109412 0.81973 0
M  V30 10715 H 998.325 0.93947 1.41322 0
M  V30 10716 H 997.097 1.88179 3.43081 0
M  V30 10717 H 996.72 0.253055 3.96794 0
M  V30 10718 N 997.718 -1.45297 0.610449 0
M  V30 10719 C 999.134 -1.57225 0.274332 0
M  V30 10720 C 999.334 -1.60136 -1.22306 0
M  V30 10721 O 998.39 -1.5332 -2.00622 0
M  V30 10722 C 999.703 -2.85365 0.948028 0
M  V30 10723 C 1001.25 -2.99044 0.924216 0
M  V30 10724 C 1001.73 -4.29958 1.57798 0
M  V30 10725 N 1003.22 -4.36723 1.5436 0
M  V30 10726 C 1003.95 -5.36695 2.01857 0
M  V30 10727 N 1003.45 -6.43187 2.57453 0
M  V30 10728 N 1005.24 -5.28071 1.92608 0
M  V30 10729 H 997.392 -1.41651 1.58268 0
M  V30 10730 H 999.655 -0.67744 0.663158 0
M  V30 10731 H 999.361 -2.89125 2.00249 0
M  V30 10732 H 999.235 -3.74222 0.473062 0
M  V30 10733 H 1001.62 -2.94849 -0.121709 0
M  V30 10734 H 1001.7 -2.1159 1.43748 0
M  V30 10735 H 1001.35 -4.34912 2.62325 0
M  V30 10736 H 1001.28 -5.16234 1.03972 0
M  V30 10737 H 1003.77 -3.60374 1.13749 0
M  V30 10738 H 1004.08 -7.15722 2.91482 0
M  V30 10739 H 1002.43 -6.4393 2.61493 0
M  V30 10740 H 1005.62 -4.43783 1.48912 0
M  V30 10741 H 1005.79 -6.05832 2.29938 0
M  V30 10742 N 999.196 -0.349774 -1.5367 0
M  V30 10743 C 1000.42 0.248692 -2.05904 0
M  V30 10744 C 1000.85 1.42942 -1.22267 0
M  V30 10745 O 1000.2 1.79732 -0.237899 0
M  V30 10746 C 1000.25 0.635639 -3.54953 0
M  V30 10747 O 999.356 1.7349 -3.74132 0
M  V30 10748 H 998.697 0.0399477 -0.662797 0
M  V30 10749 H 1001.23 -0.505795 -1.9825 0
M  V30 10750 H 1001.24 0.911064 -3.97698 0
M  V30 10751 H 999.912 -0.227805 -4.15276 0
M  V30 10752 H 998.489 1.45626 -3.43289 0
M  V30 10753 N 1000.67 1.57404 -0.0785433 0
M  V30 10754 C 1002.09 1.57158 0.2781 0
M  V30 10755 C 1002.29 1.08847 1.69572 0
M  V30 10756 O 1001.35 0.757407 2.40873 0
M  V30 10757 C 1002.66 3.00589 0.0816067 0
M  V30 10758 C 1004.21 3.12637 0.150627 0
M  V30 10759 C 1004.68 4.57997 -0.0176685 0
M  V30 10760 N 1006.17 4.63185 0.0377145 0
M  V30 10761 C 1006.91 5.7336 -0.0679907 0
M  V30 10762 N 1006.4 6.92426 -0.227598 0
M  V30 10763 N 1008.2 5.62099 -0.0104424 0
M  V30 10764 H 1000.35 1.87121 -1.00496 0
M  V30 10765 H 1002.61 0.862937 -0.392484 0
M  V30 10766 H 1002.32 3.40072 -0.896869 0
M  V30 10767 H 1002.19 3.67931 0.831046 0
M  V30 10768 H 1004.58 2.73037 1.11959 0
M  V30 10769 H 1004.66 2.4792 -0.630028 0
M  V30 10770 H 1004.3 4.98288 -0.983431 0
M  V30 10771 H 1004.23 5.20754 0.782475 0
M  V30 10772 H 1006.72 3.77564 0.159208 0
M  V30 10773 H 1007.04 7.72217 -0.300217 0
M  V30 10774 H 1005.38 6.94502 -0.263049 0
M  V30 10775 H 1008.57 4.67964 0.112999 0
M  V30 10776 H 1008.75 6.47928 -0.0962747 0
M  V30 10777 N 1002.15 -0.195058 1.56388 0
M  V30 10778 C 1003.1 -1.26122 1.95438 0
M  V30 10779 C 1004.09 -1.47117 0.839818 0
M  V30 10780 O 1005.3 -1.47978 1.02482 0
M  V30 10781 H 1001.67 -0.423422 0.621464 0
M  V30 10782 H 1003.65 -0.904854 2.8435 0
M  V30 10783 C 1002.39 -2.59858 2.31017 0
M  V30 10784 H 1001.72 -2.44519 3.16308 0
M  V30 10785 H 1003.16 -3.33205 2.62203 0
M  V30 10786 C 1001.62 -3.16853 1.14481 0
M  V30 10787 O 1002.15 -3.995 0.419853 0
M  V30 10788 N 1000.35 -2.75599 0.921604 0
M  V30 10789 H 999.9 -2.08495 1.51287 0
M  V30 10790 H 999.858 -3.14072 0.143663 0
M  V30 10791 N 1003.63 -1.50653 -0.462772 0
M  V30 10792 C 1004.58 -1.70122 -1.55971 0
M  V30 10793 C 1005.55 -0.542581 -1.56988 0
M  V30 10794 O 1006.73 -0.774114 -1.74391 0
M  V30 10795 C 1003.87 -1.80899 -2.93887 0
M  V30 10796 C 1002.98 -3.08318 -3.02595 0
M  V30 10797 C 1002.12 -3.09841 -4.31477 0
M  V30 10798 C 1001.16 -4.3168 -4.33957 0
M  V30 10799 N 1000.3 -4.30894 -5.54323 0
M  V30 10800 H 1005.14 -2.63768 -1.38674 0
M  V30 10801 H 1002.67 -1.30746 -0.674091 0
M  V30 10802 H 1004.63 -1.85128 -3.73876 0
M  V30 10803 H 1003.26 -0.906854 -3.098 0
M  V30 10804 H 1002.31 -3.13521 -2.15427 0
M  V30 10805 H 1003.62 -3.98282 -3.00288 0
M  V30 10806 H 1002.78 -3.12845 -5.1982 0
M  V30 10807 H 1001.52 -2.17722 -4.36404 0
M  V30 10808 H 1000.52 -4.28879 -3.4401 0
M  V30 10809 H 1001.75 -5.25035 -4.30715 0
M  V30 10810 H 999.694 -3.41633 -5.6002 0
M  V30 10811 H 999.611 -5.14636 -5.53792 0
M  V30 10812 H 1000.88 -4.38056 -6.44769 0
M  V30 10813 N 1005.11 0.71652 -1.4037 0
M  V30 10814 C 1006.34 1.50344 -1.41704 0
M  V30 10815 C 1006.75 1.89194 -0.0148011 0
M  V30 10816 O 1006.09 1.55916 0.971391 0
M  V30 10817 C 1006.15 2.80928 -2.2432 0
M  V30 10818 C 1005.82 2.64406 -3.72744 0
M  V30 10819 C 1006.81 2.31727 -4.65401 0
M  V30 10820 C 1004.5 2.807 -4.16549 0
M  V30 10821 C 1006.49 2.15551 -5.99847 0
M  V30 10822 C 1004.18 2.64141 -5.51065 0
M  V30 10823 C 1005.18 2.31614 -6.42529 0
M  V30 10824 O 1004.86 2.15179 -7.74566 0
M  V30 10825 H 1004.6 0.470574 -0.48532 0
M  V30 10826 H 1007.15 0.89152 -1.85043 0
M  V30 10827 H 1005.38 3.4445 -1.75759 0
M  V30 10828 H 1007.07 3.4264 -2.17607 0
M  V30 10829 H 1007.84 2.18773 -4.32855 0
M  V30 10830 H 1003.71 3.05005 -3.45677 0
M  V30 10831 H 1007.26 1.90084 -6.71203 0
M  V30 10832 H 1003.16 2.76679 -5.83197 0
M  V30 10833 H 1003.92 2.30106 -7.85489 0
M  V30 10834 N 1006.59 1.25851 0.948643 0
M  V30 10835 C 1007.83 1.10735 1.69062 0
M  V30 10836 C 1008.16 -0.351257 1.9181 0
M  V30 10837 O 1007.43 -1.24867 1.50947 0
M  V30 10838 H 1006.01 0.406796 0.626519 0
M  V30 10839 H 1008.67 1.58066 1.14022 0
M  V30 10840 H 1007.76 1.62033 2.66743 0
M  V30 10841 N 1008.06 -1.15214 1.07534 0
M  V30 10842 C 1009.48 -1.38031 0.801228 0
M  V30 10843 C 1009.68 -1.92556 -0.593672 0
M  V30 10844 O 1008.74 -2.1325 -1.35206 0
M  V30 10845 C 1010.05 -2.34958 1.87657 0
M  V30 10846 C 1011.6 -2.48617 1.90154 0
M  V30 10847 C 1012.07 -3.48837 2.96777 0
M  V30 10848 N 1013.56 -3.56374 2.95892 0
M  V30 10849 C 1014.3 -4.33746 3.75036 0
M  V30 10850 N 1013.79 -5.14435 4.64036 0
M  V30 10851 N 1015.59 -4.28853 3.63375 0
M  V30 10852 H 1007.74 -0.781639 1.97495 0
M  V30 10853 H 1010 -0.406243 0.856546 0
M  V30 10854 H 1009.71 -2.02013 2.87895 0
M  V30 10855 H 1009.58 -3.3476 1.73827 0
M  V30 10856 H 1011.97 -2.80859 0.905666 0
M  V30 10857 H 1012.05 -1.48808 2.08062 0
M  V30 10858 H 1011.69 -3.1733 3.96565 0
M  V30 10859 H 1011.62 -4.48406 2.76116 0
M  V30 10860 H 1014.11 -2.98784 2.31379 0
M  V30 10861 H 1014.43 -5.70722 5.21053 0
M  V30 10862 H 1012.77 -5.13734 4.68084 0
M  V30 10863 H 1015.96 -3.64882 2.93221 0
M  V30 10864 H 1016.14 -4.88903 4.25298 0
M  V30 10865 N 1009.54 -0.859717 -1.32086 0
M  V30 10866 C 1010.79 -0.464662 -1.96686 0
M  V30 10867 C 1011.11 0.98412 -1.68345 0
M  V30 10868 O 1010.38 1.68847 -0.993361 0
M  V30 10869 H 1008.96 -0.168838 -0.727669 0
M  V30 10870 H 1011.62 -1.09726 -1.61079 0
M  V30 10871 H 1010.72 -0.613904 -3.06003 0
M  V30 10872 N 1011.02 1.44971 -0.618145 0
M  V30 10873 C 1012.25 2.07039 -0.122395 0
M  V30 10874 C 1012.67 1.45793 1.18853 0
M  V30 10875 O 1012.03 0.55453 1.72611 0
M  V30 10876 C 1012.08 3.60599 -0.0073864 0
M  V30 10877 O 1011.18 3.99069 1.04007 0
M  V30 10878 H 1010.52 0.6593 -0.0788615 0
M  V30 10879 H 1013.05 1.86055 -0.851147 0
M  V30 10880 H 1013.06 4.07569 0.187417 0
M  V30 10881 H 1011.74 4.04561 -0.964544 0
M  V30 10882 H 1010.31 3.63753 0.820879 0
M  V30 10883 N 1012.5 0.357919 1.53482 0
M  V30 10884 C 1013.75 -0.235241 2.00324 0
M  V30 10885 C 1014.06 -1.50494 1.24944 0
M  V30 10886 O 1015.27 -2.17623 1.62335 0
M  V30 10887 C 1013.72 -0.469748 3.56821 0
M  V30 10888 C 1013.33 0.784877 4.41071 0
M  V30 10889 C 1015.07 -1.02098 4.12039 0
M  V30 10890 C 1012.98 0.520377 5.89106 0
M  V30 10891 H 1011.91 -0.0916816 0.748405 0
M  V30 10892 H 1014.56 0.475474 1.77233 0
M  V30 10893 H 1012.94 -1.24153 3.76035 0
M  V30 10894 H 1014.12 1.55886 4.33631 0
M  V30 10895 H 1012.43 1.25878 3.96918 0
M  V30 10896 H 1015.03 -1.23406 5.20264 0
M  V30 10897 H 1015.37 -1.98084 3.66154 0
M  V30 10898 H 1015.91 -0.309554 3.96594 0
M  V30 10899 H 1012.65 1.45035 6.39254 0
M  V30 10900 H 1012.17 -0.215254 5.99414 0
M  V30 10901 H 1013.84 0.143006 6.46842 0
M  V30 10902 N 1013.98 -1.5736 0.0868897 0
M  V30 10903 C 1015.2 -1.98809 -0.590757 0
M  V30 10904 C 1015.63 -0.965407 -1.61436 0
M  V30 10905 O 1014.98 0.067143 -1.81176 0
M  V30 10906 C 1015.03 -3.39249 -1.22238 0
M  V30 10907 O 1014.14 -3.39706 -2.33824 0
M  V30 10908 H 1013.48 -0.64669 -0.150626 0
M  V30 10909 H 1016.01 -2.03927 0.165873 0
M  V30 10910 H 1016.02 -3.76765 -1.56564 0
M  V30 10911 H 1014.69 -4.13208 -0.472434 0
M  V30 10912 H 1013.27 -3.13977 -2.01178 0
M  V30 10913 N 1015.45 0.186762 -1.56489 0
M  V30 10914 C 1016.38 1.23395 -1.98232 0
M  V30 10915 C 1017.37 1.4702 -0.855526 0
M  V30 10916 O 1018.55 1.58616 -1.12048 0
M  V30 10917 C 1015.68 2.57635 -2.32898 0
M  V30 10918 C 1014.63 2.48607 -3.48394 0
M  V30 10919 C 1013.96 3.87196 -3.68759 0
M  V30 10920 C 1015.26 2.00398 -4.82325 0
M  V30 10921 H 1016.95 0.887026 -2.85958 0
M  V30 10922 H 1014.5 0.42525 -1.37578 0
M  V30 10923 H 1016.45 3.31082 -2.60696 0
M  V30 10924 H 1015.18 2.94084 -1.42064 0
M  V30 10925 H 1013.84 1.77615 -3.207 0
M  V30 10926 H 1013.48 4.21012 -2.75241 0
M  V30 10927 H 1013.18 3.82029 -4.46462 0
M  V30 10928 H 1014.71 4.62253 -3.98941 0
M  V30 10929 H 1016.12 2.6361 -5.091 0
M  V30 10930 H 1014.52 2.06214 -5.63556 0
M  V30 10931 H 1015.59 0.957562 -4.75351 0
M  V30 10932 N 1016.93 1.50896 0.454776 0
M  V30 10933 C 1017.88 1.71497 1.57136 0
M  V30 10934 C 1018.87 0.58098 1.59126 0
M  V30 10935 O 1020.08 0.761916 1.63079 0
M  V30 10936 H 1016.46 0.54158 0.521724 0
M  V30 10937 H 1018.43 2.65129 1.36928 0
M  V30 10938 C 1017.18 1.84125 2.94947 0
M  V30 10939 H 1016.5 2.7078 2.9414 0
M  V30 10940 H 1017.94 2.02558 3.72487 0
M  V30 10941 C 1016.4 0.596752 3.31573 0
M  V30 10942 O 1016.93 -0.256632 4.00879 0
M  V30 10943 N 1015.13 0.445958 2.87158 0
M  V30 10944 H 1014.68 1.14146 2.30929 0
M  V30 10945 H 1014.64 -0.385519 3.12027 0
M  V30 10946 N 1018.41 -0.709066 1.40748 0
M  V30 10947 C 1019.64 -1.50313 1.42901 0
M  V30 10948 C 1020.06 -1.88072 0.032213 0
M  V30 10949 O 1019.42 -1.53716 -0.96131 0
M  V30 10950 C 1019.47 -2.75074 2.33166 0
M  V30 10951 O 1018.57 -3.72036 1.7794 0
M  V30 10952 H 1017.91 -0.452934 0.485538 0
M  V30 10953 H 1020.44 -0.872712 1.85054 0
M  V30 10954 H 1020.45 -3.23532 2.48578 0
M  V30 10955 H 1019.13 -2.46927 3.34664 0
M  V30 10956 H 1017.7 -3.30911 1.71908 0
M  V30 10957 N 1019.89 -1.26353 -0.941956 0
M  V30 10958 C 1021.11 -1.14731 -1.72776 0
M  V30 10959 C 1021.54 0.293766 -1.85792 0
M  V30 10960 O 1020.9 1.21284 -1.34759 0
M  V30 10961 C 1020.95 -1.82041 -3.11277 0
M  V30 10962 O 1020.05 -1.10867 -3.97218 0
M  V30 10963 H 1019.39 -0.399823 -0.53013 0
M  V30 10964 H 1021.92 -1.67157 -1.17981 0
M  V30 10965 H 1021.93 -1.88834 -3.61671 0
M  V30 10966 H 1020.61 -2.86879 -3.0112 0
M  V30 10967 H 1019.18 -1.12044 -3.55669 0
M  V30 10968 N 1021.37 1.14642 -1.08144 0
M  V30 10969 C 1022.78 1.6719 -0.830923 0
M  V30 10970 C 1023.13 1.85373 0.642749 0
M  V30 10971 O 1022.25 1.56293 1.49671 0
M  V30 10972 C 1022.85 3.03697 -1.50179 0
M  V30 10973 C 1021.41 3.5329 -1.29858 0
M  V30 10974 C 1020.56 2.28828 -1.5663 0
M  V30 10975 H 1023.51 0.987441 -1.24239 0
M  V30 10976 H 1023.53 3.69023 -0.9275 0
M  V30 10977 H 1023.04 2.90431 -2.57432 0
M  V30 10978 H 1021.14 3.71783 -0.246626 0
M  V30 10979 H 1021.25 4.34231 -2.02436 0
M  V30 10980 H 1019.62 2.34769 -0.987716 0
M  V30 10981 H 1020.4 2.18141 -2.65084 0
M  V30 10982 N 1022.85 0.866709 1.31628 0
M  V30 10983 C 1024.26 0.558188 1.49521 0
M  V30 10984 C 1024.46 -0.90844 1.7986 0
M  V30 10985 O 1023.52 -1.6908 1.87531 0
M  V30 10986 C 1024.83 1.45559 2.63122 0
M  V30 10987 C 1026.38 1.45728 2.77006 0
M  V30 10988 C 1026.85 2.34017 3.937 0
M  V30 10989 N 1028.34 2.31879 4.00982 0
M  V30 10990 C 1029.08 2.96915 4.90539 0
M  V30 10991 N 1028.58 3.71109 5.85021 0
M  V30 10992 N 1030.37 2.86241 4.83759 0
M  V30 10993 H 1022.52 1.81574 1.10203 0
M  V30 10994 H 1024.78 0.77621 0.544244 0
M  V30 10995 H 1024.49 2.49904 2.47469 0
M  V30 10996 H 1024.36 1.15174 3.59186 0
M  V30 10997 H 1026.75 0.421419 2.92075 0
M  V30 10998 H 1026.83 1.80134 1.81619 0
M  V30 10999 H 1026.47 3.37678 3.79389 0
M  V30 11000 H 1026.4 1.96937 4.88388 0
M  V30 11001 H 1028.9 1.77948 3.33381 0
M  V30 11002 H 1029.21 4.1787 6.5008 0
M  V30 11003 H 1027.55 3.75217 5.8501 0
M  V30 11004 H 1030.74 2.27819 4.08921 0
M  V30 11005 H 1030.92 3.37206 5.5335 0
M  V30 11006 N 1024.32 -1.44642 0.625825 0
M  V30 11007 C 1025.57 -2.01695 0.127948 0
M  V30 11008 C 1025.89 -1.49439 -1.25271 0
M  V30 11009 O 1025.16 -0.695873 -1.83124 0
M  V30 11010 H 1023.74 -0.745685 0.0443096 0
M  V30 11011 H 1026.4 -1.7721 0.811332 0
M  V30 11012 H 1025.5 -3.11966 0.0915933 0
M  V30 11013 N 1025.8 -0.366053 -1.5329 0
M  V30 11014 C 1027.22 -0.0150149 -1.59593 0
M  V30 11015 C 1027.42 1.46719 -1.38116 0
M  V30 11016 O 1026.47 2.22884 -1.18656 0
M  V30 11017 C 1027.79 -0.471374 -2.96982 0
M  V30 11018 C 1029.33 -0.425634 -3.10092 0
M  V30 11019 C 1029.81 -0.857812 -4.49895 0
M  V30 11020 N 1031.3 -0.81289 -4.56011 0
M  V30 11021 C 1032.04 -1.11898 -5.62376 0
M  V30 11022 N 1031.53 -1.49436 -6.76491 0
M  V30 11023 N 1033.32 -1.04174 -5.52362 0
M  V30 11024 H 1025.48 -1.33127 -1.65502 0
M  V30 11025 H 1027.74 -0.544172 -0.776261 0
M  V30 11026 H 1027.44 -1.50569 -3.1784 0
M  V30 11027 H 1027.32 0.141764 -3.76934 0
M  V30 11028 H 1029.71 0.599548 -2.88945 0
M  V30 11029 H 1029.79 -1.07427 -2.32149 0
M  V30 11030 H 1029.43 -1.88111 -4.7178 0
M  V30 11031 H 1029.36 -0.186419 -5.2627 0
M  V30 11032 H 1031.85 -0.536343 -3.74075 0
M  V30 11033 H 1032.16 -1.71217 -7.53594 0
M  V30 11034 H 1030.51 -1.53302 -6.77882 0
M  V30 11035 H 1033.7 -0.747654 -4.62091 0
M  V30 11036 H 1033.87 -1.28362 -6.35159 0
M  V30 11037 N 1027.28 1.57312 -0.0952337 0
M  V30 11038 C 1028.51 1.98409 0.575984 0
M  V30 11039 C 1028.92 0.973168 1.62253 0
M  V30 11040 O 1028.26 -0.0454416 1.83644 0
M  V30 11041 C 1028.32 3.35877 1.28167 0
M  V30 11042 C 1027.99 4.55368 0.385868 0
M  V30 11043 C 1028.98 5.1861 -0.366041 0
M  V30 11044 C 1026.67 5.0138 0.303885 0
M  V30 11045 C 1028.66 6.26233 -1.18791 0
M  V30 11046 C 1026.35 6.0887 -0.521637 0
M  V30 11047 C 1027.35 6.71161 -1.26618 0
M  V30 11048 O 1027.04 7.76577 -2.07804 0
M  V30 11049 H 1026.77 0.657018 0.159068 0
M  V30 11050 H 1029.32 2.04685 -0.171237 0
M  V30 11051 H 1027.55 3.26284 2.07547 0
M  V30 11052 H 1029.24 3.6142 1.84744 0
M  V30 11053 H 1030.01 4.83993 -0.312435 0
M  V30 11054 H 1025.89 4.52657 0.873065 0
M  V30 11055 H 1029.43 6.74784 -1.76955 0
M  V30 11056 H 1025.33 6.42918 -0.576722 0
M  V30 11057 H 1026.09 7.93566 -2.00489 0
M  V30 11058 N 1028.76 -0.17846 1.56586 0
M  V30 11059 C 1029.98 -0.916061 1.86073 0
M  V30 11060 C 1030.41 -1.75349 0.680754 0
M  V30 11061 O 1029.77 -1.77479 -0.37028 0
M  V30 11062 C 1029.81 -1.77445 3.1392 0
M  V30 11063 O 1028.92 -2.87524 2.95641 0
M  V30 11064 H 1028.26 -0.257031 0.612234 0
M  V30 11065 H 1030.79 -0.178755 2.03818 0
M  V30 11066 H 1030.8 -2.1758 3.45142 0
M  V30 11067 H 1029.47 -1.15927 3.99417 0
M  V30 11068 H 1028.05 -2.51023 2.75757 0
M  V30 11069 N 1030.24 -1.51135 -0.446768 0
M  V30 11070 C 1031.48 -1.63013 -1.19461 0
M  V30 11071 C 1031.8 -0.344067 -1.91941 0
M  V30 11072 O 1031.07 0.639666 -1.85162 0
M  V30 11073 H 1029.65 -0.600757 -0.443959 0
M  V30 11074 H 1032.32 -1.88024 -0.513137 0
M  V30 11075 H 1031.41 -2.45322 -1.92933 0
M  V30 11076 N 1031.71 0.701592 -1.41122 0
M  V30 11077 C 1032.66 1.81559 -1.42495 0
M  V30 11078 C 1033.63 1.63722 -0.280078 0
M  V30 11079 O 1034.82 1.84658 -0.480231 0
M  V30 11080 C 1031.96 3.19392 -1.30702 0
M  V30 11081 C 1031.07 3.48704 -2.55009 0
M  V30 11082 C 1030.2 4.76118 -2.35554 0
M  V30 11083 C 1029.24 4.98378 -3.55367 0
M  V30 11084 N 1028.38 6.17014 -3.3502 0
M  V30 11085 H 1033.22 1.7972 -2.37707 0
M  V30 11086 H 1030.76 0.877727 -1.18044 0
M  V30 11087 H 1032.71 3.99004 -1.21867 0
M  V30 11088 H 1031.34 3.20423 -0.391012 0
M  V30 11089 H 1030.4 2.63542 -2.74317 0
M  V30 11090 H 1031.71 3.61057 -3.44151 0
M  V30 11091 H 1030.86 5.63774 -2.24152 0
M  V30 11092 H 1029.6 4.66 -1.43859 0
M  V30 11093 H 1028.61 4.09172 -3.6723 0
M  V30 11094 H 1029.83 5.10359 -4.48007 0
M  V30 11095 H 1027.78 6.0812 -2.4602 0
M  V30 11096 H 1027.69 6.30107 -4.17733 0
M  V30 11097 H 1028.96 7.0742 -3.27379 0
M  V30 11098 N 1033.19 1.2685 0.935242 0
M  V30 11099 C 1034.42 1.15645 1.72165 0
M  V30 11100 C 1034.84 -0.283909 1.85945 0
M  V30 11101 O 1034.2 -1.20567 1.354 0
M  V30 11102 C 1034.25 1.83689 3.10307 0
M  V30 11103 O 1033.35 1.12972 3.96625 0
M  V30 11104 H 1032.69 0.402629 0.528002 0
M  V30 11105 H 1035.22 1.67781 1.17093 0
M  V30 11106 H 1035.23 1.90749 3.60664 0
M  V30 11107 H 1033.91 2.88472 2.99595 0
M  V30 11108 H 1032.48 1.13929 3.5507 0
M  V30 11109 N 1034.67 -1.14067 1.0875 0
M  V30 11110 C 1035.6 -2.18926 0.67852 0
M  V30 11111 C 1036.62 -1.60441 -0.276163 0
M  V30 11112 O 1037.8 -1.78388 -0.0632788 0
M  V30 11113 C 1034.9 -3.38893 -0.0218852 0
M  V30 11114 C 1034.08 -4.26901 0.952582 0
M  V30 11115 C 1033.14 -5.25418 0.286859 0
M  V30 11116 O 1032.16 -5.61512 0.932354 0
M  V30 11117 N 1033.36 -5.72476 -0.961831 0
M  V30 11118 H 1036.13 -2.54629 1.58063 0
M  V30 11119 H 1033.69 -1.29321 0.974042 0
M  V30 11120 H 1035.68 -4.01864 -0.478278 0
M  V30 11121 H 1034.25 -3.01486 -0.826141 0
M  V30 11122 H 1033.47 -3.60812 1.58772 0
M  V30 11123 H 1034.76 -4.82563 1.61279 0
M  V30 11124 H 1034.16 -5.45287 -1.50594 0
M  V30 11125 H 1032.72 -6.37418 -1.36166 0
M  V30 11126 N 1036.15 -0.873678 -1.31166 0
M  V30 11127 C 1037.1 -0.303699 -2.25968 0
M  V30 11128 C 1038.08 0.561387 -1.50789 0
M  V30 11129 O 1039.27 0.407658 -1.72242 0
M  V30 11130 C 1036.4 0.490612 -3.39776 0
M  V30 11131 C 1035.49 -0.387927 -4.22322 0
M  V30 11132 N 1035.88 -1.48313 -4.83567 0
M  V30 11133 C 1034.18 -0.18102 -4.45632 0
M  V30 11134 C 1034.88 -2.0252 -5.45308 0
M  V30 11135 N 1033.86 -1.32169 -5.27288 0
M  V30 11136 H 1037.66 -1.14071 -2.7086 0
M  V30 11137 H 1035.17 -0.721843 -1.45476 0
M  V30 11138 H 1037.17 0.9155 -4.06724 0
M  V30 11139 H 1035.83 1.32519 -2.96427 0
M  V30 11140 H 1036.84 -1.86604 -4.83114 0
M  V30 11141 H 1033.52 0.617304 -4.12911 0
M  V30 11142 H 1034.91 -2.94429 -6.03955 0
M  V30 11143 N 1037.63 1.44308 -0.633487 0
M  V30 11144 C 1038.85 2.06897 -0.144347 0
M  V30 11145 C 1039.28 1.47045 1.173 0
M  V30 11146 O 1038.63 0.572806 1.72013 0
M  V30 11147 C 1038.68 3.60571 -0.0456324 0
M  V30 11148 O 1037.79 4.0015 0.997682 0
M  V30 11149 H 1037.13 0.658427 -0.0858499 0
M  V30 11150 H 1039.66 1.85142 -0.870833 0
M  V30 11151 H 1039.67 4.07745 0.144178 0
M  V30 11152 H 1038.34 4.03515 -1.0074 0
M  V30 11153 H 1036.92 3.64603 0.782252 0
M  V30 11154 N 1039.1 0.374177 1.53094 0
M  V30 11155 C 1040.33 -0.213325 2.05797 0
M  V30 11156 C 1040.75 -1.41753 1.24706 0
M  V30 11157 O 1040.1 -1.80183 0.289868 0
M  V30 11158 C 1040.16 -0.598367 3.56513 0
M  V30 11159 O 1039.88 0.557983 4.34532 0
M  V30 11160 C 1041.38 -1.24334 4.25507 0
M  V30 11161 H 1038.6 -0.0357398 0.670048 0
M  V30 11162 H 1041.14 0.535035 1.97377 0
M  V30 11163 H 1039.3 -1.29663 3.65056 0
M  V30 11164 H 1039.71 0.244911 5.23928 0
M  V30 11165 H 1041.18 -1.46325 5.32253 0
M  V30 11166 H 1041.66 -2.20622 3.79766 0
M  V30 11167 H 1042.27 -0.586269 4.2124 0
M  V30 11168 N 1040.58 -1.57259 0.103575 0
M  V30 11169 C 1041.99 -1.81816 -0.424239 0
M  V30 11170 C 1042.34 -1.01976 -1.67617 0
M  V30 11171 O 1041.47 -0.251673 -2.14932 0
M  V30 11172 C 1042.06 -3.29783 -0.776453 0
M  V30 11173 C 1040.62 -3.55074 -1.24897 0
M  V30 11174 C 1039.77 -2.76172 -0.249875 0
M  V30 11175 H 1042.72 -1.55254 0.328913 0
M  V30 11176 H 1042.74 -3.43569 -1.63526 0
M  V30 11177 H 1042.25 -3.87865 0.134906 0
M  V30 11178 H 1040.36 -3.02332 -2.17775 0
M  V30 11179 H 1040.47 -4.637 -1.20495 0
M  V30 11180 H 1038.83 -2.43902 -0.733767 0
M  V30 11181 H 1039.62 -3.37007 0.65431 0
M  V30 11182 N 1042.06 0.170153 -1.56679 0
M  V30 11183 C 1043.29 0.90618 -1.86556 0
M  V30 11184 C 1043.71 1.74986 -0.690044 0
M  V30 11185 O 1043.07 1.77672 0.360862 0
M  V30 11186 C 1043.12 1.75777 -3.14857 0
M  V30 11187 O 1042.22 2.85952 -2.97162 0
M  V30 11188 H 1041.56 0.253781 -0.613589 0
M  V30 11189 H 1044.09 0.167943 -2.0391 0
M  V30 11190 H 1044.1 2.15747 -3.46291 0
M  V30 11191 H 1042.78 1.13807 -4.00026 0
M  V30 11192 H 1041.35 2.49557 -2.77084 0
M  V30 11193 N 1043.54 1.5137 0.438746 0
M  V30 11194 C 1044.95 1.39514 0.775116 0
M  V30 11195 C 1045.15 0.47638 1.95788 0
M  V30 11196 O 1044.21 -0.0689832 2.52406 0
M  V30 11197 C 1045.52 2.81517 1.05681 0
M  V30 11198 C 1047.07 2.90658 1.16133 0
M  V30 11199 C 1047.55 4.33566 1.47597 0
M  V30 11200 N 1049.04 4.36665 1.54524 0
M  V30 11201 C 1049.77 5.4427 1.80438 0
M  V30 11202 N 1049.27 6.62037 2.04154 0
M  V30 11203 N 1051.06 5.31749 1.82208 0
M  V30 11204 H 1043.21 2.09657 -0.340237 0
M  V30 11205 H 1045.48 0.943736 -0.0898115 0
M  V30 11206 H 1045.18 3.50734 0.260441 0
M  V30 11207 H 1045.06 3.20757 1.98481 0
M  V30 11208 H 1047.44 2.2164 1.94833 0
M  V30 11209 H 1047.52 2.54917 0.212376 0
M  V30 11210 H 1047.17 5.03133 0.694251 0
M  V30 11211 H 1047.1 4.66819 2.43696 0
M  V30 11212 H 1049.59 3.51761 1.38105 0
M  V30 11213 H 1049.9 7.39838 2.23293 0
M  V30 11214 H 1048.25 6.65155 2.01479 0
M  V30 11215 H 1051.44 4.3873 1.63198 0
M  V30 11216 H 1051.61 6.15689 2.02067 0
M  V30 11217 N 1045.02 -0.694098 1.41492 0
M  V30 11218 C 1046.26 -1.45127 1.4065 0
M  V30 11219 C 1046.59 -1.94993 0.0170289 0
M  V30 11220 O 1045.86 -1.71799 -0.941372 0
M  V30 11221 H 1044.44 -0.538493 0.51772 0
M  V30 11222 H 1047.1 -0.821441 1.76744 0
M  V30 11223 H 1046.19 -2.31372 2.0946 0
M  V30 11224 N 1046.49 -1.27344 -0.928501 0
M  V30 11225 C 1047.91 -1.04732 -1.2043 0
M  V30 11226 C 1048.11 0.219623 -2.003 0
M  V30 11227 O 1047.17 0.925333 -2.34934 0
M  V30 11228 C 1048.48 -2.28625 -1.95323 0
M  V30 11229 C 1050.03 -2.33655 -2.08265 0
M  V30 11230 C 1050.5 -3.57275 -2.86563 0
M  V30 11231 N 1051.99 -3.57828 -2.94132 0
M  V30 11232 C 1052.73 -4.50152 -3.55177 0
M  V30 11233 N 1052.22 -5.52779 -4.17621 0
M  V30 11234 N 1054.02 -4.37777 -3.52573 0
M  V30 11235 H 1046.17 -2.08697 -0.394892 0
M  V30 11236 H 1048.43 -0.91782 -0.2373 0
M  V30 11237 H 1048.14 -3.20845 -1.44054 0
M  V30 11238 H 1048.01 -2.33878 -2.95941 0
M  V30 11239 H 1050.4 -1.41942 -2.58721 0
M  V30 11240 H 1050.48 -2.32406 -1.0687 0
M  V30 11241 H 1050.12 -4.49325 -2.3679 0
M  V30 11242 H 1050.05 -3.55775 -3.88242 0
M  V30 11243 H 1052.54 -2.83607 -2.49751 0
M  V30 11244 H 1052.86 -6.19394 -4.62137 0
M  V30 11245 H 1051.2 -5.56622 -4.16169 0
M  V30 11246 H 1054.39 -3.56811 -3.02991 0
M  V30 11247 H 1054.57 -5.09919 -3.99858 0
M  V30 11248 N 1047.97 1.13488 -1.09353 0
M  V30 11249 C 1049.2 1.88319 -0.849681 0
M  V30 11250 C 1049.61 1.79347 0.602616 0
M  V30 11251 O 1048.95 1.15744 1.4265 0
M  V30 11252 C 1049.02 3.38698 -1.20514 0
M  V30 11253 C 1048.68 3.71452 -2.66219 0
M  V30 11254 C 1049.68 3.70755 -3.64467 0
M  V30 11255 C 1047.36 4.01132 -3.02321 0
M  V30 11256 C 1049.36 3.9928 -4.96845 0
M  V30 11257 C 1047.04 4.29318 -4.3489 0
M  V30 11258 C 1048.04 4.28376 -5.31961 0
M  V30 11259 O 1047.73 4.55872 -6.62145 0
M  V30 11260 H 1047.46 0.603053 -0.305455 0
M  V30 11261 H 1050.01 1.44592 -1.45884 0
M  V30 11262 H 1048.24 3.82925 -0.539022 0
M  V30 11263 H 1049.93 3.94852 -0.940552 0
M  V30 11264 H 1050.7 3.47901 -3.3792 0
M  V30 11265 H 1046.58 4.01013 -2.27398 0
M  V30 11266 H 1050.12 3.9846 -5.72604 0
M  V30 11267 H 1046.02 4.51644 -4.61181 0
M  V30 11268 H 1046.79 4.73544 -6.67607 0
M  V30 11269 N 1049.45 0.880621 1.30701 0
M  V30 11270 C 1050.86 0.547993 1.78477 0
M  V30 11271 C 1051.21 -0.935633 1.72454 0
M  V30 11272 O 1050.34 -1.73094 1.29874 0
M  V30 11273 C 1050.93 0.98795 3.24076 0
M  V30 11274 C 1049.49 0.706805 3.69704 0
M  V30 11275 C 1048.64 1.17335 2.51252 0
M  V30 11276 H 1051.59 1.06528 1.17633 0
M  V30 11277 H 1051.61 0.31508 3.79193 0
M  V30 11278 H 1051.12 2.06778 3.28427 0
M  V30 11279 H 1049.22 -0.36122 3.70845 0
M  V30 11280 H 1049.34 1.2913 4.6137 0
M  V30 11281 H 1047.7 0.592808 2.47705 0
M  V30 11282 H 1048.48 2.26083 2.58343 0
M  V30 11283 N 1050.93 -1.4397 0.641131 0
M  V30 11284 C 1052.18 -2.01548 0.149333 0
M  V30 11285 C 1052.5 -1.50759 -1.23679 0
M  V30 11286 O 1051.77 -0.715257 -1.82376 0
M  V30 11287 H 1050.35 -0.745173 0.0522161 0
M  V30 11288 H 1053.01 -1.7634 0.830082 0
M  V30 11289 H 1052.11 -3.11851 0.124676 0
M  V30 11290 N 1052.41 -0.382291 -1.52893 0
M  V30 11291 C 1053.35 0.456234 -2.26246 0
M  V30 11292 C 1054.32 1.06366 -1.27575 0
M  V30 11293 O 1055.51 1.09301 -1.5639 0
M  V30 11294 C 1052.65 1.5813 -3.06739 0
M  V30 11295 C 1051.76 0.997416 -4.20328 0
M  V30 11296 C 1050.9 2.09296 -4.8823 0
M  V30 11297 C 1049.94 1.4846 -5.93823 0
M  V30 11298 N 1049.07 2.51916 -6.55349 0
M  V30 11299 H 1053.91 -0.175761 -2.97481 0
M  V30 11300 H 1051.45 -0.0985046 -1.4677 0
M  V30 11301 H 1053.41 2.24426 -3.51694 0
M  V30 11302 H 1052.04 2.18371 -2.37727 0
M  V30 11303 H 1051.09 0.224251 -3.79738 0
M  V30 11304 H 1052.4 0.512784 -4.96157 0
M  V30 11305 H 1051.56 2.83377 -5.36453 0
M  V30 11306 H 1050.3 2.61116 -4.1191 0
M  V30 11307 H 1049.3 0.729001 -5.44946 0
M  V30 11308 H 1050.53 0.97443 -6.72073 0
M  V30 11309 H 1048.47 3.02919 -5.81873 0
M  V30 11310 H 1048.39 2.08188 -7.26769 0
M  V30 11311 H 1049.66 3.25649 -7.08218 0
M  V30 11312 N 1053.89 1.57202 -0.111913 0
M  V30 11313 C 1055.13 1.9495 0.547795 0
M  V30 11314 C 1055.46 0.994763 1.67137 0
M  V30 11315 O 1054.72 0.0173528 1.95692 0
M  V30 11316 C 1055.01 3.39152 1.12741 0
M  V30 11317 C 1054.68 4.50724 0.125916 0
M  V30 11318 C 1053.34 4.80968 -0.149489 0
M  V30 11319 C 1055.69 5.18215 -0.556987 0
M  V30 11320 C 1053.02 5.76023 -1.1142 0
M  V30 11321 C 1055.37 6.14307 -1.51029 0
M  V30 11322 C 1054.04 6.42947 -1.79375 0
M  V30 11323 H 1053.31 0.713372 0.200453 0
M  V30 11324 H 1055.96 1.90542 -0.191316 0
M  V30 11325 H 1054.26 3.4022 1.94313 0
M  V30 11326 H 1055.96 3.65668 1.64584 0
M  V30 11327 H 1052.55 4.27162 0.350756 0
M  V30 11328 H 1056.73 4.95012 -0.357378 0
M  V30 11329 H 1051.99 5.9652 -1.34064 0
M  V30 11330 H 1056.16 6.65692 -2.04516 0
M  V30 11331 H 1053.79 7.1641 -2.54284 0
M  V30 11332 N 1055.36 -0.161842 1.56767 0
M  V30 11333 C 1056.59 -0.890953 1.86402 0
M  V30 11334 C 1057 -1.75918 0.696373 0
M  V30 11335 O 1056.34 -1.80461 -0.343463 0
M  V30 11336 C 1056.41 -1.81079 3.10565 0
M  V30 11337 C 1056.07 -1.12121 4.43032 0
M  V30 11338 C 1057.07 -0.482152 5.17659 0
M  V30 11339 C 1054.75 -1.11514 4.89765 0
M  V30 11340 C 1056.75 0.153772 6.37214 0
M  V30 11341 C 1054.43 -0.4754 6.09248 0
M  V30 11342 C 1055.43 0.157944 6.82817 0
M  V30 11343 O 1055.12 0.787579 8.00033 0
M  V30 11344 H 1054.85 -0.26379 0.622407 0
M  V30 11345 H 1057.41 -0.163884 2.04745 0
M  V30 11346 H 1055.64 -2.57842 2.88192 0
M  V30 11347 H 1057.32 -2.41056 3.26568 0
M  V30 11348 H 1058.09 -0.478752 4.82631 0
M  V30 11349 H 1053.97 -1.59752 4.32435 0
M  V30 11350 H 1057.51 0.648716 6.94577 0
M  V30 11351 H 1053.41 -0.476416 6.43739 0
M  V30 11352 H 1054.18 0.687769 8.15605 0
M  V30 11353 N 1056.84 -1.516 -0.430713 0
M  V30 11354 C 1058.26 -1.39923 -0.767706 0
M  V30 11355 C 1058.46 -0.486756 -1.95532 0
M  V30 11356 O 1057.51 0.0555965 -2.52439 0
M  V30 11357 C 1058.83 -2.82074 -1.04187 0
M  V30 11358 C 1060.37 -2.9127 -1.1459 0
M  V30 11359 C 1060.85 -4.34342 -1.45295 0
M  V30 11360 N 1062.34 -4.37479 -1.52206 0
M  V30 11361 C 1063.08 -5.45219 -1.77549 0
M  V30 11362 N 1062.57 -6.6311 -2.0064 0
M  V30 11363 N 1064.36 -5.32707 -1.79386 0
M  V30 11364 H 1056.52 -2.09474 0.351351 0
M  V30 11365 H 1058.78 -0.943247 0.0948151 0
M  V30 11366 H 1058.48 -3.50868 -0.241837 0
M  V30 11367 H 1058.36 -3.21805 -1.96777 0
M  V30 11368 H 1060.75 -2.2267 -1.93655 0
M  V30 11369 H 1060.83 -2.55026 -0.198854 0
M  V30 11370 H 1060.47 -5.03494 -0.667559 0
M  V30 11371 H 1060.4 -4.68105 -2.41217 0
M  V30 11372 H 1062.89 -3.52488 -1.36237 0
M  V30 11373 H 1063.2 -7.41012 -2.19366 0
M  V30 11374 H 1061.55 -6.66214 -1.97948 0
M  V30 11375 H 1064.74 -4.39589 -1.60869 0
M  V30 11376 H 1064.91 -6.16752 -1.98799 0
M  V30 11377 N 1058.32 0.686584 -1.41858 0
M  V30 11378 C 1059.57 1.44879 -1.41908 0
M  V30 11379 C 1059.9 1.94175 -0.0311408 0
M  V30 11380 O 1059.17 1.70131 0.942646 0
M  V30 11381 C 1059.46 2.65428 -2.43352 0
M  V30 11382 C 1059.31 2.2184 -3.91289 0
M  V30 11383 C 1060.63 3.67635 -2.41934 0
M  V30 11384 H 1057.75 0.525477 -0.516762 0
M  V30 11385 H 1060.39 0.781263 -1.73194 0
M  V30 11386 H 1058.54 3.2238 -2.16803 0
M  V30 11387 H 1060.21 1.70146 -4.28775 0
M  V30 11388 H 1058.45 1.53531 -4.05722 0
M  V30 11389 H 1059.13 3.08376 -4.5783 0
M  V30 11390 H 1061.6 3.20376 -2.65516 0
M  V30 11391 H 1060.48 4.49579 -3.14913 0
M  V30 11392 H 1060.74 4.17953 -1.44111 0
M  V30 11393 N 1059.8 1.27835 0.921735 0
M  V30 11394 C 1061.02 1.17465 1.70929 0
M  V30 11395 C 1061.45 -0.264171 1.86236 0
M  V30 11396 O 1060.81 -1.19124 1.36671 0
M  V30 11397 C 1060.85 1.8697 3.08342 0
M  V30 11398 O 1059.96 1.17173 3.95404 0
M  V30 11399 H 1059.3 0.408206 0.523702 0
M  V30 11400 H 1061.83 1.69013 1.15307 0
M  V30 11401 H 1061.84 1.94564 3.58621 0
M  V30 11402 H 1060.51 2.91633 2.96518 0
M  V30 11403 H 1059.09 1.17688 3.53842 0
M  V30 11404 N 1061.28 -1.12907 1.09954 0
M  V30 11405 C 1062.21 -2.18194 0.701701 0
M  V30 11406 C 1063.22 -1.60724 -0.259131 0
M  V30 11407 O 1064.41 -1.78445 -0.0443549 0
M  V30 11408 C 1061.51 -3.38897 0.0140602 0
M  V30 11409 C 1060.68 -4.25867 0.997807 0
M  V30 11410 C 1059.74 -5.25084 0.34257 0
M  V30 11411 O 1058.77 -5.60492 0.991857 0
M  V30 11412 N 1059.97 -5.73464 -0.901058 0
M  V30 11413 H 1062.73 -2.52939 1.60755 0
M  V30 11414 H 1060.3 -1.28281 0.987703 0
M  V30 11415 H 1062.29 -4.02349 -0.435628 0
M  V30 11416 H 1060.86 -3.02345 -0.794118 0
M  V30 11417 H 1060.08 -3.59107 1.6259 0
M  V30 11418 H 1061.37 -4.80825 1.66388 0
M  V30 11419 H 1060.76 -5.46854 -1.44802 0
M  V30 11420 H 1059.32 -6.38827 -1.29398 0
M  V30 11421 N 1062.75 -0.88754 -1.30232 0
M  V30 11422 C 1063.98 -0.521562 -2.00735 0
M  V30 11423 C 1064.4 0.883247 -1.66073 0
M  V30 11424 O 1063.76 1.58581 -0.878731 0
M  V30 11425 C 1063.81 -0.706521 -3.53611 0
M  V30 11426 O 1062.91 0.246447 -4.11663 0
M  V30 11427 H 1062.25 -0.205216 -0.631492 0
M  V30 11428 H 1064.78 -1.19579 -1.66018 0
M  V30 11429 H 1064.79 -0.606501 -4.03467 0
M  V30 11430 H 1063.47 -1.73076 -3.78177 0
M  V30 11431 H 1062.05 0.0999062 -3.72766 0
M  V30 11432 N 1064.23 1.43628 -0.648757 0
M  V30 11433 C 1065.2 2.29172 0.0360713 0
M  V30 11434 C 1066.2 1.41974 0.754976 0
M  V30 11435 O 1067.39 1.63654 0.5969 0
M  V30 11436 C 1064.52 3.23942 1.0618 0
M  V30 11437 H 1065.71 2.91214 -0.716544 0
M  V30 11438 H 1063.26 1.50833 -0.409759 0
M  V30 11439 H 1064 2.66786 1.8438 0
M  V30 11440 H 1063.78 3.88223 0.550016 0
M  V30 11441 H 1065.27 3.8816 1.54019 0
M  V30 11442 N 1065.71 0.390394 1.52688 0
M  V30 11443 C 1066.64 -0.43567 2.294 0
M  V30 11444 C 1067.62 -1.06253 1.32832 0
M  V30 11445 O 1068.81 -1.07509 1.61726 0
M  V30 11446 C 1065.94 -1.56259 3.10162 0
M  V30 11447 C 1064.89 -1.06172 4.14622 0
M  V30 11448 C 1064.22 -2.2808 4.83615 0
M  V30 11449 C 1065.52 -0.128902 5.22141 0
M  V30 11450 H 1067.21 0.204384 2.98702 0
M  V30 11451 H 1064.76 0.0997377 1.43654 0
M  V30 11452 H 1066.71 -2.14732 3.62585 0
M  V30 11453 H 1065.43 -2.23025 2.38595 0
M  V30 11454 H 1064.09 -0.499518 3.63181 0
M  V30 11455 H 1063.74 -2.93358 4.08595 0
M  V30 11456 H 1063.44 -1.95227 5.5422 0
M  V30 11457 H 1064.96 -2.87193 5.38844 0
M  V30 11458 H 1066.38 -0.621849 5.69917 0
M  V30 11459 H 1064.78 0.109919 5.99999 0
M  V30 11460 H 1065.85 0.821884 4.77884 0
M  V30 11461 N 1067.19 -1.57141 0.120249 0
M  V30 11462 C 1068.14 -2.16638 -0.846809 0
M  V30 11463 C 1069.13 -1.11594 -1.27449 0
M  V30 11464 O 1070.34 -1.29895 -1.24608 0
M  V30 11465 H 1066.71 -0.693331 -0.291197 0
M  V30 11466 H 1068.68 -2.96673 -0.320536 0
M  V30 11467 C 1067.43 -2.78134 -2.08655 0
M  V30 11468 H 1066.75 -3.58662 -1.76639 0
M  V30 11469 H 1068.19 -3.23301 -2.74322 0
M  V30 11470 C 1066.65 -1.7528 -2.87713 0
M  V30 11471 O 1067.18 -1.20693 -3.8314 0
M  V30 11472 N 1065.39 -1.45192 -2.51729 0
M  V30 11473 H 1064.94 -1.89773 -1.74195 0
M  V30 11474 H 1064.89 -0.766166 -3.04922 0
M  V30 11475 N 1068.67 0.153526 -1.5685 0
M  V30 11476 C 1070.08 0.714247 -1.72498 0
M  V30 11477 C 1070.43 1.81968 -0.733621 0
M  V30 11478 O 1069.55 2.16163 0.10118 0
M  V30 11479 C 1070.15 1.30238 -3.12767 0
M  V30 11480 C 1068.71 1.80974 -3.30038 0
M  V30 11481 C 1067.85 0.695638 -2.68433 0
M  V30 11482 H 1070.81 -0.0720733 -1.58536 0
M  V30 11483 H 1070.83 2.17217 -3.12405 0
M  V30 11484 H 1070.34 0.497605 -3.84897 0
M  V30 11485 H 1068.44 2.64039 -2.62895 0
M  V30 11486 H 1068.55 1.94294 -4.37934 0
M  V30 11487 H 1066.92 1.12061 -2.28723 0
M  V30 11488 H 1067.7 -0.0975885 -3.43161 0
M  V30 11489 N 1070.14 1.51827 0.422667 0
M  V30 11490 C 1071.09 1.7058 1.51282 0
M  V30 11491 C 1072.08 0.5597 1.50851 0
M  V30 11492 O 1073.27 0.816223 1.57057 0
M  V30 11493 C 1070.4 1.84759 2.89342 0
M  V30 11494 C 1069.49 3.05199 2.94473 0
M  V30 11495 N 1069.88 4.28135 2.69322 0
M  V30 11496 C 1068.17 3.04755 3.25638 0
M  V30 11497 C 1068.88 5.09507 2.80674 0
M  V30 11498 N 1067.85 4.44464 3.12974 0
M  V30 11499 H 1071.65 2.63283 1.30611 0
M  V30 11500 H 1069.17 1.49674 0.630191 0
M  V30 11501 H 1071.16 1.96308 3.67789 0
M  V30 11502 H 1069.82 0.932478 3.11022 0
M  V30 11503 H 1070.84 4.56835 2.43972 0
M  V30 11504 H 1067.51 2.2293 3.52999 0
M  V30 11505 H 1068.9 6.17409 2.65058 0
M  V30 11506 N 1071.62 -0.679052 1.4222 0
M  V30 11507 C 1072.55 -1.80455 1.41311 0
M  V30 11508 C 1073.57 -1.59767 0.312799 0
M  V30 11509 O 1074.76 -1.68964 0.575612 0
M  V30 11510 C 1071.86 -3.17492 1.18541 0
M  V30 11511 C 1071.03 -3.65066 2.40926 0
M  V30 11512 C 1070.09 -4.80823 2.13765 0
M  V30 11513 O 1069.11 -4.91587 2.86934 0
M  V30 11514 N 1070.32 -5.69233 1.13813 0
M  V30 11515 H 1073.08 -1.81722 2.38322 0
M  V30 11516 H 1070.64 -0.861988 1.37045 0
M  V30 11517 H 1072.63 -3.92581 0.982958 0
M  V30 11518 H 1071.2 -3.1115 0.300691 0
M  V30 11519 H 1070.42 -2.80702 2.76767 0
M  V30 11520 H 1071.71 -3.93593 3.22431 0
M  V30 11521 H 1071.11 -5.63185 0.532887 0
M  V30 11522 H 1069.67 -6.44152 0.995554 0
M  V30 11523 N 1073.1 -1.28322 -0.914942 0
M  V30 11524 C 1074.33 -1.1837 -1.70304 0
M  V30 11525 C 1074.75 0.254291 -1.86373 0
M  V30 11526 O 1074.11 1.18398 -1.37301 0
M  V30 11527 C 1074.16 -1.88603 -3.07346 0
M  V30 11528 O 1073.26 -1.19268 -3.94777 0
M  V30 11529 H 1072.6 -0.410978 -0.52153 0
M  V30 11530 H 1075.13 -1.69622 -1.14409 0
M  V30 11531 H 1075.14 -1.96463 -3.57584 0
M  V30 11532 H 1073.82 -2.93201 -2.94967 0
M  V30 11533 H 1072.39 -1.19563 -3.53212 0
M  V30 11534 N 1074.58 1.12322 -1.10551 0
M  V30 11535 C 1075.99 1.6539 -0.8662 0
M  V30 11536 C 1076.34 1.86695 0.603284 0
M  V30 11537 O 1075.47 1.59432 1.46323 0
M  V30 11538 C 1076.06 3.00443 -1.56587 0
M  V30 11539 C 1074.62 3.50456 -1.37323 0
M  V30 11540 C 1073.77 2.25454 -1.61449 0
M  V30 11541 H 1076.72 0.960866 -1.26305 0
M  V30 11542 H 1076.74 3.66972 -1.00557 0
M  V30 11543 H 1076.25 2.84905 -2.63535 0
M  V30 11544 H 1074.35 3.71176 -0.325431 0
M  V30 11545 H 1074.46 4.29839 -2.11601 0
M  V30 11546 H 1072.83 2.32621 -1.03729 0
M  V30 11547 H 1073.61 2.12469 -2.69651 0
M  V30 11548 N 1076.06 0.894434 1.2976 0
M  V30 11549 C 1077.33 0.437365 1.90648 0
M  V30 11550 C 1077.71 -1.08261 1.81226 0
M  V30 11551 O 1077.06 -1.92213 1.23557 0
M  V30 11552 C 1077.27 0.946047 3.35933 0
M  V30 11553 C 1078.62 0.986621 4.12978 0
M  V30 11554 O 1079.64 0.893356 3.44815 0
M  V30 11555 O 1078.5 1.12591 5.34776 0
M  V30 11556 H 1075.6 0.135436 0.815835 0
M  V30 11557 H 1078.14 0.983955 1.38262 0
M  V30 11558 H 1076.91 1.98998 3.3692 0
M  V30 11559 H 1076.54 0.379164 3.95788 0
M  V30 11560 N 1077.53 -1.43282 0.656365 0
M  V30 11561 C 1078.78 -2.01776 0.171039 0
M  V30 11562 C 1079.11 -1.51795 -1.21609 0
M  V30 11563 O 1078.36 -0.702864 -1.82643 0
M  V30 11564 C 1078.66 -3.57148 0.134225 0
M  V30 11565 C 1078.33 -4.26488 1.46352 0
M  V30 11566 C 1076.99 -4.45146 1.82753 0
M  V30 11567 C 1079.34 -4.65728 2.33981 0
M  V30 11568 C 1076.67 -5.0031 3.06443 0
M  V30 11569 C 1079.02 -5.22263 3.56966 0
M  V30 11570 C 1077.69 -5.39136 3.93559 0
M  V30 11571 H 1076.96 -0.738352 0.0625878 0
M  V30 11572 H 1079.6 -1.71716 0.847697 0
M  V30 11573 H 1077.91 -3.86768 -0.625892 0
M  V30 11574 H 1079.61 -4.00168 -0.258207 0
M  V30 11575 H 1076.2 -4.12313 1.1703 0
M  V30 11576 H 1080.38 -4.51003 2.07148 0
M  V30 11577 H 1075.64 -5.11559 3.34839 0
M  V30 11578 H 1079.81 -5.51614 4.25082 0
M  V30 11579 H 1077.44 -5.81646 4.89481 0
M  V30 11580 N 1079.01 -0.398486 -1.52479 0
M  V30 11581 C 1079.96 0.432212 -2.26717 0
M  V30 11582 C 1080.93 1.05007 -1.28696 0
M  V30 11583 O 1082.12 1.07636 -1.57541 0
M  V30 11584 C 1079.26 1.54868 -3.08399 0
M  V30 11585 C 1078.37 0.952779 -4.21362 0
M  V30 11586 C 1077.5 2.04106 -4.90423 0
M  V30 11587 C 1076.54 1.42153 -5.95364 0
M  V30 11588 N 1075.68 2.44951 -6.57984 0
M  V30 11589 H 1080.52 -0.207303 -2.97278 0
M  V30 11590 H 1078.06 -0.114066 -1.46657 0
M  V30 11591 H 1080.01 2.20684 -3.54054 0
M  V30 11592 H 1078.64 2.15837 -2.4003 0
M  V30 11593 H 1077.7 0.183962 -3.79955 0
M  V30 11594 H 1079.01 0.460131 -4.96673 0
M  V30 11595 H 1078.16 2.77672 -5.39429 0
M  V30 11596 H 1076.9 2.56733 -4.14656 0
M  V30 11597 H 1075.91 0.671161 -5.45688 0
M  V30 11598 H 1077.13 0.903093 -6.73068 0
M  V30 11599 H 1075.08 2.9673 -5.85053 0
M  V30 11600 H 1074.99 2.00468 -7.28937 0
M  V30 11601 H 1076.26 3.18119 -7.11632 0
M  V30 11602 N 1080.49 1.57075 -0.12858 0
M  V30 11603 C 1081.91 1.57964 0.227961 0
M  V30 11604 C 1082.11 1.14186 1.66023 0
M  V30 11605 O 1081.16 0.833655 2.38341 0
M  V30 11606 C 1082.48 3.00697 -0.0140648 0
M  V30 11607 C 1084.02 3.12958 0.0510876 0
M  V30 11608 C 1084.5 4.57709 -0.163368 0
M  V30 11609 N 1085.99 4.6307 -0.109663 0
M  V30 11610 C 1086.73 5.72853 -0.250366 0
M  V30 11611 N 1086.22 6.91351 -0.447772 0
M  V30 11612 N 1088.01 5.61781 -0.189265 0
M  V30 11613 H 1080.17 1.83829 -1.06398 0
M  V30 11614 H 1082.43 0.850014 -0.419739 0
M  V30 11615 H 1082.13 3.37047 -1.00461 0
M  V30 11616 H 1082.01 3.70389 0.713571 0
M  V30 11617 H 1084.4 2.7646 1.03216 0
M  V30 11618 H 1084.48 2.4579 -0.708583 0
M  V30 11619 H 1084.12 4.94907 -1.14146 0
M  V30 11620 H 1084.05 5.2298 0.616405 0
M  V30 11621 H 1086.54 3.7788 0.0390086 0
M  V30 11622 H 1086.85 7.70871 -0.54574 0
M  V30 11623 H 1085.2 6.93314 -0.483866 0
M  V30 11624 H 1088.39 4.68086 -0.0359374 0
M  V30 11625 H 1088.56 6.47294 -0.302359 0
M  V30 11626 N 1081.97 -0.145205 1.5693 0
M  V30 11627 C 1083.19 -0.876386 1.87974 0
M  V30 11628 C 1083.62 -1.73866 0.717795 0
M  V30 11629 O 1082.98 -1.78224 -0.332551 0
M  V30 11630 C 1083.03 -1.70746 3.17613 0
M  V30 11631 O 1082.13 -2.81188 3.01674 0
M  V30 11632 H 1081.47 -0.243987 0.617549 0
M  V30 11633 H 1084 -0.135482 2.04151 0
M  V30 11634 H 1084.01 -2.1021 3.49679 0
M  V30 11635 H 1082.69 -1.07429 4.01786 0
M  V30 11636 H 1081.26 -2.45117 2.81019 0
M  V30 11637 N 1083.45 -1.52049 -0.414609 0
M  V30 11638 C 1084.86 -1.58062 -0.993638 0
M  V30 11639 C 1085.21 -0.417795 -1.917 0
M  V30 11640 O 1084.33 0.462558 -2.11399 0
M  V30 11641 C 1084.93 -2.86471 -1.80886 0
M  V30 11642 C 1083.49 -2.94981 -2.33801 0
M  V30 11643 C 1082.64 -2.52949 -1.13631 0
M  V30 11644 H 1085.59 -1.57497 -0.19504 0
M  V30 11645 H 1085.61 -2.71515 -2.66571 0
M  V30 11646 H 1085.12 -3.71085 -1.13657 0
M  V30 11647 H 1083.22 -2.14849 -3.04419 0
M  V30 11648 H 1083.33 -3.99111 -2.65042 0
M  V30 11649 H 1081.7 -2.0667 -1.48861 0
M  V30 11650 H 1082.48 -3.39931 -0.479765 0
M  V30 11651 N 1084.93 0.6715 -1.42579 0
M  V30 11652 C 1086.34 0.985019 -1.25577 0
M  V30 11653 C 1086.54 2.00845 -0.162319 0
M  V30 11654 O 1085.6 2.48175 0.465352 0
M  V30 11655 C 1086.91 1.48668 -2.61377 0
M  V30 11656 C 1088.46 1.60429 -2.68759 0
M  V30 11657 C 1088.93 2.13991 -4.04935 0
M  V30 11658 N 1090.42 2.21319 -4.06906 0
M  V30 11659 C 1091.16 2.63845 -5.09091 0
M  V30 11660 N 1090.66 3.05799 -6.21658 0
M  V30 11661 N 1092.45 2.63623 -4.96447 0
M  V30 11662 H 1084.6 -0.00604561 -2.12399 0
M  V30 11663 H 1086.86 0.0598299 -0.94611 0
M  V30 11664 H 1086.57 0.80917 -3.42265 0
M  V30 11665 H 1086.44 2.46487 -2.85524 0
M  V30 11666 H 1088.83 2.27286 -1.88216 0
M  V30 11667 H 1088.91 0.610909 -2.48398 0
M  V30 11668 H 1088.55 1.47741 -4.85937 0
M  V30 11669 H 1088.48 3.14126 -4.2265 0
M  V30 11670 H 1090.98 1.91743 -3.25643 0
M  V30 11671 H 1091.29 3.36944 -6.95477 0
M  V30 11672 H 1089.63 3.03648 -6.25158 0
M  V30 11673 H 1092.82 2.30211 -4.07579 0
M  V30 11674 H 1093 2.96444 -5.76216 0
M  V30 11675 N 1086.4 1.28806 0.908124 0
M  V30 11676 C 1087.68 1.06981 1.63751 0
M  V30 11677 C 1088.06 -0.388936 2.07486 0
M  V30 11678 O 1087.41 -1.37611 1.82415 0
M  V30 11679 C 1087.62 2.04962 2.82474 0
M  V30 11680 C 1088.97 2.35418 3.5336 0
M  V30 11681 O 1089.99 2.03091 2.92631 0
M  V30 11682 O 1088.85 2.90617 4.62822 0
M  V30 11683 H 1085.94 0.409267 0.71863 0
M  V30 11684 H 1088.49 1.40146 0.956934 0
M  V30 11685 H 1087.26 3.03254 2.47291 0
M  V30 11686 H 1086.88 1.72476 3.58242 0
M  V30 11687 N 1087.88 -1.11734 1.11145 0
M  V30 11688 C 1088.81 -2.1976 0.789152 0
M  V30 11689 C 1089.79 -1.68382 -0.241143 0
M  V30 11690 O 1090.98 -1.93914 -0.105292 0
M  V30 11691 C 1088.11 -3.46549 0.228204 0
M  V30 11692 C 1087.06 -4.11123 1.19002 0
M  V30 11693 C 1086.39 -5.32451 0.489928 0
M  V30 11694 C 1087.69 -4.56406 2.53951 0
M  V30 11695 H 1089.38 -2.46978 1.69241 0
M  V30 11696 H 1086.93 -1.18705 0.81517 0
M  V30 11697 H 1088.88 -4.21399 -0.00945908 0
M  V30 11698 H 1087.6 -3.18782 -0.71033 0
M  V30 11699 H 1086.26 -3.38264 1.41326 0
M  V30 11700 H 1085.91 -5.00953 -0.453315 0
M  V30 11701 H 1085.61 -5.76605 1.1314 0
M  V30 11702 H 1087.14 -6.10042 0.260984 0
M  V30 11703 H 1088.55 -5.22592 2.35733 0
M  V30 11704 H 1086.95 -5.11363 3.14051 0
M  V30 11705 H 1088.02 -3.7001 3.13402 0
M  V30 11706 N 1089.36 -0.901303 -1.29284 0
M  V30 11707 C 1090.31 -0.351562 -2.25273 0
M  V30 11708 C 1091.29 0.529276 -1.51946 0
M  V30 11709 O 1092.49 0.371031 -1.73068 0
M  V30 11710 C 1089.61 0.41843 -3.4074 0
M  V30 11711 C 1088.7 -0.47742 -4.21404 0
M  V30 11712 N 1089.09 -1.58537 -4.80312 0
M  V30 11713 C 1087.39 -0.275504 -4.45148 0
M  V30 11714 C 1088.09 -2.14041 -5.40889 0
M  V30 11715 N 1087.07 -1.43324 -5.24365 0
M  V30 11716 H 1090.87 -1.1979 -2.68379 0
M  V30 11717 H 1088.38 -0.752538 -1.43912 0
M  V30 11718 H 1090.38 0.829022 -4.08574 0
M  V30 11719 H 1089.04 1.26201 -2.99171 0
M  V30 11720 H 1090.05 -1.96809 -4.79047 0
M  V30 11721 H 1086.73 0.529581 -4.14128 0
M  V30 11722 H 1088.12 -3.07173 -5.97574 0
M  V30 11723 N 1090.84 1.42931 -0.663954 0
M  V30 11724 C 1091.77 2.29122 0.0598878 0
M  V30 11725 C 1092.78 1.43094 0.776404 0
M  V30 11726 O 1093.97 1.66923 0.63237 0
M  V30 11727 C 1091.07 3.20268 1.10822 0
M  V30 11728 C 1090.24 4.34892 0.4677 0
M  V30 11729 C 1089.3 5.06836 1.41435 0
M  V30 11730 O 1088.33 5.61735 0.918818 0
M  V30 11731 N 1089.53 5.11336 2.74801 0
M  V30 11732 H 1092.3 2.91885 -0.679945 0
M  V30 11733 H 1089.86 1.53739 -0.507543 0
M  V30 11734 H 1091.85 3.65264 1.74255 0
M  V30 11735 H 1090.42 2.59031 1.7499 0
M  V30 11736 H 1089.64 3.92679 -0.34593 0
M  V30 11737 H 1090.93 5.08796 0.0210237 0
M  V30 11738 H 1090.33 4.68124 3.1761 0
M  V30 11739 H 1088.88 5.60013 3.33509 0
M  V30 11740 N 1092.32 0.406567 1.52266 0
M  V30 11741 C 1093.73 -0.063607 1.86592 0
M  V30 11742 C 1094.08 -1.4466 1.32544 0
M  V30 11743 O 1093.2 -2.05971 0.663692 0
M  V30 11744 C 1093.8 -0.122198 3.3858 0
M  V30 11745 C 1092.36 -0.536701 3.72554 0
M  V30 11746 C 1091.5 0.290422 2.75775 0
M  V30 11747 H 1094.45 0.623738 1.45929 0
M  V30 11748 H 1094.48 -0.937964 3.68758 0
M  V30 11749 H 1093.99 0.884495 3.77887 0
M  V30 11750 H 1092.09 -1.55013 3.38824 0
M  V30 11751 H 1092.2 -0.282867 4.78264 0
M  V30 11752 H 1090.57 -0.246864 2.53501 0
M  V30 11753 H 1091.35 1.29541 3.17921 0
M  V30 11754 N 1093.79 -1.57004 0.136909 0
M  V30 11755 C 1094.74 -2.17524 -0.823784 0
M  V30 11756 C 1095.74 -1.1294 -1.26258 0
M  V30 11757 O 1096.94 -1.3121 -1.23223 0
M  V30 11758 H 1093.32 -0.696381 -0.283827 0
M  V30 11759 H 1095.29 -2.96997 -0.289052 0
M  V30 11760 C 1094.04 -2.80331 -2.05693 0
M  V30 11761 H 1093.36 -3.60515 -1.72825 0
M  V30 11762 H 1094.8 -3.26192 -2.70878 0
M  V30 11763 C 1093.26 -1.78322 -2.85837 0
M  V30 11764 O 1093.79 -1.2475 -3.81838 0
M  V30 11765 N 1092 -1.47854 -2.50175 0
M  V30 11766 H 1091.54 -1.9161 -1.72173 0
M  V30 11767 H 1091.5 -0.798464 -3.04092 0
M  V30 11768 N 1095.27 0.136881 -1.57004 0
M  V30 11769 C 1096.5 0.862436 -1.88068 0
M  V30 11770 C 1096.92 1.74274 -0.726227 0
M  V30 11771 O 1096.27 1.79956 0.30366 0
M  V30 11772 C 1096.32 1.71076 -3.18458 0
M  V30 11773 O 1096.04 0.865918 -4.29457 0
M  V30 11774 C 1097.55 2.54302 -3.63105 0
M  V30 11775 H 1094.77 0.248865 -0.623143 0
M  V30 11776 H 1097.31 0.126633 -2.04108 0
M  V30 11777 H 1095.46 2.39951 -3.04142 0
M  V30 11778 H 1095.88 1.4493 -5.04079 0
M  V30 11779 H 1097.35 3.09384 -4.57149 0
M  V30 11780 H 1097.83 3.3082 -2.88886 0
M  V30 11781 H 1098.44 1.907 -3.80149 0
M  V30 11782 N 1096.75 1.52266 0.40654 0
M  V30 11783 C 1098 1.6568 1.15035 0
M  V30 11784 C 1098.31 0.394135 1.91588 0
M  V30 11785 O 1099.52 0.408113 2.68415 0
M  V30 11786 C 1097.97 2.92725 2.0938 0
M  V30 11787 C 1097.58 4.26108 1.38332 0
M  V30 11788 C 1099.33 3.15502 2.84004 0
M  V30 11789 C 1097.23 5.44275 2.3134 0
M  V30 11790 H 1096.16 0.61719 0.43312 0
M  V30 11791 H 1098.81 1.78755 0.414598 0
M  V30 11792 H 1097.2 2.73355 2.86519 0
M  V30 11793 H 1098.37 4.55971 0.665396 0
M  V30 11794 H 1096.69 4.09454 0.757384 0
M  V30 11795 H 1099.28 4.00964 3.5374 0
M  V30 11796 H 1099.63 2.29842 3.471 0
M  V30 11797 H 1100.16 3.35357 2.13964 0
M  V30 11798 H 1096.9 6.3229 1.72887 0
M  V30 11799 H 1096.42 5.18749 3.01098 0
M  V30 11800 H 1098.1 5.77457 2.91809 0
M  V30 11801 N 1098.23 -0.663929 1.42933 0
M  V30 11802 C 1099.64 -1.24484 1.39143 0
M  V30 11803 C 1099.99 -1.95993 0.0901142 0
M  V30 11804 O 1099.12 -2.00636 -0.810812 0
M  V30 11805 C 1099.71 -2.26402 2.52047 0
M  V30 11806 C 1098.27 -2.79995 2.51555 0
M  V30 11807 C 1097.42 -1.54475 2.30289 0
M  V30 11808 H 1100.37 -0.456619 1.51989 0
M  V30 11809 H 1100.39 -3.08361 2.22921 0
M  V30 11810 H 1099.9 -1.74328 3.46744 0
M  V30 11811 H 1098 -3.36161 1.60707 0
M  V30 11812 H 1098.11 -3.2827 3.48964 0
M  V30 11813 H 1096.48 -1.81437 1.78753 0
M  V30 11814 H 1097.26 -1.04351 3.27056 0
M  V30 11815 N 1099.71 -1.29285 -0.901281 0
M  V30 11816 C 1100.95 -1.16934 -1.64836 0
M  V30 11817 C 1101.28 0.279826 -1.92982 0
M  V30 11818 O 1100.55 1.19179 -1.55478 0
M  V30 11819 H 1099.13 -0.429768 -0.61099 0
M  V30 11820 H 1101.79 -1.62189 -1.08077 0
M  V30 11821 H 1100.88 -1.71821 -2.60545 0
M  V30 11822 N 1101.18 1.11143 -1.11736 0
M  V30 11823 C 1102.12 2.16467 -0.722299 0
M  V30 11824 C 1103.1 1.60118 0.283006 0
M  V30 11825 O 1104.28 1.87651 0.178696 0
M  V30 11826 C 1101.41 3.38632 -0.0679339 0
M  V30 11827 C 1100.45 4.13654 -1.03888 0
M  V30 11828 S 1101.29 4.70187 -2.5629 0
M  V30 11829 C 1102.44 5.95671 -1.92163 0
M  V30 11830 H 1102.67 2.49644 -1.61447 0
M  V30 11831 H 1100.21 1.22816 -0.935708 0
M  V30 11832 H 1102.17 4.09378 0.303253 0
M  V30 11833 H 1100.83 3.03709 0.80124 0
M  V30 11834 H 1100.02 5.01221 -0.528522 0
M  V30 11835 H 1099.62 3.48683 -1.35265 0
M  V30 11836 H 1101.91 6.65681 -1.25994 0
M  V30 11837 H 1102.86 6.51357 -2.77741 0
M  V30 11838 H 1103.26 5.47359 -1.3805 0
M  V30 11839 N 1102.66 0.908147 1.28804 0
M  V30 11840 C 1104.07 0.585727 1.77274 0
M  V30 11841 C 1104.42 -0.898842 1.744 0
M  V30 11842 O 1103.55 -1.70301 1.33516 0
M  V30 11843 C 1104.14 1.05647 3.21907 0
M  V30 11844 C 1102.7 0.785066 3.68122 0
M  V30 11845 C 1101.85 1.22638 2.48707 0
M  V30 11846 H 1104.8 1.09 1.15346 0
M  V30 11847 H 1104.82 0.395442 3.7844 0
M  V30 11848 H 1104.33 2.13698 3.23967 0
M  V30 11849 H 1102.44 -0.282477 3.71528 0
M  V30 11850 H 1102.55 1.38888 4.58527 0
M  V30 11851 H 1100.91 0.645217 2.46392 0
M  V30 11852 H 1101.7 2.31512 2.5349 0
M  V30 11853 N 1104.14 -1.42577 0.671525 0
M  V30 11854 C 1105.07 -2.33499 0.00506984 0
M  V30 11855 C 1106.05 -1.50497 -0.792763 0
M  V30 11856 O 1107.24 -1.79109 -0.750574 0
M  V30 11857 C 1104.37 -3.34077 -0.949194 0
M  V30 11858 C 1103.32 -4.27208 -0.260187 0
M  V30 11859 C 1102.65 -5.17968 -1.32716 0
M  V30 11860 C 1103.95 -5.15192 0.858772 0
M  V30 11861 H 1105.64 -2.89477 0.764407 0
M  V30 11862 H 1103.19 -1.39191 0.369043 0
M  V30 11863 H 1105.14 -3.96594 -1.42448 0
M  V30 11864 H 1103.86 -2.76396 -1.73991 0
M  V30 11865 H 1102.52 -3.66082 0.194834 0
M  V30 11866 H 1102.17 -4.56615 -2.10979 0
M  V30 11867 H 1101.87 -5.81104 -0.871293 0
M  V30 11868 H 1103.39 -5.83359 -1.80345 0
M  V30 11869 H 1104.81 -5.71412 0.464844 0
M  V30 11870 H 1103.21 -5.87144 1.24023 0
M  V30 11871 H 1104.28 -4.53787 1.70895 0
M  V30 11872 N 1105.62 -0.414636 -1.52048 0
M  V30 11873 C 1106.57 0.42561 -2.23992 0
M  V30 11874 C 1107.55 1.00894 -1.25337 0
M  V30 11875 O 1108.74 0.930842 -1.50547 0
M  V30 11876 C 1105.87 1.53874 -3.06884 0
M  V30 11877 C 1104.96 0.965913 -4.12954 0
M  V30 11878 N 1105.35 0.12023 -5.05657 0
M  V30 11879 C 1103.65 1.23586 -4.28535 0
M  V30 11880 C 1104.35 -0.199063 -5.81359 0
M  V30 11881 N 1103.33 0.411505 -5.4204 0
M  V30 11882 H 1107.13 -0.226746 -2.93024 0
M  V30 11883 H 1104.64 -0.225376 -1.60829 0
M  V30 11884 H 1106.64 2.15334 -3.56983 0
M  V30 11885 H 1105.3 2.19366 -2.39392 0
M  V30 11886 H 1106.31 -0.244501 -5.17323 0
M  V30 11887 H 1102.99 1.88995 -3.72273 0
M  V30 11888 H 1104.38 -0.88585 -6.66035 0
M  V30 11889 N 1107.1 1.56929 -0.145233 0
M  V30 11890 C 1108.51 1.82877 0.375884 0
M  V30 11891 C 1108.86 1.06384 1.64854 0
M  V30 11892 O 1107.98 0.30857 2.14189 0
M  V30 11893 C 1108.58 3.31725 0.688744 0
M  V30 11894 C 1107.14 3.58261 1.15439 0
M  V30 11895 C 1106.28 2.76737 0.176565 0
M  V30 11896 H 1109.24 1.54328 -0.36996 0
M  V30 11897 H 1109.26 3.47784 1.54359 0
M  V30 11898 H 1108.77 3.87371 -0.237694 0
M  V30 11899 H 1106.87 3.08 2.09683 0
M  V30 11900 H 1106.98 4.66732 1.08158 0
M  V30 11901 H 1105.35 2.45761 0.668843 0
M  V30 11902 H 1106.13 3.35154 -0.743432 0
M  V30 11903 N 1108.58 -0.128553 1.57075 0
M  V30 11904 C 1109.49 -1.17718 2.02927 0
M  V30 11905 C 1110.5 -1.45912 0.947932 0
M  V30 11906 O 1111.68 -1.57217 1.25876 0
M  V30 11907 C 1108.74 -2.48625 2.41633 0
M  V30 11908 C 1107.8 -2.27914 3.63804 0
M  V30 11909 C 1107.04 -3.52579 4.00654 0
M  V30 11910 O 1107.26 -4.59505 3.37952 0
M  V30 11911 O 1106.19 -3.44147 4.93808 0
M  V30 11912 H 1110.02 -0.817846 2.92481 0
M  V30 11913 H 1107.6 -0.338649 1.45511 0
M  V30 11914 H 1109.49 -3.2577 2.67305 0
M  V30 11915 H 1108.16 -2.84052 1.55229 0
M  V30 11916 H 1107.07 -1.4866 3.43294 0
M  V30 11917 H 1108.4 -1.97395 4.50883 0
M  V30 11918 N 1110.05 -1.5248 -0.398459 0
M  V30 11919 C 1111.28 -1.70925 -1.16586 0
M  V30 11920 C 1111.7 -0.42342 -1.83991 0
M  V30 11921 O 1111.05 0.601395 -1.72306 0
M  V30 11922 C 1111.1 -2.85226 -2.22099 0
M  V30 11923 O 1110.83 -4.08831 -1.57444 0
M  V30 11924 C 1112.33 -3.15272 -3.11639 0
M  V30 11925 H 1109.55 -0.572533 -0.349924 0
M  V30 11926 H 1112.09 -1.99087 -0.467416 0
M  V30 11927 H 1110.25 -2.59553 -2.87595 0
M  V30 11928 H 1110.66 -4.72603 -2.2748 0
M  V30 11929 H 1112.13 -3.98737 -3.81724 0
M  V30 11930 H 1112.61 -2.29262 -3.74614 0
M  V30 11931 H 1113.22 -3.42749 -2.518 0
M  V30 11932 N 1111.53 0.65634 -1.43283 0
M  V30 11933 C 1112.81 1.41339 -1.35213 0
M  V30 11934 C 1113.19 2.111 0.00158494 0
M  V30 11935 O 1112.54 2.0457 1.018 0
M  V30 11936 C 1112.75 2.40066 -2.53317 0
M  V30 11937 C 1114.09 3.04159 -2.96264 0
M  V30 11938 O 1115.12 2.50393 -2.53341 0
M  V30 11939 O 1113.98 4.01633 -3.70612 0
M  V30 11940 H 1111.07 0.631325 -0.534189 0
M  V30 11941 H 1113.62 0.68351 -1.55326 0
M  V30 11942 H 1112.39 1.87444 -3.43483 0
M  V30 11943 H 1112.01 3.20509 -2.35287 0
M  V30 11944 N 1113.01 1.29761 0.894412 0
M  V30 11945 C 1114.23 1.21064 1.68399 0
M  V30 11946 C 1114.66 -0.224608 1.86754 0
M  V30 11947 O 1114.02 -1.16199 1.39167 0
M  V30 11948 C 1114.07 1.93468 3.04306 0
M  V30 11949 O 1113.17 1.25533 3.9283 0
M  V30 11950 H 1112.51 0.419223 0.514925 0
M  V30 11951 H 1115.04 1.71421 1.11696 0
M  V30 11952 H 1115.05 2.02127 3.54413 0
M  V30 11953 H 1113.73 2.97857 2.90265 0
M  V30 11954 H 1112.3 1.25168 3.51266 0
M  V30 11955 N 1114.49 -1.10549 1.12324 0
M  V30 11956 C 1115.9 -1.34508 0.85905 0
M  V30 11957 C 1116.1 -1.94901 -0.511468 0
M  V30 11958 O 1115.16 -2.18793 -1.2604 0
M  V30 11959 C 1116.47 -2.26788 1.97453 0
M  V30 11960 C 1118.02 -2.40328 2.00528 0
M  V30 11961 C 1118.5 -3.35936 3.11305 0
M  V30 11962 N 1119.99 -3.43504 3.1074 0
M  V30 11963 C 1120.72 -4.17449 3.93096 0
M  V30 11964 N 1120.22 -4.9429 4.85437 0
M  V30 11965 N 1122.01 -4.13055 3.81237 0
M  V30 11966 H 1114.16 -0.697171 2.00632 0
M  V30 11967 H 1116.42 -0.369548 0.873005 0
M  V30 11968 H 1116.13 -1.89621 2.96204 0
M  V30 11969 H 1116 -3.27086 1.87869 0
M  V30 11970 H 1118.39 -2.76765 1.02397 0
M  V30 11971 H 1118.47 -1.39849 2.14186 0
M  V30 11972 H 1118.12 -3.00225 4.09667 0
M  V30 11973 H 1118.05 -4.36291 2.94886 0
M  V30 11974 H 1120.54 -2.88702 2.43843 0
M  V30 11975 H 1120.85 -5.48109 5.4479 0
M  V30 11976 H 1119.2 -4.93419 4.89452 0
M  V30 11977 H 1122.39 -3.52117 3.08433 0
M  V30 11978 H 1122.56 -4.70424 4.45651 0
M  V30 11979 N 1115.97 -0.914965 -1.28321 0
M  V30 11980 C 1116.93 -0.409024 -2.25521 0
M  V30 11981 C 1117.93 0.465327 -1.5392 0
M  V30 11982 O 1119.12 0.26821 -1.72123 0
M  V30 11983 C 1116.25 0.413452 -3.38383 0
M  V30 11984 H 1117.44 -1.26767 -2.71791 0
M  V30 11985 H 1115 -0.694477 -1.40024 0
M  V30 11986 H 1115.73 1.29145 -2.97476 0
M  V30 11987 H 1115.52 -0.213268 -3.9152 0
M  V30 11988 H 1117.01 0.758232 -4.10659 0
M  V30 11989 N 1117.44 1.42219 -0.679077 0
M  V30 11990 C 1118.67 2.06333 -0.210097 0
M  V30 11991 C 1119.09 1.50703 1.12562 0
M  V30 11992 O 1118.45 0.627241 1.70104 0
M  V30 11993 C 1118.5 3.60243 -0.160322 0
M  V30 11994 O 1117.6 4.03122 0.869872 0
M  V30 11995 H 1116.94 0.655362 -0.106754 0
M  V30 11996 H 1119.47 1.82278 -0.929294 0
M  V30 11997 H 1119.48 4.07997 0.014384 0
M  V30 11998 H 1118.16 4.00106 -1.13526 0
M  V30 11999 H 1116.74 3.66907 0.66586 0
M  V30 12000 N 1118.92 0.422693 1.51826 0
M  V30 12001 C 1119.83 -0.40261 2.31119 0
M  V30 12002 C 1120.85 -1.04117 1.39412 0
M  V30 12003 O 1122.02 -1.03973 1.72486 0
M  V30 12004 C 1119.09 -1.49699 3.12716 0
M  V30 12005 C 1118.15 -0.880088 4.20182 0
M  V30 12006 C 1117.38 -1.92232 4.97878 0
M  V30 12007 O 1117.61 -3.14246 4.76031 0
M  V30 12008 O 1116.54 -1.521 5.82365 0
M  V30 12009 H 1120.37 0.244308 3.02716 0
M  V30 12010 H 1117.95 0.185569 1.48243 0
M  V30 12011 H 1119.83 -2.13202 3.63487 0
M  V30 12012 H 1118.51 -2.12826 2.43899 0
M  V30 12013 H 1117.41 -0.207404 3.73525 0
M  V30 12014 H 1118.75 -0.292535 4.9133 0
M  V30 12015 N 1120.4 -1.5685 0.153553 0
M  V30 12016 C 1121.31 -2.20664 -0.796528 0
M  V30 12017 C 1122.33 -1.19289 -1.26674 0
M  V30 12018 O 1123.5 -1.51889 -1.32256 0
M  V30 12019 C 1120.57 -2.82088 -2.01561 0
M  V30 12020 C 1119.63 -3.9861 -1.59401 0
M  V30 12021 C 1118.86 -4.57096 -2.75498 0
M  V30 12022 O 1119.08 -4.14462 -3.9189 0
M  V30 12023 O 1118.02 -5.47254 -2.50593 0
M  V30 12024 H 1121.84 -3.02376 -0.283282 0
M  V30 12025 H 1119.43 -1.49218 -0.0737927 0
M  V30 12026 H 1121.31 -3.21103 -2.72893 0
M  V30 12027 H 1119.99 -2.03385 -2.51826 0
M  V30 12028 H 1118.89 -3.64299 -0.850725 0
M  V30 12029 H 1120.23 -4.78853 -1.13845 0
M  V30 12030 N 1121.88 0.120221 -1.57141 0
M  V30 12031 C 1123.15 0.858458 -1.75755 0
M  V30 12032 C 1123.53 1.98124 -0.728693 0
M  V30 12033 O 1122.88 2.27155 0.247573 0
M  V30 12034 C 1123.09 1.37627 -3.20718 0
M  V30 12035 C 1124.44 1.82909 -3.83183 0
M  V30 12036 O 1125.46 1.47309 -3.24312 0
M  V30 12037 O 1124.32 2.4865 -4.86657 0
M  V30 12038 H 1121.42 0.407583 -0.719587 0
M  V30 12039 H 1123.96 0.104057 -1.69381 0
M  V30 12040 H 1122.74 0.570651 -3.87117 0
M  V30 12041 H 1122.36 2.19341 -3.31625 0
M  V30 12042 N 1123.36 1.52689 0.390367 0
M  V30 12043 C 1124.58 1.71839 1.16129 0
M  V30 12044 C 1125.01 0.435226 1.82996 0
M  V30 12045 O 1124.36 -0.60889 1.70769 0
M  V30 12046 C 1124.41 2.86784 2.18603 0
M  V30 12047 O 1123.52 2.53662 3.25161 0
M  V30 12048 H 1122.86 0.571455 0.338135 0
M  V30 12049 H 1125.39 1.99475 0.45508 0
M  V30 12050 H 1125.4 3.12239 2.62622 0
M  V30 12051 H 1124.07 3.79872 1.69322 0
M  V30 12052 H 1122.65 2.38942 2.86289 0
M  V30 12053 N 1124.83 -0.648732 1.43629 0
M  V30 12054 C 1125.78 -1.76145 1.49136 0
M  V30 12055 C 1126.75 -1.62569 0.340649 0
M  V30 12056 O 1127.94 -1.82748 0.548435 0
M  V30 12057 C 1125.08 -3.14321 1.42466 0
M  V30 12058 C 1124.19 -3.38999 2.67776 0
M  V30 12059 C 1123.32 -4.67047 2.53062 0
M  V30 12060 C 1122.36 -4.84845 3.7362 0
M  V30 12061 N 1121.5 -6.04155 3.57689 0
M  V30 12062 H 1126.34 -1.70774 2.44213 0
M  V30 12063 H 1123.88 -0.833311 1.2122 0
M  V30 12064 H 1125.84 -3.94206 1.36592 0
M  V30 12065 H 1124.47 -3.18751 0.509666 0
M  V30 12066 H 1123.52 -2.53179 2.83909 0
M  V30 12067 H 1124.83 -3.48035 3.57314 0
M  V30 12068 H 1123.98 -5.55066 2.44922 0
M  V30 12069 H 1122.72 -4.60339 1.61056 0
M  V30 12070 H 1121.73 -3.95261 3.82163 0
M  V30 12071 H 1122.95 -4.9338 4.6664 0
M  V30 12072 H 1120.9 -5.9857 2.6842 0
M  V30 12073 H 1120.82 -6.14169 4.40832 0
M  V30 12074 H 1122.08 -6.94782 3.53409 0
M  V30 12075 N 1126.31 -1.30234 -0.887518 0
M  V30 12076 C 1127.56 -1.19086 -1.64153 0
M  V30 12077 C 1127.89 0.254428 -1.92526 0
M  V30 12078 O 1127.17 1.18233 -1.54438 0
M  V30 12079 C 1127.45 -2.01723 -2.98295 0
M  V30 12080 C 1127.3 -3.54458 -2.76911 0
M  V30 12081 C 1128.62 -1.85307 -3.99186 0
M  V30 12082 H 1125.74 -0.433967 -0.595686 0
M  V30 12083 H 1128.38 -1.59839 -1.0272 0
M  V30 12084 H 1126.53 -1.67096 -3.5073 0
M  V30 12085 H 1128.2 -3.99131 -2.31284 0
M  V30 12086 H 1126.45 -3.78768 -2.11464 0
M  V30 12087 H 1127.12 -4.07565 -3.72283 0
M  V30 12088 H 1129.59 -2.15575 -3.55903 0
M  V30 12089 H 1128.47 -2.45456 -4.90961 0
M  V30 12090 H 1128.73 -0.811528 -4.34588 0
M  V30 12091 N 1127.79 1.09952 -1.12909 0
M  V30 12092 C 1129.02 1.8633 -0.910821 0
M  V30 12093 C 1129.44 1.80335 0.534874 0
M  V30 12094 O 1128.8 1.1769 1.37908 0
M  V30 12095 C 1128.85 3.32462 -1.39648 0
M  V30 12096 O 1127.95 4.08327 -0.578192 0
M  V30 12097 H 1127.29 0.577984 -0.32685 0
M  V30 12098 H 1129.82 1.38883 -1.50242 0
M  V30 12099 H 1129.83 3.83311 -1.39774 0
M  V30 12100 H 1128.51 3.36141 -2.44913 0
M  V30 12101 H 1127.08 3.67291 -0.644347 0
M  V30 12102 N 1129.27 0.921757 1.27833 0
M  V30 12103 C 1130.18 0.421668 2.30779 0
M  V30 12104 C 1131.19 -0.494686 1.6682 0
M  V30 12105 O 1132.37 -0.378935 1.97803 0
M  V30 12106 C 1129.44 -0.322928 3.45193 0
M  V30 12107 C 1128.5 0.627618 4.24687 0
M  V30 12108 C 1127.73 -0.0815385 5.33638 0
M  V30 12109 O 1127.95 -1.30193 5.55343 0
M  V30 12110 O 1126.89 0.58725 5.99028 0
M  V30 12111 H 1130.71 1.2763 2.7558 0
M  V30 12112 H 1128.3 0.686877 1.32674 0
M  V30 12113 H 1130.18 -0.743145 4.14796 0
M  V30 12114 H 1128.85 -1.15326 3.02459 0
M  V30 12115 H 1127.76 1.09739 3.57642 0
M  V30 12116 H 1129.09 1.425 4.71121 0
M  V30 12117 N 1130.75 -1.41857 0.686609 0
M  V30 12118 C 1131.99 -2.0097 0.213378 0
M  V30 12119 C 1132.32 -1.54618 -1.1882 0
M  V30 12120 O 1131.59 -0.772916 -1.80008 0
M  V30 12121 H 1130.17 -0.743134 0.0758968 0
M  V30 12122 H 1132.83 -1.73609 0.885763 0
M  V30 12123 H 1131.92 -3.11296 0.223826 0
M  V30 12124 N 1132.22 -0.430739 -1.51599 0
M  V30 12125 C 1133.47 0.137657 -2.01631 0
M  V30 12126 C 1133.79 1.43787 -1.31721 0
M  V30 12127 O 1133.06 1.90668 -0.449717 0
M  V30 12128 H 1131.64 0.0538611 -0.745056 0
M  V30 12129 H 1134.31 -0.571935 -1.86319 0
M  V30 12130 H 1133.4 0.318305 -3.10473 0
M  V30 12131 N 1133.7 1.56767 -0.161869 0
M  V30 12132 C 1134.95 1.97661 0.479751 0
M  V30 12133 C 1135.3 1.04583 1.61493 0
M  V30 12134 O 1134.6 0.0836772 1.91417 0
M  V30 12135 C 1134.79 3.42567 1.01894 0
M  V30 12136 C 1134.62 4.49657 -0.0624633 0
M  V30 12137 C 1133.39 5.0273 -0.508935 0
M  V30 12138 C 1135.59 5.07069 -0.85941 0
M  V30 12139 N 1133.57 5.93442 -1.57163 0
M  V30 12140 C 1134.94 5.94131 -1.77225 0
M  V30 12141 C 1137 4.89596 -0.905543 0
M  V30 12142 C 1135.7 6.6559 -2.72731 0
M  V30 12143 C 1137.72 5.61769 -1.8485 0
M  V30 12144 C 1137.09 6.48551 -2.74884 0
M  V30 12145 H 1133.19 0.76864 0.14393 0
M  V30 12146 H 1135.77 1.92957 -0.259906 0
M  V30 12147 H 1133.94 3.47835 1.72815 0
M  V30 12148 H 1135.67 3.70493 1.62841 0
M  V30 12149 H 1132.43 4.73476 -0.1084 0
M  V30 12150 H 1132.85 6.43502 -2.10319 0
M  V30 12151 H 1137.49 4.22209 -0.223516 0
M  V30 12152 H 1135.21 7.32197 -3.41927 0
M  V30 12153 H 1138.8 5.50239 -1.89018 0
M  V30 12154 H 1137.68 7.03417 -3.46661 0
M  V30 12155 N 1135.18 -0.111886 1.57202 0
M  V30 12156 C 1136.41 -0.832407 1.89416 0
M  V30 12157 C 1136.82 -1.73096 0.753861 0
M  V30 12158 O 1136.18 -1.80416 -0.274992 0
M  V30 12159 C 1136.23 -1.65988 3.21139 0
M  V30 12160 O 1135.95 -0.797485 4.3078 0
M  V30 12161 C 1137.45 -2.48493 3.67105 0
M  V30 12162 H 1134.67 -0.238919 0.627024 0
M  V30 12163 H 1137.22 -0.0941456 2.04283 0
M  V30 12164 H 1135.37 -2.35082 3.07921 0
M  V30 12165 H 1135.79 -1.36892 5.06321 0
M  V30 12166 H 1137.26 -3.02072 4.62014 0
M  V30 12167 H 1137.74 -3.26182 2.94112 0
M  V30 12168 H 1138.34 -1.84628 3.83135 0
M  V30 12169 N 1136.66 -1.52894 -0.382264 0
M  V30 12170 C 1137.61 -1.78151 -1.46734 0
M  V30 12171 C 1138.58 -0.625034 -1.53891 0
M  V30 12172 O 1139.76 -0.865467 -1.70042 0
M  V30 12173 C 1136.9 -1.96223 -2.83885 0
M  V30 12174 C 1136.01 -3.23925 -2.85826 0
M  V30 12175 C 1135.15 -3.32277 -4.14446 0
M  V30 12176 C 1134.19 -4.54076 -4.10465 0
M  V30 12177 N 1133.32 -4.59672 -5.30703 0
M  V30 12178 H 1138.16 -2.70748 -1.24497 0
M  V30 12179 H 1135.7 -1.34135 -0.603838 0
M  V30 12180 H 1137.66 -2.04686 -3.63537 0
M  V30 12181 H 1136.29 -1.0698 -3.04557 0
M  V30 12182 H 1135.34 -3.245 -1.98505 0
M  V30 12183 H 1136.65 -4.1364 -2.78754 0
M  V30 12184 H 1135.81 -3.3996 -5.02506 0
M  V30 12185 H 1134.55 -2.40548 -4.2425 0
M  V30 12186 H 1133.55 -4.46511 -3.20793 0
M  V30 12187 H 1134.78 -5.47128 -4.02278 0
M  V30 12188 H 1132.72 -3.70838 -5.41124 0
M  V30 12189 H 1132.64 -5.43268 -5.25734 0
M  V30 12190 H 1133.91 -4.71618 -6.20642 0
M  V30 12191 N 1138.14 0.641106 -1.43971 0
M  V30 12192 C 1139.38 1.40291 -1.46445 0
M  V30 12193 C 1139.72 1.93978 -0.0929004 0
M  V30 12194 O 1138.99 1.73043 0.888043 0
M  V30 12195 C 1139.27 2.57551 -2.51673 0
M  V30 12196 C 1139.13 2.09279 -3.98149 0
M  V30 12197 C 1140.45 3.59752 -2.53508 0
M  V30 12198 H 1137.57 0.508771 -0.533218 0
M  V30 12199 H 1140.21 0.725767 -1.75592 0
M  V30 12200 H 1138.36 3.15319 -2.2695 0
M  V30 12201 H 1140.03 1.56418 -4.33971 0
M  V30 12202 H 1138.27 1.40545 -4.10402 0
M  V30 12203 H 1138.94 2.93655 -4.67409 0
M  V30 12204 H 1141.42 3.11766 -2.75574 0
M  V30 12205 H 1140.3 4.39332 -3.29057 0
M  V30 12206 H 1140.56 4.13156 -1.57335 0
M  V30 12207 N 1139.62 1.30703 0.880598 0
M  V30 12208 C 1140.53 1.19389 2.01949 0
M  V30 12209 C 1141.54 0.112868 1.73634 0
M  V30 12210 O 1142.72 0.328643 1.98701 0
M  V30 12211 C 1139.78 0.891004 3.35055 0
M  V30 12212 C 1138.84 2.05784 3.76764 0
M  V30 12213 C 1138.08 1.76931 5.03519 0
M  V30 12214 O 1138.3 0.699326 5.66097 0
M  V30 12215 O 1137.23 2.623 5.4174 0
M  V30 12216 H 1141.06 2.15073 2.14423 0
M  V30 12217 H 1138.64 1.10339 1.00726 0
M  V30 12218 H 1140.53 0.737476 4.14897 0
M  V30 12219 H 1139.2 -0.0358909 3.2368 0
M  V30 12220 H 1138.11 2.26672 2.97608 0
M  V30 12221 H 1139.44 2.96661 3.9275 0
M  V30 12222 N 1141.09 -1.09351 1.1349 0
M  V30 12223 C 1142.32 -1.85036 0.918989 0
M  V30 12224 C 1142.73 -1.8146 -0.535638 0
M  V30 12225 O 1142.07 -1.20958 -1.38256 0
M  V30 12226 C 1142.14 -3.33992 1.33001 0
M  V30 12227 C 1141.8 -3.61315 2.79822 0
M  V30 12228 C 1142.8 -3.56973 3.77976 0
M  V30 12229 C 1140.48 -3.89636 3.17001 0
M  V30 12230 C 1142.48 -3.80564 5.11321 0
M  V30 12231 C 1140.16 -4.12882 4.50524 0
M  V30 12232 C 1141.16 -4.08338 5.47494 0
M  V30 12233 O 1140.85 -4.30983 6.78608 0
M  V30 12234 H 1140.58 -0.591301 0.327627 0
M  V30 12235 H 1143.14 -1.39078 1.5115 0
M  V30 12236 H 1141.37 -3.8066 0.68077 0
M  V30 12237 H 1143.05 -3.9109 1.08645 0
M  V30 12238 H 1143.82 -3.3512 3.50599 0
M  V30 12239 H 1139.7 -3.92297 2.42124 0
M  V30 12240 H 1143.24 -3.76933 5.86998 0
M  V30 12241 H 1139.14 -4.34216 4.77626 0
M  V30 12242 H 1139.91 -4.4844 6.84722 0
M  V30 12243 N 1142.57 -0.928524 -1.27343 0
M  V30 12244 C 1143.99 -0.62889 -1.46687 0
M  V30 12245 C 1144.19 0.821592 -1.83989 0
M  V30 12246 O 1143.24 1.59941 -1.95385 0
M  V30 12247 C 1144.56 -1.57947 -2.55878 0
M  V30 12248 C 1146.1 -1.58778 -2.69738 0
M  V30 12249 C 1146.58 -2.52535 -3.82087 0
M  V30 12250 N 1148.07 -2.50747 -3.89462 0
M  V30 12251 C 1148.81 -3.19981 -4.75814 0
M  V30 12252 N 1148.3 -3.98598 -5.66649 0
M  V30 12253 N 1150.09 -3.08996 -4.69551 0
M  V30 12254 H 1142.25 -1.86625 -1.01414 0
M  V30 12255 H 1144.51 -0.801293 -0.50659 0
M  V30 12256 H 1144.21 -2.61427 -2.35264 0
M  V30 12257 H 1144.09 -1.3218 -3.53282 0
M  V30 12258 H 1146.48 -0.560292 -2.89732 0
M  V30 12259 H 1146.56 -1.88594 -1.72817 0
M  V30 12260 H 1146.2 -3.55395 -3.62846 0
M  V30 12261 H 1146.13 -2.20015 -4.78436 0
M  V30 12262 H 1148.62 -1.93651 -3.24511 0
M  V30 12263 H 1148.93 -4.4841 -6.29403 0
M  V30 12264 H 1147.28 -4.02701 -5.66442 0
M  V30 12265 H 1150.47 -2.4707 -3.97585 0
M  V30 12266 H 1150.64 -3.63223 -5.36631 0
M  V30 12267 N 1144.05 1.41491 -0.694123 0
M  V30 12268 C 1145 2.30783 -0.0278824 0
M  V30 12269 C 1145.97 1.47028 0.772783 0
M  V30 12270 O 1147.15 1.75819 0.74111 0
M  V30 12271 C 1144.29 3.33061 0.903579 0
M  V30 12272 C 1143.4 4.31896 0.0946823 0
M  V30 12273 C 1142.54 5.21243 1.02365 0
M  V30 12274 C 1141.58 6.11748 0.207578 0
M  V30 12275 N 1140.72 6.93583 1.09028 0
M  V30 12276 H 1145.56 2.87197 -0.795092 0
M  V30 12277 H 1143.09 1.41449 -0.403806 0
M  V30 12278 H 1145.05 3.90907 1.45765 0
M  V30 12279 H 1143.68 2.782 1.6372 0
M  V30 12280 H 1142.73 3.76009 -0.576289 0
M  V30 12281 H 1144.04 4.95889 -0.538059 0
M  V30 12282 H 1143.2 5.83917 1.647 0
M  V30 12283 H 1141.94 4.57473 1.69025 0
M  V30 12284 H 1140.94 5.48125 -0.428854 0
M  V30 12285 H 1142.17 6.77573 -0.455206 0
M  V30 12286 H 1140.11 6.32422 1.74292 0
M  V30 12287 H 1140.03 7.54257 0.513073 0
M  V30 12288 H 1141.3 7.60726 1.70048 0
M  V30 12289 N 1145.53 0.438773 1.51369 0
M  V30 12290 C 1146.47 -0.37195 2.27783 0
M  V30 12291 C 1147.44 -1.01558 1.31435 0
M  V30 12292 O 1148.63 -1.03421 1.60339 0
M  V30 12293 C 1145.77 -1.46636 3.12397 0
M  V30 12294 C 1144.88 -0.840727 4.2374 0
M  V30 12295 C 1144.02 -1.91031 4.95662 0
M  V30 12296 C 1143.06 -1.26318 5.98924 0
M  V30 12297 N 1142.19 -2.27419 6.64248 0
M  V30 12298 H 1147.03 0.286048 2.96624 0
M  V30 12299 H 1144.57 0.152909 1.46303 0
M  V30 12300 H 1146.53 -2.11219 3.59781 0
M  V30 12301 H 1145.16 -2.09397 2.45668 0
M  V30 12302 H 1144.21 -0.0831588 3.80309 0
M  V30 12303 H 1145.52 -0.328285 4.97719 0
M  V30 12304 H 1144.68 -2.63272 5.46601 0
M  V30 12305 H 1143.42 -2.45649 4.21317 0
M  V30 12306 H 1142.42 -0.526246 5.47276 0
M  V30 12307 H 1143.65 -0.724324 6.75226 0
M  V30 12308 H 1141.59 -2.81114 5.92715 0
M  V30 12309 H 1141.51 -1.81071 7.33996 0
M  V30 12310 H 1142.78 -2.99139 7.19817 0
M  V30 12311 N 1147.01 -1.56678 0.170181 0
M  V30 12312 C 1148.42 -1.83452 -0.346742 0
M  V30 12313 C 1148.77 -1.08993 -1.63141 0
M  V30 12314 O 1147.89 -0.342607 -2.13671 0
M  V30 12315 C 1148.49 -3.32779 -0.635882 0
M  V30 12316 C 1147.05 -3.60052 -1.09725 0
M  V30 12317 C 1146.19 -2.76983 -0.132516 0
M  V30 12318 H 1149.14 -1.53719 0.394465 0
M  V30 12319 H 1149.17 -3.50195 -1.48806 0
M  V30 12320 H 1148.68 -3.86944 0.299291 0
M  V30 12321 H 1146.78 -3.11297 -2.04756 0
M  V30 12322 H 1146.89 -4.68393 -1.00719 0
M  V30 12323 H 1145.26 -2.46794 -0.62966 0
M  V30 12324 H 1146.04 -3.33929 0.796658 0
M  V30 12325 N 1148.48 0.103547 -1.57259 0
M  V30 12326 C 1149.43 1.13239 -1.97891 0
M  V30 12327 C 1150.42 1.36234 -0.856105 0
M  V30 12328 O 1151.61 1.37067 -1.11989 0
M  V30 12329 C 1148.74 2.4549 -2.39979 0
M  V30 12330 C 1147.82 2.25905 -3.58926 0
M  V30 12331 N 1148.22 1.76167 -4.7413 0
M  V30 12332 C 1146.51 2.56503 -3.64859 0
M  V30 12333 C 1147.21 1.70653 -5.56105 0
M  V30 12334 N 1146.19 2.15562 -4.99033 0
M  V30 12335 H 1149.99 0.740638 -2.84415 0
M  V30 12336 H 1147.51 0.311091 -1.59393 0
M  V30 12337 H 1149.5 3.19922 -2.67312 0
M  V30 12338 H 1148.16 2.8541 -1.54827 0
M  V30 12339 H 1149.17 1.45487 -4.97045 0
M  V30 12340 H 1145.85 3.00005 -2.9035 0
M  V30 12341 H 1147.24 1.33321 -6.5854 0
M  V30 12342 N 1149.96 1.53094 0.37415 0
M  V30 12343 C 1151.38 1.42676 0.715246 0
M  V30 12344 C 1151.58 0.558992 1.93591 0
M  V30 12345 O 1150.63 0.0381328 2.52471 0
M  V30 12346 C 1151.95 2.85746 0.936459 0
M  V30 12347 C 1153.49 2.95322 1.03701 0
M  V30 12348 C 1153.97 4.39436 1.29075 0
M  V30 12349 N 1155.46 4.42826 1.35864 0
M  V30 12350 C 1156.2 5.51433 1.57191 0
M  V30 12351 N 1155.69 6.701 1.75891 0
M  V30 12352 N 1157.48 5.38998 1.59491 0
M  V30 12353 H 1149.64 2.08025 -0.428854 0
M  V30 12354 H 1151.9 0.939078 -0.129758 0
M  V30 12355 H 1151.6 3.51523 0.111448 0
M  V30 12356 H 1151.48 3.28887 1.84698 0
M  V30 12357 H 1153.87 2.29704 1.85257 0
M  V30 12358 H 1153.95 2.55588 0.104066 0
M  V30 12359 H 1153.59 5.05625 0.480231 0
M  V30 12360 H 1153.52 4.76735 2.23677 0
M  V30 12361 H 1156.01 3.57301 1.23061 0
M  V30 12362 H 1156.32 7.48643 1.91713 0
M  V30 12363 H 1154.67 6.73102 1.73086 0
M  V30 12364 H 1157.86 4.45257 1.44444 0
M  V30 12365 H 1158.03 6.23705 1.75771 0
M  V30 12366 N 1151.44 -0.633461 1.44309 0
M  V30 12367 C 1152.85 -1.21504 1.41752 0
M  V30 12368 C 1153.2 -1.95758 0.131667 0
M  V30 12369 O 1152.33 -2.02311 -0.768072 0
M  V30 12370 C 1152.92 -2.21005 2.56792 0
M  V30 12371 C 1151.48 -2.74596 2.57438 0
M  V30 12372 C 1150.63 -1.49555 2.33513 0
M  V30 12373 H 1153.58 -0.424277 1.52923 0
M  V30 12374 H 1153.6 -3.03563 2.29412 0
M  V30 12375 H 1153.11 -1.66934 3.50364 0
M  V30 12376 H 1151.21 -3.32676 1.67801 0
M  V30 12377 H 1151.33 -3.20794 3.55849 0
M  V30 12378 H 1149.69 -1.77605 1.82561 0
M  V30 12379 H 1150.47 -0.973899 3.29196 0
M  V30 12380 N 1152.92 -1.31168 -0.873655 0
M  V30 12381 C 1154.14 -1.23728 -1.66452 0
M  V30 12382 C 1154.57 0.194869 -1.87088 0
M  V30 12383 O 1153.93 1.1397 -1.40998 0
M  V30 12384 C 1153.97 -1.98285 -3.0119 0
M  V30 12385 O 1153.08 -1.31767 -3.90783 0
M  V30 12386 H 1152.42 -0.427362 -0.508191 0
M  V30 12387 H 1154.95 -1.73176 -1.08955 0
M  V30 12388 H 1154.96 -2.0774 -3.51153 0
M  V30 12389 H 1153.63 -3.02437 -2.8549 0
M  V30 12390 H 1152.21 -1.3074 -3.4923 0
M  V30 12391 N 1154.4 1.08748 -1.14068 0
M  V30 12392 C 1155.81 1.62551 -0.918379 0
M  V30 12393 C 1156.16 1.8852 0.543583 0
M  V30 12394 O 1155.28 1.64007 1.41176 0
M  V30 12395 C 1155.88 2.95309 -1.66066 0
M  V30 12396 C 1154.44 3.4591 -1.48403 0
M  V30 12397 C 1153.58 2.20204 -1.6854 0
M  V30 12398 H 1156.54 0.920196 -1.29298 0
M  V30 12399 H 1156.56 3.63587 -1.12181 0
M  V30 12400 H 1156.07 2.76377 -2.72465 0
M  V30 12401 H 1154.17 3.69953 -0.443353 0
M  V30 12402 H 1154.28 4.2289 -2.25169 0
M  V30 12403 H 1152.65 2.29203 -1.11077 0
M  V30 12404 H 1153.43 2.03783 -2.76274 0
M  V30 12405 N 1155.87 0.935264 1.26849 0
M  V30 12406 C 1156.84 0.44485 2.24842 0
M  V30 12407 C 1157.84 -0.440781 1.54641 0
M  V30 12408 O 1159.03 -0.240793 1.72528 0
M  V30 12409 C 1156.16 -0.359566 3.38998 0
M  V30 12410 H 1157.35 1.31074 2.6974 0
M  V30 12411 H 1154.91 0.716665 1.38901 0
M  V30 12412 H 1155.64 -1.24396 2.99493 0
M  V30 12413 H 1155.43 0.275529 3.91131 0
M  V30 12414 H 1156.92 -0.692804 4.11813 0
M  V30 12415 N 1157.35 -1.41121 0.701616 0
M  V30 12416 C 1158.3 -2.30765 0.040121 0
M  V30 12417 C 1159.27 -1.47436 -0.764975 0
M  V30 12418 O 1160.45 -1.76209 -0.731775 0
M  V30 12419 C 1157.59 -3.33535 -0.885903 0
M  V30 12420 C 1156.71 -4.3194 -0.0717765 0
M  V30 12421 C 1155.84 -5.21779 -0.995996 0
M  V30 12422 C 1154.88 -6.11849 -0.175133 0
M  V30 12423 N 1154.02 -6.94151 -1.05348 0
M  V30 12424 H 1158.86 -2.86772 0.810312 0
M  V30 12425 H 1156.4 -1.41233 0.411301 0
M  V30 12426 H 1158.35 -3.91675 -1.4369 0
M  V30 12427 H 1156.98 -2.79065 -1.62243 0
M  V30 12428 H 1156.04 -3.75698 0.596221 0
M  V30 12429 H 1157.35 -4.95597 0.56435 0
M  V30 12430 H 1156.5 -5.84782 -1.61601 0
M  V30 12431 H 1155.24 -4.58363 -1.66597 0
M  V30 12432 H 1154.25 -5.4789 0.457916 0
M  V30 12433 H 1155.47 -6.77322 0.491133 0
M  V30 12434 H 1153.42 -6.33338 -1.70936 0
M  V30 12435 H 1153.33 -7.54518 -0.473065 0
M  V30 12436 H 1154.6 -7.61617 -1.66012 0
M  V30 12437 N 1158.83 -0.446794 -1.51134 0
M  V30 12438 C 1160.06 0.114893 -2.06581 0
M  V30 12439 C 1160.47 1.35642 -1.31327 0
M  V30 12440 O 1159.83 1.78595 -0.375506 0
M  V30 12441 C 1159.88 0.427589 -3.58962 0
M  V30 12442 O 1159.6 -0.764669 -4.31375 0
M  V30 12443 C 1161.1 1.03891 -4.30954 0
M  V30 12444 H 1158.32 0.00373031 -0.67099 0
M  V30 12445 H 1160.87 -0.628596 -1.94599 0
M  V30 12446 H 1159.02 1.12099 -3.70827 0
M  V30 12447 H 1159.44 -0.494605 -5.22163 0
M  V30 12448 H 1160.91 1.20764 -5.38628 0
M  V30 12449 H 1161.39 2.02252 -3.8986 0
M  V30 12450 H 1161.99 0.384623 -4.23557 0
M  V30 12451 N 1160.31 1.56586 -0.178487 0
M  V30 12452 C 1161.26 2.19631 0.765822 0
M  V30 12453 C 1162.25 1.16247 1.23219 0
M  V30 12454 O 1163.46 1.34431 1.19701 0
M  V30 12455 H 1159.83 0.703661 0.265264 0
M  V30 12456 H 1161.8 2.97659 0.210207 0
M  V30 12457 C 1160.55 2.85686 1.98188 0
M  V30 12458 H 1159.87 3.64971 1.63206 0
M  V30 12459 H 1161.31 3.33259 2.62134 0
M  V30 12460 C 1159.77 1.85837 2.81009 0
M  V30 12461 O 1160.3 1.3483 3.78396 0
M  V30 12462 N 1158.51 1.54435 2.46167 0
M  V30 12463 H 1158.06 1.96107 1.67032 0
M  V30 12464 H 1158.01 0.878808 3.01868 0
M  V30 12465 N 1161.79 -0.095206 1.57312 0
M  V30 12466 C 1162.73 -1.11551 2.02052 0
M  V30 12467 C 1163.7 -1.39808 0.896818 0
M  V30 12468 O 1164.89 -1.51273 1.1628 0
M  V30 12469 C 1162.03 -2.43056 2.44985 0
M  V30 12470 C 1161.14 -2.21531 3.70875 0
M  V30 12471 C 1160.28 -3.46434 4.02687 0
M  V30 12472 C 1159.32 -3.2017 5.21687 0
M  V30 12473 N 1158.45 -4.37339 5.49253 0
M  V30 12474 H 1163.29 -0.727 2.88996 0
M  V30 12475 H 1160.83 -0.347441 1.42938 0
M  V30 12476 H 1162.79 -3.19803 2.67921 0
M  V30 12477 H 1161.42 -2.79754 1.61051 0
M  V30 12478 H 1160.47 -1.35587 3.55416 0
M  V30 12479 H 1161.78 -1.98116 4.57768 0
M  V30 12480 H 1160.94 -4.31589 4.26399 0
M  V30 12481 H 1159.67 -3.72904 3.14315 0
M  V30 12482 H 1158.68 -2.33409 4.97796 0
M  V30 12483 H 1159.9 -2.95047 6.11657 0
M  V30 12484 H 1157.85 -4.63885 4.6384 0
M  V30 12485 H 1157.77 -4.17114 6.30517 0
M  V30 12486 H 1159.04 -5.23559 5.775 0
M  V30 12487 N 1163.26 -1.53291 -0.366026 0
M  V30 12488 C 1164.17 -1.82656 -1.47221 0
M  V30 12489 C 1165.19 -0.71491 -1.58635 0
M  V30 12490 O 1166.37 -1.00492 -1.74538 0
M  V30 12491 C 1163.43 -2.00995 -2.82492 0
M  V30 12492 C 1162.49 -3.24895 -2.8061 0
M  V30 12493 C 1161.73 -3.4235 -4.09429 0
M  V30 12494 O 1161.95 -2.6411 -5.05571 0
M  V30 12495 O 1160.88 -4.35702 -4.15268 0
M  V30 12496 H 1164.71 -2.76634 -1.2533 0
M  V30 12497 H 1162.29 -1.38665 -0.556084 0
M  V30 12498 H 1164.18 -2.14632 -3.62645 0
M  V30 12499 H 1162.85 -1.10207 -3.04362 0
M  V30 12500 H 1161.76 -3.16682 -1.99157 0
M  V30 12501 H 1163.09 -4.15604 -2.63694 0
M  V30 12502 N 1164.74 0.6258 -1.44643 0
M  V30 12503 C 1166.16 0.944569 -1.28647 0
M  V30 12504 C 1166.36 2.00227 -0.226134 0
M  V30 12505 O 1165.41 2.4953 0.386161 0
M  V30 12506 C 1166.73 1.40278 -2.65975 0
M  V30 12507 C 1168.28 1.51797 -2.73727 0
M  V30 12508 C 1168.75 2.01 -4.11537 0
M  V30 12509 N 1170.24 2.08262 -4.13741 0
M  V30 12510 C 1170.98 2.47515 -5.17227 0
M  V30 12511 N 1170.47 2.85867 -6.31072 0
M  V30 12512 N 1172.27 2.47695 -5.04583 0
M  V30 12513 H 1164.42 -0.0736157 -2.12272 0
M  V30 12514 H 1166.68 0.0296998 -0.947535 0
M  V30 12515 H 1166.39 0.699871 -3.44666 0
M  V30 12516 H 1166.26 2.37279 -2.93221 0
M  V30 12517 H 1168.65 2.21183 -1.95351 0
M  V30 12518 H 1168.73 0.531574 -2.50216 0
M  V30 12519 H 1168.37 1.32207 -4.90391 0
M  V30 12520 H 1168.3 3.0052 -4.32429 0
M  V30 12521 H 1170.79 1.81286 -3.31578 0
M  V30 12522 H 1171.11 3.14647 -7.05845 0
M  V30 12523 H 1169.45 2.83605 -6.34502 0
M  V30 12524 H 1172.64 2.17127 -4.14697 0
M  V30 12525 H 1172.81 2.77962 -5.85356 0
M  V30 12526 N 1166.22 1.31629 0.866686 0
M  V30 12527 C 1167.18 1.1951 1.95576 0
M  V30 12528 C 1168.18 0.121319 1.60342 0
M  V30 12529 O 1169.37 0.370832 1.70207 0
M  V30 12530 C 1166.51 0.835201 3.30511 0
M  V30 12531 H 1167.7 2.16285 2.07752 0
M  V30 12532 H 1165.25 1.15288 1.05539 0
M  V30 12533 H 1165.99 -0.131245 3.24034 0
M  V30 12534 H 1165.77 1.61142 3.57457 0
M  V30 12535 H 1167.26 0.774393 4.10357 0
M  V30 12536 N 1167.7 -1.08142 1.14644 0
M  V30 12537 C 1169.12 -1.32656 0.887388 0
M  V30 12538 C 1169.32 -1.95942 -0.470012 0
M  V30 12539 O 1168.37 -2.21417 -1.21371 0
M  V30 12540 C 1169.68 -2.22549 2.02219 0
M  V30 12541 C 1171.23 -2.36021 2.0558 0
M  V30 12542 C 1171.71 -3.29257 3.18361 0
M  V30 12543 N 1173.2 -3.36835 3.17957 0
M  V30 12544 C 1173.93 -4.09017 4.01862 0
M  V30 12545 N 1173.43 -4.83882 4.95812 0
M  V30 12546 N 1175.22 -4.04875 3.89913 0
M  V30 12547 H 1167.37 -0.654457 2.02066 0
M  V30 12548 H 1169.64 -0.350947 0.880648 0
M  V30 12549 H 1169.34 -1.83296 3.00159 0
M  V30 12550 H 1169.22 -3.23027 1.94765 0
M  V30 12551 H 1171.6 -2.74531 1.08245 0
M  V30 12552 H 1171.68 -1.35275 2.17105 0
M  V30 12553 H 1171.33 -2.91468 4.15944 0
M  V30 12554 H 1171.26 -4.29938 3.04074 0
M  V30 12555 H 1173.75 -2.83465 2.49912 0
M  V30 12556 H 1174.06 -5.3643 5.56294 0
M  V30 12557 H 1172.41 -4.82926 4.99808 0
M  V30 12558 H 1175.6 -3.45496 3.15833 0
M  V30 12559 H 1175.77 -4.60866 4.55529 0
M  V30 12560 N 1169.18 -0.941978 -1.26351 0
M  V30 12561 C 1170.43 -0.588806 -1.93333 0
M  V30 12562 C 1170.75 0.875067 -1.74263 0
M  V30 12563 O 1170.02 1.62187 -1.09873 0
M  V30 12564 H 1168.6 -0.214774 -0.715459 0
M  V30 12565 H 1171.26 -1.19747 -1.53774 0
M  V30 12566 H 1170.35 -0.807267 -3.01479 0
M  V30 12567 N 1170.66 1.40747 -0.709091 0
M  V30 12568 C 1171.93 1.94831 -0.173246 0
M  V30 12569 C 1172.31 1.64766 1.31967 0
M  V30 12570 O 1171.66 0.961853 2.07269 0
M  V30 12571 C 1171.87 3.45697 -0.479013 0
M  V30 12572 C 1173.22 4.22576 -0.414122 0
M  V30 12573 O 1174.24 3.53778 -0.414699 0
M  V30 12574 O 1173.1 5.45135 -0.385986 0
M  V30 12575 H 1170.2 0.826683 -0.0228947 0
M  V30 12576 H 1172.74 1.50391 -0.786178 0
M  V30 12577 H 1171.51 3.60914 -1.51185 0
M  V30 12578 H 1171.14 3.97261 0.164211 0
M  V30 12579 N 1172.13 0.454803 1.50895 0
M  V30 12580 C 1173.08 -0.366073 2.25042 0
M  V30 12581 C 1174.07 -0.975353 1.27967 0
M  V30 12582 O 1175.26 -0.8906 1.52962 0
M  V30 12583 C 1172.39 -1.45683 3.10856 0
M  V30 12584 C 1171.47 -0.856086 4.1537 0
M  V30 12585 N 1171.87 0.0138787 5.05798 0
M  V30 12586 C 1170.16 -1.1218 4.31661 0
M  V30 12587 C 1170.86 0.35313 5.80627 0
M  V30 12588 N 1169.84 -0.267648 5.42941 0
M  V30 12589 H 1173.64 0.304357 2.9232 0
M  V30 12590 H 1171.16 0.267937 1.60174 0
M  V30 12591 H 1173.15 -2.05793 3.62567 0
M  V30 12592 H 1171.81 -2.12942 2.45124 0
M  V30 12593 H 1172.82 0.381574 5.16492 0
M  V30 12594 H 1169.5 -1.79059 3.77153 0
M  V30 12595 H 1170.89 1.06213 6.63452 0
M  V30 12596 N 1173.61 -1.56489 0.186789 0
M  V30 12597 C 1175.03 -1.58701 -0.169176 0
M  V30 12598 C 1175.23 -1.2027 -1.61671 0
M  V30 12599 O 1174.28 -0.92154 -2.35083 0
M  V30 12600 C 1175.6 -3.00437 0.125657 0
M  V30 12601 C 1177.14 -3.12932 0.0651 0
M  V30 12602 C 1177.62 -4.56787 0.333131 0
M  V30 12603 N 1179.11 -4.62344 0.281453 0
M  V30 12604 C 1179.85 -5.71529 0.462805 0
M  V30 12605 N 1179.34 -6.89213 0.704054 0
M  V30 12606 N 1181.13 -5.60692 0.397636 0
M  V30 12607 H 1173.29 -1.79754 1.13148 0
M  V30 12608 H 1175.55 -0.83385 0.450997 0
M  V30 12609 H 1175.25 -3.33086 1.12901 0
M  V30 12610 H 1175.13 -3.72782 -0.575612 0
M  V30 12611 H 1177.52 -2.80101 -0.928845 0
M  V30 12612 H 1177.6 -2.42991 0.799318 0
M  V30 12613 H 1177.24 -4.9033 1.32436 0
M  V30 12614 H 1177.17 -5.24907 -0.421879 0
M  V30 12615 H 1179.66 -3.77764 0.101266 0
M  V30 12616 H 1179.97 -7.68314 0.831468 0
M  V30 12617 H 1178.32 -6.9104 0.740851 0
M  V30 12618 H 1181.51 -4.6763 0.20964 0
M  V30 12619 H 1181.68 -6.45726 0.54239 0
M  V30 12620 N 1175.09 0.086862 -1.5736 0
M  V30 12621 C 1176.34 0.787281 -1.86135 0
M  V30 12622 C 1176.66 1.78866 -0.776667 0
M  V30 12623 O 1175.93 1.94915 0.19625 0
M  V30 12624 H 1174.51 0.293744 -0.686821 0
M  V30 12625 H 1177.17 0.0665326 -1.94786 0
M  V30 12626 H 1176.27 1.3128 -2.83147 0
M  V30 12627 N 1176.57 1.53483 0.357892 0
M  V30 12628 C 1177.81 1.71233 1.09776 0
M  V30 12629 C 1178.17 0.462401 1.86761 0
M  V30 12630 O 1177.46 -0.544746 1.83693 0
M  V30 12631 C 1177.66 2.90654 2.07978 0
M  V30 12632 C 1177.48 4.27141 1.40644 0
M  V30 12633 C 1176.25 4.91868 1.15732 0
M  V30 12634 C 1178.45 5.07392 0.840118 0
M  V30 12635 N 1176.43 6.12261 0.448282 0
M  V30 12636 C 1177.81 6.19451 0.260863 0
M  V30 12637 C 1179.86 4.92377 0.739558 0
M  V30 12638 C 1178.56 7.18135 -0.409153 0
M  V30 12639 C 1180.59 5.91341 0.0833084 0
M  V30 12640 C 1179.95 7.02728 -0.485038 0
M  V30 12641 H 1176.05 0.679764 0.386582 0
M  V30 12642 H 1178.63 1.90893 0.383158 0
M  V30 12643 H 1176.81 2.7252 2.76744 0
M  V30 12644 H 1178.54 2.97192 2.74698 0
M  V30 12645 H 1175.29 4.51157 1.44064 0
M  V30 12646 H 1175.72 6.76912 0.108905 0
M  V30 12647 H 1180.36 4.06441 1.16472 0
M  V30 12648 H 1178.08 8.03657 -0.846247 0
M  V30 12649 H 1181.66 5.818 0.00632482 0
M  V30 12650 H 1180.54 7.77992 -0.984802 0
M  V30 12651 N 1178.05 -0.61812 1.44973 0
M  V30 12652 C 1179.46 -0.937734 1.29146 0
M  V30 12653 C 1179.66 -2.00104 0.236749 0
M  V30 12654 O 1178.72 -2.49731 -0.372923 0
M  V30 12655 C 1180.03 -1.38865 2.66715 0
M  V30 12656 C 1181.58 -1.50343 2.74529 0
M  V30 12657 C 1182.05 -1.98814 4.12598 0
M  V30 12658 N 1183.54 -2.06064 4.14839 0
M  V30 12659 C 1184.28 -2.44768 5.18533 0
M  V30 12660 N 1183.78 -2.82516 6.32579 0
M  V30 12661 N 1185.57 -2.45016 5.05889 0
M  V30 12662 H 1177.72 0.084872 2.1223 0
M  V30 12663 H 1179.98 -0.0246744 0.947679 0
M  V30 12664 H 1179.69 -0.681583 3.45032 0
M  V30 12665 H 1179.56 -2.3572 2.94475 0
M  V30 12666 H 1181.95 -2.20144 1.96522 0
M  V30 12667 H 1182.03 -0.518297 2.50494 0
M  V30 12668 H 1181.67 -1.29604 4.91086 0
M  V30 12669 H 1181.6 -2.98223 4.34017 0
M  V30 12670 H 1184.1 -1.79525 3.32535 0
M  V30 12671 H 1184.41 -3.109 7.07504 0
M  V30 12672 H 1182.75 -2.80237 6.35997 0
M  V30 12673 H 1185.94 -2.14925 4.15842 0
M  V30 12674 H 1186.12 -2.74854 5.86821 0
M  V30 12675 N 1179.52 -1.32087 -0.859693 0
M  V30 12676 C 1180.47 -1.20549 -1.98924 0
M  V30 12677 C 1181.47 -0.111422 -1.69033 0
M  V30 12678 O 1182.67 -0.27401 -1.77902 0
M  V30 12679 H 1179.05 -0.373538 -0.652667 0
M  V30 12680 H 1181.02 -2.16091 -2.05785 0
M  V30 12681 C 1179.77 -0.940226 -3.34746 0
M  V30 12682 H 1179.09 -1.77427 -3.58273 0
M  V30 12683 H 1180.53 -0.899712 -4.14344 0
M  V30 12684 C 1178.99 0.357042 -3.35003 0
M  V30 12685 O 1179.52 1.37054 -3.77596 0
M  V30 12686 N 1177.72 0.37723 -2.88141 0
M  V30 12687 H 1177.27 -0.448051 -2.53674 0
M  V30 12688 H 1177.23 1.24509 -2.88695 0
M  V30 12689 N 1181 1.07532 -1.15215 0
M  V30 12690 C 1182.25 1.80093 -0.925891 0
M  V30 12691 C 1182.58 1.86648 0.547079 0
M  V30 12692 O 1181.83 1.34492 1.42164 0
M  V30 12693 C 1182.13 3.2518 -1.483 0
M  V30 12694 C 1181.8 3.38728 -2.97614 0
M  V30 12695 C 1180.46 3.42133 -3.38376 0
M  V30 12696 C 1182.81 3.41676 -3.93583 0
M  V30 12697 C 1180.14 3.46086 -4.73752 0
M  V30 12698 C 1182.49 3.47166 -5.28828 0
M  V30 12699 C 1181.15 3.48847 -5.69089 0
M  V30 12700 H 1180.42 0.659007 -0.338808 0
M  V30 12701 H 1183.07 1.26548 -1.43728 0
M  V30 12702 H 1181.38 3.81493 -0.892751 0
M  V30 12703 H 1183.07 3.79895 -1.28376 0
M  V30 12704 H 1179.66 3.36775 -2.65105 0
M  V30 12705 H 1183.85 3.38268 -3.63165 0
M  V30 12706 H 1179.1 3.45686 -5.04293 0
M  V30 12707 H 1183.28 3.48393 -6.02989 0
M  V30 12708 H 1180.9 3.51663 -6.73971 0
M  V30 12709 O 1182.52 1.07901 1.20165 0
M  V30 12710 H 1183.21 0.767973 1.77825 0
M  V30 END ATOM
M  V30 BEGIN BOND
M  V30 END BOND
M  V30 END CTAB
M  END
$$$$
