drugbank_target|P41180 Extracellular calcium-sensing receptor (DB00127; DB00994; DB01012; DB05255; DB05695; DB11093; DB11348; DB12865; DB14481)
 OpenBabel12092119333D

  0  0  0     0  0            999 V3000
M  V30 BEGIN CTAB
M  V30 COUNTS 16858 17068 0 0 0
M  V30 BEGIN ATOM
M  V30 1 H -0.908 1.98254 -0.117106 0
M  V30 2 N 0 1.576 0 0
M  V30 3 C 0.933 2.03868 1.02534 0
M  V30 4 C 1.911 0.928543 1.3348 0
M  V30 5 O 3.095 1.19667 1.45644 0
M  V30 6 C 0.222 2.43627 2.35294 0
M  V30 7 C -0.732 3.65373 2.2001 0
M  V30 8 S 0.101 5.13292 1.52614 0
M  V30 9 C 1.257 5.56322 2.86805 0
M  V30 10 H 1.49 2.90518 0.631377 0
M  V30 11 H -0.977 1.52953 0.210867 0
M  V30 12 H 0.981 2.67203 3.11629 0
M  V30 13 H -0.358 1.57376 2.7183 0
M  V30 14 H -1.165 3.90944 3.18086 0
M  V30 15 H -1.563 3.418 1.51819 0
M  V30 16 H 0.729 5.58782 3.83104 0
M  V30 17 H 1.672 6.56266 2.65933 0
M  V30 18 H 2.08 4.83886 2.90714 0
M  V30 19 N 1.4781 -0.272755 1.55222 0
M  V30 20 C 2.4411 -1.32041 1.87344 0
M  V30 21 C 3.4411 -1.42342 0.74803 0
M  V30 22 O 4.6311 -1.41488 1.0162 0
M  V30 23 C 1.7631 -2.70173 2.07893 0
M  V30 24 H 2.9561 -1.04789 2.80997 0
M  V30 25 H 0.5091 -0.51083 1.47717 0
M  V30 26 H 1.2441 -3.02605 1.16622 0
M  V30 27 H 1.0291 -2.64082 2.89833 0
M  V30 28 H 2.5191 -3.45869 2.34017 0
M  V30 29 N 2.9562 -1.48159 -0.537278 0
M  V30 30 C 4.2032 -1.55804 -1.29349 0
M  V30 31 C 4.5312 -0.228802 -1.9315 0
M  V30 32 O 3.7862 0.780242 -1.79473 0
M  V30 33 C 4.0852 -2.63956 -2.40961 0
M  V30 34 C 3.7512 -4.0662 -1.94861 0
M  V30 35 C 2.4132 -4.45452 -1.82006 0
M  V30 36 C 4.7652 -4.96055 -1.59933 0
M  V30 37 C 2.0932 -5.71531 -1.32547 0
M  V30 38 C 4.4452 -6.22617 -1.11939 0
M  V30 39 C 3.1092 -6.60312 -0.976951 0
M  V30 40 H 2.3792 -0.570129 -0.473322 0
M  V30 41 H 5.0262 -1.81845 -0.600372 0
M  V30 42 H 3.3312 -2.31747 -3.15912 0
M  V30 43 H 5.0282 -2.67089 -2.99107 0
M  V30 44 H 1.6182 -3.75949 -2.05815 0
M  V30 45 H 5.8022 -4.66738 -1.68728 0
M  V30 46 H 1.0582 -5.99468 -1.202 0
M  V30 47 H 5.2322 -6.91318 -0.839811 0
M  V30 48 H 2.8592 -7.57895 -0.591501 0
M  V30 49 N 4.4343 0.785586 -1.36625 0
M  V30 50 C 5.6643 1.5722 -1.34036 0
M  V30 51 C 6.0723 1.89033 0.0795062 0
M  V30 52 O 5.4153 1.50881 1.04789 0
M  V30 53 C 5.4773 2.91759 -2.10041 0
M  V30 54 C 5.1413 2.82654 -3.59104 0
M  V30 55 C 6.1383 2.54634 -4.53274 0
M  V30 56 C 3.8233 3.01111 -4.02042 0
M  V30 57 C 5.8173 2.45177 -5.88359 0
M  V30 58 C 3.5043 2.91276 -5.37216 0
M  V30 59 C 4.5023 2.63348 -6.30188 0
M  V30 60 O 4.1903 2.53514 -7.6288 0
M  V30 61 H 3.9223 0.494177 -0.461265 0
M  V30 62 H 6.4763 0.982632 -1.8037 0
M  V30 63 H 4.7063 3.52781 -1.58375 0
M  V30 64 H 6.3953 3.53059 -2.00261 0
M  V30 65 H 7.1613 2.40073 -4.21414 0
M  V30 66 H 3.0403 3.21854 -3.30047 0
M  V30 67 H 6.5843 2.23299 -6.60896 0
M  V30 68 H 2.4813 3.054 -5.68684 0
M  V30 69 H 3.2493 2.68967 -7.73045 0
M  V30 70 N 5.9124 1.20967 1.01018 0
M  V30 71 C 7.1374 1.0503 1.78839 0
M  V30 72 C 7.5624 -0.395752 1.8389 0
M  V30 73 O 6.9204 -1.28529 1.27867 0
M  V30 74 C 6.9684 1.64602 3.2084 0
M  V30 75 O 6.0724 0.887988 4.02726 0
M  V30 76 H 5.4134 0.369987 0.551367 0
M  V30 77 H 7.9434 1.60399 1.27018 0
M  V30 78 H 7.9534 1.68607 3.71532 0
M  V30 79 H 6.6284 2.69841 3.16479 0
M  V30 80 H 5.2054 0.922648 3.61305 0
M  V30 81 N 7.3905 -1.2043 1.01659 0
M  V30 82 C 8.6305 -1.91507 0.714456 0
M  V30 83 C 8.9945 -1.77073 -0.742237 0
M  V30 84 O 10.1955 -2.42631 -1.15688 0
M  V30 85 C 8.4665 -3.38795 1.13809 0
M  V30 86 S 10.0255 -4.28216 0.957925 0
M  V30 87 H 6.8435 -0.661571 0.260471 0
M  V30 88 H 9.4455 -1.45671 1.30384 0
M  V30 89 H 8.1495 -3.46822 2.19415 0
M  V30 90 H 7.6805 -3.89656 0.541474 0
M  V30 91 H 9.6955 -4.96007 -0.138531 0
M  V30 92 N 8.8686 -0.792821 -1.36206 0
M  V30 93 C 10.1086 -0.372238 -2.00982 0
M  V30 94 C 10.4726 1.03749 -1.61555 0
M  V30 95 O 11.6736 1.55934 -2.18948 0
M  V30 96 C 9.9446 -0.534566 -3.5338 0
M  V30 97 S 11.5036 -0.202365 -4.38333 0
M  V30 98 H 8.3216 -0.142044 -0.696667 0
M  V30 99 H 10.9236 -1.03206 -1.66039 0
M  V30 100 H 9.6276 -1.5608 -3.79562 0
M  V30 101 H 9.1586 0.141065 -3.93147 0
M  V30 102 H 11.1736 0.994869 -4.86124 0
M  V30 103 N 10.3467 1.47872 -0.545128 0
M  V30 104 C 11.5927 2.03385 -0.0247951 0
M  V30 105 C 11.9477 1.41325 1.30556 0
M  V30 106 O 11.2407 0.5552 1.8338 0
M  V30 107 C 11.4347 3.57131 0.13867 0
M  V30 108 C 11.2637 4.34097 -1.17429 0
M  V30 109 C 10.0337 4.74458 -1.73831 0
M  V30 110 C 12.2317 4.6998 -2.08861 0
M  V30 111 N 10.2137 5.3602 -2.99258 0
M  V30 112 C 11.5847 5.31719 -3.18866 0
M  V30 113 C 13.6397 4.5191 -2.09003 0
M  V30 114 C 12.3427 5.77295 -4.29096 0
M  V30 115 C 14.3687 4.98477 -3.18237 0
M  V30 116 C 13.7307 5.60253 -4.26961 0
M  V30 117 H 9.8297 0.780339 -0.050943 0
M  V30 118 H 12.4137 1.80507 -0.729753 0
M  V30 119 H 10.5847 3.79802 0.812733 0
M  V30 120 H 12.3167 3.99282 0.659976 0
M  V30 121 H 9.0717 4.56037 -1.2778 0
M  V30 122 H 9.4957 5.71355 -3.63157 0
M  V30 123 H 14.1377 4.03516 -1.26234 0
M  V30 124 H 11.8557 6.24687 -5.12633 0
M  V30 125 H 15.4417 4.86274 -3.1942 0
M  V30 126 H 14.3217 5.95631 -5.10091 0
M  V30 127 N 11.8248 0.280983 1.55075 0
M  V30 128 C 13.0708 -0.33461 2.00021 0
M  V30 129 C 13.4038 -1.55063 1.16915 0
M  V30 130 O 12.6788 -1.93006 0.240646 0
M  V30 131 C 12.9618 -0.711007 3.53011 0
M  V30 132 C 12.8148 0.512766 4.46868 0
M  V30 133 C 14.1338 -1.54522 4.12081 0
M  V30 134 H 11.2528 -0.120147 0.727141 0
M  V30 135 H 13.8948 0.389097 1.85973 0
M  V30 136 H 12.0448 -1.32761 3.65112 0
M  V30 137 H 13.7168 1.15131 4.46702 0
M  V30 138 H 11.9598 1.14975 4.18286 0
M  V30 139 H 12.6308 0.205556 5.51617 0
M  V30 140 H 15.1068 -1.02442 4.03293 0
M  V30 141 H 13.9828 -1.77739 5.19327 0
M  V30 142 H 14.2438 -2.52813 3.62682 0
M  V30 143 N 13.3029 -1.57598 0.00835791 0
M  V30 144 C 14.2329 -2.1198 -0.979113 0
M  V30 145 C 15.2139 -1.03091 -1.35301 0
M  V30 146 O 16.3989 -1.30818 -1.43528 0
M  V30 147 C 13.5289 -2.62995 -2.26828 0
M  V30 148 C 12.4829 -3.76485 -2.03576 0
M  V30 149 C 11.8089 -4.13846 -3.38579 0
M  V30 150 C 13.1089 -5.0342 -1.39161 0
M  V30 151 H 14.8029 -2.94738 -0.526281 0
M  V30 152 H 12.3489 -1.41783 -0.251704 0
M  V30 153 H 14.3019 -2.99669 -2.96271 0
M  V30 154 H 13.0259 -1.7737 -2.7424 0
M  V30 155 H 11.6849 -3.40217 -1.36557 0
M  V30 156 H 11.3329 -3.25232 -3.83709 0
M  V30 157 H 11.0329 -4.90312 -3.23834 0
M  V30 158 H 12.5569 -4.53086 -4.09323 0
M  V30 159 H 13.9709 -5.37812 -1.98573 0
M  V30 160 H 12.3679 -5.84746 -1.34878 0
M  V30 161 H 13.4379 -4.83548 -0.361868 0
M  V30 162 N 14.781 0.264519 -1.55364 0
M  V30 163 C 15.711 1.33121 -1.91836 0
M  V30 164 C 16.692 1.51101 -0.781192 0
M  V30 165 O 17.877 1.64003 -1.04003 0
M  V30 166 C 15.007 2.68921 -2.19769 0
M  V30 167 C 13.961 2.65661 -3.35571 0
M  V30 168 C 13.287 4.05093 -3.49004 0
M  V30 169 C 14.587 2.24187 -4.71739 0
M  V30 170 H 16.281 1.02844 -2.81182 0
M  V30 171 H 13.827 0.493286 -1.35287 0
M  V30 172 H 15.78 3.43663 -2.43872 0
M  V30 173 H 14.504 3.00799 -1.27231 0
M  V30 174 H 13.163 1.93377 -3.1145 0
M  V30 175 H 12.811 4.34206 -2.53917 0
M  V30 176 H 12.511 4.03804 -4.26868 0
M  V30 177 H 14.035 4.81561 -3.75408 0
M  V30 178 H 15.449 2.88654 -4.9533 0
M  V30 179 H 13.846 2.34044 -5.52579 0
M  V30 180 H 14.916 1.19327 -4.69988 0
M  V30 181 N 16.2591 1.48442 0.529413 0
M  V30 182 C 17.2221 1.62524 1.61612 0
M  V30 183 C 18.2221 0.498509 1.52877 0
M  V30 184 O 19.4121 0.76431 1.56537 0
M  V30 185 C 16.5441 1.59597 3.01233 0
M  V30 186 H 17.7371 2.59423 1.50465 0
M  V30 187 H 15.2901 1.37047 0.751514 0
M  V30 188 H 16.0251 0.641781 3.17886 0
M  V30 189 H 15.8101 2.41397 3.08982 0
M  V30 190 H 17.3001 1.72646 3.80241 0
M  V30 191 N 17.7372 -0.778329 1.37039 0
M  V30 192 C 18.6672 -1.90546 1.34962 0
M  V30 193 C 19.6482 -1.68681 0.219274 0
M  V30 194 O 20.8332 -1.89634 0.418624 0
M  V30 195 C 17.9632 -3.27734 1.14925 0
M  V30 196 C 16.9172 -3.64147 2.24902 0
M  V30 197 C 16.2432 -4.99806 1.89996 0
M  V30 198 C 17.5432 -3.71579 3.67051 0
M  V30 199 H 19.2372 -1.92541 2.29277 0
M  V30 200 H 16.7832 -0.924948 1.10366 0
M  V30 201 H 18.7362 -4.06215 1.12104 0
M  V30 202 H 17.4602 -3.26154 0.170631 0
M  V30 203 H 16.1192 -2.8797 2.26868 0
M  V30 204 H 15.7672 -4.94759 0.906796 0
M  V30 205 H 15.4672 -5.25139 2.63634 0
M  V30 206 H 16.9912 -5.80694 1.88749 0
M  V30 207 H 18.4052 -4.40227 3.67251 0
M  V30 208 H 16.8022 -4.08405 4.39688 0
M  V30 209 H 17.8722 -2.72404 4.01154 0
M  V30 210 N 19.2153 -1.21501 -1.00376 0
M  V30 211 C 20.4433 -1.059 -1.77744 0
M  V30 212 C 20.8583 0.391125 -1.84704 0
M  V30 213 O 20.2153 1.27133 -1.30933 0
M  V30 214 C 20.2663 -1.65111 -3.21591 0
M  V30 215 O 19.9873 -3.0445 -3.15027 0
M  V30 216 C 21.4883 -1.54637 -4.15454 0
M  V30 217 H 18.7083 -0.371825 -0.558558 0
M  V30 218 H 21.2523 -1.60865 -1.26264 0
M  V30 219 H 19.4073 -1.14235 -3.70175 0
M  V30 220 H 19.8213 -3.3278 -4.0541 0
M  V30 221 H 21.2953 -2.00808 -5.14179 0
M  V30 222 H 21.7723 -0.501022 -4.36333 0
M  V30 223 H 22.3783 -2.04767 -3.72761 0
M  V30 224 N 20.6934 1.19889 -1.02296 0
M  V30 225 C 21.9394 1.89973 -0.726759 0
M  V30 226 C 22.2944 1.7776 0.73614 0
M  V30 227 O 21.5874 1.15523 1.52856 0
M  V30 228 C 21.7814 3.39883 -1.10518 0
M  V30 229 C 21.6104 3.66684 -2.60332 0
M  V30 230 C 20.3804 3.85045 -3.27213 0
M  V30 231 C 22.5784 3.68727 -3.58532 0
M  V30 232 N 20.5604 3.99422 -4.66192 0
M  V30 233 C 21.9314 3.88604 -4.83101 0
M  V30 234 C 23.9864 3.51722 -3.52414 0
M  V30 235 C 22.6894 3.9324 -6.02292 0
M  V30 236 C 24.7154 3.57632 -4.71013 0
M  V30 237 C 24.0774 3.77988 -5.94394 0
M  V30 238 H 20.1764 0.714551 -0.317712 0
M  V30 239 H 22.7604 1.44123 -1.30907 0
M  V30 240 H 20.9314 3.8447 -0.551142 0
M  V30 241 H 22.6634 3.97464 -0.761853 0
M  V30 242 H 19.4184 3.83689 -2.77632 0
M  V30 243 H 19.8424 4.10473 -5.38368 0
M  V30 244 H 24.4844 3.34945 -2.58015 0
M  V30 245 H 22.2024 4.08811 -6.97065 0
M  V30 246 H 25.7884 3.45773 -4.67902 0
M  V30 247 H 24.6684 3.82428 -6.8463 0
M  V30 248 N 22.1715 0.800033 1.35784 0
M  V30 249 C 23.1215 0.178654 2.27299 0
M  V30 250 C 24.1055 -0.643667 1.47464 0
M  V30 251 O 25.2975 -0.502 1.69732 0
M  V30 252 C 22.4265 -0.677194 3.36555 0
M  V30 253 C 21.5125 0.154497 4.23818 0
M  V30 254 N 21.9035 1.21427 4.91008 0
M  V30 255 C 20.2015 -0.0649462 4.45953 0
M  V30 256 C 20.9025 1.72147 5.55644 0
M  V30 257 N 19.8785 1.02897 5.33773 0
M  V30 258 H 23.6805 0.989637 2.76737 0
M  V30 259 H 21.1945 0.64054 1.49234 0
M  V30 260 H 23.1915 -1.13835 4.01058 0
M  V30 261 H 21.8515 -1.4866 2.8867 0
M  V30 262 H 22.8625 1.59684 4.92668 0
M  V30 263 H 19.5395 -0.844016 4.0888 0
M  V30 264 H 20.9295 2.60683 6.19269 0
M  V30 265 N 23.6496 -1.47581 0.552962 0
M  V30 266 C 24.8776 -2.06875 0.0320556 0
M  V30 267 C 25.2926 -1.40625 -1.25976 0
M  V30 268 O 24.6496 -0.501349 -1.75479 0
M  V30 269 C 24.7006 -3.61092 -0.17167 0
M  V30 270 O 24.4216 -4.24858 1.06899 0
M  V30 271 C 25.9226 -4.37242 -0.730344 0
M  V30 272 H 23.1426 -0.669561 0.043915 0
M  V30 273 H 25.6866 -1.89646 0.765163 0
M  V30 274 H 23.8416 -3.7785 -0.854894 0
M  V30 275 H 24.2556 -5.17334 0.864059 0
M  V30 276 H 25.7296 -5.45842 -0.822203 0
M  V30 277 H 26.2066 -4.03235 -1.74064 0
M  V30 278 H 26.8126 -4.25219 -0.0829543 0
M  V30 279 N 25.1277 -0.289203 -1.54924 0
M  V30 280 C 26.3527 0.329299 -2.04769 0
M  V30 281 C 26.7777 1.4763 -1.16564 0
M  V30 282 O 26.1357 1.80527 -0.167186 0
M  V30 283 C 26.1837 0.774438 -3.52186 0
M  V30 284 O 25.2877 1.88038 -3.67036 0
M  V30 285 H 24.6287 0.0659259 -0.660719 0
M  V30 286 H 27.1587 -0.42761 -2.00082 0
M  V30 287 H 27.1687 1.06642 -3.93816 0
M  V30 288 H 25.8437 -0.0646707 -4.1585 0
M  V30 289 H 24.4207 1.58985 -3.3731 0
M  V30 290 N 26.6058 1.57591 -0.0167156 0
M  V30 291 C 27.5688 2.08393 0.954204 0
M  V30 292 C 28.5688 0.996531 1.26198 0
M  V30 293 O 29.7588 1.25858 1.20438 0
M  V30 294 C 26.8908 2.5394 2.27436 0
M  V30 295 H 28.0838 2.95455 0.514451 0
M  V30 296 H 25.6368 1.54582 0.231089 0
M  V30 297 H 26.3718 1.70171 2.76066 0
M  V30 298 H 26.1568 3.33371 2.06412 0
M  V30 299 H 27.6468 2.93512 2.97053 0
M  V30 300 N 28.0839 -0.256276 1.55502 0
M  V30 301 C 29.3139 -1.00196 1.80677 0
M  V30 302 C 29.7219 -1.79805 0.588797 0
M  V30 303 O 29.0649 -1.78055 -0.451883 0
M  V30 304 C 29.1269 -1.99515 2.99055 0
M  V30 305 C 28.7909 -1.38688 4.35448 0
M  V30 306 C 29.7879 -0.794079 5.138 0
M  V30 307 C 27.4729 -1.40906 4.82132 0
M  V30 308 C 29.4669 -0.231562 6.36979 0
M  V30 309 C 27.1539 -0.842684 6.05262 0
M  V30 310 C 28.1519 -0.254953 6.82524 0
M  V30 311 O 27.8399 0.3027 8.0333 0
M  V30 312 H 27.5719 -0.300919 0.60533 0
M  V30 313 H 30.1259 -0.287307 2.03381 0
M  V30 314 H 28.3559 -2.74785 2.72084 0
M  V30 315 H 30.0449 -2.60349 3.11405 0
M  V30 316 H 30.8109 -0.769519 4.78856 0
M  V30 317 H 26.6899 -1.85591 4.21992 0
M  V30 318 H 30.2339 0.227816 6.97228 0
M  V30 319 H 26.1309 -0.86454 6.39684 0
M  V30 320 H 26.8989 0.193662 8.18271 0
M  V30 321 N 29.562 -1.4872 -0.521534 0
M  V30 322 C 30.81 -1.56857 -1.27437 0
M  V30 323 C 31.131 -0.247982 -1.93417 0
M  V30 324 O 30.401 0.731151 -1.81744 0
M  V30 325 H 28.981 -0.577885 -0.473347 0
M  V30 326 H 31.643 -1.85233 -0.606205 0
M  V30 327 H 30.739 -2.35402 -2.0492 0
M  V30 328 N 31.0401 0.771051 -1.3745 0
M  V30 329 C 32.4511 1.34737 -1.29239 0
M  V30 330 C 32.8021 1.96109 0.0596908 0
M  V30 331 O 31.9271 1.93865 0.961534 0
M  V30 332 C 32.5221 2.44973 -2.34037 0
M  V30 333 C 31.0811 2.98372 -2.29458 0
M  V30 334 C 30.2281 1.71595 -2.17831 0
M  V30 335 H 33.1791 0.571256 -1.48062 0
M  V30 336 H 33.2001 3.24471 -1.98744 0
M  V30 337 H 32.7121 2.00276 -3.32432 0
M  V30 338 H 30.8131 3.47443 -1.34589 0
M  V30 339 H 30.9261 3.53939 -3.229 0
M  V30 340 H 29.2901 1.94547 -1.64388 0
M  V30 341 H 30.0731 1.29001 -3.18141 0
M  V30 342 N 32.5182 1.22032 0.997298 0
M  V30 343 C 33.7952 0.950823 1.70935 0
M  V30 344 C 34.1752 -0.535292 2.042 0
M  V30 345 O 33.5232 -1.50217 1.72183 0
M  V30 346 C 33.7332 1.84386 2.96315 0
M  V30 347 C 35.0812 2.09732 3.69185 0
M  V30 348 O 36.1052 1.81798 3.06314 0
M  V30 349 O 34.9642 2.57018 4.82291 0
M  V30 350 H 32.0582 0.357204 0.745878 0
M  V30 351 H 34.6042 1.32997 1.05404 0
M  V30 352 H 33.3762 2.84928 2.68201 0
M  V30 353 H 32.9992 1.46602 3.69586 0
M  V30 354 N 33.9963 -1.19345 1.0293 0
M  V30 355 C 34.9283 -2.22036 0.56857 0
M  V30 356 C 35.9413 -1.58865 -0.355779 0
M  V30 357 O 37.1303 -1.77851 -0.152103 0
M  V30 358 C 34.2303 -3.38363 -0.190752 0
M  V30 359 C 33.4033 -4.31118 0.738643 0
M  V30 360 C 32.4623 -5.26194 0.0246497 0
M  V30 361 O 31.4883 -5.65461 0.651354 0
M  V30 362 N 32.6903 -5.66971 -1.24594 0
M  V30 363 H 35.4553 -2.6219 1.45177 0
M  V30 364 H 33.0163 -1.34015 0.908381 0
M  V30 365 H 35.0083 -3.98981 -0.677961 0
M  V30 366 H 33.5783 -2.96994 -0.975366 0
M  V30 367 H 32.7983 -3.68276 1.40593 0
M  V30 368 H 34.0863 -4.90001 1.37029 0
M  V30 369 H 33.4843 -5.37104 -1.77583 0
M  V30 370 H 32.0413 -6.2984 -1.67764 0
M  V30 371 N 35.4744 -0.807222 -1.35358 0
M  V30 372 C 36.8904 -0.491038 -1.51858 0
M  V30 373 C 37.0904 0.987648 -1.75635 0
M  V30 374 O 36.1464 1.77265 -1.79815 0
M  V30 375 C 37.4594 -1.33695 -2.69344 0
M  V30 376 C 39.0074 -1.33246 -2.83222 0
M  V30 377 C 39.4824 -2.1625 -4.03733 0
M  V30 378 N 40.9734 -2.1379 -4.10911 0
M  V30 379 C 41.7084 -2.74772 -5.03277 0
M  V30 380 N 41.2044 -3.44684 -6.0097 0
M  V30 381 N 42.9974 -2.6441 -4.96028 0
M  V30 382 H 35.1484 -1.76485 -1.18181 0
M  V30 383 H 37.4114 -0.751199 -0.578276 0
M  V30 384 H 37.1174 -2.38634 -2.58354 0
M  V30 385 H 36.9914 -0.990618 -3.6396 0
M  V30 386 H 39.3784 -0.290911 -2.93663 0
M  V30 387 H 39.4594 -1.71866 -1.89461 0
M  V30 388 H 39.1034 -3.20445 -3.94052 0
M  V30 389 H 39.0334 -1.74989 -4.96675 0
M  V30 390 H 41.5244 -1.62923 -3.40976 0
M  V30 391 H 41.8374 -3.88501 -6.68047 0
M  V30 392 H 40.1824 -3.48788 -6.01142 0
M  V30 393 H 43.3734 -2.0938 -4.18662 0
M  V30 394 H 43.5464 -3.12225 -5.6782 0
M  V30 395 N 36.9525 1.47285 -0.560781 0
M  V30 396 C 37.9155 2.28535 0.174488 0
M  V30 397 C 38.9155 1.37153 0.839388 0
M  V30 398 O 40.1055 1.59748 0.694702 0
M  V30 399 C 37.2375 3.16934 1.25561 0
M  V30 400 H 38.4305 2.95012 -0.539262 0
M  V30 401 H 35.9835 1.53034 -0.317865 0
M  V30 402 H 36.7185 2.55157 2.00164 0
M  V30 403 H 36.5035 3.8419 0.783604 0
M  V30 404 H 37.9935 3.78143 1.77193 0
M  V30 405 N 38.4306 0.297415 1.54768 0
M  V30 406 C 39.3626 -0.613881 2.20826 0
M  V30 407 C 40.3756 -1.10032 1.19987 0
M  V30 408 O 41.5646 -1.01839 1.46598 0
M  V30 409 C 38.6646 -1.852 2.83821 0
M  V30 410 C 37.8376 -1.50865 4.10559 0
M  V30 411 C 36.8966 -2.60154 4.57391 0
M  V30 412 O 35.9226 -2.25398 5.2267 0
M  V30 413 N 37.1246 -3.90629 4.29406 0
M  V30 414 H 39.8896 -0.048389 2.99661 0
M  V30 415 H 37.4506 0.11946 1.61459 0
M  V30 416 H 39.4426 -2.57652 3.12086 0
M  V30 417 H 38.0126 -2.32597 2.08847 0
M  V30 418 H 37.2326 -0.616925 3.89343 0
M  V30 419 H 38.5206 -1.25458 4.9309 0
M  V30 420 H 37.9186 -4.21677 3.77101 0
M  V30 421 H 36.4756 -4.59391 4.62388 0
M  V30 422 N 39.9087 -1.5758 0.0250728 0
M  V30 423 C 40.8557 -2.09973 -0.958129 0
M  V30 424 C 41.8257 -1.00085 -1.3256 0
M  V30 425 O 43.0107 -1.27481 -1.41962 0
M  V30 426 C 40.1507 -2.62812 -2.2366 0
M  V30 427 C 39.2637 -3.86693 -1.92594 0
M  V30 428 C 38.3987 -4.27941 -3.14707 0
M  V30 429 C 37.4377 -5.44591 -2.79442 0
M  V30 430 N 36.5747 -5.81014 -3.94167 0
M  V30 431 H 41.4147 -2.937 -0.504428 0
M  V30 432 H 38.9517 -1.45172 -0.237392 0
M  V30 433 H 40.9097 -2.91536 -2.98434 0
M  V30 434 H 39.5397 -1.81922 -2.66654 0
M  V30 435 H 38.5917 -3.64723 -1.0808 0
M  V30 436 H 39.9037 -4.71547 -1.62619 0
M  V30 437 H 39.0577 -4.58079 -3.97804 0
M  V30 438 H 37.7967 -3.41845 -3.4784 0
M  V30 439 H 36.8017 -5.1415 -1.94755 0
M  V30 440 H 38.0267 -6.32382 -2.47528 0
M  V30 441 H 35.9727 -4.97874 -4.2715 0
M  V30 442 H 35.8897 -6.60498 -3.67801 0
M  V30 443 H 37.1577 -6.15756 -4.7798 0
M  V30 444 N 41.3868 0.248026 -1.55636 0
M  V30 445 C 42.3338 1.30707 -1.90222 0
M  V30 446 C 43.3038 1.47881 -0.756332 0
M  V30 447 O 44.4888 1.61883 -1.00988 0
M  V30 448 C 41.6288 2.65769 -2.20138 0
M  V30 449 C 40.7418 2.56612 -3.47526 0
M  V30 450 C 39.8768 3.8402 -3.67017 0
M  V30 451 C 38.9158 3.69476 -4.8801 0
M  V30 452 N 38.0528 4.88774 -5.04029 0
M  V30 453 H 42.8928 1.00512 -2.80538 0
M  V30 454 H 40.4298 0.485055 -1.38873 0
M  V30 455 H 42.3878 3.44386 -2.35487 0
M  V30 456 H 41.0178 2.94115 -1.33027 0
M  V30 457 H 40.0698 1.69571 -3.40514 0
M  V30 458 H 41.3818 2.41774 -4.36287 0
M  V30 459 H 40.5358 4.7108 -3.8232 0
M  V30 460 H 39.2748 4.01754 -2.76487 0
M  V30 461 H 38.2798 2.80799 -4.72686 0
M  V30 462 H 39.5048 3.53238 -5.8 0
M  V30 463 H 37.4508 5.0687 -4.16435 0
M  V30 464 H 37.3678 4.76562 -5.86877 0
M  V30 465 H 38.6358 5.77335 -5.23741 0
M  V30 466 N 42.8649 1.48995 0.513639 0
M  V30 467 C 44.1129 1.57531 1.26604 0
M  V30 468 C 44.4339 0.258236 1.93283 0
M  V30 469 O 43.7039 -0.721502 1.8213 0
M  V30 470 H 42.2839 0.580387 0.470276 0
M  V30 471 H 44.9459 1.85552 0.596373 0
M  V30 472 H 44.0419 2.36486 2.03669 0
M  V30 473 N 44.343 -0.763751 1.37857 0
M  V30 474 C 45.62 -1.51244 1.24035 0
M  V30 475 C 46 -2.10472 -0.162649 0
M  V30 476 O 45.348 -1.96206 -1.17112 0
M  V30 477 C 45.558 -2.58694 2.34261 0
M  V30 478 C 46.906 -3.25878 2.72193 0
M  V30 479 O 47.93 -2.68993 2.33497 0
M  V30 480 O 46.789 -4.2874 3.38887 0
M  V30 481 H 43.883 -0.670243 0.484462 0
M  V30 482 H 46.429 -0.800031 1.49658 0
M  V30 483 H 45.201 -2.13105 3.2818 0
M  V30 484 H 44.824 -3.37527 2.10146 0
M  V30 485 N 45.8211 -1.22559 -0.990812 0
M  V30 486 C 47.0701 -1.04553 -1.72486 0
M  V30 487 C 47.3831 0.419349 -1.91052 0
M  V30 488 O 48.5891 0.719121 -2.61803 0
M  V30 489 C 47.0451 -1.82231 -3.10355 0
M  V30 490 C 46.6531 -3.32981 -2.99713 0
M  V30 491 C 48.3971 -1.7268 -3.87791 0
M  V30 492 C 46.3041 -4.03091 -4.32748 0
M  V30 493 H 45.2341 -0.387614 -0.646739 0
M  V30 494 H 47.8851 -1.46429 -1.10593 0
M  V30 495 H 46.2671 -1.33155 -3.72942 0
M  V30 496 H 47.4411 -3.89466 -2.46278 0
M  V30 497 H 45.7561 -3.43231 -2.35758 0
M  V30 498 H 48.3531 -2.22381 -4.86262 0
M  V30 499 H 48.6961 -0.687607 -4.10582 0
M  V30 500 H 49.2291 -2.1931 -3.31885 0
M  V30 501 H 45.9681 -5.07273 -4.15156 0
M  V30 502 H 45.4881 -3.51394 -4.86089 0
M  V30 503 H 47.1671 -4.08804 -5.01486 0
M  V30 504 N 47.2992 1.18797 -1.03562 0
M  V30 505 C 48.5482 1.87978 -0.731235 0
M  V30 506 C 48.8612 1.80911 0.743671 0
M  V30 507 O 50.0672 2.45407 1.16137 0
M  V30 508 C 48.5232 3.3721 -1.25768 0
M  V30 509 C 48.1312 3.52818 -2.76085 0
M  V30 510 C 49.8752 4.11825 -1.0296 0
M  V30 511 C 47.7822 4.9598 -3.22114 0
M  V30 512 H 46.7122 0.704063 -0.269835 0
M  V30 513 H 49.3632 1.34266 -1.25079 0
M  V30 514 H 47.7452 3.90359 -0.666011 0
M  V30 515 H 48.9192 3.09965 -3.40966 0
M  V30 516 H 47.2342 2.91602 -2.97249 0
M  V30 517 H 49.8312 5.17411 -1.34869 0
M  V30 518 H 50.1742 4.16287 0.0333546 0
M  V30 519 H 50.7072 3.64833 -1.58562 0
M  V30 520 H 47.4462 4.96684 -4.27768 0
M  V30 521 H 46.9662 5.39569 -2.61965 0
M  V30 522 H 48.6452 5.6467 -3.15844 0
M  V30 523 N 48.7773 0.814389 1.34928 0
M  V30 524 C 49.7073 0.244827 2.32213 0
M  V30 525 C 50.6883 -0.634024 1.57842 0
M  V30 526 O 51.8733 -0.562676 1.8587 0
M  V30 527 C 49.0033 -0.601106 3.42058 0
M  V30 528 C 47.9573 0.179896 4.27622 0
M  V30 529 C 47.2833 -0.788237 5.28858 0
M  V30 530 C 48.5833 1.38329 5.03649 0
M  V30 531 H 50.2773 1.05763 2.80097 0
M  V30 532 H 47.8233 0.510029 1.34665 0
M  V30 533 H 49.7763 -1.00968 4.09125 0
M  V30 534 H 48.5003 -1.44688 2.92802 0
M  V30 535 H 47.1593 0.569739 3.62146 0
M  V30 536 H 46.8073 -1.62973 4.75866 0
M  V30 537 H 46.5073 -0.269942 5.8698 0
M  V30 538 H 48.0313 -1.19485 5.98795 0
M  V30 539 H 49.4453 1.04918 5.63618 0
M  V30 540 H 47.8423 1.83662 5.71304 0
M  V30 541 H 48.9123 2.16592 4.33839 0
M  V30 542 N 50.2554 -1.46986 0.568584 0
M  V30 543 C 51.5034 -2.02041 0.0487022 0
M  V30 544 C 51.8244 -1.44408 -1.31039 0
M  V30 545 O 51.0944 -0.623477 -1.85714 0
M  V30 546 H 49.6744 -0.746849 0.015014 0
M  V30 547 H 52.3364 -1.80257 0.741168 0
M  V30 548 H 51.4324 -3.12085 -0.0308961 0
M  V30 549 N 51.7335 -0.305618 -1.54608 0
M  V30 550 C 52.9815 0.301701 -1.99835 0
M  V30 551 C 53.3025 1.54054 -1.19551 0
M  V30 552 O 52.5725 1.93702 -0.292658 0
M  V30 553 H 51.1525 0.114468 -0.738178 0
M  V30 554 H 53.8145 -0.418016 -1.90364 0
M  V30 555 H 52.9105 0.570548 -3.06841 0
M  V30 556 N 53.2116 1.57565 -0.0334293 0
M  V30 557 C 54.1416 2.13511 0.945265 0
M  V30 558 C 55.1226 1.05231 1.33643 0
M  V30 559 O 56.3076 1.33084 1.41429 0
M  V30 560 C 53.4376 2.6657 2.22616 0
M  V30 561 C 52.3916 3.79676 1.97561 0
M  V30 562 C 51.7176 4.1918 3.31952 0
M  V30 563 C 53.0176 5.0557 1.31135 0
M  V30 564 H 54.7116 2.95538 0.479325 0
M  V30 565 H 52.2576 1.42166 0.229115 0
M  V30 566 H 54.2106 3.04344 2.91466 0
M  V30 567 H 52.9346 1.8171 2.71384 0
M  V30 568 H 51.5936 3.42347 1.31127 0
M  V30 569 H 51.2416 3.31296 3.78487 0
M  V30 570 H 50.9416 4.95402 3.15992 0
M  V30 571 H 52.4656 4.59541 4.02063 0
M  V30 572 H 53.8796 5.40903 1.89992 0
M  V30 573 H 52.2766 5.86818 1.25559 0
M  V30 574 H 53.3466 4.84062 0.284894 0
M  V30 575 N 54.6897 -0.239769 1.55765 0
M  V30 576 C 55.9367 -0.966801 1.7793 0
M  V30 577 C 56.2647 -1.85046 0.599015 0
M  V30 578 O 55.5197 -1.91197 -0.417395 0
M  V30 579 C 55.8187 -1.852 3.05672 0
M  V30 580 C 55.4847 -1.1231 4.36689 0
M  V30 581 C 54.1467 -0.921689 4.72291 0
M  V30 582 C 56.4987 -0.607019 5.17653 0
M  V30 583 C 53.8267 -0.191996 5.86386 0
M  V30 584 C 56.1787 0.109241 6.32506 0
M  V30 585 C 54.8427 0.322073 6.66723 0
M  V30 586 H 54.1127 -0.353778 0.651093 0
M  V30 587 H 56.7597 -0.23634 1.90036 0
M  V30 588 H 55.0647 -2.64975 2.8861 0
M  V30 589 H 56.7617 -2.41635 3.20021 0
M  V30 590 H 53.3517 -1.29004 4.08725 0
M  V30 591 H 57.5357 -0.750153 4.90598 0
M  V30 592 H 52.7917 -0.0166949 6.11398 0
M  V30 593 H 56.9657 0.516737 6.9448 0
M  V30 594 H 54.5927 0.88944 7.54979 0
M  V30 595 N 56.1678 -1.49265 -0.50573 0
M  V30 596 C 57.5788 -1.51769 -1.08734 0
M  V30 597 C 57.9298 -0.301192 -1.93874 0
M  V30 598 O 57.0548 0.589456 -2.08217 0
M  V30 599 C 57.6498 -2.75017 -1.97867 0
M  V30 600 C 56.2088 -2.80314 -2.51199 0
M  V30 601 C 55.3558 -2.4562 -1.28709 0
M  V30 602 H 58.3068 -1.56031 -0.289855 0
M  V30 603 H 58.3278 -2.5491 -2.82491 0
M  V30 604 H 57.8398 -3.63539 -1.35873 0
M  V30 605 H 55.9408 -1.96061 -3.16845 0
M  V30 606 H 56.0538 -3.82366 -2.88675 0
M  V30 607 H 54.4178 -1.97297 -1.61078 0
M  V30 608 H 55.2008 -3.36411 -0.6843 0
M  V30 609 N 57.6459 0.756429 -1.3826 0
M  V30 610 C 58.8949 1.51082 -1.3363 0
M  V30 611 C 59.2079 1.95467 0.0720068 0
M  V30 612 O 60.4139 2.7043 0.240834 0
M  V30 613 C 58.8699 2.72893 -2.34644 0
M  V30 614 C 58.4779 2.35544 -3.81081 0
M  V30 615 C 60.2219 3.50791 -2.39052 0
M  V30 616 C 58.1289 3.53948 -4.73787 0
M  V30 617 H 57.0589 0.56727 -0.49671 0
M  V30 618 H 59.7099 0.827147 -1.638 0
M  V30 619 H 58.0919 3.43227 -1.97513 0
M  V30 620 H 59.2659 1.72894 -4.27135 0
M  V30 621 H 57.5809 1.70786 -3.79764 0
M  V30 622 H 60.1779 4.38823 -3.05513 0
M  V30 623 H 60.5209 3.91745 -1.40861 0
M  V30 624 H 61.0539 2.87467 -2.74968 0
M  V30 625 H 57.7929 3.18064 -5.73163 0
M  V30 626 H 57.3129 4.15651 -4.32428 0
M  V30 627 H 58.9919 4.20566 -4.91663 0
M  V30 628 N 59.124 1.23083 0.984299 0
M  V30 629 C 60.074 0.975749 2.06066 0
M  V30 630 C 61.058 -0.0768251 1.60716 0
M  V30 631 O 62.25 0.134805 1.76486 0
M  V30 632 C 59.379 0.564673 3.38624 0
M  V30 633 C 58.465 1.65244 3.90583 0
M  V30 634 N 58.856 2.88193 4.15666 0
M  V30 635 C 57.154 1.52612 4.19077 0
M  V30 636 C 57.855 3.58593 4.58024 0
M  V30 637 N 56.831 2.86093 4.62225 0
M  V30 638 H 60.633 1.90957 2.23411 0
M  V30 639 H 58.147 1.12963 1.16675 0
M  V30 640 H 60.144 0.36322 4.15315 0
M  V30 641 H 58.804 -0.362147 3.22674 0
M  V30 642 H 59.815 3.24537 4.03604 0
M  V30 643 H 56.492 0.666121 4.12152 0
M  V30 644 H 57.882 4.63974 4.85982 0
M  V30 645 N 60.6021 -1.18246 1.0419 0
M  V30 646 C 61.8491 -1.88257 0.746017 0
M  V30 647 C 62.1771 -1.80429 -0.726331 0
M  V30 648 O 61.4321 -1.2 -1.54591 0
M  V30 649 C 61.7311 -3.38082 1.15911 0
M  V30 650 C 61.3971 -3.66114 2.63195 0
M  V30 651 C 60.0591 -3.73474 3.03432 0
M  V30 652 C 62.4111 -3.78398 3.5842 0
M  V30 653 C 59.7391 -3.90599 4.37778 0
M  V30 654 C 62.0911 -3.97039 4.92487 0
M  V30 655 C 60.7551 -4.02635 5.32392 0
M  V30 656 H 60.0251 -0.688883 0.272987 0
M  V30 657 H 62.6721 -1.3995 1.30715 0
M  V30 658 H 60.9771 -3.88377 0.516806 0
M  V30 659 H 62.6741 -3.90596 0.907516 0
M  V30 660 H 59.2641 -3.61003 2.3103 0
M  V30 661 H 63.4481 -3.72042 3.28479 0
M  V30 662 H 58.7041 -3.93175 4.68213 0
M  V30 663 H 62.8781 -4.05486 5.66175 0
M  V30 664 H 60.5051 -4.15657 6.36501 0
M  V30 665 N 62.0802 -0.821533 -1.34494 0
M  V30 666 C 63.3282 -0.408139 -1.97936 0
M  V30 667 C 63.6492 1.03193 -1.65457 0
M  V30 668 O 62.9192 1.71622 -0.944595 0
M  V30 669 H 61.4992 -0.147928 -0.732206 0
M  V30 670 H 64.1612 -1.05067 -1.64155 0
M  V30 671 H 63.2572 -0.52601 -3.07635 0
M  V30 672 N 63.5583 1.46682 -0.576371 0
M  V30 673 C 64.8043 2.02712 -0.0596221 0
M  V30 674 C 65.1373 1.44765 1.29448 0
M  V30 675 O 64.4123 0.610355 1.84675 0
M  V30 676 C 64.6953 3.60098 0.0129503 0
M  V30 677 C 64.5483 4.28441 -1.3696 0
M  V30 678 C 65.8673 4.34224 0.71678 0
M  V30 679 H 62.9863 0.736637 -0.0231407 0
M  V30 680 H 65.6283 1.74898 -0.742351 0
M  V30 681 H 63.7783 3.83926 0.594378 0
M  V30 682 H 65.4503 4.15896 -1.9957 0
M  V30 683 H 63.6933 3.8805 -1.93907 0
M  V30 684 H 64.3643 5.3716 -1.27135 0
M  V30 685 H 66.8403 4.15503 0.222908 0
M  V30 686 H 65.7163 5.43936 0.73657 0
M  V30 687 H 65.9773 4.04823 1.77682 0
M  V30 688 N 65.0364 0.313813 1.54444 0
M  V30 689 C 65.9994 -0.54379 2.22656 0
M  V30 690 C 66.9994 -1.05124 1.21678 0
M  V30 691 O 68.1894 -0.945225 1.46325 0
M  V30 692 C 65.3214 -1.75427 2.92298 0
M  V30 693 H 66.5144 0.0523599 2.99854 0
M  V30 694 H 64.0674 0.0647834 1.56166 0
M  V30 695 H 64.8024 -2.38991 2.19211 0
M  V30 696 H 64.5874 -1.39791 3.66334 0
M  V30 697 H 66.0774 -2.36325 3.44297 0
M  V30 698 N 66.5145 -1.57545 0.0417849 0
M  V30 699 C 67.4775 -2.09885 -0.92093 0
M  V30 700 C 68.4775 -1.01648 -1.24596 0
M  V30 701 O 69.6675 -1.27759 -1.1842 0
M  V30 702 C 66.7995 -2.57527 -2.23367 0
M  V30 703 H 67.9925 -2.96236 -0.467382 0
M  V30 704 H 65.5455 -1.5493 -0.206467 0
M  V30 705 H 66.2805 -1.74542 -2.73323 0
M  V30 706 H 66.0655 -3.36613 -2.01083 0
M  V30 707 H 67.5555 -2.98201 -2.92346 0
M  V30 708 N 67.9926 0.231505 -1.5589 0
M  V30 709 C 68.9396 1.28682 -1.91598 0
M  V30 710 C 69.9096 1.47071 -0.771974 0
M  V30 711 O 71.0946 1.60802 -1.027 0
M  V30 712 C 68.2346 2.6342 -2.22944 0
M  V30 713 C 67.3476 2.52912 -3.50228 0
M  V30 714 C 66.4826 3.80106 -3.7107 0
M  V30 715 C 65.5216 3.64279 -4.91902 0
M  V30 716 N 64.6586 4.834 -5.09184 0
M  V30 717 H 69.4986 0.975305 -2.81588 0
M  V30 718 H 67.0356 0.470299 -1.39379 0
M  V30 719 H 68.9936 3.41869 -2.39126 0
M  V30 720 H 67.6236 2.92687 -1.36139 0
M  V30 721 H 66.6756 1.6595 -3.42294 0
M  V30 722 H 67.9876 2.37133 -4.38827 0
M  V30 723 H 67.1416 4.66999 -3.87295 0
M  V30 724 H 65.8806 3.98799 -2.80733 0
M  V30 725 H 64.8856 2.7577 -4.75637 0
M  V30 726 H 66.1106 3.47067 -5.83714 0
M  V30 727 H 64.0566 5.02425 -4.21788 0
M  V30 728 H 63.9736 4.70311 -5.91898 0
M  V30 729 H 65.2416 5.71747 -5.29835 0
M  V30 730 N 69.4707 1.49531 0.497807 0
M  V30 731 C 70.7477 1.49682 1.25915 0
M  V30 732 C 71.1277 0.226339 2.09883 0
M  V30 733 O 70.4757 -0.791189 2.14365 0
M  V30 734 C 70.6857 2.77755 2.11313 0
M  V30 735 C 72.0337 3.27371 2.70395 0
M  V30 736 O 73.0577 2.78894 2.21578 0
M  V30 737 O 71.9167 4.11808 3.59272 0
M  V30 738 H 69.0107 0.599228 0.56996 0
M  V30 739 H 71.5567 1.61798 0.511816 0
M  V30 740 H 70.3287 3.61713 1.49264 0
M  V30 741 H 69.9517 2.68515 2.93233 0
M  V30 742 N 70.9488 -0.749086 1.3866 0
M  V30 743 C 71.8808 -1.87273 1.32142 0
M  V30 744 C 72.8938 -1.61127 0.232787 0
M  V30 745 O 74.0828 -1.71623 0.49069 0
M  V30 746 C 71.1828 -3.23005 1.02571 0
M  V30 747 C 70.3558 -3.7662 2.22433 0
M  V30 748 C 69.4148 -4.90879 1.89537 0
M  V30 749 O 68.4408 -5.05276 2.62078 0
M  V30 750 N 69.6428 -5.74198 0.853031 0
M  V30 751 H 72.4078 -1.93373 2.28969 0
M  V30 752 H 69.9688 -0.929216 1.32579 0
M  V30 753 H 71.9608 -3.96992 0.786085 0
M  V30 754 H 70.5308 -3.12262 0.145249 0
M  V30 755 H 69.7508 -2.94147 2.62434 0
M  V30 756 H 71.0388 -4.09173 3.02415 0
M  V30 757 H 70.4368 -5.6514 0.25155 0
M  V30 758 H 68.9938 -6.48313 0.67329 0
M  V30 759 N 72.4269 -1.23603 -0.977757 0
M  V30 760 C 73.7039 -0.977897 -1.69401 0
M  V30 761 C 74.0839 0.502738 -2.05026 0
M  V30 762 O 73.4319 1.47459 -1.74551 0
M  V30 763 C 73.6419 -1.89077 -2.93345 0
M  V30 764 C 74.9899 -2.15579 -3.65802 0
M  V30 765 O 76.0139 -1.86648 -3.03383 0
M  V30 766 O 74.8729 -2.64658 -4.78141 0
M  V30 767 H 71.9669 -0.369025 -0.740101 0
M  V30 768 H 74.5129 -1.34657 -1.03274 0
M  V30 769 H 73.2849 -2.89158 -2.63634 0
M  V30 770 H 72.9079 -1.52463 -3.67207 0
M  V30 771 N 73.905 1.17692 -1.04816 0
M  V30 772 C 74.835 2.23777 -0.666791 0
M  V30 773 C 75.816 1.66796 0.33361 0
M  V30 774 O 77.001 1.93039 0.212042 0
M  V30 775 C 74.131 3.47281 -0.0367933 0
M  V30 776 C 73.085 4.17059 -0.961546 0
M  V30 777 C 72.411 5.34342 -0.195626 0
M  V30 778 C 73.711 4.69713 -2.28402 0
M  V30 779 H 75.405 2.55933 -1.55367 0
M  V30 780 H 72.951 1.23019 -0.748484 0
M  V30 781 H 74.904 4.20706 0.241775 0
M  V30 782 H 73.628 3.14381 0.885004 0
M  V30 783 H 72.287 3.45541 -1.22462 0
M  V30 784 H 71.935 4.97692 0.728816 0
M  V30 785 H 71.635 5.81966 -0.811775 0
M  V30 786 H 73.159 6.10553 0.0757473 0
M  V30 787 H 74.573 5.34794 -2.06563 0
M  V30 788 H 72.97 5.279 -2.8538 0
M  V30 789 H 74.04 3.86726 -2.92525 0
M  V30 790 N 75.3831 0.828654 1.34056 0
M  V30 791 C 76.3301 0.252567 2.29414 0
M  V30 792 C 77.3001 -0.62588 1.53857 0
M  V30 793 O 78.4851 -0.566312 1.82202 0
M  V30 794 C 75.6251 -0.574831 3.40279 0
M  V30 795 C 74.7381 0.326499 4.30764 0
M  V30 796 C 73.8731 -0.511016 5.28736 0
M  V30 797 C 72.9121 0.389342 6.1086 0
M  V30 798 N 72.0491 -0.409439 7.00905 0
M  V30 799 H 76.8891 1.07108 2.78086 0
M  V30 800 H 74.4261 0.539677 1.36843 0
M  V30 801 H 76.3841 -1.06992 4.03248 0
M  V30 802 H 75.0141 -1.35841 2.92826 0
M  V30 803 H 74.0661 0.939837 3.68607 0
M  V30 804 H 75.3781 1.01857 4.88289 0
M  V30 805 H 74.5321 -1.07035 5.97184 0
M  V30 806 H 73.2711 -1.23657 4.71763 0
M  V30 807 H 72.2761 0.960769 5.4134 0
M  V30 808 H 73.5011 1.1131 6.69916 0
M  V30 809 H 71.4471 -1.11856 6.46393 0
M  V30 810 H 71.3641 0.224126 7.55668 0
M  V30 811 H 72.6321 -0.951336 7.73673 0
M  V30 812 N 76.8612 -1.46375 0.584142 0
M  V30 813 C 78.0862 -2.07268 0.0740405 0
M  V30 814 C 78.5112 -1.42979 -1.22223 0
M  V30 815 O 77.8692 -0.514092 -1.73859 0
M  V30 816 C 77.9172 -3.60518 -0.0767769 0
M  V30 817 O 77.0212 -3.96533 -1.13292 0
M  V30 818 H 76.3622 -0.660961 0.0634524 0
M  V30 819 H 78.8922 -1.87991 0.807492 0
M  V30 820 H 78.9022 -4.07021 -0.282489 0
M  V30 821 H 77.5772 -4.06702 0.86986 0
M  V30 822 H 76.1542 -3.61738 -0.905553 0
M  V30 823 N 78.3393 -0.321999 -1.54275 0
M  V30 824 C 79.7553 0.0306999 -1.5957 0
M  V30 825 C 79.9553 1.50614 -1.33857 0
M  V30 826 O 79.0113 2.2619 -1.12223 0
M  V30 827 C 80.3243 -0.386122 -2.98211 0
M  V30 828 C 81.8723 -0.336647 -3.11184 0
M  V30 829 C 82.3473 -0.728607 -4.52167 0
M  V30 830 N 83.8383 -0.681952 -4.58152 0
M  V30 831 C 84.5733 -0.957449 -5.6535 0
M  V30 832 N 84.0693 -1.3 -6.80494 0
M  V30 833 N 85.8623 -0.883113 -5.55119 0
M  V30 834 H 78.0133 -1.28332 -1.69247 0
M  V30 835 H 80.2763 -0.521716 -0.791528 0
M  V30 836 H 79.9823 -1.41404 -3.22022 0
M  V30 837 H 79.8563 0.249662 -3.76373 0
M  V30 838 H 82.2433 0.682058 -2.8711 0
M  V30 839 H 82.3243 -1.00734 -2.3513 0
M  V30 840 H 81.9683 -1.74522 -4.76974 0
M  V30 841 H 81.8983 -0.0356152 -5.26588 0
M  V30 842 H 84.3893 -0.428985 -3.75457 0
M  V30 843 H 84.7023 -1.49563 -7.58189 0
M  V30 844 H 83.0473 -1.33824 -6.81994 0
M  V30 845 H 86.2383 -0.615001 -4.64042 0
M  V30 846 H 86.4113 -1.10118 -6.38575 0
M  V30 847 N 79.8174 1.5752 -0.0501392 0
M  V30 848 C 81.2284 1.80271 0.485705 0
M  V30 849 C 81.5794 0.96228 1.70981 0
M  V30 850 O 80.7044 0.178578 2.15662 0
M  V30 851 C 81.2994 3.26957 0.887938 0
M  V30 852 C 79.8584 3.5063 1.36877 0
M  V30 853 C 79.0054 2.75165 0.343468 0
M  V30 854 H 81.9564 1.56281 -0.276028 0
M  V30 855 H 81.9774 3.37821 1.75093 0
M  V30 856 H 81.4894 3.881 -0.0031809 0
M  V30 857 H 79.5904 2.94766 2.27911 0
M  V30 858 H 79.7034 4.59343 1.36164 0
M  V30 859 H 78.0674 2.4127 0.816128 0
M  V30 860 H 78.8504 3.39034 -0.539548 0
M  V30 861 N 81.2955 -0.223234 1.56011 0
M  V30 862 C 82.2055 -1.29766 1.95443 0
M  V30 863 C 83.2215 -1.51373 0.858028 0
M  V30 864 O 84.3975 -1.64536 1.16146 0
M  V30 865 C 81.4625 -2.62772 2.26167 0
M  V30 866 C 80.5235 -2.49482 3.49367 0
M  V30 867 C 79.7565 -3.76145 3.78616 0
M  V30 868 O 79.9795 -4.79087 3.09568 0
M  V30 869 O 78.9135 -3.73358 4.72109 0
M  V30 870 H 82.7395 -0.99309 2.87004 0
M  V30 871 H 80.3245 -0.425958 1.43199 0
M  V30 872 H 82.2065 -3.41327 2.47131 0
M  V30 873 H 80.8815 -2.92913 1.37781 0
M  V30 874 H 79.7885 -1.69133 3.33684 0
M  V30 875 H 81.1215 -2.2428 4.38131 0
M  V30 876 N 82.7736 -1.49793 -0.48987 0
M  V30 877 C 83.9986 -1.63836 -1.27172 0
M  V30 878 C 84.4236 -0.31402 -1.8546 0
M  V30 879 O 83.7816 0.719803 -1.66399 0
M  V30 880 C 83.8296 -2.71797 -2.36978 0
M  V30 881 O 82.9336 -2.31744 -3.41128 0
M  V30 882 H 82.2746 -0.547997 -0.37496 0
M  V30 883 H 84.8046 -1.96053 -0.585191 0
M  V30 884 H 84.8146 -2.94305 -2.82575 0
M  V30 885 H 83.4896 -3.67923 -1.93921 0
M  V30 886 H 82.0666 -2.1961 -3.01373 0
M  V30 887 N 84.2517 0.741722 -1.39055 0
M  V30 888 C 85.4977 1.50336 -1.36113 0
M  V30 889 C 85.8307 1.94148 0.0450796 0
M  V30 890 O 85.1057 1.66301 1.00868 0
M  V30 891 C 85.3887 2.74773 -2.32749 0
M  V30 892 C 85.2417 2.37023 -3.82283 0
M  V30 893 C 86.5607 3.76846 -2.27322 0
M  V30 894 H 83.6797 0.545351 -0.495743 0
M  V30 895 H 86.3217 0.848624 -1.69995 0
M  V30 896 H 84.4717 3.30639 -2.03986 0
M  V30 897 H 86.1437 1.8684 -4.21768 0
M  V30 898 H 84.3867 1.69334 -3.99385 0
M  V30 899 H 85.0577 3.26104 -4.45376 0
M  V30 900 H 87.5337 3.30548 -2.5274 0
M  V30 901 H 86.4097 4.6159 -2.97028 0
M  V30 902 H 86.6707 4.23286 -1.27599 0
M  V30 903 N 85.7298 1.2412 0.971189 0
M  V30 904 C 86.6398 1.04747 2.09917 0
M  V30 905 C 87.6558 -0.0107162 1.73997 0
M  V30 906 O 88.8318 0.186714 2.00533 0
M  V30 907 C 85.8968 0.650828 3.40537 0
M  V30 908 C 84.9578 1.7851 3.90426 0
M  V30 909 C 84.1908 1.40729 5.14812 0
M  V30 910 O 84.4138 0.29557 5.69634 0
M  V30 911 O 83.3478 2.23168 5.58999 0
M  V30 912 H 87.1738 1.99304 2.29154 0
M  V30 913 H 84.7588 1.02908 1.08307 0
M  V30 914 H 86.6408 0.440992 4.19086 0
M  V30 915 H 85.3158 -0.265649 3.22608 0
M  V30 916 H 84.2228 2.04966 3.12953 0
M  V30 917 H 85.5558 2.68023 4.12825 0
M  V30 918 N 87.2079 -1.17134 1.05439 0
M  V30 919 C 88.4479 -1.89137 0.77502 0
M  V30 920 C 88.8119 -1.79345 -0.685526 0
M  V30 921 O 90.0129 -2.46188 -1.0791 0
M  V30 922 C 88.2839 -3.35003 1.2453 0
M  V30 923 S 89.8429 -4.24952 1.09367 0
M  V30 924 H 86.6609 -0.652949 0.281387 0
M  V30 925 H 89.2629 -1.4145 1.34953 0
M  V30 926 H 87.9669 -3.39666 2.30338 0
M  V30 927 H 87.4979 -3.87736 0.665166 0
M  V30 928 H 89.5129 -4.96196 0.0193397 0
M  V30 929 N 88.686 -0.835752 -1.33615 0
M  V30 930 C 89.935 -0.426289 -1.97144 0
M  V30 931 C 90.248 1.01912 -1.66953 0
M  V30 932 O 91.454 1.53311 -2.24072 0
M  V30 933 C 89.91 -0.711321 -3.52801 0
M  V30 934 C 89.518 -2.1712 -3.91871 0
M  V30 935 C 91.262 -0.368654 -4.22896 0
M  V30 936 C 89.169 -2.40044 -5.40493 0
M  V30 937 H 88.099 -0.15567 -0.737755 0
M  V30 938 H 90.75 -1.0239 -1.52278 0
M  V30 939 H 89.132 -0.0433766 -3.95976 0
M  V30 940 H 90.306 -2.87936 -3.59763 0
M  V30 941 H 88.621 -2.47654 -3.34749 0
M  V30 942 H 91.218 -0.517601 -5.32189 0
M  V30 943 H 91.561 0.688078 -4.10574 0
M  V30 944 H 92.094 -0.991702 -3.8524 0
M  V30 945 H 88.833 -3.44271 -5.57815 0
M  V30 946 H 88.353 -1.73785 -5.74072 0
M  V30 947 H 90.032 -2.23042 -6.0734 0
M  V30 948 N 90.1641 1.46063 -0.591896 0
M  V30 949 C 91.5801 1.57561 -0.254288 0
M  V30 950 C 91.7801 1.58565 1.24336 0
M  V30 951 O 90.8361 1.50753 2.02558 0
M  V30 952 C 92.1491 2.86549 -0.911611 0
M  V30 953 C 93.6971 3.00197 -0.886059 0
M  V30 954 C 94.1721 4.31933 -1.5231 0
M  V30 955 N 95.6631 4.38654 -1.48786 0
M  V30 956 C 96.3981 5.39222 -1.95006 0
M  V30 957 N 95.8941 6.46414 -2.49241 0
M  V30 958 N 97.6871 5.3048 -1.85868 0
M  V30 959 H 89.8381 1.43655 -1.56451 0
M  V30 960 H 92.1011 0.68583 -0.654478 0
M  V30 961 H 91.8071 2.91651 -1.96551 0
M  V30 962 H 91.6811 3.74794 -0.425368 0
M  V30 963 H 94.0681 2.9467 0.159246 0
M  V30 964 H 94.1491 2.13403 -1.41041 0
M  V30 965 H 93.7931 4.38217 -2.56765 0
M  V30 966 H 93.7231 5.17516 -0.973891 0
M  V30 967 H 96.2141 3.61793 -1.09151 0
M  V30 968 H 96.5271 7.19376 -2.82344 0
M  V30 969 H 94.8721 6.47208 -2.53272 0
M  V30 970 H 98.0631 4.45643 -1.43248 0
M  V30 971 H 98.2361 6.08711 -2.22204 0
M  V30 972 N 91.6422 0.330177 1.54103 0
M  V30 973 C 92.8722 -0.271784 2.04805 0
M  V30 974 C 93.2802 -1.45816 1.20559 0
M  V30 975 O 92.6232 -1.82247 0.2306 0
M  V30 976 C 92.6852 -0.763238 3.51305 0
M  V30 977 C 92.3492 0.301705 4.56003 0
M  V30 978 C 93.3462 1.13999 5.07248 0
M  V30 979 C 91.0312 0.451793 5.00264 0
M  V30 980 C 93.0252 2.11402 6.01322 0
M  V30 981 C 90.7122 1.42924 5.94151 0
M  V30 982 C 91.7102 2.25882 6.44567 0
M  V30 983 O 91.3982 3.21965 7.3661 0
M  V30 984 H 91.1302 -0.058693 0.673447 0
M  V30 985 H 93.6842 0.476395 1.99799 0
M  V30 986 H 91.9142 -1.56244 3.5373 0
M  V30 987 H 93.6032 -1.28427 3.85047 0
M  V30 988 H 94.3692 1.03505 4.73827 0
M  V30 989 H 90.2482 -0.184044 4.60632 0
M  V30 990 H 93.7922 2.76192 6.40596 0
M  V30 991 H 89.6892 1.53479 6.26988 0
M  V30 992 H 90.4572 3.17281 7.54503 0
M  V30 993 N 93.1203 -1.57491 0.0584922 0
M  V30 994 C 94.0683 -2.13148 -0.931168 0
M  V30 995 C 95.0623 -1.06507 -1.31729 0
M  V30 996 O 96.2683 -1.24906 -1.29609 0
M  V30 997 H 92.6433 -0.68137 -0.31818 0
M  V30 998 H 94.6143 -2.95187 -0.436707 0
M  V30 999 C 93.3633 -2.69732 -2.19408 0
M  V30 1000 H 92.6863 -3.51454 -1.90578 0
M  V30 1001 H 94.1263 -3.12287 -2.86798 0
M  V30 1002 C 92.5853 -1.63855 -2.94369 0
M  V30 1003 O 93.1153 -1.05565 -3.87581 0
M  V30 1004 N 91.3213 -1.35202 -2.57233 0
M  V30 1005 H 90.8683 -1.82791 -1.81508 0
M  V30 1006 H 90.8263 -0.645922 -3.07693 0
M  V30 1007 N 94.5984 0.214957 -1.56127 0
M  V30 1008 C 95.8454 0.938372 -1.79446 0
M  V30 1009 C 96.1734 1.8407 -0.628378 0
M  V30 1010 O 95.4284 1.91837 0.386925 0
M  V30 1011 C 95.7274 1.80314 -3.0858 0
M  V30 1012 C 95.3934 1.05349 -4.3842 0
M  V30 1013 C 94.0554 0.846435 -4.73697 0
M  V30 1014 C 96.4074 0.524588 -5.18553 0
M  V30 1015 C 93.7354 0.098683 -5.86617 0
M  V30 1016 C 96.0874 -0.209853 -6.32252 0
M  V30 1017 C 94.7514 -0.428102 -6.66126 0
M  V30 1018 H 94.0214 0.343375 -0.656639 0
M  V30 1019 H 96.6684 0.206077 -1.90388 0
M  V30 1020 H 94.9734 2.6035 -2.92789 0
M  V30 1021 H 96.6704 2.36513 -3.23825 0
M  V30 1022 H 93.2604 1.22486 -4.10725 0
M  V30 1023 H 97.4444 0.672008 -4.91729 0
M  V30 1024 H 92.7004 -0.0805753 -6.11347 0
M  V30 1025 H 96.8744 -0.627157 -6.9357 0
M  V30 1026 H 94.5014 -1.00944 -7.53468 0
M  V30 1027 N 96.0765 1.50051 0.48192 0
M  V30 1028 C 97.4925 1.37237 0.814756 0
M  V30 1029 C 97.6925 0.420109 1.97072 0
M  V30 1030 O 96.7485 -0.141246 2.52105 0
M  V30 1031 C 98.0615 2.78375 1.13701 0
M  V30 1032 C 99.6095 2.87213 1.2441 0
M  V30 1033 C 100.084 4.29161 1.59954 0
M  V30 1034 N 101.575 4.32061 1.66967 0
M  V30 1035 C 102.31 5.38879 1.95952 0
M  V30 1036 N 101.806 6.55918 2.23031 0
M  V30 1037 N 103.599 5.26312 1.97363 0
M  V30 1038 H 95.7505 2.10546 -0.28005 0
M  V30 1039 H 98.0135 0.945921 -0.0627454 0
M  V30 1040 H 97.7195 3.49845 0.360787 0
M  V30 1041 H 97.5935 3.14941 2.07586 0
M  V30 1042 H 99.9805 2.15969 2.01101 0
M  V30 1043 H 100.061 2.54204 0.285299 0
M  V30 1044 H 99.7055 5.00938 0.838067 0
M  V30 1045 H 99.6355 4.59648 2.56966 0
M  V30 1046 H 102.126 3.47661 1.48123 0
M  V30 1047 H 102.439 7.33139 2.44391 0
M  V30 1048 H 100.784 6.59112 2.20447 0
M  V30 1049 H 103.975 4.33876 1.75697 0
M  V30 1050 H 104.148 6.09649 2.19618 0
M  V30 1051 N 97.5546 -0.734337 1.39446 0
M  V30 1052 C 98.8026 -1.49096 1.36436 0
M  V30 1053 C 99.1236 -1.94961 -0.0388255 0
M  V30 1054 O 98.3936 -1.69033 -0.990191 0
M  V30 1055 H 96.9736 -0.5531 0.502085 0
M  V30 1056 H 99.6356 -0.871725 1.74319 0
M  V30 1057 H 98.7316 -2.37276 2.02747 0
M  V30 1058 N 99.0327 -1.24633 -0.964593 0
M  V30 1059 C 100.28 -1.08788 -1.70796 0
M  V30 1060 C 100.608 0.372783 -1.90894 0
M  V30 1061 O 99.8627 1.29167 -1.47018 0
M  V30 1062 C 100.162 -1.7763 -3.10133 0
M  V30 1063 C 99.8277 -3.27557 -3.09866 0
M  V30 1064 C 98.4897 -3.6846 -3.09501 0
M  V30 1065 C 100.842 -4.23389 -3.03959 0
M  V30 1066 C 98.1697 -5.03624 -3.00965 0
M  V30 1067 C 100.522 -5.58565 -2.96965 0
M  V30 1068 C 99.1857 -5.98809 -2.9493 0
M  V30 1069 H 98.4557 -0.398084 -0.624988 0
M  V30 1070 H 101.103 -1.54777 -1.12767 0
M  V30 1071 H 99.4077 -1.24044 -3.71645 0
M  V30 1072 H 101.105 -1.62832 -3.66451 0
M  V30 1073 H 97.6947 -2.95006 -3.10917 0
M  V30 1074 H 101.879 -3.92787 -3.03368 0
M  V30 1075 H 97.1347 -5.33998 -2.97752 0
M  V30 1076 H 101.309 -6.32523 -2.91354 0
M  V30 1077 H 98.9357 -7.03505 -2.88071 0
M  V30 1078 N 100.511 1.16574 -1.06058 0
M  V30 1079 C 101.927 1.3904 -0.783585 0
M  V30 1080 C 102.127 1.91784 0.618145 0
M  V30 1081 O 101.183 2.11511 1.37911 0
M  V30 1082 C 102.496 2.37329 -1.84649 0
M  V30 1083 C 104.044 2.51018 -1.86973 0
M  V30 1084 C 104.519 3.52588 -2.92311 0
M  V30 1085 N 106.01 3.60113 -2.91329 0
M  V30 1086 C 106.745 4.38486 -3.69482 0
M  V30 1087 N 106.241 5.20302 -4.57447 0
M  V30 1088 N 108.034 4.33446 -3.57885 0
M  V30 1089 H 100.185 0.806725 -1.96483 0
M  V30 1090 H 102.448 0.417117 -0.851303 0
M  V30 1091 H 102.154 2.05663 -2.85299 0
M  V30 1092 H 102.028 3.36946 -1.6955 0
M  V30 1093 H 104.415 2.81989 -0.869827 0
M  V30 1094 H 104.496 1.51445 -2.0615 0
M  V30 1095 H 104.14 3.22354 -3.92492 0
M  V30 1096 H 104.07 4.51886 -2.70383 0
M  V30 1097 H 106.561 3.01707 -2.27555 0
M  V30 1098 H 106.874 5.77311 -5.13743 0
M  V30 1099 H 105.219 5.19653 -4.61503 0
M  V30 1100 H 108.41 3.68586 -2.88551 0
M  V30 1101 H 108.583 4.94279 -4.19037 0
M  V30 1102 N 101.989 0.842826 1.3317 0
M  V30 1103 C 103.235 0.450342 1.98352 0
M  V30 1104 C 103.59 -0.980508 1.65541 0
M  V30 1105 O 102.883 -1.67678 0.927065 0
M  V30 1106 C 103.077 0.612607 3.52111 0
M  V30 1107 C 102.906 2.05768 3.99862 0
M  V30 1108 C 101.676 2.69374 4.27511 0
M  V30 1109 C 103.874 3.02688 4.15794 0
M  V30 1110 N 101.856 4.04915 4.61429 0
M  V30 1111 C 103.227 4.23186 4.53115 0
M  V30 1112 C 105.282 2.99041 3.98094 0
M  V30 1113 C 103.985 5.40518 4.74587 0
M  V30 1114 C 106.011 4.15607 4.20743 0
M  V30 1115 C 105.373 5.3486 4.58371 0
M  V30 1116 H 101.472 0.213296 0.752349 0
M  V30 1117 H 104.056 1.09173 1.61212 0
M  V30 1118 H 102.227 0.000998822 3.884 0
M  V30 1119 H 103.959 0.191179 4.04248 0
M  V30 1120 H 100.714 2.20485 4.19146 0
M  V30 1121 H 101.138 4.74798 4.82593 0
M  V30 1122 H 105.78 2.0797 3.68114 0
M  V30 1123 H 103.498 6.3213 5.03425 0
M  V30 1124 H 107.084 4.14207 4.08563 0
M  V30 1125 H 105.964 6.23558 4.75547 0
M  V30 1126 N 103.467 -1.45747 0.599634 0
M  V30 1127 C 104.397 -2.33235 -0.111306 0
M  V30 1128 C 105.378 -1.46359 -0.866781 0
M  V30 1129 O 106.563 -1.75146 -0.838904 0
M  V30 1130 C 103.693 -3.28932 -1.11451 0
M  V30 1131 C 102.647 -4.25381 -0.472772 0
M  V30 1132 C 101.973 -5.1071 -1.58365 0
M  V30 1133 C 103.273 -5.18831 0.600948 0
M  V30 1134 H 104.967 -2.92927 0.61919 0
M  V30 1135 H 102.513 -1.40857 0.299215 0
M  V30 1136 H 104.466 -3.89002 -1.62036 0
M  V30 1137 H 103.19 -2.67381 -1.8755 0
M  V30 1138 H 101.849 -3.66598 0.0121472 0
M  V30 1139 H 101.497 -4.45533 -2.33473 0
M  V30 1140 H 101.197 -5.7604 -1.15982 0
M  V30 1141 H 102.721 -5.73647 -2.09194 0
M  V30 1142 H 104.135 -5.73019 0.179491 0
M  V30 1143 H 102.532 -5.92595 0.946076 0
M  V30 1144 H 103.602 -4.6174 1.48068 0
M  V30 1145 N 104.945 -0.338344 -1.53925 0
M  V30 1146 C 105.877 0.555117 -2.22376 0
M  V30 1147 C 106.89 1.06812 -1.22862 0
M  V30 1148 O 108.079 0.979163 -1.49247 0
M  V30 1149 C 105.179 1.77609 -2.88631 0
M  V30 1150 C 104.352 1.39927 -4.14414 0
M  V30 1151 C 103.411 2.47936 -4.64127 0
M  V30 1152 O 102.437 2.11461 -5.28463 0
M  V30 1153 N 103.639 3.79107 -4.39612 0
M  V30 1154 H 106.404 -0.0310778 -2.99684 0
M  V30 1155 H 103.965 -0.162226 -1.61085 0
M  V30 1156 H 105.957 2.49287 -3.18807 0
M  V30 1157 H 104.527 2.26978 -2.14941 0
M  V30 1158 H 103.747 0.513481 -3.90841 0
M  V30 1159 H 105.035 1.12341 -4.96243 0
M  V30 1160 H 104.433 4.11531 -3.88148 0
M  V30 1161 H 102.99 4.4697 -4.74406 0
M  V30 1162 N 106.423 1.57458 -0.0668435 0
M  V30 1163 C 107.386 2.11323 0.887422 0
M  V30 1164 C 108.386 1.03618 1.22964 0
M  V30 1165 O 109.576 1.29626 1.16373 0
M  V30 1166 C 106.708 2.61048 2.19242 0
M  V30 1167 H 107.901 2.96942 0.420194 0
M  V30 1168 H 105.454 1.55239 0.181793 0
M  V30 1169 H 106.189 1.78868 2.70512 0
M  V30 1170 H 105.974 3.39769 1.95702 0
M  V30 1171 H 107.464 3.02814 2.87565 0
M  V30 1172 N 107.901 -0.206675 1.56239 0
M  V30 1173 C 108.834 -1.28383 1.88661 0
M  V30 1174 C 109.812 -1.44504 0.745481 0
M  V30 1175 O 110.996 -1.60079 0.995336 0
M  V30 1176 C 108.123 -2.65211 2.10667 0
M  V30 1177 C 107.169 -2.66025 3.33366 0
M  V30 1178 S 108.002 -2.18609 4.88846 0
M  V30 1179 C 109.158 -3.57283 5.13906 0
M  V30 1180 H 109.391 -1.00691 2.7973 0
M  V30 1181 H 106.924 -0.409627 1.48867 0
M  V30 1182 H 108.882 -3.43979 2.24029 0
M  V30 1183 H 107.543 -2.90121 1.20369 0
M  V30 1184 H 106.736 -3.66607 3.45855 0
M  V30 1185 H 106.338 -1.95331 3.18938 0
M  V30 1186 H 108.63 -4.53074 5.03717 0
M  V30 1187 H 109.573 -3.49699 6.15724 0
M  V30 1188 H 109.981 -3.51659 4.41583 0
M  V30 1189 N 109.379 -1.50304 -0.473955 0
M  V30 1190 C 110.628 -1.60392 -1.22301 0
M  V30 1191 C 110.941 -0.308411 -1.93153 0
M  V30 1192 O 112.147 -0.288156 -2.69966 0
M  V30 1193 C 110.603 -2.83109 -2.2221 0
M  V30 1194 C 110.211 -4.19524 -1.57173 0
M  V30 1195 C 111.955 -3.0254 -2.97775 0
M  V30 1196 C 109.862 -5.33431 -2.55353 0
M  V30 1197 H 108.792 -0.597286 -0.460179 0
M  V30 1198 H 111.443 -1.76731 -0.493803 0
M  V30 1199 H 109.825 -2.60322 -2.9841 0
M  V30 1200 H 110.999 -4.52554 -0.867824 0
M  V30 1201 H 109.314 -4.05674 -0.939002 0
M  V30 1202 H 111.911 -3.84811 -3.71248 0
M  V30 1203 H 112.254 -2.14154 -3.56992 0
M  V30 1204 H 112.787 -3.25494 -2.28688 0
M  V30 1205 H 109.526 -6.23962 -2.00878 0
M  V30 1206 H 109.046 -5.04823 -3.23904 0
M  V30 1207 H 110.725 -5.63887 -3.17239 0
M  V30 1208 N 110.857 0.726932 -1.39834 0
M  V30 1209 C 112.104 1.48664 -1.37496 0
M  V30 1210 C 112.432 1.94482 0.0264678 0
M  V30 1211 O 111.687 1.67692 1.00886 0
M  V30 1212 C 111.986 2.73495 -2.30077 0
M  V30 1213 C 111.652 2.46502 -3.77555 0
M  V30 1214 C 110.314 2.3885 -4.17737 0
M  V30 1215 C 112.666 2.23604 -4.70798 0
M  V30 1216 C 109.994 2.06352 -5.49214 0
M  V30 1217 C 112.346 1.92622 -6.02561 0
M  V30 1218 C 111.01 1.83444 -6.41798 0
M  V30 1219 H 110.28 0.544001 -0.503135 0
M  V30 1220 H 112.927 0.833657 -1.72402 0
M  V30 1221 H 111.232 3.43575 -1.88317 0
M  V30 1222 H 112.929 3.31549 -2.25558 0
M  V30 1223 H 109.519 2.5334 -3.45712 0
M  V30 1224 H 113.703 2.28479 -4.40581 0
M  V30 1225 H 108.959 1.97776 -5.78528 0
M  V30 1226 H 113.133 1.73914 -6.74334 0
M  V30 1227 H 110.76 1.58029 -7.43593 0
M  V30 1228 N 112.336 1.25143 0.95797 0
M  V30 1229 C 113.299 1.05321 2.03569 0
M  V30 1230 C 114.299 0.007152 1.60798 0
M  V30 1231 O 115.489 0.24903 1.72411 0
M  V30 1232 C 112.621 0.598394 3.35607 0
M  V30 1233 H 113.814 2.00986 2.22586 0
M  V30 1234 H 111.367 1.07502 1.13459 0
M  V30 1235 H 112.102 -0.361014 3.22284 0
M  V30 1236 H 111.887 1.35351 3.67998 0
M  V30 1237 H 113.377 0.48104 4.1482 0
M  V30 1238 N 113.814 -1.1601 1.06675 0
M  V30 1239 C 115.063 -1.85973 0.780818 0
M  V30 1240 C 115.376 -1.82819 -0.695444 0
M  V30 1241 O 116.582 -2.484 -1.09589 0
M  V30 1242 C 115.038 -3.33757 1.34665 0
M  V30 1243 C 114.646 -3.45374 2.85343 0
M  V30 1244 C 116.39 -4.0895 1.13843 0
M  V30 1245 C 114.297 -4.87266 3.35151 0
M  V30 1246 H 113.227 -0.696661 0.288407 0
M  V30 1247 H 115.878 -1.30903 1.28595 0
M  V30 1248 H 114.26 -3.88456 0.769274 0
M  V30 1249 H 115.434 -3.00816 3.49065 0
M  V30 1250 H 113.749 -2.83619 3.04876 0
M  V30 1251 H 116.346 -5.13654 1.4854 0
M  V30 1252 H 116.689 -4.16229 0.0770282 0
M  V30 1253 H 117.222 -3.605 1.68179 0
M  V30 1254 H 113.961 -4.85168 4.40786 0
M  V30 1255 H 113.481 -5.32433 2.76179 0
M  V30 1256 H 115.16 -5.56097 3.30704 0
M  V30 1257 N 115.292 -0.849877 -1.32721 0
M  V30 1258 C 116.202 -0.293791 -2.32753 0
M  V30 1259 C 117.218 0.585906 -1.63839 0
M  V30 1260 O 118.394 0.487413 -1.95413 0
M  V30 1261 C 115.459 0.512752 -3.42887 0
M  V30 1262 C 114.52 -0.39252 -4.27502 0
M  V30 1263 C 113.753 0.375625 -5.32377 0
M  V30 1264 O 113.976 1.60613 -5.4732 0
M  V30 1265 O 112.91 -0.256094 -6.01355 0
M  V30 1266 H 116.736 -1.12242 -2.82197 0
M  V30 1267 H 114.321 -0.612685 -1.36259 0
M  V30 1268 H 116.203 0.970704 -4.10067 0
M  V30 1269 H 114.878 1.31826 -2.95641 0
M  V30 1270 H 113.785 -0.898547 -3.63149 0
M  V30 1271 H 115.118 -1.16309 -4.7826 0
M  V30 1272 N 116.77 1.45427 -0.607355 0
M  V30 1273 C 117.68 2.34325 0.113463 0
M  V30 1274 C 118.696 1.51226 0.860617 0
M  V30 1275 O 119.872 1.84029 0.818255 0
M  V30 1276 C 116.937 3.28839 1.09844 0
M  V30 1277 C 115.998 4.27844 0.353271 0
M  V30 1278 C 115.231 5.17842 1.29133 0
M  V30 1279 O 115.454 5.11264 2.52913 0
M  V30 1280 O 114.388 5.96713 0.788523 0
M  V30 1281 H 118.214 2.97364 -0.617094 0
M  V30 1282 H 115.799 1.44807 -0.367619 0
M  V30 1283 H 117.681 3.8708 1.66575 0
M  V30 1284 H 116.356 2.68365 1.81003 0
M  V30 1285 H 115.263 3.7322 -0.256494 0
M  V30 1286 H 116.596 4.91173 -0.317822 0
M  V30 1287 N 118.248 0.346503 1.53744 0
M  V30 1288 C 119.497 -0.250122 2.00143 0
M  V30 1289 C 119.81 -1.51418 1.23822 0
M  V30 1290 O 121.016 -2.18823 1.60713 0
M  V30 1291 C 119.472 -0.496252 3.56462 0
M  V30 1292 C 119.08 0.752077 4.41642 0
M  V30 1293 C 120.824 -1.05157 4.11269 0
M  V30 1294 C 118.731 0.476583 5.89477 0
M  V30 1295 H 117.661 -0.0972409 0.747703 0
M  V30 1296 H 120.312 0.46229 1.77581 0
M  V30 1297 H 118.694 -1.26944 3.75102 0
M  V30 1298 H 119.868 1.5266 4.34778 0
M  V30 1299 H 118.183 1.22925 3.97842 0
M  V30 1300 H 120.78 -1.27269 5.19333 0
M  V30 1301 H 121.123 -2.00799 3.64672 0
M  V30 1302 H 121.656 -0.339019 3.96353 0
M  V30 1303 H 118.395 1.4028 6.40314 0
M  V30 1304 H 117.915 -0.259794 5.99237 0
M  V30 1305 H 119.594 0.0949315 6.4693 0
M  V30 1306 N 119.726 -1.57421 0.075193 0
M  V30 1307 C 120.674 -2.14124 -0.908508 0
M  V30 1308 C 121.668 -1.07898 -1.30592 0
M  V30 1309 O 122.874 -1.26273 -1.28277 0
M  V30 1310 H 119.249 -0.684707 -0.310935 0
M  V30 1311 H 121.22 -2.95634 -0.405374 0
M  V30 1312 C 119.969 -2.72044 -2.16535 0
M  V30 1313 H 119.292 -3.53456 -1.86839 0
M  V30 1314 H 120.732 -3.15311 -2.83469 0
M  V30 1315 C 119.191 -1.66968 -2.92615 0
M  V30 1316 O 119.721 -1.0967 -3.86439 0
M  V30 1317 N 117.927 -1.37923 -2.55784 0
M  V30 1318 H 117.474 -1.84706 -1.79559 0
M  V30 1319 H 117.432 -0.67852 -3.06991 0
M  V30 1320 N 121.204 0.198386 -1.56346 0
M  V30 1321 C 122.429 0.939682 -1.84891 0
M  V30 1322 C 122.854 1.76202 -0.658369 0
M  V30 1323 O 122.212 1.76993 0.392851 0
M  V30 1324 C 122.26 1.81428 -3.11635 0
M  V30 1325 O 121.364 2.91265 -2.91956 0
M  V30 1326 H 120.705 0.264807 -0.608912 0
M  V30 1327 H 123.235 0.204695 -2.03573 0
M  V30 1328 H 123.245 2.21958 -3.42343 0
M  V30 1329 H 121.92 1.21004 -3.97908 0
M  V30 1330 H 120.497 2.54514 -2.72538 0
M  V30 1331 N 122.682 1.50554 0.465978 0
M  V30 1332 C 123.907 1.65838 1.24549 0
M  V30 1333 C 124.332 0.343486 1.84937 0
M  V30 1334 O 123.69 -0.69324 1.67523 0
M  V30 1335 C 123.738 2.75533 2.32624 0
M  V30 1336 O 122.842 2.37142 3.37398 0
M  V30 1337 H 122.183 0.553893 0.366194 0
M  V30 1338 H 124.713 1.96959 0.553927 0
M  V30 1339 H 124.723 2.98763 2.77857 0
M  V30 1340 H 123.398 3.70962 1.88043 0
M  V30 1341 H 121.975 2.24377 2.97841 0
M  V30 1342 N 124.16 -0.719506 1.40217 0
M  V30 1343 C 125.571 -1.29848 1.34151 0
M  V30 1344 C 125.922 -1.96196 0.0131349 0
M  V30 1345 O 125.047 -1.973 -0.88892 0
M  V30 1346 C 125.642 -2.36118 2.42968 0
M  V30 1347 C 124.201 -2.8965 2.40374 0
M  V30 1348 C 123.348 -1.63393 2.24049 0
M  V30 1349 H 126.299 -0.51591 1.5008 0
M  V30 1350 H 126.32 -3.16871 2.10649 0
M  V30 1351 H 125.832 -1.878 3.39636 0
M  V30 1352 H 123.933 -3.42208 1.47392 0
M  V30 1353 H 124.046 -3.4171 3.35814 0
M  V30 1354 H 122.41 -1.88312 1.71495 0
M  V30 1355 H 123.193 -1.17104 3.2271 0
M  V30 1356 N 125.638 -1.25649 -0.95132 0
M  V30 1357 C 126.601 -1.06399 -2.03007 0
M  V30 1358 C 127.601 -0.0156794 -1.60792 0
M  V30 1359 O 128.791 -0.25817 -1.72276 0
M  V30 1360 C 125.923 -0.616184 -3.35285 0
M  V30 1361 H 127.116 -2.02164 -2.21517 0
M  V30 1362 H 124.669 -1.08103 -1.12887 0
M  V30 1363 H 125.404 0.343917 -3.22471 0
M  V30 1364 H 125.189 -1.37301 -3.67275 0
M  V30 1365 H 126.679 -0.503032 -4.14559 0
M  V30 1366 N 127.117 1.15442 -1.07289 0
M  V30 1367 C 128.047 2.22312 -0.714107 0
M  V30 1368 C 129.028 1.67467 0.298155 0
M  V30 1369 O 130.213 1.93445 0.171048 0
M  V30 1370 C 127.343 3.47124 -0.110448 0
M  V30 1371 C 126.297 4.14926 -1.04979 0
M  V30 1372 C 125.623 5.33807 -0.308924 0
M  V30 1373 C 126.923 4.64762 -2.38314 0
M  V30 1374 H 128.617 2.5258 -1.6076 0
M  V30 1375 H 126.163 1.21404 -0.77441 0
M  V30 1376 H 128.116 4.21124 0.152482 0
M  V30 1377 H 126.84 3.16187 0.81812 0
M  V30 1378 H 125.499 3.42866 -1.29764 0
M  V30 1379 H 125.147 4.99126 0.623084 0
M  V30 1380 H 124.847 5.80113 -0.935036 0
M  V30 1381 H 126.371 6.10576 -0.0537771 0
M  V30 1382 H 127.785 5.30292 -2.1786 0
M  V30 1383 H 126.182 5.21728 -2.96514 0
M  V30 1384 H 127.252 3.80434 -3.00663 0
M  V30 1385 N 128.595 0.856903 1.32268 0
M  V30 1386 C 129.525 0.31858 2.31316 0
M  V30 1387 C 130.506 -0.583487 1.59779 0
M  V30 1388 O 131.691 -0.503259 1.87566 0
M  V30 1389 C 128.821 -0.491979 3.43798 0
M  V30 1390 C 127.775 0.315849 4.26833 0
M  V30 1391 C 127.101 -0.619586 5.31098 0
M  V30 1392 C 128.401 1.54282 4.98993 0
M  V30 1393 H 130.095 1.14621 2.76591 0
M  V30 1394 H 127.641 0.552613 1.32974 0
M  V30 1395 H 129.594 -0.879012 4.1213 0
M  V30 1396 H 128.318 -1.35299 2.97257 0
M  V30 1397 H 126.977 0.684664 3.6015 0
M  V30 1398 H 126.625 -1.47751 4.8081 0
M  V30 1399 H 126.325 -0.0830621 5.87541 0
M  V30 1400 H 127.849 -1.00375 6.02293 0
M  V30 1401 H 129.263 1.22796 5.59995 0
M  V30 1402 H 127.66 2.01745 5.65172 0
M  V30 1403 H 128.73 2.30285 4.26728 0
M  V30 1404 N 130.073 -1.45103 0.615059 0
M  V30 1405 C 131.484 -1.85654 0.197383 0
M  V30 1406 C 131.835 -1.51433 -1.24749 0
M  V30 1407 O 130.96 -0.944608 -1.94695 0
M  V30 1408 C 131.555 -3.36972 0.351448 0
M  V30 1409 C 130.114 -3.76398 -0.011593 0
M  V30 1410 C 129.261 -2.69024 0.672394 0
M  V30 1411 H 132.212 -1.35797 0.821263 0
M  V30 1412 H 132.233 -3.78239 -0.414227 0
M  V30 1413 H 131.745 -3.61847 1.40314 0
M  V30 1414 H 129.846 -3.5714 -1.06217 0
M  V30 1415 H 129.959 -4.77532 0.387265 0
M  V30 1416 H 128.323 -2.54465 0.109284 0
M  V30 1417 H 129.106 -2.96735 1.72636 0
M  V30 1418 N 131.551 -0.354651 -1.53558 0
M  V30 1419 C 132.499 0.512195 -2.26891 0
M  V30 1420 C 133.493 1.09263 -1.29452 0
M  V30 1421 O 134.699 1.03709 -1.47121 0
M  V30 1422 H 131.074 0.183878 -0.729173 0
M  V30 1423 H 133.045 -0.128202 -2.98124 0
M  V30 1424 C 131.794 1.64563 -3.06291 0
M  V30 1425 H 131.117 1.20829 -3.81104 0
M  V30 1426 H 132.557 2.22711 -3.60799 0
M  V30 1427 C 131.016 2.58158 -2.16462 0
M  V30 1428 O 131.546 3.60695 -1.76811 0
M  V30 1429 N 129.752 2.27096 -1.81317 0
M  V30 1430 H 129.299 1.43751 -2.1376 0
M  V30 1431 H 129.257 2.89975 -1.21498 0
M  V30 1432 N 133.029 1.57378 -0.0835403 0
M  V30 1433 C 133.959 2.1641 0.87686 0
M  V30 1434 C 134.94 1.09429 1.30228 0
M  V30 1435 O 136.125 1.37516 1.37124 0
M  V30 1436 C 133.255 2.73517 2.14022 0
M  V30 1437 C 132.209 3.85769 1.85381 0
M  V30 1438 C 131.535 4.29529 3.18448 0
M  V30 1439 C 132.835 5.09486 1.14984 0
M  V30 1440 H 134.529 2.96914 0.385059 0
M  V30 1441 H 132.075 1.42823 0.18377 0
M  V30 1442 H 134.028 3.13463 2.81636 0
M  V30 1443 H 132.752 1.90252 2.65465 0
M  V30 1444 H 131.411 3.46345 1.20169 0
M  V30 1445 H 131.059 3.43169 3.67755 0
M  V30 1446 H 130.759 5.05204 3.00071 0
M  V30 1447 H 132.283 4.72099 3.8724 0
M  V30 1448 H 133.697 5.46674 1.72687 0
M  V30 1449 H 132.094 5.90515 1.06826 0
M  V30 1450 H 133.164 4.84724 0.130749 0
M  V30 1451 N 134.507 -0.190092 1.56449 0
M  V30 1452 C 135.735 -0.925772 1.85033 0
M  V30 1453 C 136.15 -1.76638 0.666658 0
M  V30 1454 O 135.507 -1.78822 -0.364565 0
M  V30 1455 C 135.558 -1.81786 3.12468 0
M  V30 1456 O 135.279 -1.01118 4.26271 0
M  V30 1457 C 136.78 -2.6648 3.54265 0
M  V30 1458 H 134 -0.269872 0.614337 0
M  V30 1459 H 136.544 -0.195837 2.0356 0
M  V30 1460 H 134.699 -2.50136 2.95822 0
M  V30 1461 H 135.113 -1.61956 4.98869 0
M  V30 1462 H 136.587 -3.24722 4.46385 0
M  V30 1463 H 137.064 -3.40434 2.77491 0
M  V30 1464 H 137.67 -2.03493 3.73458 0
M  V30 1465 N 135.985 -1.50799 -0.457987 0
M  V30 1466 C 136.915 -1.73553 -1.5621 0
M  V30 1467 C 137.896 -0.584774 -1.59732 0
M  V30 1468 O 139.081 -0.825314 -1.7579 0
M  V30 1469 C 136.211 -1.84169 -2.94447 0
M  V30 1470 C 135.165 -2.99461 -3.0579 0
M  V30 1471 C 134.491 -2.95235 -4.45803 0
M  V30 1472 C 135.791 -4.39766 -2.81786 0
M  V30 1473 H 137.485 -2.66 -1.37421 0
M  V30 1474 H 135.031 -1.28002 -0.659662 0
M  V30 1475 H 136.984 -1.98672 -3.71628 0
M  V30 1476 H 135.708 -0.883545 -3.14422 0
M  V30 1477 H 134.367 -2.8463 -2.31044 0
M  V30 1478 H 134.015 -1.97239 -4.62715 0
M  V30 1479 H 133.715 -3.72642 -4.54326 0
M  V30 1480 H 135.239 -3.11803 -5.24987 0
M  V30 1481 H 136.653 -4.55054 -3.4871 0
M  V30 1482 H 135.05 -5.18722 -3.0174 0
M  V30 1483 H 136.12 -4.51229 -1.7754 0
M  V30 1484 N 137.463 0.71206 -1.40597 0
M  V30 1485 C 138.711 1.46907 -1.38791 0
M  V30 1486 C 139.032 1.94998 0.00780391 0
M  V30 1487 O 138.302 1.70587 0.963174 0
M  V30 1488 H 136.882 0.545043 -0.51082 0
M  V30 1489 H 139.544 0.843882 -1.75683 0
M  V30 1490 H 138.64 2.34021 -2.06496 0
M  V30 1491 N 138.941 1.26152 0.944643 0
M  V30 1492 C 140.171 1.14094 1.72239 0
M  V30 1493 C 140.579 -0.306931 1.86694 0
M  V30 1494 O 139.922 -1.22222 1.3714 0
M  V30 1495 C 139.984 1.73316 3.14963 0
M  V30 1496 C 139.648 3.2239 3.23904 0
M  V30 1497 C 140.645 4.19252 3.07447 0
M  V30 1498 C 138.33 3.62788 3.47405 0
M  V30 1499 C 140.324 5.54491 3.14353 0
M  V30 1500 C 138.011 4.98162 3.53947 0
M  V30 1501 C 139.009 5.93823 3.37436 0
M  V30 1502 O 138.697 7.26732 3.43679 0
M  V30 1503 H 138.429 0.398292 0.546205 0
M  V30 1504 H 140.983 1.67201 1.19301 0
M  V30 1505 H 139.213 1.14667 3.69308 0
M  V30 1506 H 140.902 1.56214 3.74636 0
M  V30 1507 H 141.668 3.8938 2.8915 0
M  V30 1508 H 137.547 2.88816 3.59313 0
M  V30 1509 H 141.091 6.29137 3.01384 0
M  V30 1510 H 136.988 5.27695 3.71763 0
M  V30 1511 H 137.756 7.3496 3.60245 0
M  V30 1512 N 140.419 -1.14872 1.07899 0
M  V30 1513 C 141.835 -1.37776 0.805606 0
M  V30 1514 C 142.035 -1.92743 -0.587555 0
M  V30 1515 O 141.091 -2.13678 -1.34528 0
M  V30 1516 C 142.404 -2.34361 1.88402 0
M  V30 1517 C 143.952 -2.48012 1.90942 0
M  V30 1518 C 144.427 -3.47893 2.97883 0
M  V30 1519 N 145.918 -3.55433 2.97021 0
M  V30 1520 C 146.653 -4.32553 3.76412 0
M  V30 1521 N 146.149 -5.12959 4.65666 0
M  V30 1522 N 147.942 -4.27697 3.64735 0
M  V30 1523 H 140.093 -0.775365 1.97742 0
M  V30 1524 H 142.356 -0.403521 0.857831 0
M  V30 1525 H 142.062 -2.01098 2.88535 0
M  V30 1526 H 141.936 -3.34206 1.74889 0
M  V30 1527 H 144.323 -2.8057 0.914579 0
M  V30 1528 H 144.404 -1.48147 2.08534 0
M  V30 1529 H 144.048 -3.16069 3.97571 0
M  V30 1530 H 143.978 -4.47527 2.77538 0
M  V30 1531 H 146.469 -2.98048 2.32326 0
M  V30 1532 H 146.782 -5.69065 5.22862 0
M  V30 1533 H 145.127 -5.12245 4.69712 0
M  V30 1534 H 148.318 -3.63949 2.94378 0
M  V30 1535 H 148.491 -4.8755 4.26848 0
M  V30 1536 N 141.898 -0.863906 -1.31812 0
M  V30 1537 C 143.147 -0.46801 -1.96195 0
M  V30 1538 C 143.46 0.983474 -1.69077 0
M  V30 1539 O 144.666 1.48523 -2.27273 0
M  V30 1540 C 143.122 -0.785995 -3.51212 0
M  V30 1541 C 142.73 -2.25383 -3.87178 0
M  V30 1542 C 144.474 -0.458274 -4.22019 0
M  V30 1543 C 142.381 -2.51455 -5.3528 0
M  V30 1544 H 141.311 -0.171283 -0.734287 0
M  V30 1545 H 143.962 -1.05597 -1.50072 0
M  V30 1546 H 142.344 -0.127359 -3.95795 0
M  V30 1547 H 143.518 -2.95502 -3.53575 0
M  V30 1548 H 141.833 -2.54698 -3.2942 0
M  V30 1549 H 144.43 -0.630369 -5.30971 0
M  V30 1550 H 144.773 0.600834 -4.11941 0
M  V30 1551 H 145.306 -1.07319 -3.8305 0
M  V30 1552 H 142.045 -3.56025 -5.50387 0
M  V30 1553 H 141.565 -1.85923 -5.70257 0
M  V30 1554 H 143.244 -2.35874 -6.02472 0
M  V30 1555 N 143.376 1.44774 -0.622745 0
M  V30 1556 C 144.623 2.02121 -0.1239 0
M  V30 1557 C 144.951 1.48915 1.25118 0
M  V30 1558 O 144.206 0.660045 1.84233 0
M  V30 1559 C 144.505 3.57364 -0.0508323 0
M  V30 1560 C 144.171 4.29787 -1.36358 0
M  V30 1561 C 142.833 4.4929 -1.72314 0
M  V30 1562 C 145.185 4.71062 -2.23048 0
M  V30 1563 C 142.513 5.07325 -2.94682 0
M  V30 1564 C 144.865 5.30452 -3.44679 0
M  V30 1565 C 143.529 5.48175 -3.80868 0
M  V30 1566 H 142.799 0.739612 -0.0453381 0
M  V30 1567 H 145.446 1.73648 -0.807389 0
M  V30 1568 H 143.751 3.85202 0.715991 0
M  V30 1569 H 145.448 3.99456 0.351533 0
M  V30 1570 H 142.038 4.14932 -1.07375 0
M  V30 1571 H 146.222 4.55715 -1.96565 0
M  V30 1572 H 141.478 5.19235 -3.22809 0
M  V30 1573 H 145.652 5.61385 -4.12092 0
M  V30 1574 H 143.279 5.92912 -4.75773 0
M  V30 1575 N 144.854 0.36279 1.53368 0
M  V30 1576 C 146.131 -0.284021 1.93527 0
M  V30 1577 C 146.511 -1.66628 1.29608 0
M  V30 1578 O 145.859 -2.23942 0.45413 0
M  V30 1579 C 146.069 -0.337028 3.47369 0
M  V30 1580 C 147.417 -0.578708 4.20638 0
M  V30 1581 O 148.441 -0.418352 3.53735 0
M  V30 1582 O 147.3 -0.89074 5.39192 0
M  V30 1583 H 144.394 -0.169743 0.809393 0
M  V30 1584 H 146.94 0.41537 1.64538 0
M  V30 1585 H 145.712 0.632217 3.86159 0
M  V30 1586 H 145.335 -1.08243 3.82582 0
M  V30 1587 N 146.332 -1.57332 0.0918853 0
M  V30 1588 C 147.56 -1.98574 -0.581048 0
M  V30 1589 C 147.975 -0.970903 -1.61923 0
M  V30 1590 O 147.332 0.0399054 -1.82456 0
M  V30 1591 C 147.383 -3.39872 -1.23164 0
M  V30 1592 O 147.104 -4.37469 -0.234989 0
M  V30 1593 C 148.605 -3.96099 -1.99049 0
M  V30 1594 H 145.825 -0.65261 -0.156018 0
M  V30 1595 H 148.369 -2.0379 0.170225 0
M  V30 1596 H 146.524 -3.35679 -1.93386 0
M  V30 1597 H 146.938 -5.19751 -0.70418 0
M  V30 1598 H 148.412 -4.97127 -2.39934 0
M  V30 1599 H 148.889 -3.3374 -2.85507 0
M  V30 1600 H 149.495 -4.03755 -1.3365 0
M  V30 1601 N 147.81 0.181792 -1.56548 0
M  V30 1602 C 149.05 0.906711 -1.83189 0
M  V30 1603 C 149.414 1.79882 -0.671312 0
M  V30 1604 O 150.615 2.56054 -0.81792 0
M  V30 1605 C 148.886 1.69023 -3.14906 0
M  V30 1606 S 150.445 2.46535 -3.62996 0
M  V30 1607 H 147.263 0.303877 -0.642791 0
M  V30 1608 H 149.865 0.169107 -1.94767 0
M  V30 1609 H 148.569 1.02571 -3.97376 0
M  V30 1610 H 148.1 2.46941 -3.06241 0
M  V30 1611 H 150.115 3.71014 -3.29489 0
M  V30 1612 N 149.288 1.51039 0.449983 0
M  V30 1613 C 150.236 1.71995 1.5659 0
M  V30 1614 C 151.23 0.586029 1.5894 0
M  V30 1615 O 152.436 0.76709 1.62837 0
M  V30 1616 H 148.811 0.543233 0.520001 0
M  V30 1617 H 150.782 2.65562 1.36085 0
M  V30 1618 C 149.531 1.8506 2.9436 0
M  V30 1619 H 148.854 2.71712 2.93279 0
M  V30 1620 H 150.294 2.0374 3.71842 0
M  V30 1621 C 148.753 0.607277 3.31382 0
M  V30 1622 O 149.283 -0.243903 4.00959 0
M  V30 1623 N 147.489 0.455073 2.87015 0
M  V30 1624 H 147.036 1.14879 2.30566 0
M  V30 1625 H 146.994 -0.375611 3.12148 0
M  V30 1626 N 150.766 -0.704594 1.40972 0
M  V30 1627 C 151.994 -1.49354 1.43182 0
M  V30 1628 C 152.409 -1.88768 0.0345508 0
M  V30 1629 O 151.766 -1.56184 -0.944081 0
M  V30 1630 C 151.817 -2.76187 2.33244 0
M  V30 1631 O 151.538 -2.38436 3.67532 0
M  V30 1632 C 153.039 -3.7 2.44162 0
M  V30 1633 H 150.259 -0.460559 0.487982 0
M  V30 1634 H 152.803 -0.868261 1.85153 0
M  V30 1635 H 150.958 -3.34974 1.94606 0
M  V30 1636 H 151.372 -3.20126 4.15475 0
M  V30 1637 H 152.846 -4.55803 3.11364 0
M  V30 1638 H 153.323 -4.13867 1.47006 0
M  V30 1639 H 153.929 -3.17121 2.83398 0
M  V30 1640 N 152.244 -1.26651 -0.937939 0
M  V30 1641 C 153.49 -1.12553 -1.687 0
M  V30 1642 C 153.823 0.329782 -1.91379 0
M  V30 1643 O 153.098 1.24202 -1.4968 0
M  V30 1644 C 153.381 -1.89862 -3.05981 0
M  V30 1645 C 153.234 -3.43318 -2.90607 0
M  V30 1646 C 154.553 -1.69499 -4.0615 0
M  V30 1647 H 151.672 -0.410257 -0.612257 0
M  V30 1648 H 154.314 -1.55685 -1.08913 0
M  V30 1649 H 152.464 -1.53204 -3.57017 0
M  V30 1650 H 154.136 -3.89747 -2.46769 0
M  V30 1651 H 152.379 -3.70179 -2.26164 0
M  V30 1652 H 153.05 -3.92642 -3.8799 0
M  V30 1653 H 155.526 -2.01442 -3.64088 0
M  V30 1654 H 154.402 -2.26002 -5.00214 0
M  V30 1655 H 154.663 -0.640365 -4.37438 0
M  V30 1656 N 153.722 1.14298 -1.08507 0
M  V30 1657 C 154.947 1.8976 -0.837001 0
M  V30 1658 C 155.372 1.78097 0.605228 0
M  V30 1659 O 154.73 1.12188 1.4242 0
M  V30 1660 C 154.778 3.37685 -1.26495 0
M  V30 1661 O 153.882 4.10281 -0.417514 0
M  V30 1662 H 153.223 0.590365 -0.303917 0
M  V30 1663 H 155.753 1.44672 -1.44676 0
M  V30 1664 H 155.763 3.88501 -1.24625 0
M  V30 1665 H 154.438 3.45492 -2.31534 0
M  V30 1666 H 153.015 3.69536 -0.499722 0
M  V30 1667 N 155.201 0.870884 1.31352 0
M  V30 1668 C 156.148 0.325425 2.28494 0
M  V30 1669 C 157.118 -0.576615 1.5577 0
M  V30 1670 O 158.303 -0.508059 1.83911 0
M  V30 1671 C 155.443 -0.466283 3.41935 0
M  V30 1672 C 154.556 0.463378 4.29508 0
M  V30 1673 C 153.691 -0.342544 5.30094 0
M  V30 1674 C 152.73 0.583486 6.09313 0
M  V30 1675 N 151.867 -0.186244 7.01853 0
M  V30 1676 H 156.707 1.15901 2.74538 0
M  V30 1677 H 154.244 0.58294 1.35056 0
M  V30 1678 H 156.202 -0.941085 4.06447 0
M  V30 1679 H 154.832 -1.26456 2.97 0
M  V30 1680 H 153.884 1.05663 3.65431 0
M  V30 1681 H 155.196 1.1734 4.84802 0
M  V30 1682 H 154.35 -0.879816 6.00287 0
M  V30 1683 H 153.089 -1.08585 4.75458 0
M  V30 1684 H 152.094 1.13251 5.3801 0
M  V30 1685 H 153.319 1.32566 6.66035 0
M  V30 1686 H 151.265 -0.912348 6.49625 0
M  V30 1687 H 151.182 0.464422 7.54572 0
M  V30 1688 H 152.45 -0.704716 7.76308 0
M  V30 1689 N 156.679 -1.44442 0.630414 0
M  V30 1690 C 157.642 -2.29107 -0.0652523 0
M  V30 1691 C 158.642 -1.41002 -0.772995 0
M  V30 1692 O 159.832 -1.62881 -0.617692 0
M  V30 1693 C 156.964 -3.22564 -1.10296 0
M  V30 1694 H 158.157 -2.92103 0.679401 0
M  V30 1695 H 155.71 -1.51343 0.390517 0
M  V30 1696 H 156.445 -2.64416 -1.87762 0
M  V30 1697 H 156.23 -3.87491 -0.59941 0
M  V30 1698 H 157.72 -3.86167 -1.5895 0
M  V30 1699 N 158.157 -0.370918 -1.53173 0
M  V30 1700 C 159.087 0.464847 -2.28826 0
M  V30 1701 C 160.068 1.07936 -1.31468 0
M  V30 1702 O 161.253 1.0956 -1.60344 0
M  V30 1703 C 158.383 1.60196 -3.08147 0
M  V30 1704 C 157.337 1.11443 -4.13237 0
M  V30 1705 C 156.663 2.3422 -4.80672 0
M  V30 1706 C 157.963 0.195384 -5.21934 0
M  V30 1707 H 159.657 -0.166329 -2.98938 0
M  V30 1708 H 157.203 -0.0814359 -1.4377 0
M  V30 1709 H 159.156 2.19332 -3.59822 0
M  V30 1710 H 157.88 2.26045 -2.35735 0
M  V30 1711 H 156.539 0.545727 -3.62515 0
M  V30 1712 H 156.187 2.98537 -4.04827 0
M  V30 1713 H 155.887 2.02269 -5.51689 0
M  V30 1714 H 157.411 2.94032 -5.35143 0
M  V30 1715 H 158.825 0.694375 -5.69079 0
M  V30 1716 H 157.222 -0.0335027 -6.00091 0
M  V30 1717 H 158.292 -0.760961 -4.78892 0
M  V30 1718 N 159.635 1.57281 -0.100228 0
M  V30 1719 C 160.545 2.17833 0.870965 0
M  V30 1720 C 161.561 1.14921 1.30649 0
M  V30 1721 O 162.737 1.47313 1.37335 0
M  V30 1722 C 159.802 2.75085 2.1102 0
M  V30 1723 C 158.863 3.9297 1.72838 0
M  V30 1724 C 158.096 4.47482 2.90854 0
M  V30 1725 O 158.319 4.00922 4.05731 0
M  V30 1726 O 157.253 5.38433 2.69023 0
M  V30 1727 H 161.079 3.0124 0.38575 0
M  V30 1728 H 158.664 1.48881 0.124397 0
M  V30 1729 H 160.546 3.11656 2.83634 0
M  V30 1730 H 159.221 1.94721 2.58584 0
M  V30 1731 H 158.128 3.61201 0.973883 0
M  V30 1732 H 159.461 4.74713 1.30033 0
M  V30 1733 N 161.113 -0.173488 1.56642 0
M  V30 1734 C 162.076 -1.19859 1.95362 0
M  V30 1735 C 163.076 -1.37296 0.83704 0
M  V30 1736 O 164.266 -1.34739 1.10413 0
M  V30 1737 C 161.398 -2.56405 2.24654 0
M  V30 1738 H 162.591 -0.867062 2.87092 0
M  V30 1739 H 160.144 -0.415853 1.50666 0
M  V30 1740 H 160.879 -2.94576 1.35631 0
M  V30 1741 H 160.664 -2.45115 3.06041 0
M  V30 1742 H 162.154 -3.30287 2.5554 0
M  V30 1743 N 162.591 -1.51276 -0.441967 0
M  V30 1744 C 163.819 -1.67516 -1.21434 0
M  V30 1745 C 164.234 -0.37055 -1.85128 0
M  V30 1746 O 163.591 0.650498 -1.70513 0
M  V30 1747 C 163.642 -2.78748 -2.30177 0
M  V30 1748 O 163.363 -4.04154 -1.69089 0
M  V30 1749 C 164.864 -3.06217 -3.20541 0
M  V30 1750 H 162.084 -0.562276 -0.366178 0
M  V30 1751 H 164.628 -1.97666 -0.524244 0
M  V30 1752 H 162.783 -2.5121 -2.94911 0
M  V30 1753 H 163.197 -4.65894 -2.40922 0
M  V30 1754 H 164.671 -3.8764 -3.92987 0
M  V30 1755 H 165.148 -2.18439 -3.81026 0
M  V30 1756 H 165.754 -3.35397 -2.61513 0
M  V30 1757 N 164.069 0.697108 -1.41344 0
M  V30 1758 C 164.999 1.82353 -1.45841 0
M  V30 1759 C 165.98 1.67115 -0.317247 0
M  V30 1760 O 167.165 1.86871 -0.528474 0
M  V30 1761 C 164.295 3.20476 -1.33838 0
M  V30 1762 C 163.249 3.50415 -2.4575 0
M  V30 1763 C 162.575 4.87878 -2.18813 0
M  V30 1764 C 163.875 3.49546 -3.88091 0
M  V30 1765 H 165.569 1.78846 -2.40113 0
M  V30 1766 H 163.115 0.859028 -1.15571 0
M  V30 1767 H 165.068 3.98988 -1.35596 0
M  V30 1768 H 163.792 3.24604 -0.360498 0
M  V30 1769 H 162.451 2.74253 -2.43271 0
M  V30 1770 H 162.099 4.8863 -1.19371 0
M  V30 1771 H 161.799 5.08875 -2.93803 0
M  V30 1772 H 163.323 5.68702 -2.22284 0
M  V30 1773 H 164.737 4.18066 -3.92293 0
M  V30 1774 H 163.134 3.82075 -4.62751 0
M  V30 1775 H 164.204 2.48552 -4.16353 0
M  V30 1776 N 165.547 1.27147 0.931209 0
M  V30 1777 C 166.772 1.16191 1.71797 0
M  V30 1778 C 167.197 -0.278004 1.86034 0
M  V30 1779 O 166.555 -1.20137 1.35782 0
M  V30 1780 C 166.603 1.84673 3.09723 0
M  V30 1781 O 165.707 1.14231 3.96264 0
M  V30 1782 H 165.048 0.404303 0.526721 0
M  V30 1783 H 167.578 1.68152 1.1656 0
M  V30 1784 H 167.588 1.91893 3.60057 0
M  V30 1785 H 166.263 2.89421 2.98677 0
M  V30 1786 H 164.84 1.15056 3.54706 0
M  V30 1787 N 167.025 -1.13721 1.09112 0
M  V30 1788 C 168.272 -1.84924 0.825192 0
M  V30 1789 C 168.6 -1.83347 -0.649151 0
M  V30 1790 O 167.855 -1.26449 -1.49362 0
M  V30 1791 C 168.154 -3.32861 1.30146 0
M  V30 1792 C 167.82 -3.54621 2.78486 0
M  V30 1793 C 166.482 -3.60268 3.18999 0
M  V30 1794 C 168.834 -3.62855 3.74146 0
M  V30 1795 C 166.162 -3.71679 4.53951 0
M  V30 1796 C 168.514 -3.75793 5.08883 0
M  V30 1797 C 167.178 -3.79692 5.4899 0
M  V30 1798 H 166.448 -0.676684 0.301959 0
M  V30 1799 H 169.095 -1.3428 1.36533 0
M  V30 1800 H 167.4 -3.85835 0.681064 0
M  V30 1801 H 169.097 -3.86395 1.07236 0
M  V30 1802 H 165.687 -3.50879 2.46134 0
M  V30 1803 H 169.871 -3.57775 3.43963 0
M  V30 1804 H 165.127 -3.72963 4.84467 0
M  V30 1805 H 169.301 -3.81107 5.82864 0
M  V30 1806 H 166.928 -3.88287 6.53558 0
M  V30 1807 N 168.503 -0.877838 -1.30888 0
M  V30 1808 C 169.749 -0.493426 -1.96706 0
M  V30 1809 C 170.082 0.953504 -1.6918 0
M  V30 1810 O 169.357 1.67266 -0.992594 0
M  V30 1811 C 169.64 -0.760429 -3.51979 0
M  V30 1812 C 169.493 -2.25747 -3.89048 0
M  V30 1813 C 170.812 -0.232148 -4.39487 0
M  V30 1814 H 167.931 -0.180746 -0.714493 0
M  V30 1815 H 170.573 -1.10052 -1.54882 0
M  V30 1816 H 168.723 -0.243715 -3.87735 0
M  V30 1817 H 170.395 -2.84204 -3.63354 0
M  V30 1818 H 168.638 -2.72694 -3.37373 0
M  V30 1819 H 169.309 -2.39491 -4.97341 0
M  V30 1820 H 171.785 -0.674314 -4.106 0
M  V30 1821 H 170.661 -0.448355 -5.47066 0
M  V30 1822 H 170.922 0.866297 -4.33529 0
M  V30 1823 N 169.982 1.44106 -0.638065 0
M  V30 1824 C 170.945 2.29138 0.0531013 0
M  V30 1825 C 171.945 1.41409 0.765506 0
M  V30 1826 O 173.135 1.63206 0.609046 0
M  V30 1827 C 170.267 3.23144 1.08584 0
M  V30 1828 H 171.46 2.91739 -0.694883 0
M  V30 1829 H 169.013 1.51134 -0.398538 0
M  V30 1830 H 169.748 2.65408 1.86357 0
M  V30 1831 H 169.533 3.87804 0.578852 0
M  V30 1832 H 171.023 3.87004 1.56899 0
M  V30 1833 N 171.46 0.379036 1.52974 0
M  V30 1834 C 172.392 -0.495963 2.2377 0
M  V30 1835 C 173.405 -1.03517 1.25651 0
M  V30 1836 O 174.594 -0.939249 1.51791 0
M  V30 1837 C 171.694 -1.69894 2.93239 0
M  V30 1838 C 170.867 -1.2889 4.17979 0
M  V30 1839 C 169.926 -2.35543 4.70538 0
M  V30 1840 O 168.952 -1.97375 5.33883 0
M  V30 1841 N 170.154 -3.67318 4.49508 0
M  V30 1842 H 172.919 0.110523 2.99496 0
M  V30 1843 H 170.48 0.204878 1.60598 0
M  V30 1844 H 172.472 -2.40747 3.25304 0
M  V30 1845 H 171.042 -2.212 2.20883 0
M  V30 1846 H 170.262 -0.409676 3.92065 0
M  V30 1847 H 171.55 -0.991443 4.99047 0
M  V30 1848 H 170.948 -4.01095 3.98923 0
M  V30 1849 H 169.505 -4.34235 4.8609 0
M  V30 1850 N 172.938 -1.57226 0.108567 0
M  V30 1851 C 173.886 -2.16002 -0.862885 0
M  V30 1852 C 174.88 -1.10644 -1.28274 0
M  V30 1853 O 176.086 -1.28966 -1.2557 0
M  V30 1854 H 172.461 -0.691148 -0.296342 0
M  V30 1855 H 174.432 -2.96427 -0.342575 0
M  V30 1856 C 173.181 -2.76576 -2.10716 0
M  V30 1857 H 172.504 -3.5734 -1.793 0
M  V30 1858 H 173.944 -3.21253 -2.76717 0
M  V30 1859 C 172.403 -1.73137 -2.89007 0
M  V30 1860 O 172.933 -1.17842 -3.84026 0
M  V30 1861 N 171.139 -1.43317 -2.52801 0
M  V30 1862 H 170.686 -1.88473 -1.75601 0
M  V30 1863 H 170.644 -0.743485 -3.05483 0
M  V30 1864 N 174.416 0.165178 -1.56732 0
M  V30 1865 C 175.363 1.2044 -1.96883 0
M  V30 1866 C 176.333 1.43664 -0.833657 0
M  V30 1867 O 177.518 1.56302 -1.09427 0
M  V30 1868 C 174.658 2.53727 -2.33916 0
M  V30 1869 C 173.771 2.3783 -3.6064 0
M  V30 1870 C 172.906 3.64026 -3.86857 0
M  V30 1871 C 171.945 3.43088 -5.06909 0
M  V30 1872 N 171.082 4.61369 -5.29229 0
M  V30 1873 H 175.922 0.854996 -2.85471 0
M  V30 1874 H 173.459 0.41076 -1.41249 0
M  V30 1875 H 175.417 3.31419 -2.53411 0
M  V30 1876 H 174.047 2.8665 -1.48431 0
M  V30 1877 H 173.099 1.51282 -3.49024 0
M  V30 1878 H 174.411 2.18308 -4.4849 0
M  V30 1879 H 173.565 4.50152 -4.06753 0
M  V30 1880 H 172.304 3.86533 -2.97394 0
M  V30 1881 H 171.309 2.55349 -4.86906 0
M  V30 1882 H 172.534 3.21997 -5.97909 0
M  V30 1883 H 170.48 4.84084 -4.42718 0
M  V30 1884 H 170.397 4.44783 -6.11313 0
M  V30 1885 H 171.665 5.48761 -5.53608 0
M  V30 1886 N 175.894 1.51508 0.433938 0
M  V30 1887 C 177.143 1.63578 1.18005 0
M  V30 1888 C 177.456 0.359514 1.92268 0
M  V30 1889 O 178.662 0.359632 2.69108 0
M  V30 1890 C 177.118 2.88901 2.14626 0
M  V30 1891 C 176.726 4.23544 1.45995 0
M  V30 1892 C 178.47 3.10328 2.89649 0
M  V30 1893 C 176.377 5.40014 2.4112 0
M  V30 1894 H 175.307 0.609277 0.444182 0
M  V30 1895 H 177.958 1.77978 0.446773 0
M  V30 1896 H 176.34 2.68142 2.91403 0
M  V30 1897 H 177.514 4.54696 0.747532 0
M  V30 1898 H 175.829 4.08021 0.831115 0
M  V30 1899 H 178.426 3.94518 3.60915 0
M  V30 1900 H 178.769 2.23544 3.51189 0
M  V30 1901 H 179.302 3.31443 2.19978 0
M  V30 1902 H 176.041 6.29068 1.84264 0
M  V30 1903 H 175.561 5.13233 3.10406 0
M  V30 1904 H 177.24 5.72099 3.02177 0
M  V30 1905 N 177.372 -0.689602 1.41712 0
M  V30 1906 C 178.649 -1.44457 1.31877 0
M  V30 1907 C 179.029 -2.11039 -0.0508537 0
M  V30 1908 O 178.377 -2.02138 -1.06547 0
M  V30 1909 C 178.587 -2.45913 2.47645 0
M  V30 1910 C 179.935 -3.10991 2.89084 0
M  V30 1911 O 180.959 -2.56238 2.47428 0
M  V30 1912 O 179.818 -4.10174 3.61137 0
M  V30 1913 H 176.912 -0.64362 0.519309 0
M  V30 1914 H 179.458 -0.719576 1.53689 0
M  V30 1915 H 178.23 -1.95409 3.39015 0
M  V30 1916 H 177.853 -3.25913 2.27742 0
M  V30 1917 N 178.85 -1.27639 -0.924453 0
M  V30 1918 C 180.075 -1.17101 -1.71179 0
M  V30 1919 C 180.5 0.268134 -1.86179 0
M  V30 1920 O 179.858 1.19415 -1.36418 0
M  V30 1921 C 179.906 -1.86313 -3.08739 0
M  V30 1922 O 179.01 -1.16331 -3.95652 0
M  V30 1923 H 178.351 -0.407091 -0.524569 0
M  V30 1924 H 180.881 -1.68767 -1.15666 0
M  V30 1925 H 180.891 -1.938 -3.59034 0
M  V30 1926 H 179.566 -2.91001 -2.97138 0
M  V30 1927 H 178.143 -1.16935 -3.54091 0
M  V30 1928 N 180.328 1.1314 -1.09713 0
M  V30 1929 C 181.258 2.20748 -0.761102 0
M  V30 1930 C 182.239 1.68061 0.262566 0
M  V30 1931 O 183.424 1.93765 0.129977 0
M  V30 1932 C 180.554 3.46812 -0.184054 0
M  V30 1933 C 179.508 4.12606 -1.13757 0
M  V30 1934 C 178.834 5.33031 -0.422083 0
M  V30 1935 C 180.134 4.59603 -2.48118 0
M  V30 1936 H 181.828 2.49113 -1.66082 0
M  V30 1937 H 179.374 1.19734 -0.799987 0
M  V30 1938 H 181.327 4.21353 0.0631215 0
M  V30 1939 H 180.051 3.17851 0.750868 0
M  V30 1940 H 178.71 3.40036 -1.37007 0
M  V30 1941 H 178.358 5.00335 0.517072 0
M  V30 1942 H 178.058 5.77999 -1.05788 0
M  V30 1943 H 179.582 6.10325 -0.183277 0
M  V30 1944 H 180.996 5.25552 -2.29059 0
M  V30 1945 H 179.393 5.15321 -3.07514 0
M  V30 1946 H 180.463 3.73971 -3.08665 0
M  V30 1947 N 181.806 0.884767 1.30421 0
M  V30 1948 C 182.754 0.340869 2.30089 0
M  V30 1949 C 183.748 -0.55201 1.60154 0
M  V30 1950 O 184.954 -0.436467 1.74628 0
M  V30 1951 H 181.329 0.0915739 0.746404 0
M  V30 1952 H 183.3 1.19513 2.73421 0
M  V30 1953 C 182.049 -0.429779 3.45034 0
M  V30 1954 H 181.372 0.248024 3.9903 0
M  V30 1955 H 182.812 -0.775445 4.16849 0
M  V30 1956 C 181.271 -1.62677 2.95022 0
M  V30 1957 O 181.801 -2.72614 2.95033 0
M  V30 1958 N 180.007 -1.46387 2.51036 0
M  V30 1959 H 179.554 -0.569506 2.51226 0
M  V30 1960 H 179.512 -2.26612 2.17932 0
M  V30 1961 N 183.284 -1.43765 0.645699 0
M  V30 1962 C 184.214 -2.33471 -0.0370477 0
M  V30 1963 C 185.195 -1.49042 -0.819779 0
M  V30 1964 O 186.38 -1.77726 -0.782758 0
M  V30 1965 C 183.51 -3.32311 -1.0093 0
M  V30 1966 C 182.464 -4.2667 -0.337201 0
M  V30 1967 C 181.79 -5.1549 -1.42037 0
M  V30 1968 C 183.09 -5.16657 0.765706 0
M  V30 1969 H 184.784 -2.90809 0.712069 0
M  V30 1970 H 182.33 -1.39834 0.343876 0
M  V30 1971 H 184.283 -3.9396 -1.49578 0
M  V30 1972 H 183.007 -2.73213 -1.78948 0
M  V30 1973 H 181.666 -3.66374 0.128771 0
M  V30 1974 H 181.314 -4.52735 -2.1918 0
M  V30 1975 H 181.014 -5.79438 -0.975966 0
M  V30 1976 H 182.538 -5.80012 -1.90838 0
M  V30 1977 H 183.952 -5.72158 0.361702 0
M  V30 1978 H 182.349 -5.89286 1.13413 0
M  V30 1979 H 183.419 -4.56796 1.62683 0
M  V30 1980 N 184.763 -0.387143 -1.52771 0
M  V30 1981 C 186.04 0.253197 -1.93954 0
M  V30 1982 C 186.42 1.64545 -1.32243 0
M  V30 1983 O 185.768 2.23191 -0.489699 0
M  V30 1984 C 185.978 0.281722 -3.47861 0
M  V30 1985 C 187.326 0.511715 -4.21505 0
M  V30 1986 O 188.35 0.362023 -3.54356 0
M  V30 1987 O 187.209 0.804847 -5.40541 0
M  V30 1988 H 184.303 0.156845 -0.811991 0
M  V30 1989 H 186.849 -0.441494 -1.63856 0
M  V30 1990 H 185.621 -0.693571 -3.85104 0
M  V30 1991 H 185.244 1.02142 -3.84256 0
M  V30 1992 N 186.241 1.57166 -0.116904 0
M  V30 1993 C 187.151 2.18745 0.847812 0
M  V30 1994 C 188.167 1.163 1.29423 0
M  V30 1995 O 189.343 1.48761 1.35765 0
M  V30 1996 C 186.408 2.77307 2.0809 0
M  V30 1997 C 185.469 3.94781 1.68661 0
M  V30 1998 C 184.702 4.50541 2.86091 0
M  V30 1999 O 184.925 4.05202 4.01456 0
M  V30 2000 O 183.859 5.41256 2.63298 0
M  V30 2001 H 187.685 3.01632 0.353778 0
M  V30 2002 H 185.27 1.49005 0.108599 0
M  V30 2003 H 187.152 3.14647 2.80313 0
M  V30 2004 H 185.827 1.97452 2.56504 0
M  V30 2005 H 184.734 3.62214 0.935518 0
M  V30 2006 H 186.067 4.76065 1.24991 0
M  V30 2007 N 187.719 -0.156864 1.56817 0
M  V30 2008 C 188.966 -0.871125 1.82805 0
M  V30 2009 C 189.294 -1.81611 0.696262 0
M  V30 2010 O 188.549 -1.93141 -0.315459 0
M  V30 2011 C 188.848 -1.68737 3.1506 0
M  V30 2012 C 188.514 -0.890045 4.42028 0
M  V30 2013 C 187.176 -0.670042 4.76512 0
M  V30 2014 C 189.528 -0.331769 5.20143 0
M  V30 2015 C 186.856 0.119104 5.86579 0
M  V30 2016 C 189.208 0.444365 6.31037 0
M  V30 2017 C 187.872 0.675035 6.64078 0
M  V30 2018 H 187.142 -0.318767 0.668931 0
M  V30 2019 H 189.789 -0.135274 1.91022 0
M  V30 2020 H 188.094 -2.49304 3.0225 0
M  V30 2021 H 189.791 -2.24331 3.3238 0
M  V30 2022 H 186.381 -1.07157 4.14988 0
M  V30 2023 H 190.565 -0.489043 4.93885 0
M  V30 2024 H 185.821 0.307417 6.10627 0
M  V30 2025 H 189.995 0.884139 6.90765 0
M  V30 2026 H 187.622 1.28839 7.49203 0
M  V30 2027 N 189.197 -1.51736 -0.425897 0
M  V30 2028 C 190.437 -1.66636 -1.18371 0
M  V30 2029 C 190.801 -0.379854 -1.88205 0
M  V30 2030 O 192.002 -0.404758 -2.65735 0
M  V30 2031 C 190.273 -2.84382 -2.16476 0
M  V30 2032 S 191.832 -3.19673 -3.0059 0
M  V30 2033 H 188.65 -0.586957 -0.40125 0
M  V30 2034 H 191.252 -1.89679 -0.473518 0
M  V30 2035 H 189.956 -3.76281 -1.63831 0
M  V30 2036 H 189.487 -2.63562 -2.92059 0
M  V30 2037 H 191.502 -2.66994 -4.18245 0
M  V30 2038 N 190.675 0.682077 -1.42076 0
M  V30 2039 C 191.623 1.81707 -1.45208 0
M  V30 2040 C 192.617 1.66183 -0.328591 0
M  V30 2041 O 193.823 1.7288 -0.501264 0
M  V30 2042 H 190.198 0.599014 -0.454628 0
M  V30 2043 H 192.169 1.76183 -2.40836 0
M  V30 2044 C 190.918 3.19816 -1.36428 0
M  V30 2045 H 190.241 3.32385 -2.22171 0
M  V30 2046 H 191.681 3.99272 -1.42681 0
M  V30 2047 C 190.14 3.36809 -0.078191 0
M  V30 2048 O 190.67 3.92124 0.87188 0
M  V30 2049 N 188.876 2.906 0.00229266 0
M  V30 2050 H 188.423 2.45772 -0.771616 0
M  V30 2051 H 188.381 3.02347 0.862179 0
M  V30 2052 N 192.153 1.28127 0.917671 0
M  V30 2053 C 193.393 1.163 1.68088 0
M  V30 2054 C 193.757 -0.284515 1.8988 0
M  V30 2055 O 194.958 -0.525413 2.63615 0
M  V30 2056 C 193.229 1.93546 3.00457 0
M  V30 2057 S 194.788 1.98048 3.91564 0
M  V30 2058 H 191.606 0.415005 0.577315 0
M  V30 2059 H 194.208 1.62173 1.09179 0
M  V30 2060 H 192.912 2.97888 2.82295 0
M  V30 2061 H 192.443 1.48207 3.64415 0
M  V30 2062 H 194.458 1.08415 4.84211 0
M  V30 2063 N 193.631 -1.12557 1.10312 0
M  V30 2064 C 194.856 -1.88405 0.867085 0
M  V30 2065 C 195.281 -1.79038 -0.576817 0
M  V30 2066 O 194.639 -1.14439 -1.40618 0
M  V30 2067 C 194.687 -3.3563 1.31851 0
M  V30 2068 O 193.791 -4.09565 0.482734 0
M  V30 2069 H 193.132 -0.585455 0.313271 0
M  V30 2070 H 195.662 -1.42352 1.4696 0
M  V30 2071 H 195.672 -3.86469 1.3079 0
M  V30 2072 H 194.347 -3.41765 2.37001 0
M  V30 2073 H 192.924 -3.68695 0.558448 0
M  V30 2074 N 195.109 -0.891671 -1.2995 0
M  V30 2075 C 196.019 -0.367691 -2.31701 0
M  V30 2076 C 197.035 0.533486 -1.6562 0
M  V30 2077 O 198.211 0.424997 -1.96865 0
M  V30 2078 C 195.276 0.403406 -3.44345 0
M  V30 2079 C 194.337 -0.528328 -4.26037 0
M  V30 2080 C 193.57 0.206063 -5.33302 0
M  V30 2081 O 193.793 1.43119 -5.52153 0
M  V30 2082 O 192.727 -0.447281 -6.00236 0
M  V30 2083 H 196.553 -1.21163 -2.78484 0
M  V30 2084 H 194.138 -0.655725 -1.34241 0
M  V30 2085 H 196.02 0.839753 -4.12948 0
M  V30 2086 H 194.695 1.22354 -2.99685 0
M  V30 2087 H 193.602 -1.01362 -3.60106 0
M  V30 2088 H 194.935 -1.31465 -4.74318 0
M  V30 2089 N 196.587 1.43421 -0.653314 0
M  V30 2090 C 197.537 2.2792 0.060558 0
M  V30 2091 C 198.521 1.39906 0.794677 0
M  V30 2092 O 199.713 1.63536 0.677128 0
M  V30 2093 C 196.842 3.27603 1.0262 0
M  V30 2094 C 195.928 4.23104 0.290551 0
M  V30 2095 N 196.319 5.01031 -0.692967 0
M  V30 2096 C 194.617 4.42816 0.531984 0
M  V30 2097 C 195.318 5.70626 -1.12963 0
M  V30 2098 N 194.294 5.41617 -0.463867 0
M  V30 2099 H 198.096 2.85585 -0.694143 0
M  V30 2100 H 195.61 1.55126 -0.480602 0
M  V30 2101 H 197.607 3.86918 1.55242 0
M  V30 2102 H 196.267 2.71499 1.78096 0
M  V30 2103 H 197.278 5.0669 -1.07169 0
M  V30 2104 H 193.955 3.97782 1.26791 0
M  V30 2105 H 195.345 6.4318 -1.94343 0
M  V30 2106 N 198.065 0.39524 1.52563 0
M  V30 2107 C 199.314 -0.186321 2.00838 0
M  V30 2108 C 199.627 -1.47402 1.28577 0
M  V30 2109 O 200.833 -2.13599 1.67593 0
M  V30 2110 C 199.289 -0.382595 3.57861 0
M  V30 2111 C 198.897 0.892202 4.39026 0
M  V30 2112 C 200.641 -0.9202 4.14406 0
M  V30 2113 C 198.548 0.66388 5.87662 0
M  V30 2114 H 197.478 -0.0734041 0.750418 0
M  V30 2115 H 200.129 0.518552 1.76021 0
M  V30 2116 H 198.511 -1.14946 3.7895 0
M  V30 2117 H 199.685 1.66414 4.29701 0
M  V30 2118 H 198 1.35519 3.9373 0
M  V30 2119 H 200.597 -1.10683 5.23119 0
M  V30 2120 H 200.94 -1.89096 3.70875 0
M  V30 2121 H 201.473 -0.212751 3.97231 0
M  V30 2122 H 198.212 1.6058 6.35527 0
M  V30 2123 H 197.732 -0.0690193 5.9976 0
M  V30 2124 H 199.411 0.300699 6.46301 0
M  V30 2125 N 199.544 -1.57102 0.125237 0
M  V30 2126 C 200.955 -1.82384 -0.399142 0
M  V30 2127 C 201.306 -1.04276 -1.66195 0
M  V30 2128 O 200.431 -0.281269 -2.14564 0
M  V30 2129 C 201.026 -3.30821 -0.730932 0
M  V30 2130 C 199.585 -3.56762 -1.19992 0
M  V30 2131 C 198.732 -2.7649 -0.211792 0
M  V30 2132 H 201.683 -1.54786 0.350277 0
M  V30 2133 H 201.704 -3.4579 -1.58775 0
M  V30 2134 H 201.216 -3.87643 0.188345 0
M  V30 2135 H 199.317 -3.05305 -2.13588 0
M  V30 2136 H 199.43 -4.65317 -1.14093 0
M  V30 2137 H 197.794 -2.4489 -0.700085 0
M  V30 2138 H 198.577 -3.36073 0.700691 0
M  V30 2139 N 201.022 0.148545 -1.56898 0
M  V30 2140 C 202.247 0.880385 -1.87787 0
M  V30 2141 C 202.672 1.74018 -0.714093 0
M  V30 2142 O 202.03 1.78153 0.336343 0
M  V30 2143 C 202.078 1.71422 -3.17249 0
M  V30 2144 O 201.182 2.8183 -3.01074 0
M  V30 2145 H 200.523 0.245301 -0.617028 0
M  V30 2146 H 203.053 0.139826 -2.04122 0
M  V30 2147 H 203.063 2.10954 -3.49231 0
M  V30 2148 H 201.738 1.08284 -4.01556 0
M  V30 2149 H 200.315 2.45715 -2.80497 0
M  V30 2150 N 202.5 1.5196 0.417844 0
M  V30 2151 C 203.728 1.69426 1.18753 0
M  V30 2152 C 204.143 0.399955 1.84515 0
M  V30 2153 O 203.5 -0.623288 1.71527 0
M  V30 2154 C 203.551 2.82375 2.25714 0
M  V30 2155 O 203.272 4.06793 1.62638 0
M  V30 2156 C 204.773 3.11277 3.15628 0
M  V30 2157 H 201.993 0.568031 0.357186 0
M  V30 2158 H 204.537 1.98475 0.49273 0
M  V30 2159 H 202.692 2.5587 2.90877 0
M  V30 2160 H 203.106 4.69667 2.3348 0
M  V30 2161 H 204.58 3.93843 3.86771 0
M  V30 2162 H 205.057 2.24473 3.77503 0
M  V30 2163 H 205.663 3.39515 2.56144 0
M  V30 2164 N 203.978 -0.674533 1.42435 0
M  V30 2165 C 205.227 -1.43034 1.42212 0
M  V30 2166 C 205.54 -1.95555 0.0420788 0
M  V30 2167 O 206.746 -2.71374 -0.0827558 0
M  V30 2168 C 205.202 -2.58748 2.50155 0
M  V30 2169 C 204.81 -2.12925 3.94166 0
M  V30 2170 C 206.554 -3.36257 2.59098 0
M  V30 2171 C 204.461 -3.25723 4.93618 0
M  V30 2172 H 203.391 -0.537345 0.528939 0
M  V30 2173 H 206.042 -0.73024 1.68344 0
M  V30 2174 H 204.424 -3.31128 2.17188 0
M  V30 2175 H 205.598 -1.47697 4.36488 0
M  V30 2176 H 203.913 -1.48354 3.89076 0
M  V30 2177 H 206.51 -4.20264 3.30578 0
M  V30 2178 H 206.853 -3.82866 1.63461 0
M  V30 2179 H 207.386 -2.70947 2.9126 0
M  V30 2180 H 204.125 -2.84105 5.90732 0
M  V30 2181 H 203.645 -3.89732 4.55926 0
M  V30 2182 H 205.324 -3.91186 5.15347 0
M  V30 2183 N 205.456 -1.28612 -0.910864 0
M  V30 2184 C 206.419 -1.12803 -1.9952 0
M  V30 2185 C 207.419 -0.0668264 -1.60661 0
M  V30 2186 O 208.609 -0.312847 -1.71368 0
M  V30 2187 C 205.741 -0.72254 -3.33155 0
M  V30 2188 H 206.934 -2.09109 -2.14973 0
M  V30 2189 H 204.487 -1.11639 -1.09391 0
M  V30 2190 H 205.222 0.241152 -3.23402 0
M  V30 2191 H 205.007 -1.48916 -3.62721 0
M  V30 2192 H 206.497 -0.634666 -4.12749 0
M  V30 2193 N 206.934 1.1197 -1.10907 0
M  V30 2194 C 208.18 1.8386 -0.855773 0
M  V30 2195 C 208.513 1.84134 0.617103 0
M  V30 2196 O 207.788 1.29041 1.45529 0
M  V30 2197 C 208.071 3.31305 -1.411 0
M  V30 2198 C 207.924 3.39456 -2.9511 0
M  V30 2199 C 209.243 4.2721 -1.05736 0
M  V30 2200 H 206.362 0.667545 -0.312334 0
M  V30 2201 H 209.004 1.31331 -1.37303 0
M  V30 2202 H 207.154 3.76169 -0.97105 0
M  V30 2203 H 208.826 3.03191 -3.47668 0
M  V30 2204 H 207.069 2.79849 -3.31462 0
M  V30 2205 H 207.74 4.43209 -3.29044 0
M  V30 2206 H 210.216 3.90497 -1.43706 0
M  V30 2207 H 209.092 5.28775 -1.47269 0
M  V30 2208 H 209.353 4.42088 0.0325958 0
M  V30 2209 N 208.412 0.89855 1.29475 0
M  V30 2210 C 209.658 0.524658 1.95896 0
M  V30 2211 C 209.991 -0.926468 1.70676 0
M  V30 2212 O 209.266 -1.65665 1.01908 0
M  V30 2213 C 209.549 0.81633 3.50725 0
M  V30 2214 C 209.402 2.31907 3.85408 0
M  V30 2215 C 210.721 0.302038 4.39062 0
M  V30 2216 H 207.84 0.19209 0.711527 0
M  V30 2217 H 210.482 1.12502 1.53112 0
M  V30 2218 H 208.632 0.305369 3.87298 0
M  V30 2219 H 210.304 2.89949 3.58786 0
M  V30 2220 H 208.547 2.78027 3.32992 0
M  V30 2221 H 209.218 2.47373 4.93468 0
M  V30 2222 H 211.694 0.739551 4.09475 0
M  V30 2223 H 210.57 0.535331 5.46283 0
M  V30 2224 H 210.831 -0.797216 4.34853 0
M  V30 2225 N 209.89 -1.43072 0.660911 0
M  V30 2226 C 211.138 -2.01323 0.177094 0
M  V30 2227 C 211.459 -1.5245 -1.2159 0
M  V30 2228 O 210.729 -0.740322 -1.81373 0
M  V30 2229 H 209.309 -0.744382 0.0624804 0
M  V30 2230 H 211.971 -1.75179 0.854305 0
M  V30 2231 H 211.067 -3.11649 0.167641 0
M  V30 2232 N 211.368 -0.403325 -1.52352 0
M  V30 2233 C 212.331 0.413051 -2.25447 0
M  V30 2234 C 213.331 0.978513 -1.276 0
M  V30 2235 O 214.521 0.858305 -1.51587 0
M  V30 2236 C 211.653 1.58087 -3.02029 0
M  V30 2237 H 212.846 -0.227094 -2.99039 0
M  V30 2238 H 210.399 -0.155722 -1.55522 0
M  V30 2239 H 211.134 2.25804 -2.32772 0
M  V30 2240 H 210.919 1.18195 -3.73861 0
M  V30 2241 H 212.409 2.1585 -3.57489 0
M  V30 2242 N 212.846 1.57033 -0.133567 0
M  V30 2243 C 214.074 2.00044 0.528195 0
M  V30 2244 C 214.489 1.01349 1.59291 0
M  V30 2245 O 213.846 0.00848369 1.82498 0
M  V30 2246 C 213.897 3.43018 1.1411 0
M  V30 2247 O 213.618 4.37939 0.11892 0
M  V30 2248 C 215.119 4.01237 1.88477 0
M  V30 2249 H 212.339 0.656517 0.138661 0
M  V30 2250 H 214.883 2.03267 -0.224196 0
M  V30 2251 H 213.038 3.40688 1.84418 0
M  V30 2252 H 213.452 5.21436 0.56613 0
M  V30 2253 H 214.926 5.03314 2.26669 0
M  V30 2254 H 215.403 3.41193 2.76558 0
M  V30 2255 H 216.009 4.07156 1.22898 0
M  V30 2256 N 214.325 -0.140222 1.56975 0
M  V30 2257 C 215.573 -0.850005 1.83356 0
M  V30 2258 C 215.894 -1.81399 0.71551 0
M  V30 2259 O 215.164 -1.94136 -0.262294 0
M  V30 2260 H 213.744 -0.316886 0.676456 0
M  V30 2261 H 216.406 -0.132608 1.94448 0
M  V30 2262 H 215.502 -1.40814 2.78528 0
M  V30 2263 N 215.803 -1.52179 -0.40978 0
M  V30 2264 C 217.028 -1.70347 -1.18308 0
M  V30 2265 C 217.453 -0.411887 -1.83535 0
M  V30 2266 O 216.811 0.630587 -1.6998 0
M  V30 2267 C 216.859 -2.83977 -2.22238 0
M  V30 2268 O 215.963 -2.495 -3.28365 0
M  V30 2269 H 215.304 -0.567103 -0.345384 0
M  V30 2270 H 217.834 -1.98879 -0.480445 0
M  V30 2271 H 217.844 -3.0887 -2.66577 0
M  V30 2272 H 216.519 -3.77685 -1.74146 0
M  V30 2273 H 215.096 -2.35277 -2.89308 0
M  V30 2274 N 217.281 0.66697 -1.42791 0
M  V30 2275 C 218.529 1.42417 -1.43394 0
M  V30 2276 C 218.85 1.94925 -0.0542373 0
M  V30 2277 O 218.12 1.73564 0.908415 0
M  V30 2278 H 216.7 0.528515 -0.527902 0
M  V30 2279 H 219.362 0.787562 -1.78279 0
M  V30 2280 H 218.458 2.27333 -2.13837 0
M  V30 2281 N 218.759 1.29093 0.90403 0
M  V30 2282 C 220.005 1.16986 1.65656 0
M  V30 2283 C 220.338 -0.278925 1.92186 0
M  V30 2284 O 219.613 -1.2019 1.5292 0
M  V30 2285 C 219.896 1.97908 3.0084 0
M  V30 2286 C 219.749 3.50903 2.81403 0
M  V30 2287 C 221.068 1.80208 4.01513 0
M  V30 2288 H 218.187 0.426346 0.601164 0
M  V30 2289 H 220.829 1.58518 1.04747 0
M  V30 2290 H 218.979 1.62616 3.52829 0
M  V30 2291 H 220.651 3.96153 2.36348 0
M  V30 2292 H 218.894 3.76045 2.1627 0
M  V30 2293 H 219.565 4.02791 3.77443 0
M  V30 2294 H 222.041 2.11025 3.58619 0
M  V30 2295 H 220.917 2.39184 4.94047 0
M  V30 2296 H 221.178 0.756119 4.35586 0
M  V30 2297 N 220.237 -1.11381 1.11499 0
M  V30 2298 C 221.462 -1.87475 0.887019 0
M  V30 2299 C 221.887 -1.79639 -0.557796 0
M  V30 2300 O 221.245 -1.15924 -1.39396 0
M  V30 2301 C 221.293 -3.34213 1.35403 0
M  V30 2302 O 220.397 -4.0903 0.526146 0
M  V30 2303 H 219.738 -0.582099 0.319463 0
M  V30 2304 H 222.268 -1.40785 1.48461 0
M  V30 2305 H 222.278 -3.8506 1.34881 0
M  V30 2306 H 220.953 -3.39232 2.40612 0
M  V30 2307 H 219.53 -3.68082 0.597522 0
M  V30 2308 N 221.715 -0.905404 -1.28997 0
M  V30 2309 C 222.943 -0.549846 -1.9946 0
M  V30 2310 C 223.358 0.866834 -1.67724 0
M  V30 2311 O 222.715 1.57298 -0.925404 0
M  V30 2312 C 222.766 -0.739387 -3.53858 0
M  V30 2313 O 222.487 -2.10031 -3.84472 0
M  V30 2314 C 223.988 -0.389541 -4.41585 0
M  V30 2315 H 221.208 -0.210429 -0.637151 0
M  V30 2316 H 223.752 -1.21632 -1.64396 0
M  V30 2317 H 221.907 -0.120023 -3.87214 0
M  V30 2318 H 222.321 -2.13385 -4.79132 0
M  V30 2319 H 223.795 -0.572972 -5.49018 0
M  V30 2320 H 224.272 0.673756 -4.34001 0
M  V30 2321 H 224.878 -0.986089 -4.1371 0
M  V30 2322 N 223.193 1.4272 -0.668489 0
M  V30 2323 C 224.156 2.292 0.00448567 0
M  V30 2324 C 225.156 1.43001 0.735339 0
M  V30 2325 O 226.346 1.64461 0.57429 0
M  V30 2326 C 223.478 3.25375 1.01705 0
M  V30 2327 H 224.671 2.90199 -0.756608 0
M  V30 2328 H 222.224 1.50254 -0.430506 0
M  V30 2329 H 222.959 2.69301 1.80686 0
M  V30 2330 H 222.744 3.88944 0.496463 0
M  V30 2331 H 224.234 3.90245 1.48655 0
M  V30 2332 N 224.671 0.411399 1.52136 0
M  V30 2333 C 225.917 -0.163888 2.02137 0
M  V30 2334 C 226.25 -1.44597 1.29636 0
M  V30 2335 O 225.525 -1.90272 0.403353 0
M  V30 2336 C 225.808 -0.40927 3.57767 0
M  V30 2337 C 225.661 0.889643 4.40914 0
M  V30 2338 C 226.98 -1.19042 4.23694 0
M  V30 2339 H 224.099 -0.0580896 0.734707 0
M  V30 2340 H 226.741 0.54531 1.82007 0
M  V30 2341 H 224.891 -1.0134 3.7505 0
M  V30 2342 H 226.563 1.52575 4.35337 0
M  V30 2343 H 224.806 1.50011 4.07037 0
M  V30 2344 H 225.477 0.672314 5.4789 0
M  V30 2345 H 227.953 -0.678942 4.10524 0
M  V30 2346 H 226.829 -1.33086 5.32522 0
M  V30 2347 H 227.09 -2.21166 3.82803 0
M  V30 2348 N 226.149 -1.5696 0.141893 0
M  V30 2349 C 227.112 -2.15316 -0.785587 0
M  V30 2350 C 228.112 -1.09366 -1.1788 0
M  V30 2351 O 229.302 -1.35031 -1.10056 0
M  V30 2352 C 226.434 -2.71211 -2.06537 0
M  V30 2353 H 227.627 -2.98608 -0.278041 0
M  V30 2354 H 225.18 -1.5593 -0.107519 0
M  V30 2355 H 225.915 -1.91571 -2.6167 0
M  V30 2356 H 225.7 -3.4872 -1.79268 0
M  V30 2357 H 227.19 -3.16189 -2.72789 0
M  V30 2358 N 227.627 0.131896 -1.57047 0
M  V30 2359 C 228.575 1.18146 -2.0036 0
M  V30 2360 C 229.569 1.43614 -0.898406 0
M  V30 2361 O 230.775 1.43729 -1.08361 0
M  V30 2362 H 227.15 0.398042 -0.638018 0
M  V30 2363 H 229.121 0.789564 -2.87765 0
M  V30 2364 C 227.87 2.50341 -2.41298 0
M  V30 2365 H 227.193 2.31578 -3.25902 0
M  V30 2366 H 228.633 3.22371 -2.75414 0
M  V30 2367 C 227.092 3.11984 -1.27153 0
M  V30 2368 O 227.622 3.97484 -0.580459 0
M  V30 2369 N 225.828 2.71662 -1.03189 0
M  V30 2370 H 225.375 2.02231 -1.59564 0
M  V30 2371 H 225.333 3.13238 -0.270077 0
M  V30 2372 N 229.106 1.52395 0.401703 0
M  V30 2373 C 230.036 1.79231 1.49661 0
M  V30 2374 C 231.017 0.643654 1.57452 0
M  V30 2375 O 232.202 0.889989 1.72606 0
M  V30 2376 C 229.332 1.94971 2.87409 0
M  V30 2377 C 228.286 3.10604 2.94465 0
M  V30 2378 C 227.612 3.11577 4.34538 0
M  V30 2379 C 228.912 4.49921 2.6527 0
M  V30 2380 H 230.606 2.70917 1.27454 0
M  V30 2381 H 228.152 1.30362 0.6117 0
M  V30 2382 H 230.105 2.12328 3.63999 0
M  V30 2383 H 228.829 0.999632 3.10926 0
M  V30 2384 H 227.488 2.93009 2.20321 0
M  V30 2385 H 227.136 2.14277 4.55076 0
M  V30 2386 H 226.836 3.89247 4.40183 0
M  V30 2387 H 228.36 3.31073 5.13053 0
M  V30 2388 H 229.774 4.67683 3.31581 0
M  V30 2389 H 228.171 5.29564 2.82281 0
M  V30 2390 H 229.241 4.57507 1.60671 0
M  V30 2391 N 230.584 -0.659388 1.43143 0
M  V30 2392 C 231.514 -1.78422 1.50625 0
M  V30 2393 C 232.495 -1.66216 0.361443 0
M  V30 2394 O 233.68 -1.85404 0.577834 0
M  V30 2395 C 230.81 -3.16815 1.42287 0
M  V30 2396 C 229.764 -3.43777 2.54954 0
M  V30 2397 C 229.09 -4.81905 2.31671 0
M  V30 2398 C 230.39 -3.39134 3.97222 0
M  V30 2399 H 232.084 -1.72417 2.44771 0
M  V30 2400 H 229.63 -0.828084 1.17808 0
M  V30 2401 H 231.583 -3.95253 1.46127 0
M  V30 2402 H 230.307 -3.23534 0.446435 0
M  V30 2403 H 228.966 -2.67707 2.50457 0
M  V30 2404 H 228.614 -4.85294 1.32284 0
M  V30 2405 H 228.314 -5.00906 3.07192 0
M  V30 2406 H 229.838 -5.62609 2.37284 0
M  V30 2407 H 231.252 -4.07518 4.03239 0
M  V30 2408 H 229.649 -3.69671 4.72719 0
M  V30 2409 H 230.719 -2.37426 4.22797 0
M  V30 2410 N 232.062 -1.29571 -0.897171 0
M  V30 2411 C 233.31 -1.17456 -1.64464 0
M  V30 2412 C 233.631 0.273698 -1.9307 0
M  V30 2413 O 232.901 1.18684 -1.55855 0
M  V30 2414 H 231.481 -0.431706 -0.609622 0
M  V30 2415 H 234.143 -1.62531 -1.07562 0
M  V30 2416 H 233.239 -1.72648 -2.59998 0
M  V30 2417 N 233.54 1.10788 -1.12088 0
M  V30 2418 C 234.47 2.19083 -0.807755 0
M  V30 2419 C 235.451 1.6858 0.226859 0
M  V30 2420 O 236.636 1.93997 0.0888475 0
M  V30 2421 C 233.766 3.46344 -0.257576 0
M  V30 2422 C 232.72 4.101 -1.22483 0
M  V30 2423 C 232.046 5.32016 -0.535052 0
M  V30 2424 C 233.346 4.54236 -2.57811 0
M  V30 2425 H 235.04 2.45534 -1.71328 0
M  V30 2426 H 232.586 1.1801 -0.825205 0
M  V30 2427 H 234.539 4.21392 -0.0262679 0
M  V30 2428 H 233.263 3.19373 0.683278 0
M  V30 2429 H 231.922 3.37054 -1.44189 0
M  V30 2430 H 231.57 5.01319 0.410827 0
M  V30 2431 H 231.27 5.75625 -1.18024 0
M  V30 2432 H 232.794 6.09799 -0.312695 0
M  V30 2433 H 234.208 5.20575 -2.40155 0
M  V30 2434 H 232.605 5.08682 -3.18375 0
M  V30 2435 H 233.675 3.6734 -3.16528 0
M  V30 2436 N 235.018 0.912232 1.28515 0
M  V30 2437 C 236.265 0.544599 1.95039 0
M  V30 2438 C 236.593 -0.911435 1.71823 0
M  V30 2439 O 235.848 -1.66317 1.03137 0
M  V30 2440 C 236.147 0.798392 3.48368 0
M  V30 2441 C 235.813 2.23374 3.91682 0
M  V30 2442 C 234.475 2.62617 4.03219 0
M  V30 2443 C 236.827 3.16786 4.13879 0
M  V30 2444 C 234.155 3.94429 4.3433 0
M  V30 2445 C 236.507 4.48161 4.46469 0
M  V30 2446 C 235.171 4.8726 4.56217 0
M  V30 2447 H 234.441 0.199283 0.7137 0
M  V30 2448 H 237.088 1.15327 1.52879 0
M  V30 2449 H 235.393 0.106908 3.91654 0
M  V30 2450 H 237.09 0.493141 3.97956 0
M  V30 2451 H 233.68 1.91922 3.83228 0
M  V30 2452 H 237.864 2.87677 4.0442 0
M  V30 2453 H 233.12 4.24426 4.40082 0
M  V30 2454 H 237.294 5.20559 4.62592 0
M  V30 2455 H 234.921 5.89431 4.80078 0
M  V30 2456 N 236.496 -1.42363 0.676048 0
M  V30 2457 C 237.726 -2.05561 0.206967 0
M  V30 2458 C 238.134 -1.50887 -1.14148 0
M  V30 2459 O 237.477 -0.643933 -1.72044 0
M  V30 2460 C 237.539 -3.5944 0.0659508 0
M  V30 2461 C 237.203 -4.36812 1.34331 0
M  V30 2462 C 238.2 -4.67383 2.27704 0
M  V30 2463 C 235.885 -4.76429 1.59125 0
M  V30 2464 C 237.879 -5.36509 3.44147 0
M  V30 2465 C 235.566 -5.45294 2.75857 0
M  V30 2466 C 236.564 -5.75259 3.68193 0
M  V30 2467 O 236.252 -6.42712 4.82883 0
M  V30 2468 H 235.984 -0.668872 0.0979084 0
M  V30 2469 H 238.538 -1.83467 0.923531 0
M  V30 2470 H 236.768 -3.80197 -0.706204 0
M  V30 2471 H 238.457 -4.0427 -0.363418 0
M  V30 2472 H 239.223 -4.37275 2.09799 0
M  V30 2473 H 235.102 -4.52498 0.881258 0
M  V30 2474 H 238.646 -5.59814 4.16238 0
M  V30 2475 H 234.543 -5.7482 2.93688 0
M  V30 2476 H 235.311 -6.61204 4.82444 0
M  V30 2477 N 237.974 -0.419461 -1.51915 0
M  V30 2478 C 239.223 0.154346 -2.01109 0
M  V30 2479 C 239.536 1.45338 -1.30905 0
M  V30 2480 O 240.742 2.10906 -1.7097 0
M  V30 2481 C 239.198 0.325615 -3.58424 0
M  V30 2482 C 238.806 -0.961934 -4.37551 0
M  V30 2483 C 240.55 0.854155 -4.15818 0
M  V30 2484 C 238.457 -0.757287 -5.86531 0
M  V30 2485 H 237.387 0.0614563 -0.751491 0
M  V30 2486 H 240.038 -0.54649 -1.75173 0
M  V30 2487 H 238.42 1.08903 -3.80731 0
M  V30 2488 H 239.594 -1.7323 -4.26999 0
M  V30 2489 H 237.909 -1.41766 -3.91524 0
M  V30 2490 H 240.506 1.02346 -5.24814 0
M  V30 2491 H 240.849 1.83172 -3.73837 0
M  V30 2492 H 241.382 0.149528 -3.97519 0
M  V30 2493 H 238.121 -1.70671 -6.32892 0
M  V30 2494 H 237.641 -0.0264061 -5.99794 0
M  V30 2495 H 239.32 -0.403482 -6.45741 0
M  V30 2496 N 239.452 1.56882 -0.150215 0
M  V30 2497 C 240.863 1.82995 0.370076 0
M  V30 2498 C 241.214 1.06907 1.64515 0
M  V30 2499 O 240.339 0.315369 2.1409 0
M  V30 2500 C 240.934 3.31942 0.678208 0
M  V30 2501 C 239.493 3.58625 1.14301 0
M  V30 2502 C 238.64 2.76792 0.167778 0
M  V30 2503 H 241.591 1.54209 -0.374858 0
M  V30 2504 H 241.612 3.48272 1.53254 0
M  V30 2505 H 241.124 3.87294 -0.249991 0
M  V30 2506 H 239.225 3.08664 2.08704 0
M  V30 2507 H 239.338 4.67073 1.06676 0
M  V30 2508 H 237.702 2.45972 0.661037 0
M  V30 2509 H 238.485 3.34916 -0.754069 0
M  V30 2510 N 240.93 -0.123565 1.57115 0
M  V30 2511 C 241.862 -1.17739 1.96648 0
M  V30 2512 C 242.875 -1.37906 0.865201 0
M  V30 2513 O 244.064 -1.37062 1.14351 0
M  V30 2514 C 241.164 -2.53821 2.24562 0
M  V30 2515 C 240.337 -2.54317 3.55867 0
M  V30 2516 C 239.396 -3.72112 3.72047 0
M  V30 2517 O 238.422 -3.55907 4.44206 0
M  V30 2518 N 239.624 -4.90498 3.10471 0
M  V30 2519 H 242.389 -0.841147 2.87654 0
M  V30 2520 H 239.95 -0.31289 1.58848 0
M  V30 2521 H 241.942 -3.31175 2.32606 0
M  V30 2522 H 240.512 -2.79645 1.39705 0
M  V30 2523 H 239.732 -1.62711 3.59053 0
M  V30 2524 H 241.02 -2.51701 4.42181 0
M  V30 2525 H 240.418 -5.06567 2.51806 0
M  V30 2526 H 238.975 -5.65544 3.24043 0
M  V30 2527 N 242.408 -1.52605 -0.393616 0
M  V30 2528 C 243.654 -1.67672 -1.14079 0
M  V30 2529 C 243.987 -0.413121 -1.89755 0
M  V30 2530 O 243.262 0.588952 -1.85369 0
M  V30 2531 C 243.545 -2.9088 -2.12276 0
M  V30 2532 C 243.398 -4.27329 -1.40394 0
M  V30 2533 C 244.717 -3.09628 -3.12759 0
M  V30 2534 H 241.836 -0.610168 -0.413356 0
M  V30 2535 H 244.478 -1.85193 -0.424696 0
M  V30 2536 H 242.628 -2.76073 -2.73342 0
M  V30 2537 H 244.3 -4.53894 -0.82327 0
M  V30 2538 H 242.543 -4.2802 -0.705801 0
M  V30 2539 H 243.214 -5.09615 -2.12123 0
M  V30 2540 H 245.69 -3.23436 -2.61779 0
M  V30 2541 H 244.566 -3.97322 -3.78717 0
M  V30 2542 H 244.827 -2.23637 -3.81365 0
M  V30 2543 N 243.887 0.651787 -1.4349 0
M  V30 2544 C 245.112 1.44434 -1.48841 0
M  V30 2545 C 245.537 1.8779 -0.107955 0
M  V30 2546 O 244.895 1.57464 0.898602 0
M  V30 2547 C 244.943 2.65458 -2.44059 0
M  V30 2548 O 244.047 3.64566 -1.92784 0
M  V30 2549 H 243.388 0.433005 -0.503391 0
M  V30 2550 H 245.918 0.797451 -1.88419 0
M  V30 2551 H 245.928 3.13255 -2.6141 0
M  V30 2552 H 244.603 2.33244 -3.4434 0
M  V30 2553 H 243.18 3.23716 -1.851 0
M  V30 2554 N 245.365 1.30045 0.890287 0
M  V30 2555 C 246.595 1.21296 1.67245 0
M  V30 2556 C 247.003 -0.227471 1.87828 0
M  V30 2557 O 246.346 -1.16296 1.422 0
M  V30 2558 C 246.408 1.86519 3.07329 0
M  V30 2559 C 246.072 3.35837 3.09939 0
M  V30 2560 C 247.069 4.31915 2.89389 0
M  V30 2561 C 244.754 3.77196 3.31706 0
M  V30 2562 C 246.748 5.67325 2.90552 0
M  V30 2563 C 244.435 5.12725 3.32499 0
M  V30 2564 C 245.433 6.076 3.11947 0
M  V30 2565 O 245.121 7.40655 3.12547 0
M  V30 2566 H 244.853 0.4211 0.528821 0
M  V30 2567 H 247.407 1.72111 1.12103 0
M  V30 2568 H 245.637 1.30228 3.64112 0
M  V30 2569 H 247.326 1.71963 3.67673 0
M  V30 2570 H 248.092 4.01294 2.72375 0
M  V30 2571 H 243.971 3.03796 3.4674 0
M  V30 2572 H 247.515 6.41354 2.74429 0
M  V30 2573 H 243.412 5.42988 3.49047 0
M  V30 2574 H 244.18 7.49577 3.28749 0
M  V30 2575 N 246.843 -1.10192 1.12674 0
M  V30 2576 C 247.806 -2.14786 0.799979 0
M  V30 2577 C 248.806 -1.59711 -0.18685 0
M  V30 2578 O 249.996 -1.74156 0.0392558 0
M  V30 2579 C 247.128 -3.40374 0.189228 0
M  V30 2580 H 248.321 -2.45203 1.72671 0
M  V30 2581 H 245.874 -1.25597 0.930326 0
M  V30 2582 H 246.609 -3.15577 -0.747107 0
M  V30 2583 H 246.394 -3.81637 0.899766 0
M  V30 2584 H 247.884 -4.17594 -0.0228143 0
M  V30 2585 N 248.321 -0.919034 -1.28029 0
M  V30 2586 C 249.546 -0.570357 -1.99403 0
M  V30 2587 C 249.971 0.842486 -1.68178 0
M  V30 2588 O 249.329 1.56391 -0.917141 0
M  V30 2589 C 249.377 -0.792541 -3.51783 0
M  V30 2590 O 248.481 0.145988 -4.12142 0
M  V30 2591 H 247.822 -0.220555 -0.6263 0
M  V30 2592 H 250.352 -1.23592 -1.63053 0
M  V30 2593 H 250.362 -0.704708 -4.01868 0
M  V30 2594 H 249.037 -1.82247 -3.73844 0
M  V30 2595 H 247.614 0.00897528 -3.72899 0
M  V30 2596 N 249.799 1.42003 -0.683588 0
M  V30 2597 C 251.024 2.06265 -0.216647 0
M  V30 2598 C 251.449 1.51059 1.12083 0
M  V30 2599 O 250.807 0.632638 1.69904 0
M  V30 2600 C 250.855 3.60191 -0.171759 0
M  V30 2601 O 249.959 4.03396 0.857069 0
M  V30 2602 H 249.3 0.65502 -0.108834 0
M  V30 2603 H 251.83 1.81982 -0.935077 0
M  V30 2604 H 251.84 4.08 0.0014303 0
M  V30 2605 H 250.515 3.99743 -1.14796 0
M  V30 2606 H 249.092 3.67117 0.654208 0
M  V30 2607 N 251.277 0.427512 1.51691 0
M  V30 2608 C 252.502 -0.143601 2.06902 0
M  V30 2609 C 252.927 -1.36536 1.29382 0
M  V30 2610 O 252.285 -1.78289 0.329043 0
M  V30 2611 C 252.333 -0.454207 3.57728 0
M  V30 2612 O 251.437 -1.54228 3.82475 0
M  V30 2613 H 250.778 -0.00617128 0.663971 0
M  V30 2614 H 253.308 0.606014 1.95419 0
M  V30 2615 H 253.318 -0.707525 4.01818 0
M  V30 2616 H 251.993 0.438812 4.13579 0
M  V30 2617 H 250.57 -1.2797 3.50254 0
M  V30 2618 N 252.755 -1.56801 0.158532 0
M  V30 2619 C 254.171 -1.5837 -0.197774 0
M  V30 2620 C 254.371 -1.17334 -1.63814 0
M  V30 2621 O 253.427 -0.878988 -2.36707 0
M  V30 2622 C 254.74 -3.00615 0.0714459 0
M  V30 2623 C 256.288 -3.12999 0.00864533 0
M  V30 2624 C 256.763 -4.57313 0.250685 0
M  V30 2625 N 258.254 -4.62777 0.198014 0
M  V30 2626 C 258.989 -5.72271 0.359642 0
M  V30 2627 N 258.485 -6.90371 0.579625 0
M  V30 2628 N 260.278 -5.61318 0.296438 0
M  V30 2629 H 252.429 -1.81765 1.09887 0
M  V30 2630 H 254.692 -0.841849 0.435884 0
M  V30 2631 H 254.398 -3.35068 1.06874 0
M  V30 2632 H 254.272 -3.71683 -0.642757 0
M  V30 2633 H 256.659 -2.7838 -0.979217 0
M  V30 2634 H 256.74 -2.44393 0.755359 0
M  V30 2635 H 256.384 -4.92639 1.2357 0
M  V30 2636 H 256.314 -5.24061 -0.516489 0
M  V30 2637 H 258.805 -3.77885 0.0331115 0
M  V30 2638 H 259.118 -7.69689 0.69275 0
M  V30 2639 H 257.463 -6.92264 0.616087 0
M  V30 2640 H 260.654 -4.67932 0.125258 0
M  V30 2641 H 260.827 -6.46599 0.425831 0
M  V30 2642 N 254.233 0.115231 -1.57178 0
M  V30 2643 C 255.163 1.1423 -2.03651 0
M  V30 2644 C 256.144 1.42967 -0.921655 0
M  V30 2645 O 257.329 1.53343 -1.19162 0
M  V30 2646 C 254.459 2.4675 -2.44401 0
M  V30 2647 C 253.413 2.32467 -3.59365 0
M  V30 2648 C 252.739 3.69984 -3.86026 0
M  V30 2649 C 254.039 1.78203 -4.90959 0
M  V30 2650 H 255.733 0.755749 -2.89705 0
M  V30 2651 H 253.279 0.362093 -1.39373 0
M  V30 2652 H 255.232 3.18854 -2.75517 0
M  V30 2653 H 253.956 2.87302 -1.55322 0
M  V30 2654 H 252.615 1.62811 -3.28463 0
M  V30 2655 H 252.263 4.08028 -2.94147 0
M  V30 2656 H 251.963 3.61279 -4.63412 0
M  V30 2657 H 253.487 4.43587 -4.19599 0
M  V30 2658 H 254.901 2.40128 -5.20587 0
M  V30 2659 H 253.298 1.8031 -5.72371 0
M  V30 2660 H 254.368 0.739876 -4.79222 0
M  V30 2661 N 255.711 1.52812 0.385517 0
M  V30 2662 C 256.641 1.80808 1.47752 0
M  V30 2663 C 257.622 0.660318 1.5676 0
M  V30 2664 O 258.807 0.908246 1.71652 0
M  V30 2665 C 255.937 1.98008 2.85324 0
M  V30 2666 C 254.891 3.13709 2.91154 0
M  V30 2667 C 254.217 3.16169 4.31209 0
M  V30 2668 C 255.517 4.52709 2.60483 0
M  V30 2669 H 257.211 2.72253 1.24573 0
M  V30 2670 H 254.757 1.31003 0.597839 0
M  V30 2671 H 256.71 2.16176 3.61726 0
M  V30 2672 H 255.434 1.03255 3.09848 0
M  V30 2673 H 254.093 2.95329 2.17201 0
M  V30 2674 H 253.741 2.19092 4.52778 0
M  V30 2675 H 253.441 3.93894 4.36029 0
M  V30 2676 H 254.965 3.36496 5.09512 0
M  V30 2677 H 256.379 4.71173 3.26602 0
M  V30 2678 H 254.776 5.32528 2.76648 0
M  V30 2679 H 255.846 4.59186 1.55809 0
M  V30 2680 N 257.189 -0.644168 1.43834 0
M  V30 2681 C 258.414 -1.43642 1.49605 0
M  V30 2682 C 258.839 -1.8773 0.117913 0
M  V30 2683 O 258.197 -1.57938 -0.890239 0
M  V30 2684 C 258.245 -2.6416 2.45463 0
M  V30 2685 O 257.349 -3.63538 1.94714 0
M  V30 2686 H 256.69 -0.430329 0.50568 0
M  V30 2687 H 259.22 -0.787448 1.8884 0
M  V30 2688 H 259.23 -3.11864 2.63068 0
M  V30 2689 H 257.905 -2.31414 3.45572 0
M  V30 2690 H 256.482 -3.2273 1.86814 0
M  V30 2691 N 258.668 -1.30515 -0.883378 0
M  V30 2692 C 259.616 -1.16941 -2.01066 0
M  V30 2693 C 260.61 -0.0809148 -1.69207 0
M  V30 2694 O 261.816 -0.241877 -1.78367 0
M  V30 2695 H 258.191 -0.361705 -0.659298 0
M  V30 2696 H 260.162 -2.12344 -2.09649 0
M  V30 2697 C 258.911 -0.879694 -3.36388 0
M  V30 2698 H 258.234 -1.70936 -3.61415 0
M  V30 2699 H 259.674 -0.82483 -4.159 0
M  V30 2700 C 258.133 0.417409 -3.34304 0
M  V30 2701 O 258.663 1.43843 -3.75063 0
M  V30 2702 N 256.869 0.429141 -2.87414 0
M  V30 2703 H 256.416 -0.402222 -2.5444 0
M  V30 2704 H 256.374 1.29696 -2.86403 0
M  V30 2705 N 260.146 1.09593 -1.13257 0
M  V30 2706 C 261.093 2.1618 -0.808381 0
M  V30 2707 C 262.063 1.64517 0.228754 0
M  V30 2708 O 263.248 1.9053 0.101381 0
M  V30 2709 C 260.388 3.43973 -0.278675 0
M  V30 2710 C 259.501 4.09545 -1.37466 0
M  V30 2711 C 258.636 5.25088 -0.803479 0
M  V30 2712 C 257.675 5.82579 -1.87799 0
M  V30 2713 N 256.812 6.89486 -1.32488 0
M  V30 2714 H 261.652 2.43254 -1.72138 0
M  V30 2715 H 259.189 1.19392 -0.859294 0
M  V30 2716 H 261.147 4.17174 0.0465583 0
M  V30 2717 H 259.777 3.17223 0.597459 0
M  V30 2718 H 258.829 3.34226 -1.81652 0
M  V30 2719 H 260.141 4.48307 -2.18684 0
M  V30 2720 H 259.295 6.05178 -0.429427 0
M  V30 2721 H 258.034 4.87684 0.0397956 0
M  V30 2722 H 257.039 5.01152 -2.26113 0
M  V30 2723 H 258.264 6.22045 -2.72463 0
M  V30 2724 H 256.21 6.54064 -0.503575 0
M  V30 2725 H 256.127 7.27007 -2.07355 0
M  V30 2726 H 257.395 7.73336 -0.978336 0
M  V30 2727 N 261.624 0.925811 1.2754 0
M  V30 2728 C 262.572 0.413897 2.28888 0
M  V30 2729 C 263.566 -0.500779 1.61829 0
M  V30 2730 O 264.772 -0.38069 1.75928 0
M  V30 2731 H 261.147 0.115274 0.743112 0
M  V30 2732 H 263.118 1.28151 2.69481 0
M  V30 2733 C 261.867 -0.319792 3.46226 0
M  V30 2734 H 261.19 0.374846 3.98039 0
M  V30 2735 H 262.63 -0.642435 4.19105 0
M  V30 2736 C 261.089 -1.53209 3.00048 0
M  V30 2737 O 261.619 -2.6309 3.03557 0
M  V30 2738 N 259.825 -1.38326 2.55566 0
M  V30 2739 H 259.372 -0.489292 2.5291 0
M  V30 2740 H 259.33 -2.19564 2.25031 0
M  V30 2741 N 263.102 -1.41638 0.69111 0
M  V30 2742 C 264.034 -2.29194 -0.0161523 0
M  V30 2743 C 265.047 -1.44549 -0.748955 0
M  V30 2744 O 266.236 -1.681 -0.6004 0
M  V30 2745 C 263.336 -3.22325 -1.0469 0
M  V30 2746 C 262.509 -4.35706 -0.384621 0
M  V30 2747 C 261.568 -5.09443 -1.31737 0
M  V30 2748 O 260.594 -5.63386 -0.811451 0
M  V30 2749 N 261.796 -5.16487 -2.64993 0
M  V30 2750 H 264.561 -2.90534 0.735523 0
M  V30 2751 H 262.122 -1.52742 0.53679 0
M  V30 2752 H 264.114 -3.68522 -1.67252 0
M  V30 2753 H 262.684 -2.62323 -1.70015 0
M  V30 2754 H 261.904 -3.91948 0.420804 0
M  V30 2755 H 263.192 -5.08743 0.0760765 0
M  V30 2756 H 262.59 -4.741 -3.08619 0
M  V30 2757 H 261.147 -5.66276 -3.22761 0
M  V30 2758 N 264.58 -0.43555 -1.51462 0
M  V30 2759 C 265.827 0.131514 -2.02072 0
M  V30 2760 C 266.155 1.42868 -1.31981 0
M  V30 2761 O 265.41 1.91076 -0.422883 0
M  V30 2762 C 265.709 0.39942 -3.55161 0
M  V30 2763 C 265.375 -0.81172 -4.43533 0
M  V30 2764 C 264.037 -1.14387 -4.67407 0
M  V30 2765 C 266.389 -1.61976 -4.95392 0
M  V30 2766 C 263.717 -2.28477 -5.40384 0
M  V30 2767 C 266.069 -2.75164 -5.6962 0
M  V30 2768 C 264.733 -3.08835 -5.91758 0
M  V30 2769 H 264.003 0.0481244 -0.739436 0
M  V30 2770 H 266.65 -0.58238 -1.8243 0
M  V30 2771 H 264.955 1.19519 -3.73125 0
M  V30 2772 H 266.652 0.85157 -3.91854 0
M  V30 2773 H 263.242 -0.542898 -4.25148 0
M  V30 2774 H 267.426 -1.37637 -4.76833 0
M  V30 2775 H 262.682 -2.5488 -5.55739 0
M  V30 2776 H 266.856 -3.38147 -6.08793 0
M  V30 2777 H 264.483 -3.97353 -6.48086 0
M  V30 2778 N 266.058 1.56714 -0.166846 0
M  V30 2779 C 267.005 2.17746 0.765193 0
M  V30 2780 C 267.975 1.11614 1.23011 0
M  V30 2781 O 269.16 1.39745 1.29908 0
M  V30 2782 C 266.3 2.81882 1.9909 0
M  V30 2783 C 265.413 4.02462 1.56997 0
M  V30 2784 C 264.548 4.54537 2.749 0
M  V30 2785 C 263.587 5.67538 2.29275 0
M  V30 2786 N 262.724 6.14142 3.40255 0
M  V30 2787 H 267.564 2.97048 0.237952 0
M  V30 2788 H 265.101 1.4672 0.105725 0
M  V30 2789 H 267.059 3.17221 2.70974 0
M  V30 2790 H 265.689 2.05191 2.49192 0
M  V30 2791 H 264.741 3.72973 0.748037 0
M  V30 2792 H 266.053 4.84273 1.19503 0
M  V30 2793 H 265.207 4.92035 3.54946 0
M  V30 2794 H 263.946 3.71774 3.1565 0
M  V30 2795 H 262.951 5.29597 1.47674 0
M  V30 2796 H 264.176 6.52099 1.89588 0
M  V30 2797 H 262.122 5.3431 3.8059 0
M  V30 2798 H 262.039 6.9093 3.06841 0
M  V30 2799 H 263.307 6.56289 4.206 0
M  V30 2800 N 267.536 -0.106894 1.57237 0
M  V30 2801 C 268.761 -0.830287 1.90055 0
M  V30 2802 C 269.186 -1.72064 0.75998 0
M  V30 2803 O 268.544 -1.78982 -0.288991 0
M  V30 2804 C 268.592 -1.6295 3.21683 0
M  V30 2805 O 267.696 -2.73748 3.08441 0
M  V30 2806 H 267.037 -0.228855 0.623315 0
M  V30 2807 H 269.567 -0.085658 2.04421 0
M  V30 2808 H 269.577 -2.01621 3.54701 0
M  V30 2809 H 268.252 -0.975989 4.04286 0
M  V30 2810 H 266.829 -2.38192 2.86913 0
M  V30 2811 N 269.014 -1.53014 -0.377408 0
M  V30 2812 C 270.261 -1.68623 -1.12128 0
M  V30 2813 C 270.589 -0.431997 -1.89642 0
M  V30 2814 O 269.844 0.585855 -1.86725 0
M  V30 2815 C 270.143 -2.87982 -2.11663 0
M  V30 2816 C 269.809 -4.24964 -1.50719 0
M  V30 2817 C 268.471 -4.62217 -1.33825 0
M  V30 2818 C 270.823 -5.10199 -1.06519 0
M  V30 2819 C 268.151 -5.82352 -0.712963 0
M  V30 2820 C 270.503 -6.30969 -0.453955 0
M  V30 2821 C 269.167 -6.66944 -0.272411 0
M  V30 2822 H 268.437 -0.617034 -0.410305 0
M  V30 2823 H 271.084 -1.8718 -0.404484 0
M  V30 2824 H 269.389 -2.63889 -2.89603 0
M  V30 2825 H 271.086 -2.97253 -2.6915 0
M  V30 2826 H 267.676 -3.95626 -1.64858 0
M  V30 2827 H 271.86 -4.81978 -1.18368 0
M  V30 2828 H 267.116 -6.08824 -0.560611 0
M  V30 2829 H 271.29 -6.96324 -0.103217 0
M  V30 2830 H 268.917 -7.59898 0.214181 0
M  V30 2831 N 270.492 0.636531 -1.44174 0
M  V30 2832 C 271.422 1.76003 -1.53444 0
M  V30 2833 C 272.403 1.65619 -0.387841 0
M  V30 2834 O 273.588 1.84461 -0.607257 0
M  V30 2835 C 270.718 3.14511 -1.4731 0
M  V30 2836 C 269.672 3.39677 -2.60391 0
M  V30 2837 C 268.998 4.78159 -2.39308 0
M  V30 2838 C 270.298 3.32772 -4.02567 0
M  V30 2839 H 271.992 1.68501 -2.47483 0
M  V30 2840 H 269.538 0.809237 -1.19111 0
M  V30 2841 H 271.491 3.92878 -1.52397 0
M  V30 2842 H 270.215 3.22783 -0.49785 0
M  V30 2843 H 268.874 2.63688 -2.54684 0
M  V30 2844 H 268.522 4.83128 -1.39988 0
M  V30 2845 H 268.222 4.95956 -3.15122 0
M  V30 2846 H 269.746 5.58762 -2.46205 0
M  V30 2847 H 271.16 4.01051 -4.09672 0
M  V30 2848 H 269.557 3.62104 -4.7854 0
M  V30 2849 H 270.627 2.30669 -4.2652 0
M  V30 2850 N 271.97 1.30982 0.876444 0
M  V30 2851 C 273.386 1.09498 1.16113 0
M  V30 2852 C 273.586 -0.13875 2.01022 0
M  V30 2853 O 272.642 -0.829935 2.38471 0
M  V30 2854 C 273.955 2.36308 1.85954 0
M  V30 2855 C 275.503 2.41856 1.98683 0
M  V30 2856 C 275.978 3.6853 2.71937 0
M  V30 2857 N 277.469 3.69387 2.79477 0
M  V30 2858 C 278.204 4.64096 3.36753 0
M  V30 2859 N 277.7 5.69155 3.95012 0
M  V30 2860 N 279.493 4.51626 3.3465 0
M  V30 2861 H 271.644 2.10118 0.310494 0
M  V30 2862 H 273.907 0.926634 0.200131 0
M  V30 2863 H 273.613 3.26388 1.31011 0
M  V30 2864 H 273.487 2.4561 2.86278 0
M  V30 2865 H 275.874 1.52249 2.52793 0
M  V30 2866 H 275.955 2.36523 0.9742 0
M  V30 2867 H 275.599 4.58499 2.18496 0
M  V30 2868 H 275.529 3.71127 3.73593 0
M  V30 2869 H 278.02 2.93438 2.38123 0
M  V30 2870 H 278.333 6.3751 4.36808 0
M  V30 2871 H 276.678 5.72937 3.93406 0
M  V30 2872 H 279.869 3.68728 2.8837 0
M  V30 2873 H 280.042 5.25614 3.7899 0
M  V30 2874 N 273.449 -1.08991 1.13837 0
M  V30 2875 C 274.677 -1.85011 0.926202 0
M  V30 2876 C 275.092 -1.8135 -0.525127 0
M  V30 2877 O 274.449 -1.21287 -1.36366 0
M  V30 2878 C 274.5 -3.32802 1.41155 0
M  V30 2879 O 274.221 -3.36444 2.80601 0
M  V30 2880 C 275.722 -4.25649 1.23847 0
M  V30 2881 H 272.942 -0.584249 0.32999 0
M  V30 2882 H 275.486 -1.37688 1.51202 0
M  V30 2883 H 273.641 -3.77536 0.868631 0
M  V30 2884 H 274.055 -4.28657 3.02248 0
M  V30 2885 H 275.529 -5.27485 1.62675 0
M  V30 2886 H 276.006 -4.38828 0.18065 0
M  V30 2887 H 276.612 -3.86735 1.76964 0
M  V30 2888 N 274.927 -0.932562 -1.27047 0
M  V30 2889 C 276.176 -0.571351 -1.93439 0
M  V30 2890 C 276.489 0.892467 -1.74053 0
M  V30 2891 O 277.695 1.36267 -2.34826 0
M  V30 2892 C 276.151 -0.97106 -3.46552 0
M  V30 2893 C 275.759 -2.4559 -3.74686 0
M  V30 2894 C 277.503 -0.681333 -4.18997 0
M  V30 2895 C 275.41 -2.79475 -5.21198 0
M  V30 2896 H 274.34 -0.209966 -0.724176 0
M  V30 2897 H 276.991 -1.13403 -1.44263 0
M  V30 2898 H 275.373 -0.336983 -3.94564 0
M  V30 2899 H 276.547 -3.13829 -3.37414 0
M  V30 2900 H 274.862 -2.71802 -3.15456 0
M  V30 2901 H 277.459 -0.910939 -5.26883 0
M  V30 2902 H 277.802 0.381628 -4.14547 0
M  V30 2903 H 278.335 -1.27473 -3.76823 0
M  V30 2904 H 275.074 -3.847 -5.30741 0
M  V30 2905 H 274.594 -2.1589 -5.596 0
M  V30 2906 H 276.273 -2.67478 -5.89122 0
M  V30 2907 N 276.405 1.4127 -0.698611 0
M  V30 2908 C 277.816 1.84187 -0.305289 0
M  V30 2909 C 278.167 1.58449 1.15708 0
M  V30 2910 O 277.292 1.05651 1.88856 0
M  V30 2911 C 277.887 3.3435 -0.547314 0
M  V30 2912 C 276.446 3.75826 -0.207878 0
M  V30 2913 C 275.593 2.64647 -0.828099 0
M  V30 2914 H 278.544 1.30778 -0.89904 0
M  V30 2915 H 278.565 3.8001 0.192998 0
M  V30 2916 H 278.077 3.53051 -1.61172 0
M  V30 2917 H 276.178 3.62725 0.852143 0
M  V30 2918 H 276.291 4.74462 -0.665021 0
M  V30 2919 H 274.655 2.53395 -0.257458 0
M  V30 2920 H 275.438 2.86165 -1.89643 0
M  V30 2921 N 277.883 0.443576 1.51229 0
M  V30 2922 C 278.831 -0.37904 2.29491 0
M  V30 2923 C 279.825 -1.0153 1.35603 0
M  V30 2924 O 281.031 -0.94955 1.52917 0
M  V30 2925 H 277.406 -0.141053 0.738653 0
M  V30 2926 H 279.377 0.301799 2.9687 0
M  V30 2927 C 278.126 -1.46426 3.15364 0
M  V30 2928 H 277.449 -0.984037 3.87501 0
M  V30 2929 H 278.889 -2.01297 3.7317 0
M  V30 2930 C 277.348 -2.45099 2.31146 0
M  V30 2931 O 277.878 -3.49773 1.9754 0
M  V30 2932 N 276.084 -2.16139 1.94249 0
M  V30 2933 H 275.631 -1.31044 2.21777 0
M  V30 2934 H 275.589 -2.82398 1.38198 0
M  V30 2935 N 279.361 -1.56624 0.175154 0
M  V30 2936 C 280.638 -1.88688 -0.515373 0
M  V30 2937 C 281.018 -1.08564 -1.81044 0
M  V30 2938 O 280.366 -0.180703 -2.27784 0
M  V30 2939 C 280.576 -3.40768 -0.753552 0
M  V30 2940 C 281.924 -4.10587 -1.08184 0
M  V30 2941 O 282.948 -3.46106 -0.841961 0
M  V30 2942 O 281.807 -5.24512 -1.53459 0
M  V30 2943 H 278.901 -0.78301 -0.26613 0
M  V30 2944 H 281.447 -1.68347 0.213877 0
M  V30 2945 H 280.219 -3.90965 0.161829 0
M  V30 2946 H 279.842 -3.66733 -1.53598 0
M  V30 2947 N 280.839 0.0985539 -1.57292 0
M  V30 2948 C 281.749 1.13824 -2.05137 0
M  V30 2949 C 282.765 1.44076 -0.975604 0
M  V30 2950 O 283.941 1.54786 -1.28853 0
M  V30 2951 C 281.006 2.43969 -2.46333 0
M  V30 2952 C 280.067 2.2093 -3.68087 0
M  V30 2953 C 279.3 3.44869 -4.0731 0
M  V30 2954 O 279.523 4.52972 -3.46659 0
M  V30 2955 O 278.457 3.34661 -5.00285 0
M  V30 2956 H 282.283 0.761881 -2.93988 0
M  V30 2957 H 279.868 0.310818 -1.46131 0
M  V30 2958 H 281.75 3.20609 -2.73473 0
M  V30 2959 H 280.425 2.81038 -1.60621 0
M  V30 2960 H 279.332 1.42081 -3.46069 0
M  V30 2961 H 280.665 1.88755 -4.54568 0
M  V30 2962 N 282.317 1.53212 0.369288 0
M  V30 2963 C 283.267 1.75769 1.45222 0
M  V30 2964 C 284.251 0.612136 1.48801 0
M  V30 2965 O 285.443 0.870674 1.54105 0
M  V30 2966 C 282.572 1.94769 2.82701 0
M  V30 2967 C 281.658 3.15315 2.83615 0
M  V30 2968 N 282.049 4.37295 2.54178 0
M  V30 2969 C 280.347 3.15962 3.14776 0
M  V30 2970 C 281.048 5.19015 2.62675 0
M  V30 2971 N 280.024 4.55142 2.97232 0
M  V30 2972 H 283.826 2.67691 1.2132 0
M  V30 2973 H 281.34 1.51787 0.577438 0
M  V30 2974 H 283.337 2.09056 3.60696 0
M  V30 2975 H 281.997 1.04073 3.07569 0
M  V30 2976 H 283.008 4.65091 2.27839 0
M  V30 2977 H 279.685 2.35144 3.44983 0
M  V30 2978 H 281.075 6.26305 2.43294 0
M  V30 2979 N 283.795 -0.628877 1.44509 0
M  V30 2980 C 284.727 -1.754 1.47538 0
M  V30 2981 C 285.74 -1.58575 0.368506 0
M  V30 2982 O 286.929 -1.66847 0.634376 0
M  V30 2983 C 284.029 -3.1315 1.29577 0
M  V30 2984 C 283.202 -3.56413 2.53551 0
M  V30 2985 C 282.261 -4.7305 2.30457 0
M  V30 2986 O 281.287 -4.81247 3.03957 0
M  V30 2987 N 282.489 -5.64903 1.3366 0
M  V30 2988 H 285.254 -1.73272 2.44534 0
M  V30 2989 H 282.815 -0.813512 1.39977 0
M  V30 2990 H 284.807 -3.88902 1.11971 0
M  V30 2991 H 283.377 -3.09908 0.409371 0
M  V30 2992 H 282.597 -2.70847 2.86419 0
M  V30 2993 H 283.885 -3.82071 3.36005 0
M  V30 2994 H 283.283 -5.60975 0.729604 0
M  V30 2995 H 281.84 -6.40275 1.22032 0
M  V30 2996 N 285.273 -1.31445 -0.869486 0
M  V30 2997 C 286.236 -1.19094 -1.9583 0
M  V30 2998 C 287.236 -0.117906 -1.60367 0
M  V30 2999 O 288.426 -0.367208 -1.70286 0
M  V30 3000 C 285.558 -0.828165 -3.30688 0
M  V30 3001 H 286.751 -2.15842 -2.08212 0
M  V30 3002 H 284.304 -1.15063 -1.05784 0
M  V30 3003 H 285.039 0.138142 -3.24006 0
M  V30 3004 H 284.824 -1.6038 -3.578 0
M  V30 3005 H 286.314 -0.765658 -4.10521 0
M  V30 3006 N 286.751 1.08385 -1.14413 0
M  V30 3007 C 287.979 1.84517 -0.936001 0
M  V30 3008 C 288.394 1.81626 0.515503 0
M  V30 3009 O 287.751 1.22008 1.35721 0
M  V30 3010 C 287.802 3.32049 -1.42918 0
M  V30 3011 O 287.523 3.34951 -2.82381 0
M  V30 3012 C 289.024 4.24986 -1.26103 0
M  V30 3013 H 286.244 0.582491 -0.333084 0
M  V30 3014 H 288.788 1.36885 -1.5193 0
M  V30 3015 H 286.943 3.7707 -0.888641 0
M  V30 3016 H 287.357 4.27048 -3.04517 0
M  V30 3017 H 288.831 5.26615 -1.6547 0
M  V30 3018 H 289.308 4.38726 -0.20392 0
M  V30 3019 H 289.914 3.85791 -1.79012 0
M  V30 3020 N 288.23 0.939286 1.26551 0
M  V30 3021 C 289.193 0.451987 2.24699 0
M  V30 3022 C 290.193 -0.435869 1.5478 0
M  V30 3023 O 291.383 -0.235314 1.72603 0
M  V30 3024 C 288.515 -0.348801 3.39111 0
M  V30 3025 H 289.708 1.3193 2.69322 0
M  V30 3026 H 287.261 0.721072 1.38673 0
M  V30 3027 H 287.996 -1.23444 2.99887 0
M  V30 3028 H 287.781 0.287945 3.91041 0
M  V30 3029 H 289.271 -0.679726 4.12031 0
M  V30 3030 N 289.708 -1.40897 0.706093 0
M  V30 3031 C 290.641 -2.282 -0.00328781 0
M  V30 3032 C 291.619 -1.42816 -0.77732 0
M  V30 3033 O 292.803 -1.72237 -0.765944 0
M  V30 3034 C 289.93 -3.23226 -1.01205 0
M  V30 3035 C 288.976 -4.25222 -0.329955 0
M  V30 3036 S 289.809 -5.27269 0.935298 0
M  V30 3037 C 290.965 -6.25859 -0.0716061 0
M  V30 3038 H 291.198 -2.88016 0.737143 0
M  V30 3039 H 288.731 -1.46191 0.496756 0
M  V30 3040 H 290.689 -3.78503 -1.58888 0
M  V30 3041 H 289.35 -2.62485 -1.72513 0
M  V30 3042 H 288.543 -4.92023 -1.09221 0
M  V30 3043 H 288.145 -3.73595 0.174069 0
M  V30 3044 H 290.437 -6.71204 -0.921521 0
M  V30 3045 H 291.38 -7.0586 0.562765 0
M  V30 3046 H 291.788 -5.62852 -0.431088 0
M  V30 3047 N 291.186 -0.45159 -1.50991 0
M  V30 3048 C 292.149 0.341117 -2.26647 0
M  V30 3049 C 293.149 0.937422 -1.30649 0
M  V30 3050 O 294.339 0.809644 -1.54241 0
M  V30 3051 C 291.471 1.48398 -3.06905 0
M  V30 3052 H 292.664 -0.322117 -2.98165 0
M  V30 3053 H 290.217 -0.205122 -1.54948 0
M  V30 3054 H 290.952 2.18284 -2.39838 0
M  V30 3055 H 290.737 1.06241 -3.77432 0
M  V30 3056 H 292.227 2.04367 -3.64176 0
M  V30 3057 N 292.664 1.56529 -0.183458 0
M  V30 3058 C 293.941 1.88959 0.50536 0
M  V30 3059 C 294.321 1.09523 1.80466 0
M  V30 3060 O 293.669 0.19278 2.27685 0
M  V30 3061 C 293.879 3.41162 0.73547 0
M  V30 3062 C 295.227 4.11155 1.06005 0
M  V30 3063 O 296.251 3.46548 0.823594 0
M  V30 3064 O 295.11 5.25318 1.50675 0
M  V30 3065 H 292.204 0.78441 0.261973 0
M  V30 3066 H 294.75 1.68231 -0.222802 0
M  V30 3067 H 293.522 3.90874 -0.182561 0
M  V30 3068 H 293.145 3.67543 1.51651 0
M  V30 3069 N 294.142 -0.090211 1.57342 0
M  V30 3070 C 295.391 -0.791531 1.8552 0
M  V30 3071 C 295.704 -1.79659 0.773441 0
M  V30 3072 O 296.91 -2.54616 0.942497 0
M  V30 3073 C 295.366 -1.45856 3.2902 0
M  V30 3074 C 294.974 -0.493017 4.45279 0
M  V30 3075 C 296.718 -2.14332 3.66418 0
M  V30 3076 C 294.625 -1.16491 5.79814 0
M  V30 3077 H 293.555 -0.299356 0.692027 0
M  V30 3078 H 296.206 -0.0445343 1.83446 0
M  V30 3079 H 294.588 -2.25318 3.2565 0
M  V30 3080 H 295.762 0.270464 4.60006 0
M  V30 3081 H 294.077 0.0863061 4.16311 0
M  V30 3082 H 296.674 -2.65344 4.64216 0
M  V30 3083 H 297.017 -2.93447 2.95287 0
M  V30 3084 H 297.55 -1.41724 3.71698 0
M  V30 3085 H 294.289 -0.41447 6.54188 0
M  V30 3086 H 293.809 -1.8997 5.68921 0
M  V30 3087 H 295.488 -1.69001 6.24538 0
M  V30 3088 N 295.62 -1.53406 -0.361157 0
M  V30 3089 C 296.869 -1.69022 -1.10066 0
M  V30 3090 C 297.182 -0.450838 -1.90333 0
M  V30 3091 O 298.388 -0.487617 -2.67085 0
M  V30 3092 C 296.844 -2.98812 -2.00598 0
M  V30 3093 C 296.452 -4.30027 -1.25621 0
M  V30 3094 C 298.196 -3.23795 -2.74513 0
M  V30 3095 C 296.103 -5.50903 -2.1508 0
M  V30 3096 H 295.033 -0.629776 -0.414606 0
M  V30 3097 H 297.684 -1.79907 -0.361348 0
M  V30 3098 H 296.066 -2.8174 -2.78278 0
M  V30 3099 H 297.24 -4.57745 -0.529739 0
M  V30 3100 H 295.555 -4.11522 -0.635496 0
M  V30 3101 H 298.152 -4.11289 -3.41681 0
M  V30 3102 H 298.495 -2.40045 -3.40123 0
M  V30 3103 H 299.028 -3.41561 -2.03914 0
M  V30 3104 H 295.767 -6.37143 -1.54041 0
M  V30 3105 H 295.287 -5.27459 -2.85565 0
M  V30 3106 H 296.966 -5.85865 -2.74538 0
M  V30 3107 N 297.098 0.621204 -1.44841 0
M  V30 3108 C 298.008 1.7612 -1.5498 0
M  V30 3109 C 299.024 1.68477 -0.434927 0
M  V30 3110 O 300.2 1.89076 -0.693693 0
M  V30 3111 C 297.265 3.1254 -1.50065 0
M  V30 3112 C 296.326 3.31741 -2.72482 0
M  V30 3113 C 295.559 4.61653 -2.67792 0
M  V30 3114 O 295.782 5.431 -1.74352 0
M  V30 3115 O 294.716 4.83271 -3.58794 0
M  V30 3116 H 298.542 1.70518 -2.51311 0
M  V30 3117 H 296.127 0.783643 -1.27198 0
M  V30 3118 H 298.009 3.93844 -1.49882 0
M  V30 3119 H 296.684 3.18663 -0.568806 0
M  V30 3120 H 295.591 2.50077 -2.7823 0
M  V30 3121 H 296.924 3.30486 -3.64746 0
M  V30 3122 N 298.576 1.31904 0.862503 0
M  V30 3123 C 299.806 1.24817 1.64634 0
M  V30 3124 C 300.214 -0.187579 1.88268 0
M  V30 3125 O 299.557 -1.13253 1.44635 0
M  V30 3126 C 299.619 1.92996 3.03303 0
M  V30 3127 C 299.283 3.42336 3.02746 0
M  V30 3128 C 300.28 4.37956 2.80162 0
M  V30 3129 C 297.965 3.84147 3.2363 0
M  V30 3130 C 299.959 5.73361 2.78453 0
M  V30 3131 C 297.646 5.19663 3.21549 0
M  V30 3132 C 298.644 6.14081 2.98988 0
M  V30 3133 O 298.332 7.47118 2.96766 0
M  V30 3134 H 298.064 0.432222 0.519769 0
M  V30 3135 H 300.618 1.7445 1.08427 0
M  V30 3136 H 298.848 1.37922 3.61268 0
M  V30 3137 H 300.537 1.79723 3.63943 0
M  V30 3138 H 301.303 4.06981 2.63802 0
M  V30 3139 H 297.182 3.11083 3.40218 0
M  V30 3140 H 300.726 6.4703 2.60763 0
M  V30 3141 H 296.623 5.5027 3.37451 0
M  V30 3142 H 297.391 7.56382 3.12775 0
M  V30 3143 N 300.054 -1.07777 1.14986 0
M  V30 3144 C 301.301 -1.8029 0.922056 0
M  V30 3145 C 301.629 -1.86531 -0.55105 0
M  V30 3146 O 300.884 -1.34189 -1.42449 0
M  V30 3147 C 301.183 -3.25495 1.47608 0
M  V30 3148 C 300.849 -3.39361 2.96893 0
M  V30 3149 C 299.511 -3.42852 3.37647 0
M  V30 3150 C 301.863 -3.42512 3.92854 0
M  V30 3151 C 299.191 -3.47094 4.73015 0
M  V30 3152 C 301.543 -3.4829 5.28088 0
M  V30 3153 C 300.207 -3.50058 5.68345 0
M  V30 3154 H 299.477 -0.659727 0.337404 0
M  V30 3155 H 302.124 -1.26854 1.43459 0
M  V30 3156 H 300.429 -3.81683 0.88463 0
M  V30 3157 H 302.126 -3.80168 1.27568 0
M  V30 3158 H 298.716 -3.37339 2.64387 0
M  V30 3159 H 302.9 -3.3904 3.62444 0
M  V30 3160 H 298.156 -3.46758 5.03556 0
M  V30 3161 H 302.33 -3.49675 6.02246 0
M  V30 3162 H 299.957 -3.53097 6.73221 0
M  V30 3163 N 301.532 -0.945985 -1.26051 0
M  V30 3164 C 302.948 -0.649045 -1.45807 0
M  V30 3165 C 303.148 0.796158 -1.85104 0
M  V30 3166 O 302.204 1.57233 -1.97571 0
M  V30 3167 C 303.517 -1.61458 -2.53677 0
M  V30 3168 C 305.065 -1.62481 -2.67524 0
M  V30 3169 C 305.54 -2.57776 -3.7857 0
M  V30 3170 N 307.031 -2.5609 -3.85969 0
M  V30 3171 C 307.766 -3.26508 -4.7136 0
M  V30 3172 N 307.262 -4.0637 -5.61102 0
M  V30 3173 N 309.055 -3.15437 -4.65248 0
M  V30 3174 H 301.206 -1.88005 -0.988328 0
M  V30 3175 H 303.469 -0.808198 -0.4955 0
M  V30 3176 H 303.175 -2.64644 -2.31638 0
M  V30 3177 H 303.049 -1.37036 -3.51427 0
M  V30 3178 H 305.436 -0.600167 -2.88933 0
M  V30 3179 H 305.517 -1.90958 -1.70202 0
M  V30 3180 H 305.161 -3.60361 -3.57913 0
M  V30 3181 H 305.091 -2.26587 -4.75359 0
M  V30 3182 H 307.582 -1.98105 -3.21812 0
M  V30 3183 H 307.895 -4.57042 -6.23164 0
M  V30 3184 H 306.24 -4.10469 -5.60839 0
M  V30 3185 H 309.431 -2.52525 -3.94143 0
M  V30 3186 H 309.604 -3.70584 -5.31575 0
M  V30 3187 N 303.011 1.40521 -0.713556 0
M  V30 3188 C 304.257 2.01714 -0.261382 0
M  V30 3189 C 304.612 1.55562 1.13217 0
M  V30 3190 O 303.905 0.764893 1.7567 0
M  V30 3191 C 304.099 3.56317 -0.278 0
M  V30 3192 C 303.928 4.17476 -1.67163 0
M  V30 3193 C 302.698 4.50998 -2.2788 0
M  V30 3194 C 304.896 4.42472 -2.6215 0
M  V30 3195 N 302.878 4.9754 -3.5962 0
M  V30 3196 C 304.249 4.90985 -3.78594 0
M  V30 3197 C 306.304 4.24508 -2.60188 0
M  V30 3198 C 305.007 5.2342 -4.9338 0
M  V30 3199 C 307.033 4.58043 -3.741 0
M  V30 3200 C 306.395 5.06743 -4.89276 0
M  V30 3201 H 302.494 0.769104 -0.141434 0
M  V30 3202 H 305.078 1.70785 -0.934915 0
M  V30 3203 H 303.249 3.8668 0.36509 0
M  V30 3204 H 304.981 4.0425 0.190695 0
M  V30 3205 H 301.736 4.38062 -1.79997 0
M  V30 3206 H 302.16 5.25196 -4.27198 0
M  V30 3207 H 306.802 3.86078 -1.72348 0
M  V30 3208 H 304.52 5.60765 -5.81866 0
M  V30 3209 H 308.106 4.45785 -3.73854 0
M  V30 3210 H 306.986 5.32204 -5.75959 0
M  V30 3211 N 304.489 0.459591 1.5075 0
M  V30 3212 C 305.437 -0.354678 2.2988 0
M  V30 3213 C 306.431 -1.00086 1.36672 0
M  V30 3214 O 307.637 -0.933277 1.53915 0
M  V30 3215 H 304.012 -0.13321 0.740107 0
M  V30 3216 H 305.983 0.333269 2.96533 0
M  V30 3217 C 304.732 -1.43073 3.169 0
M  V30 3218 H 304.055 -0.942882 3.88523 0
M  V30 3219 H 305.495 -1.97328 3.75284 0
M  V30 3220 C 303.954 -2.42633 2.33732 0
M  V30 3221 O 304.484 -3.47658 2.01238 0
M  V30 3222 N 302.69 -2.14066 1.9653 0
M  V30 3223 H 302.237 -1.28685 2.23155 0
M  V30 3224 H 302.195 -2.80917 1.41185 0
M  V30 3225 N 305.967 -1.56429 0.191757 0
M  V30 3226 C 307.213 -1.98541 -0.441943 0
M  V30 3227 C 307.568 -1.07646 -1.59468 0
M  V30 3228 O 306.861 -0.120191 -1.91223 0
M  V30 3229 C 307.055 -3.44449 -0.953384 0
M  V30 3230 C 306.884 -4.49456 0.148262 0
M  V30 3231 C 305.654 -5.01668 0.604781 0
M  V30 3232 C 307.852 -5.05336 0.95602 0
M  V30 3233 N 305.834 -5.90334 1.6846 0
M  V30 3234 C 307.205 -5.9064 1.88531 0
M  V30 3235 C 309.26 -4.87779 0.998811 0
M  V30 3236 C 307.963 -6.60264 2.85383 0
M  V30 3237 C 309.989 -5.58139 1.95537 0
M  V30 3238 C 309.351 -6.43187 2.8721 0
M  V30 3239 H 305.45 -0.771247 -0.129236 0
M  V30 3240 H 308.034 -1.92426 0.296682 0
M  V30 3241 H 306.205 -3.5107 -1.66146 0
M  V30 3242 H 307.937 -3.73533 -1.55741 0
M  V30 3243 H 304.692 -4.73183 0.198736 0
M  V30 3244 H 305.116 -6.39371 2.22561 0
M  V30 3245 H 309.758 -4.21705 0.304048 0
M  V30 3246 H 307.476 -7.25538 3.55837 0
M  V30 3247 H 311.062 -5.46532 1.99484 0
M  V30 3248 H 309.942 -6.96674 3.60022 0
M  V30 3249 N 307.445 0.0818655 -1.57387 0
M  V30 3250 C 308.691 0.784074 -1.8703 0
M  V30 3251 C 309.024 1.77729 -0.782689 0
M  V30 3252 O 308.299 1.93384 0.208051 0
M  V30 3253 C 308.582 1.50105 -3.27323 0
M  V30 3254 C 308.435 0.524925 -4.46727 0
M  V30 3255 C 309.754 2.44843 -3.65705 0
M  V30 3256 H 306.873 0.283582 -0.680257 0
M  V30 3257 H 309.515 0.0474352 -1.89941 0
M  V30 3258 H 307.665 2.12897 -3.24972 0
M  V30 3259 H 309.337 -0.0970111 -4.61198 0
M  V30 3260 H 307.58 -0.160606 -4.33503 0
M  V30 3261 H 308.251 1.064 -5.41648 0
M  V30 3262 H 310.727 1.92135 -3.69085 0
M  V30 3263 H 309.603 2.92018 -4.64776 0
M  V30 3264 H 309.864 3.29197 -2.95096 0
M  V30 3265 N 308.923 1.53595 0.353017 0
M  V30 3266 C 310.171 1.70049 1.09215 0
M  V30 3267 C 310.492 0.461406 1.89463 0
M  V30 3268 O 309.762 -0.524633 1.88744 0
M  V30 3269 H 308.342 0.626912 0.40619 0
M  V30 3270 H 311.004 1.90822 0.396585 0
M  V30 3271 H 310.1 2.56718 1.77488 0
M  V30 3272 N 310.401 -0.613514 1.45168 0
M  V30 3273 C 311.629 -1.39946 1.5239 0
M  V30 3274 C 312.044 -1.88167 0.154531 0
M  V30 3275 O 311.401 -1.61872 -0.842843 0
M  V30 3276 C 311.452 -2.60795 2.50337 0
M  V30 3277 O 311.173 -2.1458 3.81952 0
M  V30 3278 C 312.674 -3.53723 2.67198 0
M  V30 3279 H 309.894 -0.428593 0.516284 0
M  V30 3280 H 312.438 -0.748753 1.903 0
M  V30 3281 H 310.593 -3.21919 2.15515 0
M  V30 3282 H 311.007 -2.93055 4.34993 0
M  V30 3283 H 312.481 -4.35079 3.39721 0
M  V30 3284 H 312.958 -4.0368 1.73029 0
M  V30 3285 H 313.564 -2.98456 3.02992 0
M  V30 3286 N 311.879 -1.3236 -0.855495 0
M  V30 3287 C 313.128 -1.22226 -1.60448 0
M  V30 3288 C 313.441 0.214733 -1.94418 0
M  V30 3289 O 314.647 0.437917 -2.67945 0
M  V30 3290 C 313.103 -2.14063 -2.89318 0
M  V30 3291 C 312.711 -3.62839 -2.62777 0
M  V30 3292 C 314.455 -2.12764 -3.67331 0
M  V30 3293 C 312.362 -4.4664 -3.87643 0
M  V30 3294 H 311.292 -0.453904 -0.602069 0
M  V30 3295 H 313.943 -1.57314 -0.944698 0
M  V30 3296 H 312.325 -1.71889 -3.5675 0
M  V30 3297 H 313.499 -4.1335 -2.03662 0
M  V30 3298 H 311.814 -3.66261 -1.98096 0
M  V30 3299 H 314.411 -2.72611 -4.59987 0
M  V30 3300 H 314.754 -1.11841 -4.00995 0
M  V30 3301 H 315.287 -2.53214 -3.06802 0
M  V30 3302 H 312.026 -5.48373 -3.5912 0
M  V30 3303 H 311.546 -4.0088 -4.46156 0
M  V30 3304 H 313.225 -4.59597 -4.55389 0
M  V30 3305 N 313.357 1.07166 -1.15556 0
M  V30 3306 C 314.32 2.12589 -0.856644 0
M  V30 3307 C 315.32 1.6015 0.14444 0
M  V30 3308 O 316.51 1.7399 -0.0854163 0
M  V30 3309 C 313.642 3.39753 -0.279405 0
M  V30 3310 H 314.835 2.40539 -1.79112 0
M  V30 3311 H 312.388 1.23086 -0.963298 0
M  V30 3312 H 313.123 3.17447 0.663174 0
M  V30 3313 H 312.908 3.79117 -1.00063 0
M  V30 3314 H 314.398 4.17507 -0.0879113 0
M  V30 3315 N 314.835 0.952656 1.25548 0
M  V30 3316 C 315.798 0.475794 2.24207 0
M  V30 3317 C 316.798 -0.419428 1.55234 0
M  V30 3318 O 317.988 -0.216994 1.72843 0
M  V30 3319 C 315.12 -0.312814 3.39462 0
M  V30 3320 H 316.313 1.34779 2.67908 0
M  V30 3321 H 313.866 0.735739 1.37901 0
M  V30 3322 H 314.601 -1.20257 3.01179 0
M  V30 3323 H 314.386 0.329404 3.90714 0
M  V30 3324 H 315.876 -0.635986 4.12729 0
M  V30 3325 N 316.313 -1.40141 0.720998 0
M  V30 3326 C 317.59 -1.94677 0.189757 0
M  V30 3327 C 317.97 -1.65879 -1.30566 0
M  V30 3328 O 317.318 -0.979391 -2.06447 0
M  V30 3329 C 317.528 -3.45279 0.508304 0
M  V30 3330 C 318.876 -4.22209 0.449934 0
M  V30 3331 O 319.9 -3.53413 0.444677 0
M  V30 3332 O 318.759 -5.44788 0.432189 0
M  V30 3333 H 315.853 -0.826459 0.0299026 0
M  V30 3334 H 318.399 -1.49719 0.7989 0
M  V30 3335 H 317.171 -3.59619 1.54239 0
M  V30 3336 H 316.794 -3.97386 -0.130525 0
M  V30 3337 N 317.792 -0.46758 -1.50504 0
M  V30 3338 C 319.069 0.15003 -1.95024 0
M  V30 3339 C 319.449 1.57304 -1.40779 0
M  V30 3340 O 318.797 2.20281 -0.607319 0
M  V30 3341 C 319.007 0.0969324 -3.48865 0
M  V30 3342 C 320.355 0.287565 -4.23625 0
M  V30 3343 O 321.379 0.173678 -3.55776 0
M  V30 3344 O 320.238 0.517186 -5.44047 0
M  V30 3345 H 317.332 0.113582 -0.819163 0
M  V30 3346 H 319.878 -0.52773 -1.61286 0
M  V30 3347 H 318.65 -0.896732 -3.80886 0
M  V30 3348 H 318.273 0.816303 -3.8913 0
M  V30 3349 N 319.27 1.56325 -0.20005 0
M  V30 3350 C 320.547 1.89484 0.48529 0
M  V30 3351 C 320.927 1.1143 1.79294 0
M  V30 3352 O 320.275 0.216919 2.27468 0
M  V30 3353 C 320.485 3.41923 0.699243 0
M  V30 3354 C 321.833 4.12256 1.01638 0
M  V30 3355 O 322.857 3.47402 0.786792 0
M  V30 3356 O 321.716 5.26887 1.45095 0
M  V30 3357 H 318.81 0.787144 0.253639 0
M  V30 3358 H 321.356 1.67985 -0.240633 0
M  V30 3359 H 320.128 3.90658 -0.224008 0
M  V30 3360 H 319.751 3.69131 1.47744 0
M  V30 3361 N 320.748 -0.0735177 1.57428 0
M  V30 3362 C 321.978 -0.78483 1.91112 0
M  V30 3363 C 322.386 -1.71729 0.7941 0
M  V30 3364 O 321.729 -1.82105 -0.241542 0
M  V30 3365 C 321.791 -1.63346 3.20247 0
M  V30 3366 C 321.455 -0.870557 4.48632 0
M  V30 3367 C 322.452 -0.19058 5.19551 0
M  V30 3368 C 320.137 -0.838242 4.95256 0
M  V30 3369 C 322.131 0.511503 6.35344 0
M  V30 3370 C 319.818 -0.132386 6.10957 0
M  V30 3371 C 320.816 0.541288 6.80852 0
M  V30 3372 O 320.504 1.23578 7.94345 0
M  V30 3373 H 320.236 -0.228408 0.636244 0
M  V30 3374 H 322.79 -0.0486039 2.05342 0
M  V30 3375 H 321.02 -2.41245 3.02222 0
M  V30 3376 H 322.709 -2.22329 3.39595 0
M  V30 3377 H 323.475 -0.206864 4.84559 0
M  V30 3378 H 319.354 -1.35206 4.40727 0
M  V30 3379 H 322.898 1.03789 6.89836 0
M  V30 3380 H 318.795 -0.114023 6.45399 0
M  V30 3381 H 319.563 1.14487 8.10454 0
M  V30 3382 N 322.226 -1.5378 -0.344866 0
M  V30 3383 C 323.474 -1.70625 -1.08311 0
M  V30 3384 C 323.795 -0.471447 -1.89215 0
M  V30 3385 O 323.065 0.514616 -1.8902 0
M  V30 3386 H 321.645 -0.629058 -0.402859 0
M  V30 3387 H 324.307 -1.9103 -0.386459 0
M  V30 3388 H 323.403 -2.57656 -1.76124 0
M  V30 3389 N 323.704 0.605807 -1.45491 0
M  V30 3390 C 325.12 0.926751 -1.29936 0
M  V30 3391 C 325.32 1.99896 -0.253706 0
M  V30 3392 O 324.376 2.50038 0.351737 0
M  V30 3393 C 325.689 1.36599 -2.67883 0
M  V30 3394 C 327.237 1.4801 -2.75793 0
M  V30 3395 C 327.712 1.95309 -4.14268 0
M  V30 3396 N 329.203 2.0254 -4.16571 0
M  V30 3397 C 329.938 2.40363 -5.20589 0
M  V30 3398 N 329.434 2.77143 -6.34952 0
M  V30 3399 N 331.227 2.40718 -5.07948 0
M  V30 3400 H 323.378 -0.102862 -2.12151 0
M  V30 3401 H 325.641 0.016639 -0.947854 0
M  V30 3402 H 325.347 0.652306 -3.45598 0
M  V30 3403 H 325.221 2.33215 -2.96463 0
M  V30 3404 H 327.608 2.1847 -1.98381 0
M  V30 3405 H 327.689 0.497041 -2.50925 0
M  V30 3406 H 327.333 1.25436 -4.92167 0
M  V30 3407 H 327.263 2.94532 -4.3653 0
M  V30 3408 H 329.754 1.76699 -3.34045 0
M  V30 3409 H 330.067 3.0489 -7.10114 0
M  V30 3410 H 328.412 2.74834 -6.3835 0
M  V30 3411 H 331.603 2.11392 -4.1765 0
M  V30 3412 H 331.776 2.69869 -5.89131 0
M  V30 3413 N 325.182 1.32811 0.848464 0
M  V30 3414 C 326.593 1.21315 1.41914 0
M  V30 3415 C 326.944 -0.171847 1.95446 0
M  V30 3416 O 326.069 -1.07093 1.88043 0
M  V30 3417 C 326.664 2.19631 2.57968 0
M  V30 3418 C 325.223 2.12003 3.11017 0
M  V30 3419 C 324.37 2.07651 1.83783 0
M  V30 3420 H 327.321 1.44549 0.655071 0
M  V30 3421 H 327.342 1.79845 3.35315 0
M  V30 3422 H 326.854 3.20423 2.18976 0
M  V30 3423 H 324.955 1.14481 3.54577 0
M  V30 3424 H 325.068 3.02111 3.71841 0
M  V30 3425 H 323.432 1.52983 2.03638 0
M  V30 3426 H 324.215 3.10235 1.47 0
M  V30 3427 N 326.66 -1.06551 1.16123 0
M  V30 3428 C 327.908 -1.78947 0.939267 0
M  V30 3429 C 328.229 -1.87532 -0.534476 0
M  V30 3430 O 327.499 -1.38211 -1.38833 0
M  V30 3431 H 326.079 -0.662807 0.344523 0
M  V30 3432 H 328.741 -1.28725 1.46342 0
M  V30 3433 H 327.837 -2.81117 1.35572 0
M  V30 3434 N 328.138 -0.959301 -1.25041 0
M  V30 3435 C 329.387 -0.612254 -1.92183 0
M  V30 3436 C 329.7 0.855347 -1.75907 0
M  V30 3437 O 330.906 1.31256 -2.37664 0
M  V30 3438 C 329.362 -1.04435 -3.44414 0
M  V30 3439 C 328.97 -2.53482 -3.69393 0
M  V30 3440 C 330.714 -0.770055 -4.17457 0
M  V30 3441 C 328.621 -2.90468 -5.15153 0
M  V30 3442 H 327.551 -0.225279 -0.719559 0
M  V30 3443 H 330.202 -1.16438 -1.41825 0
M  V30 3444 H 328.584 -0.4206 -3.9376 0
M  V30 3445 H 329.758 -3.20916 -3.30681 0
M  V30 3446 H 328.073 -2.78432 -3.0962 0
M  V30 3447 H 330.67 -1.02249 -5.24832 0
M  V30 3448 H 331.013 0.293611 -4.15263 0
M  V30 3449 H 331.546 -1.35437 -3.74034 0
M  V30 3450 H 328.285 -3.95871 -5.22462 0
M  V30 3451 H 327.805 -2.27711 -5.54894 0
M  V30 3452 H 329.484 -2.79914 -5.83315 0
M  V30 3453 N 329.616 1.39756 -0.72842 0
M  V30 3454 C 330.526 2.34444 -0.0855374 0
M  V30 3455 C 331.542 1.57976 0.729356 0
M  V30 3456 O 332.718 1.90301 0.659346 0
M  V30 3457 C 329.783 3.36965 0.815798 0
M  V30 3458 C 328.844 4.29299 -0.0105996 0
M  V30 3459 C 328.077 5.26923 0.84781 0
M  V30 3460 O 328.3 5.30859 2.08673 0
M  V30 3461 O 327.234 6.01249 0.279969 0
M  V30 3462 H 331.06 2.91065 -0.866892 0
M  V30 3463 H 328.645 1.4117 -0.48902 0
M  V30 3464 H 330.527 3.99804 1.33171 0
M  V30 3465 H 329.202 2.82739 1.57608 0
M  V30 3466 H 328.109 3.69703 -0.571877 0
M  V30 3467 H 329.442 4.86712 -0.73295 0
M  V30 3468 N 331.094 0.475555 1.50254 0
M  V30 3469 C 332.041 -0.316293 2.28622 0
M  V30 3470 C 333.011 -0.983227 1.33873 0
M  V30 3471 O 334.196 -0.994805 1.62814 0
M  V30 3472 C 331.336 -1.38975 3.1588 0
M  V30 3473 C 330.449 -0.737146 4.25664 0
M  V30 3474 C 329.584 -1.78887 5.00173 0
M  V30 3475 C 328.623 -1.11676 6.01826 0
M  V30 3476 N 327.76 -2.11154 6.69596 0
M  V30 3477 H 332.6 0.358297 2.95838 0
M  V30 3478 H 330.137 0.188541 1.45887 0
M  V30 3479 H 332.095 -2.02383 3.64825 0
M  V30 3480 H 330.725 -2.03344 2.50701 0
M  V30 3481 H 329.777 0.0096065 3.80399 0
M  V30 3482 H 331.089 -0.206816 4.98371 0
M  V30 3483 H 330.243 -2.49865 5.52859 0
M  V30 3484 H 328.982 -2.35302 4.27182 0
M  V30 3485 H 327.987 -0.392633 5.48396 0
M  V30 3486 H 329.212 -0.55945 6.76792 0
M  V30 3487 H 327.158 -2.66577 5.99394 0
M  V30 3488 H 327.075 -1.63118 7.38193 0
M  V30 3489 H 328.343 -2.81497 7.26897 0
M  V30 3490 N 332.573 -1.56217 0.208337 0
M  V30 3491 C 333.82 -1.97949 -0.42692 0
M  V30 3492 C 334.148 -1.09562 -1.60706 0
M  V30 3493 O 333.403 -0.137616 -1.95216 0
M  V30 3494 C 333.702 -3.45441 -0.916797 0
M  V30 3495 C 333.368 -4.50646 0.151391 0
M  V30 3496 C 332.03 -4.79139 0.444867 0
M  V30 3497 C 334.382 -5.13811 0.874492 0
M  V30 3498 C 331.71 -5.68084 1.46619 0
M  V30 3499 C 334.062 -6.03861 1.88506 0
M  V30 3500 C 332.726 -6.30704 2.18559 0
M  V30 3501 H 331.996 -0.724345 -0.156221 0
M  V30 3502 H 334.643 -1.89006 0.308084 0
M  V30 3503 H 332.948 -3.51521 -1.73032 0
M  V30 3504 H 334.645 -3.75094 -1.41794 0
M  V30 3505 H 331.235 -4.28511 -0.0875068 0
M  V30 3506 H 335.419 -4.91879 0.660996 0
M  V30 3507 H 330.675 -5.87151 1.7048 0
M  V30 3508 H 334.849 -6.51861 2.45051 0
M  V30 3509 H 332.476 -6.99424 2.97843 0
M  V30 3510 N 334.051 0.0651679 -1.57465 0
M  V30 3511 C 335.467 0.420105 -1.53972 0
M  V30 3512 C 335.667 1.78782 -0.929474 0
M  V30 3513 O 334.723 2.46771 -0.534839 0
M  V30 3514 C 336.036 0.355084 -2.98596 0
M  V30 3515 C 337.584 0.434792 -3.09965 0
M  V30 3516 C 338.059 0.399609 -4.56253 0
M  V30 3517 N 339.55 0.459488 -4.60915 0
M  V30 3518 C 340.285 0.454584 -5.71595 0
M  V30 3519 N 339.781 0.404102 -6.9162 0
M  V30 3520 N 341.574 0.501635 -5.59857 0
M  V30 3521 H 333.725 -0.830328 -1.95498 0
M  V30 3522 H 335.988 -0.312244 -0.895102 0
M  V30 3523 H 335.694 -0.583357 -3.46828 0
M  V30 3524 H 335.568 1.16275 -3.58831 0
M  V30 3525 H 337.955 1.36366 -2.61703 0
M  V30 3526 H 338.036 -0.40157 -2.52628 0
M  V30 3527 H 337.68 -0.525436 -5.05175 0
M  V30 3528 H 337.61 1.25359 -5.11461 0
M  V30 3529 H 340.101 0.502482 -3.74544 0
M  V30 3530 H 340.414 0.404468 -7.71741 0
M  V30 3531 H 338.759 0.37069 -6.94011 0
M  V30 3532 H 341.95 0.538812 -4.64989 0
M  V30 3533 H 342.123 0.494345 -6.46112 0
M  V30 3534 N 335.529 1.53961 0.336706 0
M  V30 3535 C 336.439 1.85432 1.43708 0
M  V30 3536 C 337.455 0.745053 1.57242 0
M  V30 3537 O 338.631 1.03804 1.72588 0
M  V30 3538 C 335.696 2.06349 2.78605 0
M  V30 3539 C 334.757 3.30191 2.74358 0
M  V30 3540 C 333.99 3.50101 4.02822 0
M  V30 3541 O 334.213 2.7371 5.00439 0
M  V30 3542 O 333.147 4.43547 4.06878 0
M  V30 3543 H 336.973 2.78975 1.20028 0
M  V30 3544 H 334.558 1.39701 0.52952 0
M  V30 3545 H 336.44 2.21513 3.58483 0
M  V30 3546 H 335.115 1.15995 3.02203 0
M  V30 3547 H 334.022 3.20425 1.93078 0
M  V30 3548 H 335.355 4.2056 2.55715 0
M  V30 3549 N 337.007 -0.598083 1.45811 0
M  V30 3550 C 337.917 -1.73632 1.57763 0
M  V30 3551 C 338.933 -1.67763 0.461676 0
M  V30 3552 O 340.109 -1.87949 0.723685 0
M  V30 3553 C 337.174 -3.10114 1.55018 0
M  V30 3554 C 336.235 -3.27364 2.77726 0
M  V30 3555 C 335.468 -4.57334 2.75102 0
M  V30 3556 O 335.691 -5.40258 1.8297 0
M  V30 3557 O 334.625 -4.77502 3.66437 0
M  V30 3558 H 338.451 -1.66498 2.53992 0
M  V30 3559 H 336.036 -0.763308 1.28429 0
M  V30 3560 H 337.918 -3.9141 1.56129 0
M  V30 3561 H 336.593 -3.17718 0.619431 0
M  V30 3562 H 335.5 -2.45619 2.82174 0
M  V30 3563 H 336.833 -3.24641 3.69958 0
M  V30 3564 N 338.485 -1.33259 -0.841409 0
M  V30 3565 C 339.448 -1.23221 -1.9326 0
M  V30 3566 C 340.448 -0.151895 -1.60081 0
M  V30 3567 O 341.638 -0.403246 -1.69468 0
M  V30 3568 C 338.77 -0.898123 -3.28856 0
M  V30 3569 H 339.963 -2.2021 -2.03587 0
M  V30 3570 H 337.516 -1.17281 -1.03319 0
M  V30 3571 H 338.251 0.0693841 -3.24226 0
M  V30 3572 H 338.036 -1.67934 -3.54317 0
M  V30 3573 H 339.526 -0.852563 -4.08805 0
M  V30 3574 N 339.963 1.05934 -1.16686 0
M  V30 3575 C 340.873 2.17014 -0.891183 0
M  V30 3576 C 341.889 1.73453 0.137907 0
M  V30 3577 O 343.065 2.01361 -0.039592 0
M  V30 3578 C 340.13 3.44384 -0.400099 0
M  V30 3579 C 339.191 4.02433 -1.49486 0
M  V30 3580 C 338.424 5.23723 -1.02711 0
M  V30 3581 O 338.647 5.7027 0.121716 0
M  V30 3582 O 337.581 5.7382 -1.81699 0
M  V30 3583 H 341.407 2.43113 -1.82015 0
M  V30 3584 H 338.992 1.15541 -0.947132 0
M  V30 3585 H 340.874 4.21189 -0.133392 0
M  V30 3586 H 339.549 3.19802 0.500817 0
M  V30 3587 H 338.456 3.27102 -1.81535 0
M  V30 3588 H 339.789 4.31317 -2.37121 0
M  V30 3589 N 341.441 0.965919 1.2453 0
M  V30 3590 C 342.351 0.502154 2.29163 0
M  V30 3591 C 343.367 -0.436017 1.68448 0
M  V30 3592 O 344.543 -0.309497 1.99008 0
M  V30 3593 C 341.608 -0.201956 3.46111 0
M  V30 3594 C 340.669 0.775821 4.22232 0
M  V30 3595 C 339.902 0.105217 5.33596 0
M  V30 3596 O 340.125 -1.10683 5.59558 0
M  V30 3597 O 339.059 0.796475 5.96607 0
M  V30 3598 H 342.885 1.37194 2.70946 0
M  V30 3599 H 340.47 0.732875 1.30189 0
M  V30 3600 H 342.352 -0.597564 4.17142 0
M  V30 3601 H 341.027 -1.04673 3.06309 0
M  V30 3602 H 339.934 1.22185 3.53584 0
M  V30 3603 H 341.267 1.58896 4.65846 0
M  V30 3604 N 342.919 -1.39368 0.735821 0
M  V30 3605 C 344.335 -1.54204 0.411492 0
M  V30 3606 C 344.535 -1.70268 -1.07755 0
M  V30 3607 O 343.591 -1.70364 -1.86366 0
M  V30 3608 C 344.904 -2.75925 1.19523 0
M  V30 3609 C 346.452 -2.89761 1.18354 0
M  V30 3610 C 346.927 -4.14421 1.94986 0
M  V30 3611 N 348.418 -4.21462 1.92156 0
M  V30 3612 C 349.153 -5.16871 2.48258 0
M  V30 3613 N 348.649 -6.18063 3.13001 0
M  V30 3614 N 350.442 -5.09093 2.38287 0
M  V30 3615 H 342.593 -1.27189 1.70108 0
M  V30 3616 H 344.856 -0.616517 0.720147 0
M  V30 3617 H 344.562 -2.70401 2.24892 0
M  V30 3618 H 344.436 -3.68614 0.800222 0
M  V30 3619 H 346.823 -2.94777 0.137975 0
M  V30 3620 H 346.904 -1.98133 1.61793 0
M  V30 3621 H 346.548 -4.10166 2.99543 0
M  V30 3622 H 346.478 -5.05095 1.48953 0
M  V30 3623 H 348.969 -3.48979 1.44991 0
M  V30 3624 H 349.282 -6.87326 3.53275 0
M  V30 3625 H 347.627 -6.18448 3.17091 0
M  V30 3626 H 350.818 -4.28973 1.8735 0
M  V30 3627 H 350.991 -5.83272 2.82308 0
M  V30 3628 N 344.397 -0.483516 -1.5 0
M  V30 3629 C 345.674 0.129337 -1.95172 0
M  V30 3630 C 346.054 1.55802 -1.4244 0
M  V30 3631 O 345.402 2.19625 -0.630649 0
M  V30 3632 C 345.612 0.0599251 -3.48949 0
M  V30 3633 C 346.96 0.242617 -4.23906 0
M  V30 3634 O 347.984 0.135933 -3.55941 0
M  V30 3635 O 346.843 0.459454 -5.44565 0
M  V30 3636 H 343.937 0.104887 -0.820322 0
M  V30 3637 H 346.483 -0.544807 -1.60717 0
M  V30 3638 H 345.255 -0.937079 -3.79914 0
M  V30 3639 H 344.878 0.774984 -3.89974 0
M  V30 3640 N 345.875 1.56104 -0.216619 0
M  V30 3641 C 347.124 1.97348 0.416744 0
M  V30 3642 C 347.437 1.10715 1.6125 0
M  V30 3643 O 348.643 1.41836 2.31506 0
M  V30 3644 C 347.099 3.51059 0.792835 0
M  V30 3645 C 346.707 4.46387 -0.379828 0
M  V30 3646 C 348.451 4.01026 1.39208 0
M  V30 3647 C 346.358 5.91397 0.0184223 0
M  V30 3648 H 345.288 0.736942 0.159475 0
M  V30 3649 H 347.939 1.80827 -0.31205 0
M  V30 3650 H 346.321 3.63162 1.57891 0
M  V30 3651 H 347.495 4.46029 -1.15737 0
M  V30 3652 H 345.81 4.06734 -0.891979 0
M  V30 3653 H 348.407 5.0686 1.70286 0
M  V30 3654 H 348.75 3.46587 2.30614 0
M  V30 3655 H 349.283 3.92125 0.669537 0
M  V30 3656 H 346.022 6.49807 -0.862002 0
M  V30 3657 H 345.542 5.94961 0.760384 0
M  V30 3658 H 347.221 6.45455 0.446818 0
M  V30 3659 N 347.353 -0.0568162 1.57498 0
M  V30 3660 C 348.593 -0.758273 1.89815 0
M  V30 3661 C 348.957 -1.73978 0.812132 0
M  V30 3662 O 350.158 -2.48744 1.01881 0
M  V30 3663 C 348.429 -1.43465 3.27342 0
M  V30 3664 S 349.988 -2.1691 3.81439 0
M  V30 3665 H 346.806 -0.251836 0.664906 0
M  V30 3666 H 349.408 -0.0137997 1.95495 0
M  V30 3667 H 348.112 -0.706693 4.0427 0
M  V30 3668 H 347.643 -2.21825 3.24896 0
M  V30 3669 H 349.658 -3.43658 3.5793 0
M  V30 3670 N 348.832 -1.54138 -0.328536 0
M  V30 3671 C 350.081 -1.71318 -1.06456 0
M  V30 3672 C 350.394 -0.491109 -1.89334 0
M  V30 3673 O 351.6 -0.54416 -2.65991 0
M  V30 3674 C 350.056 -3.03 -1.94214 0
M  V30 3675 C 349.664 -4.32595 -1.16471 0
M  V30 3676 C 351.408 -3.29544 -2.67583 0
M  V30 3677 C 349.315 -5.55341 -2.03347 0
M  V30 3678 H 348.245 -0.638429 -0.401155 0
M  V30 3679 H 350.896 -1.80633 -0.323106 0
M  V30 3680 H 349.278 -2.87579 -2.72239 0
M  V30 3681 H 350.452 -4.58766 -0.432525 0
M  V30 3682 H 348.767 -4.12777 -0.548063 0
M  V30 3683 H 351.364 -4.18444 -3.3288 0
M  V30 3684 H 351.707 -2.47206 -3.34955 0
M  V30 3685 H 352.24 -3.45809 -1.96623 0
M  V30 3686 H 348.979 -6.40268 -1.40491 0
M  V30 3687 H 348.499 -5.33397 -2.74313 0
M  V30 3688 H 350.178 -5.91557 -2.62049 0
M  V30 3689 N 350.31 0.590341 -1.46126 0
M  V30 3690 C 351.587 1.35029 -1.41515 0
M  V30 3691 C 351.967 2.10888 -0.0946472 0
M  V30 3692 O 351.315 2.08998 0.923693 0
M  V30 3693 C 351.525 2.28269 -2.63997 0
M  V30 3694 C 352.873 2.90338 -3.09821 0
M  V30 3695 O 353.897 2.38585 -2.64492 0
M  V30 3696 O 352.756 3.84321 -3.88535 0
M  V30 3697 H 349.85 0.606317 -0.562413 0
M  V30 3698 H 352.396 0.611994 -1.58281 0
M  V30 3699 H 351.168 1.71591 -3.51671 0
M  V30 3700 H 350.791 3.0945 -2.49652 0
M  V30 3701 N 351.788 1.33704 0.83433 0
M  V30 3702 C 353.035 1.25417 1.58987 0
M  V30 3703 C 353.363 -0.178869 1.93676 0
M  V30 3704 O 352.618 -1.13723 1.59265 0
M  V30 3705 C 352.917 2.07926 2.90692 0
M  V30 3706 C 352.583 3.57066 2.75345 0
M  V30 3707 C 351.245 3.97724 2.70867 0
M  V30 3708 C 353.597 4.51817 2.59828 0
M  V30 3709 C 350.925 5.31344 2.48778 0
M  V30 3710 C 353.277 5.85604 2.39272 0
M  V30 3711 C 351.941 6.25439 2.33199 0
M  V30 3712 H 351.211 0.458934 0.581774 0
M  V30 3713 H 353.858 1.65335 0.966261 0
M  V30 3714 H 352.163 1.608 3.57282 0
M  V30 3715 H 353.86 1.98868 3.48213 0
M  V30 3716 H 350.45 3.24785 2.79665 0
M  V30 3717 H 354.634 4.21311 2.62319 0
M  V30 3718 H 349.89 5.61241 2.42526 0
M  V30 3719 H 354.064 6.58623 2.2625 0
M  V30 3720 H 351.691 7.28914 2.15843 0
M  V30 3721 N 353.266 -1.05314 1.17247 0
M  V30 3722 C 354.491 -1.82509 0.985148 0
M  V30 3723 C 354.916 -1.82343 -0.461788 0
M  V30 3724 O 354.274 -1.23151 -1.33055 0
M  V30 3725 C 354.322 -3.26566 1.52929 0
M  V30 3726 O 353.426 -4.05666 0.742225 0
M  V30 3727 H 352.767 -0.564347 0.349869 0
M  V30 3728 H 355.297 -1.32718 1.55715 0
M  V30 3729 H 355.307 -3.77369 1.55103 0
M  V30 3730 H 353.982 -3.26001 2.58256 0
M  V30 3731 H 352.559 -3.64397 0.791794 0
M  V30 3732 N 354.744 -0.972509 -1.24016 0
M  V30 3733 C 355.654 -0.5143 -2.28893 0
M  V30 3734 C 356.67 0.427078 -1.68677 0
M  V30 3735 O 357.846 0.298939 -1.99169 0
M  V30 3736 C 354.911 0.183598 -3.46214 0
M  V30 3737 C 353.972 -0.798202 -4.21814 0
M  V30 3738 C 353.205 -0.133514 -5.33533 0
M  V30 3739 O 353.428 1.07714 -5.60137 0
M  V30 3740 O 352.362 -0.828103 -5.96176 0
M  V30 3741 H 356.188 -1.38629 -2.70214 0
M  V30 3742 H 353.773 -0.739769 -1.29799 0
M  V30 3743 H 355.655 0.575433 -4.17453 0
M  V30 3744 H 354.33 1.03048 -3.0686 0
M  V30 3745 H 353.237 -1.24059 -3.52931 0
M  V30 3746 H 354.57 -1.61364 -4.64997 0
M  V30 3747 N 356.222 1.38976 -0.743202 0
M  V30 3748 C 357.152 2.33171 -0.123873 0
M  V30 3749 C 358.133 1.54336 0.71516 0
M  V30 3750 O 359.318 1.82696 0.658467 0
M  V30 3751 C 356.448 3.38474 0.777978 0
M  V30 3752 C 355.402 4.27979 0.0424758 0
M  V30 3753 C 354.728 5.2405 1.06189 0
M  V30 3754 C 356.028 5.10155 -1.1198 0
M  V30 3755 H 357.722 2.85213 -0.910709 0
M  V30 3756 H 355.268 1.37133 -0.439388 0
M  V30 3757 H 357.221 4.03328 1.22084 0
M  V30 3758 H 355.945 2.84891 1.59702 0
M  V30 3759 H 354.604 3.64616 -0.380853 0
M  V30 3760 H 354.252 4.66758 1.87472 0
M  V30 3761 H 353.952 5.84785 0.574485 0
M  V30 3762 H 355.476 5.9178 1.50428 0
M  V30 3763 H 356.89 5.68307 -0.75499 0
M  V30 3764 H 355.287 5.80073 -1.53738 0
M  V30 3765 H 356.357 4.44504 -1.93764 0
M  V30 3766 N 357.7 0.491464 1.49741 0
M  V30 3767 C 358.949 -0.0582189 2.01616 0
M  V30 3768 C 359.262 -1.38927 1.3769 0
M  V30 3769 O 360.468 -2.02509 1.80838 0
M  V30 3770 C 358.924 -0.154235 3.59569 0
M  V30 3771 C 358.532 1.1696 4.32463 0
M  V30 3772 C 360.276 -0.65479 4.1942 0
M  V30 3773 C 358.183 1.03627 5.8225 0
M  V30 3774 H 357.113 -0.0255317 0.753568 0
M  V30 3775 H 359.764 0.629445 1.72367 0
M  V30 3776 H 358.146 -0.906138 3.85493 0
M  V30 3777 H 359.32 1.93405 4.18248 0
M  V30 3778 H 357.635 1.60285 3.84315 0
M  V30 3779 H 360.232 -0.771903 5.29099 0
M  V30 3780 H 360.575 -1.65127 3.8215 0
M  V30 3781 H 361.108 0.040304 3.9778 0
M  V30 3782 H 357.847 2.00672 6.24028 0
M  V30 3783 H 357.367 0.312546 5.98985 0
M  V30 3784 H 359.046 0.711114 6.4308 0
M  V30 3785 N 359.178 -1.55987 0.224894 0
M  V30 3786 C 360.403 -2.03232 -0.41369 0
M  V30 3787 C 360.828 -1.10359 -1.52323 0
M  V30 3788 O 360.186 -0.092395 -1.81064 0
M  V30 3789 C 360.234 -3.48682 -0.919405 0
M  V30 3790 O 359.338 -3.58947 -2.03054 0
M  V30 3791 H 358.679 -0.657428 -0.0931903 0
M  V30 3792 H 361.209 -2.01679 0.34451 0
M  V30 3793 H 361.219 -3.8907 -1.22835 0
M  V30 3794 H 359.894 -4.15761 -0.107339 0
M  V30 3795 H 358.471 -3.30448 -1.72796 0
M  V30 3796 N 360.656 0.0484629 -1.57525 0
M  V30 3797 C 361.588 1.08222 -2.02041 0
M  V30 3798 C 362.601 1.33621 -0.930012 0
M  V30 3799 O 363.79 1.3145 -1.20761 0
M  V30 3800 C 360.89 2.42818 -2.36416 0
M  V30 3801 C 360.063 2.37049 -3.67596 0
M  V30 3802 C 359.122 3.53937 -3.89378 0
M  V30 3803 O 358.148 3.34308 -4.60681 0
M  V30 3804 N 359.35 4.75126 -3.3352 0
M  V30 3805 H 362.115 0.702946 -2.9134 0
M  V30 3806 H 359.676 0.236745 -1.6016 0
M  V30 3807 H 361.668 3.197 -2.48141 0
M  V30 3808 H 360.238 2.72661 -1.52888 0
M  V30 3809 H 359.458 1.45395 -3.66407 0
M  V30 3810 H 360.746 2.30318 -4.53686 0
M  V30 3811 H 360.144 4.93976 -2.75688 0
M  V30 3812 H 358.701 5.49439 -3.50656 0
M  V30 3813 N 362.134 1.5431 0.320358 0
M  V30 3814 C 363.364 1.7638 1.07582 0
M  V30 3815 C 363.772 0.513944 1.82086 0
M  V30 3816 O 363.115 -0.525123 1.76035 0
M  V30 3817 C 363.177 2.9055 2.1171 0
M  V30 3818 C 362.841 4.2934 1.56575 0
M  V30 3819 C 363.838 5.10077 1.00586 0
M  V30 3820 C 361.523 4.75893 1.60722 0
M  V30 3821 C 363.517 6.35477 0.494756 0
M  V30 3822 C 361.204 6.0126 1.09224 0
M  V30 3823 C 362.202 6.80886 0.53696 0
M  V30 3824 O 361.89 8.03894 0.0297371 0
M  V30 3825 H 361.622 0.592369 0.325692 0
M  V30 3826 H 364.176 2.02019 0.37116 0
M  V30 3827 H 362.406 2.60489 2.85801 0
M  V30 3828 H 364.095 3.00373 2.73003 0
M  V30 3829 H 364.861 4.75265 0.966869 0
M  V30 3830 H 360.74 4.13957 2.02882 0
M  V30 3831 H 364.284 6.97574 0.0606842 0
M  V30 3832 H 360.181 6.35562 1.12831 0
M  V30 3833 H 360.949 8.18372 0.14486 0
M  V30 3834 N 363.613 -0.582584 1.46437 0
M  V30 3835 C 364.838 -1.37168 1.55563 0
M  V30 3836 C 365.263 -1.87061 0.19743 0
M  V30 3837 O 364.621 -1.61572 -0.822451 0
M  V30 3838 C 364.669 -2.53511 2.56446 0
M  V30 3839 O 363.773 -3.54953 2.09958 0
M  V30 3840 H 363.114 -0.408494 0.523477 0
M  V30 3841 H 365.644 -0.706646 1.9201 0
M  V30 3842 H 365.654 -3.00426 2.76058 0
M  V30 3843 H 364.329 -2.16549 3.55076 0
M  V30 3844 H 362.906 -3.14516 2.00334 0
M  V30 3845 N 365.091 -1.34144 -0.827227 0
M  V30 3846 C 366.368 -1.16844 -1.56865 0
M  V30 3847 C 366.748 0.260654 -2.09485 0
M  V30 3848 O 366.096 1.26138 -1.9053 0
M  V30 3849 C 366.306 -2.21939 -2.6934 0
M  V30 3850 C 367.654 -2.56695 -3.3822 0
M  V30 3851 O 368.678 -2.20695 -2.79593 0
M  V30 3852 O 367.537 -3.18518 -4.44082 0
M  V30 3853 H 364.631 -0.452669 -0.692112 0
M  V30 3854 H 367.177 -1.45763 -0.868973 0
M  V30 3855 H 365.949 -3.17882 -2.28182 0
M  V30 3856 H 365.572 -1.94172 -3.46962 0
M  V30 3857 N 366.569 1.04691 -1.17803 0
M  V30 3858 C 367.479 2.16057 -0.914151 0
M  V30 3859 C 368.495 1.73589 0.119503 0
M  V30 3860 O 369.671 2.01308 -0.0609468 0
M  V30 3861 C 366.736 3.4394 -0.436603 0
M  V30 3862 C 365.797 4.00825 -1.53746 0
M  V30 3863 C 365.03 5.22604 -1.0826 0
M  V30 3864 O 365.253 5.70367 0.0612244 0
M  V30 3865 O 364.187 5.7186 -1.87775 0
M  V30 3866 H 368.013 2.41169 -1.84584 0
M  V30 3867 H 365.598 1.1453 -0.959334 0
M  V30 3868 H 367.48 4.21024 -0.178057 0
M  V30 3869 H 366.155 3.20316 0.466869 0
M  V30 3870 H 365.062 3.25158 -1.84995 0
M  V30 3871 H 366.395 4.28778 -2.41683 0
M  V30 3872 N 368.047 0.979072 1.23499 0
M  V30 3873 C 368.957 0.526431 2.28617 0
M  V30 3874 C 369.973 -0.418126 1.68901 0
M  V30 3875 O 371.149 -0.288372 1.99325 0
M  V30 3876 C 368.214 -0.165235 3.46306 0
M  V30 3877 C 367.275 0.82056 4.21385 0
M  V30 3878 C 366.508 0.161807 5.33455 0
M  V30 3879 O 366.731 -1.04742 5.60701 0
M  V30 3880 O 365.665 0.859708 5.95729 0
M  V30 3881 H 369.491 1.4006 2.69475 0
M  V30 3882 H 367.076 0.746643 1.29405 0
M  V30 3883 H 368.958 -0.553287 4.17752 0
M  V30 3884 H 367.633 -1.01419 3.07402 0
M  V30 3885 H 366.54 1.25929 3.52268 0
M  V30 3886 H 367.873 1.63828 4.64135 0
M  V30 3887 N 369.525 -1.3858 0.750561 0
M  V30 3888 C 370.435 -2.34278 0.122825 0
M  V30 3889 C 371.451 -1.59116 -0.704131 0
M  V30 3890 O 372.627 -1.91326 -0.628987 0
M  V30 3891 C 369.692 -3.38221 -0.762086 0
M  V30 3892 C 368.753 -4.29227 0.078896 0
M  V30 3893 C 367.986 -5.28205 -0.763874 0
M  V30 3894 O 368.209 -5.34112 -2.00201 0
M  V30 3895 O 367.143 -6.01618 -0.18428 0
M  V30 3896 H 370.969 -2.89649 0.913088 0
M  V30 3897 H 368.554 -1.40374 0.511417 0
M  V30 3898 H 370.436 -4.01872 -1.26793 0
M  V30 3899 H 369.111 -2.85211 -1.5309 0
M  V30 3900 H 368.018 -3.68747 0.630621 0
M  V30 3901 H 369.351 -4.85484 0.810289 0
M  V30 3902 N 371.003 -0.499398 -1.49478 0
M  V30 3903 C 372.252 0.0475259 -2.01644 0
M  V30 3904 C 372.565 1.38195 -1.38425 0
M  V30 3905 O 373.771 2.01547 -1.8191 0
M  V30 3906 C 372.227 0.135164 -3.59646 0
M  V30 3907 C 371.835 -1.19252 -4.31837 0
M  V30 3908 C 373.579 0.632538 -4.19761 0
M  V30 3909 C 371.486 -1.06713 -5.81693 0
M  V30 3910 H 370.416 0.0215349 -0.753692 0
M  V30 3911 H 373.067 -0.638577 -1.7203 0
M  V30 3912 H 371.449 0.885681 -3.85969 0
M  V30 3913 H 372.623 -1.9562 -4.17216 0
M  V30 3914 H 370.938 -1.62321 -3.83459 0
M  V30 3915 H 373.535 0.743833 -5.29501 0
M  V30 3916 H 373.878 1.63098 -3.83021 0
M  V30 3917 H 374.411 -0.0613987 -3.97753 0
M  V30 3918 H 371.15 -2.03979 -6.22955 0
M  V30 3919 H 370.67 -0.344307 -5.98811 0
M  V30 3920 H 372.349 -0.745208 -6.42694 0
M  V30 3921 N 372.481 1.55866 -0.233164 0
M  V30 3922 C 373.413 2.18099 0.704668 0
M  V30 3923 C 374.426 1.15334 1.14899 0
M  V30 3924 O 375.615 1.42262 1.07814 0
M  V30 3925 C 372.715 2.7592 1.96777 0
M  V30 3926 C 371.888 4.03969 1.67713 0
M  V30 3927 C 370.947 4.46242 2.78845 0
M  V30 3928 O 369.973 5.12903 2.46818 0
M  V30 3929 N 371.175 4.12886 4.08051 0
M  V30 3930 H 373.94 2.99205 0.172258 0
M  V30 3931 H 371.501 1.61815 -0.0525945 0
M  V30 3932 H 373.493 3.01165 2.70337 0
M  V30 3933 H 372.063 1.99051 2.41034 0
M  V30 3934 H 371.283 3.86459 0.777391 0
M  V30 3935 H 372.571 4.8748 1.4574 0
M  V30 3936 H 371.969 3.59342 4.3691 0
M  V30 3937 H 370.526 4.42997 4.78118 0
M  V30 3938 N 373.959 -0.0401083 1.57549 0
M  V30 3939 C 374.909 -1.05175 2.02292 0
M  V30 3940 C 375.893 -1.32674 0.910294 0
M  V30 3941 O 377.085 -1.32444 1.17421 0
M  V30 3942 C 374.214 -2.35622 2.49674 0
M  V30 3943 C 373.3 -2.11261 3.67736 0
M  V30 3944 N 373.691 -1.56923 4.80842 0
M  V30 3945 C 371.989 -2.41596 3.74897 0
M  V30 3946 C 372.69 -1.48111 5.62528 0
M  V30 3947 N 371.666 -1.95282 5.07312 0
M  V30 3948 H 375.468 -0.625455 2.87168 0
M  V30 3949 H 372.982 -0.246624 1.60516 0
M  V30 3950 H 374.979 -3.08893 2.79983 0
M  V30 3951 H 373.639 -2.7894 1.662 0
M  V30 3952 H 374.65 -1.25345 5.02503 0
M  V30 3953 H 371.327 -2.88064 3.02201 0
M  V30 3954 H 372.717 -1.06683 6.63377 0
M  V30 3955 N 375.437 -1.54477 -0.31217 0
M  V30 3956 C 376.683 -1.73483 -1.0503 0
M  V30 3957 C 377.016 -0.513125 -1.87298 0
M  V30 3958 O 376.291 0.489864 -1.8823 0
M  V30 3959 C 376.574 -3.01723 -1.96558 0
M  V30 3960 C 376.427 -4.3417 -1.17545 0
M  V30 3961 C 377.746 -3.25772 -2.95907 0
M  V30 3962 H 374.865 -0.631222 -0.380432 0
M  V30 3963 H 377.507 -1.87184 -0.325932 0
M  V30 3964 H 375.657 -2.90174 -2.58324 0
M  V30 3965 H 377.329 -4.5762 -0.581513 0
M  V30 3966 H 375.572 -4.31159 -0.477925 0
M  V30 3967 H 376.243 -5.20143 -1.84811 0
M  V30 3968 H 378.719 -3.36857 -2.44267 0
M  V30 3969 H 377.595 -4.16838 -3.57123 0
M  V30 3970 H 377.856 -2.43537 -3.68974 0
M  V30 3971 N 376.915 0.57481 -1.46744 0
M  V30 3972 C 378.161 1.3347 -1.52688 0
M  V30 3973 C 378.494 1.93353 -0.181229 0
M  V30 3974 O 377.769 1.76912 0.808237 0
M  V30 3975 C 378.052 2.45811 -2.63152 0
M  V30 3976 C 377.905 1.90912 -4.07275 0
M  V30 3977 C 379.224 3.47822 -2.69644 0
M  V30 3978 H 376.343 0.483935 -0.555856 0
M  V30 3979 H 378.985 0.644968 -1.78718 0
M  V30 3980 H 377.135 3.04646 -2.41088 0
M  V30 3981 H 378.807 1.36473 -4.4065 0
M  V30 3982 H 377.05 1.21691 -4.16382 0
M  V30 3983 H 377.721 2.72042 -4.80309 0
M  V30 3984 H 380.197 2.9888 -2.895 0
M  V30 3985 H 379.073 4.23876 -3.48742 0
M  V30 3986 H 379.334 4.05555 -1.76005 0
M  V30 3987 N 378.394 1.34581 0.820102 0
M  V30 3988 C 379.304 1.28471 1.96297 0
M  V30 3989 C 380.32 0.191902 1.72939 0
M  V30 3990 O 381.496 0.418879 1.96996 0
M  V30 3991 C 378.561 1.04281 3.30645 0
M  V30 3992 C 377.622 2.22745 3.66992 0
M  V30 3993 C 376.855 1.997 4.9493 0
M  V30 3994 O 377.078 0.956656 5.6232 0
M  V30 3995 O 376.012 2.86723 5.2922 0
M  V30 3996 H 379.838 2.24624 2.04396 0
M  V30 3997 H 377.423 1.14816 0.955913 0
M  V30 3998 H 379.305 0.925841 4.11104 0
M  V30 3999 H 377.98 0.111697 3.23507 0
M  V30 4000 H 376.887 2.40003 2.86966 0
M  V30 4001 H 378.22 3.14257 3.78819 0
M  V30 4002 N 379.872 -1.04064 1.18357 0
M  V30 4003 C 381.118 -1.77528 0.980397 0
M  V30 4004 C 381.451 -1.87948 -0.48879 0
M  V30 4005 O 380.726 -1.3876 -1.36293 0
M  V30 4006 C 381.009 -3.20797 1.63588 0
M  V30 4007 C 380.862 -3.1832 3.17793 0
M  V30 4008 C 382.181 -4.18911 1.34914 0
M  V30 4009 H 379.3 -0.644443 0.357578 0
M  V30 4010 H 381.942 -1.2156 1.46024 0
M  V30 4011 H 380.092 -3.68586 1.22788 0
M  V30 4012 H 381.764 -2.78521 3.67728 0
M  V30 4013 H 380.007 -2.56351 3.49952 0
M  V30 4014 H 380.678 -4.19489 3.58794 0
M  V30 4015 H 383.154 -3.7967 1.70265 0
M  V30 4016 H 382.03 -5.17374 1.83346 0
M  V30 4017 H 382.291 -4.41262 0.272027 0
M  V30 4018 N 381.35 -0.985608 -1.22978 0
M  V30 4019 C 382.599 -0.652881 -1.90841 0
M  V30 4020 C 382.912 0.817842 -1.77681 0
M  V30 4021 O 384.118 1.26185 -2.40395 0
M  V30 4022 C 382.574 -1.11717 -3.42122 0
M  V30 4023 C 382.182 -2.6126 -3.63933 0
M  V30 4024 C 383.926 -0.85843 -4.1573 0
M  V30 4025 C 381.833 -3.0133 -5.08876 0
M  V30 4026 H 380.763 -0.240491 -0.714619 0
M  V30 4027 H 383.414 -1.1942 -1.39324 0
M  V30 4028 H 381.796 -0.504027 -3.92779 0
M  V30 4029 H 382.97 -3.27858 -3.23799 0
M  V30 4030 H 381.285 -2.84937 -3.03644 0
M  V30 4031 H 383.882 -1.13359 -5.22546 0
M  V30 4032 H 384.225 0.205461 -4.15793 0
M  V30 4033 H 384.758 -1.43341 -3.71077 0
M  V30 4034 H 381.497 -4.06864 -5.13947 0
M  V30 4035 H 381.017 -2.3943 -5.49939 0
M  V30 4036 H 382.696 -2.92224 -5.77247 0
M  V30 4037 N 382.828 1.3818 -0.7579 0
M  V30 4038 C 383.76 2.2901 -0.0932177 0
M  V30 4039 C 384.773 1.47958 0.679136 0
M  V30 4040 O 385.962 1.70773 0.519514 0
M  V30 4041 C 383.062 3.26953 0.89192 0
M  V30 4042 C 382.235 4.37045 0.176303 0
M  V30 4043 C 381.294 5.15148 1.07281 0
M  V30 4044 O 380.32 5.66616 0.541728 0
M  V30 4045 N 381.522 5.28542 2.40049 0
M  V30 4046 H 384.287 2.86694 -0.873303 0
M  V30 4047 H 381.848 1.50007 -0.609054 0
M  V30 4048 H 383.84 3.76083 1.49479 0
M  V30 4049 H 382.41 2.70136 1.57306 0
M  V30 4050 H 381.63 3.89493 -0.607328 0
M  V30 4051 H 382.918 5.07801 -0.318718 0
M  V30 4052 H 382.316 4.88285 2.85647 0
M  V30 4053 H 380.873 5.8103 2.95376 0
M  V30 4054 N 384.306 0.507319 1.49211 0
M  V30 4055 C 385.254 -0.281364 2.30892 0
M  V30 4056 C 386.248 -0.95687 1.39787 0
M  V30 4057 O 387.454 -0.883838 1.56807 0
M  V30 4058 H 383.829 -0.109597 0.743971 0
M  V30 4059 H 385.8 0.42744 2.95323 0
M  V30 4060 C 384.549 -1.32918 3.21291 0
M  V30 4061 H 383.872 -0.818799 3.91326 0
M  V30 4062 H 385.312 -1.85288 3.81372 0
M  V30 4063 C 383.771 -2.35074 2.41333 0
M  V30 4064 O 384.301 -3.4108 2.12197 0
M  V30 4065 N 382.507 -2.07705 2.03241 0
M  V30 4066 H 382.054 -1.2152 2.27136 0
M  V30 4067 H 382.012 -2.76283 1.50051 0
M  V30 4068 N 385.784 -1.5574 0.241426 0
M  V30 4069 C 387.009 -2.0366 -0.392111 0
M  V30 4070 C 387.434 -1.11969 -1.51144 0
M  V30 4071 O 386.792 -0.111594 -1.80956 0
M  V30 4072 C 386.84 -3.49638 -0.882371 0
M  V30 4073 O 385.944 -3.6108 -1.99235 0
M  V30 4074 H 385.285 -0.658379 -0.0862122 0
M  V30 4075 H 387.815 -2.01302 0.365881 0
M  V30 4076 H 387.825 -3.90351 -1.18702 0
M  V30 4077 H 386.5 -4.15852 -0.0632361 0
M  V30 4078 H 385.077 -3.32262 -1.69282 0
M  V30 4079 N 387.262 0.0317525 -1.57568 0
M  V30 4080 C 388.49 0.734949 -1.93407 0
M  V30 4081 C 388.905 1.69036 -0.84096 0
M  V30 4082 O 388.262 1.81582 0.182836 0
M  V30 4083 C 388.313 1.49432 -3.29169 0
M  V30 4084 O 388.034 0.577261 -4.3428 0
M  V30 4085 C 389.535 2.29492 -3.79273 0
M  V30 4086 H 386.755 0.206706 -0.638368 0
M  V30 4087 H 389.299 -0.00992046 -2.04498 0
M  V30 4088 H 387.454 2.1911 -3.19483 0
M  V30 4089 H 387.868 1.10952 -5.1263 0
M  V30 4090 H 389.342 2.78172 -4.76785 0
M  V30 4091 H 389.819 3.10794 -3.10328 0
M  V30 4092 H 390.425 1.64894 -3.92033 0
M  V30 4093 N 388.74 1.54641 0.303973 0
M  V30 4094 C 389.703 1.84646 1.35789 0
M  V30 4095 C 390.703 0.7192 1.4382 0
M  V30 4096 O 391.893 0.987491 1.43507 0
M  V30 4097 C 389.025 2.02407 2.74307 0
M  V30 4098 H 390.218 2.78829 1.10429 0
M  V30 4099 H 387.771 1.46658 0.540487 0
M  V30 4100 H 388.506 1.10502 3.04893 0
M  V30 4101 H 388.291 2.84453 2.69868 0
M  V30 4102 H 389.781 2.27002 3.50514 0
M  V30 4103 N 390.218 -0.567019 1.47046 0
M  V30 4104 C 391.165 -1.67489 1.58796 0
M  V30 4105 C 392.135 -1.60399 0.43144 0
M  V30 4106 O 393.32 -1.79378 0.650233 0
M  V30 4107 C 390.46 -3.05821 1.59899 0
M  V30 4108 C 389.573 -3.2342 2.86397 0
M  V30 4109 C 388.708 -4.52093 2.789 0
M  V30 4110 C 387.747 -4.6309 4.00267 0
M  V30 4111 N 386.884 -5.83106 3.91064 0
M  V30 4112 H 391.724 -1.56785 2.53422 0
M  V30 4113 H 389.261 -0.763896 1.2571 0
M  V30 4114 H 391.219 -3.8591 1.58522 0
M  V30 4115 H 389.849 -3.15384 0.687929 0
M  V30 4116 H 388.901 -2.3683 2.97684 0
M  V30 4117 H 390.213 -3.27412 3.76301 0
M  V30 4118 H 389.367 -5.4043 2.75718 0
M  V30 4119 H 388.106 -4.50565 1.86662 0
M  V30 4120 H 387.111 -3.73168 4.03765 0
M  V30 4121 H 388.336 -4.66386 4.93621 0
M  V30 4122 H 386.282 -5.82546 3.01623 0
M  V30 4123 H 386.199 -5.88434 4.74638 0
M  V30 4124 H 387.467 -6.73831 3.91882 0
M  V30 4125 N 391.696 -1.35014 -0.812953 0
M  V30 4126 C 392.942 -1.2812 -1.57204 0
M  V30 4127 C 393.275 0.145869 -1.93651 0
M  V30 4128 O 392.55 1.0937 -1.60836 0
M  V30 4129 C 392.833 -2.18162 -2.86492 0
M  V30 4130 C 392.686 -3.69454 -2.56561 0
M  V30 4131 C 394.005 -2.07439 -3.88145 0
M  V30 4132 H 391.124 -0.466746 -0.570366 0
M  V30 4133 H 393.766 -1.65357 -0.935783 0
M  V30 4134 H 391.916 -1.86535 -3.40789 0
M  V30 4135 H 393.588 -4.11493 -2.08497 0
M  V30 4136 H 391.831 -3.9005 -1.89851 0
M  V30 4137 H 392.502 -4.27835 -3.48799 0
M  V30 4138 H 394.978 -2.35228 -3.4323 0
M  V30 4139 H 393.854 -2.7265 -4.76396 0
M  V30 4140 H 394.115 -1.05439 -4.29343 0
M  V30 4141 N 393.175 1.03435 -1.18907 0
M  V30 4142 C 394.424 1.76143 -0.982669 0
M  V30 4143 C 394.737 1.89416 0.487953 0
M  V30 4144 O 395.943 2.59041 0.813036 0
M  V30 4145 C 394.399 3.16722 -1.70924 0
M  V30 4146 C 394.007 3.11522 -3.21959 0
M  V30 4147 C 395.751 3.93764 -1.58588 0
M  V30 4148 C 393.658 4.46999 -3.87228 0
M  V30 4149 H 392.588 0.660292 -0.364047 0
M  V30 4150 H 395.239 1.158 -1.42347 0
M  V30 4151 H 393.621 3.775 -1.19623 0
M  V30 4152 H 394.795 2.60158 -3.80335 0
M  V30 4153 H 393.11 2.47978 -3.34508 0
M  V30 4154 H 395.707 4.93963 -2.04707 0
M  V30 4155 H 396.05 4.12794 -0.539142 0
M  V30 4156 H 396.583 3.39576 -2.07203 0
M  V30 4157 H 393.322 4.33174 -4.91976 0
M  V30 4158 H 392.842 4.98441 -3.33642 0
M  V30 4159 H 394.521 5.15898 -3.90459 0
M  V30 4160 N 394.653 0.992116 1.22453 0
M  V30 4161 C 395.899 0.668523 1.91464 0
M  V30 4162 C 396.232 -0.797313 1.77078 0
M  V30 4163 O 395.507 -1.5765 1.13916 0
M  V30 4164 C 395.79 1.07424 3.43703 0
M  V30 4165 C 395.643 2.59857 3.67143 0
M  V30 4166 C 396.962 0.626891 4.35612 0
M  V30 4167 H 394.081 0.244341 0.695318 0
M  V30 4168 H 396.723 1.2355 1.44345 0
M  V30 4169 H 394.873 0.591816 3.83966 0
M  V30 4170 H 396.545 3.15764 3.3629 0
M  V30 4171 H 394.788 3.01961 3.11451 0
M  V30 4172 H 395.459 2.83296 4.73759 0
M  V30 4173 H 397.935 1.04125 4.02861 0
M  V30 4174 H 396.811 0.939076 5.40807 0
M  V30 4175 H 397.072 -0.472457 4.39568 0
M  V30 4176 N 396.131 -1.37776 0.765217 0
M  V30 4177 C 397.377 -2.00145 0.327072 0
M  V30 4178 C 397.71 -1.60607 -1.09175 0
M  V30 4179 O 396.985 -0.849127 -1.74986 0
M  V30 4180 C 397.268 -3.57109 0.46319 0
M  V30 4181 C 397.121 -4.06576 1.92395 0
M  V30 4182 C 398.44 -4.39888 -0.136473 0
M  V30 4183 H 395.559 -0.727113 0.120316 0
M  V30 4184 H 398.201 -1.63549 0.967039 0
M  V30 4185 H 396.351 -3.88414 -0.0816358 0
M  V30 4186 H 398.023 -3.85864 2.52798 0
M  V30 4187 H 396.266 -3.59011 2.43503 0
M  V30 4188 H 396.937 -5.15639 1.97028 0
M  V30 4189 H 399.413 -4.14803 0.328317 0
M  V30 4190 H 398.289 -5.48899 -0.0110582 0
M  V30 4191 H 398.55 -4.24758 -1.22608 0
M  V30 4192 N 397.609 -0.515225 -1.4894 0
M  V30 4193 C 398.856 0.024215 -2.02486 0
M  V30 4194 C 399.184 1.35671 -1.39368 0
M  V30 4195 O 398.439 1.88566 -0.523574 0
M  V30 4196 C 398.738 0.210595 -3.56779 0
M  V30 4197 C 398.404 -1.04569 -4.38607 0
M  V30 4198 C 397.066 -1.39002 -4.60686 0
M  V30 4199 C 399.418 -1.88008 -4.86109 0
M  V30 4200 C 396.746 -2.568 -5.27514 0
M  V30 4201 C 399.098 -3.04972 -5.54234 0
M  V30 4202 C 397.762 -3.39768 -5.74555 0
M  V30 4203 H 397.032 0.00886088 -0.740947 0
M  V30 4204 H 399.679 -0.678263 -1.79086 0
M  V30 4205 H 397.984 0.99572 -3.78936 0
M  V30 4206 H 399.681 0.642659 -3.95817 0
M  V30 4207 H 396.271 -0.767497 -4.21672 0
M  V30 4208 H 400.455 -1.62719 -4.68867 0
M  V30 4209 H 395.711 -2.8398 -5.41447 0
M  V30 4210 H 399.885 -3.69943 -5.90013 0
M  V30 4211 H 397.512 -4.31148 -6.26112 0
M  V30 4212 N 399.087 1.5561 -0.249682 0
M  V30 4213 C 400.312 2.03865 0.381305 0
M  V30 4214 C 400.737 1.12769 1.50548 0
M  V30 4215 O 400.095 0.121189 1.80895 0
M  V30 4216 C 400.143 3.50101 0.863816 0
M  V30 4217 O 399.247 3.62132 1.97318 0
M  V30 4218 H 398.588 0.658827 0.0827194 0
M  V30 4219 H 401.118 2.01105 -0.376552 0
M  V30 4220 H 401.128 3.90975 1.1663 0
M  V30 4221 H 399.803 4.1588 0.0411816 0
M  V30 4222 H 398.38 3.33155 1.67517 0
M  V30 4223 N 400.565 -0.0233959 1.57583 0
M  V30 4224 C 401.79 -0.728376 1.94189 0
M  V30 4225 C 402.215 -1.67793 0.850119 0
M  V30 4226 O 401.573 -1.80262 -0.19371 0
M  V30 4227 C 401.621 -1.45669 3.29868 0
M  V30 4228 O 400.725 -2.57013 3.22518 0
M  V30 4229 H 400.066 -0.195493 0.63457 0
M  V30 4230 H 402.596 0.0228214 2.04587 0
M  V30 4231 H 402.606 -1.82535 3.6489 0
M  V30 4232 H 401.281 -0.760314 4.08891 0
M  V30 4233 H 399.858 -2.22648 2.99136 0
M  V30 4234 N 402.043 -1.548 -0.295768 0
M  V30 4235 C 403.291 -1.73985 -1.02828 0
M  V30 4236 C 403.612 -0.531406 -1.87619 0
M  V30 4237 O 402.882 0.454221 -1.90561 0
M  V30 4238 H 401.462 -0.641556 -0.382642 0
M  V30 4239 H 404.124 -1.92163 -0.325489 0
M  V30 4240 H 403.22 -2.63129 -1.67838 0
M  V30 4241 N 403.521 0.559213 -1.47345 0
M  V30 4242 C 404.932 1.14134 -1.47751 0
M  V30 4243 C 405.283 1.94834 -0.231103 0
M  V30 4244 O 404.408 2.05957 0.664137 0
M  V30 4245 C 405.003 2.07653 -2.67705 0
M  V30 4246 C 403.562 2.61141 -2.71076 0
M  V30 4247 C 402.709 1.3748 -2.40821 0
M  V30 4248 H 405.66 0.345917 -1.54884 0
M  V30 4249 H 405.681 2.91497 -2.44561 0
M  V30 4250 H 405.193 1.4889 -3.58404 0
M  V30 4251 H 403.294 3.23707 -1.84511 0
M  V30 4252 H 403.407 3.02272 -3.7171 0
M  V30 4253 H 401.771 1.68086 -1.91362 0
M  V30 4254 H 402.554 0.805135 -3.33725 0
M  V30 4255 N 404.999 1.35443 0.805782 0
M  V30 4256 C 406.276 1.19325 1.54987 0
M  V30 4257 C 406.656 -0.227294 2.09873 0
M  V30 4258 O 406.004 -1.2309 1.92512 0
M  V30 4259 C 406.214 2.26196 2.65775 0
M  V30 4260 C 407.562 2.62043 3.34094 0
M  V30 4261 O 408.586 2.25115 2.76046 0
M  V30 4262 O 407.445 3.25542 4.38958 0
M  V30 4263 H 404.539 0.463623 0.684823 0
M  V30 4264 H 407.085 1.47127 0.845674 0
M  V30 4265 H 405.857 3.21471 2.23096 0
M  V30 4266 H 405.48 1.99667 3.43829 0
M  V30 4267 N 406.477 -1.02803 1.19454 0
M  V30 4268 C 407.407 -2.12999 0.956758 0
M  V30 4269 C 408.388 -1.69743 -0.110188 0
M  V30 4270 O 409.573 -1.94148 0.0450038 0
M  V30 4271 C 406.703 -3.43746 0.495553 0
M  V30 4272 C 405.657 -4.00688 1.50443 0
M  V30 4273 C 404.983 -5.27067 0.900275 0
M  V30 4274 C 406.283 -4.35397 2.8849 0
M  V30 4275 H 407.977 -2.33148 1.87836 0
M  V30 4276 H 405.523 -1.12045 0.904539 0
M  V30 4277 H 407.476 -4.2021 0.316493 0
M  V30 4278 H 406.2 -3.23321 -0.461646 0
M  V30 4279 H 404.859 -3.2632 1.67065 0
M  V30 4280 H 404.507 -5.02959 -0.064503 0
M  V30 4281 H 404.207 -5.66127 1.57397 0
M  V30 4282 H 405.731 -6.06196 0.73203 0
M  V30 4283 H 407.145 -5.02795 2.75446 0
M  V30 4284 H 405.542 -4.85541 3.52661 0
M  V30 4285 H 406.612 -3.44662 3.41081 0
M  V30 4286 N 407.956 -0.998596 -1.21925 0
M  V30 4287 C 408.866 -0.562736 -2.27751 0
M  V30 4288 C 409.882 0.391203 -1.69545 0
M  V30 4289 O 411.058 0.256625 -1.99758 0
M  V30 4290 C 408.123 0.11012 -3.46525 0
M  V30 4291 C 407.184 -0.887495 -4.20026 0
M  V30 4292 C 406.417 -0.246654 -5.3313 0
M  V30 4293 O 406.64 0.958088 -5.62296 0
M  V30 4294 O 405.574 -0.954374 -5.94286 0
M  V30 4295 H 409.4 -1.44329 -2.67213 0
M  V30 4296 H 406.985 -0.767135 -1.28201 0
M  V30 4297 H 408.867 0.486756 -4.18579 0
M  V30 4298 H 407.542 0.965154 -3.08976 0
M  V30 4299 H 406.449 -1.31517 -3.5022 0
M  V30 4300 H 407.782 -1.71191 -4.6147 0
M  V30 4301 N 409.434 1.37368 -0.772513 0
M  V30 4302 C 410.845 1.8231 -0.402493 0
M  V30 4303 C 411.196 1.6436 1.07146 0
M  V30 4304 O 410.321 1.15514 1.82991 0
M  V30 4305 C 410.916 3.30979 -0.723776 0
M  V30 4306 C 409.475 3.74195 -0.406802 0
M  V30 4307 C 408.622 2.59885 -0.967218 0
M  V30 4308 H 411.573 1.25829 -0.967099 0
M  V30 4309 H 411.594 3.80499 -0.00870832 0
M  V30 4310 H 411.106 3.44011 -1.7966 0
M  V30 4311 H 409.207 3.66732 0.658673 0
M  V30 4312 H 409.32 4.7027 -0.915588 0
M  V30 4313 H 407.684 2.51674 -0.391416 0
M  V30 4314 H 408.467 2.7571 -2.04546 0
M  V30 4315 N 410.912 0.523116 1.48665 0
M  V30 4316 C 411.842 -0.23231 2.32342 0
M  V30 4317 C 412.823 -0.941637 1.41659 0
M  V30 4318 O 414.008 -0.928751 1.70552 0
M  V30 4319 C 411.138 -1.28387 3.22698 0
M  V30 4320 C 410.092 -0.693098 4.22351 0
M  V30 4321 C 409.418 -1.8468 5.01794 0
M  V30 4322 C 410.718 0.33063 5.21252 0
M  V30 4323 H 412.412 0.466192 2.95748 0
M  V30 4324 H 409.958 0.225643 1.42221 0
M  V30 4325 H 411.911 -1.82024 3.80059 0
M  V30 4326 H 410.635 -2.01186 2.57278 0
M  V30 4327 H 409.294 -0.178299 3.66166 0
M  V30 4328 H 408.942 -2.56301 4.32804 0
M  V30 4329 H 408.642 -1.45747 5.69238 0
M  V30 4330 H 410.166 -2.38709 5.62006 0
M  V30 4331 H 411.58 -0.118407 5.73178 0
M  V30 4332 H 409.977 0.636974 5.9671 0
M  V30 4333 H 411.047 1.23883 4.68808 0
M  V30 4334 N 412.39 -1.55475 0.257931 0
M  V30 4335 C 413.639 -1.98383 -0.364275 0
M  V30 4336 C 413.952 -1.14952 -1.58258 0
M  V30 4337 O 415.158 -1.47924 -2.27664 0
M  V30 4338 C 413.614 -3.53037 -0.699479 0
M  V30 4339 C 413.222 -4.45223 0.498046 0
M  V30 4340 C 414.966 -4.04575 -1.28526 0
M  V30 4341 C 412.873 -5.91238 0.138383 0
M  V30 4342 H 411.803 -0.740911 -0.13988 0
M  V30 4343 H 414.454 -1.79936 0.359883 0
M  V30 4344 H 412.836 -3.6722 -1.48207 0
M  V30 4345 H 414.01 -4.42803 1.27522 0
M  V30 4346 H 412.325 -4.04226 0.999503 0
M  V30 4347 H 414.922 -5.11196 -1.56788 0
M  V30 4348 H 415.265 -3.5258 -2.21344 0
M  V30 4349 H 415.798 -3.93762 -0.565337 0
M  V30 4350 H 412.537 -6.47294 1.03398 0
M  V30 4351 H 412.057 -5.96768 -0.602374 0
M  V30 4352 H 413.736 -6.46413 -0.27553 0
M  V30 4353 N 413.868 0.0150385 -1.57593 0
M  V30 4354 C 414.815 1.01126 -2.07466 0
M  V30 4355 C 415.785 1.35064 -0.966794 0
M  V30 4356 O 416.97 1.4516 -1.23827 0
M  V30 4357 C 414.11 2.30276 -2.57035 0
M  V30 4358 C 413.223 2.02373 -3.81666 0
M  V30 4359 C 412.358 3.25496 -4.19793 0
M  V30 4360 C 411.397 2.93211 -5.37303 0
M  V30 4361 N 410.534 4.08826 -5.70794 0
M  V30 4362 H 415.374 0.57901 -2.92321 0
M  V30 4363 H 412.911 0.27426 -1.44521 0
M  V30 4364 H 414.869 3.05757 -2.83846 0
M  V30 4365 H 413.499 2.71197 -1.75077 0
M  V30 4366 H 412.551 1.17327 -3.61854 0
M  V30 4367 H 413.863 1.74567 -4.67256 0
M  V30 4368 H 413.017 4.09333 -4.47807 0
M  V30 4369 H 411.756 3.56428 -3.32882 0
M  V30 4370 H 410.761 2.07777 -5.09027 0
M  V30 4371 H 411.986 2.63542 -6.25877 0
M  V30 4372 H 409.932 4.39682 -4.86842 0
M  V30 4373 H 409.849 3.84491 -6.50924 0
M  V30 4374 H 411.117 4.93496 -6.03392 0
M  V30 4375 N 415.346 1.54954 0.287554 0
M  V30 4376 C 416.256 1.8991 1.37736 0
M  V30 4377 C 417.272 0.794701 1.54792 0
M  V30 4378 O 418.448 1.09243 1.69198 0
M  V30 4379 C 415.513 2.15108 2.71899 0
M  V30 4380 C 414.574 3.38752 2.63715 0
M  V30 4381 C 413.807 3.62739 3.91479 0
M  V30 4382 O 414.03 2.89492 4.91478 0
M  V30 4383 O 412.964 4.56267 3.92561 0
M  V30 4384 H 416.79 2.82652 1.11092 0
M  V30 4385 H 414.375 1.41315 0.484807 0
M  V30 4386 H 416.257 2.32806 3.51254 0
M  V30 4387 H 414.932 1.25551 2.9836 0
M  V30 4388 H 413.839 3.26405 1.82786 0
M  V30 4389 H 415.172 4.28483 2.42205 0
M  V30 4390 N 416.824 -0.551391 1.4764 0
M  V30 4391 C 418.073 -1.30467 1.53822 0
M  V30 4392 C 418.386 -1.94495 0.207661 0
M  V30 4393 O 419.592 -2.71099 0.147533 0
M  V30 4394 C 418.048 -2.36616 2.71184 0
M  V30 4395 C 417.656 -1.78754 4.10793 0
M  V30 4396 C 419.4 -3.13088 2.86663 0
M  V30 4397 C 417.307 -2.82717 5.19447 0
M  V30 4398 H 416.237 -0.490584 0.572576 0
M  V30 4399 H 418.888 -0.58494 1.73927 0
M  V30 4400 H 417.27 -3.11529 2.4447 0
M  V30 4401 H 418.444 -1.10173 4.47435 0
M  V30 4402 H 416.759 -1.14846 4.00249 0
M  V30 4403 H 419.356 -3.90736 3.65007 0
M  V30 4404 H 419.699 -3.67635 1.95321 0
M  V30 4405 H 420.232 -2.45288 3.13175 0
M  V30 4406 H 416.971 -2.33018 6.12685 0
M  V30 4407 H 416.491 -3.4969 4.87316 0
M  V30 4408 H 418.17 -3.46102 5.46646 0
M  V30 4409 N 418.302 -1.35869 -0.798587 0
M  V30 4410 C 419.548 -1.2978 -1.55836 0
M  V30 4411 C 419.881 0.125322 -1.93795 0
M  V30 4412 O 419.156 1.07658 -1.61987 0
M  V30 4413 C 419.439 -2.21188 -2.84162 0
M  V30 4414 C 419.292 -3.72155 -2.52628 0
M  V30 4415 C 420.611 -2.11545 -3.85923 0
M  V30 4416 H 417.73 -0.472769 -0.565383 0
M  V30 4417 H 420.372 -1.66341 -0.918192 0
M  V30 4418 H 418.522 -1.90139 -3.38791 0
M  V30 4419 H 420.194 -4.13682 -2.04121 0
M  V30 4420 H 418.437 -3.92042 -1.85704 0
M  V30 4421 H 419.108 -4.31511 -3.44242 0
M  V30 4422 H 421.584 -2.38855 -3.40716 0
M  V30 4423 H 420.46 -2.77688 -4.73477 0
M  V30 4424 H 420.721 -1.09987 -4.282 0
M  V30 4425 N 419.78 1.02168 -1.19998 0
M  V30 4426 C 421.196 1.27969 -0.953737 0
M  V30 4427 C 421.396 1.98079 0.369703 0
M  V30 4428 O 420.452 2.27306 1.09947 0
M  V30 4429 C 421.765 2.11971 -2.13281 0
M  V30 4430 C 423.313 2.25255 -2.17323 0
M  V30 4431 C 423.788 3.12632 -3.34702 0
M  V30 4432 N 425.279 3.2022 -3.34684 0
M  V30 4433 C 426.014 3.88039 -4.22153 0
M  V30 4434 N 425.51 4.58027 -5.19791 0
M  V30 4435 N 427.303 3.84511 -4.10009 0
M  V30 4436 H 419.454 0.550794 -2.05134 0
M  V30 4437 H 421.717 0.305683 -0.897364 0
M  V30 4438 H 421.423 1.67785 -3.09097 0
M  V30 4439 H 421.297 3.12699 -2.10949 0
M  V30 4440 H 423.684 2.68667 -1.22073 0
M  V30 4441 H 423.765 1.24053 -2.23706 0
M  V30 4442 H 423.409 2.69926 -4.30235 0
M  V30 4443 H 423.339 4.13909 -3.25556 0
M  V30 4444 H 425.83 2.70382 -2.64012 0
M  V30 4445 H 426.143 5.07429 -5.82868 0
M  V30 4446 H 424.488 4.56869 -5.23733 0
M  V30 4447 H 427.679 3.28978 -3.33003 0
M  V30 4448 H 427.852 4.3709 -4.78389 0
M  V30 4449 N 421.258 1.00505 1.21394 0
M  V30 4450 C 422.674 0.717873 1.42544 0
M  V30 4451 C 422.874 -0.706936 1.88692 0
M  V30 4452 O 421.93 -1.47627 2.04847 0
M  V30 4453 C 423.243 1.73377 2.45684 0
M  V30 4454 C 424.791 1.75059 2.59467 0
M  V30 4455 C 425.266 2.75545 3.6584 0
M  V30 4456 N 426.757 2.74213 3.73311 0
M  V30 4457 C 427.492 3.48626 4.55245 0
M  V30 4458 N 426.988 4.32678 5.41075 0
M  V30 4459 N 428.781 3.37276 4.49668 0
M  V30 4460 H 420.932 1.92506 0.897503 0
M  V30 4461 H 423.195 0.830919 0.456375 0
M  V30 4462 H 422.901 2.75395 2.18748 0
M  V30 4463 H 422.775 1.53647 3.44489 0
M  V30 4464 H 425.162 0.737337 2.8574 0
M  V30 4465 H 425.243 1.98861 1.60897 0
M  V30 4466 H 424.887 3.77028 3.40313 0
M  V30 4467 H 424.817 2.49009 4.64007 0
M  V30 4468 H 427.308 2.13234 3.11993 0
M  V30 4469 H 427.621 4.86253 6.00648 0
M  V30 4470 H 425.966 4.3676 5.40616 0
M  V30 4471 H 429.157 2.71043 3.81646 0
M  V30 4472 H 429.33 3.95524 5.13288 0
M  V30 4473 N 422.737 -1.36956 0.779787 0
M  V30 4474 C 423.685 -2.32053 0.15942 0
M  V30 4475 C 424.679 -1.55333 -0.675878 0
M  V30 4476 O 425.885 -1.70668 -0.57204 0
M  V30 4477 H 422.26 -0.751286 0.0327707 0
M  V30 4478 H 424.231 -2.8195 0.977078 0
M  V30 4479 C 422.98 -3.40602 -0.698977 0
M  V30 4480 H 422.303 -3.99746 -0.0655966 0
M  V30 4481 H 423.743 -4.09486 -1.09989 0
M  V30 4482 C 422.202 -2.81359 -1.85307 0
M  V30 4483 O 422.732 -2.72751 -2.94906 0
M  V30 4484 N 420.938 -2.38786 -1.65619 0
M  V30 4485 H 420.485 -2.45987 -0.764725 0
M  V30 4486 H 420.443 -1.99493 -2.43002 0
M  V30 4487 N 424.215 -0.530993 -1.48385 0
M  V30 4488 C 425.464 0.00474348 -2.01699 0
M  V30 4489 C 425.777 1.35227 -1.41325 0
M  V30 4490 O 426.983 1.97643 -1.86144 0
M  V30 4491 C 425.439 0.0588473 -3.59852 0
M  V30 4492 C 425.047 -1.28385 -4.2921 0
M  V30 4493 C 426.791 0.543358 -4.21008 0
M  V30 4494 C 424.698 -1.19028 -5.79298 0
M  V30 4495 H 423.628 0.00554317 -0.75398 0
M  V30 4496 H 426.279 -0.674924 -1.70637 0
M  V30 4497 H 424.661 0.803612 -3.8776 0
M  V30 4498 H 425.835 -2.04426 -4.12973 0
M  V30 4499 H 424.15 -1.70418 -3.7993 0
M  V30 4500 H 426.747 0.631351 -5.3096 0
M  V30 4501 H 427.09 1.54937 -3.86394 0
M  V30 4502 H 427.623 -0.145754 -3.97533 0
M  V30 4503 H 424.362 -2.17147 -6.18488 0
M  V30 4504 H 423.882 -0.471246 -5.97946 0
M  V30 4505 H 425.561 -0.881365 -6.40969 0
M  V30 4506 N 425.693 1.55336 -0.266172 0
M  V30 4507 C 426.921 2.03801 0.356756 0
M  V30 4508 C 427.336 1.14485 1.50129 0
M  V30 4509 O 426.693 0.163121 1.8177 0
M  V30 4510 C 426.744 3.51455 0.846281 0
M  V30 4511 O 426.465 4.37371 -0.252663 0
M  V30 4512 C 427.966 4.15767 1.53794 0
M  V30 4513 H 425.186 0.665906 0.0825218 0
M  V30 4514 H 427.73 2.00636 -0.39566 0
M  V30 4515 H 425.885 3.55092 1.54881 0
M  V30 4516 H 426.299 5.24358 0.122173 0
M  V30 4517 H 427.773 5.20714 1.83198 0
M  V30 4518 H 428.25 3.63404 2.46646 0
M  V30 4519 H 428.856 4.16107 0.879488 0
M  V30 4520 N 427.171 -0.0066808 1.57599 0
M  V30 4521 C 428.419 -0.691552 1.899 0
M  V30 4522 C 428.74 -1.74682 0.866672 0
M  V30 4523 O 428.01 -1.95661 -0.0968189 0
M  V30 4524 H 426.59 -0.258416 0.700878 0
M  V30 4525 H 429.252 0.0326655 1.94873 0
M  V30 4526 H 428.348 -1.16702 2.8946 0
M  V30 4527 N 428.649 -1.55105 -0.279332 0
M  V30 4528 C 429.596 -1.8755 -1.34513 0
M  V30 4529 C 430.566 -0.726384 -1.49375 0
M  V30 4530 O 431.751 -0.977063 -1.63884 0
M  V30 4531 C 428.891 -2.14738 -2.70151 0
M  V30 4532 C 428.004 -3.42285 -2.63562 0
M  V30 4533 C 427.139 -3.59206 -3.91337 0
M  V30 4534 C 426.178 -4.80467 -3.79233 0
M  V30 4535 N 425.315 -4.94079 -4.98829 0
M  V30 4536 H 430.155 -2.78456 -1.06143 0
M  V30 4537 H 427.692 -1.37867 -0.512936 0
M  V30 4538 H 429.65 -2.28501 -3.49061 0
M  V30 4539 H 428.28 -1.27075 -2.96735 0
M  V30 4540 H 427.332 -3.37029 -1.76397 0
M  V30 4541 H 428.644 -4.31328 -2.50515 0
M  V30 4542 H 427.798 -3.72751 -4.78687 0
M  V30 4543 H 426.537 -2.68337 -4.07243 0
M  V30 4544 H 425.542 -4.66932 -2.90266 0
M  V30 4545 H 426.767 -5.72765 -3.64852 0
M  V30 4546 H 424.713 -4.06139 -5.15158 0
M  V30 4547 H 424.63 -5.77156 -4.8829 0
M  V30 4548 H 425.898 -5.12003 -5.8777 0
M  V30 4549 N 430.127 0.543554 -1.4793 0
M  V30 4550 C 431.376 1.29649 -1.54512 0
M  V30 4551 C 431.689 1.94382 -0.217973 0
M  V30 4552 O 432.895 2.71017 -0.161908 0
M  V30 4553 C 431.351 2.35175 -2.72435 0
M  V30 4554 C 430.959 1.76572 -4.11736 0
M  V30 4555 C 432.703 3.11564 -2.8832 0
M  V30 4556 C 430.61 2.79958 -5.20939 0
M  V30 4557 H 429.54 0.487541 -0.57517 0
M  V30 4558 H 432.191 0.575708 -1.74235 0
M  V30 4559 H 430.573 3.10229 -2.46118 0
M  V30 4560 H 431.747 1.07799 -4.48013 0
M  V30 4561 H 430.062 1.12722 -4.00852 0
M  V30 4562 H 432.659 3.88794 -3.67074 0
M  V30 4563 H 433.002 3.66594 -1.97268 0
M  V30 4564 H 433.535 2.43623 -3.14472 0
M  V30 4565 H 430.274 2.29766 -6.13912 0
M  V30 4566 H 429.794 3.47101 -4.89164 0
M  V30 4567 H 431.473 3.43198 -5.48474 0
M  V30 4568 N 431.605 1.3629 0.791371 0
M  V30 4569 C 432.851 1.31613 1.5508 0
M  V30 4570 C 433.206 -0.104372 1.92117 0
M  V30 4571 O 432.499 -1.05845 1.5971 0
M  V30 4572 C 432.693 2.17068 2.8393 0
M  V30 4573 C 432.522 3.67285 2.59484 0
M  V30 4574 C 431.292 4.36469 2.54604 0
M  V30 4575 C 433.49 4.60595 2.28816 0
M  V30 4576 N 431.472 5.7234 2.22036 0
M  V30 4577 C 432.843 5.847 2.06218 0
M  V30 4578 C 434.898 4.4918 2.14806 0
M  V30 4579 C 433.601 6.98671 1.71028 0
M  V30 4580 C 435.627 5.63017 1.81014 0
M  V30 4581 C 434.989 6.86159 1.59263 0
M  V30 4582 H 431.088 0.536878 0.568582 0
M  V30 4583 H 433.672 1.71323 0.925007 0
M  V30 4584 H 431.843 1.79605 3.44378 0
M  V30 4585 H 433.575 2.03795 3.49642 0
M  V30 4586 H 430.33 3.89249 2.69782 0
M  V30 4587 H 430.754 6.44093 2.08503 0
M  V30 4588 H 435.396 3.54564 2.30313 0
M  V30 4589 H 433.114 7.9324 1.54259 0
M  V30 4590 H 436.7 5.56146 1.70861 0
M  V30 4591 H 435.58 7.72753 1.335 0
M  V30 4592 N 433.083 -1.0153 1.20538 0
M  V30 4593 C 434.013 -2.11972 0.979295 0
M  V30 4594 C 434.994 -1.6985 -0.0921787 0
M  V30 4595 O 436.179 -1.94089 0.0655932 0
M  V30 4596 C 433.309 -3.43201 0.531984 0
M  V30 4597 C 432.263 -3.9907 1.54685 0
M  V30 4598 C 431.589 -5.26082 0.956127 0
M  V30 4599 C 432.889 -4.32313 2.93092 0
M  V30 4600 H 434.583 -2.31143 1.90298 0
M  V30 4601 H 432.129 -1.11079 0.916372 0
M  V30 4602 H 434.082 -4.1985 0.361044 0
M  V30 4603 H 432.806 -3.23792 -0.427327 0
M  V30 4604 H 431.465 -3.2453 1.70517 0
M  V30 4605 H 431.113 -5.02999 -0.0111538 0
M  V30 4606 H 430.813 -5.64426 1.63393 0
M  V30 4607 H 432.337 -6.05386 0.796284 0
M  V30 4608 H 433.751 -4.99845 2.80763 0
M  V30 4609 H 432.148 -4.81774 3.57791 0
M  V30 4610 H 433.218 -3.41025 3.44717 0
M  V30 4611 N 434.561 -1.01147 -1.20859 0
M  V30 4612 C 435.524 -0.582224 -2.21682 0
M  V30 4613 C 436.524 0.344887 -1.57058 0
M  V30 4614 O 437.714 0.134281 -1.73682 0
M  V30 4615 C 434.846 0.150496 -3.40568 0
M  V30 4616 H 436.039 -1.47408 -2.61172 0
M  V30 4617 H 433.592 -0.800695 -1.34233 0
M  V30 4618 H 434.327 1.0575 -3.06574 0
M  V30 4619 H 434.112 -0.515444 -3.88697 0
M  V30 4620 H 435.602 0.438344 -4.15293 0
M  V30 4621 N 436.039 1.36541 -0.78704 0
M  V30 4622 C 437.264 2.0409 -0.369053 0
M  V30 4623 C 437.689 1.58957 1.00569 0
M  V30 4624 O 437.047 0.756926 1.64743 0
M  V30 4625 C 437.095 3.57924 -0.438466 0
M  V30 4626 O 436.199 4.08642 0.555479 0
M  V30 4627 H 435.54 0.645142 -0.157122 0
M  V30 4628 H 438.07 1.74545 -1.06749 0
M  V30 4629 H 438.08 4.06887 -0.301218 0
M  V30 4630 H 436.755 3.90127 -1.44132 0
M  V30 4631 H 435.332 3.70958 0.380088 0
M  V30 4632 N 437.518 0.538854 1.48102 0
M  V30 4633 C 438.428 -0.222648 2.33541 0
M  V30 4634 C 439.444 -0.930225 1.47047 0
M  V30 4635 O 440.62 -0.903211 1.80011 0
M  V30 4636 C 437.685 -1.25064 3.23357 0
M  V30 4637 C 436.746 -0.552469 4.2573 0
M  V30 4638 C 435.979 -1.53149 5.11254 0
M  V30 4639 O 436.202 -2.76487 4.9891 0
M  V30 4640 O 435.136 -1.06602 5.92385 0
M  V30 4641 H 438.962 0.477707 2.99919 0
M  V30 4642 H 436.547 0.299669 1.46364 0
M  V30 4643 H 438.429 -1.8445 3.78888 0
M  V30 4644 H 437.104 -1.93325 2.59629 0
M  V30 4645 H 436.011 0.082114 3.7401 0
M  V30 4646 H 437.344 0.0883526 4.92121 0
M  V30 4647 N 438.996 -1.55193 0.274407 0
M  V30 4648 C 439.959 -2.212 -0.600279 0
M  V30 4649 C 440.959 -1.18963 -1.08187 0
M  V30 4650 O 442.149 -1.43873 -0.982158 0
M  V30 4651 C 439.281 -2.87739 -1.82809 0
M  V30 4652 H 440.474 -2.9989 -0.0239682 0
M  V30 4653 H 438.027 -1.5628 0.0250192 0
M  V30 4654 H 438.762 -2.13058 -2.44493 0
M  V30 4655 H 438.547 -3.62658 -1.49069 0
M  V30 4656 H 440.037 -3.38171 -2.45011 0
M  V30 4657 N 440.474 -0.00167713 -1.576 0
M  V30 4658 C 441.72 0.67819 -1.91761 0
M  V30 4659 C 442.075 1.71288 -0.876256 0
M  V30 4660 O 441.368 1.91276 0.111333 0
M  V30 4661 C 441.562 1.36189 -3.30435 0
M  V30 4662 C 441.391 0.394938 -4.47962 0
M  V30 4663 C 440.161 0.00472875 -5.053 0
M  V30 4664 C 442.359 -0.339521 -5.13178 0
M  V30 4665 N 440.341 -0.960257 -6.06343 0
M  V30 4666 C 441.712 -1.15914 -6.09068 0
M  V30 4667 C 443.767 -0.403177 -4.96265 0
M  V30 4668 C 442.47 -2.03661 -6.89866 0
M  V30 4669 C 444.496 -1.26788 -5.77649 0
M  V30 4670 C 443.858 -2.07535 -6.73134 0
M  V30 4671 H 439.957 0.221317 -0.750028 0
M  V30 4672 H 442.541 -0.0624182 -1.946 0
M  V30 4673 H 440.712 2.07278 -3.28467 0
M  V30 4674 H 442.444 1.99658 -3.52021 0
M  V30 4675 H 439.199 0.373452 -4.72125 0
M  V30 4676 H 439.623 -1.43817 -6.61548 0
M  V30 4677 H 444.265 0.206818 -4.22294 0
M  V30 4678 H 441.983 -2.65727 -7.63161 0
M  V30 4679 H 445.569 -1.32107 -5.66603 0
M  V30 4680 H 444.449 -2.73363 -7.35012 0
M  V30 4681 N 441.952 1.55251 0.271103 0
M  V30 4682 C 442.915 1.87484 1.31842 0
M  V30 4683 C 443.915 0.749545 1.42262 0
M  V30 4684 O 445.105 1.01771 1.4138 0
M  V30 4685 C 442.237 2.0818 2.69951 0
M  V30 4686 H 443.43 2.81108 1.0449 0
M  V30 4687 H 440.983 1.47771 0.509258 0
M  V30 4688 H 441.718 1.16944 3.02481 0
M  V30 4689 H 441.503 2.90114 2.63774 0
M  V30 4690 H 442.993 2.34385 3.4562 0
M  V30 4691 N 443.43 -0.535701 1.48216 0
M  V30 4692 C 444.655 -1.32149 1.59848 0
M  V30 4693 C 445.08 -1.86338 0.256842 0
M  V30 4694 O 444.438 -1.64107 -0.770632 0
M  V30 4695 C 444.486 -2.45224 2.64381 0
M  V30 4696 O 443.59 -3.48093 2.21144 0
M  V30 4697 H 442.931 -0.391634 0.536208 0
M  V30 4698 H 445.461 -0.645202 1.94161 0
M  V30 4699 H 445.471 -2.91491 2.85476 0
M  V30 4700 H 444.146 -2.05143 3.61786 0
M  V30 4701 H 442.723 -3.07984 2.10239 0
M  V30 4702 N 444.908 -1.36708 -0.784132 0
M  V30 4703 C 446.133 -1.34565 -1.5782 0
M  V30 4704 C 446.558 0.0695257 -1.87971 0
M  V30 4705 O 445.916 1.04302 -1.48293 0
M  V30 4706 C 445.964 -2.17952 -2.87279 0
M  V30 4707 O 445.068 -1.57563 -3.81114 0
M  V30 4708 H 444.409 -0.460337 -0.478524 0
M  V30 4709 H 446.939 -1.80064 -0.971495 0
M  V30 4710 H 446.949 -2.30721 -3.365 0
M  V30 4711 H 445.624 -3.20823 -2.64661 0
M  V30 4712 H 444.201 -1.53764 -3.39722 0
M  V30 4713 N 446.386 1.0089 -1.21074 0
M  V30 4714 C 447.611 1.78727 -1.05221 0
M  V30 4715 C 448.036 1.83932 0.393795 0
M  V30 4716 O 447.394 1.28004 1.28393 0
M  V30 4717 C 447.442 3.20665 -1.64944 0
M  V30 4718 O 446.546 4.02632 -0.892273 0
M  V30 4719 H 445.887 0.550973 -0.370574 0
M  V30 4720 H 448.417 1.26847 -1.60534 0
M  V30 4721 H 448.427 3.71352 -1.69002 0
M  V30 4722 H 447.102 3.16191 -2.70177 0
M  V30 4723 H 445.679 3.61207 -0.926492 0
M  V30 4724 N 447.864 1.01787 1.20321 0
M  V30 4725 C 448.794 0.609625 2.25401 0
M  V30 4726 C 449.775 -0.375951 1.65893 0
M  V30 4727 O 450.96 -0.261101 1.92437 0
M  V30 4728 C 448.09 -0.0515995 3.47262 0
M  V30 4729 C 447.044 0.855095 4.19371 0
M  V30 4730 C 446.37 0.0595757 5.34667 0
M  V30 4731 C 447.67 2.16374 4.75373 0
M  V30 4732 H 449.364 1.48803 2.59804 0
M  V30 4733 H 446.91 0.716934 1.24884 0
M  V30 4734 H 448.863 -0.348764 4.19954 0
M  V30 4735 H 447.587 -0.964726 3.12027 0
M  V30 4736 H 446.246 1.13628 3.48546 0
M  V30 4737 H 445.894 -0.85524 4.95676 0
M  V30 4738 H 445.594 0.663406 5.83843 0
M  V30 4739 H 447.118 -0.231105 6.10162 0
M  V30 4740 H 448.532 1.92885 5.39878 0
M  V30 4741 H 446.929 2.71853 5.34991 0
M  V30 4742 H 447.999 2.82589 3.94045 0
M  V30 4743 N 449.342 -1.36122 0.79427 0
M  V30 4744 C 450.591 -1.98361 0.365464 0
M  V30 4745 C 450.904 -1.6374 -1.06997 0
M  V30 4746 O 452.11 -2.19251 -1.60129 0
M  V30 4747 C 450.566 -3.54821 0.602496 0
M  V30 4748 C 450.174 -3.98362 2.04967 0
M  V30 4749 C 451.918 -4.2383 0.238437 0
M  V30 4750 C 449.825 -5.47619 2.2331 0
M  V30 4751 H 448.755 -0.742193 0.13291 0
M  V30 4752 H 451.406 -1.55354 0.976589 0
M  V30 4753 H 449.788 -3.95922 -0.078409 0
M  V30 4754 H 450.962 -3.68447 2.76737 0
M  V30 4755 H 449.277 -3.42206 2.37243 0
M  V30 4756 H 451.874 -5.33529 0.353705 0
M  V30 4757 H 452.217 -4.08264 -0.814006 0
M  V30 4758 H 452.75 -3.88108 0.872769 0
M  V30 4759 H 449.489 -5.68138 3.26955 0
M  V30 4760 H 449.009 -5.79145 1.5605 0
M  V30 4761 H 450.688 -6.13911 2.0426 0
M  V30 4762 N 450.82 -0.546701 -1.47814 0
M  V30 4763 C 451.783 0.196287 -2.28358 0
M  V30 4764 C 452.783 0.852437 -1.36346 0
M  V30 4765 O 453.973 0.709913 -1.59078 0
M  V30 4766 C 451.105 1.28579 -3.15722 0
M  V30 4767 H 452.298 -0.511086 -2.95513 0
M  V30 4768 H 449.851 -0.303248 -1.5333 0
M  V30 4769 H 450.586 2.0259 -2.53235 0
M  V30 4770 H 450.371 0.820229 -3.83425 0
M  V30 4771 H 451.861 1.80793 -3.76435 0
M  V30 4772 N 452.299 1.55045 -0.282633 0
M  V30 4773 C 453.232 2.18951 0.64311 0
M  V30 4774 C 454.21 1.15287 1.14664 0
M  V30 4775 O 455.394 1.43846 1.21822 0
M  V30 4776 C 452.521 2.81874 1.87789 0
M  V30 4777 C 451.567 3.98906 1.50919 0
M  V30 4778 S 452.4 5.3234 0.580884 0
M  V30 4779 C 453.556 5.98737 1.82387 0
M  V30 4780 H 453.789 2.97131 0.100138 0
M  V30 4781 H 451.322 1.54255 -0.0668514 0
M  V30 4782 H 453.28 3.18757 2.58658 0
M  V30 4783 H 451.941 2.03573 2.392 0
M  V30 4784 H 451.134 4.4165 2.42819 0
M  V30 4785 H 450.736 3.63485 0.88061 0
M  V30 4786 H 453.028 6.18427 2.76684 0
M  V30 4787 H 453.971 6.93318 1.4393 0
M  V30 4788 H 454.379 5.28177 1.99223 0
M  V30 4789 N 453.777 0.010035 1.57597 0
M  V30 4790 C 455.188 -0.531426 1.78977 0
M  V30 4791 C 455.539 -1.73375 0.918454 0
M  V30 4792 O 454.664 -2.16047 0.123635 0
M  V30 4793 C 455.259 -0.97086 3.24592 0
M  V30 4794 C 453.818 -1.45756 3.47033 0
M  V30 4795 C 452.965 -0.413384 2.74201 0
M  V30 4796 H 455.916 0.236166 1.56933 0
M  V30 4797 H 455.937 -1.83633 3.33255 0
M  V30 4798 H 455.449 -0.0955893 3.87982 0
M  V30 4799 H 453.55 -2.35339 2.88871 0
M  V30 4800 H 453.663 -1.4781 4.55729 0
M  V30 4801 H 452.027 -0.877266 2.39115 0
M  V30 4802 H 452.81 0.453092 3.40297 0
M  V30 4803 N 455.255 -1.55392 -0.262866 0
M  V30 4804 C 456.187 -1.85392 -1.34768 0
M  V30 4805 C 457.2 -0.739069 -1.45057 0
M  V30 4806 O 458.389 -1.01703 -1.46693 0
M  V30 4807 C 455.489 -2.01088 -2.72795 0
M  V30 4808 C 454.662 -3.31828 -2.84972 0
M  V30 4809 C 453.721 -3.37464 -4.03738 0
M  V30 4810 O 452.747 -4.10778 -3.94018 0
M  V30 4811 N 453.949 -2.65599 -5.16176 0
M  V30 4812 H 456.714 -2.79029 -1.09375 0
M  V30 4813 H 454.275 -1.55434 -0.452981 0
M  V30 4814 H 456.267 -2.02217 -3.50557 0
M  V30 4815 H 454.837 -1.1427 -2.90966 0
M  V30 4816 H 454.057 -3.43152 -1.94012 0
M  V30 4817 H 455.345 -4.18032 -2.90045 0
M  V30 4818 H 454.743 -2.05736 -5.26962 0
M  V30 4819 H 453.3 -2.72439 -5.92132 0
M  V30 4820 N 456.733 0.527833 -1.48498 0
M  V30 4821 C 457.963 1.30633 -1.60058 0
M  V30 4822 C 458.371 1.87394 -0.260786 0
M  V30 4823 O 457.714 1.67227 0.760317 0
M  V30 4824 C 457.776 2.49361 -2.58958 0
M  V30 4825 C 457.44 2.13671 -4.03972 0
M  V30 4826 C 458.437 1.69217 -4.91591 0
M  V30 4827 C 456.122 2.24129 -4.49524 0
M  V30 4828 C 458.116 1.35689 -6.2279 0
M  V30 4829 C 455.803 1.90212 -5.80743 0
M  V30 4830 C 456.801 1.46063 -6.67199 0
M  V30 4831 O 456.489 1.12593 -7.95976 0
M  V30 4832 H 456.221 0.403444 -0.54241 0
M  V30 4833 H 458.775 0.643233 -1.95068 0
M  V30 4834 H 457.005 3.18659 -2.19073 0
M  V30 4835 H 458.694 3.11421 -2.6033 0
M  V30 4836 H 459.46 1.60607 -4.57636 0
M  V30 4837 H 455.339 2.57447 -3.82416 0
M  V30 4838 H 458.883 1.01157 -6.90227 0
M  V30 4839 H 454.78 1.98464 -6.14233 0
M  V30 4840 H 455.548 1.25972 -8.08748 0
M  V30 4841 N 458.211 1.37122 0.776871 0
M  V30 4842 C 459.458 1.32047 1.53524 0
M  V30 4843 C 459.786 -0.0965631 1.9426 0
M  V30 4844 O 459.041 -1.06866 1.63945 0
M  V30 4845 C 459.34 2.20068 2.81611 0
M  V30 4846 C 459.006 3.68423 2.59953 0
M  V30 4847 C 457.668 4.08854 2.53755 0
M  V30 4848 C 460.02 4.62431 2.40431 0
M  V30 4849 C 457.348 5.41417 2.26018 0
M  V30 4850 C 459.7 5.95225 2.14219 0
M  V30 4851 C 458.364 6.34767 2.06462 0
M  V30 4852 H 457.634 0.483196 0.561785 0
M  V30 4853 H 460.281 1.69284 0.895268 0
M  V30 4854 H 458.586 1.75809 3.50141 0
M  V30 4855 H 460.283 2.13458 3.39465 0
M  V30 4856 H 456.873 3.36354 2.65638 0
M  V30 4857 H 461.057 4.32057 2.44213 0
M  V30 4858 H 456.313 5.71022 2.18504 0
M  V30 4859 H 460.487 6.67626 1.98112 0
M  V30 4860 H 458.114 7.37413 1.84733 0
M  V30 4861 N 459.689 -1.00246 1.21608 0
M  V30 4862 C 460.639 -2.07492 0.945051 0
M  V30 4863 C 461.623 -1.60585 -0.100675 0
M  V30 4864 O 462.815 -1.76667 0.10859 0
M  V30 4865 C 459.944 -3.39425 0.514342 0
M  V30 4866 C 459.03 -3.92993 1.59428 0
M  V30 4867 N 459.421 -4.19898 2.81991 0
M  V30 4868 C 457.719 -4.21297 1.46374 0
M  V30 4869 C 458.42 -4.63297 3.51754 0
M  V30 4870 N 457.396 -4.66421 2.79199 0
M  V30 4871 H 461.198 -2.26222 1.87619 0
M  V30 4872 H 458.712 -1.18339 1.11219 0
M  V30 4873 H 460.709 -4.15808 0.301527 0
M  V30 4874 H 459.369 -3.22101 -0.410008 0
M  V30 4875 H 460.38 -4.08377 3.1851 0
M  V30 4876 H 457.057 -4.13095 0.604863 0
M  V30 4877 H 458.447 -4.92816 4.56708 0
M  V30 4878 N 461.167 -1.02423 -1.1978 0
M  V30 4879 C 462.413 -0.719051 -1.89625 0
M  V30 4880 C 462.746 0.750083 -1.7913 0
M  V30 4881 O 462.021 1.54574 -1.18056 0
M  V30 4882 C 462.304 -1.16499 -3.40735 0
M  V30 4883 C 462.157 -2.695 -3.60125 0
M  V30 4884 C 463.476 -0.742166 -4.33797 0
M  V30 4885 H 460.595 -0.26269 -0.688595 0
M  V30 4886 H 463.237 -1.27333 -1.41018 0
M  V30 4887 H 461.387 -0.69341 -3.82262 0
M  V30 4888 H 463.059 -3.24569 -3.278 0
M  V30 4889 H 461.302 -3.10113 -3.03336 0
M  V30 4890 H 461.973 -2.95757 -4.66081 0
M  V30 4891 H 464.449 -1.1477 -3.99959 0
M  V30 4892 H 463.325 -1.08213 -5.38127 0
M  V30 4893 H 463.586 0.355747 -4.40666 0
M  V30 4894 N 462.645 1.35699 -0.801477 0
M  V30 4895 C 463.891 1.99208 -0.380022 0
M  V30 4896 C 464.224 1.63445 1.04878 0
M  V30 4897 O 463.499 0.895223 1.72673 0
M  V30 4898 C 463.782 3.55755 -0.557708 0
M  V30 4899 C 463.635 4.01332 -2.03107 0
M  V30 4900 C 464.954 4.40096 0.0197968 0
M  V30 4901 H 462.073 0.723667 -0.139552 0
M  V30 4902 H 464.715 1.60928 -1.01006 0
M  V30 4903 H 462.865 3.88494 -0.0213741 0
M  V30 4904 H 464.537 3.79026 -2.62939 0
M  V30 4905 H 462.78 3.52429 -2.52936 0
M  V30 4906 H 463.451 5.10234 -2.1063 0
M  V30 4907 H 465.927 4.13786 -0.438179 0
M  V30 4908 H 464.803 5.48735 -0.134477 0
M  V30 4909 H 465.064 4.2786 1.11303 0
M  V30 4910 N 464.123 0.554532 1.47522 0
M  V30 4911 C 465.371 0.0294208 2.02079 0
M  V30 4912 C 465.692 -1.32411 1.43151 0
M  V30 4913 O 464.962 -1.863 0.605728 0
M  V30 4914 H 463.542 0.00788672 0.746958 0
M  V30 4915 H 466.204 0.723934 1.80956 0
M  V30 4916 H 465.3 -0.0606745 3.12041 0
M  V30 4917 N 465.601 -1.54893 0.290851 0
M  V30 4918 C 466.849 -1.99538 -0.320756 0
M  V30 4919 C 467.17 -1.18075 -1.55188 0
M  V30 4920 O 466.44 -0.274162 -1.93972 0
M  V30 4921 H 465.02 -0.737052 -0.121507 0
M  V30 4922 H 467.682 -1.90755 0.399832 0
M  V30 4923 H 466.778 -3.06282 -0.599802 0
M  V30 4924 N 467.08 -0.0183926 -1.57589 0
M  V30 4925 C 468.308 0.673046 -1.95647 0
M  V30 4926 C 468.723 1.66275 -0.894312 0
M  V30 4927 O 468.08 1.82072 0.124975 0
M  V30 4928 C 468.131 1.38884 -3.33756 0
M  V30 4929 O 467.852 0.438806 -4.35897 0
M  V30 4930 C 469.353 2.1731 -3.86383 0
M  V30 4931 H 466.573 0.186292 -0.644621 0
M  V30 4932 H 469.117 -0.0749748 -2.04363 0
M  V30 4933 H 467.272 2.08835 -3.26293 0
M  V30 4934 H 467.686 0.945869 -5.15901 0
M  V30 4935 H 469.16 2.62863 -4.85394 0
M  V30 4936 H 469.637 3.00764 -3.20059 0
M  V30 4937 H 470.243 1.52339 -3.97081 0
M  V30 4938 N 468.558 1.5553 0.254621 0
M  V30 4939 C 469.807 1.76202 0.981612 0
M  V30 4940 C 470.12 0.580883 1.86776 0
M  V30 4941 O 471.326 0.670448 2.63092 0
M  V30 4942 C 469.782 3.11921 1.79537 0
M  V30 4943 C 469.39 4.37659 0.956991 0
M  V30 4944 C 471.134 3.41936 2.51555 0
M  V30 4945 C 469.041 5.64411 1.76619 0
M  V30 4946 H 467.971 0.656841 0.370237 0
M  V30 4947 H 470.622 1.81969 0.236556 0
M  V30 4948 H 469.004 3.00241 2.58208 0
M  V30 4949 H 470.178 4.60307 0.21315 0
M  V30 4950 H 468.493 4.14922 0.350497 0
M  V30 4951 H 471.09 4.33849 3.12536 0
M  V30 4952 H 471.433 2.62905 3.22779 0
M  V30 4953 H 471.966 3.54797 1.799 0
M  V30 4954 H 468.705 6.46241 1.09783 0
M  V30 4955 H 468.225 5.45877 2.48551 0
M  V30 4956 H 469.904 6.03386 2.33527 0
M  V30 4957 N 470.036 -0.519951 1.48776 0
M  V30 4958 C 471.284 -1.2727 1.56993 0
M  V30 4959 C 471.605 -1.9339 0.25004 0
M  V30 4960 O 470.875 -1.81822 -0.729216 0
M  V30 4961 H 469.455 -0.472732 0.578389 0
M  V30 4962 H 472.117 -0.604234 1.85297 0
M  V30 4963 H 471.213 -2.04669 2.3562 0
M  V30 4964 N 471.514 -1.37532 -0.769588 0
M  V30 4965 C 472.761 -1.3286 -1.52822 0
M  V30 4966 C 473.089 0.0862597 -1.94309 0
M  V30 4967 O 472.344 1.05995 -1.6451 0
M  V30 4968 C 472.643 -2.21558 -2.8044 0
M  V30 4969 C 472.309 -3.69796 -2.57996 0
M  V30 4970 C 470.971 -4.10194 -2.51583 0
M  V30 4971 C 473.323 -4.63699 -2.37976 0
M  V30 4972 C 470.651 -5.42608 -2.23144 0
M  V30 4973 C 473.003 -5.96353 -2.1106 0
M  V30 4974 C 471.667 -6.35853 -2.03093 0
M  V30 4975 H 470.937 -0.486168 -0.559215 0
M  V30 4976 H 473.584 -1.69757 -0.886277 0
M  V30 4977 H 471.889 -1.77663 -3.49204 0
M  V30 4978 H 473.586 -2.15256 -3.38328 0
M  V30 4979 H 470.176 -3.37759 -2.63851 0
M  V30 4980 H 474.36 -4.33346 -2.41919 0
M  V30 4981 H 469.616 -5.72173 -2.15472 0
M  V30 4982 H 473.79 -6.68667 -1.94568 0
M  V30 4983 H 471.417 -7.38382 -1.8082 0
M  V30 4984 N 472.992 0.995999 -1.22138 0
M  V30 4985 C 473.955 2.06711 -0.990109 0
M  V30 4986 C 474.955 1.60744 0.0422978 0
M  V30 4987 O 476.145 1.73095 -0.195895 0
M  V30 4988 C 473.277 3.37288 -0.49491 0
M  V30 4989 H 474.47 2.28661 -1.94047 0
M  V30 4990 H 472.023 1.16711 -1.03963 0
M  V30 4991 H 472.758 3.21022 0.459948 0
M  V30 4992 H 472.543 3.71986 -1.23971 0
M  V30 4993 H 474.033 4.16103 -0.353253 0
M  V30 4994 N 474.47 1.03057 1.19235 0
M  V30 4995 C 475.4 0.633497 2.24742 0
M  V30 4996 C 476.381 -0.358335 1.66283 0
M  V30 4997 O 477.566 -0.240676 1.92703 0
M  V30 4998 C 474.696 -0.0147648 3.47297 0
M  V30 4999 C 473.65 0.899527 4.18441 0
M  V30 5000 C 472.976 0.116281 5.34574 0
M  V30 5001 C 474.276 2.21404 4.73051 0
M  V30 5002 H 475.97 1.5155 2.58211 0
M  V30 5003 H 473.516 0.73014 1.24117 0
M  V30 5004 H 475.469 -0.304202 4.20301 0
M  V30 5005 H 474.193 -0.931577 3.13032 0
M  V30 5006 H 472.852 1.17319 3.47321 0
M  V30 5007 H 472.5 -0.802619 4.96555 0
M  V30 5008 H 472.2 0.725293 5.83107 0
M  V30 5009 H 473.724 -0.166376 6.10373 0
M  V30 5010 H 475.138 1.98601 5.37802 0
M  V30 5011 H 473.535 2.77512 5.32078 0
M  V30 5012 H 474.605 2.86752 3.91026 0
M  V30 5013 N 475.948 -1.35272 0.808662 0
M  V30 5014 C 476.895 -2.29764 0.218482 0
M  V30 5015 C 477.865 -1.52911 -0.648652 0
M  V30 5016 O 479.05 -1.81341 -0.593297 0
M  V30 5017 C 476.19 -3.39388 -0.625282 0
M  V30 5018 C 475.303 -4.31202 0.262516 0
M  V30 5019 C 474.438 -5.27919 -0.589451 0
M  V30 5020 C 473.477 -6.11371 0.298617 0
M  V30 5021 N 472.614 -7.0022 -0.513443 0
M  V30 5022 H 477.454 -2.79645 1.02968 0
M  V30 5023 H 474.991 -1.37629 0.519303 0
M  V30 5024 H 476.949 -4.01615 -1.12966 0
M  V30 5025 H 475.579 -2.90777 -1.40173 0
M  V30 5026 H 474.631 -3.69962 0.885013 0
M  V30 5027 H 475.943 -4.89748 0.945971 0
M  V30 5028 H 475.097 -5.95529 -1.15888 0
M  V30 5029 H 473.836 -4.69875 -1.30647 0
M  V30 5030 H 472.841 -5.42707 0.880301 0
M  V30 5031 H 474.066 -6.71494 1.01352 0
M  V30 5032 H 472.012 -6.44662 -1.21439 0
M  V30 5033 H 471.929 -7.55917 0.111922 0
M  V30 5034 H 473.197 -7.72175 -1.06608 0
M  V30 5035 N 477.426 -0.562348 -1.47226 0
M  V30 5036 C 478.389 0.172056 -2.28553 0
M  V30 5037 C 479.389 0.837928 -1.37242 0
M  V30 5038 O 480.579 0.693001 -1.59822 0
M  V30 5039 C 477.711 1.25223 -3.17068 0
M  V30 5040 H 478.904 -0.542401 -2.94954 0
M  V30 5041 H 476.457 -0.319493 -1.53 0
M  V30 5042 H 477.192 1.99892 -2.55369 0
M  V30 5043 H 476.977 0.779515 -3.84273 0
M  V30 5044 H 478.467 1.76791 -3.78332 0
M  V30 5045 N 478.904 1.54736 -0.299062 0
M  V30 5046 C 480.152 1.99706 0.31017 0
M  V30 5047 C 480.473 1.18896 1.54559 0
M  V30 5048 O 479.743 0.284445 1.93824 0
M  V30 5049 H 478.323 0.737686 0.117596 0
M  V30 5050 H 480.985 1.9054 -0.409943 0
M  V30 5051 H 480.081 3.06596 0.58355 0
M  V30 5052 N 480.382 0.0267497 1.57577 0
M  V30 5053 C 481.314 -0.984594 2.06974 0
M  V30 5054 C 482.327 -1.29032 0.992705 0
M  V30 5055 O 483.516 -1.25539 1.26895 0
M  V30 5056 C 480.616 -2.31262 2.47732 0
M  V30 5057 C 479.789 -2.1924 3.78487 0
M  V30 5058 C 478.848 -3.34956 4.05821 0
M  V30 5059 O 477.874 -3.11948 4.76106 0
M  V30 5060 N 479.076 -4.58672 3.55809 0
M  V30 5061 H 481.841 -0.563143 2.94362 0
M  V30 5062 H 479.402 -0.160061 1.61107 0
M  V30 5063 H 481.394 -3.07496 2.63112 0
M  V30 5064 H 479.964 -2.65056 1.65723 0
M  V30 5065 H 479.184 -1.27747 3.72927 0
M  V30 5066 H 480.472 -2.08409 4.64158 0
M  V30 5067 H 479.87 -4.8026 2.98942 0
M  V30 5068 H 478.427 -5.32083 3.76472 0
M  V30 5069 N 481.861 -1.55662 -0.24637 0
M  V30 5070 C 483.11 -1.7672 -0.972254 0
M  V30 5071 C 483.423 -0.59078 -1.86465 0
M  V30 5072 O 484.629 -0.684391 -2.62732 0
M  V30 5073 C 483.085 -3.12869 -1.7788 0
M  V30 5074 C 482.693 -4.38161 -0.933768 0
M  V30 5075 C 484.437 -3.43265 -2.49738 0
M  V30 5076 C 482.344 -5.6534 -1.73623 0
M  V30 5077 H 481.274 -0.658795 -0.366749 0
M  V30 5078 H 483.925 -1.82092 -0.226902 0
M  V30 5079 H 482.307 -3.01606 -2.56612 0
M  V30 5080 H 483.481 -4.60413 -0.188736 0
M  V30 5081 H 481.796 -4.15102 -0.328488 0
M  V30 5082 H 484.393 -4.35501 -3.10231 0
M  V30 5083 H 484.736 -2.64614 -3.2138 0
M  V30 5084 H 485.269 -3.55746 -1.78016 0
M  V30 5085 H 482.008 -6.46814 -1.06354 0
M  V30 5086 H 481.528 -5.47188 -2.45653 0
M  V30 5087 H 483.207 -6.04616 -2.30323 0
M  V30 5088 N 483.339 0.512053 -1.4905 0
M  V30 5089 C 484.75 1.09376 -1.51307 0
M  V30 5090 C 485.101 1.94 -0.292971 0
M  V30 5091 O 484.226 2.07965 0.598277 0
M  V30 5092 C 484.821 1.99031 -2.74176 0
M  V30 5093 C 483.38 2.52385 -2.79247 0
M  V30 5094 C 482.527 1.29749 -2.45073 0
M  V30 5095 H 485.478 0.296467 -1.55906 0
M  V30 5096 H 485.499 2.83569 -2.53711 0
M  V30 5097 H 485.011 1.37412 -3.62959 0
M  V30 5098 H 483.112 3.17673 -1.94716 0
M  V30 5099 H 483.225 2.90293 -3.81139 0
M  V30 5100 H 481.589 1.61912 -1.96612 0
M  V30 5101 H 482.372 0.698555 -3.36118 0
M  V30 5102 N 484.817 1.37938 0.762283 0
M  V30 5103 C 486.065 1.33404 1.51815 0
M  V30 5104 C 486.386 -0.0780975 1.94844 0
M  V30 5105 O 485.656 -1.02405 1.67003 0
M  V30 5106 H 484.236 0.490839 0.563104 0
M  V30 5107 H 486.898 1.72527 0.906669 0
M  V30 5108 H 485.994 1.97926 2.41313 0
M  V30 5109 N 486.295 -0.989507 1.22664 0
M  V30 5110 C 487.542 -1.72953 1.05325 0
M  V30 5111 C 487.87 -1.90104 -0.411168 0
M  V30 5112 O 487.125 -1.44386 -1.32103 0
M  V30 5113 C 487.424 -3.13649 1.71345 0
M  V30 5114 C 487.09 -3.16403 3.21248 0
M  V30 5115 C 485.752 -3.16862 3.62149 0
M  V30 5116 C 488.104 -3.12428 4.17179 0
M  V30 5117 C 485.432 -3.11051 4.97458 0
M  V30 5118 C 487.784 -3.08159 5.52468 0
M  V30 5119 C 486.448 -3.06935 5.92746 0
M  V30 5120 H 485.718 -0.632881 0.385412 0
M  V30 5121 H 488.365 -1.15863 1.52473 0
M  V30 5122 H 486.67 -3.74069 1.16532 0
M  V30 5123 H 488.367 -3.69658 1.55416 0
M  V30 5124 H 484.957 -3.16798 2.88682 0
M  V30 5125 H 489.141 -3.11221 3.86595 0
M  V30 5126 H 484.397 -3.0845 5.27891 0
M  V30 5127 H 488.571 -3.04039 6.26525 0
M  V30 5128 H 486.198 -3.02186 6.97558 0
M  V30 5129 N 487.773 -1.03688 -1.18687 0
M  V30 5130 C 489.189 -0.755413 -1.4059 0
M  V30 5131 C 489.389 0.656659 -1.905 0
M  V30 5132 O 488.445 1.42144 -2.08689 0
M  V30 5133 C 489.758 -1.7983 -2.41001 0
M  V30 5134 C 491.306 -1.81877 -2.54735 0
M  V30 5135 C 491.781 -2.85148 -3.58406 0
M  V30 5136 N 493.272 -2.84015 -3.6591 0
M  V30 5137 C 494.007 -3.60573 -4.45841 0
M  V30 5138 N 493.503 -4.46871 -5.29413 0
M  V30 5139 N 495.296 -3.49079 -4.40568 0
M  V30 5140 H 487.447 -1.94818 -0.846148 0
M  V30 5141 H 489.71 -0.842727 -0.434184 0
M  V30 5142 H 489.416 -2.81097 -2.1137 0
M  V30 5143 H 489.29 -1.62727 -3.40294 0
M  V30 5144 H 491.677 -0.812836 -2.83685 0
M  V30 5145 H 491.758 -2.03057 -1.55568 0
M  V30 5146 H 491.402 -3.85918 -3.30197 0
M  V30 5147 H 491.332 -2.61224 -4.57241 0
M  V30 5148 H 493.823 -2.21431 -3.0623 0
M  V30 5149 H 494.136 -5.02007 -5.87545 0
M  V30 5150 H 492.481 -4.5094 -5.28846 0
M  V30 5151 H 495.672 -2.81066 -3.74325 0
M  V30 5152 H 495.845 -4.08994 -5.02621 0
M  V30 5153 N 489.251 1.34841 -0.815825 0
M  V30 5154 C 490.161 2.33425 -0.234462 0
M  V30 5155 C 491.177 1.62295 0.627413 0
M  V30 5156 O 492.353 1.94109 0.536987 0
M  V30 5157 C 489.418 3.41471 0.599849 0
M  V30 5158 C 488.479 4.28362 -0.283596 0
M  V30 5159 C 487.712 5.31248 0.51099 0
M  V30 5160 O 487.935 5.43056 1.7449 0
M  V30 5161 O 486.869 6.01812 -0.10297 0
M  V30 5162 H 490.695 2.84962 -1.05024 0
M  V30 5163 H 488.28 1.37774 -0.577809 0
M  V30 5164 H 490.162 4.07464 1.07475 0
M  V30 5165 H 488.837 2.9219 1.39308 0
M  V30 5166 H 487.744 3.65318 -0.805836 0
M  V30 5167 H 489.077 4.81066 -1.041 0
M  V30 5168 N 490.729 0.570148 1.46925 0
M  V30 5169 C 491.976 0.0509529 2.02436 0
M  V30 5170 C 492.304 -1.30405 1.44308 0
M  V30 5171 O 491.559 -1.86493 0.593198 0
M  V30 5172 C 491.858 -0.0780336 3.57315 0
M  V30 5173 C 491.524 1.20775 4.34424 0
M  V30 5174 C 490.186 1.56004 4.5521 0
M  V30 5175 C 492.538 2.0592 4.78797 0
M  V30 5176 C 489.866 2.76201 5.17619 0
M  V30 5177 C 492.218 3.25332 5.42533 0
M  V30 5178 C 490.882 3.60859 5.61549 0
M  V30 5179 H 490.152 0.018645 0.740765 0
M  V30 5180 H 492.799 0.744262 1.76445 0
M  V30 5181 H 491.104 -0.854394 3.82371 0
M  V30 5182 H 492.801 -0.495312 3.97929 0
M  V30 5183 H 489.391 0.923469 4.18533 0
M  V30 5184 H 493.575 1.80008 4.62505 0
M  V30 5185 H 488.831 3.0388 5.30535 0
M  V30 5186 H 493.005 3.91586 5.75876 0
M  V30 5187 H 490.632 4.54088 6.09678 0
M  V30 5188 N 492.207 -1.54576 0.307264 0
M  V30 5189 C 493.137 -2.26708 -0.55907 0
M  V30 5190 C 494.118 -1.26893 -1.1328 0
M  V30 5191 O 495.303 -1.55677 -1.16097 0
M  V30 5192 C 492.433 -3.01259 -1.72801 0
M  V30 5193 C 491.387 -4.08275 -1.28435 0
M  V30 5194 C 490.713 -4.70575 -2.53895 0
M  V30 5195 C 492.013 -5.2068 -0.411038 0
M  V30 5196 H 493.707 -2.9937 0.042576 0
M  V30 5197 H 491.253 -1.43983 0.0219173 0
M  V30 5198 H 493.206 -3.50444 -2.34023 0
M  V30 5199 H 491.93 -2.26187 -2.356 0
M  V30 5200 H 490.589 -3.59949 -0.695161 0
M  V30 5201 H 490.237 -3.92136 -3.15021 0
M  V30 5202 H 489.937 -5.42854 -2.24908 0
M  V30 5203 H 491.461 -5.22527 -3.15908 0
M  V30 5204 H 492.875 -5.65721 -0.929097 0
M  V30 5205 H 491.272 -5.99716 -0.214664 0
M  V30 5206 H 492.342 -4.81629 0.562287 0
M  V30 5207 N 493.685 -0.035106 -1.57561 0
M  V30 5208 C 494.632 0.94474 -2.10578 0
M  V30 5209 C 495.602 1.3192 -1.00927 0
M  V30 5210 O 496.787 1.41147 -1.28382 0
M  V30 5211 C 493.927 2.21982 -2.64231 0
M  V30 5212 C 493.04 1.90128 -3.87911 0
M  V30 5213 C 492.175 3.11975 -4.29936 0
M  V30 5214 C 491.214 2.75968 -5.46359 0
M  V30 5215 N 490.351 3.90459 -5.83512 0
M  V30 5216 H 495.191 0.485717 -2.94015 0
M  V30 5217 H 492.728 0.228143 -1.4532 0
M  V30 5218 H 494.686 2.96572 -2.9343 0
M  V30 5219 H 493.316 2.6549 -1.83616 0
M  V30 5220 H 492.368 1.05755 -3.65404 0
M  V30 5221 H 493.68 1.59613 -4.72573 0
M  V30 5222 H 492.834 3.9488 -4.60603 0
M  V30 5223 H 491.573 3.45657 -3.44053 0
M  V30 5224 H 490.578 1.91478 -5.1538 0
M  V30 5225 H 491.803 2.43497 -6.33945 0
M  V30 5226 H 489.749 4.23971 -5.00584 0
M  V30 5227 H 489.666 3.63588 -6.62827 0
M  V30 5228 H 490.934 4.7405 -6.18787 0
M  V30 5229 N 495.163 1.55791 0.238111 0
M  V30 5230 C 496.11 1.9105 1.29493 0
M  V30 5231 C 497.08 0.765733 1.47397 0
M  V30 5232 O 498.265 1.02017 1.61236 0
M  V30 5233 C 495.405 2.21826 2.64362 0
M  V30 5234 C 494.518 3.49153 2.54394 0
M  V30 5235 C 493.653 3.69455 3.81676 0
M  V30 5236 C 492.692 4.90353 3.66361 0
M  V30 5237 N 491.829 5.07131 4.85554 0
M  V30 5238 H 496.669 2.81172 0.987233 0
M  V30 5239 H 494.206 1.39179 0.476203 0
M  V30 5240 H 496.164 2.37675 3.4288 0
M  V30 5241 H 494.794 1.34897 2.93262 0
M  V30 5242 H 493.846 3.41587 1.67399 0
M  V30 5243 H 495.158 4.37818 2.38991 0
M  V30 5244 H 494.312 3.85311 4.68636 0
M  V30 5245 H 493.051 2.7904 3.99985 0
M  V30 5246 H 492.056 4.74464 2.77784 0
M  V30 5247 H 493.281 5.82237 3.49538 0
M  V30 5248 H 491.227 4.19654 5.04209 0
M  V30 5249 H 491.144 5.89899 4.72816 0
M  V30 5250 H 492.412 5.27407 5.73988 0
M  V30 5251 N 496.642 -0.504142 1.49319 0
M  V30 5252 C 497.888 -1.26033 1.58882 0
M  V30 5253 C 498.221 -1.92268 0.273274 0
M  V30 5254 O 497.496 -1.80567 -0.72291 0
M  V30 5255 C 497.779 -2.32976 2.7458 0
M  V30 5256 C 497.632 -1.71263 4.1592 0
M  V30 5257 C 498.951 -3.34561 2.85932 0
M  V30 5258 H 496.07 -0.456863 0.578312 0
M  V30 5259 H 498.712 -0.558965 1.81592 0
M  V30 5260 H 496.862 -2.92796 2.55348 0
M  V30 5261 H 498.534 -1.15294 4.4666 0
M  V30 5262 H 496.777 -1.01686 4.21714 0
M  V30 5263 H 497.448 -2.48816 4.92742 0
M  V30 5264 H 499.924 -2.84727 3.0343 0
M  V30 5265 H 498.8 -4.06754 3.68568 0
M  V30 5266 H 499.061 -3.96695 1.95154 0
M  V30 5267 N 498.12 -1.38341 -0.754957 0
M  V30 5268 C 499.07 -1.31964 -1.85929 0
M  V30 5269 C 500.054 -0.204181 -1.59599 0
M  V30 5270 O 501.246 -0.440036 -1.71443 0
M  V30 5271 C 498.375 -1.14565 -3.2362 0
M  V30 5272 C 497.461 -2.30727 -3.55846 0
M  V30 5273 N 497.852 -3.56165 -3.59138 0
M  V30 5274 C 496.15 -2.23249 -3.86104 0
M  V30 5275 C 496.851 -4.32865 -3.88591 0
M  V30 5276 N 495.827 -3.62203 -4.05351 0
M  V30 5277 H 499.629 -2.2694 -1.8675 0
M  V30 5278 H 497.143 -1.31553 -0.952243 0
M  V30 5279 H 499.14 -1.0808 -4.02647 0
M  V30 5280 H 497.8 -0.205212 -3.24051 0
M  V30 5281 H 498.811 -3.89854 -3.40932 0
M  V30 5282 H 495.488 -1.37357 -3.94258 0
M  V30 5283 H 496.878 -5.41504 -3.97773 0
M  V30 5284 N 499.598 0.982988 -1.23187 0
M  V30 5285 C 501.009 1.53847 -1.05773 0
M  V30 5286 C 501.36 1.92568 0.375744 0
M  V30 5287 O 500.485 1.75783 1.26211 0
M  V30 5288 C 501.08 2.79567 -1.91384 0
M  V30 5289 C 499.639 3.31524 -1.78238 0
M  V30 5290 C 498.786 2.04534 -1.87246 0
M  V30 5291 H 501.737 0.802962 -1.36888 0
M  V30 5292 H 501.758 3.52317 -1.43711 0
M  V30 5293 H 501.27 2.51353 -2.95708 0
M  V30 5294 H 499.371 3.64623 -0.766875 0
M  V30 5295 H 499.484 4.01457 -2.61475 0
M  V30 5296 H 497.848 2.1855 -1.30797 0
M  V30 5297 H 498.631 1.78706 -2.9312 0
M  V30 5298 N 501.076 1.04316 1.18135 0
M  V30 5299 C 502.492 0.762858 1.40188 0
M  V30 5300 C 502.692 -0.646547 1.90846 0
M  V30 5301 O 501.748 -1.41036 2.0944 0
M  V30 5302 C 503.061 1.81106 2.40044 0
M  V30 5303 C 504.609 1.83226 2.53766 0
M  V30 5304 C 505.084 2.87044 3.56889 0
M  V30 5305 N 506.575 2.85951 3.64398 0
M  V30 5306 C 507.31 3.62932 4.43923 0
M  V30 5307 N 506.806 4.49672 5.27036 0
M  V30 5308 N 508.599 3.51411 4.38711 0
M  V30 5309 H 500.75 1.95264 0.835805 0
M  V30 5310 H 503.013 0.845017 0.429709 0
M  V30 5311 H 502.719 2.82214 2.09876 0
M  V30 5312 H 502.593 1.64529 3.39426 0
M  V30 5313 H 504.98 0.827869 2.8325 0
M  V30 5314 H 505.061 2.03879 1.54489 0
M  V30 5315 H 504.705 3.87663 3.28145 0
M  V30 5316 H 504.635 2.63645 4.5585 0
M  V30 5317 H 507.126 2.23051 3.05052 0
M  V30 5318 H 507.439 5.05116 5.84874 0
M  V30 5319 H 505.784 4.53738 5.26447 0
M  V30 5320 H 508.975 2.83047 3.72829 0
M  V30 5321 H 509.148 4.11654 5.00445 0
M  V30 5322 N 502.554 -1.34406 0.822964 0
M  V30 5323 C 503.501 -2.29519 0.24284 0
M  V30 5324 C 504.471 -1.5359 -0.632397 0
M  V30 5325 O 505.656 -1.8196 -0.57403 0
M  V30 5326 C 502.796 -3.40032 -0.58925 0
M  V30 5327 C 501.909 -4.30899 0.308236 0
M  V30 5328 C 501.044 -5.28515 -0.533425 0
M  V30 5329 C 500.083 -6.1102 0.363444 0
M  V30 5330 N 499.22 -7.00725 -0.439147 0
M  V30 5331 H 504.06 -2.78537 1.05929 0
M  V30 5332 H 501.597 -1.3707 0.533872 0
M  V30 5333 H 503.555 -4.0279 -1.087 0
M  V30 5334 H 502.185 -2.92248 -1.37081 0
M  V30 5335 H 501.237 -3.69002 0.924203 0
M  V30 5336 H 502.549 -4.88717 0.997862 0
M  V30 5337 H 501.703 -5.96725 -1.09565 0
M  V30 5338 H 500.442 -4.71235 -1.25656 0
M  V30 5339 H 499.447 -5.41743 0.937812 0
M  V30 5340 H 500.672 -6.70381 1.08469 0
M  V30 5341 H 498.618 -6.45913 -1.14595 0
M  V30 5342 H 498.535 -7.55756 0.19209 0
M  V30 5343 H 499.803 -7.73263 -0.984124 0
M  V30 5344 N 504.032 -0.577932 -1.46621 0
M  V30 5345 C 505.257 -0.0652536 -2.07297 0
M  V30 5346 C 505.682 1.22828 -1.4246 0
M  V30 5347 O 505.04 1.74075 -0.506718 0
M  V30 5348 C 505.088 0.0920589 -3.60482 0
M  V30 5349 O 504.192 1.14972 -3.96049 0
M  V30 5350 H 503.533 -0.06065 -0.661224 0
M  V30 5351 H 506.063 -0.799515 -1.88332 0
M  V30 5352 H 506.073 0.299741 -4.06897 0
M  V30 5353 H 504.748 -0.852612 -4.07067 0
M  V30 5354 H 503.325 0.920879 -3.61351 0
M  V30 5355 N 505.51 1.54411 -0.315457 0
M  V30 5356 C 506.756 2.00716 0.289972 0
M  V30 5357 C 507.089 1.2034 1.5242 0
M  V30 5358 O 506.364 0.283579 1.92422 0
M  V30 5359 C 506.647 3.54507 0.632196 0
M  V30 5360 C 506.5 4.45615 -0.61218 0
M  V30 5361 C 507.819 4.15421 1.45305 0
M  V30 5362 H 504.938 0.729637 0.10392 0
M  V30 5363 H 507.58 1.8506 -0.430427 0
M  V30 5364 H 505.73 3.67979 1.24595 0
M  V30 5365 H 507.402 4.44026 -1.25053 0
M  V30 5366 H 505.645 4.15621 -1.24264 0
M  V30 5367 H 506.316 5.51022 -0.328379 0
M  V30 5368 H 508.792 4.05474 0.934331 0
M  V30 5369 H 507.668 5.23157 1.66127 0
M  V30 5370 H 507.929 3.68223 2.44671 0
M  V30 5371 N 506.988 0.0434614 1.5754 0
M  V30 5372 C 507.938 -0.943039 2.07583 0
M  V30 5373 C 508.922 -1.27662 0.979342 0
M  V30 5374 O 510.114 -1.26034 1.24276 0
M  V30 5375 C 507.243 -2.22056 2.61813 0
M  V30 5376 C 506.329 -1.91471 3.78417 0
M  V30 5377 N 506.72 -1.31214 4.88484 0
M  V30 5378 C 505.018 -2.21384 3.87176 0
M  V30 5379 C 505.719 -1.18084 5.69588 0
M  V30 5380 N 504.695 -1.68116 5.16951 0
M  V30 5381 H 508.497 -0.472354 2.90079 0
M  V30 5382 H 506.011 -0.161191 1.61598 0
M  V30 5383 H 508.008 -2.93618 2.95963 0
M  V30 5384 H 506.668 -2.69738 1.80752 0
M  V30 5385 H 507.679 -0.985318 5.08441 0
M  V30 5386 H 504.356 -2.7164 3.17046 0
M  V30 5387 H 505.746 -0.713684 6.68099 0
M  V30 5388 N 508.466 -1.55915 -0.229846 0
M  V30 5389 C 509.414 -1.9258 -1.30444 0
M  V30 5390 C 510.408 -0.806839 -1.48951 0
M  V30 5391 O 511.614 -0.991606 -1.50224 0
M  V30 5392 H 507.989 -0.611878 -0.437161 0
M  V30 5393 H 509.96 -2.82264 -0.96797 0
M  V30 5394 C 508.709 -2.25171 -2.6494 0
M  V30 5395 H 508.032 -3.10782 -2.51504 0
M  V30 5396 H 509.472 -2.54716 -3.38963 0
M  V30 5397 C 507.931 -1.07394 -3.19324 0
M  V30 5398 O 508.461 -0.330759 -4.00336 0
M  V30 5399 N 506.667 -0.859984 -2.77584 0
M  V30 5400 H 506.214 -1.46605 -2.11813 0
M  V30 5401 H 506.172 -0.0736671 -3.14314 0
M  V30 5402 N 509.944 0.496216 -1.49584 0
M  V30 5403 C 511.192 1.24756 -1.58998 0
M  V30 5404 C 511.513 1.92968 -0.280775 0
M  V30 5405 O 510.783 1.82959 0.700198 0
M  V30 5406 H 509.363 0.463471 -0.585836 0
M  V30 5407 H 512.025 0.574678 -1.86235 0
M  V30 5408 H 511.121 2.00895 -2.38847 0
M  V30 5409 N 511.423 1.38739 0.74761 0
M  V30 5410 C 512.67 1.35274 1.50689 0
M  V30 5411 C 512.998 -0.0553359 1.94421 0
M  V30 5412 O 512.253 -1.03365 1.66175 0
M  V30 5413 C 512.552 2.25992 2.7688 0
M  V30 5414 C 512.218 3.73854 2.5208 0
M  V30 5415 C 510.88 4.14145 2.45025 0
M  V30 5416 C 513.232 4.67427 2.30568 0
M  V30 5417 C 510.56 5.4609 2.14483 0
M  V30 5418 C 512.912 5.99635 2.01545 0
M  V30 5419 C 511.576 6.39004 1.92951 0
M  V30 5420 H 510.846 0.495003 0.55141 0
M  V30 5421 H 513.493 1.71145 0.859158 0
M  V30 5422 H 511.798 1.83196 3.46333 0
M  V30 5423 H 513.495 2.20611 3.34861 0
M  V30 5424 H 510.085 3.41913 2.58444 0
M  V30 5425 H 514.269 4.3714 2.34994 0
M  V30 5426 H 509.525 5.75528 2.06342 0
M  V30 5427 H 513.699 6.71678 1.83906 0
M  V30 5428 H 511.326 7.41165 1.6905 0
M  V30 5429 N 512.901 -0.976442 1.23707 0
M  V30 5430 C 513.864 -2.0511 1.02287 0
M  V30 5431 C 514.864 -1.60791 -0.0167195 0
M  V30 5432 O 516.054 -1.72761 0.223408 0
M  V30 5433 C 513.186 -3.36458 0.548507 0
M  V30 5434 H 514.379 -2.25545 1.9766 0
M  V30 5435 H 511.932 -1.15042 1.05806 0
M  V30 5436 H 512.667 -3.21713 -0.408818 0
M  V30 5437 H 512.452 -3.69967 1.29874 0
M  V30 5438 H 513.942 -4.15489 0.419406 0
M  V30 5439 N 514.379 -1.04941 -1.1758 0
M  V30 5440 C 515.326 -0.648155 -2.21512 0
M  V30 5441 C 516.296 0.348431 -1.62404 0
M  V30 5442 O 517.481 0.240419 -1.89279 0
M  V30 5443 C 514.621 -0.0264291 -3.4509 0
M  V30 5444 C 513.734 -1.07154 -4.185 0
M  V30 5445 C 512.869 -0.417403 -5.29558 0
M  V30 5446 C 511.908 -1.447 -5.94751 0
M  V30 5447 N 511.045 -0.817203 -6.97328 0
M  V30 5448 H 515.885 -1.53891 -2.55189 0
M  V30 5449 H 513.422 -0.769699 -1.25356 0
M  V30 5450 H 515.38 0.351456 -4.15717 0
M  V30 5451 H 514.01 0.827802 -3.12005 0
M  V30 5452 H 513.062 -1.56728 -3.46613 0
M  V30 5453 H 514.374 -1.8532 -4.63096 0
M  V30 5454 H 513.528 0.0142061 -6.06698 0
M  V30 5455 H 512.267 0.396265 -4.86087 0
M  V30 5456 H 511.272 -1.88865 -5.16343 0
M  V30 5457 H 512.497 -2.26252 -6.40302 0
M  V30 5458 H 510.443 -0.0239995 -6.55996 0
M  V30 5459 H 510.36 -1.53644 -7.40223 0
M  V30 5460 H 511.628 -0.410283 -7.7842 0
M  V30 5461 N 515.857 1.33968 -0.830081 0
M  V30 5462 C 516.767 2.33164 -0.259207 0
M  V30 5463 C 517.783 1.62951 0.610164 0
M  V30 5464 O 518.959 1.94668 0.516369 0
M  V30 5465 C 516.024 3.42088 0.563598 0
M  V30 5466 C 515.085 4.28037 -0.329014 0
M  V30 5467 C 514.318 5.3176 0.454616 0
M  V30 5468 O 514.541 5.44876 1.6872 0
M  V30 5469 O 513.475 6.01669 -0.166794 0
M  V30 5470 H 517.301 2.83832 -1.08041 0
M  V30 5471 H 514.886 1.37154 -0.59239 0
M  V30 5472 H 516.768 4.08581 1.03147 0
M  V30 5473 H 515.443 2.93651 1.36201 0
M  V30 5474 H 514.35 3.64443 -0.844538 0
M  V30 5475 H 515.683 4.79934 -1.09196 0
M  V30 5476 N 517.335 0.585699 1.46312 0
M  V30 5477 C 518.582 0.0724211 2.0237 0
M  V30 5478 C 518.91 -1.28868 1.45683 0
M  V30 5479 O 518.165 -1.85853 0.612945 0
M  V30 5480 C 518.464 -0.0401312 3.57377 0
M  V30 5481 C 518.13 1.25376 4.33119 0
M  V30 5482 C 516.792 1.60824 4.5353 0
M  V30 5483 C 519.144 2.10987 4.76586 0
M  V30 5484 C 516.472 2.81676 5.14661 0
M  V30 5485 C 518.824 3.31068 5.39052 0
M  V30 5486 C 517.488 3.66794 5.5769 0
M  V30 5487 H 516.758 0.0265007 0.740526 0
M  V30 5488 H 519.405 0.762935 1.75646 0
M  V30 5489 H 517.71 -0.813791 3.83255 0
M  V30 5490 H 519.407 -0.453078 3.98432 0
M  V30 5491 H 515.997 0.967808 4.1753 0
M  V30 5492 H 520.181 1.84904 4.60569 0
M  V30 5493 H 515.437 3.0949 5.27282 0
M  V30 5494 H 519.611 3.97672 5.71691 0
M  V30 5495 H 517.238 4.60529 6.04828 0
M  V30 5496 N 518.813 -1.54241 0.323641 0
M  V30 5497 C 520.059 -2.01572 -0.272089 0
M  V30 5498 C 520.414 -1.20774 -1.49771 0
M  V30 5499 O 519.707 -0.281821 -1.89516 0
M  V30 5500 C 519.901 -3.5129 -0.658031 0
M  V30 5501 C 519.73 -4.46582 0.528645 0
M  V30 5502 C 518.5 -4.94737 1.02777 0
M  V30 5503 C 520.698 -4.95416 1.38086 0
M  V30 5504 N 518.68 -5.73933 2.17885 0
M  V30 5505 C 520.051 -5.72537 2.3791 0
M  V30 5506 C 522.106 -4.77559 1.40861 0
M  V30 5507 C 520.809 -6.33702 3.40314 0
M  V30 5508 C 522.835 -5.39559 2.42136 0
M  V30 5509 C 522.197 -6.16532 3.40688 0
M  V30 5510 H 518.296 -0.779425 -0.0634072 0
M  V30 5511 H 520.88 -1.8922 0.458697 0
M  V30 5512 H 519.051 -3.63888 -1.35795 0
M  V30 5513 H 520.783 -3.85388 -1.23524 0
M  V30 5514 H 517.538 -4.69796 0.599046 0
M  V30 5515 H 517.962 -6.18209 2.75947 0
M  V30 5516 H 522.604 -4.17611 0.660352 0
M  V30 5517 H 520.322 -6.9277 4.16047 0
M  V30 5518 H 523.908 -5.27659 2.45086 0
M  V30 5519 H 522.788 -6.63655 4.1777 0
M  V30 5520 N 520.291 -0.0518155 -1.57515 0
M  V30 5521 C 521.201 0.937539 -2.15052 0
M  V30 5522 C 522.217 1.34121 -1.10849 0
M  V30 5523 O 523.393 1.418 -1.4302 0
M  V30 5524 C 520.458 2.19379 -2.68466 0
M  V30 5525 C 519.519 1.84841 -3.87469 0
M  V30 5526 C 518.752 3.04477 -4.38326 0
M  V30 5527 O 518.975 4.17868 -3.88256 0
M  V30 5528 O 517.909 2.85453 -5.29906 0
M  V30 5529 H 521.735 0.478201 -2.99912 0
M  V30 5530 H 519.32 0.17012 -1.48428 0
M  V30 5531 H 521.202 2.93084 -3.02787 0
M  V30 5532 H 519.877 2.64449 -1.86677 0
M  V30 5533 H 518.784 1.08449 -3.58036 0
M  V30 5534 H 520.117 1.44569 -4.7049 0
M  V30 5535 N 521.769 1.56035 0.221574 0
M  V30 5536 C 522.679 1.95581 1.29558 0
M  V30 5537 C 523.695 0.859639 1.51282 0
M  V30 5538 O 524.871 1.16321 1.64413 0
M  V30 5539 C 521.936 2.26447 2.62531 0
M  V30 5540 C 520.997 3.49632 2.4911 0
M  V30 5541 C 520.23 3.79017 3.75742 0
M  V30 5542 O 520.453 3.10077 4.78757 0
M  V30 5543 O 519.387 4.72507 3.72855 0
M  V30 5544 H 523.213 2.8711 0.990035 0
M  V30 5545 H 520.798 1.43244 0.424434 0
M  V30 5546 H 522.68 2.47494 3.41064 0
M  V30 5547 H 521.355 1.38092 2.92766 0
M  V30 5548 H 520.262 3.33864 1.68777 0
M  V30 5549 H 521.595 4.3837 2.23814 0
M  V30 5550 N 523.247 -0.488276 1.49845 0
M  V30 5551 C 524.475 -1.26527 1.63702 0
M  V30 5552 C 524.89 -1.8618 0.313447 0
M  V30 5553 O 524.247 -1.68432 -0.702624 0
M  V30 5554 C 524.298 -2.3864 2.71538 0
M  V30 5555 O 524.019 -1.81437 3.98763 0
M  V30 5556 C 525.52 -3.29805 2.96215 0
M  V30 5557 H 522.74 -0.383295 0.55075 0
M  V30 5558 H 525.284 -0.584779 1.95961 0
M  V30 5559 H 523.439 -3.02496 2.42023 0
M  V30 5560 H 523.853 -2.55135 4.58265 0
M  V30 5561 H 525.327 -4.04722 3.75372 0
M  V30 5562 H 525.804 -3.87563 2.06619 0
M  V30 5563 H 526.41 -2.71703 3.27196 0
M  V30 5564 N 524.725 -1.39134 -0.740242 0
M  V30 5565 C 525.972 -1.36071 -1.49969 0
M  V30 5566 C 526.3 0.0450245 -1.94448 0
M  V30 5567 O 525.555 1.02482 -1.66721 0
M  V30 5568 C 525.854 -2.27457 -2.75678 0
M  V30 5569 C 525.52 -3.75185 -2.50094 0
M  V30 5570 C 524.182 -4.15439 -2.42825 0
M  V30 5571 C 526.534 -4.68643 -2.28086 0
M  V30 5572 C 523.862 -5.4722 -2.11584 0
M  V30 5573 C 526.214 -6.00695 -1.98363 0
M  V30 5574 C 524.878 -6.40018 -1.8956 0
M  V30 5575 H 524.148 -0.497921 -0.548777 0
M  V30 5576 H 526.795 -1.71599 -0.85007 0
M  V30 5577 H 525.1 -1.8503 -3.45356 0
M  V30 5578 H 526.797 -2.22384 -3.33686 0
M  V30 5579 H 523.387 -3.43279 -2.56627 0
M  V30 5580 H 527.571 -4.3838 -2.32672 0
M  V30 5581 H 522.827 -5.76615 -2.03287 0
M  V30 5582 H 527.001 -6.72644 -1.80341 0
M  V30 5583 H 524.628 -7.42051 -1.65117 0
M  V30 5584 N 526.204 0.969867 -1.24223 0
M  V30 5585 C 527.152 2.08535 -1.03034 0
M  V30 5586 C 528.146 1.69366 0.0340379 0
M  V30 5587 O 529.352 1.79597 -0.12034 0
M  V30 5588 H 525.727 0.682313 -0.316154 0
M  V30 5589 H 527.698 2.23569 -1.97635 0
M  V30 5590 C 526.447 3.4158 -0.649509 0
M  V30 5591 H 525.77 3.72177 -1.46028 0
M  V30 5592 H 527.21 4.20536 -0.540841 0
M  V30 5593 C 525.669 3.30703 0.643194 0
M  V30 5594 O 526.199 3.64443 1.68951 0
M  V30 5595 N 524.405 2.83841 0.623095 0
M  V30 5596 H 523.952 2.56583 -0.228719 0
M  V30 5597 H 523.91 2.76946 1.48823 0
M  V30 5598 N 527.682 1.05563 1.17022 0
M  V30 5599 C 528.922 0.777033 1.89054 0
M  V30 5600 C 529.286 -0.683617 1.79418 0
M  V30 5601 O 530.487 -1.07648 2.46303 0
M  V30 5602 C 528.758 1.24886 3.34871 0
M  V30 5603 S 530.317 1.0982 4.24835 0
M  V30 5604 H 527.135 0.282082 0.652649 0
M  V30 5605 H 529.737 1.35103 1.41306 0
M  V30 5606 H 528.441 2.30699 3.3942 0
M  V30 5607 H 527.972 0.669292 3.87665 0
M  V30 5608 H 529.987 0.02462 4.96194 0
M  V30 5609 N 529.16 -1.33526 0.837174 0
M  V30 5610 C 530.11 -2.2672 0.241269 0
M  V30 5611 C 531.094 -1.49183 -0.602756 0
M  V30 5612 O 532.286 -1.71052 -0.455002 0
M  V30 5613 C 529.415 -3.38294 -0.584125 0
M  V30 5614 C 528.501 -4.23231 0.271315 0
M  V30 5615 N 528.892 -4.87473 1.34922 0
M  V30 5616 C 527.19 -4.45962 0.0580589 0
M  V30 5617 C 527.891 -5.50685 1.87405 0
M  V30 5618 N 526.867 -5.30732 1.17578 0
M  V30 5619 H 530.669 -2.73903 1.06558 0
M  V30 5620 H 528.183 -1.47411 0.68145 0
M  V30 5621 H 530.18 -4.04044 -1.02731 0
M  V30 5622 H 528.84 -2.9266 -1.40643 0
M  V30 5623 H 529.851 -4.88077 1.7321 0
M  V30 5624 H 526.528 -4.11052 -0.730938 0
M  V30 5625 H 527.918 -6.11845 2.77661 0
M  V30 5626 N 530.638 -0.59345 -1.46 0
M  V30 5627 C 531.568 0.121192 -2.33185 0
M  V30 5628 C 532.549 0.872977 -1.4599 0
M  V30 5629 O 533.734 0.846321 -1.74789 0
M  V30 5630 C 530.864 1.12844 -3.28456 0
M  V30 5631 C 529.818 0.4908 -4.25177 0
M  V30 5632 C 529.144 1.60529 -5.10034 0
M  V30 5633 C 530.444 -0.578949 -5.19081 0
M  V30 5634 H 532.138 -0.606767 -2.93187 0
M  V30 5635 H 529.684 -0.293242 -1.40983 0
M  V30 5636 H 531.637 1.63684 -3.88311 0
M  V30 5637 H 530.361 1.88681 -2.66584 0
M  V30 5638 H 529.02 0.00339328 -3.666 0
M  V30 5639 H 528.668 2.35359 -4.44539 0
M  V30 5640 H 528.368 1.18422 -5.75543 0
M  V30 5641 H 529.892 2.11623 -5.72755 0
M  V30 5642 H 531.306 -0.155199 -5.7309 0
M  V30 5643 H 529.703 -0.920947 -5.92991 0
M  V30 5644 H 530.773 -1.46109 -4.62364 0
M  V30 5645 N 532.116 1.54067 -0.331816 0
M  V30 5646 C 533.048 2.22139 0.564538 0
M  V30 5647 C 534.061 1.22408 1.07332 0
M  V30 5648 O 535.25 1.4883 0.985481 0
M  V30 5649 C 532.35 2.87876 1.78831 0
M  V30 5650 C 531.523 4.13817 1.41682 0
M  V30 5651 C 530.582 4.63072 2.49901 0
M  V30 5652 O 529.608 5.27562 2.13699 0
M  V30 5653 N 530.81 4.38001 3.80967 0
M  V30 5654 H 533.575 2.99694 -0.0183736 0
M  V30 5655 H 531.136 1.61153 -0.155396 0
M  V30 5656 H 533.128 3.17747 2.50637 0
M  V30 5657 H 531.698 2.13977 2.27887 0
M  V30 5658 H 530.918 3.9062 0.530044 0
M  V30 5659 H 532.206 4.95762 1.14443 0
M  V30 5660 H 531.604 3.864 4.13173 0
M  V30 5661 H 530.161 4.72507 4.48977 0
M  V30 5662 N 533.594 0.0601682 1.57485 0
M  V30 5663 C 534.504 -0.926121 2.15546 0
M  V30 5664 C 535.52 -1.33532 1.11558 0
M  V30 5665 O 536.696 -1.4104 1.4377 0
M  V30 5666 C 533.761 -2.17952 2.69625 0
M  V30 5667 C 532.822 -1.82783 3.88444 0
M  V30 5668 C 532.055 -3.02148 4.39935 0
M  V30 5669 O 532.278 -4.15803 3.90466 0
M  V30 5670 O 531.212 -2.82639 5.31412 0
M  V30 5671 H 535.038 -0.462289 3.00161 0
M  V30 5672 H 532.623 -0.162246 1.48516 0
M  V30 5673 H 534.505 -2.91474 3.04337 0
M  V30 5674 H 533.18 -2.63456 1.88077 0
M  V30 5675 H 532.087 -1.06549 3.58606 0
M  V30 5676 H 533.42 -1.42072 4.7125 0
M  V30 5677 N 535.072 -1.5615 -0.213296 0
M  V30 5678 C 536.32 -1.79191 -0.934612 0
M  V30 5679 C 536.641 -0.630112 -1.84539 0
M  V30 5680 O 535.911 0.35257 -1.92701 0
M  V30 5681 H 534.491 -0.660937 -0.348097 0
M  V30 5682 H 537.153 -1.93618 -0.22317 0
M  V30 5683 H 536.249 -2.71656 -1.53654 0
M  V30 5684 N 536.55 0.480323 -1.50102 0
M  V30 5685 C 537.513 1.56181 -1.6775 0
M  V30 5686 C 538.513 1.51156 -0.548503 0
M  V30 5687 O 539.703 1.5394 -0.815363 0
M  V30 5688 C 536.835 2.95823 -1.69415 0
M  V30 5689 H 538.028 1.41855 -2.6423 0
M  V30 5690 H 535.581 0.70605 -1.39444 0
M  V30 5691 H 536.316 3.15604 -0.745948 0
M  V30 5692 H 536.101 3.00878 -2.51425 0
M  V30 5693 H 537.591 3.74359 -1.85054 0
M  V30 5694 N 538.028 1.39524 0.732853 0
M  V30 5695 C 538.975 1.38416 1.84688 0
M  V30 5696 C 539.945 0.243539 1.64305 0
M  V30 5697 O 541.13 0.438979 1.85681 0
M  V30 5698 C 538.27 1.23555 3.22224 0
M  V30 5699 C 537.383 2.47179 3.54298 0
M  V30 5700 C 536.518 2.2489 4.81246 0
M  V30 5701 C 535.557 3.44178 5.0617 0
M  V30 5702 N 534.694 3.21192 6.24323 0
M  V30 5703 H 539.534 2.33645 1.84971 0
M  V30 5704 H 537.071 1.16059 0.903804 0
M  V30 5705 H 539.029 1.12949 4.0162 0
M  V30 5706 H 537.659 0.31954 3.21215 0
M  V30 5707 H 536.711 2.68379 2.69587 0
M  V30 5708 H 538.023 3.36022 3.68633 0
M  V30 5709 H 537.177 2.11538 5.68627 0
M  V30 5710 H 535.916 1.33443 4.69089 0
M  V30 5711 H 534.921 3.58025 4.17251 0
M  V30 5712 H 536.146 4.36528 5.20212 0
M  V30 5713 H 534.092 2.32413 6.1345 0
M  V30 5714 H 534.009 4.03594 6.39256 0
M  V30 5715 H 535.277 3.1154 7.14537 0
M  V30 5716 N 539.506 -0.963266 1.24736 0
M  V30 5717 C 540.754 -1.70343 1.08755 0
M  V30 5718 C 541.075 -1.91387 -0.373619 0
M  V30 5719 O 540.345 -1.4948 -1.2662 0
M  V30 5720 H 538.925 -0.631224 0.399456 0
M  V30 5721 H 541.587 -1.15859 1.56725 0
M  V30 5722 H 540.683 -2.68616 1.58909 0
M  V30 5723 N 540.985 -1.06182 -1.16461 0
M  V30 5724 C 542.396 -0.802426 -1.68576 0
M  V30 5725 C 542.747 0.67412 -1.84255 0
M  V30 5726 O 541.872 1.52303 -1.5373 0
M  V30 5727 C 542.467 -1.45002 -3.06202 0
M  V30 5728 C 541.026 -1.23843 -3.55443 0
M  V30 5729 C 540.173 -1.52724 -2.31454 0
M  V30 5730 H 543.124 -1.22545 -1.00839 0
M  V30 5731 H 543.145 -0.864731 -3.70544 0
M  V30 5732 H 542.657 -2.52466 -2.94759 0
M  V30 5733 H 540.758 -0.183487 -3.72148 0
M  V30 5734 H 540.871 -1.95036 -4.37604 0
M  V30 5735 H 539.235 -0.947726 -2.36411 0
M  V30 5736 H 540.018 -2.61343 -2.22609 0
M  V30 5737 N 542.463 1.3308 -0.844243 0
M  V30 5738 C 543.393 2.3161 -0.296493 0
M  V30 5739 C 544.374 1.59215 0.598707 0
M  V30 5740 O 545.559 1.87077 0.521134 0
M  V30 5741 C 542.689 3.43313 0.524762 0
M  V30 5742 C 541.643 4.27115 -0.275106 0
M  V30 5743 C 540.969 5.30483 0.670236 0
M  V30 5744 C 542.269 5.00443 -1.49514 0
M  V30 5745 H 543.963 2.77672 -1.11976 0
M  V30 5746 H 541.509 1.33496 -0.539899 0
M  V30 5747 H 543.462 4.11273 0.918298 0
M  V30 5748 H 542.186 2.95952 1.3813 0
M  V30 5749 H 540.845 3.60787 -0.650267 0
M  V30 5750 H 540.493 4.79379 1.52332 0
M  V30 5751 H 540.193 5.87435 0.139123 0
M  V30 5752 H 541.717 6.01308 1.06117 0
M  V30 5753 H 543.131 5.61141 -1.17447 0
M  V30 5754 H 541.528 5.67071 -1.96343 0
M  V30 5755 H 542.598 4.28906 -2.26202 0
M  V30 5756 N 543.941 0.601185 1.45683 0
M  V30 5757 C 545.352 0.179659 1.85834 0
M  V30 5758 C 545.703 -1.26189 1.50236 0
M  V30 5759 O 544.828 -1.95587 0.925987 0
M  V30 5760 C 545.423 0.319277 3.37292 0
M  V30 5761 C 543.982 -0.0475092 3.7637 0
M  V30 5762 C 543.129 0.646692 2.69654 0
M  V30 5763 H 546.08 0.808268 1.36575 0
M  V30 5764 H 546.101 -0.4503 3.77826 0
M  V30 5765 H 545.613 1.36855 3.6317 0
M  V30 5766 H 543.714 -1.0962 3.5611 0
M  V30 5767 H 543.827 0.34168 4.7788 0
M  V30 5768 H 542.191 0.0849971 2.54558 0
M  V30 5769 H 542.974 1.69797 2.98369 0
M  V30 5770 N 545.419 -1.53889 0.339982 0
M  V30 5771 C 546.665 -2.01152 -0.258003 0
M  V30 5772 C 546.998 -1.22749 -1.50487 0
M  V30 5773 O 546.273 -0.314156 -1.91946 0
M  V30 5774 C 546.556 -3.55468 -0.575717 0
M  V30 5775 C 546.409 -4.44584 0.682996 0
M  V30 5776 C 547.728 -4.1768 -1.38677 0
M  V30 5777 H 544.847 -0.731198 -0.0922992 0
M  V30 5778 H 547.489 -1.84352 0.459814 0
M  V30 5779 H 545.639 -3.69914 -1.18725 0
M  V30 5780 H 547.311 -4.41981 1.32102 0
M  V30 5781 H 545.554 -4.13592 1.3086 0
M  V30 5782 H 546.225 -5.5043 0.416001 0
M  V30 5783 H 548.701 -4.0691 -0.869705 0
M  V30 5784 H 547.577 -5.25734 -1.57783 0
M  V30 5785 H 547.838 -3.72069 -2.38782 0
M  V30 5786 N 546.897 -0.0685191 -1.57451 0
M  V30 5787 C 548.174 0.642167 -1.84758 0
M  V30 5788 C 548.554 1.87991 -0.960344 0
M  V30 5789 O 547.902 2.28485 -0.0257894 0
M  V30 5790 C 548.112 0.982946 -3.34872 0
M  V30 5791 C 549.46 1.35784 -4.02303 0
M  V30 5792 O 550.484 1.07477 -3.39598 0
M  V30 5793 O 549.343 1.88681 -5.12895 0
M  V30 5794 H 546.437 0.318625 -0.763156 0
M  V30 5795 H 548.983 -0.0992015 -1.6941 0
M  V30 5796 H 547.755 0.10372 -3.91163 0
M  V30 5797 H 547.378 1.78119 -3.55471 0
M  V30 5798 N 548.375 1.56261 0.205012 0
M  V30 5799 C 549.603 1.84141 0.943386 0
M  V30 5800 C 550.018 0.649772 1.77266 0
M  V30 5801 O 549.375 -0.381612 1.78466 0
M  V30 5802 C 549.426 3.10719 1.84759 0
M  V30 5803 O 549.147 4.25286 1.05181 0
M  V30 5804 C 550.648 3.51706 2.69848 0
M  V30 5805 H 547.868 0.611734 0.275721 0
M  V30 5806 H 550.412 2.03364 0.215253 0
M  V30 5807 H 548.567 2.93422 2.52947 0
M  V30 5808 H 548.981 4.97301 1.66709 0
M  V30 5809 H 550.455 4.43266 3.28967 0
M  V30 5810 H 550.932 2.7423 3.43067 0
M  V30 5811 H 551.538 3.71499 2.07047 0
M  V30 5812 N 549.853 -0.472356 1.50355 0
M  V30 5813 C 551.1 -1.22453 1.61281 0
M  V30 5814 C 551.428 -1.91972 0.31256 0
M  V30 5815 O 550.683 -1.82696 -0.701475 0
M  V30 5816 C 550.982 -2.29257 2.74182 0
M  V30 5817 C 550.648 -1.76999 4.14708 0
M  V30 5818 C 549.31 -1.62467 4.52944 0
M  V30 5819 C 551.662 -1.38215 5.0254 0
M  V30 5820 C 548.99 -1.07574 5.76754 0
M  V30 5821 C 551.342 -0.847638 6.26895 0
M  V30 5822 C 550.006 -0.688946 6.63935 0
M  V30 5823 H 549.276 -0.448087 0.590168 0
M  V30 5824 H 551.923 -0.520744 1.84284 0
M  V30 5825 H 550.228 -3.05538 2.45263 0
M  V30 5826 H 551.925 -2.87212 2.7984 0
M  V30 5827 H 548.515 -1.89276 3.84542 0
M  V30 5828 H 552.699 -1.48276 4.73633 0
M  V30 5829 H 547.955 -0.940237 6.04127 0
M  V30 5830 H 552.129 -0.538455 6.94315 0
M  V30 5831 H 549.756 -0.261435 7.5975 0
M  V30 5832 N 551.331 -1.39911 -0.725443 0
M  V30 5833 C 552.261 -1.42138 -1.85254 0
M  V30 5834 C 553.242 -0.283513 -1.67721 0
M  V30 5835 O 554.427 -0.490717 -1.87898 0
M  V30 5836 C 551.557 -1.27354 -3.23107 0
M  V30 5837 C 550.511 -2.3864 -3.55296 0
M  V30 5838 C 549.837 -2.08939 -4.92188 0
M  V30 5839 C 551.137 -3.8097 -3.57295 0
M  V30 5840 H 552.831 -2.36461 -1.83648 0
M  V30 5841 H 550.377 -1.13817 -0.882138 0
M  V30 5842 H 552.33 -1.2753 -4.01639 0
M  V30 5843 H 551.054 -0.295025 -3.25265 0
M  V30 5844 H 549.713 -2.37696 -2.79099 0
M  V30 5845 H 549.361 -1.09502 -4.90936 0
M  V30 5846 H 549.061 -2.83491 -5.14691 0
M  V30 5847 H 550.585 -2.10781 -5.73065 0
M  V30 5848 H 551.999 -3.8379 -4.25885 0
M  V30 5849 H 550.396 -4.5496 -3.9132 0
M  V30 5850 H 551.466 -4.11261 -2.5689 0
M  V30 5851 N 552.809 0.956637 -1.25245 0
M  V30 5852 C 554.225 1.22733 -1.02023 0
M  V30 5853 C 554.425 1.99761 0.264186 0
M  V30 5854 O 553.481 2.32814 0.977436 0
M  V30 5855 C 554.794 2.00367 -2.24217 0
M  V30 5856 C 556.342 2.13418 -2.28958 0
M  V30 5857 C 556.817 2.9445 -3.50803 0
M  V30 5858 N 558.308 3.02029 -3.51187 0
M  V30 5859 C 559.043 3.65116 -4.42129 0
M  V30 5860 N 558.539 4.2983 -5.43339 0
M  V30 5861 N 560.332 3.62237 -4.29815 0
M  V30 5862 H 552.483 0.441282 -2.07765 0
M  V30 5863 H 554.746 0.257686 -0.912306 0
M  V30 5864 H 554.452 1.51165 -3.17556 0
M  V30 5865 H 554.326 3.01077 -2.27228 0
M  V30 5866 H 556.713 2.61819 -1.36143 0
M  V30 5867 H 556.794 1.1202 -2.29968 0
M  V30 5868 H 556.438 2.46741 -4.43939 0
M  V30 5869 H 556.368 3.9607 -3.47039 0
M  V30 5870 H 558.859 2.56007 -2.77973 0
M  V30 5871 H 559.172 4.75819 -6.08947 0
M  V30 5872 H 557.517 4.28465 -5.47214 0
M  V30 5873 H 560.708 3.10863 -3.49974 0
M  V30 5874 H 560.881 4.11117 -5.00886 0
M  V30 5875 N 554.287 1.06798 1.15896 0
M  V30 5876 C 555.535 0.786211 1.8618 0
M  V30 5877 C 555.856 -0.689547 1.82401 0
M  V30 5878 O 555.126 -1.49913 1.26107 0
M  V30 5879 H 553.706 0.287843 0.689315 0
M  V30 5880 H 556.368 1.35055 1.40521 0
M  V30 5881 H 555.464 1.1157 2.91477 0
M  V30 5882 N 555.766 -1.3263 0.851289 0
M  V30 5883 C 556.716 -2.26451 0.265302 0
M  V30 5884 C 557.7 -1.49814 -0.586899 0
M  V30 5885 O 558.892 -1.71525 -0.436834 0
M  V30 5886 C 556.021 -3.38895 -0.548212 0
M  V30 5887 C 555.107 -4.2292 0.316189 0
M  V30 5888 N 555.498 -4.86014 1.40084 0
M  V30 5889 C 553.796 -4.45876 0.105356 0
M  V30 5890 C 554.497 -5.48667 1.93235 0
M  V30 5891 N 553.473 -5.29455 1.232 0
M  V30 5892 H 557.275 -2.72757 1.09457 0
M  V30 5893 H 554.789 -1.4668 0.697047 0
M  V30 5894 H 556.786 -4.05111 -0.984402 0
M  V30 5895 H 555.446 -2.94135 -1.37531 0
M  V30 5896 H 556.457 -4.86212 1.78377 0
M  V30 5897 H 553.134 -4.11804 -0.687299 0
M  V30 5898 H 554.524 -6.08865 2.84135 0
M  V30 5899 N 557.244 -0.608902 -1.45362 0
M  V30 5900 C 558.154 0.110969 -2.34337 0
M  V30 5901 C 559.17 0.859007 -1.51318 0
M  V30 5902 O 560.346 0.816296 -1.84116 0
M  V30 5903 C 557.411 1.09494 -3.28956 0
M  V30 5904 C 556.472 0.348718 -4.27881 0
M  V30 5905 C 555.705 1.28582 -5.17979 0
M  V30 5906 O 555.928 2.52369 -5.11533 0
M  V30 5907 O 554.862 0.782172 -5.96796 0
M  V30 5908 H 558.688 -0.620258 -2.97299 0
M  V30 5909 H 556.273 -0.36916 -1.44767 0
M  V30 5910 H 558.155 1.66163 -3.87257 0
M  V30 5911 H 556.83 1.80717 -2.68557 0
M  V30 5912 H 555.737 -0.260465 -3.73192 0
M  V30 5913 H 557.07 -0.323049 -4.91139 0
M  V30 5914 N 558.722 1.53707 -0.348139 0
M  V30 5915 C 559.632 2.28881 0.514857 0
M  V30 5916 C 560.648 1.34168 1.10793 0
M  V30 5917 O 561.824 1.6721 1.12262 0
M  V30 5918 C 558.889 3.05042 1.64774 0
M  V30 5919 C 557.95 4.15389 1.08398 0
M  V30 5920 C 557.183 4.87909 2.16287 0
M  V30 5921 O 557.406 4.60137 3.3709 0
M  V30 5922 O 556.34 5.74254 1.80323 0
M  V30 5923 H 560.166 3.03547 -0.0963699 0
M  V30 5924 H 557.751 1.48972 -0.113043 0
M  V30 5925 H 559.633 3.52656 2.30677 0
M  V30 5926 H 558.308 2.33228 2.24469 0
M  V30 5927 H 557.215 3.72068 0.389341 0
M  V30 5928 H 558.548 4.89318 0.531829 0
M  V30 5929 N 560.2 0.0768682 1.57412 0
M  V30 5930 C 561.425 -0.603404 1.98428 0
M  V30 5931 C 561.85 -1.62047 0.955108 0
M  V30 5932 O 561.208 -1.81129 -0.0786778 0
M  V30 5933 C 561.256 -1.24396 3.38464 0
M  V30 5934 O 560.36 -2.35982 3.3821 0
M  V30 5935 H 559.701 -0.154741 0.645718 0
M  V30 5936 H 562.231 0.152885 2.04028 0
M  V30 5937 H 562.241 -1.5896 3.7576 0
M  V30 5938 H 560.916 -0.498735 4.12899 0
M  V30 5939 H 559.493 -2.03173 3.1269 0
M  V30 5940 N 561.678 -1.56367 -0.196722 0
M  V30 5941 C 562.926 -1.80172 -0.915554 0
M  V30 5942 C 563.247 -0.649649 -1.8386 0
M  V30 5943 O 562.517 0.332111 -1.93064 0
M  V30 5944 H 561.097 -0.664592 -0.341067 0
M  V30 5945 H 563.759 -1.93844 -0.202622 0
M  V30 5946 H 562.855 -2.7327 -1.50764 0
M  V30 5947 N 563.156 0.464375 -1.50603 0
M  V30 5948 C 564.433 1.22549 -1.5245 0
M  V30 5949 C 564.813 2.09327 -0.273035 0
M  V30 5950 O 564.161 2.16074 0.743242 0
M  V30 5951 C 564.371 2.05074 -2.82393 0
M  V30 5952 C 565.719 2.63036 -3.33313 0
M  V30 5953 O 566.743 2.1531 -2.8376 0
M  V30 5954 O 565.602 3.5001 -4.19709 0
M  V30 5955 H 562.696 0.556471 -0.611775 0
M  V30 5956 H 565.242 0.475648 -1.62898 0
M  V30 5957 H 564.014 1.41169 -3.64948 0
M  V30 5958 H 563.637 2.87179 -2.7498 0
M  V30 5959 N 564.634 1.40294 0.718013 0
M  V30 5960 C 566.05 1.2227 1.02577 0
M  V30 5961 C 566.25 0.0961976 2.0127 0
M  V30 5962 O 565.306 -0.546695 2.46511 0
M  V30 5963 C 566.619 2.56348 1.57182 0
M  V30 5964 C 568.167 2.6334 1.69178 0
M  V30 5965 C 568.642 3.9768 2.27188 0
M  V30 5966 N 570.133 3.99409 2.34578 0
M  V30 5967 C 570.868 5.00141 2.8044 0
M  V30 5968 N 570.364 6.11268 3.26073 0
M  V30 5969 N 572.157 4.87511 2.79802 0
M  V30 5970 H 564.308 2.12304 0.0637899 0
M  V30 5971 H 566.571 0.943632 0.0909036 0
M  V30 5972 H 566.277 3.3942 0.921262 0
M  V30 5973 H 566.151 2.77266 2.55741 0
M  V30 5974 H 568.538 1.80641 2.33351 0
M  V30 5975 H 568.619 2.46255 0.692247 0
M  V30 5976 H 568.263 4.80817 1.63638 0
M  V30 5977 H 568.193 4.12093 3.27852 0
M  V30 5978 H 570.684 3.19162 2.02346 0
M  V30 5979 H 570.997 6.84023 3.59628 0
M  V30 5980 H 569.342 6.14837 3.24038 0
M  V30 5981 H 572.533 3.9979 2.43487 0
M  V30 5982 H 572.706 5.66158 3.15228 0
M  V30 5983 N 566.112 -0.949982 1.2575 0
M  V30 5984 C 567.359 -1.69515 1.10774 0
M  V30 5985 C 567.687 -1.91316 -0.350479 0
M  V30 5986 O 566.942 -1.48515 -1.27443 0
M  V30 5987 C 567.241 -3.08039 1.81237 0
M  V30 5988 C 566.907 -3.06023 3.31151 0
M  V30 5989 C 565.569 -3.0518 3.72047 0
M  V30 5990 C 567.921 -2.98998 4.26907 0
M  V30 5991 C 565.249 -2.95067 5.07102 0
M  V30 5992 C 567.601 -2.90426 5.61992 0
M  V30 5993 C 566.265 -2.87922 6.0221 0
M  V30 5994 H 565.535 -0.6203 0.405351 0
M  V30 5995 H 568.182 -1.10953 1.56082 0
M  V30 5996 H 566.487 -3.70172 1.28373 0
M  V30 5997 H 568.184 -3.64526 1.67098 0
M  V30 5998 H 564.774 -3.07453 2.98614 0
M  V30 5999 H 568.958 -2.98764 3.963 0
M  V30 6000 H 564.214 -2.915 5.37436 0
M  V30 6001 H 568.388 -2.83952 6.35881 0
M  V30 6002 H 566.015 -2.79841 7.06819 0
M  V30 6003 N 567.59 -1.07411 -1.15328 0
M  V30 6004 C 568.815 -0.818856 -1.90551 0
M  V30 6005 C 569.24 0.622194 -1.77512 0
M  V30 6006 O 568.598 1.43484 -1.10824 0
M  V30 6007 C 568.646 -1.23267 -3.38877 0
M  V30 6008 O 567.75 -0.378345 -4.10661 0
M  V30 6009 H 567.091 -0.29827 -0.593238 0
M  V30 6010 H 569.621 -1.43289 -1.46046 0
M  V30 6011 H 569.631 -1.20912 -3.89672 0
M  V30 6012 H 568.306 -2.28226 -3.47686 0
M  V30 6013 H 566.883 -0.464437 -3.69996 0
M  V30 6014 N 569.068 1.32177 -0.85831 0
M  V30 6015 C 570.016 2.30729 -0.294442 0
M  V30 6016 C 571.01 1.59009 0.584165 0
M  V30 6017 O 572.216 1.73713 0.471562 0
M  V30 6018 H 568.591 0.748097 -0.0765171 0
M  V30 6019 H 570.562 2.75774 -1.1398 0
M  V30 6020 C 569.311 3.44098 0.499208 0
M  V30 6021 H 568.634 3.99449 -0.167579 0
M  V30 6022 H 570.074 4.15202 0.859273 0
M  V30 6023 C 568.533 2.91684 1.68588 0
M  V30 6024 O 569.063 2.89481 2.78503 0
M  V30 6025 N 567.269 2.48036 1.51415 0
M  V30 6026 H 566.816 2.50027 0.620006 0
M  V30 6027 H 566.774 2.13322 2.30957 0
M  V30 6028 N 570.547 0.616602 1.45037 0
M  V30 6029 C 571.772 0.120192 2.07051 0
M  V30 6030 C 572.197 -1.19008 1.45666 0
M  V30 6031 O 571.555 -1.7267 0.552692 0
M  V30 6032 C 571.603 0.00354901 3.606 0
M  V30 6033 O 570.707 -1.04431 3.98958 0
M  V30 6034 H 570.048 0.0781599 0.659384 0
M  V30 6035 H 572.578 0.849167 1.86146 0
M  V30 6036 H 572.588 -0.191754 4.07549 0
M  V30 6037 H 571.263 0.960239 4.04663 0
M  V30 6038 H 569.84 -0.824749 3.63665 0
M  V30 6039 N 572.025 -1.5352 0.356285 0
M  V30 6040 C 573.25 -2.06007 -0.239961 0
M  V30 6041 C 573.675 -1.22872 -1.42422 0
M  V30 6042 O 573.033 -0.245516 -1.7963 0
M  V30 6043 C 573.081 -3.5522 -0.620587 0
M  V30 6044 O 572.185 -3.74864 -1.71902 0
M  V30 6045 H 571.526 -0.662961 -0.0371377 0
M  V30 6046 H 574.056 -1.98033 0.514194 0
M  V30 6047 H 574.066 -3.98081 -0.894197 0
M  V30 6048 H 572.741 -4.15175 0.245407 0
M  V30 6049 H 571.318 -3.43904 -1.44169 0
M  V30 6050 N 573.503 -0.0852151 -1.57369 0
M  V30 6051 C 574.731 0.58946 -1.98325 0
M  V30 6052 C 575.146 1.62333 -0.96403 0
M  V30 6053 O 574.503 1.82438 0.0476395 0
M  V30 6054 C 574.554 1.24604 -3.39347 0
M  V30 6055 O 574.275 0.253532 -4.37366 0
M  V30 6056 C 575.776 2.00726 -3.95252 0
M  V30 6057 H 572.996 0.158783 -0.651942 0
M  V30 6058 H 575.54 -0.161584 -2.03861 0
M  V30 6059 H 573.695 1.94808 -3.34856 0
M  V30 6060 H 574.109 0.726207 -5.19448 0
M  V30 6061 H 575.583 2.42039 -4.96106 0
M  V30 6062 H 576.06 2.86919 -3.32527 0
M  V30 6063 H 576.666 1.3536 -4.03185 0
M  V30 6064 N 574.981 1.5647 0.188427 0
M  V30 6065 C 575.944 1.9421 1.21718 0
M  V30 6066 C 576.944 0.823901 1.38089 0
M  V30 6067 O 578.134 1.09122 1.35787 0
M  V30 6068 C 575.266 2.22197 2.58537 0
M  V30 6069 H 576.459 2.86252 0.894418 0
M  V30 6070 H 574.012 1.50263 0.430211 0
M  V30 6071 H 574.747 1.32814 2.95856 0
M  V30 6072 H 574.532 3.03688 2.48025 0
M  V30 6073 H 576.022 2.52376 3.3271 0
M  V30 6074 N 576.459 -0.456382 1.50847 0
M  V30 6075 C 577.706 -1.20736 1.62571 0
M  V30 6076 C 578.034 -1.9163 0.332904 0
M  V30 6077 O 577.289 -1.8343 -0.682058 0
M  V30 6078 C 577.588 -2.26336 2.76599 0
M  V30 6079 C 577.254 -1.7259 4.16562 0
M  V30 6080 C 575.916 -1.57654 4.54641 0
M  V30 6081 C 578.268 -1.32877 5.03977 0
M  V30 6082 C 575.596 -1.0145 5.77862 0
M  V30 6083 C 577.948 -0.7811 6.27759 0
M  V30 6084 C 576.612 -0.618488 6.64628 0
M  V30 6085 H 575.882 -0.441803 0.594888 0
M  V30 6086 H 578.529 -0.501169 1.84826 0
M  V30 6087 H 576.834 -3.0292 2.48489 0
M  V30 6088 H 578.531 -2.84227 2.82871 0
M  V30 6089 H 575.121 -1.85187 3.86528 0
M  V30 6090 H 579.305 -1.43245 4.75179 0
M  V30 6091 H 574.561 -0.876109 6.0509 0
M  V30 6092 H 578.735 -0.464783 6.94847 0
M  V30 6093 H 576.362 -0.180838 7.59985 0
M  V30 6094 N 577.937 -1.40673 -0.710563 0
M  V30 6095 C 579.353 -1.22813 -1.01928 0
M  V30 6096 C 579.553 -0.10687 -2.01216 0
M  V30 6097 O 578.609 0.533614 -2.46797 0
M  V30 6098 C 579.922 -2.57178 -1.5582 0
M  V30 6099 C 581.47 -2.64233 -1.67779 0
M  V30 6100 C 581.945 -3.98879 -2.25076 0
M  V30 6101 N 583.436 -4.00647 -2.32456 0
M  V30 6102 C 584.171 -5.01621 -2.77784 0
M  V30 6103 N 583.667 -6.12989 -3.22826 0
M  V30 6104 N 585.46 -4.88988 -2.77213 0
M  V30 6105 H 577.611 -2.12335 -0.05253 0
M  V30 6106 H 579.874 -0.9441 -0.085898 0
M  V30 6107 H 579.58 -3.39903 -0.903249 0
M  V30 6108 H 579.454 -2.78618 -2.54267 0
M  V30 6109 H 581.841 -1.81876 -2.3239 0
M  V30 6110 H 581.922 -2.46619 -0.679178 0
M  V30 6111 H 581.566 -4.81678 -1.61086 0
M  V30 6112 H 581.496 -4.13826 -3.25661 0
M  V30 6113 H 583.987 -3.20231 -2.0065 0
M  V30 6114 H 584.3 -6.85921 -3.55995 0
M  V30 6115 H 582.645 -6.16547 -3.20773 0
M  V30 6116 H 585.836 -4.01075 -2.41363 0
M  V30 6117 H 586.009 -5.67822 -3.12221 0
M  V30 6118 N 579.415 0.9433 -1.26252 0
M  V30 6119 C 580.826 1.50404 -1.10614 0
M  V30 6120 C 581.177 1.93666 0.31429 0
M  V30 6121 O 580.302 1.79709 1.20555 0
M  V30 6122 C 580.897 2.73336 -2.00182 0
M  V30 6123 C 579.456 3.25686 -1.88695 0
M  V30 6124 C 578.603 1.98474 -1.93658 0
M  V30 6125 H 581.554 0.759006 -1.39373 0
M  V30 6126 H 581.575 3.47567 -1.54847 0
M  V30 6127 H 581.087 2.41818 -3.03555 0
M  V30 6128 H 579.188 3.61998 -0.882489 0
M  V30 6129 H 579.301 3.92935 -2.74115 0
M  V30 6130 H 577.665 2.14278 -1.37684 0
M  V30 6131 H 578.448 1.6929 -2.98657 0
M  V30 6132 N 580.893 1.08022 1.14757 0
M  V30 6133 C 581.823 0.728248 2.21853 0
M  V30 6134 C 582.804 -0.287486 1.67653 0
M  V30 6135 O 583.989 -0.158727 1.9355 0
M  V30 6136 C 581.119 0.132549 3.47047 0
M  V30 6137 C 580.073 1.07619 4.14249 0
M  V30 6138 C 579.399 0.342907 5.33599 0
M  V30 6139 C 580.699 2.41268 4.63235 0
M  V30 6140 H 582.393 1.62365 2.51551 0
M  V30 6141 H 579.939 0.782125 1.20908 0
M  V30 6142 H 581.892 -0.125665 4.21213 0
M  V30 6143 H 580.616 -0.797971 3.16702 0
M  V30 6144 H 579.275 1.31944 3.42033 0
M  V30 6145 H 578.923 -0.59129 4.99513 0
M  V30 6146 H 578.623 0.971955 5.79506 0
M  V30 6147 H 580.147 0.0926538 6.1053 0
M  V30 6148 H 581.561 2.21232 5.28894 0
M  V30 6149 H 579.958 2.9983 5.19829 0
M  V30 6150 H 581.028 3.03079 3.78512 0
M  V30 6151 N 582.371 -1.3172 0.865308 0
M  V30 6152 C 583.611 -1.98675 0.480365 0
M  V30 6153 C 583.975 -1.66929 -0.948621 0
M  V30 6154 O 585.176 -2.27059 -1.43867 0
M  V30 6155 C 583.447 -3.49972 0.724858 0
M  V30 6156 S 585.006 -4.36598 0.439078 0
M  V30 6157 H 581.824 -0.687967 0.179506 0
M  V30 6158 H 584.426 -1.60215 1.12033 0
M  V30 6159 H 583.13 -3.70567 1.76375 0
M  V30 6160 H 582.661 -3.93335 0.0717173 0
M  V30 6161 H 584.676 -4.90792 -0.730564 0
M  V30 6162 N 583.85 -0.624285 -1.44708 0
M  V30 6163 C 585.077 -0.132919 -2.06473 0
M  V30 6164 C 585.493 1.18967 -1.46602 0
M  V30 6165 O 584.85 1.72824 -0.586341 0
M  V30 6166 C 584.901 -0.00465418 -3.615 0
M  V30 6167 O 584.622 -1.27494 -4.19138 0
M  V30 6168 C 586.123 0.516213 -4.40284 0
M  V30 6169 H 583.343 -0.0765201 -0.666623 0
M  V30 6170 H 585.887 -0.856751 -1.85688 0
M  V30 6171 H 584.042 0.669583 -3.8157 0
M  V30 6172 H 584.456 -1.11536 -5.12504 0
M  V30 6173 H 585.93 0.554994 -5.49203 0
M  V30 6174 H 586.407 1.5419 -4.11245 0
M  V30 6175 H 587.013 -0.124542 -4.25118 0
M  V30 6176 N 585.328 1.53329 -0.364422 0
M  V30 6177 C 586.576 2.00842 0.225189 0
M  V30 6178 C 586.897 1.25345 1.49378 0
M  V30 6179 O 586.167 0.366396 1.92443 0
M  V30 6180 H 584.747 0.742009 0.0862027 0
M  V30 6181 H 587.409 1.8863 -0.490389 0
M  V30 6182 H 586.505 3.08795 0.452987 0
M  V30 6183 N 586.806 0.0935595 1.57322 0
M  V30 6184 C 588.083 -0.612692 1.85756 0
M  V30 6185 C 588.463 -1.86439 0.99013 0
M  V30 6186 O 587.811 -2.28416 0.0621362 0
M  V30 6187 C 588.021 -0.929547 3.36393 0
M  V30 6188 C 589.369 -1.29366 4.04413 0
M  V30 6189 O 590.393 -1.02061 3.41265 0
M  V30 6190 O 589.252 -1.80498 5.15832 0
M  V30 6191 H 586.346 -0.306444 0.768128 0
M  V30 6192 H 588.892 0.126141 1.69231 0
M  V30 6193 H 587.664 -0.0414766 3.91278 0
M  V30 6194 H 587.287 -1.72441 3.5826 0
M  V30 6195 N 588.284 -1.56567 -0.180126 0
M  V30 6196 C 589.194 -1.98947 -1.24327 0
M  V30 6197 C 590.21 -0.899446 -1.4895 0
M  V30 6198 O 591.386 -1.20639 -1.61271 0
M  V30 6199 C 588.451 -2.33328 -2.56435 0
M  V30 6200 C 587.512 -3.56114 -2.39752 0
M  V30 6201 C 586.745 -3.88845 -3.65561 0
M  V30 6202 O 586.968 -3.22662 -4.70368 0
M  V30 6203 O 585.902 -4.82226 -3.60197 0
M  V30 6204 H 589.728 -2.89634 -0.913565 0
M  V30 6205 H 587.313 -1.44319 -0.386306 0
M  V30 6206 H 589.195 -2.5645 -3.34382 0
M  V30 6207 H 587.87 -1.45806 -2.89002 0
M  V30 6208 H 586.777 -3.38221 -1.59866 0
M  V30 6209 H 588.11 -4.4415 -2.12113 0
M  V30 6210 N 589.762 0.448376 -1.51087 0
M  V30 6211 C 590.71 1.56407 -1.72161 0
M  V30 6212 C 591.704 1.58878 -0.587721 0
M  V30 6213 O 592.91 1.62755 -0.768822 0
M  V30 6214 H 589.285 0.519423 -0.543786 0
M  V30 6215 H 591.256 1.35803 -2.65707 0
M  V30 6216 C 590.005 2.94163 -1.85373 0
M  V30 6217 H 589.328 2.9299 -2.72024 0
M  V30 6218 H 590.768 3.71625 -2.04135 0
M  V30 6219 C 589.227 3.31317 -0.610803 0
M  V30 6220 O 589.757 4.00985 0.239636 0
M  V30 6221 N 587.963 2.86966 -0.458127 0
M  V30 6222 H 587.51 2.30443 -1.15124 0
M  V30 6223 H 587.468 3.12188 0.372289 0
M  V30 6224 N 591.24 1.41047 0.703093 0
M  V30 6225 C 592.489 1.39301 1.4587 0
M  V30 6226 C 592.802 0.00267077 1.956 0
M  V30 6227 O 594.008 -0.137414 2.71152 0
M  V30 6228 C 592.464 2.44891 2.63735 0
M  V30 6229 C 592.072 3.89796 2.20824 0
M  V30 6230 C 593.816 2.5227 3.41409 0
M  V30 6231 C 591.723 4.86955 3.35602 0
M  V30 6232 H 590.653 0.518005 0.547893 0
M  V30 6233 H 593.304 1.66839 0.764009 0
M  V30 6234 H 591.686 2.10472 3.35436 0
M  V30 6235 H 592.86 4.33424 1.56461 0
M  V30 6236 H 591.175 3.86008 1.56163 0
M  V30 6237 H 593.772 3.22044 4.26839 0
M  V30 6238 H 594.115 1.55714 3.86081 0
M  V30 6239 H 594.648 2.85742 2.7676 0
M  V30 6240 H 591.387 5.84888 2.9595 0
M  V30 6241 H 590.907 4.47982 3.98839 0
M  V30 6242 H 592.586 5.07361 4.01489 0
M  V30 6243 N 592.718 -0.936591 1.26751 0
M  V30 6244 C 593.943 -1.72288 1.15462 0
M  V30 6245 C 594.368 -1.85915 -0.285887 0
M  V30 6246 O 593.726 -1.35272 -1.20711 0
M  V30 6247 C 593.774 -3.10503 1.83359 0
M  V30 6248 O 592.878 -3.96745 1.1255 0
M  V30 6249 H 592.219 -0.52843 0.402067 0
M  V30 6250 H 594.749 -1.17271 1.67656 0
M  V30 6251 H 594.759 -3.60867 1.90365 0
M  V30 6252 H 593.434 -2.99901 2.88153 0
M  V30 6253 H 592.011 -3.55191 1.13551 0
M  V30 6254 N 594.196 -1.08629 -1.14182 0
M  V30 6255 C 595.421 -0.83902 -1.89671 0
M  V30 6256 C 595.846 0.603332 -1.78161 0
M  V30 6257 O 595.204 1.42301 -1.12339 0
M  V30 6258 C 595.252 -1.26854 -3.37551 0
M  V30 6259 O 594.356 -0.42188 -4.10236 0
M  V30 6260 H 593.697 -0.304545 -0.590041 0
M  V30 6261 H 596.227 -1.4483 -1.44518 0
M  V30 6262 H 596.237 -1.25038 -3.88368 0
M  V30 6263 H 594.912 -2.31901 -3.45246 0
M  V30 6264 H 593.489 -0.503654 -3.69483 0
M  V30 6265 N 595.674 1.31259 -0.872281 0
M  V30 6266 C 596.92 1.96913 -0.485083 0
M  V30 6267 C 597.253 1.68774 0.960667 0
M  V30 6268 O 596.528 0.985495 1.67685 0
M  V30 6269 C 596.811 3.52299 -0.745502 0
M  V30 6270 C 596.664 3.90002 -2.24095 0
M  V30 6271 C 597.983 4.39582 -0.213516 0
M  V30 6272 H 595.102 0.715252 -0.177716 0
M  V30 6273 H 597.744 1.55347 -1.09395 0
M  V30 6274 H 595.894 3.87835 -0.227276 0
M  V30 6275 H 597.566 3.64555 -2.82661 0
M  V30 6276 H 595.809 3.38526 -2.71261 0
M  V30 6277 H 596.48 4.98352 -2.37381 0
M  V30 6278 H 598.956 4.10882 -0.656902 0
M  V30 6279 H 597.832 5.47251 -0.42516 0
M  V30 6280 H 598.093 4.33158 0.884666 0
M  V30 6281 N 597.152 0.631951 1.44375 0
M  V30 6282 C 598.062 -0.073674 2.34484 0
M  V30 6283 C 599.078 -0.834825 1.52665 0
M  V30 6284 O 600.254 -0.786902 1.85391 0
M  V30 6285 C 597.319 -1.04247 3.30656 0
M  V30 6286 C 596.38 -0.280602 4.28382 0
M  V30 6287 C 595.613 -1.20325 5.19959 0
M  V30 6288 O 595.836 -2.44199 5.15484 0
M  V30 6289 O 594.77 -0.687128 5.97965 0
M  V30 6290 H 598.596 0.667477 2.96274 0
M  V30 6291 H 596.181 0.392144 1.44162 0
M  V30 6292 H 598.063 -1.59981 3.89851 0
M  V30 6293 H 596.738 -1.76422 2.71398 0
M  V30 6294 H 595.645 0.319804 3.72731 0
M  V30 6295 H 596.978 0.401144 4.90563 0
M  V30 6296 N 598.631 -1.53133 0.372548 0
M  V30 6297 C 599.859 -2.05774 -0.215515 0
M  V30 6298 C 600.274 -1.24555 -1.41886 0
M  V30 6299 O 599.631 -0.287951 -1.80214 0
M  V30 6300 C 599.682 -3.5645 -0.602161 0
M  V30 6301 O 599.403 -4.34591 0.553359 0
M  V30 6302 C 600.904 -4.25374 -1.24787 0
M  V30 6303 H 598.124 -0.670009 -0.0364529 0
M  V30 6304 H 600.668 -1.97434 0.532934 0
M  V30 6305 H 598.823 -3.64918 -1.30052 0
M  V30 6306 H 599.237 -5.23954 0.239336 0
M  V30 6307 H 600.711 -5.32097 -1.46891 0
M  V30 6308 H 601.188 -3.79531 -2.21026 0
M  V30 6309 H 601.794 -4.21177 -0.590752 0
M  V30 6310 N 600.109 -0.101901 -1.5727 0
M  V30 6311 C 601.52 0.426173 -1.81771 0
M  V30 6312 C 601.871 1.67725 -1.01797 0
M  V30 6313 O 600.996 2.14958 -0.249386 0
M  V30 6314 C 601.591 0.779962 -3.297 0
M  V30 6315 C 600.15 1.25275 -3.54941 0
M  V30 6316 C 599.297 0.252814 -2.76145 0
M  V30 6317 H 602.248 -0.32726 -1.55289 0
M  V30 6318 H 602.269 1.63891 -3.43395 0
M  V30 6319 H 601.781 -0.130778 -3.8788 0
M  V30 6320 H 599.882 2.18097 -3.021 0
M  V30 6321 H 599.995 1.20988 -4.63572 0
M  V30 6322 H 598.359 0.736362 -2.43823 0
M  V30 6323 H 599.142 -0.650724 -3.37076 0
M  V30 6324 N 601.587 1.56661 0.17182 0
M  V30 6325 C 602.817 1.85831 0.902804 0
M  V30 6326 C 603.225 0.685157 1.76358 0
M  V30 6327 O 602.568 -0.354947 1.80238 0
M  V30 6328 C 602.63 3.09406 1.83053 0
M  V30 6329 C 602.294 4.4231 1.1494 0
M  V30 6330 C 603.291 5.17342 0.515104 0
M  V30 6331 C 600.976 4.89045 1.14631 0
M  V30 6332 C 602.97 6.37299 -0.113194 0
M  V30 6333 C 600.657 6.08933 0.514184 0
M  V30 6334 C 601.655 6.82904 -0.114463 0
M  V30 6335 O 601.343 8.00518 -0.736622 0
M  V30 6336 H 601.075 0.620715 0.267748 0
M  V30 6337 H 603.629 2.04637 0.176918 0
M  V30 6338 H 601.859 2.86544 2.59672 0
M  V30 6339 H 603.548 3.25027 2.4313 0
M  V30 6340 H 604.314 4.82317 0.509474 0
M  V30 6341 H 600.193 4.31409 1.62502 0
M  V30 6342 H 603.737 6.94976 -0.604477 0
M  V30 6343 H 599.634 6.43423 0.517395 0
M  V30 6344 H 600.402 8.16027 -0.635822 0
M  V30 6345 N 603.065 -0.440357 1.51323 0
M  V30 6346 C 604.314 -1.18697 1.63076 0
M  V30 6347 C 604.627 -1.92418 0.35136 0
M  V30 6348 O 605.833 -2.69258 0.348221 0
M  V30 6349 C 604.289 -2.15849 2.87988 0
M  V30 6350 C 603.897 -1.47789 4.22921 0
M  V30 6351 C 605.641 -2.90962 3.09098 0
M  V30 6352 C 603.548 -2.43407 5.38987 0
M  V30 6353 H 602.478 -0.44676 0.607389 0
M  V30 6354 H 605.129 -0.454313 1.77787 0
M  V30 6355 H 603.511 -2.92537 2.66905 0
M  V30 6356 H 604.685 -0.7668 4.54375 0
M  V30 6357 H 603 -0.848404 4.07665 0
M  V30 6358 H 605.597 -3.62584 3.92985 0
M  V30 6359 H 605.94 -3.52133 2.22053 0
M  V30 6360 H 606.473 -2.21381 3.30507 0
M  V30 6361 H 603.212 -1.86929 6.28282 0
M  V30 6362 H 602.732 -3.12579 5.11913 0
M  V30 6363 H 604.411 -3.046 5.70813 0
M  V30 6364 N 604.543 -1.41418 -0.695603 0
M  V30 6365 C 605.82 -1.31264 -1.45014 0
M  V30 6366 C 606.2 0.0597994 -2.11015 0
M  V30 6367 O 605.548 1.07403 -2.01685 0
M  V30 6368 C 605.758 -2.466 -2.4696 0
M  V30 6369 C 607.106 -2.87763 -3.12214 0
M  V30 6370 O 608.13 -2.46339 -2.57285 0
M  V30 6371 O 606.989 -3.59395 -4.11701 0
M  V30 6372 H 604.083 -0.516576 -0.645816 0
M  V30 6373 H 606.629 -1.53382 -0.726084 0
M  V30 6374 H 605.401 -3.38183 -1.96845 0
M  V30 6375 H 605.024 -2.26358 -3.26876 0
M  V30 6376 N 606.021 0.929856 -1.27246 0
M  V30 6377 C 607.251 1.70895 -1.16096 0
M  V30 6378 C 607.659 1.87039 0.285122 0
M  V30 6379 O 607.002 1.38557 1.20614 0
M  V30 6380 C 607.064 3.12919 -1.7698 0
M  V30 6381 C 606.728 3.2012 -3.26148 0
M  V30 6382 C 607.725 3.02533 -4.22812 0
M  V30 6383 C 605.41 3.43148 -3.66817 0
M  V30 6384 C 607.404 3.07861 -5.58122 0
M  V30 6385 C 605.091 3.48109 -5.02258 0
M  V30 6386 C 606.089 3.30483 -5.97721 0
M  V30 6387 O 605.777 3.35175 -7.30694 0
M  V30 6388 H 605.509 0.54152 -0.404639 0
M  V30 6389 H 608.063 1.17342 -1.68582 0
M  V30 6390 H 606.293 3.67945 -1.18969 0
M  V30 6391 H 607.982 3.72787 -1.60576 0
M  V30 6392 H 608.748 2.84586 -3.92728 0
M  V30 6393 H 604.627 3.55918 -2.9299 0
M  V30 6394 H 608.171 2.94021 -6.32612 0
M  V30 6395 H 604.068 3.65579 -5.31998 0
M  V30 6396 H 604.836 3.51644 -7.39114 0
M  V30 6397 N 607.499 1.09233 1.13605 0
M  V30 6398 C 608.727 0.848908 1.88683 0
M  V30 6399 C 609.142 -0.599667 1.79024 0
M  V30 6400 O 608.499 -1.41265 1.15544 0
M  V30 6401 C 608.55 1.27273 3.38355 0
M  V30 6402 O 608.271 2.66449 3.47759 0
M  V30 6403 C 609.772 1.0614 4.30406 0
M  V30 6404 H 606.992 0.305549 0.597395 0
M  V30 6405 H 609.536 1.4538 1.43823 0
M  V30 6406 H 607.691 0.711776 3.80805 0
M  V30 6407 H 608.105 2.84264 4.40788 0
M  V30 6408 H 609.579 1.40725 5.33761 0
M  V30 6409 H 610.056 -0.000960332 4.392 0
M  V30 6410 H 610.662 1.60821 3.93722 0
M  V30 6411 N 608.977 -1.30795 0.87923 0
M  V30 6412 C 609.927 -2.25838 0.313276 0
M  V30 6413 C 610.911 -1.51025 -0.55499 0
M  V30 6414 O 612.103 -1.72413 -0.400353 0
M  V30 6415 C 609.232 -3.39981 -0.476204 0
M  V30 6416 C 608.318 -4.22154 0.405826 0
M  V30 6417 N 608.709 -4.82934 1.50362 0
M  V30 6418 C 607.007 -4.45552 0.199909 0
M  V30 6419 C 607.708 -5.44444 2.0483 0
M  V30 6420 N 606.684 -5.26723 1.34403 0
M  V30 6421 H 610.486 -2.70374 1.15218 0
M  V30 6422 H 608 -1.45168 0.728003 0
M  V30 6423 H 609.997 -4.07108 -0.898251 0
M  V30 6424 H 608.657 -2.96986 -1.31261 0
M  V30 6425 H 609.668 -4.82319 1.8865 0
M  V30 6426 H 606.345 -4.13169 -0.599795 0
M  V30 6427 H 607.735 -6.02701 2.96986 0
M  V30 6428 N 610.455 -0.639598 -1.44038 0
M  V30 6429 C 611.385 0.0469443 -2.33453 0
M  V30 6430 C 612.366 0.82609 -1.48694 0
M  V30 6431 O 613.551 0.790285 -1.77393 0
M  V30 6432 C 610.681 1.02338 -3.3188 0
M  V30 6433 C 609.635 0.355284 -4.26523 0
M  V30 6434 C 608.961 1.44221 -5.14883 0
M  V30 6435 C 610.261 -0.743798 -5.16977 0
M  V30 6436 H 611.955 -0.699735 -2.91108 0
M  V30 6437 H 609.501 -0.337946 -1.39978 0
M  V30 6438 H 611.454 1.51247 -3.93322 0
M  V30 6439 H 610.178 1.80105 -2.72451 0
M  V30 6440 H 608.837 -0.113239 -3.66425 0
M  V30 6441 H 608.485 2.21097 -4.51802 0
M  V30 6442 H 608.185 1.00052 -5.79019 0
M  V30 6443 H 609.709 1.93295 -5.79197 0
M  V30 6444 H 611.123 -0.337444 -5.72306 0
M  V30 6445 H 609.52 -1.10914 -5.89761 0
M  V30 6446 H 610.59 -1.60745 -4.57481 0
M  V30 6447 N 611.933 1.52934 -0.380664 0
M  V30 6448 C 613.349 1.59571 -0.0302429 0
M  V30 6449 C 613.549 1.39509 1.45394 0
M  V30 6450 O 612.605 1.20777 2.21741 0
M  V30 6451 C 613.918 2.96519 -0.499691 0
M  V30 6452 C 615.466 3.09672 -0.455204 0
M  V30 6453 C 615.941 4.49056 -0.900703 0
M  V30 6454 N 617.432 4.55215 -0.856367 0
M  V30 6455 C 618.167 5.61282 -1.17259 0
M  V30 6456 N 617.663 6.75035 -1.55885 0
M  V30 6457 N 619.456 5.51343 -1.0944 0
M  V30 6458 H 611.607 1.64224 -1.347 0
M  V30 6459 H 613.87 0.771033 -0.551554 0
M  V30 6460 H 613.576 3.16388 -1.53595 0
M  V30 6461 H 613.45 3.77052 0.105789 0
M  V30 6462 H 615.837 2.89504 0.571949 0
M  V30 6463 H 615.918 2.31113 -1.09638 0
M  V30 6464 H 615.562 4.69964 -1.92604 0
M  V30 6465 H 615.492 5.26068 -0.236629 0
M  V30 6466 H 617.983 3.73546 -0.572013 0
M  V30 6467 H 618.296 7.51926 -1.784 0
M  V30 6468 H 616.641 6.76388 -1.59764 0
M  V30 6469 H 619.832 4.61356 -0.791713 0
M  V30 6470 H 620.005 6.33905 -1.34417 0
M  V30 6471 N 613.412 0.11024 1.57214 0
M  V30 6472 C 614.661 -0.549638 1.94067 0
M  V30 6473 C 614.974 -1.68388 0.995234 0
M  V30 6474 O 616.18 -2.40593 1.25807 0
M  V30 6475 C 614.636 -1.02912 3.44873 0
M  V30 6476 C 614.244 0.0761861 4.47935 0
M  V30 6477 C 615.988 -1.66087 3.9066 0
M  V30 6478 C 613.895 -0.419502 5.8991 0
M  V30 6479 H 612.825 -0.209092 0.724428 0
M  V30 6480 H 615.476 0.188683 1.82527 0
M  V30 6481 H 613.858 -1.82159 3.51616 0
M  V30 6482 H 615.032 0.852185 4.52851 0
M  V30 6483 H 613.347 0.614052 4.11847 0
M  V30 6484 H 615.944 -2.04272 4.94143 0
M  V30 6485 H 616.287 -2.53591 3.30148 0
M  V30 6486 H 616.82 -0.933959 3.86681 0
M  V30 6487 H 613.559 0.419277 6.54158 0
M  V30 6488 H 613.079 -1.16217 5.88433 0
M  V30 6489 H 614.758 -0.883577 6.40938 0
M  V30 6490 N 614.89 -1.56749 -0.16351 0
M  V30 6491 C 616.115 -1.86938 -0.898264 0
M  V30 6492 C 616.54 -0.697456 -1.74692 0
M  V30 6493 O 615.898 0.353327 -1.77824 0
M  V30 6494 C 615.946 -3.15599 -1.74441 0
M  V30 6495 O 615.05 -2.98371 -2.8469 0
M  V30 6496 H 614.391 -0.614659 -0.251178 0
M  V30 6497 H 616.921 -2.03979 -0.159298 0
M  V30 6498 H 616.931 -3.47202 -2.14277 0
M  V30 6499 H 615.606 -4.00505 -1.1211 0
M  V30 6500 H 614.183 -2.7814 -2.4838 0
M  V30 6501 N 616.368 0.432326 -1.51554 0
M  V30 6502 C 617.598 1.2019 -1.68042 0
M  V30 6503 C 618.006 1.85356 -0.379434 0
M  V30 6504 O 617.349 1.71724 0.652427 0
M  V30 6505 C 617.411 2.32387 -2.74292 0
M  V30 6506 C 617.075 1.87548 -4.16743 0
M  V30 6507 C 618.072 1.37611 -5.01357 0
M  V30 6508 C 615.757 1.95087 -4.62868 0
M  V30 6509 C 617.751 0.958069 -6.30159 0
M  V30 6510 C 615.438 1.52894 -5.91664 0
M  V30 6511 C 616.436 1.03336 -6.75137 0
M  V30 6512 O 616.124 0.617435 -8.01525 0
M  V30 6513 H 615.856 0.368132 -0.56697 0
M  V30 6514 H 618.41 0.517875 -1.98764 0
M  V30 6515 H 616.64 3.04082 -2.38895 0
M  V30 6516 H 618.329 2.94235 -2.79608 0
M  V30 6517 H 619.095 1.31178 -4.66923 0
M  V30 6518 H 614.974 2.32606 -3.98015 0
M  V30 6519 H 618.518 0.570562 -6.95263 0
M  V30 6520 H 614.415 1.58999 -6.25611 0
M  V30 6521 H 615.183 0.742835 -8.15122 0
M  V30 6522 N 617.846 1.41785 0.688094 0
M  V30 6523 C 618.794 1.44436 1.82321 0
M  V30 6524 C 619.788 0.321544 1.6632 0
M  V30 6525 O 620.994 0.493931 1.73091 0
M  V30 6526 H 617.369 0.452084 0.600936 0
M  V30 6527 H 619.34 2.40087 1.77202 0
M  V30 6528 C 618.089 1.35071 3.20392 0
M  V30 6529 H 617.412 2.2076 3.33324 0
M  V30 6530 H 618.852 1.40988 3.99873 0
M  V30 6531 C 617.311 0.0639127 3.36839 0
M  V30 6532 O 617.841 -0.888495 3.91751 0
M  V30 6533 N 616.047 -0.0146114 2.90596 0
M  V30 6534 H 615.594 0.761191 2.46097 0
M  V30 6535 H 615.552 -0.874988 3.01979 0
M  V30 6536 N 619.324 -0.923095 1.27737 0
M  V30 6537 C 620.57 -1.67375 1.14514 0
M  V30 6538 C 620.903 -1.91751 -0.307424 0
M  V30 6539 O 620.178 -1.51119 -1.22447 0
M  V30 6540 C 620.461 -3.03745 1.9342 0
M  V30 6541 C 620.314 -2.86581 3.46686 0
M  V30 6542 C 621.633 -4.04144 1.74228 0
M  V30 6543 H 618.752 -0.607427 0.417374 0
M  V30 6544 H 621.394 -1.07089 1.56946 0
M  V30 6545 H 619.544 -3.55204 1.5736 0
M  V30 6546 H 621.216 -2.42203 3.92601 0
M  V30 6547 H 619.459 -2.21829 3.72793 0
M  V30 6548 H 620.13 -3.83381 3.97143 0
M  V30 6549 H 622.606 -3.61712 2.05678 0
M  V30 6550 H 621.482 -4.97543 2.31824 0
M  V30 6551 H 621.743 -4.36661 0.691373 0
M  V30 6552 N 620.802 -1.09834 -1.13024 0
M  V30 6553 C 622.032 -0.857657 -1.87957 0
M  V30 6554 C 622.44 0.595008 -1.796 0
M  V30 6555 O 621.783 1.42158 -1.16347 0
M  V30 6556 C 621.845 -1.21949 -3.38185 0
M  V30 6557 C 621.509 -2.67791 -3.7032 0
M  V30 6558 C 622.506 -3.66036 -3.69207 0
M  V30 6559 C 620.191 -3.04019 -3.99847 0
M  V30 6560 C 622.185 -4.98533 -3.9717 0
M  V30 6561 C 619.872 -4.36706 -4.27471 0
M  V30 6562 C 620.87 -5.33772 -4.26118 0
M  V30 6563 O 620.558 -6.64072 -4.53061 0
M  V30 6564 H 620.29 -0.308009 -0.601753 0
M  V30 6565 H 622.844 -1.46496 -1.43973 0
M  V30 6566 H 621.074 -0.555249 -3.82693 0
M  V30 6567 H 622.763 -0.957281 -3.9445 0
M  V30 6568 H 623.529 -3.39392 -3.46465 0
M  V30 6569 H 619.408 -2.29096 -4.00045 0
M  V30 6570 H 622.952 -5.74288 -3.96029 0
M  V30 6571 H 618.849 -4.63091 -4.49685 0
M  V30 6572 H 619.617 -6.69608 -4.7071 0
M  V30 6573 N 622.28 1.30327 -0.886154 0
M  V30 6574 C 623.21 2.30549 -0.370028 0
M  V30 6575 C 624.191 1.61039 0.547751 0
M  V30 6576 O 625.376 1.8864 0.461353 0
M  V30 6577 C 622.506 3.44808 0.415275 0
M  V30 6578 C 621.46 4.26024 -0.41085 0
M  V30 6579 C 620.786 5.32347 0.501128 0
M  V30 6580 C 622.086 4.95433 -1.65359 0
M  V30 6581 H 623.78 2.73969 -1.20754 0
M  V30 6582 H 621.326 1.3171 -0.582097 0
M  V30 6583 H 623.279 4.13986 0.78699 0
M  V30 6584 H 622.003 3.00197 1.28644 0
M  V30 6585 H 620.662 3.58535 -0.764719 0
M  V30 6586 H 620.31 4.83982 1.37004 0
M  V30 6587 H 620.01 5.87581 -0.0478356 0
M  V30 6588 H 621.534 6.0438 0.869333 0
M  V30 6589 H 622.948 5.5712 -1.35239 0
M  V30 6590 H 621.345 5.60537 -2.14284 0
M  V30 6591 H 622.415 4.21493 -2.39733 0
M  V30 6592 N 623.758 0.647228 1.43697 0
M  V30 6593 C 624.721 -0.0385101 2.29168 0
M  V30 6594 C 625.721 -0.756487 1.41894 0
M  V30 6595 O 626.911 -0.598641 1.63591 0
M  V30 6596 C 624.043 -1.06524 3.23829 0
M  V30 6597 H 625.236 0.713445 2.9129 0
M  V30 6598 H 622.789 0.408153 1.50877 0
M  V30 6599 H 623.524 -1.84664 2.66589 0
M  V30 6600 H 623.309 -0.554147 3.88164 0
M  V30 6601 H 624.799 -1.54432 3.87996 0
M  V30 6602 N 625.236 -1.5273 0.388769 0
M  V30 6603 C 626.482 -2.01871 -0.193877 0
M  V30 6604 C 626.815 -1.27475 -1.46505 0
M  V30 6605 O 626.09 -0.375063 -1.90849 0
M  V30 6606 C 626.373 -3.5712 -0.462336 0
M  V30 6607 C 626.226 -4.42186 0.824091 0
M  V30 6608 C 627.545 -4.21881 -1.25319 0
M  V30 6609 H 624.664 -0.733764 -0.0689899 0
M  V30 6610 H 627.306 -1.82796 0.518231 0
M  V30 6611 H 625.456 -3.73504 -1.06896 0
M  V30 6612 H 627.128 -4.37554 1.46096 0
M  V30 6613 H 625.371 -4.09219 1.43952 0
M  V30 6614 H 626.042 -5.48828 0.590905 0
M  V30 6615 H 628.518 -4.0947 -0.73981 0
M  V30 6616 H 627.394 -5.30487 -1.40977 0
M  V30 6617 H 627.655 -3.79478 -2.26824 0
M  V30 6618 N 626.714 -0.118576 -1.57153 0
M  V30 6619 C 627.944 0.546466 -1.99242 0
M  V30 6620 C 628.352 1.60791 -0.997148 0
M  V30 6621 O 627.695 1.83691 0.0181745 0
M  V30 6622 C 627.757 1.23167 -3.37743 0
M  V30 6623 C 627.421 0.318226 -4.55891 0
M  V30 6624 C 628.418 -0.442988 -5.18009 0
M  V30 6625 C 626.103 0.229421 -5.01776 0
M  V30 6626 C 628.097 -1.28074 -6.244 0
M  V30 6627 C 625.784 -0.611966 -6.08028 0
M  V30 6628 C 626.782 -1.36568 -6.69207 0
M  V30 6629 O 626.47 -2.1931 -7.73407 0
M  V30 6630 H 626.202 0.149297 -0.659307 0
M  V30 6631 H 628.756 -0.201603 -2.04408 0
M  V30 6632 H 626.986 2.0268 -3.29329 0
M  V30 6633 H 628.675 1.79358 -3.64123 0
M  V30 6634 H 629.441 -0.38425 -4.83475 0
M  V30 6635 H 625.32 0.805771 -4.53903 0
M  V30 6636 H 628.864 -1.86952 -6.72082 0
M  V30 6637 H 624.761 -0.6721 -6.41991 0
M  V30 6638 H 625.529 -2.12247 -7.90502 0
M  V30 6639 N 628.193 1.56834 0.155195 0
M  V30 6640 C 629.418 1.87412 0.888337 0
M  V30 6641 C 629.843 0.70671 1.74319 0
M  V30 6642 O 629.201 -0.343892 1.78009 0
M  V30 6643 C 629.249 3.1652 1.72765 0
M  V30 6644 O 628.353 2.99877 2.83103 0
M  V30 6645 H 627.694 0.615983 0.247914 0
M  V30 6646 H 630.224 2.04061 0.148478 0
M  V30 6647 H 630.234 3.48334 2.12433 0
M  V30 6648 H 628.909 4.01094 1.09985 0
M  V30 6649 H 627.486 2.79453 2.46902 0
M  V30 6650 N 629.671 -0.424282 1.51781 0
M  V30 6651 C 630.92 -1.16961 1.64326 0
M  V30 6652 C 631.233 -1.92035 0.371749 0
M  V30 6653 O 632.439 -2.68873 0.37676 0
M  V30 6654 C 630.895 -2.12782 2.90262 0
M  V30 6655 C 630.503 -1.43295 4.24465 0
M  V30 6656 C 632.247 -2.87667 3.12166 0
M  V30 6657 C 630.154 -2.37676 5.41538 0
M  V30 6658 H 629.084 -0.440293 0.612093 0
M  V30 6659 H 631.735 -0.435431 1.78259 0
M  V30 6660 H 630.117 -2.8969 2.69992 0
M  V30 6661 H 631.291 -0.718564 4.55163 0
M  V30 6662 H 629.606 -0.805118 4.08542 0
M  V30 6663 H 632.203 -3.58395 3.96808 0
M  V30 6664 H 632.546 -3.49758 2.25776 0
M  V30 6665 H 633.079 -2.17863 3.32837 0
M  V30 6666 H 629.818 -1.80255 6.30229 0
M  V30 6667 H 629.338 -3.07132 5.15199 0
M  V30 6668 H 631.017 -2.98529 5.74012 0
M  V30 6669 N 631.149 -1.42148 -0.680565 0
M  V30 6670 C 632.112 -1.4488 -1.77602 0
M  V30 6671 C 633.112 -0.337209 -1.57224 0
M  V30 6672 O 634.302 -0.597778 -1.63622 0
M  V30 6673 C 631.434 -1.27483 -3.16166 0
M  V30 6674 H 632.627 -2.42412 -1.76568 0
M  V30 6675 H 630.18 -1.28511 -0.889645 0
M  V30 6676 H 630.915 -0.30851 -3.22829 0
M  V30 6677 H 630.7 -2.08037 -3.3236 0
M  V30 6678 H 632.19 -1.32265 -3.96101 0
M  V30 6679 N 632.627 0.916307 -1.28225 0
M  V30 6680 C 633.577 2.00488 -1.08574 0
M  V30 6681 C 634.561 1.60897 -0.0101874 0
M  V30 6682 O 635.753 1.75499 -0.230034 0
M  V30 6683 C 632.882 3.35076 -0.746943 0
M  V30 6684 C 631.968 3.81077 -1.86121 0
M  V30 6685 N 632.359 3.99475 -3.10247 0
M  V30 6686 C 630.657 4.10212 -1.75048 0
M  V30 6687 C 631.358 4.37965 -3.82834 0
M  V30 6688 N 630.334 4.4608 -3.10667 0
M  V30 6689 H 634.136 2.1276 -2.02757 0
M  V30 6690 H 631.65 1.10397 -1.19107 0
M  V30 6691 H 633.647 4.12743 -0.587252 0
M  V30 6692 H 632.307 3.2416 0.187146 0
M  V30 6693 H 633.318 3.85466 -3.45885 0
M  V30 6694 H 629.995 4.07947 -0.887999 0
M  V30 6695 H 631.385 4.60183 -4.89572 0
M  V30 6696 N 634.105 1.10431 1.1244 0
M  V30 6697 C 635.068 0.756542 2.16354 0
M  V30 6698 C 636.068 -0.21899 1.59302 0
M  V30 6699 O 637.258 0.00415969 1.742 0
M  V30 6700 C 634.39 0.120612 3.40687 0
M  V30 6701 H 635.583 1.67696 2.48632 0
M  V30 6702 H 633.136 0.904832 1.27446 0
M  V30 6703 H 633.871 -0.810536 3.14008 0
M  V30 6704 H 633.656 0.822693 3.83372 0
M  V30 6705 H 635.146 -0.106945 4.17463 0
M  V30 6706 N 635.583 -1.29855 0.893053 0
M  V30 6707 C 636.513 -2.3035 0.382249 0
M  V30 6708 C 637.494 -1.61328 -0.539203 0
M  V30 6709 O 638.679 -1.88882 -0.451342 0
M  V30 6710 C 635.809 -3.45024 -0.396983 0
M  V30 6711 C 634.763 -4.258 0.433437 0
M  V30 6712 C 634.089 -5.32605 -0.472889 0
M  V30 6713 C 635.389 -4.94549 1.67984 0
M  V30 6714 H 637.083 -2.73325 1.22205 0
M  V30 6715 H 634.629 -1.314 0.589073 0
M  V30 6716 H 636.582 -4.14398 -0.765024 0
M  V30 6717 H 635.306 -3.00875 -1.2705 0
M  V30 6718 H 633.965 -3.58125 0.783723 0
M  V30 6719 H 633.613 -4.84702 -1.34435 0
M  V30 6720 H 633.313 -5.87547 0.0789958 0
M  V30 6721 H 634.837 -6.04832 -0.837269 0
M  V30 6722 H 636.251 -5.56395 1.38192 0
M  V30 6723 H 634.648 -5.59393 2.17254 0
M  V30 6724 H 635.718 -4.20215 2.41965 0
M  V30 6725 N 637.061 -0.65484 -1.43351 0
M  V30 6726 C 637.993 0.0744757 -2.29079 0
M  V30 6727 C 639.006 0.7855 -1.42596 0
M  V30 6728 O 640.195 0.642986 -1.66517 0
M  V30 6729 C 637.295 1.12859 -3.19556 0
M  V30 6730 C 636.468 0.495381 -4.34586 0
M  V30 6731 C 635.527 1.44659 -5.05925 0
M  V30 6732 O 634.553 0.954567 -5.61139 0
M  V30 6733 N 635.755 2.78051 -5.09576 0
M  V30 6734 H 638.52 -0.661346 -2.92312 0
M  V30 6735 H 636.081 -0.497744 -1.54059 0
M  V30 6736 H 638.073 1.76577 -3.64147 0
M  V30 6737 H 636.643 1.76636 -2.57912 0
M  V30 6738 H 635.863 -0.32092 -3.92892 0
M  V30 6739 H 637.151 0.0534203 -5.08772 0
M  V30 6740 H 636.549 3.20584 -4.66093 0
M  V30 6741 H 635.106 3.37068 -5.57878 0
M  V30 6742 N 638.539 1.52521 -0.396863 0
M  V30 6743 C 639.816 1.94112 0.240842 0
M  V30 6744 C 640.196 1.33288 1.637 0
M  V30 6745 O 639.544 0.503901 2.22875 0
M  V30 6746 C 639.754 3.48033 0.259567 0
M  V30 6747 C 641.102 4.21822 0.484866 0
M  V30 6748 O 642.126 3.54579 0.339453 0
M  V30 6749 O 640.985 5.41042 0.770412 0
M  V30 6750 H 638.079 0.812973 0.151671 0
M  V30 6751 H 640.625 1.63572 -0.451918 0
M  V30 6752 H 639.397 3.84655 -0.718078 0
M  V30 6753 H 639.02 3.84899 0.996937 0
M  V30 6754 N 640.017 0.126909 1.57088 0
M  V30 6755 C 641.266 -0.529024 1.94639 0
M  V30 6756 C 641.579 -1.67323 1.01304 0
M  V30 6757 O 642.785 -2.39245 1.28352 0
M  V30 6758 C 641.241 -0.992483 3.45945 0
M  V30 6759 C 640.849 0.123691 4.47829 0
M  V30 6760 C 642.593 -1.61934 3.924 0
M  V30 6761 C 640.5 -0.356911 5.90322 0
M  V30 6762 H 639.43 -0.201397 0.726605 0
M  V30 6763 H 642.081 0.208032 1.82317 0
M  V30 6764 H 640.463 -1.7842 3.53528 0
M  V30 6765 H 641.637 0.900168 4.51922 0
M  V30 6766 H 639.952 0.657699 4.11173 0
M  V30 6767 H 642.549 -1.9902 4.96281 0
M  V30 6768 H 642.892 -2.50075 3.32819 0
M  V30 6769 H 643.425 -0.892894 3.8765 0
M  V30 6770 H 640.164 0.488636 6.53676 0
M  V30 6771 H 639.684 -1.0997 5.89633 0
M  V30 6772 H 641.363 -0.815547 6.41839 0
M  V30 6773 N 641.495 -1.56914 -0.146875 0
M  V30 6774 C 642.725 -1.87243 -0.873126 0
M  V30 6775 C 643.133 -0.713127 -1.75246 0
M  V30 6776 O 642.476 0.326228 -1.8078 0
M  V30 6777 C 642.538 -3.12279 -1.78107 0
M  V30 6778 C 642.202 -4.44082 -1.07889 0
M  V30 6779 C 643.199 -5.18096 -0.432734 0
M  V30 6780 C 640.884 -4.90807 -1.06836 0
M  V30 6781 C 642.878 -6.37039 0.214569 0
M  V30 6782 C 640.565 -6.09674 -0.417243 0
M  V30 6783 C 641.563 -6.82636 0.223093 0
M  V30 6784 O 641.251 -7.99245 0.863884 0
M  V30 6785 H 640.983 -0.624896 -0.257839 0
M  V30 6786 H 643.537 -2.04892 -0.14434 0
M  V30 6787 H 641.767 -2.90639 -2.5508 0
M  V30 6788 H 643.456 -3.28854 -2.37929 0
M  V30 6789 H 644.222 -4.83066 -0.432677 0
M  V30 6790 H 640.101 -4.3394 -1.55618 0
M  V30 6791 H 643.645 -6.93927 0.714965 0
M  V30 6792 H 639.542 -6.44165 -0.414967 0
M  V30 6793 H 640.31 -8.14912 0.765564 0
M  V30 6794 N 642.974 0.416227 -1.52004 0
M  V30 6795 C 644.202 1.18573 -1.69553 0
M  V30 6796 C 644.617 1.84472 -0.401919 0
M  V30 6797 O 643.974 1.71593 0.621463 0
M  V30 6798 C 644.025 2.25413 -2.82615 0
M  V30 6799 O 643.746 1.62205 -4.06966 0
M  V30 6800 C 645.247 3.15297 -3.11613 0
M  V30 6801 H 642.467 0.356582 -0.56841 0
M  V30 6802 H 645.011 0.490618 -1.98528 0
M  V30 6803 H 643.166 2.90604 -2.56179 0
M  V30 6804 H 643.58 2.3298 -4.69916 0
M  V30 6805 H 645.054 3.86351 -3.94255 0
M  V30 6806 H 645.531 3.77264 -2.24874 0
M  V30 6807 H 646.137 2.55783 -3.39787 0
M  V30 6808 N 644.452 1.42507 0.673017 0
M  V30 6809 C 645.692 1.44559 1.44507 0
M  V30 6810 C 646.056 0.0606206 1.91904 0
M  V30 6811 O 647.257 -0.044139 2.68764 0
M  V30 6812 C 645.528 2.44291 2.60877 0
M  V30 6813 S 647.087 2.65059 3.49699 0
M  V30 6814 H 643.905 0.51181 0.49353 0
M  V30 6815 H 646.507 1.79124 0.783256 0
M  V30 6816 H 645.211 3.43685 2.24297 0
M  V30 6817 H 644.742 2.11157 3.31928 0
M  V30 6818 H 646.757 1.93494 4.56919 0
M  V30 6819 N 645.93 -0.909495 1.28709 0
M  V30 6820 C 646.86 -2.0291 1.15542 0
M  V30 6821 C 647.841 -1.7002 0.0521017 0
M  V30 6822 O 649.026 -1.92835 0.229849 0
M  V30 6823 C 646.156 -3.37458 0.820935 0
M  V30 6824 C 645.11 -3.84524 1.87949 0
M  V30 6825 C 644.436 -5.16086 1.39854 0
M  V30 6826 C 645.736 -4.05918 3.28676 0
M  V30 6827 H 647.43 -2.14183 2.09203 0
M  V30 6828 H 644.976 -1.02913 1.00722 0
M  V30 6829 H 646.929 -4.1528 0.715571 0
M  V30 6830 H 645.653 -3.26249 -0.151374 0
M  V30 6831 H 644.312 -3.08911 1.97408 0
M  V30 6832 H 643.96 -5.01284 0.41518 0
M  V30 6833 H 643.66 -5.48547 2.1064 0
M  V30 6834 H 645.184 -5.96459 1.30649 0
M  V30 6835 H 646.598 -4.74252 3.22115 0
M  V30 6836 H 644.995 -4.49717 3.97334 0
M  V30 6837 H 646.065 -3.10583 3.72379 0
M  V30 6838 N 647.408 -1.11026 -1.11852 0
M  V30 6839 C 648.819 -0.873203 -1.65021 0
M  V30 6840 C 649.17 0.595364 -1.86949 0
M  V30 6841 O 648.295 1.45645 -1.60051 0
M  V30 6842 C 648.89 -1.57859 -2.99777 0
M  V30 6843 C 647.449 -1.38807 -3.49871 0
M  V30 6844 C 646.596 -1.62403 -2.24768 0
M  V30 6845 H 649.547 -1.26712 -0.955503 0
M  V30 6846 H 649.568 -1.02111 -3.66543 0
M  V30 6847 H 649.08 -2.6474 -2.83786 0
M  V30 6848 H 647.181 -0.341163 -3.71035 0
M  V30 6849 H 647.294 -2.13421 -4.28938 0
M  V30 6850 H 645.658 -1.04714 -2.32179 0
M  V30 6851 H 646.441 -2.70549 -2.11324 0
M  V30 6852 N 648.886 1.2938 -0.899927 0
M  V30 6853 C 650.134 1.95164 -0.524924 0
M  V30 6854 C 650.455 1.71292 0.931888 0
M  V30 6855 O 649.725 1.04481 1.65712 0
M  V30 6856 H 648.305 0.722133 -0.191135 0
M  V30 6857 H 650.967 1.57628 -1.14627 0
M  V30 6858 H 650.063 3.0397 -0.707711 0
M  V30 6859 N 650.364 0.662433 1.43002 0
M  V30 6860 C 651.78 0.330835 1.56133 0
M  V30 6861 C 651.98 -1.16454 1.64441 0
M  V30 6862 O 651.036 -1.94964 1.60453 0
M  V30 6863 C 652.349 1.05029 2.81761 0
M  V30 6864 C 653.897 1.03142 2.95518 0
M  V30 6865 C 654.372 1.73196 4.2399 0
M  V30 6866 N 655.863 1.70004 4.30875 0
M  V30 6867 C 656.598 2.21074 5.29069 0
M  V30 6868 N 656.094 2.80473 6.33488 0
M  V30 6869 N 657.887 2.1152 5.20784 0
M  V30 6870 H 650.038 1.63272 1.35853 0
M  V30 6871 H 652.301 0.687149 0.653092 0
M  V30 6872 H 652.007 2.10542 2.81718 0
M  V30 6873 H 651.881 0.607664 3.72273 0
M  V30 6874 H 654.268 -0.0153339 2.95096 0
M  V30 6875 H 654.349 1.51282 2.0627 0
M  V30 6876 H 653.993 2.77833 4.25172 0
M  V30 6877 H 653.923 1.22515 5.1215 0
M  V30 6878 H 656.414 1.26667 3.56039 0
M  V30 6879 H 656.727 3.17094 7.04749 0
M  V30 6880 H 655.072 2.84538 6.34085 0
M  V30 6881 H 658.263 1.64814 4.38126 0
M  V30 6882 H 658.436 2.51629 5.97149 0
M  V30 6883 N 651.842 -1.52309 0.404946 0
M  V30 6884 C 653.09 -2.01368 -0.17186 0
M  V30 6885 C 653.411 -1.29261 -1.46002 0
M  V30 6886 O 652.681 -0.41729 -1.91404 0
M  V30 6887 H 651.261 -0.744034 -0.0664993 0
M  V30 6888 H 653.923 -1.87263 0.540228 0
M  V30 6889 H 653.019 -3.09888 -0.370957 0
M  V30 6890 N 653.32 -0.135238 -1.57019 0
M  V30 6891 C 654.25 0.805235 -2.19176 0
M  V30 6892 C 655.231 1.2656 -1.13651 0
M  V30 6893 O 656.416 1.32528 -1.4195 0
M  V30 6894 C 653.546 2.04914 -2.80406 0
M  V30 6895 C 652.5 1.72598 -3.91655 0
M  V30 6896 C 651.826 3.04154 -4.39766 0
M  V30 6897 C 653.126 0.981709 -5.12991 0
M  V30 6898 H 654.82 0.287232 -2.98019 0
M  V30 6899 H 652.366 0.136714 -1.4335 0
M  V30 6900 H 654.319 2.71178 -3.22553 0
M  V30 6901 H 653.043 2.59067 -1.98877 0
M  V30 6902 H 651.702 1.08717 -3.50109 0
M  V30 6903 H 651.35 3.56274 -3.55075 0
M  V30 6904 H 651.05 2.83299 -5.14796 0
M  V30 6905 H 652.574 3.71509 -4.84576 0
M  V30 6906 H 653.988 1.5462 -5.52056 0
M  V30 6907 H 652.385 0.873533 -5.93708 0
M  V30 6908 H 653.455 -0.0286887 -4.84892 0
M  V30 6909 N 654.798 1.5699 0.138552 0
M  V30 6910 C 656.045 1.83809 0.849732 0
M  V30 6911 C 656.373 0.717409 1.80786 0
M  V30 6912 O 655.628 -0.292897 1.93496 0
M  V30 6913 C 655.927 3.17007 1.65049 0
M  V30 6914 C 655.593 4.43037 0.838398 0
M  V30 6915 C 654.255 4.77262 0.614385 0
M  V30 6916 C 656.607 5.20495 0.271044 0
M  V30 6917 C 653.935 5.864 -0.187552 0
M  V30 6918 C 656.287 6.30476 -0.517979 0
M  V30 6919 C 654.951 6.63245 -0.75249 0
M  V30 6920 H 654.221 0.672605 0.310939 0
M  V30 6921 H 656.868 1.91166 0.112971 0
M  V30 6922 H 655.173 3.05138 2.4576 0
M  V30 6923 H 656.87 3.34975 2.20437 0
M  V30 6924 H 653.46 4.16211 1.02307 0
M  V30 6925 H 657.644 4.94422 0.431371 0
M  V30 6926 H 652.9 6.10226 -0.378659 0
M  V30 6927 H 657.074 6.89686 -0.964694 0
M  V30 6928 H 654.701 7.47648 -1.37573 0
M  V30 6929 N 656.276 -0.40816 1.52223 0
M  V30 6930 C 657.504 -1.17672 1.70179 0
M  V30 6931 C 657.919 -1.84257 0.411696 0
M  V30 6932 O 657.276 -1.7192 -0.612354 0
M  V30 6933 C 657.327 -2.23911 2.83806 0
M  V30 6934 O 657.048 -1.60044 4.0782 0
M  V30 6935 C 658.549 -3.1364 3.13281 0
M  V30 6936 H 655.769 -0.353562 0.570293 0
M  V30 6937 H 658.313 -0.480083 1.98785 0
M  V30 6938 H 656.468 -2.89242 2.57717 0
M  V30 6939 H 656.882 -2.30484 4.71145 0
M  V30 6940 H 658.356 -3.84255 3.96298 0
M  V30 6941 H 658.833 -3.76066 2.26872 0
M  V30 6942 H 659.439 -2.53977 3.41139 0
M  V30 6943 N 657.755 -1.42862 -0.66545 0
M  V30 6944 C 658.703 -1.47319 -1.8 0
M  V30 6945 C 659.697 -0.347963 -1.65788 0
M  V30 6946 O 660.903 -0.521406 -1.72283 0
M  V30 6947 H 657.278 -0.461588 -0.593667 0
M  V30 6948 H 659.249 -2.42876 -1.7336 0
M  V30 6949 C 657.998 -1.40152 -3.18203 0
M  V30 6950 H 657.321 -2.26035 -3.2977 0
M  V30 6951 H 658.761 -1.47331 -3.9758 0
M  V30 6952 C 657.22 -0.117493 -3.36695 0
M  V30 6953 O 657.75 0.826058 -3.93115 0
M  V30 6954 N 655.956 -0.0316218 -2.90583 0
M  V30 6955 H 655.503 -0.800247 -2.44855 0
M  V30 6956 H 655.461 0.826835 -3.03333 0
M  V30 6957 N 659.233 0.902656 -1.29189 0
M  V30 6958 C 660.481 1.6496 -1.16758 0
M  V30 6959 C 660.802 1.92952 0.28188 0
M  V30 6960 O 660.072 1.55351 1.19344 0
M  V30 6961 H 658.652 0.611447 -0.429118 0
M  V30 6962 H 661.314 1.0825 -1.62074 0
M  V30 6963 H 660.41 2.60728 -1.71544 0
M  V30 6964 N 660.711 1.11618 1.11262 0
M  V30 6965 C 661.936 0.889013 1.8738 0
M  V30 6966 C 662.361 -0.555884 1.79698 0
M  V30 6967 O 661.719 -1.39272 1.16073 0
M  V30 6968 C 661.767 1.35759 3.34069 0
M  V30 6969 O 660.871 0.530499 4.08974 0
M  V30 6970 H 660.212 0.320082 0.581759 0
M  V30 6971 H 662.742 1.48611 1.40627 0
M  V30 6972 H 662.752 1.35291 3.84916 0
M  V30 6973 H 661.427 2.40973 3.38976 0
M  V30 6974 H 660.004 0.601439 3.68018 0
M  V30 6975 N 662.189 -1.289 0.906776 0
M  V30 6976 C 663.429 -1.97046 0.543329 0
M  V30 6977 C 663.793 -1.69862 -0.895034 0
M  V30 6978 O 664.994 -2.31521 -1.36571 0
M  V30 6979 C 663.265 -3.47489 0.835833 0
M  V30 6980 S 664.824 -4.3498 0.577756 0
M  V30 6981 H 661.642 -0.681908 0.201302 0
M  V30 6982 H 664.244 -1.5657 1.17073 0
M  V30 6983 H 662.948 -3.64768 1.88075 0
M  V30 6984 H 662.479 -3.92907 0.196817 0
M  V30 6985 H 664.494 -4.92868 -0.574052 0
M  V30 6986 N 663.667 -0.670007 -1.42649 0
M  V30 6987 C 664.63 0.00204659 -2.292 0
M  V30 6988 C 665.63 0.733817 -1.4308 0
M  V30 6989 O 666.82 0.57254 -1.64522 0
M  V30 6990 C 663.952 1.01359 -3.25483 0
M  V30 6991 H 665.145 -0.759696 -2.90118 0
M  V30 6992 H 662.698 -0.432105 -1.50208 0
M  V30 6993 H 663.433 1.80399 -2.69493 0
M  V30 6994 H 663.218 0.492323 -3.88997 0
M  V30 6995 H 664.708 1.4824 -3.90403 0
M  V30 6996 N 665.145 1.52092 -0.413018 0
M  V30 6997 C 666.422 1.94356 0.22024 0
M  V30 6998 C 666.802 1.35017 1.62277 0
M  V30 6999 O 666.15 0.527511 2.22328 0
M  V30 7000 C 666.36 3.48289 0.222638 0
M  V30 7001 C 667.708 4.22313 0.440098 0
M  V30 7002 O 668.732 3.54919 0.301826 0
M  V30 7003 O 667.591 5.41829 0.712984 0
M  V30 7004 H 664.685 0.814536 0.14304 0
M  V30 7005 H 667.231 1.63083 -0.469242 0
M  V30 7006 H 666.003 3.83872 -0.758836 0
M  V30 7007 H 665.626 3.85934 0.956057 0
M  V30 7008 N 666.623 0.143563 1.56945 0
M  V30 7009 C 667.872 -0.50835 1.95189 0
M  V30 7010 C 668.185 -1.66239 1.03073 0
M  V30 7011 O 669.391 -2.3787 1.30882 0
M  V30 7012 C 667.847 -0.955735 3.46978 0
M  V30 7013 C 667.455 0.171183 4.47673 0
M  V30 7014 C 669.199 -1.57763 3.94095 0
M  V30 7015 C 667.106 -0.294279 5.90667 0
M  V30 7016 H 666.036 -0.193679 0.728701 0
M  V30 7017 H 668.687 0.227357 1.82086 0
M  V30 7018 H 667.069 -1.7466 3.55401 0
M  V30 7019 H 668.243 0.948049 4.50942 0
M  V30 7020 H 666.558 0.701273 4.10452 0
M  V30 7021 H 669.155 -1.93745 4.98364 0
M  V30 7022 H 669.498 -2.46531 3.35452 0
M  V30 7023 H 670.031 -0.851728 3.88575 0
M  V30 7024 H 666.77 0.557939 6.53121 0
M  V30 7025 H 666.29 -1.0371 5.90766 0
M  V30 7026 H 667.969 -0.747426 6.42668 0
M  V30 7027 N 668.101 -1.57061 -0.130224 0
M  V30 7028 C 669.048 -1.99517 -1.16024 0
M  V30 7029 C 670.018 -0.865452 -1.41771 0
M  V30 7030 O 671.203 -1.12882 -1.53826 0
M  V30 7031 C 668.343 -2.3951 -2.48453 0
M  V30 7032 C 667.456 -3.65848 -2.29737 0
M  V30 7033 C 666.591 -3.9487 -3.55318 0
M  V30 7034 C 665.63 -5.14426 -3.31711 0
M  V30 7035 N 664.767 -5.39375 -4.49466 0
M  V30 7036 H 669.607 -2.87305 -0.791194 0
M  V30 7037 H 667.144 -1.42129 -0.379195 0
M  V30 7038 H 669.102 -2.60731 -3.25692 0
M  V30 7039 H 667.732 -1.54779 -2.83272 0
M  V30 7040 H 666.784 -3.52307 -1.4347 0
M  V30 7041 H 668.096 -4.53241 -2.08263 0
M  V30 7042 H 667.25 -4.16679 -4.4098 0
M  V30 7043 H 665.989 -3.05931 -3.79813 0
M  V30 7044 H 664.994 -4.92473 -2.44439 0
M  V30 7045 H 666.219 -6.04933 -3.08598 0
M  V30 7046 H 664.165 -4.53391 -4.74102 0
M  V30 7047 H 664.082 -6.21069 -4.31055 0
M  V30 7048 H 665.35 -5.65694 -5.36293 0
M  V30 7049 N 669.579 0.400081 -1.52437 0
M  V30 7050 C 670.526 1.48803 -1.76426 0
M  V30 7051 C 671.496 1.5461 -0.607032 0
M  V30 7052 O 672.681 1.71041 -0.845563 0
M  V30 7053 C 669.821 2.86156 -1.92896 0
M  V30 7054 C 668.934 2.89587 -3.20567 0
M  V30 7055 C 668.069 4.18296 -3.27417 0
M  V30 7056 C 667.108 4.15736 -4.49255 0
M  V30 7057 N 666.245 5.36032 -4.53447 0
M  V30 7058 H 671.085 1.27649 -2.69276 0
M  V30 7059 H 668.622 0.619451 -1.33421 0
M  V30 7060 H 670.58 3.65901 -2.00429 0
M  V30 7061 H 669.21 3.05785 -1.03418 0
M  V30 7062 H 668.262 2.02278 -3.22161 0
M  V30 7063 H 669.574 2.83562 -4.10358 0
M  V30 7064 H 668.728 5.06439 -3.34072 0
M  V30 7065 H 667.467 4.27028 -2.35581 0
M  V30 7066 H 666.472 3.25982 -4.42737 0
M  V30 7067 H 667.697 4.08636 -5.42396 0
M  V30 7068 H 665.643 5.45415 -3.64498 0
M  V30 7069 H 665.56 5.32038 -5.37096 0
M  V30 7070 H 666.828 6.26104 -4.64343 0
M  V30 7071 N 671.057 1.43213 0.657864 0
M  V30 7072 C 672.303 1.44798 1.41991 0
M  V30 7073 C 672.636 0.070256 1.94073 0
M  V30 7074 O 671.911 -0.908177 1.71995 0
M  V30 7075 C 672.194 2.4865 2.60471 0
M  V30 7076 C 672.047 3.95679 2.13911 0
M  V30 7077 C 673.366 2.49292 3.62686 0
M  V30 7078 H 670.485 0.527244 0.514959 0
M  V30 7079 H 673.127 1.74733 0.74621 0
M  V30 7080 H 671.277 2.23254 3.17946 0
M  V30 7081 H 672.949 4.32116 1.61472 0
M  V30 7082 H 671.192 4.08733 1.45325 0
M  V30 7083 H 671.863 4.6395 2.99089 0
M  V30 7084 H 674.339 2.71917 3.14961 0
M  V30 7085 H 673.215 3.23907 4.43143 0
M  V30 7086 H 673.476 1.52502 4.14964 0
M  V30 7087 N 672.536 -0.895792 1.29666 0
M  V30 7088 C 673.446 -2.03329 1.17024 0
M  V30 7089 C 674.462 -1.73753 0.0925962 0
M  V30 7090 O 675.638 -1.99071 0.305431 0
M  V30 7091 C 672.703 -3.36072 0.851841 0
M  V30 7092 C 671.764 -3.7914 2.01373 0
M  V30 7093 C 670.997 -5.05549 1.71043 0
M  V30 7094 O 671.22 -5.66874 0.633213 0
M  V30 7095 O 670.154 -5.44764 2.5596 0
M  V30 7096 H 673.98 -2.16918 2.12556 0
M  V30 7097 H 671.565 -1.02007 1.09156 0
M  V30 7098 H 673.447 -4.15729 0.689006 0
M  V30 7099 H 672.122 -3.23616 -0.0736634 0
M  V30 7100 H 671.029 -3.00233 2.23183 0
M  V30 7101 H 672.362 -3.96186 2.92058 0
M  V30 7102 N 674.014 -1.12206 -1.10668 0
M  V30 7103 C 674.977 -0.790867 -2.15123 0
M  V30 7104 C 675.977 0.193618 -1.5963 0
M  V30 7105 O 677.167 -0.0318728 -1.74171 0
M  V30 7106 C 674.299 -0.174797 -3.40452 0
M  V30 7107 H 675.492 -1.7163 -2.45933 0
M  V30 7108 H 673.045 -0.924993 -1.2599 0
M  V30 7109 H 673.78 0.760478 -3.15257 0
M  V30 7110 H 673.565 -0.88358 -3.82015 0
M  V30 7111 H 675.055 0.0405162 -4.1758 0
M  V30 7112 N 675.492 1.28418 -0.913599 0
M  V30 7113 C 676.738 1.95627 -0.556933 0
M  V30 7114 C 677.093 1.706 0.889565 0
M  V30 7115 O 676.386 1.01637 1.6242 0
M  V30 7116 C 676.58 3.48283 -0.802099 0
M  V30 7117 C 676.409 3.88151 -2.27088 0
M  V30 7118 C 675.179 4.1232 -2.92096 0
M  V30 7119 C 677.377 3.98819 -3.24728 0
M  V30 7120 N 675.359 4.3886 -4.29272 0
M  V30 7121 C 676.73 4.29571 -4.47067 0
M  V30 7122 C 678.785 3.81342 -3.20129 0
M  V30 7123 C 677.488 4.44667 -5.65388 0
M  V30 7124 C 679.514 3.97656 -4.37749 0
M  V30 7125 C 678.876 4.2878 -5.58862 0
M  V30 7126 H 674.975 0.739715 -0.253664 0
M  V30 7127 H 677.559 1.55074 -1.1773 0
M  V30 7128 H 675.73 3.87826 -0.211007 0
M  V30 7129 H 677.462 4.02623 -0.409478 0
M  V30 7130 H 674.217 4.06611 -2.42826 0
M  V30 7131 H 674.641 4.56214 -5.00198 0
M  V30 7132 H 679.283 3.56331 -2.2757 0
M  V30 7133 H 677.001 4.68509 -6.58426 0
M  V30 7134 H 680.587 3.85569 -4.35692 0
M  V30 7135 H 679.467 4.41136 -6.48359 0
M  V30 7136 N 676.97 0.677563 1.42291 0
M  V30 7137 C 677.902 -0.0380218 2.29168 0
M  V30 7138 C 678.915 -0.762714 1.43828 0
M  V30 7139 O 680.104 -0.616413 1.67519 0
M  V30 7140 C 677.204 -1.07761 3.21311 0
M  V30 7141 C 676.377 -0.42618 4.35319 0
M  V30 7142 C 675.436 -1.36592 5.08162 0
M  V30 7143 O 674.462 -0.865174 5.62586 0
M  V30 7144 N 675.664 -2.69909 5.13935 0
M  V30 7145 H 678.429 0.707766 2.91223 0
M  V30 7146 H 675.99 0.52219 1.53247 0
M  V30 7147 H 677.982 -1.70761 3.6691 0
M  V30 7148 H 676.552 -1.72511 2.60689 0
M  V30 7149 H 675.772 0.383385 3.92331 0
M  V30 7150 H 677.06 0.0275277 5.08793 0
M  V30 7151 H 676.458 -3.13129 4.71134 0
M  V30 7152 H 675.015 -3.2815 5.6317 0
M  V30 7153 N 678.448 -1.51871 0.421078 0
M  V30 7154 C 679.694 -2.02237 -0.151014 0
M  V30 7155 C 680.027 -1.30554 -1.43768 0
M  V30 7156 O 679.302 -0.41546 -1.90011 0
M  V30 7157 C 679.585 -3.5802 -0.386482 0
M  V30 7158 C 679.438 -4.40339 0.9177 0
M  V30 7159 C 680.757 -4.24444 -1.16342 0
M  V30 7160 H 677.876 -0.735062 -0.0534102 0
M  V30 7161 H 680.518 -1.81656 0.556888 0
M  V30 7162 H 678.668 -3.75688 -0.989494 0
M  V30 7163 H 680.34 -4.34357 1.55344 0
M  V30 7164 H 678.583 -4.06073 1.526 0
M  V30 7165 H 679.254 -5.47451 0.707187 0
M  V30 7166 H 681.73 -4.10948 -0.652788 0
M  V30 7167 H 680.606 -5.33358 -1.29693 0
M  V30 7168 H 680.867 -3.84204 -2.18724 0
M  V30 7169 N 679.926 -0.151884 -1.56866 0
M  V30 7170 C 680.856 0.781943 -2.20018 0
M  V30 7171 C 681.837 1.25347 -1.14987 0
M  V30 7172 O 683.022 1.31015 -1.43348 0
M  V30 7173 C 680.152 2.01928 -2.82564 0
M  V30 7174 C 679.106 1.68434 -3.93464 0
M  V30 7175 C 678.432 2.99472 -4.42968 0
M  V30 7176 C 679.732 0.927244 -5.14003 0
M  V30 7177 H 681.426 0.255607 -2.98307 0
M  V30 7178 H 678.972 0.121502 -1.43486 0
M  V30 7179 H 680.925 2.67741 -3.25411 0
M  V30 7180 H 679.649 2.56943 -2.01614 0
M  V30 7181 H 678.308 1.04998 -3.51242 0
M  V30 7182 H 677.956 3.52488 -3.58834 0
M  V30 7183 H 677.656 2.77823 -5.17772 0
M  V30 7184 H 679.18 3.66348 -4.88489 0
M  V30 7185 H 680.594 1.48756 -5.53665 0
M  V30 7186 H 678.991 0.810513 -5.94601 0
M  V30 7187 H 680.061 -0.0801163 -4.84834 0
M  V30 7188 N 681.404 1.57128 0.121893 0
M  V30 7189 C 682.351 2.0013 1.14964 0
M  V30 7190 C 683.321 0.872959 1.4131 0
M  V30 7191 O 684.506 1.13696 1.53225 0
M  V30 7192 C 681.646 2.40824 2.4718 0
M  V30 7193 C 680.759 3.67061 2.27794 0
M  V30 7194 C 679.894 3.96749 3.53219 0
M  V30 7195 C 678.933 5.16178 3.28978 0
M  V30 7196 N 678.07 5.41751 4.46599 0
M  V30 7197 H 682.91 2.8772 0.775947 0
M  V30 7198 H 680.447 1.42328 0.371652 0
M  V30 7199 H 682.405 2.62454 3.24305 0
M  V30 7200 H 681.035 1.56279 2.82448 0
M  V30 7201 H 680.087 3.53063 1.416 0
M  V30 7202 H 681.399 4.5434 2.05857 0
M  V30 7203 H 680.553 4.19012 4.38764 0
M  V30 7204 H 679.292 3.07941 3.78185 0
M  V30 7205 H 678.297 4.93762 2.41824 0
M  V30 7206 H 679.522 6.06561 3.05386 0
M  V30 7207 H 677.468 4.55899 4.71691 0
M  V30 7208 H 677.385 6.23347 4.27756 0
M  V30 7209 H 678.653 5.68531 5.33285 0
M  V30 7210 N 682.882 -0.391992 1.52647 0
M  V30 7211 C 683.832 -1.47815 1.73594 0
M  V30 7212 C 684.816 -1.49693 0.589979 0
M  V30 7213 O 686.008 -1.5538 0.847701 0
M  V30 7214 C 683.137 -2.85561 1.90551 0
M  V30 7215 C 682.223 -2.88264 3.1107 0
M  V30 7216 N 682.614 -2.60642 4.33474 0
M  V30 7217 C 680.912 -3.19432 3.11254 0
M  V30 7218 C 681.613 -2.70351 5.15058 0
M  V30 7219 N 680.589 -3.03956 4.50679 0
M  V30 7220 H 684.391 -1.2528 2.65861 0
M  V30 7221 H 681.905 -0.599907 1.50913 0
M  V30 7222 H 683.902 -3.63759 2.03678 0
M  V30 7223 H 682.562 -3.09081 0.994952 0
M  V30 7224 H 683.573 -2.34718 4.61658 0
M  V30 7225 H 680.25 -3.48436 2.29997 0
M  V30 7226 H 681.64 -2.52565 6.22624 0
M  V30 7227 N 684.36 -1.4356 -0.65026 0
M  V30 7228 C 685.29 -1.51758 -1.77459 0
M  V30 7229 C 686.271 -0.372019 -1.65982 0
M  V30 7230 O 687.456 -0.589627 -1.85033 0
M  V30 7231 C 684.586 -1.44302 -3.15902 0
M  V30 7232 C 683.54 -2.57138 -3.42146 0
M  V30 7233 C 682.866 -2.34735 -4.8042 0
M  V30 7234 C 684.166 -3.99373 -3.36598 0
M  V30 7235 H 685.86 -2.45863 -1.70855 0
M  V30 7236 H 683.406 -1.18333 -0.820566 0
M  V30 7237 H 685.359 -1.48641 -3.94314 0
M  V30 7238 H 684.083 -0.467026 -3.23244 0
M  V30 7239 H 682.742 -2.52157 -2.66106 0
M  V30 7240 H 682.39 -1.35372 -4.84441 0
M  V30 7241 H 682.09 -3.10375 -4.9894 0
M  V30 7242 H 683.614 -2.40862 -5.61086 0
M  V30 7243 H 685.028 -4.05826 -4.04942 0
M  V30 7244 H 683.425 -4.75063 -3.66654 0
M  V30 7245 H 684.495 -4.243 -2.34729 0
M  V30 7246 N 685.838 0.888903 -1.30139 0
M  V30 7247 C 687.254 1.17153 -1.08385 0
M  V30 7248 C 687.454 2.0088 0.157925 0
M  V30 7249 O 686.51 2.37668 0.852652 0
M  V30 7250 C 687.823 1.882 -2.34523 0
M  V30 7251 C 689.371 2.00981 -2.39949 0
M  V30 7252 C 689.846 2.75441 -3.65918 0
M  V30 7253 N 691.337 2.82989 -3.66704 0
M  V30 7254 C 692.072 3.41167 -4.60861 0
M  V30 7255 N 691.568 4.00425 -5.6536 0
M  V30 7256 N 693.361 3.38944 -4.48412 0
M  V30 7257 H 685.512 0.33053 -2.09812 0
M  V30 7258 H 687.775 0.208964 -0.924683 0
M  V30 7259 H 687.481 1.34119 -3.25123 0
M  V30 7260 H 687.355 2.88609 -2.42868 0
M  V30 7261 H 689.742 2.54234 -1.4983 0
M  V30 7262 H 689.823 0.996725 -2.35582 0
M  V30 7263 H 689.467 2.22861 -4.56394 0
M  V30 7264 H 689.397 3.77118 -3.67546 0
M  V30 7265 H 691.888 2.40912 -2.91153 0
M  V30 7266 H 692.201 4.42871 -6.33313 0
M  V30 7267 H 690.546 3.98856 -5.69157 0
M  V30 7268 H 693.737 2.91875 -3.6596 0
M  V30 7269 H 693.91 3.83989 -5.21974 0
M  V30 7270 N 687.317 1.12792 1.10072 0
M  V30 7271 C 688.267 0.768086 2.14673 0
M  V30 7272 C 689.251 -0.234716 1.59179 0
M  V30 7273 O 690.443 -0.039643 1.76956 0
M  V30 7274 C 687.572 0.228472 3.42539 0
M  V30 7275 C 686.658 1.25979 4.04957 0
M  V30 7276 N 687.049 2.4586 4.42025 0
M  V30 7277 C 685.347 1.10602 4.32069 0
M  V30 7278 C 686.048 3.11747 4.9111 0
M  V30 7279 N 685.024 2.39185 4.88151 0
M  V30 7280 H 688.826 1.68029 2.4113 0
M  V30 7281 H 686.34 1.00925 1.27232 0
M  V30 7282 H 688.337 -0.0475216 4.16873 0
M  V30 7283 H 686.997 -0.678136 3.1754 0
M  V30 7284 H 688.008 2.83215 4.33601 0
M  V30 7285 H 684.685 0.257021 4.16708 0
M  V30 7286 H 686.075 4.13862 5.29309 0
M  V30 7287 N 688.795 -1.27931 0.920396 0
M  V30 7288 C 689.725 -2.29487 0.431024 0
M  V30 7289 C 690.706 -1.62435 -0.504861 0
M  V30 7290 O 691.891 -1.89797 -0.411176 0
M  V30 7291 C 689.021 -3.45788 -0.323709 0
M  V30 7292 C 687.975 -4.24784 0.523658 0
M  V30 7293 C 687.301 -5.33488 -0.359809 0
M  V30 7294 C 688.601 -4.90874 1.78437 0
M  V30 7295 H 690.295 -2.70671 1.27975 0
M  V30 7296 H 687.841 -1.30121 0.616813 0
M  V30 7297 H 689.794 -4.15927 -0.676952 0
M  V30 7298 H 688.518 -3.03502 -1.2064 0
M  V30 7299 H 687.177 -3.56382 0.85951 0
M  V30 7300 H 686.825 -4.87445 -1.24124 0
M  V30 7301 H 686.525 -5.87247 0.203605 0
M  V30 7302 H 688.049 -6.06472 -0.708787 0
M  V30 7303 H 689.463 -5.53339 1.49963 0
M  V30 7304 H 687.86 -5.54659 2.29071 0
M  V30 7305 H 688.93 -4.14988 2.50824 0
M  V30 7306 N 690.273 -0.685099 -1.4193 0
M  V30 7307 C 691.221 -0.00165985 -2.326 0
M  V30 7308 C 692.215 0.779678 -1.50391 0
M  V30 7309 O 693.421 0.68648 -1.66395 0
M  V30 7310 H 689.796 0.0182616 -0.751778 0
M  V30 7311 H 691.767 -0.783592 -2.87928 0
M  V30 7312 C 690.516 0.928385 -3.35077 0
M  V30 7313 H 689.839 0.336578 -3.98381 0
M  V30 7314 H 691.279 1.37509 -4.01083 0
M  V30 7315 C 689.738 2.03964 -2.68142 0
M  V30 7316 O 690.268 3.12727 -2.5212 0
M  V30 7317 N 688.474 1.81433 -2.27003 0
M  V30 7318 H 688.021 0.929807 -2.40234 0
M  V30 7319 H 687.979 2.55973 -1.82552 0
M  V30 7320 N 691.751 1.51645 -0.429126 0
M  V30 7321 C 692.998 2.02015 0.140079 0
M  V30 7322 C 693.326 1.31374 1.43427 0
M  V30 7323 O 692.581 0.414779 1.91254 0
M  V30 7324 C 692.88 3.54989 0.414472 0
M  V30 7325 C 692.546 4.43874 -0.792911 0
M  V30 7326 C 691.208 4.67887 -1.12404 0
M  V30 7327 C 693.56 4.96074 -1.59875 0
M  V30 7328 C 690.888 5.41348 -2.26184 0
M  V30 7329 C 693.24 5.70782 -2.72747 0
M  V30 7330 C 691.904 5.93062 -3.06324 0
M  V30 7331 H 691.174 0.739225 0.0512585 0
M  V30 7332 H 693.821 1.82675 -0.574641 0
M  V30 7333 H 692.126 3.72615 1.21099 0
M  V30 7334 H 693.823 3.91489 0.868173 0
M  V30 7335 H 690.413 4.25374 -0.524871 0
M  V30 7336 H 694.597 4.77412 -1.35614 0
M  V30 7337 H 689.853 5.56815 -2.52522 0
M  V30 7338 H 694.027 6.10221 -3.35564 0
M  V30 7339 H 691.654 6.49764 -3.94602 0
M  V30 7340 N 693.229 0.160201 1.56784 0
M  V30 7341 C 694.457 -0.494165 2.00912 0
M  V30 7342 C 694.872 -1.57548 1.04038 0
M  V30 7343 O 694.229 -1.82457 0.0394581 0
M  V30 7344 C 694.28 -1.08271 3.44905 0
M  V30 7345 O 694.001 -0.0445704 4.38077 0
M  V30 7346 C 695.502 -1.8164 4.04378 0
M  V30 7347 H 692.722 -0.127498 0.658776 0
M  V30 7348 H 695.266 0.258665 2.02858 0
M  V30 7349 H 693.421 -1.78609 3.4377 0
M  V30 7350 H 693.835 -0.477544 5.22322 0
M  V30 7351 H 695.309 -2.18094 5.07089 0
M  V30 7352 H 695.786 -2.70727 3.45838 0
M  V30 7353 H 696.392 -1.15969 4.09184 0
M  V30 7354 N 694.707 -1.5719 -0.113559 0
M  V30 7355 C 695.655 -2.01725 -1.158 0
M  V30 7356 C 696.649 -0.915105 -1.42556 0
M  V30 7357 O 697.855 -1.10031 -1.42454 0
M  V30 7358 H 694.23 -0.64262 -0.390569 0
M  V30 7359 H 696.201 -2.88666 -0.755926 0
M  V30 7360 C 694.95 -2.44203 -2.47507 0
M  V30 7361 H 694.273 -3.28582 -2.27758 0
M  V30 7362 H 695.713 -2.79158 -3.19135 0
M  V30 7363 C 694.172 -1.30785 -3.10478 0
M  V30 7364 O 694.702 -0.626807 -3.9678 0
M  V30 7365 N 692.908 -1.06352 -2.7044 0
M  V30 7366 H 692.455 -1.61913 -2.00355 0
M  V30 7367 H 692.413 -0.306614 -3.12901 0
M  V30 7368 N 696.185 0.383891 -1.52853 0
M  V30 7369 C 697.133 1.48965 -1.7864 0
M  V30 7370 C 698.127 1.56242 -0.654577 0
M  V30 7371 O 699.333 1.59347 -0.83716 0
M  V30 7372 H 695.708 0.495892 -0.565328 0
M  V30 7373 H 697.679 1.24411 -2.71228 0
M  V30 7374 C 696.428 2.86036 -1.97683 0
M  V30 7375 H 695.751 2.81188 -2.84206 0
M  V30 7376 H 697.191 3.62632 -2.19713 0
M  V30 7377 C 695.65 3.28428 -0.750776 0
M  V30 7378 O 696.18 4.0164 0.0693491 0
M  V30 7379 N 694.386 2.84765 -0.579427 0
M  V30 7380 H 693.933 2.25353 -1.24795 0
M  V30 7381 H 693.891 3.13486 0.239544 0
M  V30 7382 N 697.663 1.43903 0.642637 0
M  V30 7383 C 698.596 1.44339 1.76753 0
M  V30 7384 C 699.574 0.303558 1.59741 0
M  V30 7385 O 700.758 0.498775 1.81781 0
M  V30 7386 C 697.885 1.26508 3.14187 0
M  V30 7387 C 696.931 2.43905 3.49875 0
M  V30 7388 S 697.764 4.0645 3.48653 0
M  V30 7389 C 698.92 3.91021 4.88726 0
M  V30 7390 H 699.153 2.39523 1.76113 0
M  V30 7391 H 696.686 1.31061 0.81623 0
M  V30 7392 H 698.644 1.16908 3.93501 0
M  V30 7393 H 697.305 0.328548 3.12377 0
M  V30 7394 H 696.498 2.27262 4.49853 0
M  V30 7395 H 696.1 2.50186 2.77998 0
M  V30 7396 H 698.392 3.54 5.77659 0
M  V30 7397 H 699.335 4.9079 5.10423 0
M  V30 7398 H 699.743 3.23287 4.62759 0
M  V30 7399 N 699.141 -0.881989 1.30609 0
M  V30 7400 C 700.389 -1.63082 1.19368 0
M  V30 7401 C 700.71 -1.93376 -0.251147 0
M  V30 7402 O 699.98 -1.5723 -1.16857 0
M  V30 7403 H 698.56 -0.604542 0.438791 0
M  V30 7404 H 701.222 -1.05658 1.63776 0
M  V30 7405 H 700.318 -2.57966 1.7567 0
M  V30 7406 N 700.619 -1.13374 -1.09472 0
M  V30 7407 C 701.529 -0.824029 -2.19652 0
M  V30 7408 C 702.545 0.19118 -1.72947 0
M  V30 7409 O 703.721 0.0223464 -2.01388 0
M  V30 7410 C 700.786 -0.294009 -3.45451 0
M  V30 7411 C 699.847 -1.3704 -4.0684 0
M  V30 7412 C 699.08 -0.86558 -5.26634 0
M  V30 7413 O 699.303 0.29702 -5.69626 0
M  V30 7414 O 698.237 -1.63968 -5.79136 0
M  V30 7415 H 702.063 -1.74454 -2.48595 0
M  V30 7416 H 699.648 -0.911155 -1.18399 0
M  V30 7417 H 701.53 -0.00381039 -4.214 0
M  V30 7418 H 700.205 0.598921 -3.18111 0
M  V30 7419 H 699.112 -1.71391 -3.3253 0
M  V30 7420 H 700.445 -2.23746 -4.38405 0
M  V30 7421 N 702.098 1.27442 -0.927168 0
M  V30 7422 C 703.03 2.25975 -0.383158 0
M  V30 7423 C 704.043 1.55382 0.485832 0
M  V30 7424 O 705.232 1.75986 0.298541 0
M  V30 7425 C 702.332 3.35629 0.469688 0
M  V30 7426 C 701.505 4.35747 -0.379886 0
M  V30 7427 C 700.564 5.24598 0.410227 0
M  V30 7428 O 699.59 5.68909 -0.181888 0
M  V30 7429 N 700.792 5.54737 1.71017 0
M  V30 7430 H 703.557 2.7329 -1.23015 0
M  V30 7431 H 701.118 1.41063 -0.794539 0
M  V30 7432 H 703.11 3.92015 1.00532 0
M  V30 7433 H 701.68 2.87919 1.21744 0
M  V30 7434 H 700.9 3.78634 -1.09682 0
M  V30 7435 H 702.188 4.99648 -0.960717 0
M  V30 7436 H 701.586 5.20594 2.21356 0
M  V30 7437 H 700.143 6.13824 2.19234 0
M  V30 7438 N 703.576 0.692616 1.41565 0
M  V30 7439 C 704.822 0.222664 2.01574 0
M  V30 7440 C 705.155 -1.1737 1.54719 0
M  V30 7441 O 704.43 -1.79161 0.757084 0
M  V30 7442 C 704.713 0.277064 3.59033 0
M  V30 7443 C 704.566 1.71016 4.16021 0
M  V30 7444 C 705.885 -0.36479 4.38586 0
M  V30 7445 H 703.004 0.0823839 0.732381 0
M  V30 7446 H 705.646 0.880778 1.68352 0
M  V30 7447 H 703.796 -0.283288 3.87466 0
M  V30 7448 H 705.468 2.32413 3.98475 0
M  V30 7449 H 703.711 2.24525 3.71175 0
M  V30 7450 H 704.382 1.69978 5.25178 0
M  V30 7451 H 706.858 0.112404 4.15948 0
M  V30 7452 H 705.734 -0.296169 5.481 0
M  V30 7453 H 705.995 -1.44506 4.17816 0
M  V30 7454 N 705.054 -1.51416 0.437162 0
M  V30 7455 C 706.282 -2.06503 -0.128045 0
M  V30 7456 C 706.697 -1.30461 -1.36475 0
M  V30 7457 O 706.054 -0.364127 -1.78831 0
M  V30 7458 C 706.105 -3.58683 -0.450437 0
M  V30 7459 O 705.826 -4.31853 0.737186 0
M  V30 7460 C 707.327 -4.30284 -1.06633 0
M  V30 7461 H 704.547 -0.670952 -0.00800269 0
M  V30 7462 H 707.091 -1.94996 0.616193 0
M  V30 7463 H 705.246 -3.70106 -1.14457 0
M  V30 7464 H 705.66 -5.22467 0.461347 0
M  V30 7465 H 707.134 -5.37848 -1.24191 0
M  V30 7466 H 707.611 -3.88564 -2.0473 0
M  V30 7467 H 708.217 -4.23304 -0.411585 0
M  V30 7468 N 706.532 -0.168513 -1.56696 0
M  V30 7469 C 707.779 0.477158 -1.96798 0
M  V30 7470 C 708.107 1.63442 -1.05437 0
M  V30 7471 O 707.362 1.95503 -0.0878903 0
M  V30 7472 C 707.661 1.00441 -3.42996 0
M  V30 7473 C 707.327 -0.0366556 -4.50885 0
M  V30 7474 C 705.989 -0.322785 -4.80116 0
M  V30 7475 C 708.341 -0.743447 -5.1587 0
M  V30 7476 C 705.669 -1.32114 -5.71632 0
M  V30 7477 C 708.021 -1.73077 -6.08463 0
M  V30 7478 C 706.685 -2.02437 -6.36062 0
M  V30 7479 H 705.955 0.174604 -0.720135 0
M  V30 7480 H 708.602 -0.259884 -1.89728 0
M  V30 7481 H 706.907 1.81922 -3.47004 0
M  V30 7482 H 708.604 1.51294 -3.71364 0
M  V30 7483 H 705.194 0.196532 -4.28149 0
M  V30 7484 H 709.378 -0.535602 -4.93401 0
M  V30 7485 H 704.634 -1.55482 -5.913 0
M  V30 7486 H 708.808 -2.28382 -6.57886 0
M  V30 7487 H 706.435 -2.79946 -7.06777 0
M  V30 7488 N 708.01 1.57248 0.105221 0
M  V30 7489 C 709.287 1.76566 0.841647 0
M  V30 7490 C 709.667 0.747566 1.9742 0
M  V30 7491 O 709.015 -0.225886 2.27381 0
M  V30 7492 C 709.225 3.22016 1.3456 0
M  V30 7493 C 710.573 3.84911 1.79244 0
M  V30 7494 O 711.597 3.25703 1.44207 0
M  V30 7495 O 710.456 4.89008 2.43995 0
M  V30 7496 H 707.55 0.723443 0.400698 0
M  V30 7497 H 710.096 1.69472 0.0878893 0
M  V30 7498 H 708.868 3.87644 0.533685 0
M  V30 7499 H 708.491 3.33703 2.16167 0
M  V30 7500 N 709.488 -0.375779 1.53054 0
M  V30 7501 C 710.398 -1.48381 1.81715 0
M  V30 7502 C 711.414 -1.59087 0.704795 0
M  V30 7503 O 712.59 -1.75174 0.993785 0
M  V30 7504 C 709.655 -2.83767 1.99192 0
M  V30 7505 C 708.716 -2.82673 3.23102 0
M  V30 7506 C 707.949 -4.11601 3.39736 0
M  V30 7507 O 708.172 -5.07243 2.60885 0
M  V30 7508 O 707.106 -4.18034 4.33049 0
M  V30 7509 H 710.932 -1.27089 2.7583 0
M  V30 7510 H 708.517 -0.564902 1.38308 0
M  V30 7511 H 710.399 -3.64004 2.12318 0
M  V30 7512 H 709.074 -3.05057 1.08267 0
M  V30 7513 H 707.981 -2.0117 3.15407 0
M  V30 7514 H 709.314 -2.66335 4.13916 0
M  V30 7515 N 710.966 -1.44241 -0.634997 0
M  V30 7516 C 712.206 -1.48339 -1.40623 0
M  V30 7517 C 712.57 -0.111479 -1.91676 0
M  V30 7518 O 713.771 -0.0271345 -2.68786 0
M  V30 7519 C 712.042 -2.51122 -2.54308 0
M  V30 7520 S 713.601 -2.74237 -3.42548 0
M  V30 7521 H 710.419 -0.524715 -0.479787 0
M  V30 7522 H 713.021 -1.81138 -0.735489 0
M  V30 7523 H 711.725 -3.49511 -2.15106 0
M  V30 7524 H 711.256 -2.19883 -3.26213 0
M  V30 7525 H 713.271 -2.0554 -4.51628 0
M  V30 7526 N 712.444 0.87505 -1.31075 0
M  V30 7527 C 713.692 1.62447 -1.20231 0
M  V30 7528 C 714.013 1.93506 0.240888 0
M  V30 7529 O 713.283 1.57847 1.16022 0
M  V30 7530 H 711.863 0.602207 -0.441991 0
M  V30 7531 H 714.525 1.04788 -1.64334 0
M  V30 7532 H 713.621 2.57031 -1.77036 0
M  V30 7533 N 713.922 1.13953 1.08869 0
M  V30 7534 C 715.199 0.815768 1.77777 0
M  V30 7535 C 715.579 -0.691624 1.99449 0
M  V30 7536 O 714.927 -1.63085 1.60049 0
M  V30 7537 C 715.137 1.60916 3.09689 0
M  V30 7538 C 716.485 1.80549 3.84301 0
M  V30 7539 O 717.509 1.57562 3.19457 0
M  V30 7540 O 716.368 2.18946 5.00724 0
M  V30 7541 H 713.462 0.298445 0.771271 0
M  V30 7542 H 716.008 1.24446 1.15374 0
M  V30 7543 H 714.78 2.6333 2.89435 0
M  V30 7544 H 714.403 1.17578 3.79817 0
M  V30 7545 N 715.4 -1.26948 0.933913 0
M  V30 7546 C 716.33 -2.29017 0.45534 0
M  V30 7547 C 717.311 -1.62961 -0.487605 0
M  V30 7548 O 718.496 -1.90223 -0.391022 0
M  V30 7549 C 715.626 -3.46112 -0.287015 0
M  V30 7550 C 714.58 -4.24205 0.568682 0
M  V30 7551 C 713.906 -5.3384 -0.303206 0
M  V30 7552 C 715.206 -4.88954 1.83633 0
M  V30 7553 H 716.9 -2.69298 1.30839 0
M  V30 7554 H 714.446 -1.29459 0.630579 0
M  V30 7555 H 716.399 -4.16622 -0.6328 0
M  V30 7556 H 715.123 -3.04765 -1.17414 0
M  V30 7557 H 713.782 -3.5545 0.897261 0
M  V30 7558 H 713.43 -4.88734 -1.18947 0
M  V30 7559 H 713.13 -5.86998 0.265879 0
M  V30 7560 H 714.654 -6.0719 -0.644423 0
M  V30 7561 H 716.068 -5.51717 1.55823 0
M  V30 7562 H 714.465 -5.52198 2.34941 0
M  V30 7563 H 715.535 -4.12305 2.55211 0
M  V30 7564 N 716.879 -0.700114 -1.41195 0
M  V30 7565 C 718.125 -0.233351 -2.01453 0
M  V30 7566 C 718.458 1.16548 -1.55339 0
M  V30 7567 O 717.733 1.78756 -0.766575 0
M  V30 7568 C 718.016 -0.2961 -3.58881 0
M  V30 7569 C 717.869 -1.7322 -4.15108 0
M  V30 7570 C 719.188 0.341525 -4.38773 0
M  V30 7571 H 716.307 -0.0862667 -0.731934 0
M  V30 7572 H 718.949 -0.889693 -1.67882 0
M  V30 7573 H 717.099 0.262736 -3.87611 0
M  V30 7574 H 718.771 -2.34523 -3.97236 0
M  V30 7575 H 717.014 -2.2649 -3.69979 0
M  V30 7576 H 717.685 -1.7276 -5.24269 0
M  V30 7577 H 720.161 -0.134461 -4.15883 0
M  V30 7578 H 719.037 0.267098 -5.4825 0
M  V30 7579 H 719.298 1.42289 -4.18577 0
M  V30 7580 N 718.357 1.51182 -0.445186 0
M  V30 7581 C 719.605 2.01753 0.11841 0
M  V30 7582 C 719.926 1.33087 1.42523 0
M  V30 7583 O 719.196 0.467891 1.9023 0
M  V30 7584 H 717.776 0.745536 0.0467492 0
M  V30 7585 H 720.438 1.85765 -0.589688 0
M  V30 7586 H 719.534 3.10762 0.288665 0
M  V30 7587 N 719.835 0.176821 1.56605 0
M  V30 7588 C 720.783 -0.768159 2.1955 0
M  V30 7589 C 721.777 -1.23343 1.16116 0
M  V30 7590 O 722.983 -1.19844 1.34303 0
M  V30 7591 H 719.358 -0.266013 0.703378 0
M  V30 7592 H 721.329 -0.213374 2.97636 0
M  V30 7593 C 720.078 -1.98492 2.85475 0
M  V30 7594 H 719.401 -1.63595 3.64797 0
M  V30 7595 H 720.841 -2.62489 3.3298 0
M  V30 7596 C 719.3 -2.81207 1.85538 0
M  V30 7597 O 719.83 -3.7854 1.34427 0
M  V30 7598 N 718.036 -2.46331 1.54173 0
M  V30 7599 H 717.583 -1.67241 1.95929 0
M  V30 7600 H 717.541 -3.01961 0.875595 0
M  V30 7601 N 721.313 -1.57302 -0.09688 0
M  V30 7602 C 722.543 -1.89926 -0.813114 0
M  V30 7603 C 722.951 -0.76852 -1.72888 0
M  V30 7604 O 722.294 0.268549 -1.81726 0
M  V30 7605 C 722.356 -3.17787 -1.68082 0
M  V30 7606 C 722.02 -4.4729 -0.937061 0
M  V30 7607 C 723.017 -5.1921 -0.267687 0
M  V30 7608 C 720.702 -4.93957 -0.911671 0
M  V30 7609 C 722.696 -6.36034 0.417129 0
M  V30 7610 C 720.383 -6.10693 -0.223068 0
M  V30 7611 C 721.381 -6.8158 0.440155 0
M  V30 7612 O 721.069 -7.96092 1.11772 0
M  V30 7613 H 720.801 -0.632783 -0.237828 0
M  V30 7614 H 723.355 -2.05248 -0.0790818 0
M  V30 7615 H 721.585 -2.98607 -2.45705 0
M  V30 7616 H 723.274 -3.36257 -2.27346 0
M  V30 7617 H 724.04 -4.84198 -0.278774 0
M  V30 7618 H 719.919 -4.38671 -1.41734 0
M  V30 7619 H 723.463 -6.91301 0.93537 0
M  V30 7620 H 719.36 -6.45159 -0.209821 0
M  V30 7621 H 720.128 -8.12064 1.02443 0
M  V30 7622 N 722.791 0.367657 -1.53252 0
M  V30 7623 C 724.016 1.13566 -1.73544 0
M  V30 7624 C 724.441 1.82329 -0.462344 0
M  V30 7625 O 723.799 1.71655 0.583472 0
M  V30 7626 C 723.847 2.14322 -2.89997 0
M  V30 7627 O 722.951 3.21359 -2.58461 0
M  V30 7628 H 722.292 0.329614 -0.576412 0
M  V30 7629 H 724.822 0.425417 -2.00128 0
M  V30 7630 H 724.832 2.57958 -3.16104 0
M  V30 7631 H 723.507 1.63664 -3.82344 0
M  V30 7632 H 722.084 2.8271 -2.43165 0
M  V30 7633 N 724.269 1.44576 0.627338 0
M  V30 7634 C 725.518 1.46837 1.38281 0
M  V30 7635 C 725.831 0.10635 1.95311 0
M  V30 7636 O 727.037 0.00651084 2.71499 0
M  V30 7637 C 725.493 2.58527 2.50384 0
M  V30 7638 C 725.101 4.00953 1.99851 0
M  V30 7639 C 726.845 2.70013 3.27557 0
M  V30 7640 C 724.752 5.0406 3.09318 0
M  V30 7641 H 723.682 0.546319 0.519664 0
M  V30 7642 H 726.333 1.70654 0.674497 0
M  V30 7643 H 724.715 2.27957 3.23808 0
M  V30 7644 H 725.889 4.41108 1.33267 0
M  V30 7645 H 724.204 3.93743 1.35482 0
M  V30 7646 H 726.801 3.44217 4.09168 0
M  V30 7647 H 727.144 1.75961 3.77284 0
M  V30 7648 H 727.677 3.00011 2.61224 0
M  V30 7649 H 724.416 5.99753 2.6453 0
M  V30 7650 H 723.936 4.68493 3.74532 0
M  V30 7651 H 725.615 5.2793 3.74031 0
M  V30 7652 N 725.747 -0.868086 1.31537 0
M  V30 7653 C 726.996 -1.61607 1.20689 0
M  V30 7654 C 727.309 -1.94204 -0.233275 0
M  V30 7655 O 728.515 -2.67515 -0.463465 0
M  V30 7656 C 726.971 -2.91348 2.11292 0
M  V30 7657 C 726.579 -2.66227 3.60315 0
M  V30 7658 C 728.323 -3.69344 2.09249 0
M  V30 7659 C 726.23 -3.91887 4.42921 0
M  V30 7660 H 725.16 -0.606373 0.448138 0
M  V30 7661 H 727.811 -0.959666 1.56405 0
M  V30 7662 H 726.193 -3.58374 1.68477 0
M  V30 7663 H 727.367 -2.07597 4.11388 0
M  V30 7664 H 725.682 -2.01582 3.64354 0
M  V30 7665 H 728.279 -4.62567 2.68209 0
M  V30 7666 H 728.622 -4.02044 1.0801 0
M  V30 7667 H 729.155 -3.09205 2.50274 0
M  V30 7668 H 725.894 -3.64336 5.44922 0
M  V30 7669 H 725.414 -4.49961 3.96605 0
M  V30 7670 H 727.093 -4.59754 4.55231 0
M  V30 7671 N 727.225 -1.14528 -1.08264 0
M  V30 7672 C 728.173 -0.829201 -2.17318 0
M  V30 7673 C 729.167 0.193521 -1.68291 0
M  V30 7674 O 730.373 0.0494744 -1.79932 0
M  V30 7675 H 726.748 -0.250435 -0.709074 0
M  V30 7676 H 728.719 -1.75683 -2.41201 0
M  V30 7677 C 727.468 -0.324663 -3.46181 0
M  V30 7678 H 726.791 -1.10299 -3.84284 0
M  V30 7679 H 728.231 -0.142059 -4.23762 0
M  V30 7680 C 726.69 0.952033 -3.23169 0
M  V30 7681 O 727.22 2.02549 -3.46896 0
M  V30 7682 N 725.426 0.887854 -2.76705 0
M  V30 7683 H 724.973 0.0141402 -2.57596 0
M  V30 7684 H 724.931 1.74263 -2.61686 0
M  V30 7685 N 728.703 1.26451 -0.940633 0
M  V30 7686 C 729.949 1.94401 -0.598303 0
M  V30 7687 C 730.304 1.72449 0.853178 0
M  V30 7688 O 729.597 1.0506 1.60228 0
M  V30 7689 C 729.791 3.46503 -0.875794 0
M  V30 7690 C 729.62 3.83247 -2.3527 0
M  V30 7691 C 728.39 4.06032 -3.00776 0
M  V30 7692 C 730.588 3.91841 -3.33114 0
M  V30 7693 N 728.57 4.29656 -4.38485 0
M  V30 7694 C 729.941 4.19991 -4.56078 0
M  V30 7695 C 731.996 3.74466 -3.28146 0
M  V30 7696 C 730.699 4.32574 -5.74693 0
M  V30 7697 C 732.725 3.88281 -4.46085 0
M  V30 7698 C 732.087 4.16829 -5.67831 0
M  V30 7699 H 728.186 0.734168 -0.269297 0
M  V30 7700 H 730.77 1.52541 -1.20992 0
M  V30 7701 H 728.941 3.87292 -0.293223 0
M  V30 7702 H 730.673 4.01664 -0.494788 0
M  V30 7703 H 727.428 4.01369 -2.51396 0
M  V30 7704 H 727.852 4.45501 -5.09762 0
M  V30 7705 H 732.494 3.51424 -2.35077 0
M  V30 7706 H 730.212 4.54438 -6.68215 0
M  V30 7707 H 733.798 3.76241 -4.43773 0
M  V30 7708 H 732.678 4.27284 -6.5757 0
M  V30 7709 N 730.181 0.707592 1.40822 0
M  V30 7710 C 731.131 0.0265008 2.27985 0
M  V30 7711 C 732.115 -0.740685 1.42838 0
M  V30 7712 O 733.307 -0.6142 1.66002 0
M  V30 7713 C 730.436 -0.900382 3.31282 0
M  V30 7714 C 729.522 -0.128807 4.23904 0
M  V30 7715 N 729.913 0.883744 4.9802 0
M  V30 7716 C 728.211 -0.362539 4.44524 0
M  V30 7717 C 728.912 1.34666 5.65898 0
M  V30 7718 N 727.888 0.670306 5.39451 0
M  V30 7719 H 731.69 0.802667 2.82727 0
M  V30 7720 H 729.204 0.539475 1.53178 0
M  V30 7721 H 731.201 -1.40357 3.92563 0
M  V30 7722 H 729.861 -1.67601 2.781 0
M  V30 7723 H 730.872 1.26435 5.0223 0
M  V30 7724 H 727.549 -1.11512 4.02332 0
M  V30 7725 H 728.939 2.18756 6.35292 0
M  V30 7726 N 731.66 -1.50943 0.453197 0
M  V30 7727 C 732.59 -2.31005 -0.34044 0
M  V30 7728 C 733.571 -1.37112 -1.00669 0
M  V30 7729 O 734.756 -1.66033 -1.0073 0
M  V30 7730 C 731.886 -3.16358 -1.433 0
M  V30 7731 C 730.84 -4.18658 -0.889363 0
M  V30 7732 C 730.166 -4.92633 -2.07887 0
M  V30 7733 C 731.466 -5.22227 0.0871142 0
M  V30 7734 H 733.16 -2.97601 0.327723 0
M  V30 7735 H 730.706 -1.43119 0.159054 0
M  V30 7736 H 732.659 -3.71155 -1.99555 0
M  V30 7737 H 731.383 -2.47613 -2.12968 0
M  V30 7738 H 730.042 -3.64936 -0.348915 0
M  V30 7739 H 729.69 -4.20376 -2.76211 0
M  V30 7740 H 729.39 -5.61819 -1.72143 0
M  V30 7741 H 730.914 -5.50258 -2.64666 0
M  V30 7742 H 732.328 -5.72001 -0.385656 0
M  V30 7743 H 730.725 -5.99032 0.357926 0
M  V30 7744 H 731.795 -4.74077 1.01879 0
M  V30 7745 N 733.138 -0.185124 -1.56509 0
M  V30 7746 C 734.363 0.465278 -2.02114 0
M  V30 7747 C 734.788 1.55083 -1.06447 0
M  V30 7748 O 734.146 1.81241 -0.0462852 0
M  V30 7749 C 734.194 1.00784 -3.46229 0
M  V30 7750 O 733.298 2.12123 -3.53663 0
M  V30 7751 H 732.639 0.109891 -0.654843 0
M  V30 7752 H 735.169 -0.293072 -2.0249 0
M  V30 7753 H 735.179 1.32697 -3.85818 0
M  V30 7754 H 733.854 0.213113 -4.15354 0
M  V30 7755 H 732.431 1.8115 -3.25943 0
M  V30 7756 N 734.616 1.57351 0.0885366 0
M  V30 7757 C 736.027 1.75303 0.642308 0
M  V30 7758 C 736.378 0.808238 1.78779 0
M  V30 7759 O 735.503 -0.01171 2.16397 0
M  V30 7760 C 736.098 3.17885 1.17194 0
M  V30 7761 C 734.657 3.37239 1.67172 0
M  V30 7762 C 733.804 2.7108 0.584045 0
M  V30 7763 H 736.755 1.58103 -0.137567 0
M  V30 7764 H 736.776 3.2112 2.04114 0
M  V30 7765 H 736.288 3.86625 0.338024 0
M  V30 7766 H 734.389 2.73588 2.52943 0
M  V30 7767 H 734.502 4.45594 1.76019 0
M  V30 7768 H 732.866 2.33161 1.02508 0
M  V30 7769 H 733.649 3.42464 -0.239403 0
M  V30 7770 N 736.094 -0.359525 1.53444 0
M  V30 7771 C 737.004 -1.46445 1.83278 0
M  V30 7772 C 738.02 -1.5833 0.721629 0
M  V30 7773 O 739.196 -1.7411 1.01231 0
M  V30 7774 C 736.261 -2.81638 2.02191 0
M  V30 7775 C 735.322 -2.7923 3.26082 0
M  V30 7776 C 734.555 -4.07974 3.44082 0
M  V30 7777 O 734.778 -5.04447 2.66251 0
M  V30 7778 O 733.712 -4.13417 4.37458 0
M  V30 7779 H 737.538 -1.24156 2.77162 0
M  V30 7780 H 735.123 -0.550201 1.389 0
M  V30 7781 H 737.005 -3.61732 2.16167 0
M  V30 7782 H 735.68 -3.03892 1.11496 0
M  V30 7783 H 734.587 -1.97813 3.17523 0
M  V30 7784 H 735.92 -2.6193 4.16718 0
M  V30 7785 N 737.572 -1.44907 -0.619662 0
M  V30 7786 C 738.849 -1.38766 -1.37852 0
M  V30 7787 C 739.229 -0.0521393 -2.11036 0
M  V30 7788 O 738.577 0.965613 -2.07095 0
M  V30 7789 C 738.787 -2.59344 -2.33541 0
M  V30 7790 C 740.135 -3.03909 -2.96521 0
M  V30 7791 O 741.159 -2.59631 -2.43865 0
M  V30 7792 O 740.018 -3.80713 -3.92071 0
M  V30 7793 H 737.112 -0.550083 -0.617525 0
M  V30 7794 H 739.658 -1.57015 -0.643759 0
M  V30 7795 H 738.43 -3.48142 -1.78642 0
M  V30 7796 H 738.053 -2.43367 -3.14417 0
M  V30 7797 N 739.05 0.861098 -1.31996 0
M  V30 7798 C 740.298 1.61162 -1.21947 0
M  V30 7799 C 740.619 1.93751 0.220351 0
M  V30 7800 O 739.889 1.59069 1.14341 0
M  V30 7801 H 738.469 0.597485 -0.448353 0
M  V30 7802 H 741.131 1.03039 -1.65436 0
M  V30 7803 H 740.227 2.55138 -1.79752 0
M  V30 7804 N 740.528 1.15101 1.07655 0
M  V30 7805 C 741.753 0.948177 1.84457 0
M  V30 7806 C 742.178 -0.498432 1.81376 0
M  V30 7807 O 741.536 -1.35509 1.20445 0
M  V30 7808 C 741.584 1.46318 3.29581 0
M  V30 7809 O 740.688 0.660342 4.07079 0
M  V30 7810 H 740.029 0.338428 0.571281 0
M  V30 7811 H 742.559 1.5301 1.35828 0
M  V30 7812 H 742.569 1.47468 3.80417 0
M  V30 7813 H 741.244 2.51635 3.31138 0
M  V30 7814 H 739.821 0.718216 3.65918 0
M  V30 7815 N 742.006 -1.2595 0.947325 0
M  V30 7816 C 743.255 -1.92759 0.593887 0
M  V30 7817 C 743.568 -1.75083 -0.872093 0
M  V30 7818 O 744.774 -2.36401 -1.33518 0
M  V30 7819 C 743.23 -3.45395 1.01144 0
M  V30 7820 C 742.838 -3.71795 2.49946 0
M  V30 7821 C 744.582 -4.18173 0.730185 0
M  V30 7822 C 742.489 -5.17901 2.85539 0
M  V30 7823 H 741.419 -0.721676 0.218403 0
M  V30 7824 H 744.07 -1.4293 1.15079 0
M  V30 7825 H 742.452 -3.94143 0.383007 0
M  V30 7826 H 743.626 -3.33728 3.17746 0
M  V30 7827 H 741.941 -3.12263 2.75465 0
M  V30 7828 H 744.538 -5.25784 0.972367 0
M  V30 7829 H 744.881 -4.14964 -0.333223 0
M  V30 7830 H 745.414 -3.75309 1.31862 0
M  V30 7831 H 742.153 -5.26216 3.90867 0
M  V30 7832 H 741.673 -5.57042 2.22406 0
M  V30 7833 H 743.352 -5.8596 2.74336 0
M  V30 7834 N 743.484 -0.715051 -1.40445 0
M  V30 7835 C 744.73 -0.254705 -2.01194 0
M  V30 7836 C 745.063 1.14894 -1.56567 0
M  V30 7837 O 744.338 1.77933 -0.785491 0
M  V30 7838 C 744.621 -0.334148 -3.58546 0
M  V30 7839 C 744.474 -1.77613 -4.13248 0
M  V30 7840 C 745.793 0.294968 -4.3911 0
M  V30 7841 H 742.912 -0.094025 -0.730978 0
M  V30 7842 H 745.554 -0.907449 -1.66929 0
M  V30 7843 H 743.704 0.221609 -3.87867 0
M  V30 7844 H 745.376 -2.38723 -3.94727 0
M  V30 7845 H 743.619 -2.30402 -3.67556 0
M  V30 7846 H 744.29 -1.78311 -5.22407 0
M  V30 7847 H 746.766 -0.178563 -4.15717 0
M  V30 7848 H 745.642 0.208934 -5.48502 0
M  V30 7849 H 745.903 1.37841 -4.20062 0
M  V30 7850 N 744.962 1.50701 -0.461195 0
M  V30 7851 C 746.209 2.02267 0.0971971 0
M  V30 7852 C 746.537 1.34387 1.40608 0
M  V30 7853 O 745.792 0.455254 1.90331 0
M  V30 7854 C 746.091 3.55788 0.33908 0
M  V30 7855 C 745.757 4.42092 -0.886885 0
M  V30 7856 C 744.419 4.65398 -1.22304 0
M  V30 7857 C 746.771 4.92571 -1.70361 0
M  V30 7858 C 744.099 5.36429 -2.37616 0
M  V30 7859 C 746.451 5.64868 -2.84793 0
M  V30 7860 C 745.115 5.86431 -3.18834 0
M  V30 7861 H 744.385 0.740146 0.0355669 0
M  V30 7862 H 747.032 1.81415 -0.61326 0
M  V30 7863 H 745.337 3.751 1.13168 0
M  V30 7864 H 747.034 3.93243 0.784937 0
M  V30 7865 H 743.624 4.24165 -0.614981 0
M  V30 7866 H 747.808 4.74428 -1.4571 0
M  V30 7867 H 743.064 5.51333 -2.64276 0
M  V30 7868 H 747.238 6.02966 -3.48432 0
M  V30 7869 H 744.865 6.41248 -4.08296 0
M  V30 7870 N 746.441 0.193421 1.56409 0
M  V30 7871 C 747.388 -0.728124 2.19014 0
M  V30 7872 C 748.358 -1.21098 1.13686 0
M  V30 7873 O 749.543 -1.27517 1.4193 0
M  V30 7874 C 746.683 -1.94277 2.8522 0
M  V30 7875 C 745.796 -1.50143 4.05069 0
M  V30 7876 C 744.931 -2.67145 4.59137 0
M  V30 7877 C 743.97 -2.19609 5.71348 0
M  V30 7878 N 743.107 -3.29782 6.19829 0
M  V30 7879 H 747.947 -0.187499 2.9741 0
M  V30 7880 H 745.484 -0.0808064 1.46878 0
M  V30 7881 H 747.442 -2.65551 3.21774 0
M  V30 7882 H 746.072 -2.45673 2.09391 0
M  V30 7883 H 745.124 -0.684624 3.74189 0
M  V30 7884 H 746.436 -1.11266 4.86232 0
M  V30 7885 H 745.59 -3.46544 4.97988 0
M  V30 7886 H 744.329 -3.09295 3.77078 0
M  V30 7887 H 743.334 -1.38664 5.32027 0
M  V30 7888 H 744.559 -1.78492 6.55223 0
M  V30 7889 H 742.505 -3.71466 5.40693 0
M  V30 7890 H 742.422 -2.95069 6.96039 0
M  V30 7891 H 743.69 -4.094 6.63334 0
M  V30 7892 N 747.919 -1.57396 -0.0801906 0
M  V30 7893 C 748.829 -2.06451 -1.11423 0
M  V30 7894 C 749.845 -0.992352 -1.42928 0
M  V30 7895 O 751.021 -1.30651 -1.53272 0
M  V30 7896 C 748.086 -2.49164 -2.41077 0
M  V30 7897 C 747.147 -3.70641 -2.16619 0
M  V30 7898 C 746.38 -4.11307 -3.40092 0
M  V30 7899 O 746.603 -3.51922 -4.48895 0
M  V30 7900 O 745.537 -5.04157 -3.288 0
M  V30 7901 H 749.363 -2.94857 -0.727519 0
M  V30 7902 H 746.948 -1.46484 -0.293743 0
M  V30 7903 H 748.83 -2.77196 -3.17396 0
M  V30 7904 H 747.505 -1.6389 -2.79145 0
M  V30 7905 H 746.412 -3.47703 -1.38033 0
M  V30 7906 H 747.745 -4.5674 -1.83437 0
M  V30 7907 N 749.397 0.351382 -1.53633 0
M  V30 7908 C 750.643 1.09411 -1.70754 0
M  V30 7909 C 750.976 1.88544 -0.465293 0
M  V30 7910 O 750.251 1.86923 0.537608 0
M  V30 7911 C 750.534 2.04173 -2.96623 0
M  V30 7912 C 750.387 1.28556 -4.31038 0
M  V30 7913 C 751.706 3.04102 -3.18136 0
M  V30 7914 H 748.825 0.396373 -0.621335 0
M  V30 7915 H 751.467 0.373464 -1.86293 0
M  V30 7916 H 749.617 2.65625 -2.83506 0
M  V30 7917 H 751.289 0.697786 -4.55992 0
M  V30 7918 H 749.532 0.587498 -4.29803 0
M  V30 7919 H 750.203 1.97989 -5.15271 0
M  V30 7920 H 752.679 2.5276 -3.30532 0
M  V30 7921 H 751.555 3.67616 -4.07615 0
M  V30 7922 H 751.816 3.75053 -2.34068 0
M  V30 7923 N 750.875 1.45233 0.611969 0
M  V30 7924 C 752.123 1.48727 1.36838 0
M  V30 7925 C 752.444 0.128616 1.94575 0
M  V30 7926 O 751.714 -0.84149 1.76906 0
M  V30 7927 H 750.294 0.547695 0.507976 0
M  V30 7928 H 752.956 1.81156 0.718925 0
M  V30 7929 H 752.052 2.2236 2.19003 0
M  V30 7930 N 752.353 -0.854086 1.3245 0
M  V30 7931 C 753.583 -1.63836 1.25862 0
M  V30 7932 C 753.991 -1.88383 -0.175588 0
M  V30 7933 O 753.334 -1.45353 -1.1233 0
M  V30 7934 C 753.396 -3.02068 1.94923 0
M  V30 7935 C 753.06 -3.0056 3.44257 0
M  V30 7936 C 754.057 -2.77368 4.39731 0
M  V30 7937 C 751.742 -3.21177 3.862 0
M  V30 7938 C 753.736 -2.74797 5.75122 0
M  V30 7939 C 751.423 -3.18234 5.217 0
M  V30 7940 C 752.421 -2.95072 6.15972 0
M  V30 7941 O 752.109 -2.92003 7.48992 0
M  V30 7942 H 751.841 -0.517007 0.435523 0
M  V30 7943 H 754.395 -1.07314 1.75137 0
M  V30 7944 H 752.625 -3.60382 1.40219 0
M  V30 7945 H 754.314 -3.62791 1.82037 0
M  V30 7946 H 755.08 -2.61205 4.08653 0
M  V30 7947 H 750.959 -3.38231 3.13243 0
M  V30 7948 H 754.503 -2.56638 6.48678 0
M  V30 7949 H 750.4 -3.33941 5.52407 0
M  V30 7950 H 751.168 -3.07953 7.58358 0
M  V30 7951 N 753.831 -1.1567 -1.07043 0
M  V30 7952 C 755.061 -0.956083 -1.83146 0
M  V30 7953 C 755.469 0.498969 -1.82502 0
M  V30 7954 O 754.812 1.35791 -1.23719 0
M  V30 7955 C 754.874 -1.39704 -3.31245 0
M  V30 7956 C 754.538 -2.87045 -3.55604 0
M  V30 7957 C 755.535 -3.85092 -3.49285 0
M  V30 7958 C 753.22 -3.24787 -3.8317 0
M  V30 7959 C 755.214 -5.18885 -3.70185 0
M  V30 7960 C 752.901 -4.58751 -4.03721 0
M  V30 7961 C 753.899 -5.55609 -3.97224 0
M  V30 7962 O 753.587 -6.87154 -4.17223 0
M  V30 7963 H 753.319 -0.339473 -0.58458 0
M  V30 7964 H 755.873 -1.53922 -1.36005 0
M  V30 7965 H 754.103 -0.757326 -3.79212 0
M  V30 7966 H 755.792 -1.16503 -3.88821 0
M  V30 7967 H 756.558 -3.5728 -3.27988 0
M  V30 7968 H 752.437 -2.49979 -3.87339 0
M  V30 7969 H 755.981 -5.94473 -3.6503 0
M  V30 7970 H 751.878 -4.86277 -4.24505 0
M  V30 7971 H 752.646 -6.93618 -4.34553 0
M  V30 7972 N 755.309 1.25446 -0.953992 0
M  V30 7973 C 756.257 2.27909 -0.46478 0
M  V30 7974 C 757.251 1.62904 0.464607 0
M  V30 7975 O 758.457 1.76733 0.341407 0
M  V30 7976 H 754.832 0.74036 -0.131798 0
M  V30 7977 H 756.803 2.66559 -1.34122 0
M  V30 7978 C 755.552 3.46853 0.242589 0
M  V30 7979 H 754.875 3.97105 -0.463418 0
M  V30 7980 H 756.315 4.20432 0.548919 0
M  V30 7981 C 754.774 3.03386 1.46487 0
M  V30 7982 O 755.304 3.09342 2.56262 0
M  V30 7983 N 753.51 2.58584 1.32599 0
M  V30 7984 H 753.057 2.53938 0.432834 0
M  V30 7985 H 753.015 2.29866 2.14497 0
M  V30 7986 N 756.787 0.722489 1.40064 0
M  V30 7987 C 758.033 0.265371 2.01056 0
M  V30 7988 C 758.366 -1.14062 1.57174 0
M  V30 7989 O 757.641 -1.77514 0.794916 0
M  V30 7990 C 757.924 0.353157 3.58364 0
M  V30 7991 C 757.777 1.79802 4.123 0
M  V30 7992 C 759.096 -0.271677 4.39261 0
M  V30 7993 H 756.215 0.0979002 0.730469 0
M  V30 7994 H 758.857 0.916289 1.66446 0
M  V30 7995 H 757.007 -0.201037 3.87979 0
M  V30 7996 H 758.679 2.40813 3.93455 0
M  V30 7997 H 756.922 2.32348 3.66329 0
M  V30 7998 H 757.593 1.81079 5.21454 0
M  V30 7999 H 760.069 0.200607 4.15616 0
M  V30 8000 H 758.945 -0.179843 5.48605 0
M  V30 8001 H 759.206 -1.35611 4.20787 0
M  V30 8002 N 758.265 -1.50454 0.469181 0
M  V30 8003 C 759.495 -2.06429 -0.0840913 0
M  V30 8004 C 759.903 -1.3334 -1.34227 0
M  V30 8005 O 759.246 -0.395656 -1.79389 0
M  V30 8006 C 759.308 -3.56797 -0.440049 0
M  V30 8007 C 758.972 -4.51359 0.715838 0
M  V30 8008 C 759.969 -4.94754 1.59732 0
M  V30 8009 C 757.654 -4.94069 0.905621 0
M  V30 8010 C 759.648 -5.79564 2.653 0
M  V30 8011 C 757.335 -5.78662 1.96453 0
M  V30 8012 C 758.333 -6.21311 2.83658 0
M  V30 8013 O 758.021 -7.04218 3.87727 0
M  V30 8014 H 757.753 -0.675994 0.00289751 0
M  V30 8015 H 760.307 -1.94629 0.656417 0
M  V30 8016 H 758.537 -3.66492 -1.23372 0
M  V30 8017 H 760.226 -3.95145 -0.928181 0
M  V30 8018 H 760.992 -4.62428 1.46237 0
M  V30 8019 H 756.871 -4.60394 0.236326 0
M  V30 8020 H 760.415 -6.12774 3.33398 0
M  V30 8021 H 756.312 -6.10401 2.09955 0
M  V30 8022 H 757.08 -7.22464 3.84692 0
M  V30 8023 N 759.743 -0.201713 -1.56304 0
M  V30 8024 C 760.706 0.702811 -2.18159 0
M  V30 8025 C 761.706 1.13619 -1.13787 0
M  V30 8026 O 762.896 1.0482 -1.39134 0
M  V30 8027 C 760.028 1.96032 -2.78898 0
M  V30 8028 H 761.221 0.163836 -2.99452 0
M  V30 8029 H 758.774 0.04791 -1.56227 0
M  V30 8030 H 759.509 2.54165 -2.01421 0
M  V30 8031 H 759.294 1.65824 -3.55309 0
M  V30 8032 H 760.784 2.60519 -3.26373 0
M  V30 8033 N 761.222 1.57436 0.0718424 0
M  V30 8034 C 762.169 2.03686 1.08539 0
M  V30 8035 C 763.139 0.917474 1.38462 0
M  V30 8036 O 764.324 1.18513 1.4953 0
M  V30 8037 C 761.464 2.48566 2.39393 0
M  V30 8038 C 760.577 3.74122 2.16001 0
M  V30 8039 C 759.712 4.07786 3.40418 0
M  V30 8040 C 758.751 5.26383 3.1239 0
M  V30 8041 N 757.888 5.55685 4.29138 0
M  V30 8042 H 762.728 2.90043 0.684018 0
M  V30 8043 H 760.265 1.43438 0.326183 0
M  V30 8044 H 762.223 2.72639 3.15791 0
M  V30 8045 H 760.853 1.65186 2.77333 0
M  V30 8046 H 759.905 3.57389 1.30296 0
M  V30 8047 H 761.217 4.60659 1.91298 0
M  V30 8048 H 760.371 4.32759 4.25211 0
M  V30 8049 H 759.11 3.19817 3.68197 0
M  V30 8050 H 758.115 5.01206 2.25993 0
M  V30 8051 H 759.34 6.1597 2.85934 0
M  V30 8052 H 757.286 4.70675 4.56948 0
M  V30 8053 H 757.203 6.3664 4.07708 0
M  V30 8054 H 758.471 5.85209 5.14928 0
M  V30 8055 N 762.7 -0.34323 1.53817 0
M  V30 8056 C 763.647 -1.42153 1.81827 0
M  V30 8057 C 764.617 -1.52251 0.663996 0
M  V30 8058 O 765.802 -1.67784 0.908461 0
M  V30 8059 C 762.942 -2.78799 2.03384 0
M  V30 8060 C 762.055 -2.7749 3.31094 0
M  V30 8061 C 761.19 -4.05856 3.42717 0
M  V30 8062 C 760.229 -3.98776 4.64375 0
M  V30 8063 N 759.366 -5.18833 4.73029 0
M  V30 8064 H 764.206 -1.17567 2.73829 0
M  V30 8065 H 761.743 -0.569506 1.35628 0
M  V30 8066 H 763.701 -3.58211 2.13872 0
M  V30 8067 H 762.331 -3.01736 1.14696 0
M  V30 8068 H 761.383 -1.90182 3.29446 0
M  V30 8069 H 762.695 -2.68137 4.206 0
M  V30 8070 H 761.849 -4.93691 3.52638 0
M  V30 8071 H 760.588 -4.1799 2.51267 0
M  V30 8072 H 759.593 -3.09325 4.5453 0
M  V30 8073 H 760.818 -3.88224 5.57189 0
M  V30 8074 H 758.764 -5.31511 3.84489 0
M  V30 8075 H 758.681 -5.11737 5.56472 0
M  V30 8076 H 759.949 -6.08439 4.87261 0
M  V30 8077 N 764.178 -1.45556 -0.604258 0
M  V30 8078 C 765.426 -1.4945 -1.36048 0
M  V30 8079 C 765.747 -0.138933 -1.94504 0
M  V30 8080 O 765.017 0.832097 -1.7735 0
M  V30 8081 H 763.597 -0.550381 -0.505064 0
M  V30 8082 H 766.259 -1.81535 -0.709308 0
M  V30 8083 H 765.355 -2.23519 -2.17821 0
M  V30 8084 N 765.656 0.84705 -1.32902 0
M  V30 8085 C 766.566 1.98845 -1.2449 0
M  V30 8086 C 767.582 1.7329 -0.15702 0
M  V30 8087 O 768.758 1.978 -0.379104 0
M  V30 8088 C 765.823 3.32679 -0.975985 0
M  V30 8089 C 764.884 3.71405 -2.15306 0
M  V30 8090 C 764.117 4.98853 -1.89688 0
M  V30 8091 O 764.34 5.64134 -0.843168 0
M  V30 8092 O 763.274 5.34889 -2.76002 0
M  V30 8093 H 767.1 2.0888 -2.2046 0
M  V30 8094 H 764.685 0.978852 -1.12867 0
M  V30 8095 H 766.567 4.12885 -0.842826 0
M  V30 8096 H 765.242 3.23667 -0.0464954 0
M  V30 8097 H 764.149 2.91743 -2.34172 0
M  V30 8098 H 765.482 3.85073 -3.06561 0
M  V30 8099 N 767.134 1.16236 1.06428 0
M  V30 8100 C 768.55 0.906983 1.31324 0
M  V30 8101 C 768.75 -0.440872 1.96618 0
M  V30 8102 O 767.806 -1.1807 2.23194 0
M  V30 8103 C 769.119 2.05501 2.19522 0
M  V30 8104 C 770.667 2.09061 2.32943 0
M  V30 8105 C 771.142 3.23214 3.24495 0
M  V30 8106 N 772.633 3.22922 3.32078 0
M  V30 8107 C 773.368 4.07889 4.03006 0
M  V30 8108 N 772.864 5.02941 4.76469 0
M  V30 8109 N 774.657 3.95881 3.99043 0
M  V30 8110 H 766.808 2.03015 0.624388 0
M  V30 8111 H 769.071 0.88576 0.337835 0
M  V30 8112 H 768.777 3.02847 1.78819 0
M  V30 8113 H 768.651 1.99538 3.201 0
M  V30 8114 H 771.038 1.12308 2.72893 0
M  V30 8115 H 771.119 2.19089 1.32037 0
M  V30 8116 H 770.763 4.20225 2.85261 0
M  V30 8117 H 770.693 3.10423 4.25377 0
M  V30 8118 H 773.184 2.54093 2.79724 0
M  V30 8119 H 773.497 5.64196 5.28112 0
M  V30 8120 H 771.842 5.06922 4.75453 0
M  V30 8121 H 775.033 3.20927 3.40769 0
M  V30 8122 H 775.206 4.62321 4.54052 0
M  V30 8123 N 768.612 -1.24939 0.960631 0
M  V30 8124 C 769.542 -2.28 0.503815 0
M  V30 8125 C 770.523 -1.63959 -0.452928 0
M  V30 8126 O 771.708 -1.91009 -0.350585 0
M  V30 8127 C 768.838 -3.46643 -0.213535 0
M  V30 8128 C 767.792 -4.22903 0.658535 0
M  V30 8129 C 767.118 -5.34363 -0.189902 0
M  V30 8130 C 768.418 -4.84949 1.93963 0
M  V30 8131 H 770.112 -2.66462 1.36521 0
M  V30 8132 H 767.658 -1.28093 0.657897 0
M  V30 8133 H 769.611 -4.1787 -0.544286 0
M  V30 8134 H 768.335 -3.07187 -1.10923 0
M  V30 8135 H 766.994 -3.53467 0.972455 0
M  V30 8136 H 766.642 -4.91147 -1.08553 0
M  V30 8137 H 766.342 -5.86302 0.390331 0
M  V30 8138 H 767.866 -6.0842 -0.515484 0
M  V30 8139 H 769.28 -5.48288 1.67491 0
M  V30 8140 H 767.677 -5.47091 2.46601 0
M  V30 8141 H 768.747 -4.06799 2.639 0
M  V30 8142 N 770.09 -0.729906 -1.39679 0
M  V30 8143 C 771.337 -0.275622 -2.00615 0
M  V30 8144 C 771.665 1.13559 -1.57907 0
M  V30 8145 O 770.92 1.78745 -0.796789 0
M  V30 8146 C 771.219 -0.319564 -3.55968 0
M  V30 8147 C 770.885 -1.68308 -4.1831 0
M  V30 8148 C 769.547 -2.05629 -4.35052 0
M  V30 8149 C 771.899 -2.57857 -4.52945 0
M  V30 8150 C 769.227 -3.32018 -4.83716 0
M  V30 8151 C 771.579 -3.83613 -5.03015 0
M  V30 8152 C 770.243 -4.21033 -5.17965 0
M  V30 8153 H 769.513 -0.100857 -0.734104 0
M  V30 8154 H 772.16 -0.93575 -1.67081 0
M  V30 8155 H 770.465 0.42414 -3.89497 0
M  V30 8156 H 772.162 0.0499905 -4.00969 0
M  V30 8157 H 768.752 -1.3829 -4.05677 0
M  V30 8158 H 772.936 -2.30295 -4.39634 0
M  V30 8159 H 768.192 -3.6096 -4.93475 0
M  V30 8160 H 772.366 -4.53162 -5.28788 0
M  V30 8161 H 769.993 -5.19034 -5.55435 0
M  V30 8162 N 771.568 1.50203 -0.477153 0
M  V30 8163 C 772.817 2.01551 0.0774548 0
M  V30 8164 C 773.13 1.36359 1.40234 0
M  V30 8165 O 774.336 1.78898 2.04225 0
M  V30 8166 C 772.792 3.59406 0.188539 0
M  V30 8167 C 772.4 4.3356 -1.12828 0
M  V30 8168 C 774.144 4.18776 0.694782 0
M  V30 8169 C 772.051 5.83213 -0.98066 0
M  V30 8170 H 770.981 0.75329 0.0327212 0
M  V30 8171 H 773.632 1.72959 -0.612969 0
M  V30 8172 H 772.014 3.84611 0.942881 0
M  V30 8173 H 773.188 4.20074 -1.89405 0
M  V30 8174 H 771.503 3.85827 -1.5661 0
M  V30 8175 H 774.1 5.28338 0.822356 0
M  V30 8176 H 774.443 3.80557 1.68766 0
M  V30 8177 H 774.976 3.978 -0.00234519 0
M  V30 8178 H 771.715 6.25914 -1.94709 0
M  V30 8179 H 771.235 5.99256 -0.255375 0
M  V30 8180 H 772.914 6.4373 -0.649717 0
M  V30 8181 N 773.046 0.209999 1.56195 0
M  V30 8182 C 773.994 -0.721416 2.2113 0
M  V30 8183 C 774.988 -1.20852 1.18706 0
M  V30 8184 O 776.194 -1.16968 1.36815 0
M  V30 8185 H 772.569 -0.251033 0.708863 0
M  V30 8186 H 774.54 -0.150193 2.98022 0
M  V30 8187 C 773.289 -1.92392 2.89621 0
M  V30 8188 H 772.612 -1.5582 3.68185 0
M  V30 8189 H 774.052 -2.55367 3.38473 0
M  V30 8190 C 772.511 -2.77208 1.91461 0
M  V30 8191 O 773.041 -3.75603 1.42426 0
M  V30 8192 N 771.247 -2.43006 1.59363 0
M  V30 8193 H 770.794 -1.63047 1.99433 0
M  V30 8194 H 770.752 -3.00036 0.939449 0
M  V30 8195 N 774.524 -1.57472 -0.0634922 0
M  V30 8196 C 775.434 -2.07621 -1.09227 0
M  V30 8197 C 776.45 -1.00746 -1.41867 0
M  V30 8198 O 777.626 -1.32269 -1.51878 0
M  V30 8199 C 774.691 -2.51707 -2.38421 0
M  V30 8200 C 773.752 -3.72917 -2.12676 0
M  V30 8201 C 772.985 -4.14891 -3.3571 0
M  V30 8202 O 773.208 -3.56663 -4.45137 0
M  V30 8203 O 772.142 -5.07616 -3.23434 0
M  V30 8204 H 775.968 -2.95612 -0.696205 0
M  V30 8205 H 773.553 -1.46787 -0.27819 0
M  V30 8206 H 775.435 -2.80547 -3.14438 0
M  V30 8207 H 774.11 -1.66842 -2.77391 0
M  V30 8208 H 773.017 -3.49148 -1.34337 0
M  V30 8209 H 774.35 -4.5866 -1.78583 0
M  V30 8210 N 776.003 0.335068 -1.53997 0
M  V30 8211 C 776.913 1.43511 -1.85585 0
M  V30 8212 C 777.929 1.57162 -0.746726 0
M  V30 8213 O 779.105 1.72477 -1.03988 0
M  V30 8214 C 776.17 2.78386 -2.06646 0
M  V30 8215 C 775.231 2.74007 -3.30483 0
M  V30 8216 C 774.464 4.02449 -3.50529 0
M  V30 8217 O 774.687 5.00147 -2.74242 0
M  V30 8218 O 773.621 4.06405 -4.4398 0
M  V30 8219 H 777.447 1.19731 -2.79102 0
M  V30 8220 H 775.032 0.528033 -1.39758 0
M  V30 8221 H 776.914 3.58247 -2.21894 0
M  V30 8222 H 775.589 3.0208 -1.16317 0
M  V30 8223 H 774.496 1.92736 -3.2063 0
M  V30 8224 H 775.829 2.55267 -4.20832 0
M  V30 8225 N 777.481 1.45874 0.596531 0
M  V30 8226 C 778.428 1.55389 1.70655 0
M  V30 8227 C 779.398 0.399036 1.61236 0
M  V30 8228 O 780.583 0.61396 1.80652 0
M  V30 8229 C 777.723 1.53705 3.0898 0
M  V30 8230 C 776.836 2.79823 3.29125 0
M  V30 8231 C 775.971 2.69735 4.5762 0
M  V30 8232 C 775.01 3.90856 4.71061 0
M  V30 8233 N 774.147 3.79237 5.90867 0
M  V30 8234 H 778.987 2.50211 1.61859 0
M  V30 8235 H 776.524 1.24146 0.789069 0
M  V30 8236 H 778.482 1.50715 3.89026 0
M  V30 8237 H 777.112 0.624247 3.16706 0
M  V30 8238 H 776.164 2.92852 2.42779 0
M  V30 8239 H 777.476 3.69628 3.34927 0
M  V30 8240 H 776.63 2.64773 5.45875 0
M  V30 8241 H 775.369 1.77547 4.54234 0
M  V30 8242 H 774.374 3.96164 3.81227 0
M  V30 8243 H 775.599 4.84124 4.76236 0
M  V30 8244 H 773.545 2.89825 5.88504 0
M  V30 8245 H 773.462 4.62686 5.97877 0
M  V30 8246 H 774.73 3.78227 6.8159 0
M  V30 8247 N 778.959 -0.83999 1.33349 0
M  V30 8248 C 780.208 -1.59011 1.2409 0
M  V30 8249 C 780.521 -1.94655 -0.192029 0
M  V30 8250 O 781.727 -2.68438 -0.406617 0
M  V30 8251 C 780.183 -2.86801 2.17425 0
M  V30 8252 C 779.791 -2.58525 3.65881 0
M  V30 8253 C 781.535 -3.64823 2.17036 0
M  V30 8254 C 779.442 -3.82404 4.51133 0
M  V30 8255 H 778.372 -0.596731 0.460899 0
M  V30 8256 H 781.023 -0.926274 1.58406 0
M  V30 8257 H 779.405 -3.54719 1.7604 0
M  V30 8258 H 780.579 -1.98824 4.15699 0
M  V30 8259 H 778.894 -1.93808 3.68548 0
M  V30 8260 H 781.491 -4.56774 2.7796 0
M  V30 8261 H 781.834 -3.99663 1.16513 0
M  V30 8262 H 782.367 -3.03826 2.56777 0
M  V30 8263 H 779.106 -3.52696 5.52527 0
M  V30 8264 H 778.626 -4.41447 4.0606 0
M  V30 8265 H 780.305 -4.49995 4.6488 0
M  V30 8266 N 780.437 -1.16799 -1.0581 0
M  V30 8267 C 781.367 -0.902241 -2.15364 0
M  V30 8268 C 782.348 0.153351 -1.69407 0
M  V30 8269 O 783.533 0.00442032 -1.94199 0
M  V30 8270 C 780.663 -0.407911 -3.44896 0
M  V30 8271 C 779.617 -1.40197 -4.04387 0
M  V30 8272 C 778.943 -0.765848 -5.29187 0
M  V30 8273 C 780.243 -2.77316 -4.42598 0
M  V30 8274 H 781.937 -1.81841 -2.37853 0
M  V30 8275 H 779.483 -0.875731 -1.14311 0
M  V30 8276 H 781.436 -0.20945 -4.20879 0
M  V30 8277 H 780.16 0.54378 -3.22041 0
M  V30 8278 H 778.819 -1.58707 -3.30466 0
M  V30 8279 H 778.467 0.192482 -5.02632 0
M  V30 8280 H 778.167 -1.42939 -5.69949 0
M  V30 8281 H 779.691 -0.577519 -6.07863 0
M  V30 8282 H 781.105 -2.62561 -5.09642 0
M  V30 8283 H 779.502 -3.4019 -4.94359 0
M  V30 8284 H 780.572 -3.32199 -3.53231 0
M  V30 8285 N 781.915 1.24427 -0.967243 0
M  V30 8286 C 783.161 1.93089 -0.639404 0
M  V30 8287 C 783.516 1.7422 0.816407 0
M  V30 8288 O 782.809 1.08435 1.57964 0
M  V30 8289 C 783.003 3.44568 -0.949096 0
M  V30 8290 C 782.832 3.7817 -2.43346 0
M  V30 8291 C 781.602 3.99561 -3.09321 0
M  V30 8292 C 783.8 3.84687 -3.41351 0
M  V30 8293 N 781.782 4.20259 -4.475 0
M  V30 8294 C 783.153 4.10223 -4.64884 0
M  V30 8295 C 785.208 3.67421 -3.36015 0
M  V30 8296 C 783.911 4.20286 -5.8374 0
M  V30 8297 C 785.937 3.78731 -4.54221 0
M  V30 8298 C 785.299 4.04691 -5.76545 0
M  V30 8299 H 781.398 0.728291 -0.284809 0
M  V30 8300 H 783.982 1.49941 -1.24201 0
M  V30 8301 H 782.153 3.86582 -0.375308 0
M  V30 8302 H 783.885 4.00524 -0.579876 0
M  V30 8303 H 780.64 3.95946 -2.59853 0
M  V30 8304 H 781.064 4.34588 -5.19097 0
M  V30 8305 H 785.706 3.46358 -2.42479 0
M  V30 8306 H 783.424 4.40162 -6.77704 0
M  V30 8307 H 787.01 3.66743 -4.51653 0
M  V30 8308 H 785.89 4.1324 -6.66485 0
M  V30 8309 N 783.393 0.737304 1.3929 0
M  V30 8310 C 784.618 0.295237 2.05288 0
M  V30 8311 C 785.043 -1.06235 1.55228 0
M  V30 8312 O 784.401 -1.67365 0.697043 0
M  V30 8313 C 784.449 0.309146 3.59272 0
M  V30 8314 O 783.553 -0.702437 4.06374 0
M  V30 8315 H 782.894 0.133762 0.650387 0
M  V30 8316 H 785.424 1.00387 1.78279 0
M  V30 8317 H 785.434 0.154336 4.07708 0
M  V30 8318 H 784.109 1.29974 3.95069 0
M  V30 8319 H 782.686 -0.513574 3.69346 0
M  V30 8320 N 784.871 -1.49948 0.485112 0
M  V30 8321 C 786.119 -2.01996 -0.0648775 0
M  V30 8322 C 786.44 -1.36819 -1.38945 0
M  V30 8323 O 785.71 -0.518163 -1.88923 0
M  V30 8324 H 784.29 -0.746513 -0.0269662 0
M  V30 8325 H 786.952 -1.84136 0.638733 0
M  V30 8326 H 786.048 -3.11418 -0.20617 0
M  V30 8327 N 786.349 -0.21828 -1.56081 0
M  V30 8328 C 787.596 0.414307 -1.98216 0
M  V30 8329 C 787.924 1.60005 -1.10584 0
M  V30 8330 O 787.179 1.95124 -0.150043 0
M  V30 8331 C 787.478 0.894782 -3.46018 0
M  V30 8332 C 787.144 -0.180083 -4.5054 0
M  V30 8333 C 785.806 -0.475367 -4.78846 0
M  V30 8334 C 788.158 -0.907191 -5.13244 0
M  V30 8335 C 785.486 -1.50233 -5.67139 0
M  V30 8336 C 787.838 -1.92347 -6.02649 0
M  V30 8337 C 786.502 -2.22571 -6.293 0
M  V30 8338 H 785.772 0.151606 -0.725325 0
M  V30 8339 H 788.419 -0.320113 -1.88806 0
M  V30 8340 H 786.724 1.7079 -3.52616 0
M  V30 8341 H 788.421 1.39403 -3.75989 0
M  V30 8342 H 785.011 0.06022 -4.28558 0
M  V30 8343 H 789.195 -0.692303 -4.91448 0
M  V30 8344 H 784.451 -1.74215 -5.86054 0
M  V30 8345 H 788.625 -2.49197 -6.50288 0
M  V30 8346 H 786.252 -3.0229 -6.97513 0
M  V30 8347 N 787.827 1.57504 0.0551401 0
M  V30 8348 C 789.052 1.92682 0.767352 0
M  V30 8349 C 789.477 0.81614 1.69472 0
M  V30 8350 O 788.835 -0.229989 1.79835 0
M  V30 8351 C 788.883 3.26866 1.52286 0
M  V30 8352 O 787.987 3.17274 2.63459 0
M  V30 8353 H 787.328 0.630502 0.208238 0
M  V30 8354 H 789.858 2.04592 0.0184026 0
M  V30 8355 H 789.868 3.61138 1.8985 0
M  V30 8356 H 788.543 4.07276 0.842541 0
M  V30 8357 H 787.12 2.94589 2.2863 0
M  V30 8358 N 789.305 -0.326896 1.54172 0
M  V30 8359 C 790.721 -0.671034 1.44808 0
M  V30 8360 C 790.921 -1.91781 0.618258 0
M  V30 8361 O 789.977 -2.52235 0.115751 0
M  V30 8362 C 791.29 -0.848147 2.88491 0
M  V30 8363 C 792.838 -0.945702 2.98371 0
M  V30 8364 C 793.313 -1.15501 4.43197 0
M  V30 8365 N 794.804 -1.22183 4.46795 0
M  V30 8366 C 795.539 -1.4016 5.56006 0
M  V30 8367 N 795.035 -1.55202 6.75192 0
M  V30 8368 N 796.828 -1.42841 5.43648 0
M  V30 8369 H 788.979 0.49262 2.06608 0
M  V30 8370 H 791.242 0.158574 0.934643 0
M  V30 8371 H 790.948 -0.00329969 3.517 0
M  V30 8372 H 790.822 -1.74497 3.34411 0
M  V30 8373 H 793.209 -1.78106 2.35292 0
M  V30 8374 H 793.29 -0.0254215 2.55787 0
M  V30 8375 H 792.934 -0.324521 5.06862 0
M  V30 8376 H 792.864 -2.08911 4.83388 0
M  V30 8377 H 795.355 -1.12016 3.60917 0
M  V30 8378 H 795.668 -1.68601 7.54184 0
M  V30 8379 H 794.013 -1.52306 6.78106 0
M  V30 8380 H 797.204 -1.30683 4.49488 0
M  V30 8381 H 797.377 -1.56509 6.28816 0
M  V30 8382 N 790.784 -1.46188 -0.588786 0
M  V30 8383 C 791.694 -1.58865 -1.72624 0
M  V30 8384 C 792.71 -0.472348 -1.67466 0
M  V30 8385 O 793.886 -0.735638 -1.87484 0
M  V30 8386 C 790.951 -1.56989 -3.0912 0
M  V30 8387 C 790.012 -2.79804 -3.25589 0
M  V30 8388 C 789.245 -2.78009 -4.55573 0
M  V30 8389 O 789.468 -1.86406 -5.39082 0
M  V30 8390 O 788.402 -3.6947 -4.75159 0
M  V30 8391 H 792.228 -2.55047 -1.64878 0
M  V30 8392 H 789.813 -1.28912 -0.755115 0
M  V30 8393 H 791.695 -1.58618 -3.90408 0
M  V30 8394 H 790.37 -0.639648 -3.17317 0
M  V30 8395 H 789.277 -2.83732 -2.43818 0
M  V30 8396 H 790.61 -3.72017 -3.22279 0
M  V30 8397 N 792.262 0.832906 -1.33792 0
M  V30 8398 C 793.508 1.59089 -1.25772 0
M  V30 8399 C 793.841 1.93414 0.174601 0
M  V30 8400 O 793.116 1.59195 1.11746 0
M  V30 8401 C 793.399 2.89699 -2.13885 0
M  V30 8402 C 793.252 2.62017 -3.65605 0
M  V30 8403 C 794.571 3.91182 -2.01654 0
M  V30 8404 H 791.69 0.577232 -0.458227 0
M  V30 8405 H 794.332 0.960227 -1.6395 0
M  V30 8406 H 792.482 3.4352 -1.81456 0
M  V30 8407 H 794.154 2.14582 -4.08353 0
M  V30 8408 H 792.397 1.95621 -3.87189 0
M  V30 8409 H 793.068 3.55112 -4.2261 0
M  V30 8410 H 795.544 3.46684 -2.30107 0
M  V30 8411 H 794.42 4.80391 -2.65548 0
M  V30 8412 H 794.681 4.30861 -0.990536 0
M  V30 8413 N 793.74 1.17359 1.05189 0
M  V30 8414 C 795.151 0.96793 1.5965 0
M  V30 8415 C 795.502 -0.485355 1.90102 0
M  V30 8416 O 794.627 -1.36066 1.6827 0
M  V30 8417 C 795.222 1.75068 2.90063 0
M  V30 8418 C 793.781 1.58969 3.41183 0
M  V30 8419 C 792.928 1.75231 2.14917 0
M  V30 8420 H 795.879 1.32067 0.880001 0
M  V30 8421 H 795.9 1.23308 3.59966 0
M  V30 8422 H 795.412 2.80835 2.67868 0
M  V30 8423 H 793.513 0.556906 3.68415 0
M  V30 8424 H 793.626 2.38067 4.15766 0
M  V30 8425 H 791.99 1.18073 2.25679 0
M  V30 8426 H 792.773 2.8241 1.95191 0
M  V30 8427 N 795.218 -1.23913 0.973828 0
M  V30 8428 C 796.465 -1.92151 0.639079 0
M  V30 8429 C 796.793 -1.76064 -0.826545 0
M  V30 8430 O 796.048 -1.11126 -1.61088 0
M  V30 8431 C 796.347 -3.4406 0.967356 0
M  V30 8432 C 796.013 -3.80321 2.42212 0
M  V30 8433 C 794.675 -3.8993 2.81971 0
M  V30 8434 C 797.027 -3.97935 3.36596 0
M  V30 8435 C 794.355 -4.14575 4.15144 0
M  V30 8436 C 796.707 -4.24079 4.69404 0
M  V30 8437 C 795.371 -4.31908 5.08932 0
M  V30 8438 H 794.641 -0.70313 0.233856 0
M  V30 8439 H 797.288 -1.47072 1.22646 0
M  V30 8440 H 795.593 -3.90667 0.297807 0
M  V30 8441 H 797.29 -3.95077 0.686654 0
M  V30 8442 H 793.88 -3.73411 2.10385 0
M  V30 8443 H 798.064 -3.89908 3.07059 0
M  V30 8444 H 793.32 -4.18858 4.45385 0
M  V30 8445 H 797.494 -4.36652 5.42502 0
M  V30 8446 H 795.121 -4.50758 6.12145 0
M  V30 8447 N 796.696 -0.74468 -1.38897 0
M  V30 8448 C 797.921 -0.306119 -2.05128 0
M  V30 8449 C 798.346 1.0541 -1.55789 0
M  V30 8450 O 797.704 1.66993 -0.705909 0
M  V30 8451 C 797.752 -0.328195 -3.59103 0
M  V30 8452 O 796.856 0.680876 -4.06741 0
M  V30 8453 H 796.197 -0.137209 -0.649669 0
M  V30 8454 H 798.727 -1.01331 -1.77745 0
M  V30 8455 H 798.737 -0.175956 -4.0762 0
M  V30 8456 H 797.412 -1.32067 -3.94374 0
M  V30 8457 H 795.989 0.49398 -3.69614 0
M  V30 8458 N 798.174 1.49689 -0.493057 0
M  V30 8459 C 799.122 2.30613 0.303383 0
M  V30 8460 C 800.116 1.38867 0.970165 0
M  V30 8461 O 801.322 1.55956 0.898761 0
M  V30 8462 H 797.697 0.742891 0.116691 0
M  V30 8463 H 799.668 2.95717 -0.39924 0
M  V30 8464 C 798.417 3.20008 1.35978 0
M  V30 8465 H 797.74 3.90526 0.856103 0
M  V30 8466 H 799.18 3.79586 1.88919 0
M  V30 8467 C 797.639 2.39079 2.37367 0
M  V30 8468 O 798.169 2.08933 3.43089 0
M  V30 8469 N 796.375 2.0125 2.09635 0
M  V30 8470 H 795.922 2.25966 1.23682 0
M  V30 8471 H 795.88 1.47408 2.77702 0
M  V30 8472 N 799.652 0.226554 1.55963 0
M  V30 8473 C 800.892 -0.405574 2.00336 0
M  V30 8474 C 801.256 -1.56593 1.11097 0
M  V30 8475 O 802.457 -2.26441 1.44838 0
M  V30 8476 C 800.728 -0.82435 3.47763 0
M  V30 8477 S 802.287 -1.44988 4.14154 0
M  V30 8478 H 799.105 -0.128512 0.699289 0
M  V30 8479 H 801.707 0.337017 1.92573 0
M  V30 8480 H 800.411 0.0297636 4.10389 0
M  V30 8481 H 799.942 -1.59963 3.5941 0
M  V30 8482 H 801.957 -2.73897 4.13757 0
M  V30 8483 N 801.13 -1.57531 -0.0467866 0
M  V30 8484 C 802.355 -1.93087 -0.757123 0
M  V30 8485 C 802.78 -0.825116 -1.69037 0
M  V30 8486 O 802.138 0.220449 -1.79955 0
M  V30 8487 C 802.186 -3.27669 -1.5055 0
M  V30 8488 O 801.29 -3.18667 -2.61773 0
M  V30 8489 H 800.631 -0.631597 -0.204892 0
M  V30 8490 H 803.161 -2.04599 -0.00755232 0
M  V30 8491 H 803.171 -3.6214 -1.87932 0
M  V30 8492 H 801.846 -4.07717 -0.820931 0
M  V30 8493 H 800.423 -2.95798 -2.27064 0
M  V30 8494 N 802.608 0.318715 -1.54344 0
M  V30 8495 C 804.024 0.663345 -1.45162 0
M  V30 8496 C 804.224 1.9145 -0.62842 0
M  V30 8497 O 803.28 2.5217 -0.129126 0
M  V30 8498 C 804.593 0.832836 -2.88937 0
M  V30 8499 C 806.141 0.929866 -2.98869 0
M  V30 8500 C 806.616 1.13149 -4.43803 0
M  V30 8501 N 808.107 1.19811 -4.47437 0
M  V30 8502 C 808.842 1.37209 -5.56742 0
M  V30 8503 N 808.338 1.51619 -6.76006 0
M  V30 8504 N 810.131 1.39956 -5.44398 0
M  V30 8505 H 802.282 -0.50357 -2.06344 0
M  V30 8506 H 804.545 -0.163528 -0.933789 0
M  V30 8507 H 804.251 -0.0153519 -3.51697 0
M  V30 8508 H 804.125 1.72721 -3.35332 0
M  V30 8509 H 806.512 1.76855 -2.36233 0
M  V30 8510 H 806.593 0.0118561 -2.55797 0
M  V30 8511 H 806.237 0.297636 -5.07027 0
M  V30 8512 H 806.167 2.06345 -4.84489 0
M  V30 8513 H 808.658 1.101 -3.61506 0
M  V30 8514 H 808.971 1.64599 -7.55067 0
M  V30 8515 H 807.316 1.48708 -6.78904 0
M  V30 8516 H 810.507 1.28298 -4.50175 0
M  V30 8517 H 810.68 1.53172 -6.29637 0
M  V30 8518 N 804.086 1.46499 0.581025 0
M  V30 8519 C 805.363 1.42372 1.34125 0
M  V30 8520 C 805.743 0.108073 2.10823 0
M  V30 8521 O 805.091 -0.910366 2.09582 0
M  V30 8522 C 805.301 2.65445 2.26583 0
M  V30 8523 C 806.649 3.11664 2.88359 0
M  V30 8524 O 807.673 2.66006 2.36896 0
M  V30 8525 O 806.532 3.90974 3.81839 0
M  V30 8526 H 803.626 0.566262 0.602724 0
M  V30 8527 H 806.172 1.58667 0.601903 0
M  V30 8528 H 804.944 3.52756 1.69348 0
M  V30 8529 H 804.567 2.51618 3.07854 0
M  V30 8530 N 805.565 -0.825799 1.34232 0
M  V30 8531 C 806.805 -1.59541 1.27773 0
M  V30 8532 C 807.169 -1.91405 -0.150998 0
M  V30 8533 O 808.37 -2.66644 -0.339728 0
M  V30 8534 C 806.641 -2.86183 2.14089 0
M  V30 8535 S 808.2 -3.76751 2.24953 0
M  V30 8536 H 805.018 -0.546871 0.454371 0
M  V30 8537 H 807.62 -0.975677 1.69413 0
M  V30 8538 H 806.324 -2.60767 3.16905 0
M  V30 8539 H 805.855 -3.53155 1.73335 0
M  V30 8540 H 807.87 -4.75442 1.4202 0
M  V30 8541 N 807.043 -1.17915 -1.04565 0
M  V30 8542 C 807.973 -0.925033 -2.14395 0
M  V30 8543 C 808.954 0.135375 -1.6956 0
M  V30 8544 O 810.139 -0.0161774 -1.94193 0
M  V30 8545 C 807.269 -0.444469 -3.44444 0
M  V30 8546 C 806.223 -1.44478 -4.02877 0
M  V30 8547 C 805.549 -0.821933 -5.28345 0
M  V30 8548 C 806.849 -2.81995 -4.39632 0
M  V30 8549 H 808.543 -1.84354 -2.35911 0
M  V30 8550 H 806.089 -0.887806 -1.13375 0
M  V30 8551 H 808.042 -0.254078 -4.20633 0
M  V30 8552 H 806.766 0.509592 -3.226 0
M  V30 8553 H 805.425 -1.62203 -3.28764 0
M  V30 8554 H 805.073 0.139161 -5.02807 0
M  V30 8555 H 804.773 -1.48976 -5.68401 0
M  V30 8556 H 806.297 -0.641959 -6.07216 0
M  V30 8557 H 807.711 -2.67952 -5.06828 0
M  V30 8558 H 806.108 -3.45414 -4.90723 0
M  V30 8559 H 807.178 -3.35927 -3.49687 0
M  V30 8560 N 808.521 1.23394 -0.980386 0
M  V30 8561 C 809.484 2.23092 -0.525619 0
M  V30 8562 C 810.484 1.56129 0.384745 0
M  V30 8563 O 811.674 1.73284 0.178439 0
M  V30 8564 C 808.806 3.40074 0.23712 0
M  V30 8565 H 809.999 2.64839 -1.40714 0
M  V30 8566 H 807.552 1.36227 -0.766275 0
M  V30 8567 H 808.287 3.03783 1.13518 0
M  V30 8568 H 808.072 3.89883 -0.416356 0
M  V30 8569 H 809.562 4.14043 0.543892 0
M  V30 8570 N 809.999 0.752036 1.385 0
M  V30 8571 C 811.247 0.306895 1.99756 0
M  V30 8572 C 811.568 -1.11478 1.59992 0
M  V30 8573 O 810.838 -1.76206 0.856045 0
M  V30 8574 H 809.418 0.11048 0.738785 0
M  V30 8575 H 812.08 0.965785 1.69289 0
M  V30 8576 H 811.176 0.368797 3.09913 0
M  V30 8577 N 811.477 -1.49425 0.500989 0
M  V30 8578 C 812.705 -2.06861 -0.0403443 0
M  V30 8579 C 813.12 -1.36132 -1.30819 0
M  V30 8580 O 812.477 -0.439647 -1.77125 0
M  V30 8581 C 812.528 -3.6027 -0.297902 0
M  V30 8582 O 812.249 -4.28338 0.919686 0
M  V30 8583 C 813.75 -4.34419 -0.882876 0
M  V30 8584 H 810.97 -0.670688 0.0204619 0
M  V30 8585 H 813.514 -1.92207 0.698342 0
M  V30 8586 H 811.669 -3.74627 -0.98657 0
M  V30 8587 H 812.083 -5.2004 0.682528 0
M  V30 8588 H 813.557 -5.42631 -1.01268 0
M  V30 8589 H 814.034 -3.96898 -1.88066 0
M  V30 8590 H 814.64 -4.24669 -0.231677 0
M  V30 8591 N 812.955 -0.234822 -1.55841 0
M  V30 8592 C 814.371 0.120295 -1.59146 0
M  V30 8593 C 814.571 1.57896 -1.25184 0
M  V30 8594 O 813.627 2.32138 -0.993393 0
M  V30 8595 C 814.94 -0.217984 -2.99909 0
M  V30 8596 C 816.488 -0.161298 -3.12584 0
M  V30 8597 C 816.963 -0.473438 -4.55546 0
M  V30 8598 N 818.454 -0.423494 -4.6126 0
M  V30 8599 C 819.189 -0.638334 -5.69836 0
M  V30 8600 N 818.685 -0.915659 -6.86722 0
M  V30 8601 N 820.478 -0.569864 -5.59204 0
M  V30 8602 H 812.629 -1.18622 -1.76189 0
M  V30 8603 H 814.892 -0.476426 -0.819587 0
M  V30 8604 H 814.598 -1.2309 -3.29457 0
M  V30 8605 H 814.472 0.460707 -3.74376 0
M  V30 8606 H 816.859 0.842274 -2.82825 0
M  V30 8607 H 816.94 -0.873661 -2.40418 0
M  V30 8608 H 816.584 -1.47451 -4.86025 0
M  V30 8609 H 816.514 0.260268 -5.25956 0
M  V30 8610 H 819.005 -0.217383 -3.77274 0
M  V30 8611 H 819.318 -1.06734 -7.65394 0
M  V30 8612 H 817.663 -0.953 -6.88435 0
M  V30 8613 H 820.854 -0.35334 -4.66765 0
M  V30 8614 H 821.027 -0.740698 -6.43753 0
M  V30 8615 N 814.433 1.57553 0.0384317 0
M  V30 8616 C 815.38 2.05942 1.04194 0
M  V30 8617 C 816.35 0.946637 1.36484 0
M  V30 8618 O 817.535 1.21658 1.46983 0
M  V30 8619 C 814.675 2.53588 2.34066 0
M  V30 8620 C 813.788 3.7862 2.08017 0
M  V30 8621 C 812.923 4.14915 3.31692 0
M  V30 8622 C 811.962 5.32891 3.01155 0
M  V30 8623 N 811.099 5.64662 4.17254 0
M  V30 8624 H 815.939 2.91429 0.622341 0
M  V30 8625 H 813.476 1.44098 0.295684 0
M  V30 8626 H 815.434 2.79276 3.09937 0
M  V30 8627 H 814.064 1.71031 2.73767 0
M  V30 8628 H 813.116 3.60073 1.22686 0
M  V30 8629 H 814.428 4.64613 1.81484 0
M  V30 8630 H 813.582 4.41681 4.15936 0
M  V30 8631 H 812.321 3.27555 3.6133 0
M  V30 8632 H 811.326 5.05887 2.15311 0
M  V30 8633 H 812.551 6.21896 2.72804 0
M  V30 8634 H 810.497 4.80261 4.46861 0
M  V30 8635 H 810.414 6.45145 3.94112 0
M  V30 8636 H 811.682 5.96 5.02399 0
M  V30 8637 N 815.911 -0.310526 1.54511 0
M  V30 8638 C 817.159 -1.04484 1.72996 0
M  V30 8639 C 817.48 -1.88118 0.513479 0
M  V30 8640 O 816.75 -1.90119 -0.472384 0
M  V30 8641 H 815.33 -0.388747 0.637875 0
M  V30 8642 H 817.992 -0.343811 1.91844 0
M  V30 8643 H 817.088 -1.70341 2.61515 0
M  V30 8644 N 817.389 -1.46805 -0.573248 0
M  V30 8645 C 818.638 -1.51868 -1.32736 0
M  V30 8646 C 818.951 -0.178765 -1.94781 0
M  V30 8647 O 820.157 -0.107272 -2.71288 0
M  V30 8648 C 818.613 -2.67641 -2.40616 0
M  V30 8649 C 818.221 -4.08094 -1.84832 0
M  V30 8650 C 819.965 -2.81984 -3.17309 0
M  V30 8651 C 817.872 -5.15193 -2.90397 0
M  V30 8652 H 816.802 -0.56523 -0.49903 0
M  V30 8653 H 819.453 -1.7304 -0.610695 0
M  V30 8654 H 817.835 -2.39818 -3.15124 0
M  V30 8655 H 819.009 -4.45751 -1.16803 0
M  V30 8656 H 817.324 -3.985 -1.20775 0
M  V30 8657 H 819.921 -3.59166 -3.96111 0
M  V30 8658 H 820.264 -1.89842 -3.70494 0
M  V30 8659 H 820.797 -3.095 -2.4991 0
M  V30 8660 H 817.536 -6.09158 -2.42088 0
M  V30 8661 H 817.056 -4.82071 -3.56886 0
M  V30 8662 H 818.735 -5.41448 -3.54179 0
M  V30 8663 N 818.867 0.818669 -1.34668 0
M  V30 8664 C 820.116 1.57017 -1.26604 0
M  V30 8665 C 820.429 1.94936 0.161036 0
M  V30 8666 O 821.635 2.69051 0.36386 0
M  V30 8667 C 820.091 2.83305 -2.2196 0
M  V30 8668 C 819.699 2.52671 -3.69948 0
M  V30 8669 C 821.443 3.61324 -2.22813 0
M  V30 8670 C 819.35 3.75178 -4.5716 0
M  V30 8671 H 818.28 0.589323 -0.470335 0
M  V30 8672 H 820.931 0.900956 -1.59859 0
M  V30 8673 H 819.313 3.51874 -1.81661 0
M  V30 8674 H 820.487 1.92186 -4.18809 0
M  V30 8675 H 818.802 1.8792 -3.71584 0
M  V30 8676 H 821.399 4.52294 -2.85192 0
M  V30 8677 H 821.742 3.97759 -1.22857 0
M  V30 8678 H 822.275 2.99703 -2.61578 0
M  V30 8679 H 819.014 3.43861 -5.58068 0
M  V30 8680 H 818.534 4.34931 -4.13031 0
M  V30 8681 H 820.213 4.42542 -4.71981 0
M  V30 8682 N 820.346 1.18468 1.03938 0
M  V30 8683 C 821.256 0.927889 2.1547 0
M  V30 8684 C 822.272 -0.108447 1.73662 0
M  V30 8685 O 823.448 0.0737636 2.01265 0
M  V30 8686 C 820.513 0.458494 3.43655 0
M  V30 8687 C 819.574 1.56295 3.99838 0
M  V30 8688 C 818.807 1.11586 5.21904 0
M  V30 8689 O 819.03 -0.0249057 5.70395 0
M  V30 8690 O 817.964 1.91412 5.70653 0
M  V30 8691 H 821.79 1.86116 2.39989 0
M  V30 8692 H 819.375 0.966607 1.13917 0
M  V30 8693 H 821.257 0.204861 4.20902 0
M  V30 8694 H 819.932 -0.446464 3.20606 0
M  V30 8695 H 818.839 1.87061 3.23974 0
M  V30 8696 H 820.172 2.44408 4.2723 0
M  V30 8697 N 821.824 -1.22873 0.986916 0
M  V30 8698 C 823.072 -1.91084 0.658121 0
M  V30 8699 C 823.393 -1.77304 -0.811675 0
M  V30 8700 O 822.663 -1.15649 -1.58121 0
M  V30 8701 H 821.243 -0.707251 0.240427 0
M  V30 8702 H 823.905 -1.49357 1.25213 0
M  V30 8703 H 823.001 -2.98373 0.915428 0
M  V30 8704 N 823.302 -0.75937 -1.38099 0
M  V30 8705 C 824.212 -0.13774 -2.34195 0
M  V30 8706 C 825.228 0.693985 -1.59561 0
M  V30 8707 O 826.404 0.616792 -1.91723 0
M  V30 8708 C 823.469 0.740535 -3.38699 0
M  V30 8709 C 822.53 -0.106225 -4.29169 0
M  V30 8710 C 821.763 0.730225 -5.28681 0
M  V30 8711 O 821.986 1.96796 -5.35376 0
M  V30 8712 O 820.92 0.145969 -6.01723 0
M  V30 8713 H 824.746 -0.931512 -2.89061 0
M  V30 8714 H 822.331 -0.520345 -1.40046 0
M  V30 8715 H 824.213 1.24232 -4.02672 0
M  V30 8716 H 822.888 1.51271 -2.8618 0
M  V30 8717 H 821.795 -0.654088 -3.68337 0
M  V30 8718 H 823.128 -0.841186 -4.84959 0
M  V30 8719 N 824.78 1.49157 -0.508906 0
M  V30 8720 C 826.191 1.86593 -0.0630975 0
M  V30 8721 C 826.542 1.42051 1.35337 0
M  V30 8722 O 825.667 0.801866 2.00995 0
M  V30 8723 C 826.262 3.38629 -0.107729 0
M  V30 8724 C 824.821 3.75336 0.282776 0
M  V30 8725 C 823.968 2.7317 -0.4768 0
M  V30 8726 H 826.919 1.41362 -0.72128 0
M  V30 8727 H 826.94 3.74271 0.685689 0
M  V30 8728 H 826.452 3.71017 -1.13876 0
M  V30 8729 H 824.553 3.48558 1.31675 0
M  V30 8730 H 824.666 4.79081 -0.0421728 0
M  V30 8731 H 823.03 2.54591 0.0743552 0
M  V30 8732 H 823.813 3.08403 -1.50807 0
M  V30 8733 N 826.258 0.243083 1.55714 0
M  V30 8734 C 827.486 -0.386971 2.03249 0
M  V30 8735 C 827.901 -1.51812 1.12243 0
M  V30 8736 O 827.258 -1.81992 0.136119 0
M  V30 8737 C 827.309 -0.898361 3.5016 0
M  V30 8738 O 827.03 0.187708 4.37698 0
M  V30 8739 C 828.531 -1.59949 4.13438 0
M  V30 8740 H 825.751 -0.0923981 0.664608 0
M  V30 8741 H 828.295 0.365832 2.01201 0
M  V30 8742 H 826.45 -1.60136 3.52754 0
M  V30 8743 H 826.864 -0.200001 5.24119 0
M  V30 8744 H 828.338 -1.90907 5.17937 0
M  V30 8745 H 828.815 -2.52014 3.59702 0
M  V30 8746 H 829.421 -0.941163 4.14756 0
M  V30 8747 N 827.736 -1.57571 -0.0300757 0
M  V30 8748 C 828.976 -1.91074 -0.725946 0
M  V30 8749 C 829.34 -0.841545 -1.72575 0
M  V30 8750 O 830.541 -1.06088 -2.46979 0
M  V30 8751 C 828.812 -3.2973 -1.37888 0
M  V30 8752 S 830.371 -3.85065 -2.10405 0
M  V30 8753 H 827.189 -0.669084 -0.240515 0
M  V30 8754 H 829.791 -1.9549 0.019384 0
M  V30 8755 H 828.495 -4.05411 -0.637974 0
M  V30 8756 H 828.026 -3.28614 -2.16278 0
M  V30 8757 H 830.041 -3.63711 -3.37533 0
M  V30 8758 N 829.214 0.302327 -1.54673 0
M  V30 8759 C 830.454 1.04568 -1.75627 0
M  V30 8760 C 830.818 1.84535 -0.530175 0
M  V30 8761 O 832.019 2.61613 -0.61743 0
M  V30 8762 C 830.29 1.92873 -3.0089 0
M  V30 8763 S 831.849 2.73872 -3.4284 0
M  V30 8764 H 828.667 0.352682 -0.617362 0
M  V30 8765 H 831.269 0.319239 -1.92876 0
M  V30 8766 H 829.973 1.32998 -3.88252 0
M  V30 8767 H 829.504 2.69887 -2.86225 0
M  V30 8768 H 831.519 3.95386 -2.99807 0
M  V30 8769 N 830.692 1.47107 0.565454 0
M  V30 8770 C 831.939 1.53308 1.32299 0
M  V30 8771 C 832.267 0.1919 1.93551 0
M  V30 8772 O 831.522 -0.81435 1.77952 0
M  V30 8773 C 831.821 2.59309 2.45954 0
M  V30 8774 C 831.487 4.02827 2.02586 0
M  V30 8775 C 830.149 4.41897 1.90474 0
M  V30 8776 C 832.501 4.92913 1.6937 0
M  V30 8777 C 829.829 5.68898 1.4343 0
M  V30 8778 C 832.181 6.20368 1.238 0
M  V30 8779 C 830.845 6.58327 1.10278 0
M  V30 8780 H 830.115 0.560993 0.484116 0
M  V30 8781 H 832.762 1.80667 0.634965 0
M  V30 8782 H 831.067 2.25676 3.20277 0
M  V30 8783 H 832.764 2.61332 3.04149 0
M  V30 8784 H 829.354 3.71953 2.12952 0
M  V30 8785 H 833.538 4.63433 1.77605 0
M  V30 8786 H 828.794 5.97065 1.31618 0
M  V30 8787 H 832.968 6.89589 0.971586 0
M  V30 8788 H 830.595 7.56628 0.736027 0
M  V30 8789 N 832.17 -0.811516 1.35101 0
M  V30 8790 C 833.08 -1.95475 1.29718 0
M  V30 8791 C 834.096 -1.72813 0.202909 0
M  V30 8792 O 835.272 -1.96725 0.431414 0
M  V30 8793 C 832.337 -3.29975 1.06385 0
M  V30 8794 C 831.398 -3.65566 2.25077 0
M  V30 8795 C 830.631 -4.93648 2.02848 0
M  V30 8796 O 830.854 -5.617 0.992442 0
M  V30 8797 O 829.788 -5.27384 2.90087 0
M  V30 8798 H 833.614 -2.02961 2.25921 0
M  V30 8799 H 831.199 -0.948583 1.15422 0
M  V30 8800 H 833.081 -4.10506 0.951999 0
M  V30 8801 H 831.756 -3.2343 0.132294 0
M  V30 8802 H 830.663 -2.85432 2.41825 0
M  V30 8803 H 831.996 -3.7681 3.16662 0
M  V30 8804 N 833.648 -1.19017 -1.03309 0
M  V30 8805 C 834.888 -1.00129 -1.78195 0
M  V30 8806 C 835.252 0.460236 -1.86402 0
M  V30 8807 O 836.453 0.768802 -2.57571 0
M  V30 8808 C 834.724 -1.64703 -3.17187 0
M  V30 8809 S 836.283 -1.60695 -4.08317 0
M  V30 8810 H 833.101 -0.359395 -0.613479 0
M  V30 8811 H 835.703 -1.51293 -1.23818 0
M  V30 8812 H 834.407 -2.70283 -3.08829 0
M  V30 8813 H 833.938 -1.136 -3.76641 0
M  V30 8814 H 835.953 -0.628171 -4.92208 0
M  V30 8815 N 835.127 1.22348 -0.993418 0
M  V30 8816 C 836.373 1.91393 -0.67056 0
M  V30 8817 C 836.706 1.77163 0.795428 0
M  V30 8818 O 835.981 1.14084 1.57528 0
M  V30 8819 C 836.264 3.43589 -1.0779 0
M  V30 8820 C 836.117 3.66867 -2.60248 0
M  V30 8821 C 837.436 4.35545 -0.631527 0
M  V30 8822 H 834.555 0.695057 -0.24508 0
M  V30 8823 H 837.197 1.44213 -1.23703 0
M  V30 8824 H 835.347 3.83903 -0.595902 0
M  V30 8825 H 837.019 3.35954 -3.16121 0
M  V30 8826 H 835.262 3.1113 -3.02293 0
M  V30 8827 H 835.933 4.73457 -2.838 0
M  V30 8828 H 838.409 4.0275 -1.04554 0
M  V30 8829 H 837.285 5.40707 -0.944831 0
M  V30 8830 H 837.546 4.39618 0.467779 0
M  V30 8831 N 836.605 0.766683 1.37694 0
M  V30 8832 C 837.515 0.150158 2.34119 0
M  V30 8833 C 838.531 -0.685513 1.59927 0
M  V30 8834 O 839.707 -0.606616 1.92047 0
M  V30 8835 C 836.772 -0.722562 3.39087 0
M  V30 8836 C 835.833 0.128983 4.29106 0
M  V30 8837 C 835.066 -0.702178 5.29061 0
M  V30 8838 O 835.289 -1.93954 5.36412 0
M  V30 8839 O 834.223 -0.114056 6.01792 0
M  V30 8840 H 838.049 0.946829 2.88563 0
M  V30 8841 H 835.634 0.527765 1.39768 0
M  V30 8842 H 837.516 -1.22095 4.03325 0
M  V30 8843 H 836.191 -1.49751 2.86978 0
M  V30 8844 H 835.098 0.673612 3.67985 0
M  V30 8845 H 836.431 0.866892 4.84506 0
M  V30 8846 N 838.083 -1.48885 0.516809 0
M  V30 8847 C 839.323 -2.0439 -0.0202232 0
M  V30 8848 C 839.687 -1.38652 -1.32814 0
M  V30 8849 O 840.888 -1.84968 -1.95039 0
M  V30 8850 C 839.159 -3.57071 -0.153257 0
M  V30 8851 S 840.718 -4.34074 -0.642256 0
M  V30 8852 H 837.536 -0.710977 0.00576322 0
M  V30 8853 H 840.138 -1.82753 0.694376 0
M  V30 8854 H 838.842 -4.02454 0.803695 0
M  V30 8855 H 838.373 -3.83139 -0.892627 0
M  V30 8856 H 840.388 -4.58011 -1.90893 0
M  V30 8857 N 839.561 -0.251338 -1.55583 0
M  V30 8858 C 840.972 0.25098 -1.85005 0
M  V30 8859 C 841.323 1.57259 -1.17321 0
M  V30 8860 O 840.448 2.11603 -0.453136 0
M  V30 8861 C 841.043 0.462161 -3.35633 0
M  V30 8862 C 839.602 0.908737 -3.65266 0
M  V30 8863 C 838.749 -0.0115418 -2.77298 0
M  V30 8864 H 841.7 -0.473782 -1.51463 0
M  V30 8865 H 841.721 1.30415 -3.57452 0
M  V30 8866 H 841.233 -0.499886 -3.84867 0
M  V30 8867 H 839.334 1.8831 -3.21512 0
M  V30 8868 H 839.447 0.762526 -4.72993 0
M  V30 8869 H 837.811 0.500612 -2.49732 0
M  V30 8870 H 838.594 -0.969042 -3.29339 0
M  V30 8871 N 841.039 1.57585 0.0217189 0
M  V30 8872 C 842.316 1.80779 0.74687 0
M  V30 8873 C 842.696 0.851163 1.9318 0
M  V30 8874 O 842.044 -0.105039 2.28258 0
M  V30 8875 C 842.254 3.28696 1.17302 0
M  V30 8876 C 843.602 3.93871 1.58589 0
M  V30 8877 O 844.626 3.3289 1.2674 0
M  V30 8878 O 843.485 5.01254 2.1773 0
M  V30 8879 H 840.579 0.743666 0.361786 0
M  V30 8880 H 843.125 1.697 -0.00206785 0
M  V30 8881 H 841.897 3.89927 0.327453 0
M  V30 8882 H 841.52 3.44692 1.98174 0
M  V30 8883 N 842.517 -0.29412 1.54831 0
M  V30 8884 C 843.765 -1.02643 1.74094 0
M  V30 8885 C 844.086 -1.87563 0.533402 0
M  V30 8886 O 843.356 -1.9061 -0.452192 0
M  V30 8887 H 841.936 -0.381959 0.641963 0
M  V30 8888 H 844.598 -0.323444 1.92197 0
M  V30 8889 H 843.694 -1.67558 2.63307 0
M  V30 8890 N 843.995 -1.47404 -0.557645 0
M  V30 8891 C 844.905 -1.62491 -1.69216 0
M  V30 8892 C 845.921 -0.507764 -1.66426 0
M  V30 8893 O 847.097 -0.775241 -1.85882 0
M  V30 8894 C 844.162 -1.63511 -3.05721 0
M  V30 8895 C 843.223 -2.86648 -3.1958 0
M  V30 8896 C 842.456 -2.87609 -4.49574 0
M  V30 8897 O 842.679 -1.97799 -5.35006 0
M  V30 8898 O 841.613 -3.79465 -4.67215 0
M  V30 8899 H 845.439 -2.58487 -1.59431 0
M  V30 8900 H 843.024 -1.30485 -0.7276 0
M  V30 8901 H 844.906 -1.66863 -3.86956 0
M  V30 8902 H 843.581 -0.706812 -3.15889 0
M  V30 8903 H 842.488 -2.8884 -2.37744 0
M  V30 8904 H 843.821 -3.7877 -3.14316 0
M  V30 8905 N 845.473 0.80434 -1.35529 0
M  V30 8906 C 846.703 1.59052 -1.31856 0
M  V30 8907 C 847.111 1.88905 0.105549 0
M  V30 8908 O 846.454 1.49422 1.06858 0
M  V30 8909 C 846.516 2.94626 -2.06 0
M  V30 8910 C 846.18 2.87576 -3.55175 0
M  V30 8911 C 847.177 2.60856 -4.49722 0
M  V30 8912 C 844.862 3.06623 -3.97854 0
M  V30 8913 C 846.856 2.53262 -5.84925 0
M  V30 8914 C 844.543 2.98652 -5.33151 0
M  V30 8915 C 845.541 2.72007 -6.26499 0
M  V30 8916 O 845.229 2.64003 -7.59314 0
M  V30 8917 H 844.961 0.500486 -0.454411 0
M  V30 8918 H 847.515 1.0074 -1.78999 0
M  V30 8919 H 845.745 3.5493 -1.53498 0
M  V30 8920 H 847.434 3.55785 -1.95376 0
M  V30 8921 H 848.2 2.45858 -4.18066 0
M  V30 8922 H 844.079 3.26372 -3.2558 0
M  V30 8923 H 847.623 2.32386 -6.57756 0
M  V30 8924 H 843.52 3.13208 -5.64421 0
M  V30 8925 H 844.288 2.79595 -7.69265 0
M  V30 8926 N 846.951 1.19563 1.02676 0
M  V30 8927 C 848.176 1.02556 1.80269 0
M  V30 8928 C 848.601 -0.421056 1.83327 0
M  V30 8929 O 847.959 -1.30279 1.26084 0
M  V30 8930 C 848.007 1.60165 3.23078 0
M  V30 8931 O 847.111 0.832404 4.03912 0
M  V30 8932 H 846.452 0.362354 0.556413 0
M  V30 8933 H 848.982 1.58633 1.29216 0
M  V30 8934 H 848.992 1.6347 3.7382 0
M  V30 8935 H 847.667 2.65454 3.20167 0
M  V30 8936 H 846.244 0.872768 3.62543 0
M  V30 8937 N 848.429 -1.21819 0.999893 0
M  V30 8938 C 849.706 -1.86318 0.595384 0
M  V30 8939 C 850.086 -1.8965 -0.927143 0
M  V30 8940 O 849.434 -1.3921 -1.81199 0
M  V30 8941 C 849.644 -3.26837 1.22387 0
M  V30 8942 C 850.992 -4.03272 1.32878 0
M  V30 8943 O 852.016 -3.36129 1.1788 0
M  V30 8944 O 850.875 -5.23477 1.56952 0
M  V30 8945 H 847.969 -0.801638 0.203238 0
M  V30 8946 H 850.515 -1.29542 1.09622 0
M  V30 8947 H 849.287 -3.19084 2.26497 0
M  V30 8948 H 848.91 -3.91226 0.709069 0
M  V30 8949 N 849.908 -0.773975 -1.37286 0
M  V30 8950 C 850.818 -0.162571 -2.34036 0
M  V30 8951 C 851.834 0.677022 -1.60289 0
M  V30 8952 O 853.01 0.596423 -1.92366 0
M  V30 8953 C 850.075 0.70457 -3.39465 0
M  V30 8954 C 849.136 -0.151738 -4.29032 0
M  V30 8955 C 848.369 0.674111 -5.29426 0
M  V30 8956 O 848.592 1.91107 -5.37433 0
M  V30 8957 O 847.526 0.0821398 -6.01844 0
M  V30 8958 H 851.352 -0.962119 -2.88057 0
M  V30 8959 H 848.937 -0.53517 -1.39486 0
M  V30 8960 H 850.819 1.19954 -4.03967 0
M  V30 8961 H 849.494 1.48227 -2.87768 0
M  V30 8962 H 848.401 -0.693118 -3.67623 0
M  V30 8963 H 849.734 -0.892575 -4.84039 0
M  V30 8964 N 851.386 1.48609 -0.524698 0
M  V30 8965 C 852.614 2.06899 0.00742946 0
M  V30 8966 C 853.029 1.38196 1.28637 0
M  V30 8967 O 852.386 0.467771 1.76403 0
M  V30 8968 C 852.437 3.60699 0.240548 0
M  V30 8969 O 852.158 4.26821 -0.987715 0
M  V30 8970 C 853.659 4.35769 0.813652 0
M  V30 8971 H 850.879 0.670278 -0.0311294 0
M  V30 8972 H 853.423 1.91071 -0.728832 0
M  V30 8973 H 851.578 3.76149 0.926845 0
M  V30 8974 H 851.992 5.18889 -0.765175 0
M  V30 8975 H 853.466 5.44174 0.926219 0
M  V30 8976 H 853.943 3.9984 1.81728 0
M  V30 8977 H 854.549 4.24983 0.164086 0
M  V30 8978 N 852.864 0.259585 1.55447 0
M  V30 8979 C 854.141 -0.412595 1.91199 0
M  V30 8980 C 854.521 -1.74909 1.18194 0
M  V30 8981 O 853.869 -2.26474 0.303603 0
M  V30 8982 C 854.079 -0.568195 3.44344 0
M  V30 8983 C 855.427 -0.858253 4.15836 0
M  V30 8984 O 856.451 -0.653588 3.50152 0
M  V30 8985 O 855.31 -1.24874 5.32042 0
M  V30 8986 H 852.404 -0.223403 0.796254 0
M  V30 8987 H 854.95 0.30459 1.66944 0
M  V30 8988 H 853.722 0.372989 3.89518 0
M  V30 8989 H 853.345 -1.33544 3.74502 0
M  V30 8990 N 854.342 -1.57594 -0.0133615 0
M  V30 8991 C 855.305 -2.06534 -0.993799 0
M  V30 8992 C 856.305 -0.972267 -1.28077 0
M  V30 8993 O 857.495 -1.23537 -1.22818 0
M  V30 8994 C 854.627 -2.49554 -2.3224 0
M  V30 8995 H 855.82 -2.94419 -0.570741 0
M  V30 8996 H 853.373 -1.54113 -0.260546 0
M  V30 8997 H 854.108 -1.64872 -2.79263 0
M  V30 8998 H 853.893 -3.29371 -2.12737 0
M  V30 8999 H 855.383 -2.8779 -3.026 0
M  V30 9000 N 855.82 0.285905 -1.54985 0
M  V30 9001 C 857.045 1.04207 -1.7932 0
M  V30 9002 C 857.47 1.79622 -0.558343 0
M  V30 9003 O 856.828 1.74506 0.491661 0
M  V30 9004 C 856.876 1.98648 -3.0095 0
M  V30 9005 O 855.98 3.07207 -2.75132 0
M  V30 9006 H 855.321 0.298596 -0.593074 0
M  V30 9007 H 857.851 0.318736 -2.02102 0
M  V30 9008 H 857.861 2.4084 -3.29333 0
M  V30 9009 H 856.536 1.43167 -3.90482 0
M  V30 9010 H 855.113 2.69423 -2.57809 0
M  V30 9011 N 857.298 1.47698 0.54982 0
M  V30 9012 C 858.261 1.60282 1.63837 0
M  V30 9013 C 859.261 0.477394 1.5355 0
M  V30 9014 O 860.451 0.742665 1.57576 0
M  V30 9015 C 857.583 1.55431 3.03404 0
M  V30 9016 H 858.776 2.57325 1.54026 0
M  V30 9017 H 856.329 1.35999 0.770329 0
M  V30 9018 H 857.064 0.597912 3.1874 0
M  V30 9019 H 856.849 2.37116 3.12279 0
M  V30 9020 H 858.339 1.6739 3.82584 0
M  V30 9021 N 858.776 -0.797141 1.35954 0
M  V30 9022 C 860.016 -1.56795 1.31128 0
M  V30 9023 C 860.38 -1.91683 -0.110364 0
M  V30 9024 O 861.581 -2.67305 -0.283093 0
M  V30 9025 C 859.852 -2.81577 2.20111 0
M  V30 9026 S 861.411 -3.71895 2.32894 0
M  V30 9027 H 858.229 -0.53711 0.465869 0
M  V30 9028 H 860.831 -0.939522 1.71445 0
M  V30 9029 H 859.535 -2.53986 3.22365 0
M  V30 9030 H 859.066 -3.49399 1.80786 0
M  V30 9031 H 861.081 -4.72322 1.52073 0
M  V30 9032 N 860.254 -1.20106 -1.0204 0
M  V30 9033 C 861.202 -0.943231 -2.12617 0
M  V30 9034 C 862.196 0.104042 -1.6908 0
M  V30 9035 O 863.402 -0.0459732 -1.79941 0
M  V30 9036 H 859.777 -0.28767 -0.694802 0
M  V30 9037 H 861.748 -1.88221 -2.3155 0
M  V30 9038 C 860.497 -0.50771 -3.43973 0
M  V30 9039 H 859.82 -1.30514 -3.77897 0
M  V30 9040 H 861.26 -0.366486 -4.22413 0
M  V30 9041 C 859.719 0.77939 -3.27761 0
M  V30 9042 O 860.249 1.83876 -3.57145 0
M  V30 9043 N 858.455 0.739931 -2.81022 0
M  V30 9044 H 858.002 -0.122426 -2.57309 0
M  V30 9045 H 857.96 1.60147 -2.70556 0
M  V30 9046 N 861.732 1.21287 -1.00634 0
M  V30 9047 C 862.679 2.23705 -0.567876 0
M  V30 9048 C 863.649 1.61043 0.406753 0
M  V30 9049 O 864.834 1.88289 0.308499 0
M  V30 9050 C 861.974 3.44961 0.097996 0
M  V30 9051 C 861.087 4.22091 -0.919972 0
M  V30 9052 C 860.222 5.30718 -0.226222 0
M  V30 9053 C 859.261 5.99581 -1.23165 0
M  V30 9054 N 858.398 6.99821 -0.565278 0
M  V30 9055 H 863.238 2.60571 -1.44592 0
M  V30 9056 H 860.775 1.28049 -0.724006 0
M  V30 9057 H 862.733 4.1418 0.501097 0
M  V30 9058 H 861.363 3.08818 0.939744 0
M  V30 9059 H 860.415 3.52038 -1.44131 0
M  V30 9060 H 861.727 4.69476 -1.68505 0
M  V30 9061 H 860.881 6.06253 0.232917 0
M  V30 9062 H 859.62 4.84343 0.571247 0
M  V30 9063 H 858.625 5.22816 -1.70128 0
M  V30 9064 H 859.85 6.48042 -2.03022 0
M  V30 9065 H 857.796 6.55656 0.212508 0
M  V30 9066 H 857.713 7.4528 -1.26858 0
M  V30 9067 H 858.981 7.79393 -0.129389 0
M  V30 9068 N 863.21 0.781244 1.36873 0
M  V30 9069 C 864.45 0.355185 2.0129 0
M  V30 9070 C 864.814 -1.05115 1.6067 0
M  V30 9071 O 866.015 -1.57785 2.17618 0
M  V30 9072 C 864.286 0.504587 3.5382 0
M  V30 9073 S 865.845 0.165196 4.38489 0
M  V30 9074 H 862.663 0.136133 0.697846 0
M  V30 9075 H 865.265 1.01794 1.66908 0
M  V30 9076 H 863.969 1.52857 3.80871 0
M  V30 9077 H 863.5 -0.174392 3.93013 0
M  V30 9078 H 865.515 -1.03605 4.85263 0
M  V30 9079 N 864.689 -1.48329 0.532571 0
M  V30 9080 C 866.1 -1.86469 0.0927749 0
M  V30 9081 C 866.451 -1.44186 -1.3306 0
M  V30 9082 O 865.576 -0.833741 -1.99694 0
M  V30 9083 C 866.171 -3.38414 0.161588 0
M  V30 9084 C 864.73 -3.75739 -0.223028 0
M  V30 9085 C 863.877 -2.72377 0.520199 0
M  V30 9086 H 866.828 -1.40197 0.743678 0
M  V30 9087 H 866.849 -3.75314 -0.626059 0
M  V30 9088 H 866.361 -3.69159 1.19765 0
M  V30 9089 H 864.462 -3.50608 -1.26113 0
M  V30 9090 H 864.575 -4.78954 0.118385 0
M  V30 9091 H 862.939 -2.54678 -0.0338425 0
M  V30 9092 H 863.722 -3.05965 1.55694 0
M  V30 9093 N 866.167 -0.267825 -1.55308 0
M  V30 9094 C 867.444 0.402449 -1.91415 0
M  V30 9095 C 867.824 1.7428 -1.1912 0
M  V30 9096 O 867.172 2.2631 -0.315609 0
M  V30 9097 C 867.382 0.549926 -3.4464 0
M  V30 9098 C 868.73 0.836188 -4.16285 0
M  V30 9099 O 869.754 0.635009 -3.50494 0
M  V30 9100 O 868.613 1.22051 -5.32697 0
M  V30 9101 H 865.707 0.219177 -0.797427 0
M  V30 9102 H 868.253 -0.313439 -1.6678 0
M  V30 9103 H 867.025 -0.393641 -3.89315 0
M  V30 9104 H 866.648 1.31556 -3.75205 0
M  V30 9105 N 867.645 1.57599 0.00500368 0
M  V30 9106 C 868.922 1.81561 0.727654 0
M  V30 9107 C 869.302 0.871604 1.92266 0
M  V30 9108 O 868.65 -0.0808232 2.28357 0
M  V30 9109 C 868.86 3.29922 1.13809 0
M  V30 9110 C 870.208 3.95531 1.54403 0
M  V30 9111 O 871.232 3.34215 1.23202 0
M  V30 9112 O 870.091 5.03535 2.12402 0
M  V30 9113 H 867.185 0.747462 0.353878 0
M  V30 9114 H 869.731 1.69688 -0.0200667 0
M  V30 9115 H 868.503 3.90253 0.286078 0
M  V30 9116 H 868.126 3.46775 1.94507 0
M  V30 9117 N 869.123 -0.277682 1.55134 0
M  V30 9118 C 870.37 -1.0099 1.7552 0
M  V30 9119 C 870.698 -1.86452 0.553712 0
M  V30 9120 O 869.953 -1.90122 -0.463896 0
M  V30 9121 C 870.252 -1.92599 3.01065 0
M  V30 9122 C 869.918 -1.22926 4.3382 0
M  V30 9123 C 868.58 -1.03659 4.69902 0
M  V30 9124 C 870.932 -0.733071 5.16019 0
M  V30 9125 C 868.26 -0.334933 5.85743 0
M  V30 9126 C 870.612 -0.0450319 6.32584 0
M  V30 9127 C 869.276 0.159393 6.6731 0
M  V30 9128 H 868.546 -0.36955 0.642273 0
M  V30 9129 H 871.193 -0.282611 1.89403 0
M  V30 9130 H 869.498 -2.71934 2.82062 0
M  V30 9131 H 871.195 -2.49367 3.14034 0
M  V30 9132 H 867.785 -1.38933 4.05457 0
M  V30 9133 H 871.969 -0.869565 4.88623 0
M  V30 9134 H 867.225 -0.165783 6.11175 0
M  V30 9135 H 871.399 0.34723 6.95534 0
M  V30 9136 H 869.026 0.70507 7.56923 0
M  V30 9137 N 870.601 -1.47988 -0.541979 0
M  V30 9138 C 871.847 -1.56604 -1.29795 0
M  V30 9139 C 872.202 -0.231728 -1.90999 0
M  V30 9140 O 871.495 0.764203 -1.757 0
M  V30 9141 C 871.689 -2.63189 -2.41798 0
M  V30 9142 C 871.518 -4.06855 -1.9157 0
M  V30 9143 C 870.288 -4.74132 -1.74719 0
M  V30 9144 C 872.486 -4.934 -1.45123 0
M  V30 9145 N 870.468 -6.02258 -1.18991 0
M  V30 9146 C 871.839 -6.11675 -1.01263 0
M  V30 9147 C 873.894 -4.7972 -1.33315 0
M  V30 9148 C 872.597 -7.17778 -0.467663 0
M  V30 9149 C 874.623 -5.85934 -0.802192 0
M  V30 9150 C 873.985 -7.03409 -0.373595 0
M  V30 9151 H 870.084 -0.627677 -0.466418 0
M  V30 9152 H 872.668 -1.84812 -0.612576 0
M  V30 9153 H 870.839 -2.36823 -3.07846 0
M  V30 9154 H 872.571 -2.6156 -3.08818 0
M  V30 9155 H 869.326 -4.30276 -1.97887 0
M  V30 9156 H 869.75 -6.70558 -0.931715 0
M  V30 9157 H 874.392 -3.89249 -1.6506 0
M  V30 9158 H 872.11 -8.07982 -0.137874 0
M  V30 9159 H 875.696 -5.774 -0.714171 0
M  V30 9160 H 874.576 -7.84194 0.0308796 0
M  V30 9161 N 872.079 0.78992 -1.36375 0
M  V30 9162 C 873.304 1.58389 -1.33895 0
M  V30 9163 C 873.729 1.8794 0.0774934 0
M  V30 9164 O 873.087 1.4785 1.0493 0
M  V30 9165 C 873.135 2.88201 -2.16732 0
M  V30 9166 O 872.239 3.81778 -1.55946 0
M  V30 9167 H 871.58 0.480471 -0.458305 0
M  V30 9168 H 874.11 0.979119 -1.79651 0
M  V30 9169 H 874.12 3.37475 -2.29292 0
M  V30 9170 H 872.795 2.66019 -3.19698 0
M  V30 9171 H 871.372 3.40371 -1.52323 0
M  V30 9172 N 873.557 1.20646 1.01402 0
M  V30 9173 C 874.505 0.954493 2.12114 0
M  V30 9174 C 875.499 -0.0950737 1.69133 0
M  V30 9175 O 876.705 0.0555153 1.79914 0
M  V30 9176 H 873.08 0.29135 0.693267 0
M  V30 9177 H 875.051 1.89447 2.30548 0
M  V30 9178 C 873.8 0.525944 3.43699 0
M  V30 9179 H 873.123 1.32516 3.772 0
M  V30 9180 H 874.563 0.388883 4.22213 0
M  V30 9181 C 873.022 -0.761997 3.28169 0
M  V30 9182 O 873.552 -1.81979 3.58115 0
M  V30 9183 N 871.758 -0.725017 2.8141 0
M  V30 9184 H 871.305 0.13607 2.5724 0
M  V30 9185 H 871.263 -1.5871 2.71401 0
M  V30 9186 N 875.035 -1.20752 1.01276 0
M  V30 9187 C 875.945 -2.27079 0.589277 0
M  V30 9188 C 876.961 -1.6999 -0.371389 0
M  V30 9189 O 878.137 -2.00044 -0.233294 0
M  V30 9190 C 875.202 -3.4663 -0.0696715 0
M  V30 9191 C 874.263 -4.18962 0.936454 0
M  V30 9192 C 873.496 -5.32806 0.308856 0
M  V30 9193 O 873.719 -5.63376 -0.8924 0
M  V30 9194 O 872.653 -5.93131 1.02367 0
M  V30 9195 H 876.479 -2.6551 1.47438 0
M  V30 9196 H 874.064 -1.27297 0.782045 0
M  V30 9197 H 875.946 -4.19119 -0.437873 0
M  V30 9198 H 874.621 -3.10082 -0.929029 0
M  V30 9199 H 873.528 -3.48661 1.35595 0
M  V30 9200 H 874.861 -4.59441 1.76565 0
M  V30 9201 N 876.513 -0.788492 -1.36457 0
M  V30 9202 C 877.461 -0.174192 -2.31947 0
M  V30 9203 C 878.455 0.665974 -1.5576 0
M  V30 9204 O 879.661 0.561161 -1.71029 0
M  V30 9205 H 876.036 -0.0375538 -0.751062 0
M  V30 9206 H 878.007 -0.995011 -2.81322 0
M  V30 9207 C 876.756 0.677276 -3.4104 0
M  V30 9208 H 876.079 0.0401418 -3.9978 0
M  V30 9209 H 877.519 1.07379 -4.10178 0
M  V30 9210 C 875.978 1.83512 -2.82533 0
M  V30 9211 O 876.508 2.93164 -2.74623 0
M  V30 9212 N 874.714 1.64095 -2.39836 0
M  V30 9213 H 874.261 0.749046 -2.46469 0
M  V30 9214 H 874.219 2.41726 -2.01037 0
M  V30 9215 N 877.991 1.48044 -0.54043 0
M  V30 9216 C 878.941 2.26768 0.236657 0
M  V30 9217 C 879.925 1.33341 0.900505 0
M  V30 9218 O 881.117 1.57809 0.801584 0
M  V30 9219 C 878.246 3.18685 1.27651 0
M  V30 9220 C 877.332 4.19589 0.616923 0
M  V30 9221 N 877.723 5.04889 -0.303377 0
M  V30 9222 C 876.021 4.37375 0.872879 0
M  V30 9223 C 876.722 5.77654 -0.684905 0
M  V30 9224 N 875.698 5.43583 -0.0435728 0
M  V30 9225 H 879.5 2.90098 -0.471183 0
M  V30 9226 H 877.014 1.58378 -0.359183 0
M  V30 9227 H 879.011 3.73752 1.84702 0
M  V30 9228 H 877.671 2.56911 1.98562 0
M  V30 9229 H 878.682 5.13461 -0.676591 0
M  V30 9230 H 875.359 3.86784 1.57177 0
M  V30 9231 H 876.749 6.56285 -1.44015 0
M  V30 9232 N 879.47 0.276058 1.55163 0
M  V30 9233 C 880.698 -0.343772 2.04024 0
M  V30 9234 C 881.113 -1.49397 1.15438 0
M  V30 9235 O 880.47 -1.81662 0.174692 0
M  V30 9236 C 880.521 -0.823885 3.51986 0
M  V30 9237 O 880.242 0.280507 4.37201 0
M  V30 9238 C 881.743 -1.51143 4.16738 0
M  V30 9239 H 878.963 -0.07828 0.666418 0
M  V30 9240 H 881.507 0.408427 2.0038 0
M  V30 9241 H 879.662 -1.52617 3.56071 0
M  V30 9242 H 880.076 -0.0887831 5.24425 0
M  V30 9243 H 881.55 -1.79878 5.2187 0
M  V30 9244 H 882.027 -2.44327 3.64967 0
M  V30 9245 H 882.633 -0.852975 4.16659 0
M  V30 9246 N 880.948 -1.576 0.00335426 0
M  V30 9247 C 882.173 -1.95398 -0.695311 0
M  V30 9248 C 882.598 -0.878476 -1.66326 0
M  V30 9249 O 881.956 0.163086 -1.80565 0
M  V30 9250 C 882.004 -3.32293 -1.40049 0
M  V30 9251 O 881.108 -3.26834 -2.51502 0
M  V30 9252 H 880.449 -0.637796 -0.184694 0
M  V30 9253 H 882.979 -2.04519 0.057543 0
M  V30 9254 H 882.989 -3.67936 -1.76316 0
M  V30 9255 H 881.664 -4.10123 -0.690803 0
M  V30 9256 H 880.241 -3.02872 -2.17539 0
M  V30 9257 N 882.426 0.269451 -1.5528 0
M  V30 9258 C 883.666 1.00819 -1.77806 0
M  V30 9259 C 884.03 1.83369 -0.569198 0
M  V30 9260 O 885.231 2.60244 -0.672783 0
M  V30 9261 C 883.502 1.86447 -3.04913 0
M  V30 9262 S 885.061 2.66538 -3.48573 0
M  V30 9263 H 881.879 0.339508 -0.624704 0
M  V30 9264 H 884.481 0.278256 -1.9351 0
M  V30 9265 H 883.185 1.24733 -3.90986 0
M  V30 9266 H 882.716 2.63755 -2.91885 0
M  V30 9267 H 884.731 3.88938 -3.08126 0
M  V30 9268 N 883.904 1.48273 0.534124 0
M  V30 9269 C 885.153 1.55334 1.28663 0
M  V30 9270 C 885.466 0.230345 1.94239 0
M  V30 9271 O 886.672 0.179161 2.70908 0
M  V30 9272 C 885.128 2.73927 2.33435 0
M  V30 9273 C 884.736 4.12852 1.73947 0
M  V30 9274 C 886.48 2.90298 3.09722 0
M  V30 9275 C 884.387 5.22711 2.76636 0
M  V30 9276 H 883.317 0.578262 0.483869 0
M  V30 9277 H 885.968 1.74598 0.564602 0
M  V30 9278 H 884.35 2.48089 3.08655 0
M  V30 9279 H 885.524 4.48691 1.04944 0
M  V30 9280 H 883.839 4.01562 1.10167 0
M  V30 9281 H 886.436 3.69542 3.86449 0
M  V30 9282 H 886.779 1.99598 3.6533 0
M  V30 9283 H 887.312 3.16017 2.41616 0
M  V30 9284 H 884.051 6.15362 2.25852 0
M  V30 9285 H 883.571 4.91364 3.43979 0
M  V30 9286 H 885.25 5.50648 3.39699 0
M  V30 9287 N 885.382 -0.782676 1.36792 0
M  V30 9288 C 886.345 -1.8772 1.31507 0
M  V30 9289 C 887.345 -1.59269 0.221349 0
M  V30 9290 O 888.535 -1.67555 0.476544 0
M  V30 9291 C 885.667 -3.24641 1.04025 0
M  V30 9292 H 886.86 -1.9382 2.28853 0
M  V30 9293 H 884.413 -0.981226 1.21662 0
M  V30 9294 H 885.148 -3.24221 0.0716439 0
M  V30 9295 H 884.933 -3.46681 1.8318 0
M  V30 9296 H 886.423 -4.04711 1.02949 0
M  V30 9297 N 886.86 -1.21182 -1.00761 0
M  V30 9298 C 887.807 -0.968741 -2.09485 0
M  V30 9299 C 888.777 0.104325 -1.65772 0
M  V30 9300 O 889.962 -0.0422587 -1.90753 0
M  V30 9301 C 887.102 -0.536686 -3.40901 0
M  V30 9302 C 886.215 -1.6789 -3.98041 0
M  V30 9303 C 885.35 -1.19627 -5.17555 0
M  V30 9304 C 884.389 -2.31099 -5.66798 0
M  V30 9305 N 883.526 -1.83988 -6.77564 0
M  V30 9306 H 888.366 -1.89952 -2.29613 0
M  V30 9307 H 885.903 -0.946688 -1.12589 0
M  V30 9308 H 887.861 -0.26745 -4.16342 0
M  V30 9309 H 886.491 0.357092 -3.20819 0
M  V30 9310 H 885.543 -2.06284 -3.19611 0
M  V30 9311 H 886.855 -2.51794 -4.30582 0
M  V30 9312 H 886.009 -0.883539 -6.00232 0
M  V30 9313 H 884.748 -0.327244 -4.86601 0
M  V30 9314 H 883.753 -2.63178 -4.82719 0
M  V30 9315 H 884.978 -3.18493 -5.99782 0
M  V30 9316 H 882.924 -0.994257 -6.48422 0
M  V30 9317 H 882.841 -2.61466 -7.09346 0
M  V30 9318 H 884.109 -1.55741 -7.63783 0
M  V30 9319 N 888.338 1.20213 -1.01915 0
M  V30 9320 C 889.248 2.26763 -0.601311 0
M  V30 9321 C 890.264 1.70185 0.362369 0
M  V30 9322 O 891.44 2.00165 0.222682 0
M  V30 9323 C 888.505 3.46662 0.0512879 0
M  V30 9324 C 887.566 4.18459 -0.958659 0
M  V30 9325 C 886.799 5.32634 -0.337107 0
M  V30 9326 O 887.022 5.63841 0.86251 0
M  V30 9327 O 885.956 5.9258 -1.05511 0
M  V30 9328 H 889.782 2.64725 -1.48844 0
M  V30 9329 H 887.367 1.2688 -0.788784 0
M  V30 9330 H 889.249 4.19345 0.41564 0
M  V30 9331 H 887.924 3.1057 0.912572 0
M  V30 9332 H 886.831 3.47937 -1.37442 0
M  V30 9333 H 888.164 4.58498 -1.78999 0
M  V30 9334 N 889.816 0.795718 1.36037 0
M  V30 9335 C 891.065 0.367575 1.98322 0
M  V30 9336 C 891.378 -1.06823 1.63854 0
M  V30 9337 O 892.584 -1.59895 2.19421 0
M  V30 9338 C 891.04 0.606272 3.54757 0
M  V30 9339 C 890.648 2.0539 3.98144 0
M  V30 9340 C 892.392 0.242947 4.23804 0
M  V30 9341 C 890.299 2.23893 5.47381 0
M  V30 9342 H 889.229 0.133699 0.742052 0
M  V30 9343 H 891.88 0.978242 1.5525 0
M  V30 9344 H 890.262 -0.0741957 3.9593 0
M  V30 9345 H 891.436 2.77129 3.68152 0
M  V30 9346 H 889.751 2.37607 3.41953 0
M  V30 9347 H 892.348 0.359382 5.33491 0
M  V30 9348 H 892.691 -0.809661 4.08351 0
M  V30 9349 H 893.224 0.876899 3.88015 0
M  V30 9350 H 889.963 3.27559 5.6779 0
M  V30 9351 H 889.483 1.56666 5.78978 0
M  V30 9352 H 891.162 2.04914 6.13693 0
M  V30 9353 N 891.294 -1.47756 0.548274 0
M  V30 9354 C 892.204 -2.33678 -0.207773 0
M  V30 9355 C 893.22 -1.47636 -0.920843 0
M  V30 9356 O 894.396 -1.80583 -0.89173 0
M  V30 9357 C 891.461 -3.24147 -1.23003 0
M  V30 9358 C 890.522 -4.26073 -0.52535 0
M  V30 9359 C 889.755 -5.12219 -1.4989 0
M  V30 9360 O 889.978 -5.0066 -2.73305 0
M  V30 9361 O 888.912 -5.93051 -1.02828 0
M  V30 9362 H 892.738 -2.99609 0.496794 0
M  V30 9363 H 890.323 -1.4617 0.308982 0
M  V30 9364 H 892.205 -3.80055 -1.82034 0
M  V30 9365 H 890.88 -2.60855 -1.91668 0
M  V30 9366 H 889.787 -3.7395 0.105927 0
M  V30 9367 H 891.12 -4.92054 0.119686 0
M  V30 9368 N 892.772 -0.284283 -1.55015 0
M  V30 9369 C 894.019 0.329864 -1.99795 0
M  V30 9370 C 894.347 1.55171 -1.1727 0
M  V30 9371 O 893.602 1.94312 -0.232667 0
M  V30 9372 C 893.901 0.747219 -3.49502 0
M  V30 9373 C 893.567 -0.37101 -4.49371 0
M  V30 9374 C 892.229 -0.678034 -4.76399 0
M  V30 9375 C 894.581 -1.12406 -5.08935 0
M  V30 9376 C 891.909 -1.74152 -5.60257 0
M  V30 9377 C 894.261 -2.17734 -5.93948 0
M  V30 9378 C 892.925 -2.49061 -6.19294 0
M  V30 9379 H 892.195 0.120706 -0.731103 0
M  V30 9380 H 894.842 -0.399904 -1.87278 0
M  V30 9381 H 893.147 1.55681 -3.59542 0
M  V30 9382 H 894.844 1.2333 -3.81563 0
M  V30 9383 H 891.434 -0.1216 -4.28427 0
M  V30 9384 H 895.618 -0.900119 -4.88069 0
M  V30 9385 H 890.874 -1.98915 -5.78137 0
M  V30 9386 H 895.048 -2.76553 -6.39133 0
M  V30 9387 H 892.675 -3.31602 -6.84064 0
M  V30 9388 N 894.251 1.57596 -0.0117121 0
M  V30 9389 C 895.181 2.12188 0.9746 0
M  V30 9390 C 896.162 1.03379 1.35081 0
M  V30 9391 O 897.347 1.31123 1.4325 0
M  V30 9392 C 894.477 2.63477 2.26268 0
M  V30 9393 C 893.431 3.76917 2.02774 0
M  V30 9394 C 892.757 4.14566 3.37697 0
M  V30 9395 C 894.057 5.03715 1.38089 0
M  V30 9396 H 895.751 2.9485 0.520007 0
M  V30 9397 H 893.297 1.41836 0.248685 0
M  V30 9398 H 895.25 3.00299 2.95633 0
M  V30 9399 H 893.974 1.77953 2.73862 0
M  V30 9400 H 892.633 3.40507 1.35832 0
M  V30 9401 H 892.281 3.26048 3.83016 0
M  V30 9402 H 891.981 4.91 3.22789 0
M  V30 9403 H 893.505 4.53956 4.08358 0
M  V30 9404 H 894.919 5.38233 1.97428 0
M  V30 9405 H 893.316 5.85032 1.33634 0
M  V30 9406 H 894.386 4.83624 0.351575 0
M  V30 9407 N 895.729 -0.261212 1.5542 0
M  V30 9408 C 896.954 -1.01341 1.80955 0
M  V30 9409 C 897.379 -1.78711 0.586849 0
M  V30 9410 O 896.737 -1.75266 -0.463837 0
M  V30 9411 C 896.785 -1.93835 3.04073 0
M  V30 9412 O 895.889 -3.02791 2.79985 0
M  V30 9413 H 895.23 -0.289123 0.597749 0
M  V30 9414 H 897.76 -0.286543 2.02584 0
M  V30 9415 H 897.77 -2.3557 3.33123 0
M  V30 9416 H 896.445 -1.36936 3.9271 0
M  V30 9417 H 895.022 -2.65287 2.62063 0
M  V30 9418 N 897.207 -1.48554 -0.526253 0
M  V30 9419 C 898.453 -1.57972 -1.28127 0
M  V30 9420 C 898.808 -0.251973 -1.90743 0
M  V30 9421 O 898.101 0.745524 -1.76501 0
M  V30 9422 C 898.295 -2.65739 -2.38993 0
M  V30 9423 C 898.124 -4.08864 -1.87244 0
M  V30 9424 C 896.894 -4.75959 -1.6968 0
M  V30 9425 C 899.092 -4.94912 -1.39882 0
M  V30 9426 N 897.074 -6.03486 -1.12596 0
M  V30 9427 C 898.445 -6.12714 -0.947696 0
M  V30 9428 C 900.5 -4.81107 -1.2822 0
M  V30 9429 C 899.203 -7.18234 -0.391507 0
M  V30 9430 C 901.229 -5.86752 -0.740001 0
M  V30 9431 C 900.591 -7.03765 -0.298968 0
M  V30 9432 H 896.69 -0.632588 -0.459735 0
M  V30 9433 H 899.274 -1.85452 -0.59294 0
M  V30 9434 H 897.445 -2.40075 -3.05317 0
M  V30 9435 H 899.177 -2.64821 -3.06026 0
M  V30 9436 H 895.932 -4.32351 -1.93312 0
M  V30 9437 H 896.356 -6.71509 -0.860541 0
M  V30 9438 H 900.998 -3.90978 -1.60922 0
M  V30 9439 H 898.716 -8.08083 -0.0521685 0
M  V30 9440 H 902.302 -5.78125 -0.652889 0
M  V30 9441 H 901.182 -7.84117 0.114052 0
M  V30 9442 N 898.685 0.775411 -1.37205 0
M  V30 9443 C 899.913 1.56446 -1.35397 0
M  V30 9444 C 900.328 1.887 0.0615437 0
M  V30 9445 O 899.685 1.51178 1.02233 0
M  V30 9446 C 899.736 2.87697 -2.18889 0
M  V30 9447 O 899.457 2.56828 -3.54924 0
M  V30 9448 C 900.958 3.81944 -2.25019 0
M  V30 9449 H 898.178 0.484792 -0.463916 0
M  V30 9450 H 900.722 0.961346 -1.80495 0
M  V30 9451 H 898.877 3.44442 -1.7731 0
M  V30 9452 H 899.291 3.40851 -3.98649 0
M  V30 9453 H 900.765 4.71055 -2.87769 0
M  V30 9454 H 901.242 4.20811 -1.25757 0
M  V30 9455 H 901.848 3.3113 -2.66895 0
M  V30 9456 N 900.163 1.21714 1.00117 0
M  V30 9457 C 901.073 0.99597 2.12409 0
M  V30 9458 C 902.089 -0.0531431 1.73919 0
M  V30 9459 O 903.265 0.137757 2.00928 0
M  V30 9460 C 900.33 0.567593 3.42022 0
M  V30 9461 C 899.391 1.68936 3.94663 0
M  V30 9462 C 898.624 1.28133 5.1809 0
M  V30 9463 O 898.847 0.156574 5.70185 0
M  V30 9464 O 897.781 2.0947 5.64275 0
M  V30 9465 H 901.607 1.93657 2.33946 0
M  V30 9466 H 899.192 1.00236 1.10784 0
M  V30 9467 H 901.074 0.338664 4.20037 0
M  V30 9468 H 899.749 -0.34424 3.21864 0
M  V30 9469 H 898.656 1.97274 3.17858 0
M  V30 9470 H 899.989 2.57876 4.19238 0
M  V30 9471 N 901.641 -1.19671 1.02551 0
M  V30 9472 C 903.052 -1.70964 0.750208 0
M  V30 9473 C 903.403 -1.82095 -0.730461 0
M  V30 9474 O 902.528 -1.48974 -1.56958 0
M  V30 9475 C 903.123 -3.10516 1.35518 0
M  V30 9476 C 901.682 -3.59083 1.12854 0
M  V30 9477 C 900.829 -2.36041 1.45534 0
M  V30 9478 H 903.78 -1.04559 1.19386 0
M  V30 9479 H 903.801 -3.73028 0.750378 0
M  V30 9480 H 903.313 -3.02383 2.43282 0
M  V30 9481 H 901.414 -3.72536 0.0689627 0
M  V30 9482 H 901.527 -4.43395 1.81488 0
M  V30 9483 H 899.891 -2.39214 0.87458 0
M  V30 9484 H 900.674 -2.3054 2.54374 0
M  V30 9485 N 903.119 -0.802921 -1.35613 0
M  V30 9486 C 904.366 -0.381576 -1.98872 0
M  V30 9487 C 904.694 1.0503 -1.63704 0
M  V30 9488 O 903.949 1.7427 -0.890418 0
M  V30 9489 C 904.248 -0.507806 -3.53774 0
M  V30 9490 C 903.914 -1.90245 -4.088 0
M  V30 9491 C 902.576 -2.28401 -4.2354 0
M  V30 9492 C 904.928 -2.81504 -4.3864 0
M  V30 9493 C 902.256 -3.57192 -4.65436 0
M  V30 9494 C 904.608 -4.09737 -4.81973 0
M  V30 9495 C 903.272 -4.47897 -4.94919 0
M  V30 9496 H 902.542 -0.139629 -0.727726 0
M  V30 9497 H 905.189 -1.023 -1.61886 0
M  V30 9498 H 903.494 0.21708 -3.91198 0
M  V30 9499 H 905.191 -0.162625 -4.0067 0
M  V30 9500 H 901.781 -1.596 -3.97776 0
M  V30 9501 H 905.965 -2.53276 -4.26808 0
M  V30 9502 H 901.221 -3.86611 -4.73648 0
M  V30 9503 H 905.395 -4.80555 -5.04024 0
M  V30 9504 H 903.022 -5.47747 -5.27141 0
M  V30 9505 N 904.597 1.47463 -0.556102 0
M  V30 9506 C 905.845 2.02075 -0.0315712 0
M  V30 9507 C 906.166 1.43292 1.32259 0
M  V30 9508 O 905.436 0.60771 1.86236 0
M  V30 9509 H 904.016 0.74695 -0.0086816 0
M  V30 9510 H 906.678 1.80879 -0.725859 0
M  V30 9511 H 905.774 3.12047 0.0573538 0
M  V30 9512 N 906.075 0.2925 1.54862 0
M  V30 9513 C 907.324 -0.319994 1.99146 0
M  V30 9514 C 907.637 -1.55658 1.18448 0
M  V30 9515 O 908.843 -2.24312 1.52959 0
M  V30 9516 C 907.299 -0.620665 3.54508 0
M  V30 9517 C 906.907 0.597098 4.44003 0
M  V30 9518 C 908.651 -1.19482 4.07338 0
M  V30 9519 C 906.558 0.270049 5.90783 0
M  V30 9520 H 905.488 -0.123342 0.743843 0
M  V30 9521 H 908.139 0.399876 1.7909 0
M  V30 9522 H 906.521 -1.3999 3.7043 0
M  V30 9523 H 907.695 1.37354 4.39853 0
M  V30 9524 H 906.01 1.0893 4.019 0
M  V30 9525 H 908.607 -1.45362 5.14562 0
M  V30 9526 H 908.95 -2.13435 3.57423 0
M  V30 9527 H 909.483 -0.477485 3.94924 0
M  V30 9528 H 906.222 1.17791 6.4483 0
M  V30 9529 H 905.742 -0.469292 5.97961 0
M  V30 9530 H 907.421 -0.131471 6.46866 0
M  V30 9531 N 907.553 -1.57587 0.0200696 0
M  V30 9532 C 908.516 -2.08595 -0.949767 0
M  V30 9533 C 909.516 -0.999215 -1.25985 0
M  V30 9534 O 910.706 -1.26115 -1.2017 0
M  V30 9535 C 907.838 -2.54424 -2.26895 0
M  V30 9536 H 909.031 -2.95563 -0.508161 0
M  V30 9537 H 906.584 -1.54631 -0.227798 0
M  V30 9538 H 907.319 -1.70758 -2.75703 0
M  V30 9539 H 907.104 -3.3381 -2.05702 0
M  V30 9540 H 908.594 -2.94144 -2.96427 0
M  V30 9541 N 909.032 0.252966 -1.55557 0
M  V30 9542 C 909.962 1.31691 -1.9282 0
M  V30 9543 C 910.943 1.50516 -0.7924 0
M  V30 9544 O 912.128 1.63225 -1.05219 0
M  V30 9545 C 909.258 2.67281 -2.21762 0
M  V30 9546 C 908.212 2.6316 -3.37536 0
M  V30 9547 C 907.538 4.02488 -3.52005 0
M  V30 9548 C 908.838 2.20675 -4.73392 0
M  V30 9549 H 910.532 1.00751 -2.81939 0
M  V30 9550 H 908.078 0.483219 -1.3565 0
M  V30 9551 H 910.031 3.41842 -2.46419 0
M  V30 9552 H 908.755 2.99845 -1.29463 0
M  V30 9553 H 907.414 1.91057 -3.12878 0
M  V30 9554 H 907.062 4.32307 -2.57137 0
M  V30 9555 H 906.762 4.00621 -4.29857 0
M  V30 9556 H 908.286 4.78758 -3.78977 0
M  V30 9557 H 909.7 2.84965 -4.97461 0
M  V30 9558 H 908.097 2.29931 -5.54303 0
M  V30 9559 H 909.167 1.15831 -4.70862 0
M  V30 9560 N 910.51 1.48831 0.518367 0
M  V30 9561 C 911.738 1.6112 1.298 0
M  V30 9562 C 912.153 0.275872 1.86774 0
M  V30 9563 O 911.51 -0.736416 1.66983 0
M  V30 9564 C 911.561 2.66675 2.44063 0
M  V30 9565 O 911.282 3.95027 1.89434 0
M  V30 9566 C 912.783 2.8951 3.35706 0
M  V30 9567 H 910.003 0.542916 0.394314 0
M  V30 9568 H 912.547 1.94743 0.624142 0
M  V30 9569 H 910.702 2.35879 3.07311 0
M  V30 9570 H 911.116 4.53031 2.64316 0
M  V30 9571 H 912.59 3.67142 4.12202 0
M  V30 9572 H 913.067 1.98768 3.91648 0
M  V30 9573 H 913.673 3.21656 2.7824 0
M  V30 9574 N 911.988 -0.768124 1.37614 0
M  V30 9575 C 912.918 -1.89537 1.36374 0
M  V30 9576 C 913.899 -1.68513 0.231803 0
M  V30 9577 O 915.084 -1.89318 0.432705 0
M  V30 9578 C 912.214 -3.26871 1.17358 0
M  V30 9579 C 911.168 -3.62466 2.27602 0
M  V30 9580 C 910.494 -4.9838 1.93705 0
M  V30 9581 C 911.794 -3.68841 3.69802 0
M  V30 9582 H 913.488 -1.90832 2.30702 0
M  V30 9583 H 911.034 -0.91672 1.11051 0
M  V30 9584 H 912.987 -4.05371 1.15119 0
M  V30 9585 H 911.711 -3.26018 0.194865 0
M  V30 9586 H 910.37 -2.86276 2.29002 0
M  V30 9587 H 910.018 -4.94071 0.943539 0
M  V30 9588 H 909.718 -5.23165 2.6753 0
M  V30 9589 H 911.242 -5.79276 1.93059 0
M  V30 9590 H 912.656 -4.37485 3.70513 0
M  V30 9591 H 911.053 -4.05126 4.42711 0
M  V30 9592 H 912.123 -2.69415 4.03167 0
M  V30 9593 N 913.466 -1.22244 -0.994698 0
M  V30 9594 C 914.713 -1.04591 -1.73398 0
M  V30 9595 C 915.041 0.419223 -1.89928 0
M  V30 9596 O 914.296 1.32714 -1.43824 0
M  V30 9597 C 914.595 -1.70014 -3.14372 0
M  V30 9598 C 914.261 -3.19903 -3.17762 0
M  V30 9599 C 912.923 -3.60803 -3.18394 0
M  V30 9600 C 915.275 -4.15851 -3.14194 0
M  V30 9601 C 912.603 -4.96135 -3.13157 0
M  V30 9602 C 914.955 -5.51157 -3.10498 0
M  V30 9603 C 913.619 -5.91439 -3.09445 0
M  V30 9604 H 912.889 -0.382725 -0.63451 0
M  V30 9605 H 915.536 -1.51981 -1.16508 0
M  V30 9606 H 913.841 -1.14945 -3.7456 0
M  V30 9607 H 915.538 -1.53848 -3.70313 0
M  V30 9608 H 912.128 -2.87336 -3.18019 0
M  V30 9609 H 916.312 -3.85272 -3.12857 0
M  V30 9610 H 911.568 -5.26578 -3.10685 0
M  V30 9611 H 915.742 -6.2523 -3.06692 0
M  V30 9612 H 913.369 -6.96271 -3.05141 0
M  V30 9613 N 914.944 1.19125 -1.03184 0
M  V30 9614 C 915.907 2.20662 -0.619766 0
M  V30 9615 C 916.907 1.57621 0.318179 0
M  V30 9616 O 918.097 1.73885 0.104783 0
M  V30 9617 C 915.229 3.40774 0.0926696 0
M  V30 9618 H 916.422 2.58633 -1.5182 0
M  V30 9619 H 913.975 1.32855 -0.823364 0
M  V30 9620 H 914.71 3.08324 1.00531 0
M  V30 9621 H 914.495 3.87766 -0.581344 0
M  V30 9622 H 915.985 4.15977 0.367792 0
M  V30 9623 N 916.422 0.810101 1.35185 0
M  V30 9624 C 917.668 0.392698 1.98962 0
M  V30 9625 C 918.001 -1.03835 1.64109 0
M  V30 9626 O 917.276 -1.721 0.9062 0
M  V30 9627 C 917.559 0.580349 3.55393 0
M  V30 9628 C 917.412 2.05658 4.00031 0
M  V30 9629 C 918.731 0.00822618 4.40099 0
M  V30 9630 H 915.85 0.144157 0.722764 0
M  V30 9631 H 918.492 1.02029 1.60281 0
M  V30 9632 H 916.642 0.0461106 3.88473 0
M  V30 9633 H 918.314 2.65348 3.77344 0
M  V30 9634 H 916.557 2.55174 3.50811 0
M  V30 9635 H 917.228 2.13875 5.08883 0
M  V30 9636 H 919.704 0.464517 4.13499 0
M  V30 9637 H 918.58 0.169414 5.48638 0
M  V30 9638 H 918.841 -1.08576 4.2856 0
M  V30 9639 N 917.9 -1.47166 0.563914 0
M  V30 9640 C 918.83 -2.32894 -0.168148 0
M  V30 9641 C 919.811 -1.44202 -0.902214 0
M  V30 9642 O 920.996 -1.73048 -0.881365 0
M  V30 9643 C 918.126 -3.26116 -1.19439 0
M  V30 9644 C 917.08 -4.24101 -0.576363 0
M  V30 9645 C 916.406 -5.06696 -1.70772 0
M  V30 9646 C 917.706 -5.20142 0.47425 0
M  V30 9647 H 919.4 -2.9435 0.547573 0
M  V30 9648 H 916.946 -1.41545 0.264778 0
M  V30 9649 H 918.899 -3.84935 -1.71474 0
M  V30 9650 H 917.623 -2.62728 -1.94014 0
M  V30 9651 H 916.282 -3.66519 -0.0772534 0
M  V30 9652 H 915.93 -4.39707 -2.44268 0
M  V30 9653 H 915.63 -5.7304 -1.29994 0
M  V30 9654 H 917.154 -5.68375 -2.2312 0
M  V30 9655 H 918.568 -5.73286 0.0397035 0
M  V30 9656 H 916.965 -5.94726 0.801287 0
M  V30 9657 H 918.035 -4.65214 1.36764 0
M  V30 9658 N 919.378 -0.300708 -1.54705 0
M  V30 9659 C 920.626 0.308044 -1.99739 0
M  V30 9660 C 920.947 1.54433 -1.19061 0
M  V30 9661 O 920.217 1.93794 -0.286507 0
M  V30 9662 H 918.797 0.116811 -0.73781 0
M  V30 9663 H 921.459 -0.41197 -1.90496 0
M  V30 9664 H 920.555 0.580287 -3.06658 0
M  V30 9665 N 920.856 1.57574 -0.0284266 0
M  V30 9666 C 922.105 1.9095 0.649704 0
M  V30 9667 C 922.418 0.906421 1.7333 0
M  V30 9668 O 923.624 1.1314 2.46803 0
M  V30 9669 C 922.08 3.39061 1.20687 0
M  V30 9670 C 921.688 4.47726 0.156597 0
M  V30 9671 C 923.432 3.81505 1.86156 0
M  V30 9672 C 921.339 5.86935 0.725365 0
M  V30 9673 H 920.269 0.712589 0.24644 0
M  V30 9674 H 922.92 1.83261 -0.0936143 0
M  V30 9675 H 921.302 3.41679 2.00178 0
M  V30 9676 H 922.476 4.56667 -0.6158 0
M  V30 9677 H 920.791 4.14481 -0.399288 0
M  V30 9678 H 923.388 4.82865 2.29665 0
M  V30 9679 H 923.731 3.16529 2.70398 0
M  V30 9680 H 924.264 3.81307 1.13356 0
M  V30 9681 H 921.003 6.55453 -0.0789081 0
M  V30 9682 H 920.523 5.81602 1.46627 0
M  V30 9683 H 922.202 6.35483 1.21532 0
M  V30 9684 N 922.334 -0.244713 1.55689 0
M  V30 9685 C 923.581 -0.972446 1.77622 0
M  V30 9686 C 923.909 -1.85235 0.593137 0
M  V30 9687 O 923.164 -1.91064 -0.423464 0
M  V30 9688 C 923.463 -1.8617 3.05083 0
M  V30 9689 C 923.129 -1.13696 4.3633 0
M  V30 9690 C 921.791 -0.936679 4.71996 0
M  V30 9691 C 924.143 -0.623451 5.17458 0
M  V30 9692 C 921.471 -0.210612 5.86322 0
M  V30 9693 C 923.823 0.0891587 6.32537 0
M  V30 9694 C 922.487 0.300904 6.66821 0
M  V30 9695 H 921.757 -0.355843 0.649967 0
M  V30 9696 H 924.404 -0.242372 1.8996 0
M  V30 9697 H 922.709 -2.6589 2.87767 0
M  V30 9698 H 924.406 -2.4265 3.19253 0
M  V30 9699 H 920.996 -1.30301 4.08313 0
M  V30 9700 H 925.18 -0.765725 4.90357 0
M  V30 9701 H 920.436 -0.0361062 6.11389 0
M  V30 9702 H 924.61 0.494685 6.94641 0
M  V30 9703 H 922.237 0.865466 7.55257 0
M  V30 9704 N 923.813 -1.49104 -0.510467 0
M  V30 9705 C 924.743 -1.67981 -1.62187 0
M  V30 9706 C 925.724 -0.528529 -1.6168 0
M  V30 9707 O 926.909 -0.763305 -1.7857 0
M  V30 9708 C 924.039 -1.73755 -3.0071 0
M  V30 9709 C 922.993 -2.88579 -3.1608 0
M  V30 9710 C 922.319 -2.79457 -4.5586 0
M  V30 9711 C 923.619 -4.29638 -2.97 0
M  V30 9712 H 925.313 -2.61029 -1.46643 0
M  V30 9713 H 922.859 -1.25615 -0.704042 0
M  V30 9714 H 924.812 -1.85548 -3.78352 0
M  V30 9715 H 923.536 -0.772996 -3.17321 0
M  V30 9716 H 922.195 -2.76372 -2.40861 0
M  V30 9717 H 921.843 -1.80929 -4.69333 0
M  V30 9718 H 921.543 -3.56518 -4.67086 0
M  V30 9719 H 923.067 -2.93245 -5.35574 0
M  V30 9720 H 924.481 -4.42575 -3.64418 0
M  V30 9721 H 922.878 -5.07847 -3.19704 0
M  V30 9722 H 923.948 -4.44741 -1.93219 0
M  V30 9723 N 925.291 0.760815 -1.38019 0
M  V30 9724 C 926.519 1.55001 -1.37048 0
M  V30 9725 C 926.934 1.88754 0.0415261 0
M  V30 9726 O 926.291 1.52254 1.00624 0
M  V30 9727 C 926.342 2.8536 -2.21928 0
M  V30 9728 O 926.063 2.53049 -3.57628 0
M  V30 9729 C 927.564 3.79536 -2.29057 0
M  V30 9730 H 924.784 0.479844 -0.469032 0
M  V30 9731 H 927.328 0.942148 -1.81504 0
M  V30 9732 H 925.483 3.42542 -1.80953 0
M  V30 9733 H 925.897 3.36604 -4.02241 0
M  V30 9734 H 927.371 4.67977 -2.92749 0
M  V30 9735 H 927.848 4.19453 -1.30213 0
M  V30 9736 H 928.454 3.28281 -2.70392 0
M  V30 9737 N 926.769 1.22769 0.988202 0
M  V30 9738 C 927.732 1.00325 2.06076 0
M  V30 9739 C 928.732 -0.0320618 1.60768 0
M  V30 9740 O 929.922 0.206912 1.72967 0
M  V30 9741 C 927.054 0.516376 3.36966 0
M  V30 9742 H 928.247 1.95499 2.27421 0
M  V30 9743 H 925.8 1.04704 1.16047 0
M  V30 9744 H 926.535 -0.439498 3.21308 0
M  V30 9745 H 926.32 1.26337 3.71189 0
M  V30 9746 H 927.81 0.37974 4.1587 0
M  V30 9747 N 928.247 -1.18576 1.03814 0
M  V30 9748 C 929.494 -1.88493 0.740036 0
M  V30 9749 C 929.822 -1.80198 -0.732056 0
M  V30 9750 O 929.077 -1.19509 -1.54971 0
M  V30 9751 C 929.376 -3.38448 1.14837 0
M  V30 9752 C 929.042 -3.66947 2.62031 0
M  V30 9753 C 927.704 -3.74435 3.02244 0
M  V30 9754 C 930.056 -3.79534 3.57217 0
M  V30 9755 C 927.384 -3.91986 4.36536 0
M  V30 9756 C 929.736 -3.986 4.91223 0
M  V30 9757 C 928.4 -4.04323 5.31111 0
M  V30 9758 H 927.67 -0.689746 0.270798 0
M  V30 9759 H 930.317 -1.40364 1.3027 0
M  V30 9760 H 928.622 -3.88539 0.504472 0
M  V30 9761 H 930.319 -3.90882 0.89511 0
M  V30 9762 H 926.909 -3.61734 2.29883 0
M  V30 9763 H 931.093 -3.73083 3.27296 0
M  V30 9764 H 926.349 -3.9466 4.66962 0
M  V30 9765 H 930.523 -4.07281 5.64885 0
M  V30 9766 H 928.15 -4.17676 6.35178 0
M  V30 9767 N 929.725 -0.817259 -1.34754 0
M  V30 9768 C 930.971 -0.403244 -1.98751 0
M  V30 9769 C 931.304 1.02963 -1.64658 0
M  V30 9770 O 930.579 1.71617 -0.915314 0
M  V30 9771 C 930.862 -0.599188 -3.5508 0
M  V30 9772 C 930.715 -2.07777 -3.98934 0
M  V30 9773 C 932.034 -0.0315656 -4.40089 0
M  V30 9774 H 929.153 -0.147988 -0.721989 0
M  V30 9775 H 931.795 -1.02877 -1.59738 0
M  V30 9776 H 929.945 -0.0667116 -3.88443 0
M  V30 9777 H 931.617 -2.67345 -3.75931 0
M  V30 9778 H 929.86 -2.57031 -3.49453 0
M  V30 9779 H 930.531 -2.16571 -5.07741 0
M  V30 9780 H 933.007 -0.48644 -4.13247 0
M  V30 9781 H 931.883 -0.198507 -5.48541 0
M  V30 9782 H 932.144 1.06302 -4.2913 0
M  V30 9783 N 931.203 1.46865 -0.571711 0
M  V30 9784 C 932.133 2.3298 0.155795 0
M  V30 9785 C 933.114 1.44678 0.894553 0
M  V30 9786 O 934.299 1.73513 0.872176 0
M  V30 9787 C 931.429 3.26745 1.17708 0
M  V30 9788 C 930.383 4.24401 0.553863 0
M  V30 9789 C 929.709 5.07595 1.68083 0
M  V30 9790 C 931.009 5.19884 -0.501827 0
M  V30 9791 H 932.703 2.94056 -0.563176 0
M  V30 9792 H 930.249 1.41402 -0.27228 0
M  V30 9793 H 932.202 3.85838 1.6943 0
M  V30 9794 H 930.926 2.63753 1.92618 0
M  V30 9795 H 929.585 3.66554 0.057815 0
M  V30 9796 H 929.233 4.40996 2.41933 0
M  V30 9797 H 928.933 5.73722 1.26953 0
M  V30 9798 H 930.457 5.6955 2.20103 0
M  V30 9799 H 931.871 5.73257 -0.0701057 0
M  V30 9800 H 930.268 5.94293 -0.832815 0
M  V30 9801 H 931.338 4.64482 -1.39229 0
M  V30 9802 N 932.681 0.308908 1.54543 0
M  V30 9803 C 933.929 -0.297447 1.99899 0
M  V30 9804 C 934.25 -1.53799 1.19878 0
M  V30 9805 O 933.52 -1.93639 0.29678 0
M  V30 9806 H 932.1 -0.112897 0.738419 0
M  V30 9807 H 934.762 0.422067 1.90275 0
M  V30 9808 H 933.858 -0.564016 3.06961 0
M  V30 9809 N 934.159 -1.57557 0.0367827 0
M  V30 9810 C 935.405 -1.92399 -0.641133 0
M  V30 9811 C 935.738 -0.914191 -1.71336 0
M  V30 9812 O 935.013 0.0619616 -1.94401 0
M  V30 9813 C 935.296 -3.37689 -1.25052 0
M  V30 9814 C 935.149 -4.4941 -0.187326 0
M  V30 9815 C 936.468 -3.8309 -2.16634 0
M  V30 9816 H 933.587 -0.699666 -0.231597 0
M  V30 9817 H 936.229 -1.89759 0.0956083 0
M  V30 9818 H 934.379 -3.40069 -1.87843 0
M  V30 9819 H 936.051 -4.59161 0.443736 0
M  V30 9820 H 934.294 -4.31065 0.486313 0
M  V30 9821 H 934.965 -5.48119 -0.653459 0
M  V30 9822 H 937.441 -3.82494 -1.63821 0
M  V30 9823 H 936.317 -4.85429 -2.56222 0
M  V30 9824 H 936.578 -3.19028 -3.06062 0
M  V30 9825 N 935.637 0.236453 -1.55816 0
M  V30 9826 C 936.884 0.963012 -1.78136 0
M  V30 9827 C 937.212 1.84918 -0.602952 0
M  V30 9828 O 936.467 1.91285 0.413325 0
M  V30 9829 C 936.766 1.84549 -3.06066 0
M  V30 9830 C 936.432 1.11381 -4.36927 0
M  V30 9831 C 935.094 0.911635 -4.72486 0
M  V30 9832 C 937.446 0.596 -5.17781 0
M  V30 9833 C 934.774 0.179515 -5.86425 0
M  V30 9834 C 937.126 -0.122702 -6.32481 0
M  V30 9835 C 935.79 -0.336263 -6.66652 0
M  V30 9836 H 935.06 0.352391 -0.651845 0
M  V30 9837 H 937.707 0.232295 -1.90086 0
M  V30 9838 H 936.012 2.6436 -2.89173 0
M  V30 9839 H 937.709 2.40953 -3.20535 0
M  V30 9840 H 934.299 1.28134 -4.08998 0
M  V30 9841 H 938.483 0.73971 -4.90757 0
M  V30 9842 H 933.739 0.00368224 -6.114 0
M  V30 9843 H 937.913 -0.531516 -6.94369 0
M  V30 9844 H 935.54 -0.905507 -7.54788 0
M  V30 9845 N 937.115 1.49373 0.502552 0
M  V30 9846 C 938.364 1.58028 1.25339 0
M  V30 9847 C 938.677 0.271494 1.93707 0
M  V30 9848 O 939.883 0.236584 2.70467 0
M  V30 9849 C 938.339 2.78817 2.27572 0
M  V30 9850 C 937.947 4.16448 1.65151 0
M  V30 9851 C 939.691 2.96802 3.03494 0
M  V30 9852 C 937.598 5.28461 2.65486 0
M  V30 9853 H 936.528 0.588396 0.471494 0
M  V30 9854 H 939.179 1.75756 0.52744 0
M  V30 9855 H 937.561 2.5458 3.03323 0
M  V30 9856 H 938.735 4.50816 0.954029 0
M  V30 9857 H 937.05 4.03809 1.01625 0
M  V30 9858 H 939.647 3.77656 3.78524 0
M  V30 9859 H 939.99 2.07303 3.61014 0
M  V30 9860 H 940.523 3.21071 2.34858 0
M  V30 9861 H 937.262 6.20015 2.12749 0
M  V30 9862 H 936.782 4.9855 3.33479 0
M  V30 9863 H 938.461 5.5773 3.27943 0
M  V30 9864 N 938.594 -0.753485 1.38421 0
M  V30 9865 C 939.541 -1.86723 1.35659 0
M  V30 9866 C 940.511 -1.64648 0.219121 0
M  V30 9867 O 941.696 -1.86313 0.411366 0
M  V30 9868 C 938.836 -3.24023 1.18758 0
M  V30 9869 C 937.949 -3.57928 2.41892 0
M  V30 9870 C 937.084 -4.84532 2.17721 0
M  V30 9871 C 936.123 -5.11224 3.36626 0
M  V30 9872 N 935.26 -6.29023 3.11889 0
M  V30 9873 H 940.1 -1.88419 2.30873 0
M  V30 9874 H 937.637 -0.920934 1.14705 0
M  V30 9875 H 939.595 -4.03252 1.06974 0
M  V30 9876 H 938.225 -3.21654 0.27182 0
M  V30 9877 H 937.277 -2.73541 2.64347 0
M  V30 9878 H 938.589 -3.73581 3.30513 0
M  V30 9879 H 937.743 -5.71704 2.03074 0
M  V30 9880 H 936.482 -4.71018 1.26465 0
M  V30 9881 H 935.487 -4.2252 3.51791 0
M  V30 9882 H 936.712 -5.26635 4.28757 0
M  V30 9883 H 934.658 -6.16832 2.2328 0
M  V30 9884 H 934.575 -6.45177 3.9406 0
M  V30 9885 H 935.843 -7.19083 3.00898 0
M  V30 9886 N 940.072 -1.23292 -0.981677 0
M  V30 9887 C 941.319 -1.06424 -1.72279 0
M  V30 9888 C 941.647 0.399055 -1.90362 0
M  V30 9889 O 940.902 1.31181 -1.45224 0
M  V30 9890 C 941.201 -1.73339 -3.12551 0
M  V30 9891 C 940.867 -3.23256 -3.14351 0
M  V30 9892 C 939.529 -3.64159 -3.14549 0
M  V30 9893 C 941.881 -4.1916 -3.09765 0
M  V30 9894 C 939.209 -4.99428 -3.07877 0
M  V30 9895 C 941.561 -5.54419 -3.04635 0
M  V30 9896 C 940.225 -5.94688 -3.03154 0
M  V30 9897 H 939.495 -0.389434 -0.630415 0
M  V30 9898 H 942.142 -1.53208 -1.1489 0
M  V30 9899 H 940.447 -1.18911 -3.73319 0
M  V30 9900 H 942.144 -1.57767 -3.68661 0
M  V30 9901 H 938.734 -2.90693 -3.14953 0
M  V30 9902 H 942.918 -3.88569 -3.08753 0
M  V30 9903 H 938.174 -5.29844 -3.05083 0
M  V30 9904 H 942.348 -6.28448 -3.00043 0
M  V30 9905 H 939.975 -6.99468 -2.97739 0
M  V30 9906 N 941.55 1.18024 -1.04442 0
M  V30 9907 C 942.966 1.40107 -0.76435 0
M  V30 9908 C 943.166 1.90914 0.644516 0
M  V30 9909 O 942.222 2.0959 1.40813 0
M  V30 9910 C 943.535 2.39851 -1.81361 0
M  V30 9911 C 945.083 2.53571 -1.83496 0
M  V30 9912 C 945.558 3.56583 -2.87424 0
M  V30 9913 N 947.049 3.64094 -2.86339 0
M  V30 9914 C 947.784 4.43537 -3.63405 0
M  V30 9915 N 947.28 5.26557 -4.50233 0
M  V30 9916 N 949.073 4.38336 -3.51877 0
M  V30 9917 H 941.224 0.833726 -1.95353 0
M  V30 9918 H 943.487 0.42881 -0.845474 0
M  V30 9919 H 943.193 2.09576 -2.82438 0
M  V30 9920 H 943.067 3.39251 -1.6489 0
M  V30 9921 H 945.454 2.83161 -0.830883 0
M  V30 9922 H 945.535 1.54272 -2.04044 0
M  V30 9923 H 945.179 3.27733 -3.88012 0
M  V30 9924 H 945.109 4.55569 -2.6413 0
M  V30 9925 H 947.6 3.04814 -2.23376 0
M  V30 9926 H 947.913 5.84336 -5.05738 0
M  V30 9927 H 946.258 5.25964 -4.54298 0
M  V30 9928 H 949.449 3.72528 -2.83444 0
M  V30 9929 H 949.622 5.00007 -4.12186 0
M  V30 9930 N 943.028 0.824394 1.34319 0
M  V30 9931 C 943.976 0.235628 2.31403 0
M  V30 9932 C 944.97 -0.624443 1.57471 0
M  V30 9933 O 946.176 -0.515618 1.72457 0
M  V30 9934 H 942.551 0.0574537 0.749802 0
M  V30 9935 H 944.522 1.06925 2.78585 0
M  V30 9936 C 943.271 -0.586617 3.42716 0
M  V30 9937 H 942.594 0.0658669 3.99746 0
M  V30 9938 H 944.034 -0.964661 4.1288 0
M  V30 9939 C 942.493 -1.75957 2.87299 0
M  V30 9940 O 943.023 -2.8578 2.82299 0
M  V30 9941 N 941.229 -1.57678 2.44102 0
M  V30 9942 H 940.776 -0.683436 2.48369 0
M  V30 9943 H 940.734 -2.36311 2.07375 0
M  V30 9944 N 944.506 -1.46559 0.579492 0
M  V30 9945 C 945.734 -2.06784 0.0693648 0
M  V30 9946 C 946.149 -1.42875 -1.23419 0
M  V30 9947 O 945.506 -0.532919 -1.74546 0
M  V30 9948 C 945.557 -3.61343 -0.106511 0
M  V30 9949 O 945.278 -4.22861 1.14545 0
M  V30 9950 C 946.779 -4.38489 -0.651359 0
M  V30 9951 H 943.999 -0.66866 0.0559848 0
M  V30 9952 H 946.543 -1.88235 0.799245 0
M  V30 9953 H 944.698 -3.7933 -0.786601 0
M  V30 9954 H 945.112 -5.15691 0.95723 0
M  V30 9955 H 946.586 -5.47237 -0.723615 0
M  V30 9956 H 947.063 -4.06309 -1.66763 0
M  V30 9957 H 947.669 -4.253 -0.0062433 0
M  V30 9958 N 945.984 -0.3171 -1.54377 0
M  V30 9959 C 947.395 0.172287 -1.85903 0
M  V30 9960 C 947.746 1.52141 -1.23885 0
M  V30 9961 O 946.871 2.0949 -0.542476 0
M  V30 9962 C 947.466 0.319392 -3.37291 0
M  V30 9963 C 946.025 0.752998 -3.68791 0
M  V30 9964 C 945.172 -0.129143 -2.76999 0
M  V30 9965 H 948.123 -0.537597 -1.49317 0
M  V30 9966 H 948.144 1.15137 -3.62662 0
M  V30 9967 H 947.656 -0.662671 -3.82401 0
M  V30 9968 H 945.757 1.74504 -3.2921 0
M  V30 9969 H 945.87 0.561228 -4.75801 0
M  V30 9970 H 944.234 0.394242 -2.5163 0
M  V30 9971 H 945.017 -1.10785 -3.24933 0
M  V30 9972 N 947.462 1.57535 -0.0451378 0
M  V30 9973 C 948.711 1.91628 0.629415 0
M  V30 9974 C 949.024 0.924754 1.72359 0
M  V30 9975 O 950.23 1.15751 2.45589 0
M  V30 9976 C 948.686 3.40322 1.17084 0
M  V30 9977 C 948.294 4.47867 0.109101 0
M  V30 9978 C 950.038 3.83458 1.82099 0
M  V30 9979 C 947.945 5.87671 0.663072 0
M  V30 9980 H 946.875 0.715163 0.238868 0
M  V30 9981 H 949.526 1.83151 -0.113046 0
M  V30 9982 H 947.908 3.43783 1.96543 0
M  V30 9983 H 949.082 4.55988 -0.664201 0
M  V30 9984 H 947.397 4.14034 -0.443227 0
M  V30 9985 H 949.994 4.85273 2.2453 0
M  V30 9986 H 950.337 3.19379 2.67026 0
M  V30 9987 H 950.87 3.82488 1.09305 0
M  V30 9988 H 947.609 6.55332 -0.148423 0
M  V30 9989 H 947.129 5.83124 1.4045 0
M  V30 9990 H 948.808 6.36737 1.14785 0
M  V30 9991 N 948.94 -0.228186 1.55939 0
M  V30 9992 C 950.186 -0.954964 1.78909 0
M  V30 9993 C 950.519 -1.8425 0.613648 0
M  V30 9994 O 949.794 -1.90604 -0.38737 0
M  V30 9995 C 950.077 -1.79957 3.1191 0
M  V30 9996 C 949.93 -0.938968 4.3989 0
M  V30 9997 C 951.249 -2.77859 3.41295 0
M  V30 9998 H 948.368 -0.345745 0.650868 0
M  V30 9999 H 951.01 -0.224244 1.88672 0
M  V30 10000 H 949.16 -2.42256 3.03717 0
M  V30 10001 H 950.832 -0.333225 4.60095 0
M  V30 10002 H 949.075 -0.244096 4.33113 0
M  V30 10003 H 949.746 -1.56416 5.29375 0
M  V30 10004 H 952.222 -2.25695 3.49572 0
M  V30 10005 H 951.098 -3.34062 4.35538 0
M  V30 10006 H 951.359 -3.55266 2.63132 0
M  V30 10007 N 950.418 -1.49637 -0.494624 0
M  V30 10008 C 951.365 -1.66776 -1.59545 0
M  V30 10009 C 952.335 -0.509159 -1.58104 0
M  V30 10010 O 953.52 -0.736949 -1.75993 0
M  V30 10011 C 950.66 -1.74624 -2.97658 0
M  V30 10012 C 949.773 -3.01831 -3.09067 0
M  V30 10013 C 948.908 -3.00619 -4.37952 0
M  V30 10014 C 947.947 -4.22378 -4.43016 0
M  V30 10015 N 947.084 -4.1904 -5.63339 0
M  V30 10016 H 951.924 -2.60767 -1.44238 0
M  V30 10017 H 949.461 -1.29286 -0.701673 0
M  V30 10018 H 951.419 -1.77156 -3.77719 0
M  V30 10019 H 950.049 -0.840936 -3.11654 0
M  V30 10020 H 949.101 -3.08881 -2.22029 0
M  V30 10021 H 950.413 -3.91823 -3.08669 0
M  V30 10022 H 949.567 -3.01749 -5.26339 0
M  V30 10023 H 948.306 -2.08416 -4.40924 0
M  V30 10024 H 947.311 -4.21485 -3.5303 0
M  V30 10025 H 948.536 -5.15781 -4.41755 0
M  V30 10026 H 946.482 -3.29677 -5.67141 0
M  V30 10027 H 946.399 -5.02774 -5.64583 0
M  V30 10028 H 947.667 -4.24281 -6.53916 0
M  V30 10029 N 951.896 0.746133 -1.38819 0
M  V30 10030 C 952.859 1.84167 -1.36437 0
M  V30 10031 C 953.859 1.58626 -0.263499 0
M  V30 10032 O 955.049 1.66233 -0.520801 0
M  V30 10033 C 952.181 3.21769 -1.12596 0
M  V30 10034 H 953.374 1.87684 -2.33912 0
M  V30 10035 H 950.927 0.948625 -1.24221 0
M  V30 10036 H 951.662 3.23917 -0.15758 0
M  V30 10037 H 951.447 3.41702 -1.92307 0
M  V30 10038 H 952.937 4.0184 -1.13643 0
M  V30 10039 N 953.375 1.23811 0.975125 0
M  V30 10040 C 954.603 1.10019 1.75224 0
M  V30 10041 C 955.018 -0.34791 1.85567 0
M  V30 10042 O 954.375 -1.24043 1.33864 0
M  V30 10043 C 954.426 1.72572 3.1765 0
M  V30 10044 O 954.147 3.11719 3.07836 0
M  V30 10045 C 955.648 1.64292 4.11732 0
M  V30 10046 H 952.868 0.38476 0.549728 0
M  V30 10047 H 955.412 1.63768 1.22476 0
M  V30 10048 H 953.567 1.22843 3.67408 0
M  V30 10049 H 953.981 3.42152 3.97533 0
M  V30 10050 H 955.455 2.12754 5.09352 0
M  V30 10051 H 955.932 0.602722 4.35045 0
M  V30 10052 H 956.538 2.13411 3.6788 0
M  V30 10053 N 954.853 -1.17469 1.05066 0
M  V30 10054 C 955.801 -2.23495 0.644418 0
M  V30 10055 C 956.795 -1.66081 -0.333685 0
M  V30 10056 O 958.001 -1.78887 -0.199886 0
M  V30 10057 H 954.376 -0.727546 0.190214 0
M  V30 10058 H 956.347 -2.55058 1.5488 0
M  V30 10059 C 955.096 -3.47684 0.0338051 0
M  V30 10060 H 954.419 -3.92167 0.777513 0
M  V30 10061 H 955.859 -4.23464 -0.213086 0
M  V30 10062 C 954.318 -3.14067 -1.21915 0
M  V30 10063 O 954.848 -3.28728 -2.3087 0
M  V30 10064 N 953.054 -2.68304 -1.11631 0
M  V30 10065 H 952.601 -2.56574 -0.229673 0
M  V30 10066 H 952.559 -2.46184 -1.95553 0
M  V30 10067 N 956.331 -0.831506 -1.3388 0
M  V30 10068 C 957.747 -0.518349 -1.50948 0
M  V30 10069 C 957.947 0.955807 -1.77388 0
M  V30 10070 O 957.003 1.73993 -1.82983 0
M  V30 10071 C 958.316 -1.38531 -2.66889 0
M  V30 10072 C 959.864 -1.38332 -2.80772 0
M  V30 10073 C 960.339 -2.23497 -3.99766 0
M  V30 10074 N 961.83 -2.21167 -4.06988 0
M  V30 10075 C 962.565 -2.83805 -4.98239 0
M  V30 10076 N 962.061 -3.55468 -5.94655 0
M  V30 10077 N 963.854 -2.73314 -4.91178 0
M  V30 10078 H 956.005 -1.78588 -1.14978 0
M  V30 10079 H 958.268 -0.761508 -0.564633 0
M  V30 10080 H 957.974 -2.43255 -2.54007 0
M  V30 10081 H 957.848 -1.05611 -3.62114 0
M  V30 10082 H 960.235 -0.343832 -2.9309 0
M  V30 10083 H 960.316 -1.75256 -1.86331 0
M  V30 10084 H 959.96 -3.27501 -3.88208 0
M  V30 10085 H 959.89 -1.83919 -4.93438 0
M  V30 10086 H 962.381 -1.69046 -3.37982 0
M  V30 10087 H 962.694 -4.00487 -6.60931 0
M  V30 10088 H 961.039 -3.59575 -5.94753 0
M  V30 10089 H 964.23 -2.16897 -4.14817 0
M  V30 10090 H 964.403 -3.22416 -5.62096 0
M  V30 10091 N 957.809 1.4625 -0.587256 0
M  V30 10092 C 958.719 2.34147 0.145744 0
M  V30 10093 C 959.735 1.50026 0.881376 0
M  V30 10094 O 960.911 1.82884 0.843539 0
M  V30 10095 C 957.976 3.27294 1.14366 0
M  V30 10096 C 957.037 4.27317 0.412199 0
M  V30 10097 C 956.27 5.16013 1.36257 0
M  V30 10098 O 956.493 5.0773 2.59934 0
M  V30 10099 O 955.427 5.95569 0.870681 0
M  V30 10100 H 959.253 2.98187 -0.576055 0
M  V30 10101 H 956.838 1.45299 -0.347628 0
M  V30 10102 H 958.72 3.84747 1.71894 0
M  V30 10103 H 957.395 2.65845 1.84684 0
M  V30 10104 H 956.302 3.73538 -0.205036 0
M  V30 10105 H 957.635 4.91564 -0.250104 0
M  V30 10106 N 959.287 0.325282 1.54207 0
M  V30 10107 C 960.217 -0.532574 2.27345 0
M  V30 10108 C 961.198 -1.11791 1.28206 0
M  V30 10109 O 962.383 -1.14272 1.57021 0
M  V30 10110 C 959.513 -1.69274 3.03255 0
M  V30 10111 C 958.467 -1.23662 4.09746 0
M  V30 10112 C 957.793 -2.48386 4.73506 0
M  V30 10113 C 959.093 -0.350244 5.21124 0
M  V30 10114 H 960.787 0.0775108 2.993 0
M  V30 10115 H 958.333 0.0387193 1.43948 0
M  V30 10116 H 960.286 -2.29917 3.53152 0
M  V30 10117 H 959.01 -2.32944 2.28921 0
M  V30 10118 H 957.669 -0.653106 3.60735 0
M  V30 10119 H 957.317 -3.10424 3.95786 0
M  V30 10120 H 957.017 -2.18558 5.45441 0
M  V30 10121 H 958.541 -3.09789 5.26178 0
M  V30 10122 H 959.955 -0.863011 5.66767 0
M  V30 10123 H 958.352 -0.14466 5.99926 0
M  V30 10124 H 959.422 0.618457 4.8094 0
M  V30 10125 N 960.765 -1.57509 0.0534917 0
M  V30 10126 C 961.99 -1.97511 -0.632794 0
M  V30 10127 C 962.415 -0.930947 -1.63447 0
M  V30 10128 O 961.773 0.105558 -1.80992 0
M  V30 10129 C 961.821 -3.3658 -1.29407 0
M  V30 10130 O 960.925 -3.3467 -2.40977 0
M  V30 10131 H 960.266 -0.643349 -0.16431 0
M  V30 10132 H 962.796 -2.04232 0.12258 0
M  V30 10133 H 962.806 -3.73359 -1.64521 0
M  V30 10134 H 961.481 -4.12113 -0.559976 0
M  V30 10135 H 960.058 -3.09639 -2.07793 0
M  V30 10136 N 962.243 0.219913 -1.56058 0
M  V30 10137 C 963.473 0.959521 -1.82967 0
M  V30 10138 C 963.881 1.78382 -0.630602 0
M  V30 10139 O 963.224 1.79062 0.410203 0
M  V30 10140 C 963.286 1.92481 -3.0363 0
M  V30 10141 C 962.95 1.28487 -4.38566 0
M  V30 10142 C 963.947 0.673946 -5.15513 0
M  V30 10143 C 961.632 1.29615 -4.85289 0
M  V30 10144 C 963.626 0.0828324 -6.37346 0
M  V30 10145 C 961.313 0.701191 -6.07064 0
M  V30 10146 C 962.311 0.0955877 -6.82933 0
M  V30 10147 O 961.999 -0.490109 -8.02405 0
M  V30 10148 H 961.731 0.286709 -0.612188 0
M  V30 10149 H 964.285 0.239761 -2.03996 0
M  V30 10150 H 962.515 2.6836 -2.78424 0
M  V30 10151 H 964.204 2.5301 -3.17397 0
M  V30 10152 H 964.97 0.657548 -4.80522 0
M  V30 10153 H 960.849 1.75691 -4.26208 0
M  V30 10154 H 964.393 -0.390482 -6.96506 0
M  V30 10155 H 960.29 0.715007 -6.41528 0
M  V30 10156 H 961.058 -0.384588 -8.17596 0
M  V30 10157 N 963.721 1.49897 0.486681 0
M  V30 10158 C 964.651 1.7054 1.59494 0
M  V30 10159 C 965.632 0.554184 1.60819 0
M  V30 10160 O 966.817 0.791617 1.77333 0
M  V30 10161 C 963.947 1.78517 2.97908 0
M  V30 10162 C 962.901 2.93571 3.11449 0
M  V30 10163 C 962.227 2.86674 4.51356 0
M  V30 10164 C 963.527 4.34308 2.90127 0
M  V30 10165 H 965.221 2.63329 1.42472 0
M  V30 10166 H 962.767 1.2672 0.683969 0
M  V30 10167 H 964.72 1.91544 3.75352 0
M  V30 10168 H 963.444 0.823381 3.16051 0
M  V30 10169 H 962.103 2.80169 2.36433 0
M  V30 10170 H 961.751 1.88373 4.66395 0
M  V30 10171 H 961.451 3.63903 4.61355 0
M  V30 10172 H 962.975 3.01728 5.30841 0
M  V30 10173 H 964.389 4.48317 3.57331 0
M  V30 10174 H 962.786 5.12869 3.11585 0
M  V30 10175 H 963.856 4.47759 1.86119 0
M  V30 10176 N 965.199 -0.738761 1.39212 0
M  V30 10177 C 966.129 -1.86602 1.40364 0
M  V30 10178 C 967.11 -1.67984 0.267495 0
M  V30 10179 O 968.295 -1.88358 0.472765 0
M  V30 10180 C 965.425 -3.24308 1.24265 0
M  V30 10181 C 964.379 -3.57557 2.35239 0
M  V30 10182 C 963.705 -4.94159 2.04233 0
M  V30 10183 C 965.005 -3.60914 3.77543 0
M  V30 10184 H 966.699 -1.85896 2.34698 0
M  V30 10185 H 964.245 -0.892959 1.1297 0
M  V30 10186 H 966.198 -4.02838 1.23692 0
M  V30 10187 H 964.922 -3.25531 0.263974 0
M  V30 10188 H 963.581 -2.81354 2.35022 0
M  V30 10189 H 963.229 -4.91959 1.04813 0
M  V30 10190 H 962.929 -5.17373 2.78567 0
M  V30 10191 H 964.453 -5.7505 2.05303 0
M  V30 10192 H 965.867 -4.29528 3.79709 0
M  V30 10193 H 964.264 -3.95644 4.51205 0
M  V30 10194 H 965.334 -2.60803 4.08791 0
M  V30 10195 N 966.677 -1.24326 -0.968545 0
M  V30 10196 C 967.607 -1.05951 -2.08079 0
M  V30 10197 C 968.588 0.0272666 -1.70078 0
M  V30 10198 O 969.773 -0.139644 -1.93697 0
M  V30 10199 C 966.903 -0.662623 -3.4092 0
M  V30 10200 C 965.857 -1.69807 -3.92873 0
M  V30 10201 C 965.183 -1.15628 -5.22048 0
M  V30 10202 C 966.483 -3.09383 -4.20808 0
M  V30 10203 H 968.177 -1.98984 -2.23709 0
M  V30 10204 H 965.723 -0.958112 -1.075 0
M  V30 10205 H 967.676 -0.521071 -4.18166 0
M  V30 10206 H 966.4 0.303399 -3.25188 0
M  V30 10207 H 965.059 -1.82783 -3.17783 0
M  V30 10208 H 964.707 -0.180888 -5.02675 0
M  V30 10209 H 964.407 -1.84822 -5.57776 0
M  V30 10210 H 965.931 -1.02683 -6.01904 0
M  V30 10211 H 967.345 -2.99642 -4.88761 0
M  V30 10212 H 965.742 -3.75923 -4.67763 0
M  V30 10213 H 966.812 -3.57486 -3.27616 0
M  V30 10214 N 968.156 1.1691 -1.05688 0
M  V30 10215 C 969.403 1.87292 -0.76993 0
M  V30 10216 C 969.731 1.81339 0.703295 0
M  V30 10217 O 968.986 1.21959 1.5305 0
M  V30 10218 C 969.285 3.36578 -1.20207 0
M  V30 10219 C 968.951 3.62732 -2.67836 0
M  V30 10220 C 967.613 3.69579 -3.08163 0
M  V30 10221 C 969.965 3.73803 -3.63209 0
M  V30 10222 C 967.293 3.84992 -4.42717 0
M  V30 10223 C 969.645 3.90735 -4.97503 0
M  V30 10224 C 968.309 3.95823 -5.37476 0
M  V30 10225 H 967.579 0.68535 -0.281737 0
M  V30 10226 H 970.226 1.38274 -1.32486 0
M  V30 10227 H 968.531 3.87687 -0.566222 0
M  V30 10228 H 970.228 3.89409 -0.957183 0
M  V30 10229 H 966.818 3.58031 -2.35609 0
M  V30 10230 H 971.002 3.67829 -3.3319 0
M  V30 10231 H 966.258 3.87181 -4.73182 0
M  V30 10232 H 970.432 3.98243 -5.71293 0
M  V30 10233 H 968.059 4.07518 -6.41742 0
M  V30 10234 N 969.634 0.838594 1.33437 0
M  V30 10235 C 970.859 0.446701 2.02532 0
M  V30 10236 C 971.284 -0.944275 1.62681 0
M  V30 10237 O 970.642 -1.61733 0.81927 0
M  V30 10238 C 970.69 0.574794 3.55989 0
M  V30 10239 O 969.794 -0.399063 4.10465 0
M  V30 10240 H 969.135 0.181637 0.638674 0
M  V30 10241 H 971.665 1.13335 1.70342 0
M  V30 10242 H 971.675 0.456339 4.0544 0
M  V30 10243 H 970.35 1.58921 3.8434 0
M  V30 10244 H 968.927 -0.238187 3.72139 0
M  V30 10245 N 971.112 -1.45937 0.595003 0
M  V30 10246 C 972.042 -2.33198 -0.11871 0
M  V30 10247 C 973.023 -1.46083 -0.871423 0
M  V30 10248 O 974.208 -1.74879 -0.844461 0
M  V30 10249 C 971.338 -3.28576 -1.12495 0
M  V30 10250 C 970.292 -4.25229 -0.486275 0
M  V30 10251 C 969.618 -5.10204 -1.59986 0
M  V30 10252 C 970.918 -5.19019 0.584473 0
M  V30 10253 H 972.612 -2.93122 0.609886 0
M  V30 10254 H 970.158 -1.40951 0.294742 0
M  V30 10255 H 972.111 -3.88485 -1.6327 0
M  V30 10256 H 970.835 -2.66784 -1.88398 0
M  V30 10257 H 969.494 -3.666 0.000507962 0
M  V30 10258 H 969.142 -4.44789 -2.34886 0
M  V30 10259 H 968.842 -5.75669 -1.1781 0
M  V30 10260 H 970.366 -5.7298 -2.11014 0
M  V30 10261 H 971.78 -5.73073 0.161297 0
M  V30 10262 H 970.177 -5.92893 0.927256 0
M  V30 10263 H 971.247 -4.62208 1.46601 0
M  V30 10264 N 972.59 -0.333456 -1.54032 0
M  V30 10265 C 973.52 0.52051 -2.27625 0
M  V30 10266 C 974.501 1.1111 -1.28797 0
M  V30 10267 O 975.686 1.13438 -1.57625 0
M  V30 10268 C 972.816 1.67663 -3.04149 0
M  V30 10269 C 971.77 1.21487 -4.10396 0
M  V30 10270 C 971.096 2.45872 -4.74817 0
M  V30 10271 C 972.396 0.322603 -5.21303 0
M  V30 10272 H 974.09 -0.0933823 -2.99254 0
M  V30 10273 H 971.636 -0.0463526 -1.43925 0
M  V30 10274 H 973.589 2.28041 -3.54366 0
M  V30 10275 H 972.313 2.31727 -2.30153 0
M  V30 10276 H 970.972 0.633966 -3.61077 0
M  V30 10277 H 970.62 3.0832 -3.97426 0
M  V30 10278 H 970.32 2.15662 -5.46593 0
M  V30 10279 H 971.844 3.06994 -5.27814 0
M  V30 10280 H 973.258 0.832942 -5.67217 0
M  V30 10281 H 971.655 0.112843 -5.99994 0
M  V30 10282 H 972.725 -0.643954 -4.80605 0
M  V30 10283 N 974.068 1.57479 -0.061844 0
M  V30 10284 C 975.308 1.94982 0.613309 0
M  V30 10285 C 975.672 0.940729 1.67375 0
M  V30 10286 O 976.873 1.20307 2.40374 0
M  V30 10287 C 975.144 3.37208 1.18429 0
M  V30 10288 S 976.703 3.96678 1.87596 0
M  V30 10289 H 973.521 0.681969 0.201096 0
M  V30 10290 H 976.123 1.95045 -0.133328 0
M  V30 10291 H 974.827 4.08441 0.400522 0
M  V30 10292 H 974.358 3.40665 1.96751 0
M  V30 10293 H 976.373 3.82772 3.15754 0
M  V30 10294 N 975.546 -0.211634 1.56173 0
M  V30 10295 C 976.786 -0.941505 1.81425 0
M  V30 10296 C 977.15 -1.8113 0.636862 0
M  V30 10297 O 978.351 -2.57568 0.768907 0
M  V30 10298 C 976.622 -1.75002 3.11623 0
M  V30 10299 S 978.181 -2.53418 3.58225 0
M  V30 10300 H 974.999 -0.316088 0.636875 0
M  V30 10301 H 977.601 -0.206244 1.94409 0
M  V30 10302 H 976.305 -1.10136 3.95346 0
M  V30 10303 H 975.836 -2.5274 3.01473 0
M  V30 10304 H 977.851 -3.77234 3.22349 0
M  V30 10305 N 977.024 -1.50153 -0.478725 0
M  V30 10306 C 978.271 -1.6076 -1.23136 0
M  V30 10307 C 978.599 -0.30442 -1.92103 0
M  V30 10308 O 977.854 0.709213 -1.82397 0
M  V30 10309 C 978.153 -2.73208 -2.30417 0
M  V30 10310 C 977.819 -4.13953 -1.78755 0
M  V30 10311 C 976.481 -4.52251 -1.64386 0
M  V30 10312 C 978.833 -5.01949 -1.40344 0
M  V30 10313 C 976.161 -5.76292 -1.10018 0
M  V30 10314 C 978.513 -6.2653 -0.874206 0
M  V30 10315 C 977.177 -6.63637 -0.717085 0
M  V30 10316 H 976.447 -0.588264 -0.450585 0
M  V30 10317 H 979.094 -1.84061 -0.528551 0
M  V30 10318 H 977.399 -2.43965 -3.06575 0
M  V30 10319 H 979.096 -2.7862 -2.88395 0
M  V30 10320 H 975.686 -3.83736 -1.90904 0
M  V30 10321 H 979.87 -4.73 -1.50283 0
M  V30 10322 H 975.126 -6.03723 -0.965838 0
M  V30 10323 H 979.3 -6.94081 -0.567883 0
M  V30 10324 H 976.927 -7.59633 -0.293639 0
M  V30 10325 N 978.502 0.731368 -1.39602 0
M  V30 10326 C 979.727 1.52567 -1.40492 0
M  V30 10327 C 980.152 1.881 -0.00228828 0
M  V30 10328 O 979.51 1.52167 0.985643 0
M  V30 10329 C 979.558 2.78749 -2.2876 0
M  V30 10330 O 978.662 3.7482 -1.71999 0
M  V30 10331 H 978.003 0.460601 -0.478271 0
M  V30 10332 H 980.533 0.902042 -1.83642 0
M  V30 10333 H 980.543 3.27446 -2.43399 0
M  V30 10334 H 979.218 2.5222 -3.30693 0
M  V30 10335 H 977.795 3.33604 -1.66622 0
M  V30 10336 N 979.98 1.24838 0.961938 0
M  V30 10337 C 981.205 1.11967 1.7458 0
M  V30 10338 C 981.63 -0.323287 1.85301 0
M  V30 10339 O 980.988 -1.23412 1.32812 0
M  V30 10340 C 981.036 1.77066 3.14134 0
M  V30 10341 O 980.14 1.04534 3.98932 0
M  V30 10342 H 979.481 0.391338 0.536424 0
M  V30 10343 H 982.011 1.65259 1.20626 0
M  V30 10344 H 982.021 1.83056 3.64629 0
M  V30 10345 H 980.696 2.82052 3.05646 0
M  V30 10346 H 979.273 1.06372 3.57407 0
M  V30 10347 N 981.458 -1.16348 1.06306 0
M  V30 10348 C 982.683 -1.91323 0.800636 0
M  V30 10349 C 983.108 -1.7691 -0.639105 0
M  V30 10350 O 982.466 -1.0945 -1.44535 0
M  V30 10351 C 982.514 -3.40038 1.20027 0
M  V30 10352 O 981.618 -4.11003 0.339142 0
M  V30 10353 H 980.959 -0.596057 0.292595 0
M  V30 10354 H 983.489 -1.47406 1.41889 0
M  V30 10355 H 983.499 -3.90808 1.17188 0
M  V30 10356 H 982.174 -3.49848 2.24898 0
M  V30 10357 H 980.751 -3.70423 0.42911 0
M  V30 10358 N 982.937 -0.845659 -1.3299 0
M  V30 10359 C 983.867 -0.298957 -2.31578 0
M  V30 10360 C 984.848 0.597012 -1.59279 0
M  V30 10361 O 986.033 0.519142 -1.87132 0
M  V30 10362 C 983.163 0.521109 -3.43368 0
M  V30 10363 C 982.117 -0.279651 -4.27085 0
M  V30 10364 C 981.443 0.664591 -5.30554 0
M  V30 10365 C 982.743 -1.50046 -5.00283 0
M  V30 10366 H 984.437 -1.12272 -2.77552 0
M  V30 10367 H 981.983 -0.54132 -1.33438 0
M  V30 10368 H 983.936 0.913921 -4.1137 0
M  V30 10369 H 982.66 1.37815 -2.96099 0
M  V30 10370 H 981.319 -0.654106 -3.60717 0
M  V30 10371 H 980.967 1.51822 -4.79541 0
M  V30 10372 H 980.667 0.132871 -5.8745 0
M  V30 10373 H 982.191 1.05477 -6.01421 0
M  V30 10374 H 983.605 -1.18044 -5.61016 0
M  V30 10375 H 982.002 -1.96946 -5.66862 0
M  V30 10376 H 983.072 -2.26659 -4.28665 0
M  V30 10377 N 984.415 1.45619 -0.602734 0
M  V30 10378 C 985.662 2.02272 -0.0960337 0
M  V30 10379 C 985.99 1.47177 1.27159 0
M  V30 10380 O 985.245 0.634593 1.85125 0
M  V30 10381 C 985.544 3.574 -0.00157909 0
M  V30 10382 C 985.21 4.31626 -1.30422 0
M  V30 10383 C 983.872 4.51622 -1.66106 0
M  V30 10384 C 986.224 4.74091 -2.16535 0
M  V30 10385 C 983.552 5.11338 -2.87663 0
M  V30 10386 C 985.904 5.35151 -3.37336 0
M  V30 10387 C 984.568 5.53371 -3.73278 0
M  V30 10388 H 983.838 0.740166 -0.0351412 0
M  V30 10389 H 986.485 1.74744 -0.783382 0
M  V30 10390 H 984.79 3.84179 0.769008 0
M  V30 10391 H 986.487 3.98934 0.406549 0
M  V30 10392 H 983.077 4.16372 -1.01647 0
M  V30 10393 H 987.261 4.5838 -1.90266 0
M  V30 10394 H 982.517 5.23634 -3.15622 0
M  V30 10395 H 986.691 5.67011 -4.04316 0
M  V30 10396 H 984.318 5.99412 -4.67556 0
M  V30 10397 N 985.893 0.34162 1.53853 0
M  V30 10398 C 987.14 -0.255484 2.00882 0
M  V30 10399 C 987.468 -1.50711 1.22949 0
M  V30 10400 O 986.723 -1.93315 0.304625 0
M  V30 10401 C 987.022 -0.616989 3.52034 0
M  V30 10402 C 986.688 0.537536 4.47684 0
M  V30 10403 C 985.35 0.854379 4.73554 0
M  V30 10404 C 987.702 1.31217 5.04412 0
M  V30 10405 C 985.03 1.94826 5.53407 0
M  V30 10406 C 987.382 2.39628 5.85458 0
M  V30 10407 C 986.046 2.71874 6.09623 0
M  V30 10408 H 985.316 -0.0934881 0.735079 0
M  V30 10409 H 987.963 0.469135 1.85665 0
M  V30 10410 H 986.268 -1.42229 3.65073 0
M  V30 10411 H 987.965 -1.09084 3.85878 0
M  V30 10412 H 984.555 0.280524 4.27681 0
M  V30 10413 H 988.739 1.08064 4.84392 0
M  V30 10414 H 983.995 2.20235 5.70356 0
M  V30 10415 H 988.169 3.00084 6.28429 0
M  V30 10416 H 985.796 3.56762 6.71286 0
M  V30 10417 N 987.371 -1.57444 0.0701946 0
M  V30 10418 C 988.62 -1.92605 -0.598849 0
M  V30 10419 C 988.933 -0.952058 -1.70866 0
M  V30 10420 O 990.139 -1.19643 -2.43716 0
M  V30 10421 C 988.595 -3.42142 -1.11655 0
M  V30 10422 C 988.203 -4.47984 -0.0378355 0
M  V30 10423 C 989.947 -3.86307 -1.75975 0
M  V30 10424 C 987.854 -5.88652 -0.569495 0
M  V30 10425 H 986.784 -0.718873 -0.22746 0
M  V30 10426 H 989.435 -1.82948 0.14217 0
M  V30 10427 H 987.817 -3.46866 -1.91049 0
M  V30 10428 H 988.991 -4.54874 0.736661 0
M  V30 10429 H 987.306 -4.13277 0.50904 0
M  V30 10430 H 989.903 -4.88784 -2.16782 0
M  V30 10431 H 990.246 -3.23587 -2.61911 0
M  V30 10432 H 990.779 -3.84179 -1.03206 0
M  V30 10433 H 987.518 -6.55013 0.252662 0
M  V30 10434 H 987.038 -5.85285 -1.31155 0
M  V30 10435 H 988.717 -6.38482 -1.04641 0
M  V30 10436 N 988.849 0.203349 -1.56283 0
M  V30 10437 C 990.097 0.923183 -1.79782 0
M  V30 10438 C 990.418 1.84134 -0.64185 0
M  V30 10439 O 989.688 1.92922 0.340292 0
M  V30 10440 H 988.268 0.343881 -0.66314 0
M  V30 10441 H 990.93 0.210837 -1.93756 0
M  V30 10442 H 990.026 1.51921 -2.72629 0
M  V30 10443 N 990.327 1.50405 0.470755 0
M  V30 10444 C 991.237 1.7208 1.59454 0
M  V30 10445 C 992.253 0.603932 1.63183 0
M  V30 10446 O 993.429 0.882296 1.81046 0
M  V30 10447 C 990.494 1.81057 2.95667 0
M  V30 10448 C 989.555 3.04792 3.02324 0
M  V30 10449 C 988.788 3.13332 4.3204 0
M  V30 10450 O 989.011 2.28655 5.22564 0
M  V30 10451 O 987.945 4.0606 4.44296 0
M  V30 10452 H 991.771 2.67343 1.44089 0
M  V30 10453 H 989.356 1.34505 0.650286 0
M  V30 10454 H 991.238 1.8914 3.76569 0
M  V30 10455 H 989.913 0.889782 3.11231 0
M  V30 10456 H 988.82 3.0221 2.205 0
M  V30 10457 H 990.153 3.96451 2.91698 0
M  V30 10458 N 991.805 -0.723954 1.39988 0
M  V30 10459 C 993.216 -1.30273 1.33738 0
M  V30 10460 C 993.567 -1.96199 0.00690581 0
M  V30 10461 O 992.692 -1.97016 -0.895179 0
M  V30 10462 C 993.287 -2.36889 2.42217 0
M  V30 10463 C 991.846 -2.90412 2.39453 0
M  V30 10464 C 990.993 -1.64103 2.2353 0
M  V30 10465 H 993.944 -0.520672 1.49916 0
M  V30 10466 H 993.965 -3.17538 2.09642 0
M  V30 10467 H 993.477 -1.88878 3.39038 0
M  V30 10468 H 991.578 -3.42674 1.46304 0
M  V30 10469 H 991.691 -3.42775 3.34727 0
M  V30 10470 H 990.055 -1.88855 1.70897 0
M  V30 10471 H 990.838 -1.18128 3.22336 0
M  V30 10472 N 993.283 -1.25346 -0.955304 0
M  V30 10473 C 994.215 -1.0146 -2.0552 0
M  V30 10474 C 995.228 0.0202256 -1.62787 0
M  V30 10475 O 996.417 -0.218251 -1.77161 0
M  V30 10476 C 993.517 -0.511727 -3.35014 0
M  V30 10477 C 992.69 -1.61256 -4.0659 0
M  V30 10478 C 991.749 -1.11017 -5.14356 0
M  V30 10479 O 990.775 -1.80443 -5.39842 0
M  V30 10480 N 991.977 0.0489001 -5.80479 0
M  V30 10481 H 994.742 -1.96166 -2.26581 0
M  V30 10482 H 992.303 -1.16543 -1.12381 0
M  V30 10483 H 994.295 -0.160123 -4.04383 0
M  V30 10484 H 992.865 0.341377 -3.1073 0
M  V30 10485 H 992.085 -2.13577 -3.31328 0
M  V30 10486 H 993.373 -2.35213 -4.51168 0
M  V30 10487 H 992.771 0.629021 -5.62192 0
M  V30 10488 H 991.328 0.341542 -6.50905 0
M  V30 10489 N 994.761 1.15782 -1.06922 0
M  V30 10490 C 996.038 1.8253 -0.703 0
M  V30 10491 C 996.418 1.94733 0.814994 0
M  V30 10492 O 995.766 1.49537 1.72774 0
M  V30 10493 C 995.976 3.19145 -1.41234 0
M  V30 10494 C 997.324 3.94839 -1.56164 0
M  V30 10495 O 998.348 3.28685 -1.37277 0
M  V30 10496 O 997.207 5.13436 -1.87205 0
M  V30 10497 H 994.301 0.788425 -0.24963 0
M  V30 10498 H 996.847 1.22931 -1.16988 0
M  V30 10499 H 995.619 3.05336 -2.44715 0
M  V30 10500 H 995.242 3.86427 -0.935959 0
M  V30 10501 N 996.239 0.8527 1.3254 0
M  V30 10502 C 997.485 0.46507 1.98012 0
M  V30 10503 C 997.84 -0.968179 1.66265 0
M  V30 10504 O 997.133 -1.66985 0.9395 0
M  V30 10505 C 997.327 0.638757 3.51646 0
M  V30 10506 C 997.156 2.08734 3.98322 0
M  V30 10507 C 995.926 2.72544 4.25497 0
M  V30 10508 C 998.124 3.0577 4.13533 0
M  V30 10509 N 996.106 4.08333 4.58408 0
M  V30 10510 C 997.477 4.26542 4.49958 0
M  V30 10511 C 999.532 3.01991 3.95861 0
M  V30 10512 C 998.235 5.4403 4.70557 0
M  V30 10513 C 1000.26 4.18722 4.17643 0
M  V30 10514 C 999.623 5.38252 4.54383 0
M  V30 10515 H 995.722 0.218881 0.750743 0
M  V30 10516 H 998.306 1.10368 1.60397 0
M  V30 10517 H 996.477 0.0298629 3.88389 0
M  V30 10518 H 998.209 0.221215 4.04095 0
M  V30 10519 H 994.964 2.23594 4.17496 0
M  V30 10520 H 995.388 4.78372 4.79051 0
M  V30 10521 H 1000.03 2.107 3.66559 0
M  V30 10522 H 997.748 6.35854 4.98714 0
M  V30 10523 H 1001.33 4.17232 4.05474 0
M  V30 10524 H 1000.21 6.27075 4.709 0
M  V30 10525 N 997.718 -1.45297 0.610449 0
M  V30 10526 C 998.946 -2.0659 0.113211 0
M  V30 10527 C 999.361 -1.4546 -1.20361 0
M  V30 10528 O 998.718 -0.569823 -1.73376 0
M  V30 10529 C 998.769 -3.61488 -0.0298411 0
M  V30 10530 O 998.49 -4.20336 1.23488 0
M  V30 10531 C 999.991 -4.39772 -0.558202 0
M  V30 10532 H 997.211 -0.667322 0.0701555 0
M  V30 10533 H 999.755 -1.86497 0.838993 0
M  V30 10534 H 997.91 -3.80913 -0.705963 0
M  V30 10535 H 998.324 -5.13545 1.0664 0
M  V30 10536 H 999.798 -5.48648 -0.607375 0
M  V30 10537 H 1000.27 -4.09755 -1.58107 0
M  V30 10538 H 1000.88 -4.25217 0.0839704 0
M  V30 10539 N 999.196 -0.349774 -1.5367 0
M  V30 10540 C 1000.44 0.245095 -2.02925 0
M  V30 10541 C 1000.8 1.4727 -1.23189 0
M  V30 10542 O 1002 2.14215 -1.62374 0
M  V30 10543 C 1000.27 0.545392 -3.53214 0
M  V30 10544 S 1001.83 1.11619 -4.24366 0
M  V30 10545 H 998.649 0.0725368 -0.70729 0
M  V30 10546 H 1001.25 -0.488979 -1.89286 0
M  V30 10547 H 999.955 -0.355786 -4.08855 0
M  V30 10548 H 999.486 1.30897 -3.70985 0
M  V30 10549 H 1001.5 2.40151 -4.34214 0
M  V30 10550 N 1000.67 1.57404 -0.0785433 0
M  V30 10551 C 1002.09 1.57158 0.2781 0
M  V30 10552 C 1002.29 1.08847 1.69572 0
M  V30 10553 O 1001.35 0.757407 2.40873 0
M  V30 10554 C 1002.66 3.00589 0.0816067 0
M  V30 10555 C 1004.21 3.12637 0.150627 0
M  V30 10556 C 1004.68 4.57997 -0.0176685 0
M  V30 10557 N 1006.17 4.63185 0.0377145 0
M  V30 10558 C 1006.91 5.7336 -0.0679907 0
M  V30 10559 N 1006.4 6.92426 -0.227598 0
M  V30 10560 N 1008.2 5.62099 -0.0104424 0
M  V30 10561 H 1000.35 1.87121 -1.00496 0
M  V30 10562 H 1002.61 0.862937 -0.392484 0
M  V30 10563 H 1002.32 3.40072 -0.896869 0
M  V30 10564 H 1002.19 3.67931 0.831046 0
M  V30 10565 H 1004.58 2.73037 1.11959 0
M  V30 10566 H 1004.66 2.4792 -0.630028 0
M  V30 10567 H 1004.3 4.98288 -0.983431 0
M  V30 10568 H 1004.23 5.20754 0.782475 0
M  V30 10569 H 1006.72 3.77564 0.159208 0
M  V30 10570 H 1007.04 7.72217 -0.300217 0
M  V30 10571 H 1005.38 6.94502 -0.263049 0
M  V30 10572 H 1008.57 4.67964 0.112999 0
M  V30 10573 H 1008.75 6.47928 -0.0962747 0
M  V30 10574 N 1002.15 -0.195058 1.56388 0
M  V30 10575 C 1003.08 -1.24444 1.97575 0
M  V30 10576 C 1004.06 -1.47471 0.847717 0
M  V30 10577 O 1005.25 -1.59208 1.11205 0
M  V30 10578 C 1002.38 -2.58866 2.31529 0
M  V30 10579 C 1001.33 -2.50451 3.47071 0
M  V30 10580 C 1000.66 -3.89146 3.667 0
M  V30 10581 C 1001.96 -2.02953 4.81256 0
M  V30 10582 H 1003.65 -0.902178 2.85484 0
M  V30 10583 H 1001.2 -0.43254 1.3735 0
M  V30 10584 H 1003.15 -3.3246 2.58936 0
M  V30 10585 H 1001.87 -2.94833 1.40502 0
M  V30 10586 H 1000.53 -1.79313 3.19754 0
M  V30 10587 H 1000.18 -4.22466 2.73004 0
M  V30 10588 H 999.882 -3.84391 4.44429 0
M  V30 10589 H 1001.41 -4.64363 3.96484 0
M  V30 10590 H 1002.82 -2.66306 5.07695 0
M  V30 10591 H 1001.22 -2.092 5.62455 0
M  V30 10592 H 1002.29 -0.982757 4.74837 0
M  V30 10593 N 1003.63 -1.50653 -0.462772 0
M  V30 10594 C 1005.05 -1.38263 -0.797213 0
M  V30 10595 C 1005.25 -0.445172 -1.96521 0
M  V30 10596 O 1004.3 0.10913 -2.52264 0
M  V30 10597 C 1005.61 -2.798 -1.10146 0
M  V30 10598 C 1007.16 -2.88774 -1.20742 0
M  V30 10599 C 1007.64 -4.31163 -1.54476 0
M  V30 10600 N 1009.13 -4.34152 -1.61451 0
M  V30 10601 C 1009.86 -5.4133 -1.89074 0
M  V30 10602 N 1009.36 -6.58705 -2.1466 0
M  V30 10603 N 1011.15 -5.28783 -1.90645 0
M  V30 10604 H 1003.3 -2.10172 0.30684 0
M  V30 10605 H 1005.57 -0.945046 0.0747862 0
M  V30 10606 H 1005.27 -3.50276 -0.316207 0
M  V30 10607 H 1005.15 -3.17559 -2.03559 0
M  V30 10608 H 1007.53 -2.18512 -1.98334 0
M  V30 10609 H 1007.61 -2.54547 -0.252904 0
M  V30 10610 H 1007.26 -5.01965 -0.774207 0
M  V30 10611 H 1007.19 -4.62883 -2.51092 0
M  V30 10612 H 1009.68 -3.49519 -1.43684 0
M  V30 10613 H 1009.99 -7.36192 -2.35035 0
M  V30 10614 H 1008.34 -6.61866 -2.12035 0
M  V30 10615 H 1011.53 -4.36078 -1.70158 0
M  V30 10616 H 1011.7 -6.12396 -2.11836 0
M  V30 10617 N 1005.11 0.71652 -1.4037 0
M  V30 10618 C 1006.04 1.84138 -1.36477 0
M  V30 10619 C 1007.05 1.6054 -0.27033 0
M  V30 10620 O 1008.24 1.70431 -0.530612 0
M  V30 10621 C 1005.34 3.20523 -1.10082 0
M  V30 10622 C 1004.52 3.71326 -2.31162 0
M  V30 10623 C 1003.57 4.86322 -2.00942 0
M  V30 10624 O 1002.6 4.99022 -2.73799 0
M  V30 10625 N 1003.8 5.72051 -0.986812 0
M  V30 10626 H 1006.57 1.87977 -2.3342 0
M  V30 10627 H 1004.13 0.89802 -1.34712 0
M  V30 10628 H 1006.12 3.95049 -0.878526 0
M  V30 10629 H 1004.69 3.11838 -0.21809 0
M  V30 10630 H 1003.91 2.87941 -2.69227 0
M  V30 10631 H 1005.2 4.02003 -3.11883 0
M  V30 10632 H 1004.6 5.64399 -0.383381 0
M  V30 10633 H 1003.15 6.46565 -0.824419 0
M  V30 10634 N 1006.59 1.25851 0.948643 0
M  V30 10635 C 1008 1.09975 1.50872 0
M  V30 10636 C 1008.35 -0.322497 1.93531 0
M  V30 10637 O 1007.47 -1.21316 1.79197 0
M  V30 10638 C 1008.07 1.99021 2.74182 0
M  V30 10639 C 1006.63 1.87313 3.26483 0
M  V30 10640 C 1005.77 1.92815 1.99293 0
M  V30 10641 H 1008.73 1.3905 0.764908 0
M  V30 10642 H 1008.75 1.53372 3.4822 0
M  V30 10643 H 1008.26 3.02527 2.43103 0
M  V30 10644 H 1006.36 0.867136 3.62369 0
M  V30 10645 H 1006.47 2.72446 3.94094 0
M  V30 10646 H 1004.84 1.36774 2.1486 0
M  V30 10647 H 1005.62 2.97936 1.70554 0
M  V30 10648 N 1008.06 -1.15214 1.07534 0
M  V30 10649 C 1009.03 -2.18209 0.701237 0
M  V30 10650 C 1010.03 -1.58693 -0.25946 0
M  V30 10651 O 1011.22 -1.74154 -0.0401744 0
M  V30 10652 C 1008.35 -3.40883 0.0338703 0
M  V30 10653 H 1009.54 -2.5282 1.61314 0
M  V30 10654 H 1007.1 -1.29707 0.872105 0
M  V30 10655 H 1007.83 -3.11843 -0.890187 0
M  V30 10656 H 1007.62 -3.85342 0.72486 0
M  V30 10657 H 1009.11 -4.17056 -0.213152 0
M  V30 10658 N 1009.54 -0.859717 -1.32086 0
M  V30 10659 C 1010.79 -0.465581 -1.97075 0
M  V30 10660 C 1011.12 0.979917 -1.68012 0
M  V30 10661 O 1010.37 1.70337 -0.96353 0
M  V30 10662 C 1010.67 -0.657397 -3.51302 0
M  V30 10663 C 1010.34 -2.07413 -4.00363 0
M  V30 10664 C 1009 -2.4616 -4.13472 0
M  V30 10665 C 1011.35 -2.99855 -4.26305 0
M  V30 10666 C 1008.68 -3.76611 -4.49868 0
M  V30 10667 C 1011.03 -4.2981 -4.64161 0
M  V30 10668 C 1009.7 -4.68485 -4.75476 0
M  V30 10669 H 1008.97 -0.170368 -0.721149 0
M  V30 10670 H 1011.61 -1.09074 -1.57401 0
M  V30 10671 H 1009.92 0.0509638 -3.91767 0
M  V30 10672 H 1011.61 -0.332416 -3.9962 0
M  V30 10673 H 1008.2 -1.76327 -3.90649 0
M  V30 10674 H 1012.39 -2.7115 -4.15682 0
M  V30 10675 H 1007.64 -4.06352 -4.56824 0
M  V30 10676 H 1011.82 -5.015 -4.83188 0
M  V30 10677 H 1009.45 -5.69612 -5.03435 0
M  V30 10678 N 1011.02 1.44971 -0.618145 0
M  V30 10679 C 1012.27 2.0176 -0.11725 0
M  V30 10680 C 1012.59 1.48773 1.26062 0
M  V30 10681 O 1011.86 0.686152 1.83491 0
M  V30 10682 H 1010.44 0.745909 -0.0403545 0
M  V30 10683 H 1013.1 1.77638 -0.801923 0
M  V30 10684 H 1012.2 3.1201 -0.0750477 0
M  V30 10685 N 1012.5 0.357919 1.53482 0
M  V30 10686 C 1013.75 -0.235241 2.00324 0
M  V30 10687 C 1014.06 -1.50494 1.24944 0
M  V30 10688 O 1015.27 -2.17623 1.62335 0
M  V30 10689 C 1013.72 -0.469748 3.56821 0
M  V30 10690 C 1013.33 0.784877 4.41071 0
M  V30 10691 C 1015.07 -1.02098 4.12039 0
M  V30 10692 C 1012.98 0.520377 5.89106 0
M  V30 10693 H 1011.91 -0.0916816 0.748405 0
M  V30 10694 H 1014.56 0.475474 1.77233 0
M  V30 10695 H 1012.94 -1.24153 3.76035 0
M  V30 10696 H 1014.12 1.55886 4.33631 0
M  V30 10697 H 1012.43 1.25878 3.96918 0
M  V30 10698 H 1015.03 -1.23406 5.20264 0
M  V30 10699 H 1015.37 -1.98084 3.66154 0
M  V30 10700 H 1015.91 -0.309554 3.96594 0
M  V30 10701 H 1012.65 1.45035 6.39254 0
M  V30 10702 H 1012.17 -0.215254 5.99414 0
M  V30 10703 H 1013.84 0.143006 6.46842 0
M  V30 10704 N 1013.98 -1.5736 0.0868897 0
M  V30 10705 C 1015.2 -1.98809 -0.590757 0
M  V30 10706 C 1015.63 -0.965407 -1.61436 0
M  V30 10707 O 1014.98 0.067143 -1.81176 0
M  V30 10708 C 1015.03 -3.39249 -1.22238 0
M  V30 10709 O 1014.14 -3.39706 -2.33824 0
M  V30 10710 H 1013.48 -0.64669 -0.150626 0
M  V30 10711 H 1016.01 -2.03927 0.165873 0
M  V30 10712 H 1016.02 -3.76765 -1.56564 0
M  V30 10713 H 1014.69 -4.13208 -0.472434 0
M  V30 10714 H 1013.27 -3.13977 -2.01178 0
M  V30 10715 N 1015.45 0.186762 -1.56489 0
M  V30 10716 C 1016.7 0.905852 -1.81109 0
M  V30 10717 C 1017.03 1.82906 -0.661477 0
M  V30 10718 O 1016.28 1.92504 0.35226 0
M  V30 10719 C 1016.58 1.74719 -3.11782 0
M  V30 10720 C 1016.25 0.974238 -4.40249 0
M  V30 10721 C 1014.91 0.760856 -4.75147 0
M  V30 10722 C 1017.26 0.430971 -5.19415 0
M  V30 10723 C 1014.59 -0.00714216 -5.867 0
M  V30 10724 C 1016.94 -0.323859 -6.3177 0
M  V30 10725 C 1015.61 -0.548183 -6.65245 0
M  V30 10726 H 1014.88 0.331475 -0.662726 0
M  V30 10727 H 1017.52 0.171703 -1.90729 0
M  V30 10728 H 1015.83 2.55027 -2.97437 0
M  V30 10729 H 1017.53 2.30634 -3.28038 0
M  V30 10730 H 1014.12 1.15057 -4.12868 0
M  V30 10731 H 1018.3 0.583205 -4.92861 0
M  V30 10732 H 1013.56 -0.190832 -6.11102 0
M  V30 10733 H 1017.73 -0.752155 -6.92326 0
M  V30 10734 H 1015.36 -1.14518 -7.51525 0
M  V30 10735 N 1016.93 1.50896 0.454776 0
M  V30 10736 C 1018.18 1.6294 1.20741 0
M  V30 10737 C 1018.51 0.336339 1.91265 0
M  V30 10738 O 1017.79 -0.663153 1.82846 0
M  V30 10739 C 1018.07 2.82092 2.23822 0
M  V30 10740 C 1017.92 4.21326 1.57495 0
M  V30 10741 C 1019.24 2.96777 3.24979 0
M  V30 10742 H 1016.36 0.59302 0.437603 0
M  V30 10743 H 1019 1.83331 0.498959 0
M  V30 10744 H 1017.15 2.64837 2.84243 0
M  V30 10745 H 1018.82 4.50209 1.00546 0
M  V30 10746 H 1017.07 4.24829 0.877664 0
M  V30 10747 H 1017.74 5.00656 2.32482 0
M  V30 10748 H 1020.21 3.12627 2.74597 0
M  V30 10749 H 1019.09 3.81742 3.94416 0
M  V30 10750 H 1019.35 2.08091 3.90065 0
M  V30 10751 N 1018.41 -0.709066 1.40748 0
M  V30 10752 C 1019.34 -1.83583 1.4429 0
M  V30 10753 C 1020.32 -1.67378 0.303067 0
M  V30 10754 O 1021.51 -1.87312 0.512612 0
M  V30 10755 C 1018.64 -3.21599 1.31116 0
M  V30 10756 C 1017.59 -3.52486 2.4277 0
M  V30 10757 C 1016.92 -4.89716 2.14668 0
M  V30 10758 C 1018.22 -3.52824 3.85113 0
M  V30 10759 H 1019.91 -1.80876 2.38588 0
M  V30 10760 H 1017.46 -0.868795 1.14839 0
M  V30 10761 H 1019.41 -4.00123 1.32209 0
M  V30 10762 H 1018.13 -3.24898 0.332965 0
M  V30 10763 H 1016.79 -2.76305 2.40937 0
M  V30 10764 H 1016.44 -4.89625 1.15224 0
M  V30 10765 H 1016.14 -5.11347 2.89478 0
M  V30 10766 H 1017.66 -5.70566 2.17455 0
M  V30 10767 H 1019.08 -4.21377 3.88734 0
M  V30 10768 H 1017.48 -3.85984 4.59496 0
M  V30 10769 H 1018.55 -2.52073 4.14231 0
M  V30 10770 N 1019.89 -1.26353 -0.941956 0
M  V30 10771 C 1021.13 -1.13071 -1.70277 0
M  V30 10772 C 1021.49 0.320699 -1.89303 0
M  V30 10773 O 1022.69 0.575624 -2.62564 0
M  V30 10774 C 1020.97 -1.87777 -3.04096 0
M  V30 10775 S 1022.52 -1.9054 -3.95272 0
M  V30 10776 H 1019.34 -0.403912 -0.585129 0
M  V30 10777 H 1021.94 -1.6006 -1.12254 0
M  V30 10778 H 1020.65 -2.92447 -2.87929 0
M  V30 10779 H 1020.18 -1.41226 -3.67177 0
M  V30 10780 H 1022.19 -0.991548 -4.86192 0
M  V30 10781 N 1021.37 1.14642 -1.08144 0
M  V30 10782 C 1022.62 1.84964 -0.804437 0
M  V30 10783 C 1022.93 1.8369 0.672106 0
M  V30 10784 O 1024.14 2.49775 1.06417 0
M  V30 10785 C 1022.59 3.32015 -1.38904 0
M  V30 10786 C 1022.2 3.41713 -2.89718 0
M  V30 10787 C 1023.94 4.07467 -1.19041 0
M  V30 10788 C 1021.85 4.82958 -3.41329 0
M  V30 10789 H 1020.78 0.692932 -0.297256 0
M  V30 10790 H 1023.43 1.29255 -1.30251 0
M  V30 10791 H 1021.81 3.87445 -0.818679 0
M  V30 10792 H 1022.99 2.96347 -3.52867 0
M  V30 10793 H 1021.3 2.79713 -3.08463 0
M  V30 10794 H 1023.9 5.1172 -1.55069 0
M  V30 10795 H 1024.24 4.16097 -0.130027 0
M  V30 10796 H 1024.78 3.58329 -1.72757 0
M  V30 10797 H 1021.51 4.79515 -4.46929 0
M  V30 10798 H 1021.03 5.28873 -2.82937 0
M  V30 10799 H 1022.71 5.51841 -3.37759 0
M  V30 10800 N 1022.85 0.866709 1.31628 0
M  V30 10801 C 1024.07 0.48956 2.01539 0
M  V30 10802 C 1024.5 -0.909556 1.64647 0
M  V30 10803 O 1023.85 -1.59959 0.853391 0
M  V30 10804 C 1023.9 0.650176 3.5469 0
M  V30 10805 O 1023.01 -0.311908 4.11219 0
M  V30 10806 H 1022.35 0.195144 0.634677 0
M  V30 10807 H 1024.88 1.16923 1.679 0
M  V30 10808 H 1024.89 0.542236 4.04381 0
M  V30 10809 H 1023.56 1.67038 3.80882 0
M  V30 10810 H 1022.14 -0.159197 3.7256 0
M  V30 10811 N 1024.32 -1.44642 0.625825 0
M  V30 10812 C 1025.56 -2.03977 0.131444 0
M  V30 10813 C 1025.93 -1.48122 -1.22163 0
M  V30 10814 O 1027.13 -1.98926 -1.80781 0
M  V30 10815 C 1025.4 -3.57224 0.112032 0
M  V30 10816 S 1026.96 -4.37643 -0.318501 0
M  V30 10817 H 1023.78 -0.70859 0.0584859 0
M  V30 10818 H 1026.38 -1.77099 0.828024 0
M  V30 10819 H 1025.08 -3.95383 1.10001 0
M  V30 10820 H 1024.61 -3.88705 -0.605965 0
M  V30 10821 H 1026.63 -4.70909 -1.56393 0
M  V30 10822 N 1025.8 -0.366053 -1.5329 0
M  V30 10823 C 1027.05 0.224614 -2.00445 0
M  V30 10824 C 1027.36 1.49829 -1.2574 0
M  V30 10825 O 1028.57 2.16759 -1.63487 0
M  V30 10826 C 1027.03 0.450818 -3.57065 0
M  V30 10827 C 1026.63 -0.808257 -4.40649 0
M  V30 10828 C 1028.38 0.999116 -4.12575 0
M  V30 10829 C 1026.28 -0.551612 -5.88822 0
M  V30 10830 H 1025.21 0.0877114 -0.748881 0
M  V30 10831 H 1027.87 -0.484866 -1.76978 0
M  V30 10832 H 1026.25 1.22157 -3.76688 0
M  V30 10833 H 1027.42 -1.58184 -4.32798 0
M  V30 10834 H 1025.74 -1.27981 -3.96245 0
M  V30 10835 H 1028.33 1.20646 -5.20911 0
M  V30 10836 H 1028.68 1.96139 -3.67199 0
M  V30 10837 H 1029.21 0.288518 -3.96752 0
M  V30 10838 H 1025.95 -1.48423 -6.38475 0
M  V30 10839 H 1025.47 0.183462 -5.99519 0
M  V30 10840 H 1027.15 -0.177307 -6.46757 0
M  V30 10841 N 1027.28 1.57312 -0.0952337 0
M  V30 10842 C 1028.21 2.17056 0.860753 0
M  V30 10843 C 1029.19 1.10394 1.29411 0
M  V30 10844 O 1030.38 1.38532 1.36098 0
M  V30 10845 C 1027.51 2.751 2.11984 0
M  V30 10846 C 1026.46 3.87136 1.8251 0
M  V30 10847 C 1025.79 4.31883 3.15247 0
M  V30 10848 C 1027.09 5.10326 1.11194 0
M  V30 10849 H 1028.78 2.97192 0.362983 0
M  V30 10850 H 1026.33 1.42955 0.173151 0
M  V30 10851 H 1028.28 3.15547 2.79299 0
M  V30 10852 H 1027 1.92219 2.64044 0
M  V30 10853 H 1025.66 3.47229 1.17592 0
M  V30 10854 H 1025.31 3.45893 3.65195 0
M  V30 10855 H 1025.01 5.0742 2.96309 0
M  V30 10856 H 1026.53 4.74964 3.83721 0
M  V30 10857 H 1027.95 5.47942 1.6862 0
M  V30 10858 H 1026.34 5.91293 1.02435 0
M  V30 10859 H 1027.41 4.84807 0.0947227 0
M  V30 10860 N 1028.76 -0.17846 1.56586 0
M  V30 10861 C 1030 -0.897562 1.81856 0
M  V30 10862 C 1030.34 -1.82204 0.671955 0
M  V30 10863 O 1029.61 -1.91739 -0.326535 0
M  V30 10864 C 1029.89 -1.69942 3.17477 0
M  V30 10865 C 1029.75 -0.798545 4.42655 0
M  V30 10866 C 1031.07 -2.66861 3.49962 0
M  V30 10867 H 1028.19 -0.324863 0.661539 0
M  V30 10868 H 1030.83 -0.164106 1.8929 0
M  V30 10869 H 1028.98 -2.32471 3.11271 0
M  V30 10870 H 1030.65 -0.18668 4.60922 0
M  V30 10871 H 1028.89 -0.106181 4.3367 0
M  V30 10872 H 1029.56 -1.39496 5.34083 0
M  V30 10873 H 1032.04 -2.1446 3.56576 0
M  V30 10874 H 1030.92 -3.20037 4.45946 0
M  V30 10875 H 1031.18 -3.46715 2.74301 0
M  V30 10876 N 1030.24 -1.51135 -0.446768 0
M  V30 10877 C 1031.18 -1.71767 -1.54158 0
M  V30 10878 C 1032.15 -0.559201 -1.56404 0
M  V30 10879 O 1033.34 -0.792567 -1.7356 0
M  V30 10880 C 1030.48 -1.84006 -2.91952 0
M  V30 10881 C 1029.59 -3.11511 -2.99308 0
M  V30 10882 C 1028.73 -3.144 -4.28166 0
M  V30 10883 C 1027.76 -4.36258 -4.29355 0
M  V30 10884 N 1026.9 -4.3675 -5.49722 0
M  V30 10885 H 1031.74 -2.65224 -1.35869 0
M  V30 10886 H 1029.28 -1.31453 -0.660186 0
M  V30 10887 H 1031.24 -1.89083 -3.71892 0
M  V30 10888 H 1029.87 -0.939661 -3.08821 0
M  V30 10889 H 1028.92 -3.15788 -2.12089 0
M  V30 10890 H 1030.23 -4.01445 -2.96047 0
M  V30 10891 H 1029.38 -3.18341 -5.16473 0
M  V30 10892 H 1028.12 -2.22338 -4.3407 0
M  V30 10893 H 1027.13 -4.32503 -3.39442 0
M  V30 10894 H 1028.35 -5.29574 -4.25122 0
M  V30 10895 H 1026.3 -3.47554 -5.56365 0
M  V30 10896 H 1026.22 -5.20481 -5.48302 0
M  V30 10897 H 1027.48 -4.4487 -6.40086 0
M  V30 10898 N 1031.71 0.701592 -1.41122 0
M  V30 10899 C 1032.94 1.49049 -1.43499 0
M  V30 10900 C 1033.36 1.88761 -0.0385684 0
M  V30 10901 O 1032.71 1.56384 0.940755 0
M  V30 10902 C 1032.76 2.7569 -2.33832 0
M  V30 10903 O 1032.49 2.37653 -3.68039 0
M  V30 10904 C 1033.99 3.69479 -2.44949 0
M  V30 10905 H 1031.21 0.459519 -0.488961 0
M  V30 10906 H 1033.75 0.864318 -1.85337 0
M  V30 10907 H 1031.91 3.34559 -1.95318 0
M  V30 10908 H 1032.32 3.19241 -4.16156 0
M  V30 10909 H 1033.79 4.55139 -3.12334 0
M  V30 10910 H 1034.27 4.13553 -1.47887 0
M  V30 10911 H 1034.88 3.16517 -2.84072 0
M  V30 10912 N 1033.19 1.2685 0.935242 0
M  V30 10913 C 1034.14 1.08746 2.05614 0
M  V30 10914 C 1035.13 0.012681 1.69395 0
M  V30 10915 O 1036.34 0.169822 1.79197 0
M  V30 10916 H 1032.71 0.33485 0.673335 0
M  V30 10917 H 1034.69 2.03725 2.18033 0
M  V30 10918 C 1033.43 0.74346 3.39659 0
M  V30 10919 H 1032.76 1.56236 3.68008 0
M  V30 10920 H 1034.2 0.656607 4.18885 0
M  V30 10921 C 1032.66 -0.551751 3.32351 0
M  V30 10922 O 1033.19 -1.58836 3.68963 0
M  V30 10923 N 1031.39 -0.544583 2.85452 0
M  V30 10924 H 1030.94 0.29939 2.55854 0
M  V30 10925 H 1030.9 -1.41129 2.80945 0
M  V30 10926 N 1034.67 -1.14067 1.0875 0
M  V30 10927 C 1036.09 -1.37173 0.815823 0
M  V30 10928 C 1036.29 -1.93175 -0.573215 0
M  V30 10929 O 1035.34 -2.14672 -1.32937 0
M  V30 10930 C 1036.66 -2.32955 1.90138 0
M  V30 10931 C 1038.2 -2.46586 1.9278 0
M  V30 10932 C 1038.68 -3.4567 3.0046 0
M  V30 10933 N 1040.17 -3.53216 2.99655 0
M  V30 10934 C 1040.9 -4.29743 3.79616 0
M  V30 10935 N 1040.4 -5.09484 4.69466 0
M  V30 10936 N 1042.19 -4.24975 3.67903 0
M  V30 10937 H 1034.34 -0.760648 1.98313 0
M  V30 10938 H 1036.61 -0.397135 0.860807 0
M  V30 10939 H 1036.31 -1.98949 2.90021 0
M  V30 10940 H 1036.19 -3.32897 1.77368 0
M  V30 10941 H 1038.57 -2.79882 0.935404 0
M  V30 10942 H 1038.66 -1.46593 2.09629 0
M  V30 10943 H 1038.3 -3.13106 3.99909 0
M  V30 10944 H 1038.23 -4.45452 2.80856 0
M  V30 10945 H 1040.72 -2.96314 2.34535 0
M  V30 10946 H 1041.03 -5.65163 5.27077 0
M  V30 10947 H 1039.38 -5.08741 4.73506 0
M  V30 10948 H 1042.57 -3.61751 2.97075 0
M  V30 10949 H 1042.74 -4.84364 4.30459 0
M  V30 10950 N 1036.15 -0.873678 -1.31166 0
M  V30 10951 C 1037.39 -0.487178 -1.96861 0
M  V30 10952 C 1037.73 0.95887 -1.68877 0
M  V30 10953 O 1037 1.6758 -0.987279 0
M  V30 10954 C 1037.29 -0.74925 -3.52219 0
M  V30 10955 C 1037.14 -2.2451 -3.89763 0
M  V30 10956 C 1038.46 -0.218194 -4.39559 0
M  V30 10957 H 1035.58 -0.178477 -0.715063 0
M  V30 10958 H 1038.22 -1.0956 -1.55231 0
M  V30 10959 H 1036.37 -0.231403 -3.8781 0
M  V30 10960 H 1038.04 -2.83049 -3.64254 0
M  V30 10961 H 1036.28 -2.71621 -3.38237 0
M  V30 10962 H 1036.95 -2.37911 -4.98099 0
M  V30 10963 H 1039.43 -0.661274 -4.10812 0
M  V30 10964 H 1038.31 -0.430983 -5.47205 0
M  V30 10965 H 1038.57 0.880056 -4.33252 0
M  V30 10966 N 1037.63 1.44308 -0.633487 0
M  V30 10967 C 1038.56 2.33431 0.0568402 0
M  V30 10968 C 1039.54 1.48342 0.832386 0
M  V30 10969 O 1040.72 1.77056 0.797798 0
M  V30 10970 C 1037.85 3.31443 1.03743 0
M  V30 10971 C 1036.81 4.26368 0.373362 0
M  V30 10972 C 1036.13 5.14267 1.46403 0
M  V30 10973 C 1037.43 5.17287 -0.721876 0
M  V30 10974 H 1039.13 2.91402 -0.687388 0
M  V30 10975 H 1036.67 1.4012 -0.332009 0
M  V30 10976 H 1038.63 3.92677 1.52913 0
M  V30 10977 H 1037.35 2.71686 1.81258 0
M  V30 10978 H 1036.01 3.6647 -0.0977053 0
M  V30 10979 H 1035.66 4.50861 2.23011 0
M  V30 10980 H 1035.36 5.7859 1.02506 0
M  V30 10981 H 1036.88 5.78373 1.95748 0
M  V30 10982 H 1038.29 5.72444 -0.313181 0
M  V30 10983 H 1036.69 5.90226 -1.08413 0
M  V30 10984 H 1037.76 4.58159 -1.58804 0
M  V30 10985 N 1039.1 0.374177 1.53094 0
M  V30 10986 C 1040.03 -0.459976 2.28925 0
M  V30 10987 C 1041.02 -1.07656 1.31698 0
M  V30 10988 O 1042.2 -1.09219 1.60577 0
M  V30 10989 C 1039.33 -1.5954 3.08487 0
M  V30 10990 C 1038.28 -1.10563 4.13473 0
M  V30 10991 C 1037.61 -2.33196 4.81169 0
M  V30 10992 C 1038.91 -0.184275 5.21975 0
M  V30 10993 H 1040.6 0.172692 2.98902 0
M  V30 10994 H 1038.15 0.0844956 1.43752 0
M  V30 10995 H 1040.1 -2.18565 3.60288 0
M  V30 10996 H 1038.83 -2.25543 2.36216 0
M  V30 10997 H 1037.49 -0.53801 3.62631 0
M  V30 10998 H 1037.13 -2.97675 4.05461 0
M  V30 10999 H 1036.83 -2.01094 5.52119 0
M  V30 11000 H 1038.36 -2.92892 5.35767 0
M  V30 11001 H 1039.77 -0.682262 5.69226 0
M  V30 11002 H 1038.17 0.0462746 6.00082 0
M  V30 11003 H 1039.24 0.771152 4.78729 0
M  V30 11004 N 1040.58 -1.57259 0.103575 0
M  V30 11005 C 1041.83 -1.94945 -0.558953 0
M  V30 11006 C 1042.16 -0.986038 -1.67305 0
M  V30 11007 O 1041.44 -0.0205464 -1.94489 0
M  V30 11008 C 1041.72 -3.42689 -1.10617 0
M  V30 11009 C 1041.57 -4.498 0.00345246 0
M  V30 11010 C 1042.89 -3.91933 -2.00191 0
M  V30 11011 H 1040.01 -0.708859 -0.201713 0
M  V30 11012 H 1042.65 -1.89183 0.176006 0
M  V30 11013 H 1040.8 -3.4773 -1.73251 0
M  V30 11014 H 1042.47 -4.56866 0.638082 0
M  V30 11015 H 1040.72 -4.28615 0.668705 0
M  V30 11016 H 1041.39 -5.50397 -0.420396 0
M  V30 11017 H 1043.86 -3.89098 -1.4745 0
M  V30 11018 H 1042.74 -4.9586 -2.35402 0
M  V30 11019 H 1043 -3.31722 -2.92255 0
M  V30 11020 N 1042.06 0.170153 -1.56679 0
M  V30 11021 C 1043.31 0.886592 -1.8206 0
M  V30 11022 C 1043.64 1.82194 -0.680839 0
M  V30 11023 O 1042.89 1.92866 0.331822 0
M  V30 11024 C 1043.19 1.71402 -3.13618 0
M  V30 11025 C 1042.86 0.927489 -4.41258 0
M  V30 11026 C 1041.52 0.710417 -4.75927 0
M  V30 11027 C 1043.87 0.375855 -5.19843 0
M  V30 11028 C 1041.2 -0.0693691 -5.86659 0
M  V30 11029 C 1043.55 -0.390849 -6.31391 0
M  V30 11030 C 1042.21 -0.61871 -6.64626 0
M  V30 11031 H 1041.48 0.324427 -0.666204 0
M  V30 11032 H 1044.13 0.151464 -1.909 0
M  V30 11033 H 1042.44 2.51858 -3.00125 0
M  V30 11034 H 1044.13 2.27141 -3.30466 0
M  V30 11035 H 1040.72 1.10672 -4.14065 0
M  V30 11036 H 1044.91 0.530897 -4.93452 0
M  V30 11037 H 1040.16 -0.255637 -6.10865 0
M  V30 11038 H 1044.34 -0.825544 -6.9149 0
M  V30 11039 H 1041.96 -1.22482 -7.50268 0
M  V30 11040 N 1043.54 1.5137 0.438746 0
M  V30 11041 C 1044.45 1.75424 1.55768 0
M  V30 11042 C 1045.46 0.638409 1.61865 0
M  V30 11043 O 1046.64 0.9205 1.79133 0
M  V30 11044 C 1043.71 1.87288 2.9176 0
M  V30 11045 C 1042.77 3.11137 2.95791 0
M  V30 11046 C 1042 3.22425 4.25297 0
M  V30 11047 O 1042.22 2.39688 5.17596 0
M  V30 11048 O 1041.16 4.15393 4.35583 0
M  V30 11049 H 1044.98 2.70339 1.38386 0
M  V30 11050 H 1042.57 1.35854 0.621609 0
M  V30 11051 H 1044.45 1.97085 3.72472 0
M  V30 11052 H 1043.12 0.955599 3.09273 0
M  V30 11053 H 1042.03 3.06819 2.1404 0
M  V30 11054 H 1043.36 4.02549 2.83223 0
M  V30 11055 N 1045.02 -0.694098 1.41492 0
M  V30 11056 C 1045.98 -1.78976 1.43179 0
M  V30 11057 C 1046.98 -1.57539 0.322191 0
M  V30 11058 O 1048.17 -1.64185 0.582138 0
M  V30 11059 C 1045.3 -3.17368 1.2446 0
M  V30 11060 H 1046.49 -1.78874 2.40716 0
M  V30 11061 H 1044.05 -0.901867 1.27656 0
M  V30 11062 H 1044.78 -3.23109 0.277691 0
M  V30 11063 H 1044.57 -3.3433 2.04856 0
M  V30 11064 H 1046.06 -3.97345 1.28479 0
M  V30 11065 N 1046.49 -1.27344 -0.928501 0
M  V30 11066 C 1047.44 -1.10001 -2.029 0
M  V30 11067 C 1048.41 -0.00131084 -1.661 0
M  V30 11068 O 1049.6 -0.163485 -1.90098 0
M  V30 11069 C 1046.74 -0.7524 -3.36798 0
M  V30 11070 C 1045.85 -1.92865 -3.86558 0
M  V30 11071 C 1044.98 -1.52299 -5.08899 0
M  V30 11072 C 1044.02 -2.66677 -5.50953 0
M  V30 11073 N 1043.16 -2.26706 -6.64491 0
M  V30 11074 H 1048 -2.0417 -2.17068 0
M  V30 11075 H 1045.54 -1.01637 -1.0634 0
M  V30 11076 H 1047.5 -0.531687 -4.13798 0
M  V30 11077 H 1046.13 0.15234 -3.2244 0
M  V30 11078 H 1045.18 -2.26192 -3.05845 0
M  V30 11079 H 1046.49 -2.78668 -4.13698 0
M  V30 11080 H 1045.64 -1.26348 -5.93398 0
M  V30 11081 H 1044.38 -0.636042 -4.83535 0
M  V30 11082 H 1043.39 -2.93344 -4.65004 0
M  V30 11083 H 1044.61 -3.55992 -5.78313 0
M  V30 11084 H 1042.56 -1.40462 -6.40786 0
M  V30 11085 H 1042.48 -3.06049 -6.91281 0
M  V30 11086 H 1043.74 -2.04 -7.52333 0
M  V30 11087 N 1047.97 1.13488 -1.09353 0
M  V30 11088 C 1049.22 1.841 -0.82401 0
M  V30 11089 C 1049.53 1.84393 0.652586 0
M  V30 11090 O 1050.74 2.5089 1.03762 0
M  V30 11091 C 1049.2 3.30523 -1.42418 0
M  V30 11092 C 1048.8 3.38621 -2.93326 0
M  V30 11093 C 1050.55 4.06182 -1.23356 0
M  V30 11094 C 1048.46 4.79311 -3.46432 0
M  V30 11095 H 1047.39 0.68974 -0.304589 0
M  V30 11096 H 1050.04 1.27866 -1.31615 0
M  V30 11097 H 1048.42 3.86555 -0.859727 0
M  V30 11098 H 1049.59 2.92587 -3.5599 0
M  V30 11099 H 1047.91 2.76426 -3.11412 0
M  V30 11100 H 1050.5 5.10047 -1.60488 0
M  V30 11101 H 1050.85 4.15936 -0.174152 0
M  V30 11102 H 1051.38 3.56477 -1.76547 0
M  V30 11103 H 1048.12 4.74748 -4.5199 0
M  V30 11104 H 1047.64 5.25842 -2.8853 0
M  V30 11105 H 1049.32 5.48227 -3.43593 0
M  V30 11106 N 1049.45 0.880621 1.30701 0
M  V30 11107 C 1050.86 0.547993 1.78477 0
M  V30 11108 C 1051.21 -0.935633 1.72454 0
M  V30 11109 O 1050.34 -1.73094 1.29874 0
M  V30 11110 C 1050.93 0.98795 3.24076 0
M  V30 11111 C 1049.49 0.706805 3.69704 0
M  V30 11112 C 1048.64 1.17335 2.51252 0
M  V30 11113 H 1051.59 1.06528 1.17633 0
M  V30 11114 H 1051.61 0.31508 3.79193 0
M  V30 11115 H 1051.12 2.06778 3.28427 0
M  V30 11116 H 1049.22 -0.36122 3.70845 0
M  V30 11117 H 1049.34 1.2913 4.6137 0
M  V30 11118 H 1047.7 0.592808 2.47705 0
M  V30 11119 H 1048.48 2.26083 2.58343 0
M  V30 11120 N 1050.93 -1.4397 0.641131 0
M  V30 11121 C 1052.16 -2.06303 0.157006 0
M  V30 11122 C 1052.57 -1.47981 -1.17248 0
M  V30 11123 O 1051.93 -0.606471 -1.72128 0
M  V30 11124 C 1051.98 -3.6147 0.0468425 0
M  V30 11125 O 1051.7 -4.17622 1.32376 0
M  V30 11126 C 1053.2 -4.40857 -0.464795 0
M  V30 11127 H 1050.42 -0.665684 0.0842946 0
M  V30 11128 H 1052.97 -1.84675 0.878363 0
M  V30 11129 H 1051.12 -3.82325 -0.625006 0
M  V30 11130 H 1051.54 -5.11167 1.17509 0
M  V30 11131 H 1053.01 -5.49813 -0.490862 0
M  V30 11132 H 1053.49 -4.13016 -1.4938 0
M  V30 11133 H 1054.09 -4.24943 0.174146 0
M  V30 11134 N 1052.41 -0.382291 -1.52893 0
M  V30 11135 C 1053.63 0.204961 -2.06385 0
M  V30 11136 C 1054.06 1.40316 -1.25271 0
M  V30 11137 O 1053.42 1.79187 -0.275969 0
M  V30 11138 C 1053.46 0.560205 -3.56222 0
M  V30 11139 O 1052.57 1.65515 -3.77728 0
M  V30 11140 H 1051.91 0.0258798 -0.663495 0
M  V30 11141 H 1054.44 -0.547733 -1.97132 0
M  V30 11142 H 1054.45 0.826501 -3.99541 0
M  V30 11143 H 1053.12 -0.31584 -4.14699 0
M  V30 11144 H 1051.7 1.38311 -3.46301 0
M  V30 11145 N 1053.89 1.57202 -0.111913 0
M  V30 11146 C 1055.13 1.9495 0.547795 0
M  V30 11147 C 1055.46 0.994763 1.67137 0
M  V30 11148 O 1054.72 0.0173528 1.95692 0
M  V30 11149 C 1055.01 3.39152 1.12741 0
M  V30 11150 C 1054.68 4.50724 0.125916 0
M  V30 11151 C 1053.34 4.80968 -0.149489 0
M  V30 11152 C 1055.69 5.18215 -0.556987 0
M  V30 11153 C 1053.02 5.76023 -1.1142 0
M  V30 11154 C 1055.37 6.14307 -1.51029 0
M  V30 11155 C 1054.04 6.42947 -1.79375 0
M  V30 11156 H 1053.31 0.713372 0.200453 0
M  V30 11157 H 1055.96 1.90542 -0.191316 0
M  V30 11158 H 1054.26 3.4022 1.94313 0
M  V30 11159 H 1055.96 3.65668 1.64584 0
M  V30 11160 H 1052.55 4.27162 0.350756 0
M  V30 11161 H 1056.73 4.95012 -0.357378 0
M  V30 11162 H 1051.99 5.9652 -1.34064 0
M  V30 11163 H 1056.16 6.65692 -2.04516 0
M  V30 11164 H 1053.79 7.1641 -2.54284 0
M  V30 11165 N 1055.36 -0.161842 1.56767 0
M  V30 11166 C 1056.31 -1.20506 1.93552 0
M  V30 11167 C 1057.3 -1.39317 0.804952 0
M  V30 11168 O 1058.49 -1.41129 1.06825 0
M  V30 11169 C 1055.62 -2.54227 2.30702 0
M  V30 11170 C 1054.7 -2.3907 3.50295 0
M  V30 11171 N 1055.1 -1.93642 4.67265 0
M  V30 11172 C 1053.39 -2.69868 3.55088 0
M  V30 11173 C 1054.09 -1.91175 5.49388 0
M  V30 11174 N 1053.07 -2.33935 4.90689 0
M  V30 11175 H 1056.87 -0.845687 2.8147 0
M  V30 11176 H 1054.39 -0.370034 1.58128 0
M  V30 11177 H 1056.38 -3.29623 2.55254 0
M  V30 11178 H 1055.04 -2.90959 1.44128 0
M  V30 11179 H 1056.05 -1.63834 4.91303 0
M  V30 11180 H 1052.73 -3.10574 2.79016 0
M  V30 11181 H 1054.12 -1.57671 6.53138 0
M  V30 11182 N 1056.84 -1.516 -0.430713 0
M  V30 11183 C 1058.26 -1.39923 -0.767706 0
M  V30 11184 C 1058.46 -0.486756 -1.95532 0
M  V30 11185 O 1057.51 0.0555965 -2.52439 0
M  V30 11186 C 1058.83 -2.82074 -1.04187 0
M  V30 11187 C 1060.37 -2.9127 -1.1459 0
M  V30 11188 C 1060.85 -4.34342 -1.45295 0
M  V30 11189 N 1062.34 -4.37479 -1.52206 0
M  V30 11190 C 1063.08 -5.45219 -1.77549 0
M  V30 11191 N 1062.57 -6.6311 -2.0064 0
M  V30 11192 N 1064.36 -5.32707 -1.79386 0
M  V30 11193 H 1056.52 -2.09474 0.351351 0
M  V30 11194 H 1058.78 -0.943247 0.0948151 0
M  V30 11195 H 1058.48 -3.50868 -0.241837 0
M  V30 11196 H 1058.36 -3.21805 -1.96777 0
M  V30 11197 H 1060.75 -2.2267 -1.93655 0
M  V30 11198 H 1060.83 -2.55026 -0.198854 0
M  V30 11199 H 1060.47 -5.03494 -0.667559 0
M  V30 11200 H 1060.4 -4.68105 -2.41217 0
M  V30 11201 H 1062.89 -3.52488 -1.36237 0
M  V30 11202 H 1063.2 -7.41012 -2.19366 0
M  V30 11203 H 1061.55 -6.66214 -1.97948 0
M  V30 11204 H 1064.74 -4.39589 -1.60869 0
M  V30 11205 H 1064.91 -6.16752 -1.98799 0
M  V30 11206 N 1058.32 0.686584 -1.41858 0
M  V30 11207 C 1059.27 1.80038 -1.44413 0
M  V30 11208 C 1060.24 1.63415 -0.297427 0
M  V30 11209 O 1061.42 1.84138 -0.499789 0
M  V30 11210 C 1058.56 3.17988 -1.34082 0
M  V30 11211 C 1057.67 3.45979 -2.58693 0
M  V30 11212 C 1056.81 4.73592 -2.4059 0
M  V30 11213 C 1055.85 4.94581 -3.60633 0
M  V30 11214 N 1054.99 6.13426 -3.41545 0
M  V30 11215 H 1059.83 1.77189 -2.396 0
M  V30 11216 H 1057.36 0.865158 -1.18968 0
M  V30 11217 H 1059.32 3.97689 -1.26092 0
M  V30 11218 H 1057.95 3.1999 -0.424975 0
M  V30 11219 H 1057 2.60617 -2.77097 0
M  V30 11220 H 1058.31 3.57386 -3.47961 0
M  V30 11221 H 1057.47 5.61364 -2.30119 0
M  V30 11222 H 1056.21 4.64448 -1.48794 0
M  V30 11223 H 1055.21 4.05254 -3.71549 0
M  V30 11224 H 1056.44 5.05578 -4.53395 0
M  V30 11225 H 1054.38 6.05477 -2.52456 0
M  V30 11226 H 1054.3 6.25641 -4.24393 0
M  V30 11227 H 1055.57 7.03908 -3.34864 0
M  V30 11228 N 1059.8 1.27835 0.921735 0
M  V30 11229 C 1061.04 1.15702 1.67286 0
M  V30 11230 C 1061.4 -0.293049 1.90155 0
M  V30 11231 O 1060.69 -1.21058 1.48511 0
M  V30 11232 C 1060.89 1.88054 3.03925 0
M  V30 11233 C 1060.71 3.39947 2.94391 0
M  V30 11234 C 1059.48 4.09275 2.96347 0
M  V30 11235 C 1061.68 4.35824 2.7306 0
M  V30 11236 N 1059.66 5.47694 2.77317 0
M  V30 11237 C 1061.04 5.61551 2.62794 0
M  V30 11238 C 1063.09 4.25844 2.57994 0
M  V30 11239 C 1061.79 6.78434 2.38998 0
M  V30 11240 C 1063.82 5.42455 2.35577 0
M  V30 11241 C 1063.18 6.67141 2.26058 0
M  V30 11242 H 1059.28 0.478278 0.618687 0
M  V30 11243 H 1061.86 1.61382 1.08922 0
M  V30 11244 H 1060.04 1.4482 3.60391 0
M  V30 11245 H 1061.77 1.68374 3.68011 0
M  V30 11246 H 1058.52 3.6079 3.06802 0
M  V30 11247 H 1058.95 6.2043 2.70916 0
M  V30 11248 H 1063.59 3.30161 2.64109 0
M  V30 11249 H 1061.31 7.74194 2.31623 0
M  V30 11250 H 1064.89 5.36617 2.24796 0
M  V30 11251 H 1063.77 7.55851 2.08947 0
M  V30 11252 N 1061.28 -1.12907 1.09954 0
M  V30 11253 C 1062.52 -1.84786 0.850039 0
M  V30 11254 C 1062.88 -1.82214 -0.617724 0
M  V30 11255 O 1062.17 -1.25319 -1.44934 0
M  V30 11256 C 1062.36 -3.31885 1.32616 0
M  V30 11257 C 1062.19 -3.48782 2.83868 0
M  V30 11258 C 1060.96 -3.62708 3.51811 0
M  V30 11259 C 1063.16 -3.44367 3.8199 0
M  V30 11260 N 1061.14 -3.67921 4.91434 0
M  V30 11261 C 1062.51 -3.56015 5.07596 0
M  V30 11262 C 1064.57 -3.27801 3.74768 0
M  V30 11263 C 1063.27 -3.52807 6.26833 0
M  V30 11264 C 1065.3 -3.25904 4.93499 0
M  V30 11265 C 1064.66 -3.38108 6.1795 0
M  V30 11266 H 1060.76 -0.692126 0.363986 0
M  V30 11267 H 1063.34 -1.35208 1.40096 0
M  V30 11268 H 1061.51 -3.80016 0.802625 0
M  V30 11269 H 1063.25 -3.91598 1.02142 0
M  V30 11270 H 1060 -3.64613 3.02248 0
M  V30 11271 H 1060.42 -3.74204 5.64181 0
M  V30 11272 H 1065.07 -3.17264 2.7947 0
M  V30 11273 H 1062.78 -3.62116 7.22425 0
M  V30 11274 H 1066.37 -3.14275 4.89615 0
M  V30 11275 H 1065.25 -3.36607 7.08283 0
M  V30 11276 N 1062.75 -0.88754 -1.30232 0
M  V30 11277 C 1064 -0.506277 -1.95656 0
M  V30 11278 C 1064.32 0.948191 -1.70395 0
M  V30 11279 O 1063.59 1.66701 -1.02895 0
M  V30 11280 H 1062.17 -0.184235 -0.723924 0
M  V30 11281 H 1064.83 -1.13118 -1.58715 0
M  V30 11282 H 1063.93 -0.678673 -3.04632 0
M  V30 11283 N 1064.23 1.43628 -0.648757 0
M  V30 11284 C 1065.16 2.33478 0.0320785 0
M  V30 11285 C 1066.14 1.49217 0.816605 0
M  V30 11286 O 1067.33 1.77892 0.778974 0
M  V30 11287 C 1064.46 3.32525 1.00222 0
M  V30 11288 C 1063.41 4.2674 0.328119 0
M  V30 11289 C 1062.74 5.15791 1.4094 0
M  V30 11290 C 1064.04 5.16493 -0.776701 0
M  V30 11291 H 1065.73 2.90657 -0.718257 0
M  V30 11292 H 1063.28 1.3976 -0.346852 0
M  V30 11293 H 1065.23 3.94277 1.4874 0
M  V30 11294 H 1063.96 2.73593 1.78366 0
M  V30 11295 H 1062.61 3.66346 -0.136569 0
M  V30 11296 H 1062.26 4.53201 2.18216 0
M  V30 11297 H 1061.96 5.79645 0.963631 0
M  V30 11298 H 1063.49 5.80416 1.89603 0
M  V30 11299 H 1064.9 5.7208 -0.373878 0
M  V30 11300 H 1063.3 5.89043 -1.14667 0
M  V30 11301 H 1064.37 4.56448 -1.63654 0
M  V30 11302 N 1065.71 0.390394 1.52688 0
M  V30 11303 C 1066.66 -0.4591 2.28024 0
M  V30 11304 C 1067.65 -1.06212 1.31967 0
M  V30 11305 O 1068.86 -1.00247 1.49501 0
M  V30 11306 H 1065.23 -0.16681 0.733266 0
M  V30 11307 H 1067.2 0.197747 2.97744 0
M  V30 11308 C 1065.95 -1.5737 3.10048 0
M  V30 11309 H 1065.28 -1.11901 3.83821 0
M  V30 11310 H 1066.72 -2.1423 3.65898 0
M  V30 11311 C 1065.18 -2.53036 2.22429 0
M  V30 11312 O 1065.71 -3.5647 1.85181 0
M  V30 11313 N 1063.91 -2.22802 1.86567 0
M  V30 11314 H 1063.46 -1.38723 2.17057 0
M  V30 11315 H 1063.42 -2.87061 1.28233 0
M  V30 11316 N 1067.19 -1.57141 0.120249 0
M  V30 11317 C 1068.12 -2.18398 -0.826112 0
M  V30 11318 C 1069.1 -1.12439 -1.27638 0
M  V30 11319 O 1070.28 -1.40679 -1.33877 0
M  V30 11320 C 1067.41 -2.78438 -2.0758 0
M  V30 11321 C 1066.37 -3.89991 -1.76327 0
M  V30 11322 C 1065.69 -4.36844 -3.08336 0
M  V30 11323 C 1066.99 -5.12031 -1.03062 0
M  V30 11324 H 1068.69 -2.97731 -0.315656 0
M  V30 11325 H 1066.23 -1.43213 -0.150387 0
M  V30 11326 H 1068.19 -3.19951 -2.74243 0
M  V30 11327 H 1066.91 -1.96396 -2.60953 0
M  V30 11328 H 1065.57 -3.49055 -1.12053 0
M  V30 11329 H 1065.22 -3.51659 -3.59646 0
M  V30 11330 H 1064.92 -5.1207 -2.88199 0
M  V30 11331 H 1066.44 -4.81009 -3.76116 0
M  V30 11332 H 1067.86 -5.50555 -1.59881 0
M  V30 11333 H 1066.25 -5.92848 -0.930146 0
M  V30 11334 H 1067.32 -4.84897 -0.017582 0
M  V30 11335 N 1068.67 0.153526 -1.5685 0
M  V30 11336 C 1069.6 1.2147 -1.94365 0
M  V30 11337 C 1070.61 1.39532 -0.838726 0
M  V30 11338 O 1071.8 1.39219 -1.11715 0
M  V30 11339 C 1068.9 2.5806 -2.19677 0
M  V30 11340 C 1068.07 2.61062 -3.50949 0
M  V30 11341 C 1067.13 3.79144 -3.64878 0
M  V30 11342 O 1066.16 3.64319 -4.37333 0
M  V30 11343 N 1067.36 4.96333 -3.01054 0
M  V30 11344 H 1070.13 0.895889 -2.85996 0
M  V30 11345 H 1067.69 0.343147 -1.58222 0
M  V30 11346 H 1069.68 3.35553 -2.26243 0
M  V30 11347 H 1068.25 2.8226 -1.34343 0
M  V30 11348 H 1067.47 1.69533 -3.55882 0
M  V30 11349 H 1068.76 2.60094 -4.37297 0
M  V30 11350 H 1068.15 5.1128 -2.42093 0
M  V30 11351 H 1066.71 5.71625 -3.13191 0
M  V30 11352 N 1070.14 1.51827 0.422667 0
M  V30 11353 C 1071.39 1.6522 1.17084 0
M  V30 11354 C 1071.72 0.375508 1.90841 0
M  V30 11355 O 1070.97 -0.641029 1.84903 0
M  V30 11356 C 1071.27 2.81572 2.20119 0
M  V30 11357 C 1070.94 4.20303 1.63268 0
M  V30 11358 C 1069.6 4.5804 1.47488 0
M  V30 11359 C 1071.95 5.06812 1.21618 0
M  V30 11360 C 1069.28 5.79979 0.885531 0
M  V30 11361 C 1071.63 6.29343 0.641071 0
M  V30 11362 C 1070.3 6.65841 0.470286 0
M  V30 11363 H 1069.57 0.604581 0.428442 0
M  V30 11364 H 1072.21 1.85896 0.459874 0
M  V30 11365 H 1070.52 2.55175 2.97309 0
M  V30 11366 H 1072.22 2.89132 2.77856 0
M  V30 11367 H 1068.81 3.90557 1.76531 0
M  V30 11368 H 1072.99 4.78251 1.32624 0
M  V30 11369 H 1068.25 6.06892 0.741105 0
M  V30 11370 H 1072.42 6.9571 0.309888 0
M  V30 11371 H 1070.05 7.60199 0.0115038 0
M  V30 11372 N 1071.62 -0.679052 1.4222 0
M  V30 11373 C 1072.55 -1.80481 1.48152 0
M  V30 11374 C 1073.53 -1.66698 0.338502 0
M  V30 11375 O 1074.72 -1.86183 0.552228 0
M  V30 11376 C 1071.85 -3.18746 1.37908 0
M  V30 11377 C 1070.8 -3.47258 2.50192 0
M  V30 11378 C 1070.13 -4.85052 2.25008 0
M  V30 11379 C 1071.43 -3.44576 3.92511 0
M  V30 11380 H 1073.12 -1.75774 2.42371 0
M  V30 11381 H 1070.67 -0.844241 1.16656 0
M  V30 11382 H 1072.62 -3.97229 1.40666 0
M  V30 11383 H 1071.35 -3.24119 0.401806 0
M  V30 11384 H 1070 -2.71133 2.46744 0
M  V30 11385 H 1069.65 -4.8707 1.25584 0
M  V30 11386 H 1069.35 -5.05092 3.00259 0
M  V30 11387 H 1070.88 -5.65825 2.29508 0
M  V30 11388 H 1072.29 -4.13036 3.97585 0
M  V30 11389 H 1070.69 -3.76151 4.67579 0
M  V30 11390 H 1071.76 -2.4323 4.19484 0
M  V30 11391 N 1073.1 -1.28322 -0.914942 0
M  V30 11392 C 1074.03 -1.14681 -2.03398 0
M  V30 11393 C 1075.01 -0.0448939 -1.70041 0
M  V30 11394 O 1076.2 -0.221672 -1.92931 0
M  V30 11395 C 1073.33 -0.806623 -3.37803 0
M  V30 11396 C 1072.28 -1.86318 -3.85318 0
M  V30 11397 C 1071.61 -1.37665 -5.16674 0
M  V30 11398 C 1072.91 -3.26953 -4.07307 0
M  V30 11399 H 1074.6 -2.08293 -2.15068 0
M  V30 11400 H 1072.15 -1.00284 -1.03339 0
M  V30 11401 H 1074.1 -0.69796 -4.1558 0
M  V30 11402 H 1072.82 0.165203 -3.26182 0
M  V30 11403 H 1071.48 -1.96096 -3.09745 0
M  V30 11404 H 1071.13 -0.393927 -5.01455 0
M  V30 11405 H 1070.83 -2.08313 -5.49435 0
M  V30 11406 H 1072.35 -1.28119 -5.97007 0
M  V30 11407 H 1073.77 -3.20102 -4.75613 0
M  V30 11408 H 1072.17 -3.95424 -4.51398 0
M  V30 11409 H 1073.24 -3.71059 -3.12159 0
M  V30 11410 N 1074.58 1.12322 -1.10551 0
M  V30 11411 C 1075.82 1.8413 -0.849932 0
M  V30 11412 C 1076.16 1.83938 0.622946 0
M  V30 11413 O 1075.43 1.28579 1.45937 0
M  V30 11414 C 1075.72 3.31751 -1.40048 0
M  V30 11415 C 1075.57 3.40391 -2.9403 0
M  V30 11416 C 1076.89 4.27543 -1.04379 0
M  V30 11417 H 1074.01 0.668533 -0.310213 0
M  V30 11418 H 1076.65 1.31766 -1.36886 0
M  V30 11419 H 1074.8 3.76475 -0.959102 0
M  V30 11420 H 1076.47 3.04294 -3.46703 0
M  V30 11421 H 1074.71 2.809 -3.30571 0
M  V30 11422 H 1075.38 4.44252 -3.27635 0
M  V30 11423 H 1077.86 3.90951 -1.42466 0
M  V30 11424 H 1076.74 5.2924 -1.4559 0
M  V30 11425 H 1077 4.42075 0.0466316 0
M  V30 11426 N 1076.06 0.894434 1.2976 0
M  V30 11427 C 1077.3 0.517669 1.95771 0
M  V30 11428 C 1077.63 -0.935028 1.70551 0
M  V30 11429 O 1076.89 -1.67722 1.00835 0
M  V30 11430 C 1077.19 0.750307 3.49435 0
M  V30 11431 C 1076.85 2.17955 3.94723 0
M  V30 11432 C 1075.51 2.57036 4.068 0
M  V30 11433 C 1077.87 3.11053 4.18205 0
M  V30 11434 C 1075.19 3.88406 4.39724 0
M  V30 11435 C 1077.55 4.41966 4.52602 0
M  V30 11436 C 1076.21 4.80927 4.62888 0
M  V30 11437 H 1075.48 0.189428 0.716378 0
M  V30 11438 H 1078.13 1.13209 1.54454 0
M  V30 11439 H 1076.43 0.0529242 3.91764 0
M  V30 11440 H 1078.13 0.438251 3.98598 0
M  V30 11441 H 1074.72 1.86622 3.85837 0
M  V30 11442 H 1078.9 2.82076 4.08347 0
M  V30 11443 H 1074.16 4.18321 4.4589 0
M  V30 11444 H 1078.33 5.14134 4.69722 0
M  V30 11445 H 1075.96 5.82759 4.88156 0
M  V30 11446 N 1077.53 -1.43282 0.656365 0
M  V30 11447 C 1078.46 -2.33492 -0.0196962 0
M  V30 11448 C 1079.45 -1.49647 -0.80868 0
M  V30 11449 O 1080.63 -1.78303 -0.769529 0
M  V30 11450 C 1077.76 -3.33052 -0.984574 0
M  V30 11451 C 1076.71 -4.26908 -0.305483 0
M  V30 11452 C 1076.04 -5.16531 -1.38202 0
M  V30 11453 C 1077.34 -5.16073 0.804081 0
M  V30 11454 H 1079.03 -2.90272 0.733661 0
M  V30 11455 H 1076.58 -1.39574 0.354259 0
M  V30 11456 H 1078.53 -3.9506 -1.46647 0
M  V30 11457 H 1077.26 -2.74535 -1.76913 0
M  V30 11458 H 1075.92 -3.66268 0.155995 0
M  V30 11459 H 1075.56 -4.54351 -2.1581 0
M  V30 11460 H 1075.26 -5.80148 -0.932878 0
M  V30 11461 H 1076.79 -5.81414 -1.86522 0
M  V30 11462 H 1078.2 -5.71873 0.404212 0
M  V30 11463 H 1076.6 -5.88427 1.17789 0
M  V30 11464 H 1077.67 -4.55574 1.66073 0
M  V30 11465 N 1079.01 -0.398486 -1.52479 0
M  V30 11466 C 1080.25 0.180412 -2.03602 0
M  V30 11467 C 1080.62 1.43276 -1.27812 0
M  V30 11468 O 1081.82 2.08941 -1.69107 0
M  V30 11469 C 1080.09 0.432744 -3.5477 0
M  V30 11470 S 1081.65 0.980612 -4.27703 0
M  V30 11471 H 1078.47 0.0499981 -0.70924 0
M  V30 11472 H 1081.07 -0.548952 -1.87635 0
M  V30 11473 H 1079.77 -0.48568 -4.07516 0
M  V30 11474 H 1079.3 1.19028 -3.74961 0
M  V30 11475 H 1081.32 2.26216 -4.41634 0
M  V30 11476 N 1080.49 1.57075 -0.12858 0
M  V30 11477 C 1081.72 1.99876 0.534544 0
M  V30 11478 C 1082.13 1.00843 1.59612 0
M  V30 11479 O 1081.49 0.00268947 1.825 0
M  V30 11480 C 1081.54 3.42654 1.15198 0
M  V30 11481 O 1081.26 4.37899 0.132823 0
M  V30 11482 C 1082.76 4.00637 1.8975 0
M  V30 11483 H 1079.98 0.656073 0.140744 0
M  V30 11484 H 1082.53 2.03337 -0.217742 0
M  V30 11485 H 1080.68 3.40101 1.85499 0
M  V30 11486 H 1081.1 5.21253 0.582682 0
M  V30 11487 H 1082.57 5.02592 2.28266 0
M  V30 11488 H 1083.05 3.40313 2.7764 0
M  V30 11489 H 1083.65 4.06764 1.2419 0
M  V30 11490 N 1081.97 -0.145205 1.5693 0
M  V30 11491 C 1083.22 -0.857516 1.83447 0
M  V30 11492 C 1083.54 -1.81088 0.709739 0
M  V30 11493 O 1082.8 -1.9337 -0.301097 0
M  V30 11494 C 1083.1 -1.66391 3.16305 0
M  V30 11495 C 1082.76 -0.857171 4.42678 0
M  V30 11496 C 1081.43 -0.634611 4.76997 0
M  V30 11497 C 1083.78 -0.293105 5.20375 0
M  V30 11498 C 1081.11 0.162693 5.86474 0
M  V30 11499 C 1083.46 0.491248 6.3069 0
M  V30 11500 C 1082.12 0.724368 6.63558 0
M  V30 11501 H 1081.39 -0.313787 0.671281 0
M  V30 11502 H 1084.04 -0.121074 1.91117 0
M  V30 11503 H 1082.34 -2.47051 3.04094 0
M  V30 11504 H 1084.04 -2.21855 3.34038 0
M  V30 11505 H 1080.63 -1.0407 4.15773 0
M  V30 11506 H 1084.82 -0.452326 4.94234 0
M  V30 11507 H 1080.07 0.352788 6.10381 0
M  V30 11508 H 1084.25 0.935449 6.90089 0
M  V30 11509 H 1081.87 1.34403 7.48224 0
M  V30 11510 N 1083.45 -1.52049 -0.414609 0
M  V30 11511 C 1084.38 -1.69712 -1.52555 0
M  V30 11512 C 1085.36 -0.544681 -1.53206 0
M  V30 11513 O 1086.54 -0.771358 -1.71995 0
M  V30 11514 C 1083.67 -1.73145 -2.91099 0
M  V30 11515 C 1082.72 -2.94624 -3.08382 0
M  V30 11516 S 1083.55 -4.55062 -2.82274 0
M  V30 11517 C 1084.7 -4.61274 -4.23057 0
M  V30 11518 H 1084.94 -2.63675 -1.37342 0
M  V30 11519 H 1082.47 -1.42018 -0.605824 0
M  V30 11520 H 1084.43 -1.75808 -3.70947 0
M  V30 11521 H 1083.09 -0.803198 -3.03657 0
M  V30 11522 H 1082.28 -2.93492 -4.0973 0
M  V30 11523 H 1081.88 -2.8982 -2.36391 0
M  V30 11524 H 1084.18 -4.38313 -5.16612 0
M  V30 11525 H 1085.12 -5.63188 -4.29214 0
M  V30 11526 H 1085.53 -3.90361 -4.07773 0
M  V30 11527 N 1084.93 0.6715 -1.42579 0
M  V30 11528 C 1085.86 1.79703 -1.42266 0
M  V30 11529 C 1086.87 1.59599 -0.321268 0
M  V30 11530 O 1088.06 1.68657 -0.584564 0
M  V30 11531 C 1085.16 3.16859 -1.20224 0
M  V30 11532 C 1084.33 3.63783 -2.42859 0
M  V30 11533 C 1083.39 4.79683 -2.16312 0
M  V30 11534 O 1082.42 4.90058 -2.89537 0
M  V30 11535 N 1083.62 5.68622 -1.16831 0
M  V30 11536 H 1086.38 1.80455 -2.39282 0
M  V30 11537 H 1083.95 0.854708 -1.375 0
M  V30 11538 H 1085.94 3.92054 -1.00376 0
M  V30 11539 H 1084.51 3.10987 -0.317188 0
M  V30 11540 H 1083.73 2.7923 -2.78252 0
M  V30 11541 H 1085.02 3.91877 -3.24514 0
M  V30 11542 H 1084.41 5.62894 -0.562746 0
M  V30 11543 H 1082.97 6.43615 -1.0297 0
M  V30 11544 N 1086.4 1.28806 0.908124 0
M  V30 11545 C 1087.65 1.15663 1.65242 0
M  V30 11546 C 1087.97 -0.292883 1.93395 0
M  V30 11547 O 1089.17 -0.545509 2.65963 0
M  V30 11548 C 1087.63 2.02233 2.97707 0
M  V30 11549 C 1087.24 3.51958 2.77181 0
M  V30 11550 C 1088.98 1.97792 3.75604 0
M  V30 11551 C 1086.89 4.3066 4.05322 0
M  V30 11552 H 1085.82 0.42928 0.619867 0
M  V30 11553 H 1088.47 1.5338 1.00731 0
M  V30 11554 H 1086.85 1.57377 3.63385 0
M  V30 11555 H 1088.02 4.0481 2.20149 0
M  V30 11556 H 1086.34 3.57983 2.12691 0
M  V30 11557 H 1088.94 2.53858 4.70596 0
M  V30 11558 H 1089.28 0.955956 4.05175 0
M  V30 11559 H 1089.81 2.40648 3.16755 0
M  V30 11560 H 1086.55 5.3346 3.8092 0
M  V30 11561 H 1086.07 3.8258 4.61944 0
M  V30 11562 H 1087.75 4.40878 4.73535 0
M  V30 11563 N 1087.88 -1.11734 1.11145 0
M  V30 11564 C 1089.13 -1.83677 0.859684 0
M  V30 11565 C 1089.46 -1.84265 -0.613182 0
M  V30 11566 O 1088.74 -1.29351 -1.45254 0
M  V30 11567 C 1089.02 -3.31003 1.41805 0
M  V30 11568 C 1088.87 -3.38827 2.95831 0
M  V30 11569 C 1090.19 -4.26984 1.06645 0
M  V30 11570 H 1087.31 -0.666879 0.313754 0
M  V30 11571 H 1089.95 -1.31038 1.37583 0
M  V30 11572 H 1088.1 -3.75961 0.979054 0
M  V30 11573 H 1089.77 -3.02451 3.48312 0
M  V30 11574 H 1088.02 -2.79143 3.32056 0
M  V30 11575 H 1088.69 -4.42508 3.29986 0
M  V30 11576 H 1091.16 -3.9019 1.44537 0
M  V30 11577 H 1090.04 -5.2846 1.48394 0
M  V30 11578 H 1090.3 -4.42094 -0.0231866 0
M  V30 11579 N 1089.36 -0.901303 -1.29284 0
M  V30 11580 C 1090.61 -0.52401 -1.94774 0
M  V30 11581 C 1090.92 0.934645 -1.71825 0
M  V30 11582 O 1092.13 1.41953 -2.31434 0
M  V30 11583 C 1090.58 -0.886262 -3.48817 0
M  V30 11584 C 1090.19 -2.3638 -3.80564 0
M  V30 11585 C 1091.94 -0.578955 -4.20533 0
M  V30 11586 C 1089.84 -2.66682 -5.27858 0
M  V30 11587 H 1088.77 -0.192244 -0.72908 0
M  V30 11588 H 1091.42 -1.09852 -1.46986 0
M  V30 11589 H 1089.81 -0.240666 -3.95268 0
M  V30 11590 H 1090.98 -3.05508 -3.44966 0
M  V30 11591 H 1089.29 -2.64029 -3.2199 0
M  V30 11592 H 1091.89 -0.782185 -5.28948 0
M  V30 11593 H 1092.23 0.482605 -4.13493 0
M  V30 11594 H 1092.77 -1.18246 -3.79819 0
M  V30 11595 H 1089.51 -3.71643 -5.39965 0
M  V30 11596 H 1089.03 -2.02179 -5.64698 0
M  V30 11597 H 1090.71 -2.53033 -5.95469 0
M  V30 11598 N 1090.84 1.42931 -0.663954 0
M  V30 11599 C 1092.08 2.03557 -0.185479 0
M  V30 11600 C 1092.44 1.51309 1.18193 0
M  V30 11601 O 1093.64 2.03649 1.75444 0
M  V30 11602 C 1091.91 3.56802 -0.206705 0
M  V30 11603 S 1093.47 4.38333 0.202356 0
M  V30 11604 H 1090.29 0.706791 -0.0772523 0
M  V30 11605 H 1092.89 1.74841 -0.874688 0
M  V30 11606 H 1091.6 3.92328 -1.20445 0
M  V30 11607 H 1091.13 3.90175 0.502693 0
M  V30 11608 H 1093.14 4.7489 1.43853 0
M  V30 11609 N 1092.32 0.406567 1.52266 0
M  V30 11610 C 1093.56 -0.170305 2.02084 0
M  V30 11611 C 1093.89 -1.45008 1.29176 0
M  V30 11612 O 1093.17 -1.90399 0.39731 0
M  V30 11613 C 1093.45 -0.420627 3.57635 0
M  V30 11614 C 1093.31 0.87564 4.41194 0
M  V30 11615 C 1094.62 -1.20387 4.23314 0
M  V30 11616 H 1091.74 -0.0604219 0.734519 0
M  V30 11617 H 1094.39 0.539529 1.82179 0
M  V30 11618 H 1092.54 -1.0253 3.74726 0
M  V30 11619 H 1094.21 1.51192 4.35819 0
M  V30 11620 H 1092.45 1.48718 4.07511 0
M  V30 11621 H 1093.12 0.654916 5.48101 0
M  V30 11622 H 1095.6 -0.691972 4.10306 0
M  V30 11623 H 1094.47 -1.34776 5.32096 0
M  V30 11624 H 1094.73 -2.2238 3.82099 0
M  V30 11625 N 1093.79 -1.57004 0.136909 0
M  V30 11626 C 1095.04 -1.94972 -0.51662 0
M  V30 11627 C 1095.36 -1.02367 -1.66674 0
M  V30 11628 O 1096.56 -1.29873 -2.38423 0
M  V30 11629 C 1095.02 -3.4657 -0.970435 0
M  V30 11630 C 1094.63 -4.47741 0.152204 0
M  V30 11631 C 1096.37 -3.93423 -1.59432 0
M  V30 11632 C 1094.28 -5.90537 -0.319315 0
M  V30 11633 H 1093.21 -0.727873 -0.196766 0
M  V30 11634 H 1095.86 -1.82181 0.219637 0
M  V30 11635 H 1094.24 -3.54657 -1.76165 0
M  V30 11636 H 1095.41 -4.5134 0.928925 0
M  V30 11637 H 1093.73 -4.10746 0.683867 0
M  V30 11638 H 1096.33 -4.97539 -1.95856 0
M  V30 11639 H 1096.67 -3.34404 -2.47951 0
M  V30 11640 H 1097.2 -3.8821 -0.868193 0
M  V30 11641 H 1093.94 -6.53352 0.530248 0
M  V30 11642 H 1093.46 -5.90321 -1.06213 0
M  V30 11643 H 1095.14 -6.42346 -0.774662 0
M  V30 11644 N 1095.27 0.136881 -1.57004 0
M  V30 11645 C 1096.52 0.844147 -1.85056 0
M  V30 11646 C 1096.87 1.78328 -0.722278 0
M  V30 11647 O 1096.17 1.89557 0.279059 0
M  V30 11648 C 1096.36 1.64711 -3.17183 0
M  V30 11649 C 1096.19 0.787229 -4.42756 0
M  V30 11650 C 1094.96 0.448938 -5.03302 0
M  V30 11651 C 1097.16 0.112947 -5.14176 0
M  V30 11652 N 1095.14 -0.423481 -6.12438 0
M  V30 11653 C 1096.51 -0.619195 -6.169 0
M  V30 11654 C 1098.57 0.0346687 -4.97888 0
M  V30 11655 C 1097.27 -1.42224 -7.05099 0
M  V30 11656 C 1099.29 -0.755143 -5.86559 0
M  V30 11657 C 1098.66 -1.47553 -6.88772 0
M  V30 11658 H 1094.76 0.286398 -0.727668 0
M  V30 11659 H 1097.34 0.108903 -1.94395 0
M  V30 11660 H 1095.51 2.35352 -3.08972 0
M  V30 11661 H 1097.24 2.29833 -3.33105 0
M  V30 11662 H 1094 0.787068 -4.67014 0
M  V30 11663 H 1094.42 -0.851013 -6.7163 0
M  V30 11664 H 1099.06 0.577271 -4.18841 0
M  V30 11665 H 1096.78 -1.97606 -7.83567 0
M  V30 11666 H 1100.37 -0.817835 -5.76023 0
M  V30 11667 H 1099.25 -2.07687 -7.56198 0
M  V30 11668 N 1096.75 1.52266 0.40654 0
M  V30 11669 C 1097.68 1.78755 1.50229 0
M  V30 11670 C 1098.66 0.638652 1.57655 0
M  V30 11671 O 1099.85 0.884505 1.72888 0
M  V30 11672 C 1096.98 1.94057 2.88026 0
M  V30 11673 C 1095.93 3.09667 2.95449 0
M  V30 11674 C 1095.26 3.10196 4.35526 0
M  V30 11675 C 1096.56 4.49077 2.66697 0
M  V30 11676 H 1098.25 2.70511 1.28313 0
M  V30 11677 H 1095.8 1.30167 0.615836 0
M  V30 11678 H 1097.75 2.11171 3.64671 0
M  V30 11679 H 1096.47 0.989755 3.11242 0
M  V30 11680 H 1095.13 2.92308 2.2125 0
M  V30 11681 H 1094.78 2.12831 4.55754 0
M  V30 11682 H 1094.48 3.87847 4.41416 0
M  V30 11683 H 1096 3.29443 5.14101 0
M  V30 11684 H 1097.42 4.66628 3.33064 0
M  V30 11685 H 1095.82 5.28665 2.8396 0
M  V30 11686 H 1096.89 4.56995 1.62122 0
M  V30 11687 N 1098.23 -0.663929 1.42933 0
M  V30 11688 C 1099.46 -1.44981 1.47187 0
M  V30 11689 C 1099.87 -1.89009 0.0850091 0
M  V30 11690 O 1099.21 -1.59413 -0.912855 0
M  V30 11691 C 1099.27 -2.72409 2.34592 0
M  V30 11692 C 1098.94 -2.5039 3.82301 0
M  V30 11693 C 1099.93 -2.14295 4.73681 0
M  V30 11694 C 1097.62 -2.65047 4.2668 0
M  V30 11695 C 1099.61 -1.93139 6.07434 0
M  V30 11696 C 1097.3 -2.43506 5.60489 0
M  V30 11697 C 1098.3 -2.07607 6.50683 0
M  V30 11698 O 1097.98 -1.86284 7.82019 0
M  V30 11699 H 1097.72 -0.452238 0.502451 0
M  V30 11700 H 1100.27 -0.822228 1.88225 0
M  V30 11701 H 1098.5 -3.37689 1.88422 0
M  V30 11702 H 1100.19 -3.34327 2.30174 0
M  V30 11703 H 1100.96 -2.02557 4.40676 0
M  V30 11704 H 1096.83 -2.91966 3.56759 0
M  V30 11705 H 1100.38 -1.65042 6.77796 0
M  V30 11706 H 1096.28 -2.54844 5.93064 0
M  V30 11707 H 1097.04 -2.00795 7.93488 0
M  V30 11708 N 1099.71 -1.29285 -0.901281 0
M  V30 11709 C 1100.93 -1.20048 -1.68511 0
M  V30 11710 C 1101.35 0.239128 -1.8728 0
M  V30 11711 O 1100.71 1.16027 -1.40869 0
M  V30 11712 C 1100.76 -1.90798 -3.07048 0
M  V30 11713 O 1100.48 -3.29137 -2.89138 0
M  V30 11714 C 1101.98 -1.88017 -4.01453 0
M  V30 11715 H 1099.2 -0.416157 -0.52636 0
M  V30 11716 H 1101.74 -1.7063 -1.12719 0
M  V30 11717 H 1099.9 -1.44055 -3.5962 0
M  V30 11718 H 1100.31 -3.64747 -3.76908 0
M  V30 11719 H 1101.79 -2.42088 -4.96082 0
M  V30 11720 H 1102.26 -0.855341 -4.30791 0
M  V30 11721 H 1102.87 -2.34497 -3.54812 0
M  V30 11722 N 1101.18 1.11143 -1.11736 0
M  V30 11723 C 1102.15 2.15456 -0.78174 0
M  V30 11724 C 1103.15 1.59547 0.200383 0
M  V30 11725 O 1104.34 1.74183 -0.0244893 0
M  V30 11726 C 1101.47 3.40523 -0.160364 0
M  V30 11727 H 1102.66 2.46658 -1.70586 0
M  V30 11728 H 1100.22 1.26381 -0.919644 0
M  V30 11729 H 1100.95 3.14932 0.773835 0
M  V30 11730 H 1100.74 3.82386 -0.867378 0
M  V30 11731 H 1102.23 4.17559 0.0582175 0
M  V30 11732 N 1102.66 0.908147 1.28804 0
M  V30 11733 C 1104.07 0.585727 1.77274 0
M  V30 11734 C 1104.42 -0.898842 1.744 0
M  V30 11735 O 1103.55 -1.70301 1.33516 0
M  V30 11736 C 1104.14 1.05647 3.21907 0
M  V30 11737 C 1102.7 0.785066 3.68122 0
M  V30 11738 C 1101.85 1.22638 2.48707 0
M  V30 11739 H 1104.8 1.09 1.15346 0
M  V30 11740 H 1104.82 0.395442 3.7844 0
M  V30 11741 H 1104.33 2.13698 3.23967 0
M  V30 11742 H 1102.44 -0.282477 3.71528 0
M  V30 11743 H 1102.55 1.38888 4.58527 0
M  V30 11744 H 1100.91 0.645217 2.46392 0
M  V30 11745 H 1101.7 2.31512 2.5349 0
M  V30 11746 N 1104.14 -1.42577 0.671525 0
M  V30 11747 C 1105.55 -1.84736 0.270084 0
M  V30 11748 C 1105.9 -1.56212 -1.18711 0
M  V30 11749 O 1105.03 -1.02028 -1.90838 0
M  V30 11750 C 1105.62 -3.35334 0.483409 0
M  V30 11751 C 1104.18 -3.76154 0.136119 0
M  V30 11752 C 1103.33 -2.66179 0.777444 0
M  V30 11753 H 1106.28 -1.3247 0.873919 0
M  V30 11754 H 1106.3 -3.79573 -0.265483 0
M  V30 11755 H 1105.81 -3.56063 1.54405 0
M  V30 11756 H 1103.91 -3.61033 -0.921209 0
M  V30 11757 H 1104.03 -4.75645 0.574356 0
M  V30 11758 H 1102.39 -2.53841 0.209055 0
M  V30 11759 H 1103.17 -2.89732 1.84148 0
M  V30 11760 N 1105.62 -0.414636 -1.52048 0
M  V30 11761 C 1106.84 0.161137 -2.06773 0
M  V30 11762 C 1107.27 1.37628 -1.2822 0
M  V30 11763 O 1106.63 1.78562 -0.313915 0
M  V30 11764 C 1106.67 0.48452 -3.5733 0
M  V30 11765 O 1105.78 1.57466 -3.81154 0
M  V30 11766 H 1105.12 0.0118003 -0.663895 0
M  V30 11767 H 1107.65 -0.589424 -1.95926 0
M  V30 11768 H 1107.66 0.741567 -4.01204 0
M  V30 11769 H 1106.33 -0.403733 -4.13936 0
M  V30 11770 H 1104.91 1.30935 -3.49157 0
M  V30 11771 N 1107.1 1.56929 -0.145233 0
M  V30 11772 C 1108.32 2.00864 0.516564 0
M  V30 11773 C 1108.75 1.02466 1.57741 0
M  V30 11774 O 1108.1 0.000145439 1.813 0
M  V30 11775 C 1108.15 3.43552 1.09563 0
M  V30 11776 O 1107.26 3.4815 2.21055 0
M  V30 11777 H 1106.6 0.651835 0.126521 0
M  V30 11778 H 1109.13 2.0317 -0.241445 0
M  V30 11779 H 1109.14 3.82316 1.42473 0
M  V30 11780 H 1107.81 4.14677 0.318749 0
M  V30 11781 H 1106.39 3.21228 1.89387 0
M  V30 11782 N 1108.58 -0.128553 1.57075 0
M  V30 11783 C 1109.81 -0.851214 1.8825 0
M  V30 11784 C 1110.21 -1.74402 0.733531 0
M  V30 11785 O 1109.56 -1.81149 -0.305108 0
M  V30 11786 C 1109.62 -1.74451 3.14336 0
M  V30 11787 C 1109.28 -1.02699 4.45311 0
M  V30 11788 C 1110.28 -0.37224 5.18566 0
M  V30 11789 C 1107.96 -1.01101 4.9202 0
M  V30 11790 C 1109.96 0.2889 6.36745 0
M  V30 11791 C 1107.65 -0.346063 6.10119 0
M  V30 11792 C 1108.64 0.302744 6.82329 0
M  V30 11793 O 1108.33 0.9571 7.98182 0
M  V30 11794 H 1108.06 -0.250529 0.627863 0
M  V30 11795 H 1110.62 -0.120418 2.05047 0
M  V30 11796 H 1108.85 -2.51671 2.93596 0
M  V30 11797 H 1110.54 -2.34075 3.31608 0
M  V30 11798 H 1111.3 -0.376271 4.83538 0
M  V30 11799 H 1107.18 -1.50543 4.35727 0
M  V30 11800 H 1110.73 0.795901 6.93045 0
M  V30 11801 H 1106.62 -0.339762 6.44605 0
M  V30 11802 H 1107.39 0.860616 8.13963 0
M  V30 11803 N 1110.05 -1.5248 -0.398459 0
M  V30 11804 C 1111.47 -1.4152 -0.737854 0
M  V30 11805 C 1111.67 -0.528122 -1.94456 0
M  V30 11806 O 1110.73 0.00203799 -2.525 0
M  V30 11807 C 1112.04 -2.8422 -0.9818 0
M  V30 11808 C 1113.59 -2.93635 -1.08386 0
M  V30 11809 C 1114.06 -4.37327 -1.3605 0
M  V30 11810 N 1115.55 -4.40609 -1.42892 0
M  V30 11811 C 1116.29 -5.48863 -1.65944 0
M  V30 11812 N 1115.78 -6.67217 -1.86529 0
M  V30 11813 N 1117.58 -5.36393 -1.68046 0
M  V30 11814 H 1109.73 -2.08681 0.395705 0
M  V30 11815 H 1111.99 -0.941023 0.114801 0
M  V30 11816 H 1111.7 -3.51302 -0.167358 0
M  V30 11817 H 1111.57 -3.25907 -1.89907 0
M  V30 11818 H 1113.96 -2.26728 -1.88888 0
M  V30 11819 H 1114.04 -2.5539 -0.144714 0
M  V30 11820 H 1113.68 -5.04797 -0.56061 0
M  V30 11821 H 1113.61 -4.73116 -2.31233 0
M  V30 11822 H 1116.1 -3.55298 -1.2873 0
M  V30 11823 H 1116.42 -7.45498 -2.03599 0
M  V30 11824 H 1114.76 -6.70263 -1.83773 0
M  V30 11825 H 1117.95 -4.42903 -1.51509 0
M  V30 11826 H 1118.13 -6.2083 -1.85672 0
M  V30 11827 N 1111.53 0.65634 -1.43283 0
M  V30 11828 C 1112.48 1.79058 -1.48462 0
M  V30 11829 C 1113.47 1.65563 -0.358512 0
M  V30 11830 O 1114.68 1.71947 -0.532365 0
M  V30 11831 H 1111.05 0.590716 -0.465358 0
M  V30 11832 H 1113.03 1.7181 -2.43975 0
M  V30 11833 C 1111.77 3.17304 -1.42175 0
M  V30 11834 H 1111.1 3.28324 -2.2813 0
M  V30 11835 H 1112.54 3.96633 -1.4986 0
M  V30 11836 C 1111 3.36613 -0.138929 0
M  V30 11837 O 1111.53 3.93633 0.80101 0
M  V30 11838 N 1109.73 2.90557 -0.0501237 0
M  V30 11839 H 1109.28 2.4434 -0.815821 0
M  V30 11840 H 1109.24 3.03853 0.807504 0
M  V30 11841 N 1113.01 1.29761 0.894412 0
M  V30 11842 C 1113.94 1.1115 2.00445 0
M  V30 11843 C 1114.95 0.0574655 1.62699 0
M  V30 11844 O 1116.14 0.302528 1.75918 0
M  V30 11845 C 1113.24 0.670984 3.32191 0
M  V30 11846 C 1112.42 1.80471 3.98433 0
M  V30 11847 C 1111.48 1.35431 5.08473 0
M  V30 11848 O 1110.5 2.05994 5.30618 0
M  V30 11849 N 1111.7 0.22811 5.80052 0
M  V30 11850 H 1114.47 2.06753 2.16964 0
M  V30 11851 H 1112.03 1.21772 1.06692 0
M  V30 11852 H 1114.02 0.352877 4.03159 0
M  V30 11853 H 1112.59 -0.192735 3.12005 0
M  V30 11854 H 1111.81 2.29142 3.20761 0
M  V30 11855 H 1113.1 2.56471 4.39431 0
M  V30 11856 H 1112.5 -0.360076 5.64553 0
M  V30 11857 H 1111.05 -0.0305985 6.51793 0
M  V30 11858 N 1114.49 -1.10549 1.12324 0
M  V30 11859 C 1115.4 -2.20428 0.803032 0
M  V30 11860 C 1116.41 -1.72756 -0.207674 0
M  V30 11861 O 1117.59 -2.01357 -0.0415623 0
M  V30 11862 C 1114.65 -3.45716 0.261032 0
M  V30 11863 C 1113.72 -4.08129 1.33152 0
M  V30 11864 C 1112.95 -5.27436 0.815288 0
M  V30 11865 O 1113.17 -5.69317 -0.351361 0
M  V30 11866 O 1112.11 -5.80674 1.58434 0
M  V30 11867 H 1115.93 -2.50249 1.72073 0
M  V30 11868 H 1113.52 -1.19263 0.899815 0
M  V30 11869 H 1115.4 -4.21384 -0.0364007 0
M  V30 11870 H 1114.07 -3.17525 -0.629249 0
M  V30 11871 H 1112.98 -3.3415 1.6821 0
M  V30 11872 H 1114.31 -4.4052 2.19552 0
M  V30 11873 N 1115.97 -0.914965 -1.28321 0
M  V30 11874 C 1116.9 -0.421292 -2.29668 0
M  V30 11875 C 1117.88 0.511743 -1.6222 0
M  V30 11876 O 1119.06 0.419218 -1.89621 0
M  V30 11877 C 1116.19 0.338364 -3.45648 0
M  V30 11878 C 1115.15 -0.505646 -4.25003 0
M  V30 11879 C 1114.47 0.382421 -5.33331 0
M  V30 11880 C 1115.77 -1.76354 -4.91626 0
M  V30 11881 H 1117.47 -1.26826 -2.71211 0
M  V30 11882 H 1115.01 -0.611291 -1.30381 0
M  V30 11883 H 1116.96 0.694578 -4.15636 0
M  V30 11884 H 1115.69 1.21925 -3.02988 0
M  V30 11885 H 1114.35 -0.844395 -3.56743 0
M  V30 11886 H 1114 1.26189 -4.86914 0
M  V30 11887 H 1113.7 -0.17871 -5.87328 0
M  V30 11888 H 1115.22 0.73449 -6.06166 0
M  V30 11889 H 1116.63 -1.47616 -5.5397 0
M  V30 11890 H 1115.03 -2.26717 -5.55625 0
M  V30 11891 H 1116.1 -2.49063 -4.16048 0
M  V30 11892 N 1117.44 1.42219 -0.679077 0
M  V30 11893 C 1118.35 2.346 -0.00345919 0
M  V30 11894 C 1119.37 1.55327 0.784181 0
M  V30 11895 O 1120.55 1.87878 0.725524 0
M  V30 11896 C 1117.61 3.33905 0.933194 0
M  V30 11897 C 1116.67 4.29073 0.139607 0
M  V30 11898 C 1115.9 5.23634 1.03165 0
M  V30 11899 O 1116.13 5.23234 2.27119 0
M  V30 11900 O 1115.06 5.99901 0.490159 0
M  V30 11901 H 1118.89 2.9392 -0.764525 0
M  V30 11902 H 1116.47 1.42794 -0.439329 0
M  V30 11903 H 1118.35 3.949 1.47077 0
M  V30 11904 H 1117.03 2.77052 1.67404 0
M  V30 11905 H 1115.94 3.71478 -0.442177 0
M  V30 11906 H 1117.27 4.88979 -0.562214 0
M  V30 11907 N 1118.92 0.422693 1.51826 0
M  V30 11908 C 1120.2 -0.20786 1.94492 0
M  V30 11909 C 1120.58 -1.61414 1.36047 0
M  V30 11910 O 1119.93 -2.21987 0.541657 0
M  V30 11911 C 1120.14 -0.200457 3.48424 0
M  V30 11912 C 1121.48 -0.413199 4.22585 0
M  V30 11913 O 1122.51 -0.27922 3.55104 0
M  V30 11914 O 1121.37 -0.678469 5.42272 0
M  V30 11915 H 1118.46 -0.137851 0.81543 0
M  V30 11916 H 1121.01 0.479617 1.62781 0
M  V30 11917 H 1119.78 0.783263 3.83381 0
M  V30 11918 H 1119.4 -0.931464 3.86535 0
M  V30 11919 N 1120.4 -1.5685 0.153553 0
M  V30 11920 C 1121.31 -2.20664 -0.796528 0
M  V30 11921 C 1122.33 -1.19289 -1.26674 0
M  V30 11922 O 1123.5 -1.51889 -1.32256 0
M  V30 11923 C 1120.57 -2.82088 -2.01561 0
M  V30 11924 C 1119.63 -3.9861 -1.59401 0
M  V30 11925 C 1118.86 -4.57096 -2.75498 0
M  V30 11926 O 1119.08 -4.14462 -3.9189 0
M  V30 11927 O 1118.02 -5.47254 -2.50593 0
M  V30 11928 H 1121.84 -3.02376 -0.283282 0
M  V30 11929 H 1119.43 -1.49218 -0.0737927 0
M  V30 11930 H 1121.31 -3.21103 -2.72893 0
M  V30 11931 H 1119.99 -2.03385 -2.51826 0
M  V30 11932 H 1118.89 -3.64299 -0.850725 0
M  V30 11933 H 1120.23 -4.78853 -1.13845 0
M  V30 11934 N 1121.88 0.120221 -1.57141 0
M  V30 11935 C 1123.13 0.826791 -1.83976 0
M  V30 11936 C 1123.44 1.81102 -0.739014 0
M  V30 11937 O 1124.65 2.56368 -0.893736 0
M  V30 11938 C 1123.1 1.52108 -3.26176 0
M  V30 11939 C 1122.71 0.577902 -4.44257 0
M  V30 11940 C 1124.45 2.21286 -3.62261 0
M  V30 11941 C 1122.36 1.27535 -5.77485 0
M  V30 11942 H 1121.29 0.312508 -0.686189 0
M  V30 11943 H 1123.94 0.0795343 -1.83328 0
M  V30 11944 H 1122.32 2.31492 -3.2129 0
M  V30 11945 H 1123.5 -0.182629 -4.60438 0
M  V30 11946 H 1121.81 -0.00684348 -4.16399 0
M  V30 11947 H 1124.41 2.74154 -4.59068 0
M  V30 11948 H 1124.75 2.99029 -2.89634 0
M  V30 11949 H 1125.29 1.48791 -3.68925 0
M  V30 11950 H 1122.02 0.539237 -6.53278 0
M  V30 11951 H 1121.54 2.00792 -5.65192 0
M  V30 11952 H 1123.22 1.80888 -6.21199 0
M  V30 11953 N 1123.36 1.52689 0.390367 0
M  V30 11954 C 1124.61 1.6689 1.13272 0
M  V30 11955 C 1124.92 0.414433 1.91159 0
M  V30 11956 O 1126.12 0.436559 2.67967 0
M  V30 11957 C 1124.58 2.94929 2.06264 0
M  V30 11958 C 1124.19 4.27551 1.33805 0
M  V30 11959 C 1125.93 3.18497 2.80642 0
M  V30 11960 C 1123.84 5.46698 2.25554 0
M  V30 11961 H 1122.77 0.621749 0.426549 0
M  V30 11962 H 1125.42 1.79185 0.395615 0
M  V30 11963 H 1123.8 2.76378 2.83604 0
M  V30 11964 H 1124.98 4.56651 0.616997 0
M  V30 11965 H 1123.29 4.10234 0.713913 0
M  V30 11966 H 1125.89 4.04693 3.49467 0
M  V30 11967 H 1126.23 2.33511 3.44642 0
M  V30 11968 H 1126.76 3.37607 2.10395 0
M  V30 11969 H 1123.5 6.34088 1.66171 0
M  V30 11970 H 1123.02 5.21913 2.95579 0
M  V30 11971 H 1124.7 5.80519 2.85668 0
M  V30 11972 N 1124.83 -0.648732 1.43629 0
M  V30 11973 C 1126.08 -1.40857 1.45483 0
M  V30 11974 C 1126.41 -1.94332 0.0807963 0
M  V30 11975 O 1125.66 -1.72999 -0.914875 0
M  V30 11976 C 1125.96 -2.60394 2.44806 0
M  V30 11977 C 1125.63 -2.25311 3.90571 0
M  V30 11978 C 1124.29 -2.15456 4.3027 0
M  V30 11979 C 1126.64 -1.97307 4.8241 0
M  V30 11980 C 1123.97 -1.75759 5.59755 0
M  V30 11981 C 1126.32 -1.59108 6.12264 0
M  V30 11982 C 1124.99 -1.47781 6.50936 0
M  V30 11983 H 1124.26 -0.515434 0.532362 0
M  V30 11984 H 1126.9 -0.737339 1.76736 0
M  V30 11985 H 1125.21 -3.3267 2.06973 0
M  V30 11986 H 1126.91 -3.18609 2.43494 0
M  V30 11987 H 1123.5 -2.33894 3.59154 0
M  V30 11988 H 1127.68 -2.0384 4.52507 0
M  V30 11989 H 1122.94 -1.65579 5.88552 0
M  V30 11990 H 1127.11 -1.36472 6.82897 0
M  V30 11991 H 1124.74 -1.16792 7.51175 0
M  V30 11992 N 1126.31 -1.30234 -0.887518 0
M  V30 11993 C 1127.56 -1.18277 -1.63381 0
M  V30 11994 C 1127.87 0.262079 -1.93836 0
M  V30 11995 O 1129.08 0.503127 -2.66797 0
M  V30 11996 C 1127.54 -2.06944 -2.94452 0
M  V30 11997 C 1127.14 -3.56323 -2.71547 0
M  V30 11998 C 1128.89 -2.03743 -3.7241 0
M  V30 11999 C 1126.8 -4.37054 -3.98419 0
M  V30 12000 H 1125.73 -0.439087 -0.612959 0
M  V30 12001 H 1128.38 -1.54964 -0.982779 0
M  V30 12002 H 1126.76 -1.63138 -3.60835 0
M  V30 12003 H 1127.93 -4.08261 -2.13681 0
M  V30 12004 H 1126.25 -3.61321 -2.06969 0
M  V30 12005 H 1128.84 -2.61312 -4.66497 0
M  V30 12006 H 1129.19 -1.02029 -4.03603 0
M  V30 12007 H 1129.72 -2.45657 -3.12886 0
M  V30 12008 H 1126.46 -5.39453 -3.72385 0
M  V30 12009 H 1125.98 -3.89881 -4.55799 0
M  V30 12010 H 1127.66 -4.48356 -4.66462 0
M  V30 12011 N 1127.79 1.09952 -1.12909 0
M  V30 12012 C 1129.02 1.8579 -0.910483 0
M  V30 12013 C 1129.43 1.80898 0.540484 0
M  V30 12014 O 1128.79 1.20126 1.3739 0
M  V30 12015 C 1128.84 3.33987 -1.38329 0
M  V30 12016 O 1128.56 3.38811 -2.77739 0
M  V30 12017 C 1130.06 4.26683 -1.20234 0
M  V30 12018 H 1127.28 0.587026 -0.325025 0
M  V30 12019 H 1129.83 1.38965 -1.5003 0
M  V30 12020 H 1127.98 3.78259 -0.836592 0
M  V30 12021 H 1128.4 4.31204 -2.98603 0
M  V30 12022 H 1129.87 5.28846 -1.58197 0
M  V30 12023 H 1130.35 4.38966 -0.14344 0
M  V30 12024 H 1130.95 3.88221 -1.73679 0
M  V30 12025 N 1129.27 0.921757 1.27833 0
M  V30 12026 C 1130.51 0.566288 1.96399 0
M  V30 12027 C 1130.87 -0.875149 1.70895 0
M  V30 12028 O 1132.07 -1.3386 2.33099 0
M  V30 12029 C 1130.34 0.876329 3.4649 0
M  V30 12030 S 1131.9 0.628481 4.34276 0
M  V30 12031 H 1128.72 0.209246 0.679512 0
M  V30 12032 H 1131.32 1.18892 1.55193 0
M  V30 12033 H 1130.03 1.92319 3.62549 0
M  V30 12034 H 1129.56 0.242658 3.92651 0
M  V30 12035 H 1131.57 -0.516493 4.93505 0
M  V30 12036 N 1130.75 -1.41857 0.686609 0
M  V30 12037 C 1131.7 -2.27999 -0.00734666 0
M  V30 12038 C 1132.68 -1.41723 -0.761808 0
M  V30 12039 O 1133.87 -1.65072 -0.638776 0
M  V30 12040 C 1131 -3.29909 -0.949462 0
M  V30 12041 C 1130.09 -4.23666 -0.191722 0
M  V30 12042 N 1130.48 -4.99277 0.809715 0
M  V30 12043 C 1128.78 -4.43937 -0.428489 0
M  V30 12044 C 1129.48 -5.67834 1.2625 0
M  V30 12045 N 1128.45 -5.40387 0.590151 0
M  V30 12046 H 1132.26 -2.83887 0.760608 0
M  V30 12047 H 1129.77 -1.53962 0.516676 0
M  V30 12048 H 1131.77 -3.90436 -1.46169 0
M  V30 12049 H 1130.43 -2.75582 -1.71711 0
M  V30 12050 H 1131.44 -5.04051 1.18966 0
M  V30 12051 H 1128.11 -4.00633 -1.17472 0
M  V30 12052 H 1129.5 -6.38469 2.09301 0
M  V30 12053 N 1132.22 -0.430739 -1.51599 0
M  V30 12054 C 1133.13 0.390347 -2.3133 0
M  V30 12055 C 1134.15 1.03376 -1.39962 0
M  V30 12056 O 1135.33 1.03057 -1.73035 0
M  V30 12057 C 1132.39 1.48039 -3.13505 0
M  V30 12058 C 1131.45 0.857792 -4.20643 0
M  V30 12059 C 1130.69 1.89589 -4.9889 0
M  V30 12060 O 1130.91 3.11717 -4.77691 0
M  V30 12061 O 1129.84 1.49009 -5.83164 0
M  V30 12062 H 1133.67 -0.260358 -3.02582 0
M  V30 12063 H 1131.25 -0.193428 -1.48143 0
M  V30 12064 H 1133.14 2.11272 -3.64612 0
M  V30 12065 H 1131.81 2.1153 -2.45024 0
M  V30 12066 H 1130.72 0.187592 -3.73629 0
M  V30 12067 H 1132.05 0.266474 -4.91478 0
M  V30 12068 N 1133.7 1.56767 -0.161869 0
M  V30 12069 C 1134.95 1.96206 0.484537 0
M  V30 12070 C 1135.27 1.04848 1.64414 0
M  V30 12071 O 1134.54 0.112946 1.95574 0
M  V30 12072 H 1133.12 0.724491 0.181994 0
M  V30 12073 H 1135.78 1.93406 -0.240845 0
M  V30 12074 H 1134.88 3.00279 0.85083 0
M  V30 12075 N 1135.18 -0.111886 1.57202 0
M  V30 12076 C 1136.41 -0.836317 1.89791 0
M  V30 12077 C 1136.83 -1.72304 0.754513 0
M  V30 12078 O 1136.19 -1.78889 -0.294672 0
M  V30 12079 C 1136.24 -1.63971 3.21164 0
M  V30 12080 O 1135.34 -2.74726 3.0757 0
M  V30 12081 H 1134.68 -0.230833 0.622585 0
M  V30 12082 H 1137.21 -0.0921478 2.04392 0
M  V30 12083 H 1137.22 -2.02746 3.54059 0
M  V30 12084 H 1135.9 -0.98882 4.03974 0
M  V30 12085 H 1134.47 -2.39101 2.86156 0
M  V30 12086 N 1136.66 -1.52894 -0.382264 0
M  V30 12087 C 1137.59 -1.81122 -1.47367 0
M  V30 12088 C 1138.57 -0.663653 -1.56619 0
M  V30 12089 O 1139.75 -0.911898 -1.71459 0
M  V30 12090 C 1136.88 -1.98615 -2.84902 0
M  V30 12091 C 1135.84 -3.14328 -2.90485 0
M  V30 12092 C 1135.16 -3.17086 -4.30535 0
M  V30 12093 C 1136.46 -4.53263 -2.59519 0
M  V30 12094 H 1138.16 -2.72518 -1.23993 0
M  V30 12095 H 1135.7 -1.3113 -0.595049 0
M  V30 12096 H 1137.66 -2.16946 -3.61265 0
M  V30 12097 H 1136.38 -1.03915 -3.09628 0
M  V30 12098 H 1135.04 -2.95791 -2.16572 0
M  V30 12099 H 1134.69 -2.20055 -4.52311 0
M  V30 12100 H 1134.39 -3.94821 -4.3519 0
M  V30 12101 H 1135.91 -3.3758 -5.08795 0
M  V30 12102 H 1137.33 -4.71867 -3.25598 0
M  V30 12103 H 1135.72 -5.33115 -2.75514 0
M  V30 12104 H 1136.79 -4.59516 -1.54831 0
M  V30 12105 N 1138.14 0.641106 -1.43971 0
M  V30 12106 C 1139.07 1.76599 -1.44527 0
M  V30 12107 C 1140.05 1.59709 -0.305257 0
M  V30 12108 O 1141.23 1.81728 -0.50071 0
M  V30 12109 C 1138.36 3.14052 -1.26843 0
M  V30 12110 C 1137.41 3.49615 -2.44278 0
M  V30 12111 S 1138.24 3.4822 -4.06821 0
M  V30 12112 C 1139.39 4.8831 -3.91541 0
M  V30 12113 H 1139.63 1.75858 -2.3971 0
M  V30 12114 H 1137.16 0.814834 -1.31148 0
M  V30 12115 H 1139.12 3.93376 -1.17327 0
M  V30 12116 H 1137.78 3.12342 -0.331872 0
M  V30 12117 H 1136.97 4.49611 -2.2774 0
M  V30 12118 H 1136.57 2.77732 -2.50482 0
M  V30 12119 H 1138.87 5.77282 -3.54615 0
M  V30 12120 H 1139.81 5.099 -4.91333 0
M  V30 12121 H 1140.22 4.62414 -3.2378 0
M  V30 12122 N 1139.62 1.30703 0.880598 0
M  V30 12123 C 1140.58 1.17429 1.96832 0
M  V30 12124 C 1141.58 0.104305 1.60461 0
M  V30 12125 O 1142.77 0.352758 1.70591 0
M  V30 12126 C 1139.9 0.800099 3.31378 0
M  V30 12127 H 1141.09 2.14069 2.10034 0
M  V30 12128 H 1138.65 1.14162 1.06755 0
M  V30 12129 H 1139.38 -0.165606 3.23877 0
M  V30 12130 H 1139.17 1.57341 3.59146 0
M  V30 12131 H 1140.66 0.730826 4.11155 0
M  V30 12132 N 1141.09 -1.09351 1.1349 0
M  V30 12133 C 1142.02 -2.18037 0.835588 0
M  V30 12134 C 1143 -1.68856 -0.205373 0
M  V30 12135 O 1144.19 -1.94094 -0.0641357 0
M  V30 12136 C 1141.32 -3.45987 0.301661 0
M  V30 12137 C 1140.27 -4.08507 1.27696 0
M  V30 12138 C 1139.6 -5.31292 0.602758 0
M  V30 12139 C 1140.9 -4.50916 2.63575 0
M  V30 12140 H 1142.59 -2.43332 1.74441 0
M  V30 12141 H 1140.14 -1.1695 0.840166 0
M  V30 12142 H 1142.09 -4.21324 0.079928 0
M  V30 12143 H 1140.82 -3.20217 -0.642552 0
M  V30 12144 H 1139.48 -3.3519 1.4847 0
M  V30 12145 H 1139.12 -5.01802 -0.346953 0
M  V30 12146 H 1138.82 -5.74075 1.25345 0
M  V30 12147 H 1140.35 -6.09351 0.390325 0
M  V30 12148 H 1141.76 -5.17474 2.46765 0
M  V30 12149 H 1140.16 -5.04586 3.24827 0
M  V30 12150 H 1141.23 -3.63279 3.2118 0
M  V30 12151 N 1142.57 -0.928524 -1.27343 0
M  V30 12152 C 1143.82 -0.568267 -1.93946 0
M  V30 12153 C 1144.14 0.893501 -1.73325 0
M  V30 12154 O 1143.41 1.63344 -1.08147 0
M  V30 12155 H 1141.99 -0.207173 -0.717696 0
M  V30 12156 H 1144.65 -1.1811 -1.55036 0
M  V30 12157 H 1143.75 -0.775246 -3.02318 0
M  V30 12158 N 1144.05 1.41491 -0.694123 0
M  V30 12159 C 1145.3 2.01252 -0.224477 0
M  V30 12160 C 1145.62 1.54965 1.17541 0
M  V30 12161 O 1144.88 0.751041 1.80715 0
M  V30 12162 C 1145.18 3.56666 -0.228869 0
M  V30 12163 C 1144.84 4.22458 -1.57608 0
M  V30 12164 C 1143.51 4.40144 -1.94491 0
M  V30 12165 C 1145.86 4.5936 -2.46247 0
M  V30 12166 C 1143.19 4.92009 -3.196 0
M  V30 12167 C 1145.54 5.12615 -3.70687 0
M  V30 12168 C 1144.2 5.28512 -4.07715 0
M  V30 12169 H 1143.47 0.736433 -0.0821419 0
M  V30 12170 H 1146.12 1.69408 -0.892926 0
M  V30 12171 H 1144.42 3.88292 0.523128 0
M  V30 12172 H 1146.12 4.00712 0.152019 0
M  V30 12173 H 1142.71 4.09065 -1.27921 0
M  V30 12174 H 1146.9 4.45352 -2.19032 0
M  V30 12175 H 1142.15 5.02502 -3.48285 0
M  V30 12176 H 1146.33 5.4015 -4.39558 0
M  V30 12177 H 1143.95 5.68464 -5.0473 0
M  V30 12178 N 1145.53 0.438773 1.51369 0
M  V30 12179 C 1146.46 -0.362467 2.3067 0
M  V30 12180 C 1147.44 -1.01973 1.36145 0
M  V30 12181 O 1148.62 -1.0231 1.65065 0
M  V30 12182 C 1145.75 -1.46313 3.14976 0
M  V30 12183 C 1144.71 -0.929272 4.1779 0
M  V30 12184 C 1144.03 -2.12579 4.90627 0
M  V30 12185 C 1145.33 0.0372782 5.22287 0
M  V30 12186 H 1147.03 0.29931 2.979 0
M  V30 12187 H 1144.57 0.14539 1.43264 0
M  V30 12188 H 1146.53 -2.03088 3.69233 0
M  V30 12189 H 1145.25 -2.15321 2.45569 0
M  V30 12190 H 1143.91 -0.383722 3.64586 0
M  V30 12191 H 1143.56 -2.8021 4.17722 0
M  V30 12192 H 1143.26 -1.77496 5.60151 0
M  V30 12193 H 1144.78 -2.69905 5.47708 0
M  V30 12194 H 1146.2 -0.44022 5.71607 0
M  V30 12195 H 1144.59 0.300748 5.99346 0
M  V30 12196 H 1145.66 0.973503 4.75027 0
M  V30 12197 N 1147.01 -1.56678 0.170181 0
M  V30 12198 C 1148.25 -1.96024 -0.475147 0
M  V30 12199 C 1148.57 -1.0588 -1.64465 0
M  V30 12200 O 1149.77 -1.34901 -2.35614 0
M  V30 12201 C 1148.23 -3.4855 -0.896704 0
M  V30 12202 C 1147.84 -4.47318 0.247142 0
M  V30 12203 C 1149.58 -3.96716 -1.51052 0
M  V30 12204 C 1147.49 -5.91082 -0.193982 0
M  V30 12205 H 1146.42 -0.731883 -0.181282 0
M  V30 12206 H 1149.07 -1.81674 0.25823 0
M  V30 12207 H 1147.45 -3.58314 -1.68603 0
M  V30 12208 H 1148.63 -4.49268 1.02445 0
M  V30 12209 H 1146.94 -4.09203 0.770839 0
M  V30 12210 H 1149.54 -5.01581 -1.85258 0
M  V30 12211 H 1149.88 -3.39588 -2.40802 0
M  V30 12212 H 1150.41 -3.89965 -0.785652 0
M  V30 12213 H 1147.15 -6.5208 0.668714 0
M  V30 12214 H 1146.67 -5.92441 -0.936675 0
M  V30 12215 H 1148.35 -6.43844 -0.638237 0
M  V30 12216 N 1148.48 0.103547 -1.57259 0
M  V30 12217 C 1149.73 0.806979 -1.8529 0
M  V30 12218 C 1150.05 1.79679 -0.757653 0
M  V30 12219 O 1149.32 1.94695 0.216913 0
M  V30 12220 H 1147.9 0.301012 -0.683667 0
M  V30 12221 H 1150.56 0.0871886 -1.94705 0
M  V30 12222 H 1149.66 1.34275 -2.81738 0
M  V30 12223 N 1149.96 1.53094 0.37415 0
M  V30 12224 C 1151.19 1.72508 1.13687 0
M  V30 12225 C 1151.6 0.449922 1.83773 0
M  V30 12226 O 1150.94 -0.586391 1.74089 0
M  V30 12227 C 1151 2.82965 2.21746 0
M  V30 12228 C 1150.67 4.23599 1.71501 0
M  V30 12229 C 1151.67 5.06245 1.1837 0
M  V30 12230 C 1149.35 4.69978 1.77273 0
M  V30 12231 C 1151.34 6.33357 0.71679 0
M  V30 12232 C 1149.03 5.9707 1.30194 0
M  V30 12233 C 1150.03 6.7859 0.774856 0
M  V30 12234 O 1149.72 8.03298 0.310981 0
M  V30 12235 H 1149.45 0.580611 0.346218 0
M  V30 12236 H 1152 2.00596 0.441614 0
M  V30 12237 H 1150.23 2.5033 2.9474 0
M  V30 12238 H 1151.92 2.90638 2.83345 0
M  V30 12239 H 1152.69 4.71591 1.13256 0
M  V30 12240 H 1148.57 4.06605 2.17241 0
M  V30 12241 H 1152.11 6.96934 0.30471 0
M  V30 12242 H 1148.01 6.31225 1.34999 0
M  V30 12243 H 1148.78 8.17364 0.431098 0
M  V30 12244 N 1151.44 -0.633461 1.44309 0
M  V30 12245 C 1152.67 -1.42033 1.50447 0
M  V30 12246 C 1153.08 -1.88362 0.128585 0
M  V30 12247 O 1152.44 -1.60695 -0.865071 0
M  V30 12248 C 1152.49 -2.6422 2.46719 0
M  V30 12249 O 1152.21 -2.19823 3.78958 0
M  V30 12250 C 1153.71 -3.57372 2.62298 0
M  V30 12251 H 1150.93 -0.435667 0.510329 0
M  V30 12252 H 1153.48 -0.774907 1.8925 0
M  V30 12253 H 1151.63 -3.24859 2.11058 0
M  V30 12254 H 1152.05 -2.99022 4.30913 0
M  V30 12255 H 1153.52 -4.39719 3.33693 0
M  V30 12256 H 1154 -4.06026 1.67449 0
M  V30 12257 H 1154.6 -3.02603 2.9885 0
M  V30 12258 N 1152.92 -1.31168 -0.873655 0
M  V30 12259 C 1154.16 -1.21938 -1.64044 0
M  V30 12260 C 1154.52 0.219903 -1.90737 0
M  V30 12261 O 1155.72 0.435635 -2.65246 0
M  V30 12262 C 1153.99 -2.03633 -2.93715 0
M  V30 12263 S 1155.55 -2.11224 -3.84616 0
M  V30 12264 H 1152.37 -0.43436 -0.562896 0
M  V30 12265 H 1154.97 -1.65786 -1.03612 0
M  V30 12266 H 1153.68 -3.07298 -2.72022 0
M  V30 12267 H 1153.21 -1.6049 -3.59175 0
M  V30 12268 H 1155.22 -1.24787 -4.80253 0
M  V30 12269 N 1154.4 1.08748 -1.14068 0
M  V30 12270 C 1155.33 2.17591 -0.84714 0
M  V30 12271 C 1156.31 1.68962 0.196415 0
M  V30 12272 O 1157.49 1.94125 0.0538415 0
M  V30 12273 C 1154.62 3.45823 -0.320005 0
M  V30 12274 C 1153.58 4.07824 -1.2986 0
M  V30 12275 C 1152.9 5.30965 -0.630925 0
M  V30 12276 C 1154.2 4.49512 -2.65963 0
M  V30 12277 H 1155.9 2.42404 -1.75729 0
M  V30 12278 H 1153.44 1.16502 -0.846356 0
M  V30 12279 H 1155.4 4.21276 -0.102271 0
M  V30 12280 H 1154.12 3.20553 0.625561 0
M  V30 12281 H 1152.78 3.34398 -1.50245 0
M  V30 12282 H 1152.43 5.01979 0.320337 0
M  V30 12283 H 1152.13 5.73402 -1.28388 0
M  V30 12284 H 1153.65 6.09136 -0.422635 0
M  V30 12285 H 1155.06 5.16159 -2.49506 0
M  V30 12286 H 1153.46 5.02857 -3.27498 0
M  V30 12287 H 1154.53 3.6157 -3.23102 0
M  V30 12288 N 1155.87 0.935264 1.26849 0
M  V30 12289 C 1156.8 0.457776 2.28969 0
M  V30 12290 C 1157.79 -0.48587 1.63013 0
M  V30 12291 O 1158.97 -0.388998 1.90264 0
M  V30 12292 C 1156.1 -0.283332 3.46142 0
M  V30 12293 C 1155.05 0.573196 4.24144 0
M  V30 12294 C 1154.38 -0.297525 5.33872 0
M  V30 12295 C 1155.68 1.84153 4.88759 0
M  V30 12296 H 1157.37 1.31125 2.69159 0
M  V30 12297 H 1154.92 0.631956 1.29392 0
M  V30 12298 H 1156.87 -0.628366 4.16689 0
M  V30 12299 H 1155.6 -1.1709 3.04889 0
M  V30 12300 H 1154.26 0.901043 3.55354 0
M  V30 12301 H 1153.9 -1.18427 4.8886 0
M  V30 12302 H 1153.6 0.272126 5.8697 0
M  V30 12303 H 1155.13 -0.637961 6.07258 0
M  V30 12304 H 1156.54 1.5641 5.51551 0
M  V30 12305 H 1154.94 2.35528 5.51948 0
M  V30 12306 H 1156.01 2.5565 4.12033 0
M  V30 12307 N 1157.35 -1.41121 0.701616 0
M  V30 12308 C 1158.32 -2.29148 0.0490091 0
M  V30 12309 C 1159.32 -1.44679 -0.701763 0
M  V30 12310 O 1160.51 -1.65757 -0.53575 0
M  V30 12311 C 1157.64 -3.2766 -0.940837 0
M  V30 12312 H 1158.83 -2.88354 0.824133 0
M  V30 12313 H 1156.38 -1.49209 0.465457 0
M  V30 12314 H 1157.12 -2.73445 -1.74351 0
M  V30 12315 H 1156.9 -3.89997 -0.405551 0
M  V30 12316 H 1158.39 -3.93609 -1.39507 0
M  V30 12317 N 1158.83 -0.446794 -1.51134 0
M  V30 12318 C 1159.79 0.348311 -2.26538 0
M  V30 12319 C 1160.79 0.941566 -1.3035 0
M  V30 12320 O 1161.98 0.814537 -1.53984 0
M  V30 12321 C 1159.12 1.49371 -3.06433 0
M  V30 12322 H 1160.31 -0.312648 -2.98266 0
M  V30 12323 H 1157.86 -0.200201 -1.55013 0
M  V30 12324 H 1158.6 2.19045 -2.39144 0
M  V30 12325 H 1158.38 1.07439 -3.77093 0
M  V30 12326 H 1159.87 2.05522 -3.63525 0
M  V30 12327 N 1160.31 1.56586 -0.178487 0
M  V30 12328 C 1161.56 1.96273 0.464745 0
M  V30 12329 C 1161.87 1.0675 1.63902 0
M  V30 12330 O 1163.08 1.36148 2.34896 0
M  V30 12331 C 1161.53 3.49021 0.878207 0
M  V30 12332 C 1161.14 4.4718 -0.270861 0
M  V30 12333 C 1162.88 3.97512 1.48946 0
M  V30 12334 C 1160.79 5.91176 0.162632 0
M  V30 12335 H 1159.72 0.732834 0.177398 0
M  V30 12336 H 1162.37 1.81534 -0.267861 0
M  V30 12337 H 1160.75 3.59203 1.667 0
M  V30 12338 H 1161.93 4.48718 -1.04826 0
M  V30 12339 H 1160.24 4.08788 -0.792529 0
M  V30 12340 H 1162.84 5.02556 1.82595 0
M  V30 12341 H 1163.18 3.40861 2.38997 0
M  V30 12342 H 1163.72 3.90376 0.76496 0
M  V30 12343 H 1160.46 6.51716 -0.703286 0
M  V30 12344 H 1159.98 5.9293 0.905243 0
M  V30 12345 H 1161.65 6.44174 0.604084 0
M  V30 12346 N 1161.79 -0.095206 1.57312 0
M  V30 12347 C 1163.03 -0.804335 1.87909 0
M  V30 12348 C 1163.39 -1.75907 0.769465 0
M  V30 12349 O 1164.59 -2.51155 0.957846 0
M  V30 12350 C 1162.86 -1.51405 3.23746 0
M  V30 12351 S 1164.42 -2.26147 3.76036 0
M  V30 12352 H 1161.24 -0.267976 0.658567 0
M  V30 12353 H 1163.84 -0.0614682 1.95403 0
M  V30 12354 H 1162.55 -0.805066 4.02426 0
M  V30 12355 H 1162.08 -2.29681 3.1939 0
M  V30 12356 H 1164.09 -3.52284 3.49443 0
M  V30 12357 N 1163.26 -1.53291 -0.366026 0
M  V30 12358 C 1164.51 -1.69451 -1.10872 0
M  V30 12359 C 1164.84 -0.446078 -1.89316 0
M  V30 12360 O 1164.09 0.571962 -1.87155 0
M  V30 12361 C 1164.39 -2.89547 -2.09517 0
M  V30 12362 C 1164.06 -4.26073 -1.47556 0
M  V30 12363 C 1162.72 -4.63199 -1.30386 0
M  V30 12364 C 1165.07 -5.10977 -1.02724 0
M  V30 12365 C 1162.4 -5.82866 -0.669666 0
M  V30 12366 C 1164.75 -6.31289 -0.407052 0
M  V30 12367 C 1163.42 -6.67128 -0.222839 0
M  V30 12368 H 1162.69 -0.620066 -0.405708 0
M  V30 12369 H 1165.33 -1.87475 -0.390563 0
M  V30 12370 H 1163.64 -2.66034 -2.87634 0
M  V30 12371 H 1165.34 -2.99245 -2.66933 0
M  V30 12372 H 1161.93 -3.9684 -1.61914 0
M  V30 12373 H 1166.11 -4.82844 -1.14783 0
M  V30 12374 H 1161.37 -6.09224 -0.515351 0
M  V30 12375 H 1165.54 -6.96381 -0.0514661 0
M  V30 12376 H 1163.17 -7.59718 0.270647 0
M  V30 12377 N 1164.74 0.6258 -1.44643 0
M  V30 12378 C 1165.99 1.38525 -1.47706 0
M  V30 12379 C 1166.32 1.94179 -0.111703 0
M  V30 12380 O 1165.57 1.74432 0.887237 0
M  V30 12381 C 1165.87 2.56466 -2.48917 0
M  V30 12382 C 1165.54 2.19069 -3.94106 0
M  V30 12383 C 1164.2 2.08583 -4.33643 0
M  V30 12384 C 1166.55 1.89608 -4.85488 0
M  V30 12385 C 1163.88 1.66831 -5.6248 0
M  V30 12386 C 1166.23 1.49347 -6.14718 0
M  V30 12387 C 1164.9 1.37406 -6.53204 0
M  V30 12388 H 1164.17 0.506899 -0.540494 0
M  V30 12389 H 1166.81 0.709128 -1.77887 0
M  V30 12390 H 1165.12 3.29335 -2.12239 0
M  V30 12391 H 1166.81 3.14695 -2.48532 0
M  V30 12392 H 1163.4 2.28151 -3.62829 0
M  V30 12393 H 1167.59 1.96616 -4.55693 0
M  V30 12394 H 1162.84 1.56195 -5.91112 0
M  V30 12395 H 1167.02 1.2559 -6.84982 0
M  V30 12396 H 1164.65 1.04826 -7.52938 0
M  V30 12397 N 1166.22 1.31629 0.866686 0
M  V30 12398 C 1167.47 1.21503 1.61998 0
M  V30 12399 C 1167.8 -0.226044 1.93182 0
M  V30 12400 O 1167.05 -1.17573 1.56445 0
M  V30 12401 C 1167.35 2.00775 2.95676 0
M  V30 12402 C 1167.02 3.50245 2.83971 0
M  V30 12403 C 1165.68 3.91 2.80485 0
M  V30 12404 C 1168.03 4.45347 2.70769 0
M  V30 12405 C 1165.36 5.25119 2.61661 0
M  V30 12406 C 1167.71 5.79595 2.53481 0
M  V30 12407 C 1166.37 6.19567 2.48381 0
M  V30 12408 H 1165.64 0.44461 0.592792 0
M  V30 12409 H 1168.29 1.62929 1.00629 0
M  V30 12410 H 1166.6 1.52039 3.61097 0
M  V30 12411 H 1168.29 1.90318 3.52959 0
M  V30 12412 H 1164.88 3.17869 2.87502 0
M  V30 12413 H 1169.07 4.14789 2.72514 0
M  V30 12414 H 1164.32 5.5516 2.5614 0
M  V30 12415 H 1168.5 6.5291 2.42243 0
M  V30 12416 H 1166.12 7.23434 2.33554 0
M  V30 12417 N 1167.7 -1.08142 1.14644 0
M  V30 12418 C 1168.66 -2.13308 0.83859 0
M  V30 12419 C 1169.66 -1.60022 -0.158012 0
M  V30 12420 O 1170.85 -1.74057 0.0706621 0
M  V30 12421 C 1167.98 -3.39978 0.250591 0
M  V30 12422 H 1169.18 -2.42049 1.77066 0
M  V30 12423 H 1166.73 -1.23899 0.952828 0
M  V30 12424 H 1167.47 -3.16873 -0.690064 0
M  V30 12425 H 1167.25 -3.79952 0.968456 0
M  V30 12426 H 1168.74 -4.17567 0.0525115 0
M  V30 12427 N 1169.18 -0.941978 -1.26351 0
M  V30 12428 C 1170.42 -0.589971 -1.93715 0
M  V30 12429 C 1170.75 0.871085 -1.73903 0
M  V30 12430 O 1170.01 1.63864 -1.06991 0
M  V30 12431 C 1170.31 -0.879481 -3.4641 0
M  V30 12432 C 1169.97 -2.32454 -3.86362 0
M  V30 12433 C 1168.63 -2.71957 -3.9698 0
M  V30 12434 C 1170.99 -3.2636 -4.06373 0
M  V30 12435 C 1168.31 -4.04459 -4.25006 0
M  V30 12436 C 1170.67 -4.58459 -4.35887 0
M  V30 12437 C 1169.33 -4.97775 -4.4472 0
M  V30 12438 H 1168.6 -0.215886 -0.708854 0
M  V30 12439 H 1171.25 -1.18863 -1.50146 0
M  V30 12440 H 1169.55 -0.198289 -3.91298 0
M  V30 12441 H 1171.25 -0.585887 -3.96697 0
M  V30 12442 H 1167.84 -2.00814 -3.78645 0
M  V30 12443 H 1172.02 -2.97037 -3.97596 0
M  V30 12444 H 1167.28 -4.34582 -4.30057 0
M  V30 12445 H 1171.45 -5.31213 -4.50317 0
M  V30 12446 H 1169.08 -6.00475 -4.66191 0
M  V30 12447 N 1170.66 1.40747 -0.709091 0
M  V30 12448 C 1171.6 2.30741 -0.0523584 0
M  V30 12449 C 1172.57 1.4784 0.757145 0
M  V30 12450 O 1173.76 1.76595 0.72242 0
M  V30 12451 C 1170.9 3.34 0.868203 0
M  V30 12452 C 1170.01 4.31972 0.0488686 0
M  V30 12453 C 1169.15 5.223 0.968311 0
M  V30 12454 C 1168.18 6.11934 0.142682 0
M  V30 12455 N 1167.32 6.947 1.01665 0
M  V30 12456 H 1172.16 2.86338 -0.825509 0
M  V30 12457 H 1169.7 1.41013 -0.418785 0
M  V30 12458 H 1171.66 3.92431 1.41611 0
M  V30 12459 H 1170.29 2.79921 1.6076 0
M  V30 12460 H 1169.34 3.75377 -0.616137 0
M  V30 12461 H 1170.65 4.95291 -0.590625 0
M  V30 12462 H 1169.8 5.85631 1.58498 0
M  V30 12463 H 1168.54 4.5924 1.64164 0
M  V30 12464 H 1167.55 5.47639 -0.486965 0
M  V30 12465 H 1168.77 6.77052 -0.527046 0
M  V30 12466 H 1166.72 6.34236 1.67575 0
M  V30 12467 H 1166.64 7.54759 0.433045 0
M  V30 12468 H 1167.9 7.62487 1.6197 0
M  V30 12469 N 1172.13 0.454803 1.50895 0
M  V30 12470 C 1173.36 -0.106259 2.07128 0
M  V30 12471 C 1173.78 -1.3418 1.31823 0
M  V30 12472 O 1173.14 -1.77667 0.361147 0
M  V30 12473 C 1173.19 -0.389609 3.58489 0
M  V30 12474 O 1172.29 -1.47305 3.85195 0
M  V30 12475 H 1171.63 0.00580588 0.663975 0
M  V30 12476 H 1174.16 0.641163 1.94294 0
M  V30 12477 H 1174.17 -0.634934 4.03029 0
M  V30 12478 H 1172.85 0.513338 4.1272 0
M  V30 12479 H 1171.43 -1.21631 3.52506 0
M  V30 12480 N 1173.61 -1.56489 0.186789 0
M  V30 12481 C 1175.03 -1.58701 -0.169176 0
M  V30 12482 C 1175.23 -1.2027 -1.61671 0
M  V30 12483 O 1174.28 -0.92154 -2.35083 0
M  V30 12484 C 1175.6 -3.00437 0.125657 0
M  V30 12485 C 1177.14 -3.12932 0.0651 0
M  V30 12486 C 1177.62 -4.56787 0.333131 0
M  V30 12487 N 1179.11 -4.62344 0.281453 0
M  V30 12488 C 1179.85 -5.71529 0.462805 0
M  V30 12489 N 1179.34 -6.89213 0.704054 0
M  V30 12490 N 1181.13 -5.60692 0.397636 0
M  V30 12491 H 1173.29 -1.79754 1.13148 0
M  V30 12492 H 1175.55 -0.83385 0.450997 0
M  V30 12493 H 1175.25 -3.33086 1.12901 0
M  V30 12494 H 1175.13 -3.72782 -0.575612 0
M  V30 12495 H 1177.52 -2.80101 -0.928845 0
M  V30 12496 H 1177.6 -2.42991 0.799318 0
M  V30 12497 H 1177.24 -4.9033 1.32436 0
M  V30 12498 H 1177.17 -5.24907 -0.421879 0
M  V30 12499 H 1179.66 -3.77764 0.101266 0
M  V30 12500 H 1179.97 -7.68314 0.831468 0
M  V30 12501 H 1178.32 -6.9104 0.740851 0
M  V30 12502 H 1181.51 -4.6763 0.20964 0
M  V30 12503 H 1181.68 -6.45726 0.54239 0
M  V30 12504 N 1175.09 0.086862 -1.5736 0
M  V30 12505 C 1176.04 1.10478 -2.02641 0
M  V30 12506 C 1177.01 1.39331 -0.904219 0
M  V30 12507 O 1178.19 1.50654 -1.17081 0
M  V30 12508 C 1175.33 2.41754 -2.4627 0
M  V30 12509 C 1174.44 2.19561 -3.72044 0
M  V30 12510 C 1173.58 3.44294 -4.04519 0
M  V30 12511 C 1172.62 3.17399 -5.23378 0
M  V30 12512 N 1171.76 4.3442 -5.51564 0
M  V30 12513 H 1176.6 0.711663 -2.89378 0
M  V30 12514 H 1174.13 0.339856 -1.4312 0
M  V30 12515 H 1176.09 3.18378 -2.69613 0
M  V30 12516 H 1174.72 2.78896 -1.62532 0
M  V30 12517 H 1173.77 1.337 -3.5613 0
M  V30 12518 H 1175.08 1.95685 -4.58812 0
M  V30 12519 H 1174.24 4.29321 -4.28682 0
M  V30 12520 H 1172.98 3.71232 -3.16289 0
M  V30 12521 H 1171.98 2.30765 -4.99026 0
M  V30 12522 H 1173.21 2.91799 -6.13213 0
M  V30 12523 H 1171.15 4.61418 -4.66293 0
M  V30 12524 H 1171.07 4.13764 -6.3272 0
M  V30 12525 H 1172.34 5.20489 -5.80269 0
M  V30 12526 N 1176.57 1.53483 0.357892 0
M  V30 12527 C 1177.5 1.83444 1.44466 0
M  V30 12528 C 1178.48 0.688486 1.55544 0
M  V30 12529 O 1179.66 0.93906 1.69986 0
M  V30 12530 C 1176.79 2.03122 2.81707 0
M  V30 12531 C 1175.75 3.1891 2.85448 0
M  V30 12532 C 1175.07 3.23895 4.25436 0
M  V30 12533 C 1176.37 4.57334 2.52275 0
M  V30 12534 H 1178.07 2.74456 1.19642 0
M  V30 12535 H 1175.61 1.3206 0.574112 0
M  V30 12536 H 1177.57 2.22666 3.57768 0
M  V30 12537 H 1176.29 1.08827 3.07935 0
M  V30 12538 H 1174.95 2.99199 2.11838 0
M  V30 12539 H 1174.6 2.27223 4.48753 0
M  V30 12540 H 1174.3 4.01694 4.28854 0
M  V30 12541 H 1175.82 3.45632 5.0336 0
M  V30 12542 H 1177.24 4.76988 3.1805 0
M  V30 12543 H 1175.63 5.37431 2.66998 0
M  V30 12544 H 1176.7 4.61921 1.47501 0
M  V30 12545 N 1178.05 -0.61812 1.44973 0
M  V30 12546 C 1179.46 -1.19994 1.43033 0
M  V30 12547 C 1179.81 -1.95607 0.152422 0
M  V30 12548 O 1178.93 -2.03114 -0.746571 0
M  V30 12549 C 1179.53 -2.18269 2.59122 0
M  V30 12550 C 1178.09 -2.7185 2.60336 0
M  V30 12551 C 1177.23 -1.4707 2.35086 0
M  V30 12552 H 1180.18 -0.408034 1.53365 0
M  V30 12553 H 1180.21 -3.01113 2.32619 0
M  V30 12554 H 1179.72 -1.63208 3.52115 0
M  V30 12555 H 1177.82 -3.30878 1.7132 0
M  V30 12556 H 1177.93 -3.17001 3.59231 0
M  V30 12557 H 1176.3 -1.75658 1.84435 0
M  V30 12558 H 1177.08 -0.938928 3.30211 0
M  V30 12559 N 1179.52 -1.32087 -0.859693 0
M  V30 12560 C 1180.43 -1.22587 -2.00024 0
M  V30 12561 C 1181.45 -0.140477 -1.73432 0
M  V30 12562 O 1182.63 -0.360213 -1.98153 0
M  V30 12563 C 1179.69 -0.944195 -3.33595 0
M  V30 12564 C 1178.75 -2.11752 -3.73443 0
M  V30 12565 C 1177.98 -1.84919 -5.0064 0
M  V30 12566 O 1178.21 -0.789299 -5.64913 0
M  V30 12567 O 1177.14 -2.70885 -5.37499 0
M  V30 12568 H 1180.97 -2.18457 -2.10974 0
M  V30 12569 H 1178.55 -1.11927 -0.989577 0
M  V30 12570 H 1180.43 -0.803389 -4.13671 0
M  V30 12571 H 1179.11 -0.0156083 -3.23696 0
M  V30 12572 H 1178.02 -2.31378 -2.93965 0
M  V30 12573 H 1179.35 -3.02872 -3.87981 0
M  V30 12574 N 1181 1.07532 -1.15215 0
M  V30 12575 C 1181.95 2.16785 -0.843022 0
M  V30 12576 C 1182.94 1.68411 0.182802 0
M  V30 12577 O 1184.15 1.7996 0.0380164 0
M  V30 12578 H 1180.52 0.707465 -0.254945 0
M  V30 12579 H 1182.5 2.40078 -1.77215 0
M  V30 12580 C 1181.24 3.45967 -0.346699 0
M  V30 12581 H 1180.57 3.83574 -1.12744 0
M  V30 12582 H 1182.01 4.23663 -0.169039 0
M  V30 12583 C 1180.47 3.23768 0.931437 0
M  V30 12584 O 1181 3.48179 2.00336 0
M  V30 12585 N 1179.2 2.77264 0.870217 0
M  V30 12586 H 1178.75 2.576 -0.00226223 0
M  V30 12587 H 1178.71 2.6279 1.72594 0
M  V30 12588 N 1182.48 0.948665 1.2585 0
M  V30 12589 C 1183.73 0.600236 1.934 0
M  V30 12590 C 1184.06 -0.86185 1.74363 0
M  V30 12591 O 1183.31 -1.63294 1.07858 0
M  V30 12592 C 1183.61 0.89784 3.45939 0
M  V30 12593 C 1183.28 2.345 3.85124 0
M  V30 12594 C 1181.94 2.74058 3.95532 0
M  V30 12595 C 1184.29 3.2851 4.04636 0
M  V30 12596 C 1181.62 4.06707 4.22855 0
M  V30 12597 C 1183.97 4.60764 4.3345 0
M  V30 12598 C 1182.63 5.00127 4.42074 0
M  V30 12599 H 1181.9 0.219642 0.707699 0
M  V30 12600 H 1184.55 1.19658 1.49513 0
M  V30 12601 H 1182.86 0.219037 3.91187 0
M  V30 12602 H 1184.55 0.606916 3.96381 0
M  V30 12603 H 1181.14 2.02819 3.77574 0
M  V30 12604 H 1185.33 2.99141 3.96015 0
M  V30 12605 H 1180.58 4.36856 4.27746 0
M  V30 12606 H 1184.76 5.33594 4.47493 0
M  V30 12607 H 1182.38 6.02939 4.63 0
M  V30 12608 N 1183.96 -1.40369 0.716545 0
M  V30 12609 C 1184.91 -2.32539 0.053472 0
M  V30 12610 C 1185.9 -1.5209 -0.745984 0
M  V30 12611 O 1187.11 -1.67883 -0.649245 0
M  V30 12612 H 1183.48 -0.751998 -0.00151088 0
M  V30 12613 H 1185.45 -2.86111 0.847535 0
M  V30 12614 C 1184.2 -3.37061 -0.853515 0
M  V30 12615 H 1183.52 -3.99032 -0.247754 0
M  V30 12616 H 1184.96 -4.04046 -1.28541 0
M  V30 12617 C 1183.42 -2.72619 -1.97941 0
M  V30 12618 O 1183.95 -2.59024 -3.07033 0
M  V30 12619 N 1182.16 -2.30988 -1.76332 0
M  V30 12620 H 1181.71 -2.42246 -0.876063 0
M  V30 12621 H 1181.66 -1.88209 -2.51843 0
M  V30 12622 N 1185.44 -0.462799 -1.50652 0
M  V30 12623 C 1186.35 0.341191 -2.32106 0
M  V30 12624 C 1187.36 1.00384 -1.42123 0
M  V30 12625 O 1188.54 0.993635 -1.75182 0
M  V30 12626 C 1185.6 1.41356 -3.16575 0
M  V30 12627 C 1184.66 0.768375 -4.22368 0
M  V30 12628 C 1183.9 1.78964 -5.028 0
M  V30 12629 O 1184.12 3.01515 -4.84195 0
M  V30 12630 O 1183.05 1.36606 -5.86193 0
M  V30 12631 H 1186.88 -0.324482 -3.01962 0
M  V30 12632 H 1184.47 -0.224807 -1.47699 0
M  V30 12633 H 1186.35 2.0349 -3.69012 0
M  V30 12634 H 1185.02 2.06285 -2.49456 0
M  V30 12635 H 1183.93 0.108297 -3.73943 0
M  V30 12636 H 1185.26 0.162164 -4.91933 0
M  V30 12637 N 1186.91 1.56388 -0.195085 0
M  V30 12638 C 1187.88 2.17859 0.712053 0
M  V30 12639 C 1188.88 1.13304 1.141 0
M  V30 12640 O 1190.07 1.38689 1.05409 0
M  V30 12641 C 1187.2 2.78065 1.97213 0
M  V30 12642 H 1188.39 2.9938 0.176529 0
M  V30 12643 H 1185.95 1.56205 0.0545322 0
M  V30 12644 H 1186.68 2.00342 2.55017 0
M  V30 12645 H 1186.47 3.54603 1.67329 0
M  V30 12646 H 1187.96 3.25266 2.619 0
M  V30 12647 N 1188.39 -0.0785156 1.57404 0
M  V30 12648 C 1189.34 -1.09402 2.03224 0
M  V30 12649 C 1190.31 -1.38849 0.911596 0
M  V30 12650 O 1191.49 -1.50031 1.17878 0
M  V30 12651 C 1188.63 -2.40444 2.47549 0
M  V30 12652 C 1187.75 -2.17585 3.73203 0
M  V30 12653 C 1186.88 -3.42143 4.06339 0
M  V30 12654 C 1185.92 -3.14619 5.25054 0
M  V30 12655 N 1185.06 -4.31489 5.5386 0
M  V30 12656 H 1189.9 -0.696307 2.89751 0
M  V30 12657 H 1187.44 -0.332261 1.43298 0
M  V30 12658 H 1189.39 -3.16944 2.71298 0
M  V30 12659 H 1188.02 -2.78031 1.64009 0
M  V30 12660 H 1187.08 -1.3181 3.56834 0
M  V30 12661 H 1188.39 -1.93249 4.59844 0
M  V30 12662 H 1187.54 -4.27042 4.30953 0
M  V30 12663 H 1186.28 -3.69549 3.18253 0
M  V30 12664 H 1185.29 -2.28116 5.00243 0
M  V30 12665 H 1186.51 -2.88543 6.14752 0
M  V30 12666 H 1184.46 -4.58939 4.68734 0
M  V30 12667 H 1184.37 -4.10403 6.34906 0
M  V30 12668 H 1185.64 -5.17404 5.83021 0
M  V30 12669 N 1189.87 -1.5367 -0.349747 0
M  V30 12670 C 1191.12 -1.70618 -1.09068 0
M  V30 12671 C 1191.45 -0.466133 -1.88832 0
M  V30 12672 O 1190.7 0.552079 -1.87751 0
M  V30 12673 C 1191 -2.91753 -2.06434 0
M  V30 12674 C 1190.67 -4.27614 -1.43029 0
M  V30 12675 C 1189.33 -4.64555 -1.25466 0
M  V30 12676 C 1191.68 -5.12037 -0.972987 0
M  V30 12677 C 1189.01 -5.83543 -0.607807 0
M  V30 12678 C 1191.36 -6.31685 -0.340073 0
M  V30 12679 C 1190.02 -6.67327 -0.152069 0
M  V30 12680 H 1189.29 -0.624334 -0.399108 0
M  V30 12681 H 1191.94 -1.87879 -0.370657 0
M  V30 12682 H 1190.25 -2.6907 -2.84796 0
M  V30 12683 H 1191.94 -3.02059 -2.63744 0
M  V30 12684 H 1188.53 -3.98535 -1.57696 0
M  V30 12685 H 1192.72 -4.84035 -1.09655 0
M  V30 12686 H 1187.97 -6.09737 -0.450705 0
M  V30 12687 H 1192.15 -6.96396 0.0223973 0
M  V30 12688 H 1189.77 -7.59388 0.35121 0
M  V30 12689 N 1191.35 0.610423 -1.45298 0
M  V30 12690 C 1192.6 1.36558 -1.48441 0
M  V30 12691 C 1192.91 1.95173 -0.129137 0
M  V30 12692 O 1194.12 2.71473 -0.0381956 0
M  V30 12693 C 1192.57 2.47349 -2.61431 0
M  V30 12694 C 1192.18 1.95158 -4.03258 0
M  V30 12695 C 1193.92 3.24383 -2.73817 0
M  V30 12696 C 1191.83 3.03414 -5.07635 0
M  V30 12697 H 1190.76 0.513253 -0.552347 0
M  V30 12698 H 1193.41 0.654535 -1.7143 0
M  V30 12699 H 1191.79 3.21125 -2.31721 0
M  V30 12700 H 1192.97 1.2811 -4.42634 0
M  V30 12701 H 1191.28 1.30878 -3.95297 0
M  V30 12702 H 1193.88 4.05123 -3.48969 0
M  V30 12703 H 1194.22 3.75205 -1.80352 0
M  V30 12704 H 1194.76 2.57705 -3.03039 0
M  V30 12705 H 1191.5 2.57512 -6.028 0
M  V30 12706 H 1191.02 3.69039 -4.72833 0
M  V30 12707 H 1192.69 3.67844 -5.32259 0
M  V30 12708 N 1192.83 1.32541 0.852676 0
M  V30 12709 C 1194.05 1.2622 1.6394 0
M  V30 12710 C 1194.47 -0.169455 1.88038 0
M  V30 12711 O 1193.83 -1.10719 1.45078 0
M  V30 12712 C 1193.88 2.02062 2.99755 0
M  V30 12713 O 1193.6 3.39641 2.76723 0
M  V30 12714 C 1195.1 2.02787 3.94198 0
M  V30 12715 H 1192.32 0.435405 0.510552 0
M  V30 12716 H 1194.86 1.74696 1.06309 0
M  V30 12717 H 1193.02 1.57303 3.54026 0
M  V30 12718 H 1193.43 3.78484 3.63111 0
M  V30 12719 H 1194.91 2.60333 4.86755 0
M  V30 12720 H 1195.38 1.01464 4.27319 0
M  V30 12721 H 1195.99 2.47504 3.45864 0
M  V30 12722 N 1194.3 -1.0692 1.15784 0
M  V30 12723 C 1195.55 -1.796 0.935429 0
M  V30 12724 C 1195.88 -1.86935 -0.537173 0
M  V30 12725 O 1195.13 -1.35244 -1.41448 0
M  V30 12726 C 1195.43 -3.24389 1.50022 0
M  V30 12727 C 1195.1 -3.37145 2.99406 0
M  V30 12728 C 1193.76 -3.40334 3.40186 0
M  V30 12729 C 1196.11 -3.39584 3.95389 0
M  V30 12730 C 1193.44 -3.43569 4.75581 0
M  V30 12731 C 1195.79 -3.44356 5.30661 0
M  V30 12732 C 1194.46 -3.45824 5.70931 0
M  V30 12733 H 1193.73 -0.657201 0.342298 0
M  V30 12734 H 1196.37 -1.25784 1.44397 0
M  V30 12735 H 1194.68 -3.81015 0.91297 0
M  V30 12736 H 1196.38 -3.79209 1.30389 0
M  V30 12737 H 1192.97 -3.35365 2.66887 0
M  V30 12738 H 1197.15 -3.36337 3.64954 0
M  V30 12739 H 1192.41 -3.43006 5.06119 0
M  V30 12740 H 1196.58 -3.4519 6.04828 0
M  V30 12741 H 1194.21 -3.48084 6.75826 0
M  V30 12742 N 1195.78 -0.955326 -1.25345 0
M  V30 12743 C 1197.01 -0.627233 -1.97688 0
M  V30 12744 C 1197.43 0.793973 -1.70522 0
M  V30 12745 O 1196.79 1.537 -0.961556 0
M  V30 12746 C 1196.84 -0.892969 -3.49369 0
M  V30 12747 O 1195.94 0.0278871 -4.12391 0
M  V30 12748 H 1195.28 -0.238402 -0.619726 0
M  V30 12749 H 1197.81 -1.28211 -1.59446 0
M  V30 12750 H 1197.82 -0.819517 -3.99685 0
M  V30 12751 H 1196.5 -1.92879 -3.6847 0
M  V30 12752 H 1195.08 -0.0978295 -3.72772 0
M  V30 12753 N 1197.26 1.39987 -0.723979 0
M  V30 12754 C 1198.19 2.28185 -0.0257726 0
M  V30 12755 C 1199.17 1.43795 0.75907 0
M  V30 12756 O 1200.36 1.73198 0.743948 0
M  V30 12757 C 1197.48 3.24489 0.970811 0
M  V30 12758 C 1196.53 4.25607 0.275778 0
M  V30 12759 S 1197.36 5.26035 -1.00237 0
M  V30 12760 C 1198.52 6.25899 -0.00809987 0
M  V30 12761 H 1198.75 2.87054 -0.773761 0
M  V30 12762 H 1196.28 1.45546 -0.515332 0
M  V30 12763 H 1198.24 3.80496 1.54055 0
M  V30 12764 H 1196.9 2.6466 1.69156 0
M  V30 12765 H 1196.1 4.93374 1.02946 0
M  V30 12766 H 1195.7 3.73343 -0.22163 0
M  V30 12767 H 1197.99 6.72323 0.835971 0
M  V30 12768 H 1198.93 7.05086 -0.652607 0
M  V30 12769 H 1199.34 5.63355 0.359377 0
M  V30 12770 N 1198.74 0.470782 1.50404 0
M  V30 12771 C 1199.67 -0.313458 2.31386 0
M  V30 12772 C 1200.65 -0.990623 1.38278 0
M  V30 12773 O 1201.84 -0.987854 1.67198 0
M  V30 12774 C 1198.97 -1.39599 3.18009 0
M  V30 12775 C 1197.92 -0.840443 4.19667 0
M  V30 12776 C 1197.25 -2.02124 4.95025 0
M  V30 12777 C 1198.55 0.148055 5.2209 0
M  V30 12778 H 1200.24 0.362432 2.97198 0
M  V30 12779 H 1197.79 0.175745 1.42924 0
M  V30 12780 H 1199.74 -1.9521 3.73458 0
M  V30 12781 H 1198.46 -2.10064 2.50081 0
M  V30 12782 H 1197.12 -0.306302 3.65318 0
M  V30 12783 H 1196.77 -2.71286 4.23571 0
M  V30 12784 H 1196.47 -1.65574 5.6379 0
M  V30 12785 H 1197.99 -2.58226 5.5331 0
M  V30 12786 H 1199.41 -0.318874 5.72413 0
M  V30 12787 H 1197.8 0.427811 5.98573 0
M  V30 12788 H 1198.87 1.07404 4.72855 0
M  V30 12789 N 1200.22 -1.56282 0.203376 0
M  V30 12790 C 1201.47 -1.96987 -0.433461 0
M  V30 12791 C 1201.78 -1.09344 -1.62183 0
M  V30 12792 O 1202.99 -1.39868 -2.327 0
M  V30 12793 C 1201.44 -3.50374 -0.82257 0
M  V30 12794 C 1201.05 -4.46693 0.341969 0
M  V30 12795 C 1202.79 -3.99831 -1.42603 0
M  V30 12796 C 1200.7 -5.9136 -0.0685608 0
M  V30 12797 H 1199.63 -0.735564 -0.165717 0
M  V30 12798 H 1202.28 -1.81085 0.296708 0
M  V30 12799 H 1200.66 -3.6181 -1.60964 0
M  V30 12800 H 1201.84 -4.46994 1.11952 0
M  V30 12801 H 1200.15 -4.07476 0.857463 0
M  V30 12802 H 1202.75 -5.05398 -1.74577 0
M  V30 12803 H 1203.09 -3.4462 -2.33544 0
M  V30 12804 H 1203.63 -3.91543 -0.702758 0
M  V30 12805 H 1200.36 -6.50515 0.80688 0
M  V30 12806 H 1199.88 -5.94295 -0.810798 0
M  V30 12807 H 1201.56 -6.45053 -0.501525 0
M  V30 12808 N 1201.7 0.070167 -1.57444 0
M  V30 12809 C 1202.94 0.769014 -1.8733 0
M  V30 12810 C 1203.27 1.77496 -0.79533 0
M  V30 12811 O 1202.53 1.94586 0.208495 0
M  V30 12812 C 1202.82 1.5111 -3.23883 0
M  V30 12813 C 1202.49 0.644988 -4.46263 0
M  V30 12814 C 1201.15 0.406307 -4.79482 0
M  V30 12815 C 1203.5 0.0444938 -5.21181 0
M  V30 12816 C 1200.83 -0.442322 -5.8503 0
M  V30 12817 C 1203.18 -0.791599 -6.27628 0
M  V30 12818 C 1201.85 -1.04014 -6.59346 0
M  V30 12819 H 1201.12 0.281402 -0.685488 0
M  V30 12820 H 1203.77 0.029752 -1.91477 0
M  V30 12821 H 1202.07 2.32261 -3.15535 0
M  V30 12822 H 1203.77 2.05665 -3.44242 0
M  V30 12823 H 1200.36 0.841148 -4.20265 0
M  V30 12824 H 1204.54 0.216005 -4.9583 0
M  V30 12825 H 1199.8 -0.643607 -6.08003 0
M  V30 12826 H 1203.97 -1.26363 -6.8484 0
M  V30 12827 H 1201.6 -1.69949 -7.4096 0
M  V30 12828 N 1203.17 1.53854 0.341593 0
M  V30 12829 C 1204.42 1.71194 1.08162 0
M  V30 12830 C 1204.75 0.47614 1.88582 0
M  V30 12831 O 1204 -0.542115 1.88041 0
M  V30 12832 C 1204.3 2.92844 2.04884 0
M  V30 12833 C 1203.97 4.28366 1.40759 0
M  V30 12834 C 1202.63 4.65214 1.23 0
M  V30 12835 C 1204.98 5.12546 0.945819 0
M  V30 12836 C 1202.31 5.83857 0.576852 0
M  V30 12837 C 1204.66 6.31857 0.306568 0
M  V30 12838 C 1203.33 6.67398 0.116677 0
M  V30 12839 H 1202.6 0.626442 0.395792 0
M  V30 12840 H 1205.24 1.88073 0.360688 0
M  V30 12841 H 1203.55 2.70576 2.83365 0
M  V30 12842 H 1205.25 3.03454 2.62139 0
M  V30 12843 H 1201.84 3.99366 1.5558 0
M  V30 12844 H 1206.02 4.84609 1.07087 0
M  V30 12845 H 1201.28 6.09967 0.418363 0
M  V30 12846 H 1205.45 6.96375 -0.0593285 0
M  V30 12847 H 1203.08 7.59191 -0.391477 0
M  V30 12848 N 1204.65 -0.602709 1.4562 0
M  V30 12849 C 1205.9 -1.35769 1.49163 0
M  V30 12850 C 1206.21 -1.95102 0.139485 0
M  V30 12851 O 1207.42 -2.71449 0.0525919 0
M  V30 12852 C 1205.88 -2.45959 2.62739 0
M  V30 12853 C 1205.48 -1.93017 4.04288 0
M  V30 12854 C 1207.23 -3.22926 2.75534 0
M  V30 12855 C 1205.13 -3.00718 5.09237 0
M  V30 12856 H 1204.06 -0.510317 0.555061 0
M  V30 12857 H 1206.72 -0.645434 1.71774 0
M  V30 12858 H 1205.1 -3.19892 2.3342 0
M  V30 12859 H 1206.27 -1.2576 4.43307 0
M  V30 12860 H 1204.59 -1.2878 3.95986 0
M  V30 12861 H 1207.18 -4.03267 3.51112 0
M  V30 12862 H 1207.53 -3.74243 1.82339 0
M  V30 12863 H 1208.06 -2.56095 3.04402 0
M  V30 12864 H 1204.8 -2.54312 6.04157 0
M  V30 12865 H 1204.32 -3.66526 4.74783 0
M  V30 12866 H 1206 -3.65016 5.34202 0
M  V30 12867 N 1206.13 -1.32992 -0.845635 0
M  V30 12868 C 1207.38 -1.24249 -1.60281 0
M  V30 12869 C 1207.71 0.193049 -1.93238 0
M  V30 12870 O 1206.98 1.1326 -1.58122 0
M  V30 12871 C 1207.27 -2.1111 -2.91727 0
M  V30 12872 C 1207.12 -3.63088 -2.65494 0
M  V30 12873 C 1208.44 -1.97913 -3.93089 0
M  V30 12874 H 1205.56 -0.452698 -0.581578 0
M  V30 12875 H 1208.2 -1.63026 -0.975828 0
M  V30 12876 H 1206.35 -1.78169 -3.45236 0
M  V30 12877 H 1208.02 -4.06287 -2.18469 0
M  V30 12878 H 1206.26 -3.85304 -1.99306 0
M  V30 12879 H 1206.94 -4.19202 -3.59129 0
M  V30 12880 H 1209.41 -2.26788 -3.48864 0
M  V30 12881 H 1208.29 -2.60952 -4.82903 0
M  V30 12882 H 1208.55 -0.949378 -4.31786 0
M  V30 12883 N 1207.61 1.06304 -1.1635 0
M  V30 12884 C 1208.85 1.79516 -0.956328 0
M  V30 12885 C 1209.21 1.85506 0.510438 0
M  V30 12886 O 1208.5 1.33556 1.37381 0
M  V30 12887 C 1208.7 3.23589 -1.51741 0
M  V30 12888 C 1208.52 3.31639 -3.0372 0
M  V30 12889 C 1207.29 3.41579 -3.7236 0
M  V30 12890 C 1209.49 3.2151 -4.01417 0
M  V30 12891 N 1207.47 3.38643 -5.12049 0
M  V30 12892 C 1208.85 3.25815 -5.27489 0
M  V30 12893 C 1210.9 3.05393 -3.93242 0
M  V30 12894 C 1209.6 3.1566 -6.46337 0
M  V30 12895 C 1211.63 2.96577 -5.1166 0
M  V30 12896 C 1210.99 3.01504 -6.36612 0
M  V30 12897 H 1207.09 0.669727 -0.40372 0
M  V30 12898 H 1209.67 1.2681 -1.4774 0
M  V30 12899 H 1207.85 3.7469 -1.02282 0
M  V30 12900 H 1209.58 3.84977 -1.248 0
M  V30 12901 H 1206.33 3.46371 -3.22992 0
M  V30 12902 H 1206.76 3.40674 -5.85038 0
M  V30 12903 H 1211.4 3.0043 -2.97492 0
M  V30 12904 H 1209.12 3.1938 -7.42308 0
M  V30 12905 H 1212.7 2.85195 -5.07105 0
M  V30 12906 H 1211.58 2.9474 -7.26704 0
M  V30 12907 N 1209.09 0.96196 1.24836 0
M  V30 12908 C 1210.33 0.616342 1.92052 0
M  V30 12909 C 1210.65 -0.851601 1.76088 0
M  V30 12910 O 1211.85 -1.3075 2.37943 0
M  V30 12911 C 1210.31 1.05168 3.44191 0
M  V30 12912 C 1209.92 2.54268 3.68852 0
M  V30 12913 C 1211.66 0.778938 4.17292 0
M  V30 12914 C 1209.57 2.91564 5.14533 0
M  V30 12915 H 1208.5 0.22681 0.719078 0
M  V30 12916 H 1211.15 1.1674 1.41577 0
M  V30 12917 H 1209.53 0.428979 3.9367 0
M  V30 12918 H 1210.71 3.21619 3.29997 0
M  V30 12919 H 1209.02 2.79091 3.09026 0
M  V30 12920 H 1211.62 1.03366 5.24614 0
M  V30 12921 H 1211.96 -0.284772 4.15325 0
M  V30 12922 H 1212.49 1.36233 3.73745 0
M  V30 12923 H 1209.23 3.96982 5.21618 0
M  V30 12924 H 1208.75 2.28892 5.54408 0
M  V30 12925 H 1210.43 2.81155 5.82718 0
M  V30 12926 N 1210.56 -1.39601 0.731392 0
M  V30 12927 C 1211.79 -2.05411 0.286532 0
M  V30 12928 C 1212.21 -1.54777 -1.06892 0
M  V30 12929 O 1211.57 -0.689942 -1.67659 0
M  V30 12930 C 1211.62 -3.594 0.293914 0
M  V30 12931 O 1210.72 -4.06072 -0.719657 0
M  V30 12932 H 1210.06 -0.650949 0.131004 0
M  V30 12933 H 1212.59 -1.78703 0.996305 0
M  V30 12934 H 1212.6 -4.0777 0.137052 0
M  V30 12935 H 1211.28 -3.95617 1.28298 0
M  V30 12936 H 1209.86 -3.69125 -0.529226 0
M  V30 12937 N 1212.04 -0.478751 -1.50152 0
M  V30 12938 C 1213.29 0.073585 -2.02366 0
M  V30 12939 C 1213.62 1.3903 -1.36018 0
M  V30 12940 O 1212.87 1.89787 -0.477435 0
M  V30 12941 C 1213.17 0.297535 -3.56159 0
M  V30 12942 C 1212.84 -0.938419 -4.41027 0
M  V30 12943 C 1211.5 -1.27727 -4.63939 0
M  V30 12944 C 1213.85 -1.76098 -4.9055 0
M  V30 12945 C 1211.18 -2.4386 -5.33619 0
M  V30 12946 C 1213.53 -2.91366 -5.61506 0
M  V30 12947 C 1212.2 -3.25657 -5.8267 0
M  V30 12948 H 1211.47 0.0269267 -0.740511 0
M  V30 12949 H 1214.11 -0.63439 -1.80687 0
M  V30 12950 H 1212.42 1.08783 -3.76395 0
M  V30 12951 H 1214.11 0.73899 -3.94132 0
M  V30 12952 H 1210.7 -0.664441 -4.23418 0
M  V30 12953 H 1214.89 -1.51237 -4.72696 0
M  V30 12954 H 1210.14 -2.70692 -5.48211 0
M  V30 12955 H 1214.32 -3.55445 -5.98859 0
M  V30 12956 H 1211.95 -4.15751 -6.36439 0
M  V30 12957 N 1213.52 1.56172 -0.211661 0
M  V30 12958 C 1214.77 1.97214 0.423008 0
M  V30 12959 C 1215.08 1.10203 1.616 0
M  V30 12960 O 1216.29 1.411 2.31955 0
M  V30 12961 C 1214.74 3.50805 0.803977 0
M  V30 12962 C 1214.35 4.46505 -0.365654 0
M  V30 12963 C 1216.1 4.00582 1.4048 0
M  V30 12964 C 1214 5.91388 0.0371986 0
M  V30 12965 H 1212.93 0.736432 0.161814 0
M  V30 12966 H 1215.58 1.80925 -0.306307 0
M  V30 12967 H 1213.97 3.62659 1.59043 0
M  V30 12968 H 1215.14 4.46394 -1.14321 0
M  V30 12969 H 1213.46 4.07015 -0.879061 0
M  V30 12970 H 1216.05 5.06317 1.71894 0
M  V30 12971 H 1216.4 3.45853 2.31713 0
M  V30 12972 H 1216.93 3.9191 0.681984 0
M  V30 12973 H 1213.67 6.50078 -0.841367 0
M  V30 12974 H 1213.19 5.94716 0.77927 0
M  V30 12975 H 1214.87 6.4531 0.467309 0
M  V30 12976 N 1215 -0.0618163 1.57479 0
M  V30 12977 C 1216.41 -0.612461 1.76368 0
M  V30 12978 C 1216.76 -1.77381 0.838466 0
M  V30 12979 O 1215.89 -2.16386 0.0250211 0
M  V30 12980 C 1216.48 -1.11782 3.19829 0
M  V30 12981 C 1215.04 -1.61424 3.40028 0
M  V30 12982 C 1214.19 -0.53795 2.72032 0
M  V30 12983 H 1217.14 0.164382 1.57846 0
M  V30 12984 H 1217.16 -1.98634 3.24538 0
M  V30 12985 H 1216.67 -0.272353 3.87143 0
M  V30 12986 H 1214.77 -2.48263 2.77842 0
M  V30 12987 H 1214.88 -1.68431 4.48517 0
M  V30 12988 H 1213.25 -0.985355 2.34868 0
M  V30 12989 H 1214.03 0.297495 3.42009 0
M  V30 12990 N 1216.48 -1.54033 -0.333429 0
M  V30 12991 C 1217.44 -1.82021 -1.39288 0
M  V30 12992 C 1218.44 -0.691623 -1.45166 0
M  V30 12993 O 1219.63 -0.959925 -1.45365 0
M  V30 12994 C 1216.76 -1.97136 -2.78119 0
M  V30 12995 H 1217.95 -2.76671 -1.1573 0
M  V30 12996 H 1215.51 -1.45599 -0.568376 0
M  V30 12997 H 1216.24 -1.04663 -3.06946 0
M  V30 12998 H 1216.03 -2.79251 -2.75247 0
M  V30 12999 H 1217.52 -2.20271 -3.54782 0
M  V30 13000 N 1217.95 0.594978 -1.45938 0
M  V30 13001 C 1219.18 1.37794 -1.53936 0
M  V30 13002 C 1219.59 1.88388 -0.175091 0
M  V30 13003 O 1218.94 1.63587 0.835757 0
M  V30 13004 C 1219 2.60906 -2.47322 0
M  V30 13005 C 1218.66 2.31865 -3.93812 0
M  V30 13006 C 1219.66 1.91451 -4.83366 0
M  V30 13007 C 1217.34 2.44387 -4.3884 0
M  V30 13008 C 1219.34 1.63938 -6.15957 0
M  V30 13009 C 1217.02 2.16487 -5.71469 0
M  V30 13010 C 1218.02 1.76326 -6.59847 0
M  V30 13011 O 1217.71 1.4876 -7.90016 0
M  V30 13012 H 1217.44 0.42775 -0.523456 0
M  V30 13013 H 1220 0.731487 -1.91933 0
M  V30 13014 H 1218.23 3.28315 -2.04319 0
M  V30 13015 H 1219.92 3.22964 -2.45863 0
M  V30 13016 H 1220.68 1.81301 -4.49839 0
M  V30 13017 H 1216.56 2.74612 -3.70283 0
M  V30 13018 H 1220.1 1.32516 -6.84898 0
M  V30 13019 H 1216 2.26257 -6.04548 0
M  V30 13020 H 1216.77 1.62708 -8.02165 0
M  V30 13021 N 1219.43 1.33438 0.838571 0
M  V30 13022 C 1220.4 1.23632 1.92997 0
M  V30 13023 C 1221.4 0.155302 1.60048 0
M  V30 13024 O 1222.59 0.406852 1.69382 0
M  V30 13025 C 1219.72 0.90512 3.28665 0
M  V30 13026 H 1220.91 2.20643 2.03117 0
M  V30 13027 H 1218.46 1.17501 1.03069 0
M  V30 13028 H 1219.2 -0.0624833 3.2424 0
M  V30 13029 H 1218.98 1.68688 3.53959 0
M  V30 13030 H 1220.47 0.861262 4.08622 0
M  V30 13031 N 1220.91 -1.05686 1.16912 0
M  V30 13032 C 1222.14 -1.82821 0.979348 0
M  V30 13033 C 1222.56 -1.82196 -0.467575 0
M  V30 13034 O 1221.92 -1.22727 -1.33445 0
M  V30 13035 C 1221.97 -3.2705 1.51891 0
M  V30 13036 O 1221.07 -4.05899 0.729341 0
M  V30 13037 H 1220.41 -0.565455 0.348076 0
M  V30 13038 H 1222.94 -1.33211 1.55293 0
M  V30 13039 H 1222.95 -3.77859 1.53904 0
M  V30 13040 H 1221.63 -3.26819 2.5722 0
M  V30 13041 H 1220.2 -3.64646 0.780221 0
M  V30 13042 N 1222.39 -0.968567 -1.24324 0
M  V30 13043 C 1223.62 -0.648568 -1.96472 0
M  V30 13044 C 1224.03 0.782168 -1.71836 0
M  V30 13045 O 1223.39 1.5249 -1.00265 0
M  V30 13046 C 1223.44 -0.91482 -3.49733 0
M  V30 13047 O 1223.16 -2.28931 -3.73527 0
M  V30 13048 C 1224.66 -0.609131 -4.39095 0
M  V30 13049 H 1221.88 -0.241921 -0.625872 0
M  V30 13050 H 1224.43 -1.29673 -1.5813 0
M  V30 13051 H 1222.58 -0.31285 -3.86135 0
M  V30 13052 H 1222.99 -2.36998 -4.67902 0
M  V30 13053 H 1224.47 -0.845875 -5.4548 0
M  V30 13054 H 1224.95 0.456625 -4.3682 0
M  V30 13055 H 1225.55 -1.19105 -4.08282 0
M  V30 13056 N 1223.87 1.39211 -0.738786 0
M  V30 13057 C 1225.1 2.04435 -0.298318 0
M  V30 13058 C 1225.5 1.55822 1.07314 0
M  V30 13059 O 1224.85 0.719922 1.69005 0
M  V30 13060 C 1224.91 3.58789 -0.225979 0
M  V30 13061 C 1224.57 4.30395 -1.53653 0
M  V30 13062 C 1225.57 4.56777 -2.48295 0
M  V30 13063 C 1223.26 4.68869 -1.80187 0
M  V30 13064 C 1225.25 5.20648 -3.67702 0
M  V30 13065 C 1222.94 5.32467 -2.99871 0
M  V30 13066 C 1223.93 5.58289 -3.93449 0
M  V30 13067 O 1223.62 6.20567 -5.1103 0
M  V30 13068 H 1223.35 0.663848 -0.127603 0
M  V30 13069 H 1225.91 1.79171 -1.00433 0
M  V30 13070 H 1224.14 3.82965 0.536164 0
M  V30 13071 H 1225.83 4.05487 0.182996 0
M  V30 13072 H 1226.59 4.27497 -2.29066 0
M  V30 13073 H 1222.47 4.48124 -1.08193 0
M  V30 13074 H 1226.02 5.4072 -4.40759 0
M  V30 13075 H 1221.91 5.61169 -3.18998 0
M  V30 13076 H 1222.68 6.39059 -5.11415 0
M  V30 13077 N 1225.34 0.486708 1.49896 0
M  V30 13078 C 1226.59 -0.0627279 2.02003 0
M  V30 13079 C 1226.91 -1.38799 1.36967 0
M  V30 13080 O 1226.18 -1.88868 0.520173 0
M  V30 13081 H 1224.76 -0.0261718 0.746541 0
M  V30 13082 H 1227.43 0.640692 1.84068 0
M  V30 13083 H 1226.52 -0.202856 3.1144 0
M  V30 13084 N 1226.82 -1.56058 0.219941 0
M  V30 13085 C 1227.77 -2.20218 -0.690846 0
M  V30 13086 C 1228.74 -1.15725 -1.19151 0
M  V30 13087 O 1229.93 -1.44073 -1.2509 0
M  V30 13088 C 1227.07 -2.88477 -1.89408 0
M  V30 13089 C 1226.18 -4.07559 -1.43246 0
M  V30 13090 C 1225.31 -4.63605 -2.59314 0
M  V30 13091 C 1224.35 -5.74993 -2.0988 0
M  V30 13092 N 1223.49 -6.25337 -3.19214 0
M  V30 13093 H 1228.33 -2.97685 -0.136992 0
M  V30 13094 H 1225.87 -1.46994 -0.055865 0
M  V30 13095 H 1227.82 -3.26235 -2.60051 0
M  V30 13096 H 1226.45 -2.1353 -2.42084 0
M  V30 13097 H 1225.51 -3.75297 -0.621013 0
M  V30 13098 H 1226.82 -4.8805 -1.02997 0
M  V30 13099 H 1225.97 -5.03798 -3.38041 0
M  V30 13100 H 1224.71 -3.82274 -3.0285 0
M  V30 13101 H 1223.72 -5.34304 -1.29613 0
M  V30 13102 H 1224.94 -6.58158 -1.67345 0
M  V30 13103 H 1222.89 -5.4692 -3.62236 0
M  V30 13104 H 1222.8 -7.00947 -2.83213 0
M  V30 13105 H 1224.07 -6.70187 -3.98083 0
M  V30 13106 N 1228.3 0.053464 -1.57509 0
M  V30 13107 C 1229.55 0.749102 -1.88135 0
M  V30 13108 C 1229.88 1.76642 -0.814111 0
M  V30 13109 O 1229.13 1.94796 0.187845 0
M  V30 13110 C 1229.43 1.47666 -3.25468 0
M  V30 13111 C 1229.1 0.597619 -4.46922 0
M  V30 13112 C 1227.76 0.355429 -4.79886 0
M  V30 13113 C 1230.11 -0.0107869 -5.21199 0
M  V30 13114 C 1227.44 -0.504347 -5.84528 0
M  V30 13115 C 1229.79 -0.858123 -6.26753 0
M  V30 13116 C 1228.45 -1.11001 -6.58206 0
M  V30 13117 H 1227.72 0.274116 -0.688434 0
M  V30 13118 H 1230.37 0.00944162 -1.91498 0
M  V30 13119 H 1228.68 2.28901 -3.1798 0
M  V30 13120 H 1230.37 2.02002 -3.46404 0
M  V30 13121 H 1226.96 0.796526 -4.21134 0
M  V30 13122 H 1231.15 0.163404 -4.96031 0
M  V30 13123 H 1226.4 -0.708057 -6.07286 0
M  V30 13124 H 1230.58 -1.3362 -6.83461 0
M  V30 13125 H 1228.2 -1.77798 -7.39116 0
M  V30 13126 N 1229.78 1.54207 0.325255 0
M  V30 13127 C 1231.03 1.72587 1.06497 0
M  V30 13128 C 1231.36 0.497228 1.87727 0
M  V30 13129 O 1230.63 -0.505804 1.87808 0
M  V30 13130 C 1230.92 3.00046 1.99109 0
M  V30 13131 C 1230.77 4.33158 1.21221 0
M  V30 13132 C 1232.09 3.23251 2.98658 0
M  V30 13133 H 1229.21 0.627974 0.38577 0
M  V30 13134 H 1231.85 1.869 0.34179 0
M  V30 13135 H 1230 2.87973 2.60775 0
M  V30 13136 H 1231.67 4.57111 0.620289 0
M  V30 13137 H 1229.91 4.30739 0.514462 0
M  V30 13138 H 1230.59 5.18558 1.89214 0
M  V30 13139 H 1233.06 3.34774 2.47114 0
M  V30 13140 H 1231.94 4.13796 3.60645 0
M  V30 13141 H 1232.2 2.40401 3.71026 0
M  V30 13142 N 1231.26 -0.58723 1.46251 0
M  V30 13143 C 1232.48 -1.37661 1.55126 0
M  V30 13144 C 1232.91 -1.87123 0.191489 0
M  V30 13145 O 1232.27 -1.6131 -0.827576 0
M  V30 13146 C 1232.31 -2.54324 2.5564 0
M  V30 13147 O 1231.42 -3.55617 2.0883 0
M  V30 13148 H 1230.76 -0.410154 0.522178 0
M  V30 13149 H 1233.29 -0.712738 1.91784 0
M  V30 13150 H 1233.3 -3.01301 2.75103 0
M  V30 13151 H 1231.97 -2.17675 3.54387 0
M  V30 13152 H 1230.55 -3.15151 1.99335 0
M  V30 13153 N 1232.74 -1.33881 -0.831482 0
M  V30 13154 C 1233.7 -1.24654 -1.92339 0
M  V30 13155 C 1234.7 -0.163788 -1.59964 0
M  V30 13156 O 1235.89 -0.415829 -1.69164 0
M  V30 13157 C 1233.02 -0.922537 -3.2818 0
M  V30 13158 H 1234.21 -2.21717 -2.01944 0
M  V30 13159 H 1231.77 -1.18046 -1.02445 0
M  V30 13160 H 1232.5 0.0452872 -3.24268 0
M  V30 13161 H 1232.29 -1.70562 -3.53059 0
M  V30 13162 H 1233.78 -0.88292 -4.0816 0
M  V30 13163 N 1234.21 1.05064 -1.1747 0
M  V30 13164 C 1235.46 1.78352 -0.965311 0
M  V30 13165 C 1235.79 1.87527 0.504707 0
M  V30 13166 O 1235.07 1.376 1.37465 0
M  V30 13167 C 1235.35 3.22173 -1.60862 0
M  V30 13168 C 1235.2 3.21003 -3.15083 0
M  V30 13169 C 1236.52 4.2004 -1.31358 0
M  V30 13170 H 1233.64 0.647452 -0.352101 0
M  V30 13171 H 1236.28 1.22794 -1.44988 0
M  V30 13172 H 1234.43 3.69613 -1.19658 0
M  V30 13173 H 1236.11 2.81629 -3.65353 0
M  V30 13174 H 1234.35 2.59309 -3.47766 0
M  V30 13175 H 1235.02 4.22516 -3.55224 0
M  V30 13176 H 1237.5 3.81099 -1.6704 0
M  V30 13177 H 1236.37 5.1891 -1.78953 0
M  V30 13178 H 1236.63 4.41477 -0.234606 0
M  V30 13179 N 1235.69 0.975146 1.23809 0
M  V30 13180 C 1236.6 0.51917 2.28783 0
M  V30 13181 C 1237.62 -0.423487 1.68768 0
M  V30 13182 O 1238.79 -0.294699 1.99232 0
M  V30 13183 C 1235.86 -0.176229 3.46252 0
M  V30 13184 C 1234.92 0.807177 4.21643 0
M  V30 13185 C 1234.15 0.144869 5.33503 0
M  V30 13186 O 1234.38 -1.06522 5.60365 0
M  V30 13187 O 1233.31 0.84079 5.95999 0
M  V30 13188 H 1237.14 1.39204 2.69919 0
M  V30 13189 H 1234.72 0.74253 1.29641 0
M  V30 13190 H 1236.6 -0.566547 4.17574 0
M  V30 13191 H 1235.28 -1.02394 3.07078 0
M  V30 13192 H 1234.18 1.2481 3.52666 0
M  V30 13193 H 1235.52 1.62354 4.64653 0
M  V30 13194 N 1237.17 -1.38817 0.746158 0
M  V30 13195 C 1238.42 -2.00577 0.299458 0
M  V30 13196 C 1238.75 -1.59087 -1.11378 0
M  V30 13197 O 1238.02 -0.824932 -1.7614 0
M  V30 13198 C 1238.31 -3.57713 0.413932 0
M  V30 13199 C 1238.16 -4.09189 1.86774 0
M  V30 13200 C 1239.48 -4.39659 -0.197082 0
M  V30 13201 H 1236.6 -0.728702 0.110285 0
M  V30 13202 H 1239.24 -1.64866 0.944408 0
M  V30 13203 H 1237.39 -3.88265 -0.135155 0
M  V30 13204 H 1239.06 -3.89311 2.47456 0
M  V30 13205 H 1237.3 -3.62333 2.38532 0
M  V30 13206 H 1237.98 -5.18305 1.89904 0
M  V30 13207 H 1240.45 -4.15216 0.271121 0
M  V30 13208 H 1239.33 -5.48832 -0.0867011 0
M  V30 13209 H 1239.59 -4.23028 -1.2845 0
M  V30 13210 N 1238.65 -0.49465 -1.49636 0
M  V30 13211 C 1239.9 0.0539277 -2.01628 0
M  V30 13212 C 1240.21 1.38634 -1.37986 0
M  V30 13213 O 1241.42 2.02123 -1.81269 0
M  V30 13214 C 1239.87 0.146582 -3.59601 0
M  V30 13215 C 1239.48 -1.1788 -4.32213 0
M  V30 13216 C 1241.22 0.645862 -4.19558 0
M  V30 13217 C 1239.13 -1.04866 -5.82028 0
M  V30 13218 H 1238.06 0.0239278 -0.75362 0
M  V30 13219 H 1240.71 -0.633112 -1.72232 0
M  V30 13220 H 1239.09 0.897931 -3.85685 0
M  V30 13221 H 1240.27 -1.94295 -4.17835 0
M  V30 13222 H 1238.58 -1.61102 -3.83973 0
M  V30 13223 H 1241.18 0.76064 -5.29262 0
M  V30 13224 H 1241.52 1.64313 -3.82501 0
M  V30 13225 H 1242.06 -0.04877 -3.9777 0
M  V30 13226 H 1238.79 -2.02 -6.23599 0
M  V30 13227 H 1238.31 -0.325293 -5.98917 0
M  V30 13228 H 1239.99 -0.724799 -6.42927 0
M  V30 13229 N 1240.13 1.55939 -0.228214 0
M  V30 13230 C 1241.09 2.1932 0.665681 0
M  V30 13231 C 1242.09 1.15699 1.11671 0
M  V30 13232 O 1243.28 1.40893 1.02444 0
M  V30 13233 C 1240.41 2.82185 1.9127 0
M  V30 13234 H 1241.6 2.99687 0.112986 0
M  V30 13235 H 1239.16 1.56285 0.0213865 0
M  V30 13236 H 1239.89 2.05706 2.5071 0
M  V30 13237 H 1239.68 3.58073 1.5977 0
M  V30 13238 H 1241.17 3.30748 2.54942 0
M  V30 13239 N 1241.6 -0.0451101 1.57535 0
M  V30 13240 C 1242.85 -0.738072 1.87711 0
M  V30 13241 C 1243.17 -1.7737 0.824579 0
M  V30 13242 O 1244.37 -2.51812 1.01503 0
M  V30 13243 C 1242.83 -1.36373 3.33062 0
M  V30 13244 C 1242.44 -0.365283 4.46508 0
M  V30 13245 C 1244.18 -2.0375 3.72406 0
M  V30 13246 C 1242.09 -0.998371 5.82912 0
M  V30 13247 H 1241.02 -0.279413 0.700317 0
M  V30 13248 H 1243.67 0.00802425 1.83498 0
M  V30 13249 H 1242.05 -2.15899 3.31969 0
M  V30 13250 H 1243.22 0.402102 4.59042 0
M  V30 13251 H 1241.54 0.205505 4.15893 0
M  V30 13252 H 1244.14 -2.51939 4.71625 0
M  V30 13253 H 1244.48 -2.84869 3.03571 0
M  V30 13254 H 1245.01 -1.3102 3.75604 0
M  V30 13255 H 1241.75 -0.226935 6.55107 0
M  V30 13256 H 1241.27 -1.73598 5.74129 0
M  V30 13257 H 1242.95 -1.51044 6.29122 0
M  V30 13258 N 1243.08 -1.54377 -0.317073 0
M  V30 13259 C 1244.01 -1.8721 -1.39552 0
M  V30 13260 C 1244.99 -0.729483 -1.53664 0
M  V30 13261 O 1246.18 -0.983799 -1.67437 0
M  V30 13262 C 1243.31 -2.1052 -2.76222 0
M  V30 13263 C 1242.26 -3.26366 -2.76892 0
M  V30 13264 C 1241.59 -3.35061 -4.16699 0
M  V30 13265 C 1242.89 -4.63862 -2.40061 0
M  V30 13266 H 1244.58 -2.77532 -1.12323 0
M  V30 13267 H 1242.13 -1.33536 -0.538897 0
M  V30 13268 H 1244.08 -2.32073 -3.51739 0
M  V30 13269 H 1242.81 -1.16953 -3.04942 0
M  V30 13270 H 1241.46 -3.0471 -2.03831 0
M  V30 13271 H 1241.11 -2.39041 -4.4257 0
M  V30 13272 H 1240.81 -4.12923 -4.18053 0
M  V30 13273 H 1242.34 -3.58856 -4.94019 0
M  V30 13274 H 1243.75 -4.85252 -3.05292 0
M  V30 13275 H 1242.15 -5.44321 -2.52655 0
M  V30 13276 H 1243.22 -4.6567 -1.35202 0
M  V30 13277 N 1244.56 0.579466 -1.4656 0
M  V30 13278 C 1245.52 1.67033 -1.56948 0
M  V30 13279 C 1246.52 1.54481 -0.446361 0
M  V30 13280 O 1247.71 1.5904 -0.710767 0
M  V30 13281 C 1244.85 3.06474 -1.49286 0
M  V30 13282 H 1246.04 1.59179 -2.54169 0
M  V30 13283 H 1243.59 0.797573 -1.34419 0
M  V30 13284 H 1244.33 3.1988 -0.533572 0
M  V30 13285 H 1244.11 3.16993 -2.30776 0
M  V30 13286 H 1245.6 3.85879 -1.59648 0
M  V30 13287 N 1246.04 1.3432 0.824371 0
M  V30 13288 C 1247 1.25672 1.91675 0
M  V30 13289 C 1248 0.172269 1.59875 0
M  V30 13290 O 1249.19 0.424794 1.68941 0
M  V30 13291 C 1246.32 0.939928 3.27686 0
M  V30 13292 H 1247.52 2.22785 2.00766 0
M  V30 13293 H 1245.07 1.18587 1.01817 0
M  V30 13294 H 1245.8 -0.0280898 3.24288 0
M  V30 13295 H 1245.59 1.72432 3.5215 0
M  V30 13296 H 1247.08 0.904553 4.07686 0
M  V30 13297 N 1247.52 -1.0444 1.18026 0
M  V30 13298 C 1248.74 -1.81772 0.998684 0
M  V30 13299 C 1249.17 -1.82682 -0.448225 0
M  V30 13300 O 1248.52 -1.24136 -1.32136 0
M  V30 13301 C 1248.57 -3.2542 1.55352 0
M  V30 13302 O 1247.68 -4.05103 0.772351 0
M  V30 13303 H 1247.02 -0.561731 0.354054 0
M  V30 13304 H 1249.55 -1.31557 1.56697 0
M  V30 13305 H 1249.56 -3.76206 1.57903 0
M  V30 13306 H 1248.23 -3.24073 2.60672 0
M  V30 13307 H 1246.81 -3.63798 0.818852 0
M  V30 13308 N 1248.99 -0.981699 -1.2329 0
M  V30 13309 C 1250.24 -0.651302 -1.9174 0
M  V30 13310 C 1250.57 0.815318 -1.76587 0
M  V30 13311 O 1249.82 1.60377 -1.1215 0
M  V30 13312 C 1250.12 -0.989244 -3.43437 0
M  V30 13313 C 1249.79 -2.44629 -3.78771 0
M  V30 13314 C 1248.45 -2.84449 -3.88127 0
M  V30 13315 C 1250.8 -3.39123 -3.95784 0
M  V30 13316 C 1248.13 -4.17775 -4.11923 0
M  V30 13317 C 1250.48 -4.72095 -4.21081 0
M  V30 13318 C 1249.15 -5.11672 -4.28659 0
M  V30 13319 H 1248.42 -0.238328 -0.701627 0
M  V30 13320 H 1251.06 -1.2358 -1.46288 0
M  V30 13321 H 1249.37 -0.322677 -3.90469 0
M  V30 13322 H 1251.07 -0.711796 -3.94632 0
M  V30 13323 H 1247.66 -2.12759 -3.72064 0
M  V30 13324 H 1251.84 -3.09536 -3.87945 0
M  V30 13325 H 1247.1 -4.48043 -4.16013 0
M  V30 13326 H 1251.27 -5.45271 -4.33189 0
M  V30 13327 H 1248.9 -6.15003 -4.46851 0
M  V30 13328 N 1250.47 1.3842 -0.753509 0
M  V30 13329 C 1251.72 1.99723 -0.309021 0
M  V30 13330 C 1252.04 1.60111 1.11308 0
M  V30 13331 O 1251.31 0.85792 1.76115 0
M  V30 13332 H 1249.89 0.738667 -0.111266 0
M  V30 13333 H 1252.55 1.69186 -0.967586 0
M  V30 13334 H 1251.65 3.09874 -0.372095 0
M  V30 13335 N 1251.95 0.502579 1.49372 0
M  V30 13336 C 1252.88 -0.264307 2.31999 0
M  V30 13337 C 1253.86 -0.96107 1.40348 0
M  V30 13338 O 1255.05 -0.952167 1.69255 0
M  V30 13339 C 1252.18 -1.32822 3.20898 0
M  V30 13340 C 1251.13 -0.751236 4.21355 0
M  V30 13341 C 1250.46 -1.91578 4.99201 0
M  V30 13342 C 1251.76 0.258764 5.21659 0
M  V30 13343 H 1253.45 0.425391 2.96363 0
M  V30 13344 H 1251 0.206022 1.42519 0
M  V30 13345 H 1252.95 -1.87245 3.77515 0
M  V30 13346 H 1251.67 -2.04712 2.54481 0
M  V30 13347 H 1250.33 -0.228743 3.65886 0
M  V30 13348 H 1249.98 -2.62241 4.2923 0
M  V30 13349 H 1249.68 -1.53578 5.67175 0
M  V30 13350 H 1251.2 -2.46432 5.58663 0
M  V30 13351 H 1252.62 -0.197385 5.7296 0
M  V30 13352 H 1251.02 0.554681 5.97531 0
M  V30 13353 H 1252.09 1.1741 4.70471 0
M  V30 13354 N 1253.43 -1.55816 0.23648 0
M  V30 13355 C 1254.36 -2.23924 -0.661834 0
M  V30 13356 C 1255.34 -1.21597 -1.18946 0
M  V30 13357 O 1256.52 -1.50222 -1.23073 0
M  V30 13358 C 1253.65 -2.93069 -1.86355 0
M  V30 13359 C 1252.61 -4.01996 -1.46913 0
M  V30 13360 C 1251.93 -4.58512 -2.75083 0
M  V30 13361 C 1253.23 -5.18265 -0.647964 0
M  V30 13362 H 1254.93 -2.99253 -0.0939368 0
M  V30 13363 H 1252.47 -1.43934 -0.0437407 0
M  V30 13364 H 1254.43 -3.39412 -2.49755 0
M  V30 13365 H 1253.15 -2.15212 -2.45665 0
M  V30 13366 H 1251.81 -3.56406 -0.858522 0
M  V30 13367 H 1251.46 -3.77368 -3.3257 0
M  V30 13368 H 1251.16 -5.32037 -2.49421 0
M  V30 13369 H 1252.68 -5.07583 -3.39399 0
M  V30 13370 H 1254.1 -5.60898 -1.18602 0
M  V30 13371 H 1252.49 -5.98114 -0.487823 0
M  V30 13372 H 1253.56 -4.83691 0.342151 0
M  V30 13373 N 1254.91 0.036755 -1.57557 0
M  V30 13374 C 1255.87 1.02435 -2.05036 0
M  V30 13375 C 1256.87 1.29506 -0.953146 0
M  V30 13376 O 1258.06 1.24638 -1.217 0
M  V30 13377 C 1255.19 2.3592 -2.46079 0
M  V30 13378 H 1256.38 0.614384 -2.93539 0
M  V30 13379 H 1253.94 0.283396 -1.53709 0
M  V30 13380 H 1254.67 2.8168 -1.60708 0
M  V30 13381 H 1254.46 2.17603 -3.26177 0
M  V30 13382 H 1255.95 3.06839 -2.83266 0
M  V30 13383 N 1256.39 1.54543 0.308881 0
M  V30 13384 C 1257.63 1.75182 1.05312 0
M  V30 13385 C 1257.99 0.522347 1.84758 0
M  V30 13386 O 1259.19 0.606334 2.61872 0
M  V30 13387 C 1257.46 3.0007 1.94147 0
M  V30 13388 S 1259.02 3.41676 2.75323 0
M  V30 13389 H 1255.84 0.615862 0.355296 0
M  V30 13390 H 1258.44 1.92739 0.327413 0
M  V30 13391 H 1257.14 3.87685 1.34643 0
M  V30 13392 H 1256.68 2.85078 2.71098 0
M  V30 13393 H 1258.69 2.98128 3.96654 0
M  V30 13394 N 1257.86 -0.571685 1.46866 0
M  V30 13395 C 1259.11 -1.32574 1.5201 0
M  V30 13396 C 1259.43 -1.94762 0.180838 0
M  V30 13397 O 1260.63 -2.71276 0.110158 0
M  V30 13398 C 1259.09 -2.40331 2.67897 0
M  V30 13399 C 1258.7 -1.84398 4.08291 0
M  V30 13400 C 1260.44 -3.17009 2.82321 0
M  V30 13401 C 1258.35 -2.89849 5.15501 0
M  V30 13402 H 1257.28 -0.498428 0.565761 0
M  V30 13403 H 1259.93 -0.608853 1.73105 0
M  V30 13404 H 1258.31 -3.14869 2.40153 0
M  V30 13405 H 1259.48 -1.16329 4.45875 0
M  V30 13406 H 1257.8 -1.20351 3.98628 0
M  V30 13407 H 1260.4 -3.95729 3.59587 0
M  V30 13408 H 1260.74 -3.70292 1.90236 0
M  V30 13409 H 1261.27 -2.4958 3.09765 0
M  V30 13410 H 1258.01 -2.4144 6.09415 0
M  V30 13411 H 1257.53 -3.56372 4.82451 0
M  V30 13412 H 1259.21 -3.53603 5.41825 0
M  V30 13413 N 1259.34 -1.34755 -0.817236 0
M  V30 13414 C 1260.59 -1.27432 -1.57377 0
M  V30 13415 C 1260.92 0.15419 -1.93888 0
M  V30 13416 O 1260.17 1.11686 -1.60701 0
M  V30 13417 C 1260.47 -2.11611 -2.8802 0
M  V30 13418 C 1260.14 -3.60543 -2.70776 0
M  V30 13419 C 1258.8 -4.01141 -2.6578 0
M  V30 13420 C 1261.15 -4.55089 -2.54053 0
M  V30 13421 C 1258.48 -5.34469 -2.41991 0
M  V30 13422 C 1260.83 -5.88603 -2.31795 0
M  V30 13423 C 1259.49 -6.28358 -2.25215 0
M  V30 13424 H 1258.76 -0.466305 -0.575882 0
M  V30 13425 H 1261.41 -1.66552 -0.945128 0
M  V30 13426 H 1259.72 -1.65336 -3.55206 0
M  V30 13427 H 1261.41 -2.03287 -3.45652 0
M  V30 13428 H 1258 -3.2832 -2.75506 0
M  V30 13429 H 1262.19 -4.24617 -2.56932 0
M  V30 13430 H 1257.44 -5.64284 -2.35359 0
M  V30 13431 H 1261.62 -6.61451 -2.17844 0
M  V30 13432 H 1259.24 -7.31604 -2.06543 0
M  V30 13433 N 1260.82 1.03812 -1.18578 0
M  V30 13434 C 1262.07 1.77056 -0.982718 0
M  V30 13435 C 1262.39 1.88294 0.487421 0
M  V30 13436 O 1261.65 1.38946 1.37813 0
M  V30 13437 C 1261.95 3.20297 -1.5857 0
M  V30 13438 C 1261.61 3.29088 -3.0824 0
M  V30 13439 C 1260.28 3.31194 -3.4909 0
M  V30 13440 C 1262.63 3.28981 -4.04253 0
M  V30 13441 C 1259.96 3.30839 -4.84523 0
M  V30 13442 C 1262.31 3.30166 -5.39605 0
M  V30 13443 C 1260.97 3.30565 -5.79899 0
M  V30 13444 H 1260.24 0.647895 -0.359602 0
M  V30 13445 H 1262.89 1.21911 -1.47682 0
M  V30 13446 H 1261.19 3.7846 -1.01367 0
M  V30 13447 H 1262.89 3.75619 -1.40398 0
M  V30 13448 H 1259.48 3.28171 -2.75685 0
M  V30 13449 H 1263.67 3.26543 -3.73743 0
M  V30 13450 H 1258.92 3.29467 -5.15035 0
M  V30 13451 H 1263.1 3.29033 -6.13767 0
M  V30 13452 H 1260.72 3.30044 -6.84818 0
M  V30 13453 N 1262.3 0.988223 1.22768 0
M  V30 13454 C 1263.25 0.527454 2.26541 0
M  V30 13455 C 1264.24 -0.419506 1.64123 0
M  V30 13456 O 1265.45 -0.292539 1.77607 0
M  V30 13457 H 1261.82 0.152165 0.736444 0
M  V30 13458 H 1263.79 1.41422 2.62759 0
M  V30 13459 C 1262.54 -0.146845 3.4739 0
M  V30 13460 H 1261.86 0.572752 3.95676 0
M  V30 13461 H 1263.3 -0.432768 4.21786 0
M  V30 13462 C 1261.76 -1.38065 3.0731 0
M  V30 13463 O 1262.29 -2.47634 3.16291 0
M  V30 13464 N 1260.5 -1.25418 2.62143 0
M  V30 13465 H 1260.05 -0.362641 2.55035 0
M  V30 13466 H 1260 -2.08077 2.35694 0
M  V30 13467 N 1263.78 -1.38018 0.760839 0
M  V30 13468 C 1264.72 -2.30387 0.13796 0
M  V30 13469 C 1265.69 -1.50548 -0.701754 0
M  V30 13470 O 1266.88 -1.79154 -0.656381 0
M  V30 13471 C 1264.02 -3.36993 -0.743642 0
M  V30 13472 C 1263.13 -4.31856 0.111489 0
M  V30 13473 C 1262.27 -5.25534 -0.773796 0
M  V30 13474 C 1261.3 -6.12042 0.0845311 0
M  V30 13475 N 1260.44 -6.97995 -0.758118 0
M  V30 13476 H 1265.28 -2.83077 0.931212 0
M  V30 13477 H 1262.82 -1.39361 0.470833 0
M  V30 13478 H 1264.78 -3.97417 -1.26948 0
M  V30 13479 H 1263.41 -2.85695 -1.50261 0
M  V30 13480 H 1262.46 -3.72832 0.755031 0
M  V30 13481 H 1263.77 -4.92758 0.774042 0
M  V30 13482 H 1262.92 -5.9111 -1.36653 0
M  V30 13483 H 1261.66 -4.65017 -1.47006 0
M  V30 13484 H 1260.67 -5.45455 0.689883 0
M  V30 13485 H 1261.89 -6.74629 0.777966 0
M  V30 13486 H 1259.84 -6.40018 -1.4392 0
M  V30 13487 H 1259.76 -7.55846 -0.152623 0
M  V30 13488 H 1261.02 -7.67973 -1.33559 0
M  V30 13489 N 1265.25 -0.510493 -1.49103 0
M  V30 13490 C 1266.5 0.0325393 -2.01674 0
M  V30 13491 C 1266.82 1.37162 -1.39448 0
M  V30 13492 O 1268.02 2.00189 -1.83402 0
M  V30 13493 C 1266.48 0.108433 -3.59737 0
M  V30 13494 C 1266.09 -1.22458 -4.30939 0
M  V30 13495 C 1267.83 0.601326 -4.20219 0
M  V30 13496 C 1265.74 -1.11033 -5.80884 0
M  V30 13497 H 1264.67 0.0159333 -0.753832 0
M  V30 13498 H 1267.32 -0.651344 -1.71551 0
M  V30 13499 H 1265.7 0.856974 -3.86616 0
M  V30 13500 H 1266.87 -1.98715 -4.15751 0
M  V30 13501 H 1265.19 -1.65166 -3.82242 0
M  V30 13502 H 1267.79 0.704462 -5.30039 0
M  V30 13503 H 1268.13 1.60247 -3.84222 0
M  V30 13504 H 1268.66 -0.0909561 -3.97696 0
M  V30 13505 H 1265.4 -2.08603 -6.21422 0
M  V30 13506 H 1264.92 -0.388798 -5.98539 0
M  V30 13507 H 1266.6 -0.792949 -6.42123 0
M  V30 13508 N 1266.73 1.55688 -0.24474 0
M  V30 13509 C 1267.96 2.02995 0.38425 0
M  V30 13510 C 1268.37 1.12339 1.52239 0
M  V30 13511 O 1267.71 0.129803 1.83241 0
M  V30 13512 C 1267.77 3.46564 0.955701 0
M  V30 13513 C 1267.44 4.56973 -0.0499176 0
M  V30 13514 C 1268.44 5.1276 -0.858682 0
M  V30 13515 C 1266.12 5.01994 -0.175383 0
M  V30 13516 C 1268.11 6.12059 -1.77939 0
M  V30 13517 C 1265.8 6.01126 -1.0996 0
M  V30 13518 C 1266.8 6.56037 -1.90013 0
M  V30 13519 O 1266.49 7.53235 -2.80877 0
M  V30 13520 H 1266.22 0.669189 0.0957212 0
M  V30 13521 H 1268.77 2.02121 -0.36555 0
M  V30 13522 H 1267 3.44581 1.75502 0
M  V30 13523 H 1268.69 3.77383 1.49454 0
M  V30 13524 H 1269.46 4.78811 -0.772325 0
M  V30 13525 H 1265.34 4.58918 0.437644 0
M  V30 13526 H 1268.88 6.54845 -2.40465 0
M  V30 13527 H 1264.78 6.34494 -1.18689 0
M  V30 13528 H 1265.55 7.70844 -2.75214 0
M  V30 13529 N 1268.21 -0.0283989 1.57574 0
M  V30 13530 C 1269.46 -0.718121 1.88483 0
M  V30 13531 C 1269.77 -1.76485 0.843345 0
M  V30 13532 O 1270.98 -2.50721 1.04169 0
M  V30 13533 C 1269.43 -1.32832 3.3449 0
M  V30 13534 C 1269.04 -0.317905 4.46871 0
M  V30 13535 C 1270.79 -1.99788 3.74546 0
M  V30 13536 C 1268.69 -0.936489 5.83938 0
M  V30 13537 H 1267.62 -0.271969 0.703242 0
M  V30 13538 H 1270.27 0.0274862 1.83479 0
M  V30 13539 H 1268.66 -2.12366 3.34241 0
M  V30 13540 H 1269.83 0.450767 4.5859 0
M  V30 13541 H 1268.14 0.249605 4.15651 0
M  V30 13542 H 1270.74 -2.46923 4.74271 0
M  V30 13543 H 1271.08 -2.81633 3.06575 0
M  V30 13544 H 1271.62 -1.27029 3.76973 0
M  V30 13545 H 1268.36 -0.15744 6.55311 0
M  V30 13546 H 1267.88 -1.67499 5.75938 0
M  V30 13547 H 1269.56 -1.44363 6.30689 0
M  V30 13548 N 1269.69 -1.54705 -0.300681 0
M  V30 13549 C 1270.94 -1.73211 -1.03349 0
M  V30 13550 C 1271.25 -0.52518 -1.88418 0
M  V30 13551 O 1272.46 -0.592049 -2.64966 0
M  V30 13552 C 1270.91 -3.06453 -1.88717 0
M  V30 13553 C 1270.52 -4.34625 -1.0865 0
M  V30 13554 C 1272.26 -3.34317 -2.61595 0
M  V30 13555 C 1270.17 -5.58919 -1.93297 0
M  V30 13556 H 1269.1 -0.64556 -0.389574 0
M  V30 13557 H 1271.75 -1.81186 -0.290472 0
M  V30 13558 H 1270.13 -2.92443 -2.67008 0
M  V30 13559 H 1271.31 -4.59471 -0.349707 0
M  V30 13560 H 1269.62 -4.13699 -0.473521 0
M  V30 13561 H 1272.22 -4.2438 -3.25278 0
M  V30 13562 H 1272.56 -2.53207 -3.30442 0
M  V30 13563 H 1273.1 -3.493 -1.90354 0
M  V30 13564 H 1269.83 -6.42697 -1.2892 0
M  V30 13565 H 1269.35 -5.38258 -2.64647 0
M  V30 13566 H 1271.03 -5.96187 -2.51336 0
M  V30 13567 N 1271.17 0.563888 -1.47167 0
M  V30 13568 C 1272.1 1.68137 -1.62025 0
M  V30 13569 C 1273.08 1.63481 -0.469899 0
M  V30 13570 O 1274.26 1.81206 -0.698432 0
M  V30 13571 C 1271.39 3.06779 -1.62801 0
M  V30 13572 C 1270.35 3.26278 -2.76996 0
M  V30 13573 C 1269.67 4.65638 -2.62841 0
M  V30 13574 C 1270.97 3.12295 -4.18651 0
M  V30 13575 H 1272.67 1.55958 -2.55573 0
M  V30 13576 H 1270.21 0.74887 -1.22996 0
M  V30 13577 H 1272.17 3.84795 -1.71787 0
M  V30 13578 H 1270.89 3.19901 -0.658097 0
M  V30 13579 H 1269.55 2.50668 -2.67509 0
M  V30 13580 H 1269.2 4.75551 -1.63892 0
M  V30 13581 H 1268.9 4.79635 -3.39447 0
M  V30 13582 H 1270.42 5.45798 -2.73746 0
M  V30 13583 H 1271.83 3.80136 -4.2915 0
M  V30 13584 H 1270.23 3.37805 -4.95992 0
M  V30 13585 H 1271.3 2.09126 -4.37486 0
M  V30 13586 N 1272.64 1.35187 0.810078 0
M  V30 13587 C 1273.89 1.28264 1.56699 0
M  V30 13588 C 1274.22 -0.143906 1.93967 0
M  V30 13589 O 1273.47 -1.10832 1.61291 0
M  V30 13590 C 1273.77 2.13135 2.86894 0
M  V30 13591 C 1273.44 3.61974 2.6886 0
M  V30 13592 C 1272.1 4.02545 2.63649 0
M  V30 13593 C 1274.45 4.5643 2.51636 0
M  V30 13594 C 1271.78 5.35745 2.39154 0
M  V30 13595 C 1274.13 5.89824 2.2867 0
M  V30 13596 C 1272.8 6.29544 2.2188 0
M  V30 13597 H 1272.07 0.469353 0.573401 0
M  V30 13598 H 1274.71 1.67051 0.936282 0
M  V30 13599 H 1273.02 1.67218 3.54324 0
M  V30 13600 H 1274.72 2.05117 3.44569 0
M  V30 13601 H 1271.31 3.29777 2.73761 0
M  V30 13602 H 1275.49 4.25974 2.54677 0
M  V30 13603 H 1270.75 5.65524 2.32363 0
M  V30 13604 H 1274.92 6.62597 2.14333 0
M  V30 13605 H 1272.55 7.32689 2.0266 0
M  V30 13606 N 1274.12 -1.03182 1.19127 0
M  V30 13607 C 1275.07 -2.11394 0.926339 0
M  V30 13608 C 1276.04 -1.65528 -0.137703 0
M  V30 13609 O 1277.22 -1.908 0.00381804 0
M  V30 13610 C 1274.36 -3.41913 0.467894 0
M  V30 13611 C 1273.48 -4.01343 1.59837 0
M  V30 13612 C 1272.61 -5.1986 1.09175 0
M  V30 13613 C 1271.65 -5.71339 2.19632 0
M  V30 13614 N 1270.79 -6.81133 1.703 0
M  V30 13615 H 1275.63 -2.33393 1.85288 0
M  V30 13616 H 1273.17 -1.14473 0.923811 0
M  V30 13617 H 1275.12 -4.16796 0.183513 0
M  V30 13618 H 1273.75 -3.20034 -0.421656 0
M  V30 13619 H 1272.81 -3.23702 1.99803 0
M  V30 13620 H 1274.12 -4.35568 2.43068 0
M  V30 13621 H 1273.27 -6.0189 0.762427 0
M  V30 13622 H 1272.01 -4.87161 0.22914 0
M  V30 13623 H 1271.02 -4.87923 2.53399 0
M  V30 13624 H 1272.24 -6.06078 3.06344 0
M  V30 13625 H 1270.19 -6.50293 0.863415 0
M  V30 13626 H 1270.1 -7.1447 2.47122 0
M  V30 13627 H 1271.37 -7.66766 1.40321 0
M  V30 13628 N 1275.6 -0.99472 -1.22242 0
M  V30 13629 C 1277.01 -0.706456 -1.72818 0
M  V30 13630 C 1277.36 0.776566 -1.80177 0
M  V30 13631 O 1276.49 1.60698 -1.44931 0
M  V30 13632 C 1277.08 -1.27571 -3.13865 0
M  V30 13633 C 1275.64 -1.03679 -3.61839 0
M  V30 13634 C 1274.79 -1.3948 -2.39668 0
M  V30 13635 H 1277.74 -1.16687 -1.07564 0
M  V30 13636 H 1277.76 -0.655202 -3.74816 0
M  V30 13637 H 1277.27 -2.35508 -3.08476 0
M  V30 13638 H 1275.37 0.0258679 -3.72591 0
M  V30 13639 H 1275.49 -1.70145 -4.4787 0
M  V30 13640 H 1273.85 -0.813418 -2.41362 0
M  V30 13641 H 1274.63 -2.48425 -2.36939 0
M  V30 13642 N 1277.08 1.37613 -0.768148 0
M  V30 13643 C 1278.3 2.04579 -0.340892 0
M  V30 13644 C 1278.73 1.57556 1.02751 0
M  V30 13645 O 1278.09 0.734151 1.65771 0
M  V30 13646 C 1278.13 3.58495 -0.389099 0
M  V30 13647 O 1277.24 4.07838 0.611741 0
M  V30 13648 H 1276.58 0.647246 -0.148216 0
M  V30 13649 H 1279.11 1.75999 -1.04333 0
M  V30 13650 H 1279.12 4.07263 -0.245116 0
M  V30 13651 H 1277.79 3.92076 -1.38742 0
M  V30 13652 H 1276.37 3.70399 0.431173 0
M  V30 13653 N 1278.56 0.518393 1.4883 0
M  V30 13654 C 1279.97 0.175476 1.58632 0
M  V30 13655 C 1280.17 -1.32081 1.52174 0
M  V30 13656 O 1279.23 -2.09817 1.40474 0
M  V30 13657 C 1280.54 0.767722 2.90734 0
M  V30 13658 C 1282.09 0.735402 3.04238 0
M  V30 13659 C 1282.56 1.30602 4.38984 0
M  V30 13660 N 1284.06 1.26748 4.45521 0
M  V30 13661 C 1284.79 1.679 5.48267 0
M  V30 13662 N 1284.29 2.16728 6.58028 0
M  V30 13663 N 1286.08 1.59209 5.39082 0
M  V30 13664 H 1278.23 1.491 1.51271 0
M  V30 13665 H 1280.49 0.619497 0.717584 0
M  V30 13666 H 1280.2 1.81777 3.01081 0
M  V30 13667 H 1280.07 0.238119 3.76448 0
M  V30 13668 H 1282.46 -0.305852 2.93511 0
M  V30 13669 H 1282.54 1.30235 2.20165 0
M  V30 13670 H 1282.19 2.34614 4.50465 0
M  V30 13671 H 1282.12 0.714858 5.21725 0
M  V30 13672 H 1284.61 0.90991 3.66782 0
M  V30 13673 H 1284.92 2.46154 7.32549 0
M  V30 13674 H 1283.26 2.20714 6.59022 0
M  V30 13675 H 1286.46 1.20869 4.52226 0
M  V30 13676 H 1286.63 1.91602 6.19025 0
M  V30 13677 N 1280.03 -1.55556 0.252993 0
M  V30 13678 C 1280.98 -2.23035 -0.660161 0
M  V30 13679 C 1281.98 -1.21994 -1.17532 0
M  V30 13680 O 1283.18 -1.39989 -1.13151 0
M  V30 13681 H 1279.56 -0.715516 -0.23139 0
M  V30 13682 H 1281.53 -2.98323 -0.0679506 0
M  V30 13683 C 1280.28 -2.94817 -1.84332 0
M  V30 13684 H 1279.6 -3.72342 -1.45607 0
M  V30 13685 H 1281.04 -3.45386 -2.45936 0
M  V30 13686 C 1279.5 -1.99033 -2.71822 0
M  V30 13687 O 1280.03 -1.5273 -3.71533 0
M  V30 13688 N 1278.24 -1.66004 -2.38518 0
M  V30 13689 H 1277.78 -2.03853 -1.57485 0
M  V30 13690 H 1277.74 -1.02183 -2.97331 0
M  V30 13691 N 1281.51 0.0200419 -1.57587 0
M  V30 13692 C 1282.74 0.720556 -1.93947 0
M  V30 13693 C 1283.16 1.68407 -0.853499 0
M  V30 13694 O 1282.51 1.81713 0.169337 0
M  V30 13695 C 1282.56 1.46982 -3.3027 0
M  V30 13696 O 1282.28 0.544971 -4.34697 0
M  V30 13697 C 1283.79 2.26667 -3.80968 0
M  V30 13698 H 1281.01 0.201956 -0.639887 0
M  V30 13699 H 1283.55 -0.0251175 -2.04485 0
M  V30 13700 H 1281.7 2.16729 -3.21103 0
M  V30 13701 H 1282.12 1.07139 -5.13441 0
M  V30 13702 H 1283.59 2.74621 -4.78839 0
M  V30 13703 H 1284.07 3.0848 -3.12629 0
M  V30 13704 H 1284.68 1.61976 -3.93248 0
M  V30 13705 N 1282.99 1.54862 0.292472 0
M  V30 13706 C 1284.24 1.73756 1.02429 0
M  V30 13707 C 1284.55 0.535164 1.88137 0
M  V30 13708 O 1285.76 0.606092 2.64648 0
M  V30 13709 C 1284.21 3.0745 1.8709 0
M  V30 13710 C 1283.82 4.35195 1.06343 0
M  V30 13711 C 1285.57 3.357 2.59819 0
M  V30 13712 C 1283.47 5.59936 1.9033 0
M  V30 13713 H 1282.4 0.647617 0.386145 0
M  V30 13714 H 1285.05 1.81338 0.28086 0
M  V30 13715 H 1283.44 2.93855 2.65453 0
M  V30 13716 H 1284.61 4.5965 0.325335 0
M  V30 13717 H 1282.93 4.13944 0.451574 0
M  V30 13718 H 1285.52 4.26099 3.23023 0
M  V30 13719 H 1285.87 2.54956 3.29094 0
M  V30 13720 H 1286.4 3.50304 1.88499 0
M  V30 13721 H 1283.14 6.43372 1.25509 0
M  V30 13722 H 1282.66 5.39654 2.61789 0
M  V30 13723 H 1284.34 5.97512 2.48171 0
M  V30 13724 N 1284.47 -0.556076 1.47464 0
M  V30 13725 C 1285.38 -1.69043 1.62671 0
M  V30 13726 C 1286.39 -1.66372 0.509535 0
M  V30 13727 O 1287.57 -1.85799 0.777218 0
M  V30 13728 C 1284.64 -3.05546 1.63836 0
M  V30 13729 C 1283.7 -3.19275 2.86988 0
M  V30 13730 C 1282.93 -4.49267 2.88088 0
M  V30 13731 O 1283.15 -5.34796 1.98368 0
M  V30 13732 O 1282.09 -4.66811 3.79962 0
M  V30 13733 H 1285.91 -1.59155 2.58657 0
M  V30 13734 H 1283.5 -0.726211 1.30562 0
M  V30 13735 H 1285.38 -3.86778 1.67275 0
M  V30 13736 H 1284.05 -3.15814 0.710173 0
M  V30 13737 H 1282.96 -2.37437 2.89093 0
M  V30 13738 H 1284.29 -3.13912 3.79104 0
M  V30 13739 N 1285.95 -1.35615 -0.802897 0
M  V30 13740 C 1286.86 -1.3096 -1.94645 0
M  V30 13741 C 1287.87 -0.213909 -1.7268 0
M  V30 13742 O 1289.05 -0.443932 -1.96446 0
M  V30 13743 C 1286.11 -1.08483 -3.2929 0
M  V30 13744 C 1285.18 -2.27401 -3.64126 0
M  V30 13745 C 1284.41 -2.05987 -4.92347 0
M  V30 13746 O 1284.63 -1.02819 -5.61057 0
M  V30 13747 O 1283.57 -2.93439 -5.25526 0
M  V30 13748 H 1287.39 -2.27209 -2.01519 0
M  V30 13749 H 1284.98 -1.16024 -0.941214 0
M  V30 13750 H 1286.86 -0.978118 -4.09891 0
M  V30 13751 H 1285.53 -0.152885 -3.23339 0
M  V30 13752 H 1284.44 -2.43638 -2.83886 0
M  V30 13753 H 1285.77 -3.19055 -3.74786 0
M  V30 13754 N 1287.43 1.02549 -1.19673 0
M  V30 13755 C 1288.67 1.76265 -1.00293 0
M  V30 13756 C 1289 1.88555 0.464816 0
M  V30 13757 O 1288.28 1.40484 1.34515 0
M  V30 13758 C 1288.56 3.18688 -1.6766 0
M  V30 13759 C 1288.42 3.14247 -3.21821 0
M  V30 13760 C 1289.73 4.17159 -1.40238 0
M  V30 13761 H 1286.85 0.639837 -0.365756 0
M  V30 13762 H 1289.5 1.19691 -1.4756 0
M  V30 13763 H 1287.65 3.66992 -1.27472 0
M  V30 13764 H 1289.32 2.73815 -3.71245 0
M  V30 13765 H 1287.56 2.51874 -3.53188 0
M  V30 13766 H 1288.23 4.14886 -3.64107 0
M  V30 13767 H 1290.71 3.77471 -1.75086 0
M  V30 13768 H 1289.58 5.14997 -1.89919 0
M  V30 13769 H 1289.84 4.4088 -0.328197 0
M  V30 13770 N 1288.9 1.00119 1.21713 0
M  V30 13771 C 1290.32 0.713343 1.42771 0
M  V30 13772 C 1290.52 -0.712923 1.88467 0
M  V30 13773 O 1289.58 -1.48277 2.04378 0
M  V30 13774 C 1290.89 1.72596 2.46234 0
M  V30 13775 C 1292.44 1.74235 2.60022 0
M  V30 13776 C 1292.91 2.74382 3.66713 0
M  V30 13777 N 1294.4 2.73027 3.7418 0
M  V30 13778 C 1295.14 3.47178 4.56349 0
M  V30 13779 N 1294.63 4.30958 5.42446 0
M  V30 13780 N 1296.43 3.35846 4.50737 0
M  V30 13781 H 1288.58 1.9222 0.903611 0
M  V30 13782 H 1290.84 0.829466 0.459011 0
M  V30 13783 H 1290.55 2.74699 2.19621 0
M  V30 13784 H 1290.42 1.52553 3.44975 0
M  V30 13785 H 1292.81 0.728261 2.85973 0
M  V30 13786 H 1292.89 1.98349 1.61528 0
M  V30 13787 H 1292.53 3.75945 3.41508 0
M  V30 13788 H 1292.46 2.47534 4.64795 0
M  V30 13789 H 1294.95 2.12242 3.12669 0
M  V30 13790 H 1295.27 4.84344 6.02189 0
M  V30 13791 H 1293.61 4.35042 5.42 0
M  V30 13792 H 1296.8 2.6983 3.82504 0
M  V30 13793 H 1296.98 3.93892 5.14541 0
M  V30 13794 N 1290.38 -1.37203 0.775435 0
M  V30 13795 C 1291.62 -2.01439 0.346649 0
M  V30 13796 C 1291.99 -1.60223 -1.05795 0
M  V30 13797 O 1293.19 -2.16947 -1.58706 0
M  V30 13798 C 1291.46 -3.54031 0.489584 0
M  V30 13799 S 1293.02 -4.38555 0.146606 0
M  V30 13800 H 1289.83 -0.698417 0.133173 0
M  V30 13801 H 1292.44 -1.67338 1.01086 0
M  V30 13802 H 1291.14 -3.81516 1.51241 0
M  V30 13803 H 1290.67 -3.92936 -0.19105 0
M  V30 13804 H 1292.69 -4.8482 -1.05661 0
M  V30 13805 N 1291.86 -0.526279 -1.48553 0
M  V30 13806 C 1293.08 0.00731432 -2.07399 0
M  V30 13807 C 1293.51 1.27737 -1.38075 0
M  V30 13808 O 1292.87 1.75741 -0.445503 0
M  V30 13809 C 1292.92 0.218126 -3.5994 0
M  V30 13810 O 1292.02 1.28759 -3.91784 0
M  V30 13811 H 1291.36 -0.0374784 -0.662941 0
M  V30 13812 H 1293.89 -0.733133 -1.91014 0
M  V30 13813 H 1293.9 0.44192 -4.056 0
M  V30 13814 H 1292.58 -0.709668 -4.09801 0
M  V30 13815 H 1291.15 1.04674 -3.57907 0
M  V30 13816 N 1293.34 1.5542 -0.261239 0
M  V30 13817 C 1294.57 2.03687 0.363225 0
M  V30 13818 C 1294.98 1.14007 1.50492 0
M  V30 13819 O 1294.34 0.157349 1.8182 0
M  V30 13820 C 1294.39 3.51184 0.857435 0
M  V30 13821 O 1294.11 4.37449 -0.238776 0
M  V30 13822 C 1295.61 4.15277 1.55113 0
M  V30 13823 H 1292.83 0.665641 0.0846356 0
M  V30 13824 H 1295.37 2.00761 -0.389288 0
M  V30 13825 H 1293.53 3.54599 1.56008 0
M  V30 13826 H 1293.94 5.24316 0.138821 0
M  V30 13827 H 1295.42 5.20129 1.8485 0
M  V30 13828 H 1295.89 3.62619 2.47799 0
M  V30 13829 H 1296.5 4.15826 0.892695 0
M  V30 13830 N 1294.82 -0.0116844 1.57596 0
M  V30 13831 C 1295.78 -0.991601 2.0664 0
M  V30 13832 C 1296.78 -1.27973 0.973629 0
M  V30 13833 O 1297.97 -1.22686 1.23668 0
M  V30 13834 C 1295.1 -2.31975 2.49801 0
M  V30 13835 H 1296.29 -0.567607 2.9448 0
M  V30 13836 H 1293.85 -0.258906 1.54141 0
M  V30 13837 H 1294.58 -2.79087 1.65169 0
M  V30 13838 H 1294.37 -2.12386 3.29598 0
M  V30 13839 H 1295.86 -3.02294 2.88112 0
M  V30 13840 N 1296.29 -1.55015 -0.284256 0
M  V30 13841 C 1297.26 -1.8636 -1.33426 0
M  V30 13842 C 1298.26 -0.737457 -1.42892 0
M  V30 13843 O 1299.45 -1.00569 -1.42238 0
M  V30 13844 C 1296.58 -2.05884 -2.71707 0
M  V30 13845 H 1297.77 -2.80212 -1.06869 0
M  V30 13846 H 1295.32 -1.47334 -0.521767 0
M  V30 13847 H 1296.06 -1.14376 -3.03461 0
M  V30 13848 H 1295.84 -2.87867 -2.66224 0
M  V30 13849 H 1297.33 -2.31447 -3.47595 0
M  V30 13850 N 1297.77 0.548248 -1.47757 0
M  V30 13851 C 1298.72 1.65028 -1.57321 0
M  V30 13852 C 1299.71 1.55006 -0.431489 0
M  V30 13853 O 1300.9 1.63337 -0.681919 0
M  V30 13854 C 1298.03 3.0379 -1.59896 0
M  V30 13855 C 1297.11 3.18982 -2.79484 0
M  V30 13856 N 1297.5 3.04208 -4.04093 0
M  V30 13857 C 1295.8 3.50001 -2.76433 0
M  V30 13858 C 1296.5 3.2233 -4.8423 0
M  V30 13859 N 1295.48 3.49073 -4.16712 0
M  V30 13860 H 1299.28 1.52187 -2.51428 0
M  V30 13861 H 1296.79 0.753242 -1.43875 0
M  V30 13862 H 1298.79 3.82928 -1.64839 0
M  V30 13863 H 1297.45 3.17735 -0.668912 0
M  V30 13864 H 1298.46 2.81348 -4.34814 0
M  V30 13865 H 1295.14 3.70418 -1.92606 0
M  V30 13866 H 1296.53 3.15799 -5.9306 0
M  V30 13867 N 1299.25 1.36039 0.795694 0
M  V30 13868 C 1300.21 1.29709 1.88966 0
M  V30 13869 C 1301.21 0.206142 1.59473 0
M  V30 13870 O 1302.4 0.460534 1.68002 0
M  V30 13871 C 1299.53 1.00922 3.25619 0
M  V30 13872 H 1300.73 2.26993 1.95995 0
M  V30 13873 H 1298.28 1.2072 0.992791 0
M  V30 13874 H 1299.02 0.0407027 3.24274 0
M  V30 13875 H 1298.8 1.79863 3.48413 0
M  V30 13876 H 1300.29 0.990826 4.05675 0
M  V30 13877 N 1300.73 -1.01913 1.20215 0
M  V30 13878 C 1301.98 -1.7547 1.01076 0
M  V30 13879 C 1302.3 -1.89045 -0.457404 0
M  V30 13880 O 1301.56 -1.41121 -1.35585 0
M  V30 13881 C 1301.86 -3.17734 1.63646 0
M  V30 13882 C 1301.52 -3.24143 3.13436 0
M  V30 13883 C 1300.19 -3.25599 3.54315 0
M  V30 13884 C 1302.54 -3.22508 4.09436 0
M  V30 13885 C 1299.87 -3.23089 4.89725 0
M  V30 13886 C 1302.22 -3.21539 5.44789 0
M  V30 13887 C 1300.88 -3.21298 5.85085 0
M  V30 13888 H 1300.15 -0.642092 0.369864 0
M  V30 13889 H 1302.8 -1.19547 1.49602 0
M  V30 13890 H 1301.1 -3.76799 1.07375 0
M  V30 13891 H 1302.8 -3.73338 1.46356 0
M  V30 13892 H 1299.39 -3.23743 2.80871 0
M  V30 13893 H 1303.57 -3.20555 3.7889 0
M  V30 13894 H 1298.83 -3.21231 5.20212 0
M  V30 13895 H 1303 -3.19226 6.18924 0
M  V30 13896 H 1300.63 -3.19107 6.89982 0
M  V30 13897 N 1302.21 -1.00763 -1.2118 0
M  V30 13898 C 1303.15 -0.570257 -2.23644 0
M  V30 13899 C 1304.12 0.405039 -1.61086 0
M  V30 13900 O 1305.31 0.306496 -1.88322 0
M  V30 13901 C 1302.45 0.094325 -3.44971 0
M  V30 13902 C 1301.56 -0.924463 -4.21993 0
M  V30 13903 C 1300.7 -0.231869 -5.30694 0
M  V30 13904 C 1299.74 -1.23803 -5.99449 0
M  V30 13905 N 1298.87 -0.572725 -6.9976 0
M  V30 13906 H 1303.71 -1.44869 -2.60417 0
M  V30 13907 H 1301.25 -0.725369 -1.27972 0
M  V30 13908 H 1303.21 0.496689 -4.14233 0
M  V30 13909 H 1301.84 0.936457 -3.08918 0
M  V30 13910 H 1300.89 -1.44505 -3.51884 0
M  V30 13911 H 1302.2 -1.69004 -4.69296 0
M  V30 13912 H 1301.36 0.226465 -6.06277 0
M  V30 13913 H 1300.09 0.566092 -4.84403 0
M  V30 13914 H 1299.1 -1.70684 -5.22635 0
M  V30 13915 H 1300.32 -2.03711 -6.47826 0
M  V30 13916 H 1298.27 0.205531 -6.55678 0
M  V30 13917 H 1298.19 -1.27651 -7.45145 0
M  V30 13918 H 1299.46 -0.137683 -7.79378 0
M  V30 13919 N 1303.68 1.3679 -0.7827 0
M  V30 13920 C 1304.93 1.99712 -0.352533 0
M  V30 13921 C 1305.26 1.61984 1.0712 0
M  V30 13922 O 1304.54 0.871342 1.7389 0
M  V30 13923 C 1304.82 3.5649 -0.508628 0
M  V30 13924 C 1304.67 4.04093 -1.97557 0
M  V30 13925 C 1305.99 4.40026 0.0804447 0
M  V30 13926 H 1303.11 0.725522 -0.129566 0
M  V30 13927 H 1305.75 1.62305 -0.987788 0
M  V30 13928 H 1303.9 3.88487 0.0321664 0
M  V30 13929 H 1305.58 3.82613 -2.57691 0
M  V30 13930 H 1303.82 3.55881 -2.48055 0
M  V30 13931 H 1304.49 5.13088 -2.03579 0
M  V30 13932 H 1306.97 4.14351 -0.381113 0
M  V30 13933 H 1305.84 5.48868 -0.0588424 0
M  V30 13934 H 1306.1 4.26285 1.17189 0
M  V30 13935 N 1305.16 0.53415 1.48272 0
M  V30 13936 C 1306.13 -0.215641 2.28183 0
M  V30 13937 C 1307.13 -0.863966 1.35618 0
M  V30 13938 O 1308.32 -0.723375 1.58471 0
M  V30 13939 C 1305.45 -1.31251 3.1462 0
M  V30 13940 H 1306.64 0.486014 2.95936 0
M  V30 13941 H 1304.19 0.290237 1.53582 0
M  V30 13942 H 1304.93 -2.04729 2.51508 0
M  V30 13943 H 1304.71 -0.852706 3.82716 0
M  V30 13944 H 1306.2 -1.83978 3.74889 0
M  V30 13945 N 1306.64 -1.55279 0.269478 0
M  V30 13946 C 1307.6 -2.21008 -0.607299 0
M  V30 13947 C 1308.6 -1.18619 -1.08564 0
M  V30 13948 O 1309.79 -1.4356 -0.986721 0
M  V30 13949 C 1306.93 -2.87157 -1.83721 0
M  V30 13950 H 1308.12 -2.99881 -0.0334894 0
M  V30 13951 H 1305.67 -1.56287 0.0200573 0
M  V30 13952 H 1306.41 -2.12281 -2.45168 0
M  V30 13953 H 1306.19 -3.62183 -1.5022 0
M  V30 13954 H 1307.68 -3.37391 -2.46083 0
M  V30 13955 N 1308.12 0.00332656 -1.576 0
M  V30 13956 C 1309.53 0.359361 -1.55502 0
M  V30 13957 C 1309.73 1.74997 -0.998914 0
M  V30 13958 O 1308.79 2.44482 -0.631263 0
M  V30 13959 C 1310.1 0.237638 -2.9976 0
M  V30 13960 C 1311.65 0.312824 -3.11433 0
M  V30 13961 C 1312.13 0.220262 -4.5747 0
M  V30 13962 N 1313.62 0.278265 -4.62363 0
M  V30 13963 C 1314.35 0.229933 -5.72939 0
M  V30 13964 N 1313.85 0.132391 -6.92673 0
M  V30 13965 N 1315.64 0.281555 -5.61394 0
M  V30 13966 H 1307.79 -0.906404 -1.92089 0
M  V30 13967 H 1310.06 -0.347129 -0.88216 0
M  V30 13968 H 1309.76 -0.719007 -3.44272 0
M  V30 13969 H 1309.64 1.02105 -3.63118 0
M  V30 13970 H 1312.02 1.25991 -2.66852 0
M  V30 13971 H 1312.1 -0.500395 -2.50858 0
M  V30 13972 H 1311.75 -0.723267 -5.02724 0
M  V30 13973 H 1311.68 1.05192 -5.15987 0
M  V30 13974 H 1314.17 0.35512 -3.76228 0
M  V30 13975 H 1314.48 0.101317 -7.72734 0
M  V30 13976 H 1312.83 0.0980665 -6.94931 0
M  V30 13977 H 1316.02 0.355931 -4.66745 0
M  V30 13978 H 1316.19 0.240423 -6.47554 0
M  V30 13979 N 1309.6 1.55164 0.276031 0
M  V30 13980 C 1310.56 1.87065 1.32436 0
M  V30 13981 C 1311.56 0.745024 1.42499 0
M  V30 13982 O 1312.75 1.01321 1.41702 0
M  V30 13983 C 1309.88 2.07322 2.70611 0
M  V30 13984 H 1311.07 2.80775 1.05382 0
M  V30 13985 H 1308.63 1.47609 0.513947 0
M  V30 13986 H 1309.36 1.15983 3.0285 0
M  V30 13987 H 1309.15 2.89275 2.64693 0
M  V30 13988 H 1310.64 2.33287 3.46362 0
M  V30 13989 N 1311.07 -0.540404 1.48045 0
M  V30 13990 C 1312.3 -1.32177 1.59175 0
M  V30 13991 C 1312.72 -1.87163 0.248115 0
M  V30 13992 O 1312.07 -1.65871 -0.761124 0
M  V30 13993 C 1312.13 -2.47995 2.63023 0
M  V30 13994 O 1311.85 -1.95278 3.92171 0
M  V30 13995 C 1313.35 -3.39967 2.84495 0
M  V30 13996 H 1310.57 -0.40233 0.537002 0
M  V30 13997 H 1313.11 -0.652983 1.93795 0
M  V30 13998 H 1311.27 -3.10779 2.31291 0
M  V30 13999 H 1311.68 -2.71012 4.49058 0
M  V30 14000 H 1313.15 -4.17607 3.60982 0
M  V30 14001 H 1313.63 -3.94555 1.92932 0
M  V30 14002 H 1314.24 -2.82985 3.1749 0
M  V30 14003 N 1312.55 -1.36459 -0.788468 0
M  V30 14004 C 1313.48 -1.33545 -1.91541 0
M  V30 14005 C 1314.46 -0.206762 -1.68839 0
M  V30 14006 O 1315.65 -0.404553 -1.89939 0
M  V30 14007 C 1312.78 -1.12492 -3.28577 0
M  V30 14008 C 1311.73 -2.22196 -3.65805 0
M  V30 14009 C 1311.06 -1.86285 -5.01201 0
M  V30 14010 C 1312.36 -3.64286 -3.7429 0
M  V30 14011 H 1314.05 -2.27844 -1.94236 0
M  V30 14012 H 1311.6 -1.09677 -0.933105 0
M  V30 14013 H 1313.55 -1.09089 -4.07035 0
M  V30 14014 H 1312.28 -0.146446 -3.26272 0
M  V30 14015 H 1310.93 -2.24727 -2.89644 0
M  V30 14016 H 1310.58 -0.87009 -4.95417 0
M  V30 14017 H 1310.28 -2.59734 -5.27079 0
M  V30 14018 H 1311.81 -1.84439 -5.82078 0
M  V30 14019 H 1313.22 -3.63977 -4.42937 0
M  V30 14020 H 1311.62 -4.36648 -4.11653 0
M  V30 14021 H 1312.69 -3.99123 -2.75371 0
M  V30 14022 N 1314.03 1.01274 -1.20754 0
M  V30 14023 C 1315.45 1.27256 -0.963221 0
M  V30 14024 C 1315.65 1.98349 0.354972 0
M  V30 14025 O 1314.7 2.28116 1.08255 0
M  V30 14026 C 1316.02 2.1038 -2.14851 0
M  V30 14027 C 1317.56 2.23633 -2.18991 0
M  V30 14028 C 1318.04 3.10136 -3.37016 0
M  V30 14029 N 1319.53 3.17724 -3.37054 0
M  V30 14030 C 1320.26 3.84891 -4.25025 0
M  V30 14031 N 1319.76 4.54152 -5.23181 0
M  V30 14032 N 1321.55 3.81454 -4.12855 0
M  V30 14033 H 1313.7 0.535534 -2.05538 0
M  V30 14034 H 1315.97 0.299006 -0.899611 0
M  V30 14035 H 1315.67 1.65484 -3.10335 0
M  V30 14036 H 1315.55 3.11122 -2.13267 0
M  V30 14037 H 1317.93 2.67753 -1.24067 0
M  V30 14038 H 1318.02 1.22387 -2.24622 0
M  V30 14039 H 1317.66 2.66721 -4.32229 0
M  V30 14040 H 1317.59 4.11478 -3.28623 0
M  V30 14041 H 1320.08 2.68412 -2.66014 0
M  V30 14042 H 1320.39 5.03084 -5.86623 0
M  V30 14043 H 1318.74 4.52964 -5.27113 0
M  V30 14044 H 1321.93 3.26494 -3.35439 0
M  V30 14045 H 1322.1 4.33523 -4.81624 0
M  V30 14046 N 1315.51 1.01404 1.20644 0
M  V30 14047 C 1316.93 0.728446 1.42006 0
M  V30 14048 C 1317.13 -0.692894 1.89212 0
M  V30 14049 O 1316.18 -1.46101 2.05939 0
M  V30 14050 C 1317.49 1.75198 2.44389 0
M  V30 14051 C 1319.04 1.76983 2.58159 0
M  V30 14052 C 1319.52 2.78256 3.63782 0
M  V30 14053 N 1321.01 2.7698 3.71263 0
M  V30 14054 C 1321.74 3.51999 4.52641 0
M  V30 14055 N 1321.24 4.36687 5.37844 0
M  V30 14056 N 1323.03 3.40608 4.47149 0
M  V30 14057 H 1315.18 1.93168 0.883172 0
M  V30 14058 H 1317.45 0.834287 0.450187 0
M  V30 14059 H 1317.15 2.77013 2.16695 0
M  V30 14060 H 1317.03 1.56203 3.43337 0
M  V30 14061 H 1319.41 0.758551 2.85184 0
M  V30 14062 H 1319.49 2.00051 1.59415 0
M  V30 14063 H 1319.14 3.79546 3.37501 0
M  V30 14064 H 1319.07 2.5245 4.62143 0
M  V30 14065 H 1321.56 2.15546 3.104 0
M  V30 14066 H 1321.87 4.90703 5.97018 0
M  V30 14067 H 1320.22 4.40766 5.37355 0
M  V30 14068 H 1323.41 2.73872 3.79621 0
M  V30 14069 H 1323.58 3.99327 5.10335 0
M  V30 14070 N 1316.99 -1.36373 0.789944 0
M  V30 14071 C 1318.21 -2.04011 0.373396 0
M  V30 14072 C 1318.64 -1.59171 -1.00231 0
M  V30 14073 O 1318 -0.760431 -1.64582 0
M  V30 14074 C 1318.04 -3.5783 0.446083 0
M  V30 14075 O 1317.15 -4.08759 -0.54678 0
M  V30 14076 H 1316.49 -0.644807 0.158495 0
M  V30 14077 H 1319.02 -1.74317 1.0712 0
M  V30 14078 H 1319.03 -4.06822 0.309877 0
M  V30 14079 H 1317.7 -3.89819 1.44962 0
M  V30 14080 H 1316.28 -3.71038 -0.372192 0
M  V30 14081 N 1318.47 -0.542005 -1.47987 0
M  V30 14082 C 1319.41 0.227398 -2.31486 0
M  V30 14083 C 1320.41 0.923984 -1.41982 0
M  V30 14084 O 1321.61 0.847 -1.58827 0
M  V30 14085 H 1317.99 0.0922034 -0.746326 0
M  V30 14086 H 1319.96 -0.49625 -2.94245 0
M  V30 14087 C 1318.71 1.25384 -3.24306 0
M  V30 14088 H 1318.03 0.727243 -3.9313 0
M  V30 14089 H 1319.47 1.76337 -3.85592 0
M  V30 14090 C 1317.93 2.29378 -2.46754 0
M  V30 14091 O 1318.46 3.36034 -2.201 0
M  V30 14092 N 1316.67 2.02905 -2.08033 0
M  V30 14093 H 1316.21 1.16186 -2.2991 0
M  V30 14094 H 1316.17 2.72705 -1.56458 0
M  V30 14095 N 1319.94 1.55134 -0.277709 0
M  V30 14096 C 1321.19 1.99949 0.338831 0
M  V30 14097 C 1321.52 1.16587 1.5531 0
M  V30 14098 O 1320.8 0.236572 1.93056 0
M  V30 14099 C 1321.08 3.5286 0.718457 0
M  V30 14100 C 1320.93 4.46975 -0.503332 0
M  V30 14101 C 1322.25 4.11754 1.55392 0
M  V30 14102 H 1319.37 0.726885 0.121682 0
M  V30 14103 H 1322.01 1.86055 -0.385171 0
M  V30 14104 H 1320.16 3.64831 1.33531 0
M  V30 14105 H 1321.84 4.46944 -1.14188 0
M  V30 14106 H 1320.08 4.18528 -1.14092 0
M  V30 14107 H 1320.75 5.51659 -0.193912 0
M  V30 14108 H 1323.23 4.03075 1.03293 0
M  V30 14109 H 1322.1 5.1895 1.78835 0
M  V30 14110 H 1322.36 3.62147 2.53578 0
M  V30 14111 N 1321.42 0.00503138 1.57599 0
M  V30 14112 C 1322.65 -0.693231 1.95471 0
M  V30 14113 C 1323.07 -1.66233 0.880246 0
M  V30 14114 O 1322.43 -1.80582 -0.161164 0
M  V30 14115 C 1322.48 -1.39696 3.32442 0
M  V30 14116 O 1321.58 -2.51154 3.27101 0
M  V30 14117 H 1320.92 -0.184015 0.637992 0
M  V30 14118 H 1323.45 0.0597194 2.04513 0
M  V30 14119 H 1323.46 -1.75924 3.68123 0
M  V30 14120 H 1322.14 -0.686438 4.10196 0
M  V30 14121 H 1320.71 -2.17216 3.03103 0
M  V30 14122 N 1322.9 -1.55308 -0.267798 0
M  V30 14123 C 1324.32 -1.47264 -0.61526 0
M  V30 14124 C 1324.52 -0.691025 -1.8928 0
M  V30 14125 O 1323.57 -0.211964 -2.51609 0
M  V30 14126 C 1324.88 -2.91519 -0.73739 0
M  V30 14127 C 1326.43 -3.01764 -0.831102 0
M  V30 14128 C 1326.91 -4.47283 -0.984965 0
M  V30 14129 N 1328.4 -4.51134 -1.05036 0
M  V30 14130 C 1329.13 -5.60952 -1.1883 0
M  V30 14131 N 1328.63 -6.80625 -1.29311 0
M  V30 14132 N 1330.42 -5.48705 -1.21982 0
M  V30 14133 H 1322.57 -2.04577 0.57114 0
M  V30 14134 H 1324.84 -0.927908 0.194141 0
M  V30 14135 H 1324.54 -3.51456 0.130974 0
M  V30 14136 H 1324.42 -3.40829 -1.61603 0
M  V30 14137 H 1326.8 -2.4192 -1.68993 0
M  V30 14138 H 1326.88 -2.55698 0.0722509 0
M  V30 14139 H 1326.53 -5.07732 -0.130776 0
M  V30 14140 H 1326.46 -4.91011 -1.90305 0
M  V30 14141 H 1328.95 -3.6493 -0.981551 0
M  V30 14142 H 1329.26 -7.60071 -1.39685 0
M  V30 14143 H 1327.61 -6.83426 -1.26306 0
M  V30 14144 H 1330.8 -4.5415 -1.13428 0
M  V30 14145 H 1330.97 -6.34332 -1.32388 0
M  V30 14146 N 1324.38 0.532545 -1.4833 0
M  V30 14147 C 1325.32 1.63737 -1.62661 0
M  V30 14148 C 1326.29 1.59348 -0.468758 0
M  V30 14149 O 1327.48 1.77812 -0.691921 0
M  V30 14150 C 1324.62 3.02006 -1.66993 0
M  V30 14151 C 1323.73 3.16648 -2.93867 0
M  V30 14152 C 1322.87 4.4546 -2.89376 0
M  V30 14153 C 1321.91 4.53622 -4.10966 0
M  V30 14154 N 1321.04 5.7382 -4.04567 0
M  V30 14155 H 1325.88 1.50828 -2.57012 0
M  V30 14156 H 1323.42 0.734348 -1.27459 0
M  V30 14157 H 1325.38 3.82105 -1.67486 0
M  V30 14158 H 1324.01 3.13693 -0.76135 0
M  V30 14159 H 1323.06 2.29817 -3.0313 0
M  V30 14160 H 1324.37 3.1854 -3.8384 0
M  V30 14161 H 1323.53 5.33848 -2.88256 0
M  V30 14162 H 1322.27 4.46085 -1.97127 0
M  V30 14163 H 1321.27 3.63642 -4.12364 0
M  V30 14164 H 1322.5 4.54738 -5.04371 0
M  V30 14165 H 1320.44 5.75347 -3.15137 0
M  V30 14166 H 1320.36 5.77196 -4.88243 0
M  V30 14167 H 1321.63 6.64502 -4.07502 0
M  V30 14168 N 1325.86 1.36875 0.78122 0
M  V30 14169 C 1327.27 1.17467 1.08044 0
M  V30 14170 C 1327.47 0.00434799 2.015 0
M  V30 14171 O 1326.53 -0.658499 2.43762 0
M  V30 14172 C 1327.84 2.48917 1.68704 0
M  V30 14173 C 1329.39 2.55354 1.81007 0
M  V30 14174 C 1329.86 3.8691 2.45081 0
M  V30 14175 N 1331.35 3.88301 2.52541 0
M  V30 14176 C 1332.09 4.86837 3.02947 0
M  V30 14177 N 1331.59 5.95768 3.53598 0
M  V30 14178 N 1333.38 4.74249 3.01735 0
M  V30 14179 H 1325.53 2.11793 0.160503 0
M  V30 14180 H 1327.79 0.938507 0.133825 0
M  V30 14181 H 1327.5 3.34867 1.07503 0
M  V30 14182 H 1327.37 2.65319 2.68115 0
M  V30 14183 H 1329.76 1.69816 2.41343 0
M  V30 14184 H 1329.84 2.42843 0.803783 0
M  V30 14185 H 1329.48 4.72858 1.85386 0
M  V30 14186 H 1329.41 3.9672 3.46296 0
M  V30 14187 H 1331.91 3.09607 2.16684 0
M  V30 14188 H 1332.22 6.66918 3.90435 0
M  V30 14189 H 1330.56 5.99426 3.51728 0
M  V30 14190 H 1333.75 3.88275 2.61458 0
M  V30 14191 H 1333.93 5.512 3.40709 0
M  V30 14192 N 1327.33 -1.00632 1.21289 0
M  V30 14193 C 1328.56 -1.78503 1.05601 0
M  V30 14194 C 1328.98 -1.84015 -0.389879 0
M  V30 14195 O 1328.34 -1.28277 -1.2812 0
M  V30 14196 C 1328.39 -3.20313 1.65626 0
M  V30 14197 O 1327.49 -4.02441 0.900841 0
M  V30 14198 H 1326.83 -0.550183 0.371746 0
M  V30 14199 H 1329.36 -1.26505 1.60803 0
M  V30 14200 H 1329.37 -3.70992 1.69792 0
M  V30 14201 H 1328.05 -3.15616 2.7085 0
M  V30 14202 H 1326.63 -3.61009 0.934178 0
M  V30 14203 N 1328.81 -1.02043 -1.20104 0
M  V30 14204 C 1330.04 -0.731142 -1.94085 0
M  V30 14205 C 1330.46 0.702467 -1.74491 0
M  V30 14206 O 1329.82 1.48387 -1.04168 0
M  V30 14207 C 1329.87 -1.07691 -3.44144 0
M  V30 14208 O 1328.97 -0.190751 -4.11959 0
M  V30 14209 H 1328.31 -0.270917 -0.606218 0
M  V30 14210 H 1330.84 -1.36483 -1.52426 0
M  V30 14211 H 1330.85 -1.03023 -3.94779 0
M  V30 14212 H 1329.53 -2.1214 -3.57728 0
M  V30 14213 H 1328.1 -0.29529 -3.71729 0
M  V30 14214 N 1330.29 1.35952 -0.797165 0
M  V30 14215 C 1331.52 2.0381 -0.38421 0
M  V30 14216 C 1331.94 1.597 0.993854 0
M  V30 14217 O 1331.3 0.769148 1.64176 0
M  V30 14218 C 1331.35 3.57589 -0.465054 0
M  V30 14219 O 1330.45 4.09043 0.525095 0
M  V30 14220 H 1329.79 0.643957 -0.161912 0
M  V30 14221 H 1332.32 1.73746 -1.08043 0
M  V30 14222 H 1332.33 4.06651 -0.331448 0
M  V30 14223 H 1331.01 3.89045 -1.47027 0
M  V30 14224 H 1329.58 3.7123 0.352509 0
M  V30 14225 N 1331.77 0.549846 1.47697 0
M  V30 14226 C 1332.7 -0.190364 2.32723 0
M  V30 14227 C 1333.68 -0.915933 1.43334 0
M  V30 14228 O 1334.86 -0.897838 1.72199 0
M  V30 14229 C 1331.99 -1.22545 3.24961 0
M  V30 14230 C 1330.95 -0.616805 4.23532 0
M  V30 14231 C 1330.27 -1.75599 5.05044 0
M  V30 14232 C 1331.57 0.424595 5.20571 0
M  V30 14233 H 1333.27 0.519461 2.94859 0
M  V30 14234 H 1330.81 0.251259 1.41791 0
M  V30 14235 H 1332.77 -1.75139 3.83281 0
M  V30 14236 H 1331.49 -1.96512 2.60865 0
M  V30 14237 H 1330.15 -0.112224 3.66428 0
M  V30 14238 H 1329.8 -2.48453 4.37356 0
M  V30 14239 H 1329.5 -1.35456 5.71774 0
M  V30 14240 H 1331.02 -2.28533 5.6622 0
M  V30 14241 H 1332.44 -0.0150025 5.73298 0
M  V30 14242 H 1330.83 0.7445 5.95464 0
M  V30 14243 H 1331.9 1.32318 4.66497 0
M  V30 14244 N 1333.25 -1.54984 0.285932 0
M  V30 14245 C 1334.49 -1.99436 -0.32709 0
M  V30 14246 C 1334.82 -1.17582 -1.55562 0
M  V30 14247 O 1334.09 -0.268002 -1.94058 0
M  V30 14248 H 1332.67 -0.736662 -0.123846 0
M  V30 14249 H 1335.33 -1.90881 0.393774 0
M  V30 14250 H 1334.42 -3.0609 -0.609523 0
M  V30 14251 N 1334.72 -0.0133892 -1.57594 0
M  V30 14252 C 1335.97 0.667313 -1.90765 0
M  V30 14253 C 1336.29 1.73564 -0.888847 0
M  V30 14254 O 1335.56 1.95768 0.0718946 0
M  V30 14255 H 1334.14 0.24947 -0.704112 0
M  V30 14256 H 1336.81 -0.0574789 -1.94815 0
M  V30 14257 H 1335.9 1.13007 -2.90922 0
M  V30 14258 N 1336.2 1.55448 0.259558 0
M  V30 14259 C 1337.43 1.81063 1.01148 0
M  V30 14260 C 1337.85 0.58875 1.78649 0
M  V30 14261 O 1337.21 -0.461971 1.75315 0
M  V30 14262 C 1337.26 3.04279 1.93512 0
M  V30 14263 O 1336.36 2.80307 3.02493 0
M  V30 14264 H 1335.7 0.598056 0.288487 0
M  V30 14265 H 1338.23 2.02614 0.284387 0
M  V30 14266 H 1338.24 3.33373 2.35215 0
M  V30 14267 H 1336.92 3.92856 1.36518 0
M  V30 14268 H 1335.5 2.62345 2.65008 0
M  V30 14269 N 1337.68 -0.524672 1.4861 0
M  V30 14270 C 1338.91 -1.30482 1.60568 0
M  V30 14271 C 1339.32 -1.86889 0.267952 0
M  V30 14272 O 1338.68 -1.66669 -0.743488 0
M  V30 14273 C 1338.73 -2.45191 2.65638 0
M  V30 14274 O 1338.45 -1.91107 3.9422 0
M  V30 14275 C 1339.95 -3.36931 2.88084 0
M  V30 14276 H 1337.17 -0.396612 0.541239 0
M  V30 14277 H 1339.72 -0.632392 1.94476 0
M  V30 14278 H 1337.87 -3.08308 2.34574 0
M  V30 14279 H 1338.29 -2.66234 4.51907 0
M  V30 14280 H 1339.76 -4.13755 3.65391 0
M  V30 14281 H 1340.24 -3.92487 1.97106 0
M  V30 14282 H 1340.84 -2.79601 3.20473 0
M  V30 14283 N 1339.16 -1.37287 -0.77395 0
M  V30 14284 C 1340.41 -1.32112 -1.5294 0
M  V30 14285 C 1340.73 0.0946137 -1.9477 0
M  V30 14286 O 1340 1.03817 -1.66129 0
M  V30 14287 H 1338.58 -0.486047 -0.567245 0
M  V30 14288 H 1341.24 -1.71752 -0.921263 0
M  V30 14289 H 1340.34 -1.95873 -2.42982 0
M  V30 14290 N 1340.64 0.999871 -1.21821 0
M  V30 14291 C 1341.86 1.7794 -1.06546 0
M  V30 14292 C 1342.29 1.84219 0.380115 0
M  V30 14293 O 1341.64 1.28955 1.27438 0
M  V30 14294 C 1341.69 3.1943 -1.67322 0
M  V30 14295 O 1340.8 4.01957 -0.922171 0
M  V30 14296 H 1340.14 0.548204 -0.374658 0
M  V30 14297 H 1342.67 1.2565 -1.61472 0
M  V30 14298 H 1342.68 3.70086 -1.71757 0
M  V30 14299 H 1341.35 3.14175 -2.7252 0
M  V30 14300 H 1339.93 3.60509 -0.95331 0
M  V30 14301 N 1342.11 1.02678 1.19562 0
M  V30 14302 C 1343.34 0.741569 1.93154 0
M  V30 14303 C 1343.76 -0.699292 1.75372 0
M  V30 14304 O 1343.11 -1.47533 1.07426 0
M  V30 14305 C 1343.17 1.08064 3.4497 0
M  V30 14306 O 1342.89 2.46492 3.62179 0
M  V30 14307 C 1344.39 0.817935 4.35689 0
M  V30 14308 H 1341.61 0.271506 0.613617 0
M  V30 14309 H 1344.15 1.3707 1.51763 0
M  V30 14310 H 1342.31 0.496723 3.84202 0
M  V30 14311 H 1342.72 2.59053 4.56061 0
M  V30 14312 H 1344.19 1.10517 5.40823 0
M  V30 14313 H 1344.67 -0.247693 4.38501 0
M  V30 14314 H 1345.28 1.38449 4.02134 0
M  V30 14315 N 1343.59 -1.35528 0.804364 0
M  V30 14316 C 1345 -1.81321 0.444933 0
M  V30 14317 C 1345.35 -1.66816 -1.03281 0
M  V30 14318 O 1344.48 -1.19753 -1.80245 0
M  V30 14319 C 1345.07 -3.29199 0.800827 0
M  V30 14320 C 1343.63 -3.73144 0.494026 0
M  V30 14321 C 1342.78 -2.57557 1.02761 0
M  V30 14322 H 1345.73 -1.23537 0.996203 0
M  V30 14323 H 1345.75 -3.80375 0.0975117 0
M  V30 14324 H 1345.26 -3.39725 1.8764 0
M  V30 14325 H 1343.37 -3.68169 -0.572901 0
M  V30 14326 H 1343.48 -4.68005 1.0251 0
M  V30 14327 H 1341.84 -2.50692 0.450048 0
M  V30 14328 H 1342.63 -2.70861 2.10925 0
M  V30 14329 N 1345.07 -0.557671 -1.47404 0
M  V30 14330 C 1346.3 -0.0366797 -2.07368 0
M  V30 14331 C 1346.72 1.2478 -1.40754 0
M  V30 14332 O 1346.08 1.74757 -0.48268 0
M  V30 14333 C 1346.13 0.141728 -3.60321 0
M  V30 14334 O 1345.23 1.20419 -3.94427 0
M  V30 14335 H 1344.57 -0.0515319 -0.661997 0
M  V30 14336 H 1347.1 -0.773485 -1.89416 0
M  V30 14337 H 1347.11 0.355787 -4.06446 0
M  V30 14338 H 1345.79 -0.796433 -4.08203 0
M  V30 14339 H 1344.36 0.970589 -3.60047 0
M  V30 14340 N 1346.55 1.54831 -0.294147 0
M  V30 14341 C 1347.77 2.04873 0.32276 0
M  V30 14342 C 1348.2 1.17034 1.47257 0
M  V30 14343 O 1347.56 0.172949 1.80473 0
M  V30 14344 C 1347.61 3.52431 0.76319 0
M  V30 14345 O 1346.71 3.67635 1.86865 0
M  V30 14346 H 1346.05 0.660926 0.0638162 0
M  V30 14347 H 1348.58 1.99944 -0.433995 0
M  V30 14348 H 1348.59 3.94155 1.05385 0
M  V30 14349 H 1347.27 4.15827 -0.0779464 0
M  V30 14350 H 1345.84 3.37816 1.57907 0
M  V30 14351 N 1348.03 0.0217466 1.57585 0
M  V30 14352 C 1349.25 -0.67246 1.96196 0
M  V30 14353 C 1349.68 -1.6529 0.897827 0
M  V30 14354 O 1349.04 -1.80743 -0.142002 0
M  V30 14355 C 1349.08 -1.36162 3.33905 0
M  V30 14356 O 1348.19 -2.47671 3.29747 0
M  V30 14357 H 1347.53 -0.177238 0.639908 0
M  V30 14358 H 1350.06 0.0814073 2.04438 0
M  V30 14359 H 1350.07 -1.7201 3.69968 0
M  V30 14360 H 1348.74 -0.642893 4.10901 0
M  V30 14361 H 1347.32 -2.13989 3.0539 0
M  V30 14362 N 1349.51 -1.55583 -0.251311 0
M  V30 14363 C 1350.75 -1.76411 -0.977859 0
M  V30 14364 C 1351.07 -0.584857 -1.86651 0
M  V30 14365 O 1352.27 -0.676046 -2.62948 0
M  V30 14366 C 1350.73 -3.12302 -1.78872 0
M  V30 14367 C 1350.34 -4.37862 -0.947674 0
M  V30 14368 C 1352.08 -3.42471 -2.50827 0
M  V30 14369 C 1349.99 -5.64786 -1.75417 0
M  V30 14370 H 1348.92 -0.657628 -0.368839 0
M  V30 14371 H 1351.57 -1.82019 -0.232682 0
M  V30 14372 H 1349.95 -3.0079 -2.57569 0
M  V30 14373 H 1351.13 -4.60351 -0.203352 0
M  V30 14374 H 1349.44 -4.14996 -0.341666 0
M  V30 14375 H 1352.04 -4.34514 -3.11612 0
M  V30 14376 H 1352.38 -2.63592 -3.22219 0
M  V30 14377 H 1352.91 -3.55179 -1.79145 0
M  V30 14378 H 1349.65 -6.46474 -1.08407 0
M  V30 14379 H 1349.17 -5.46405 -2.47389 0
M  V30 14380 H 1350.85 -6.03881 -2.32242 0
M  V30 14381 N 1350.98 0.516783 -1.48886 0
M  V30 14382 C 1352.21 1.30103 -1.61518 0
M  V30 14383 C 1352.63 1.85996 -0.28055 0
M  V30 14384 O 1351.99 1.65075 0.749671 0
M  V30 14385 C 1352.04 2.41837 -2.67483 0
M  V30 14386 O 1351.14 3.45249 -2.25559 0
M  V30 14387 H 1350.48 0.384774 -0.541152 0
M  V30 14388 H 1353.01 0.620424 -1.94966 0
M  V30 14389 H 1353.02 2.87832 -2.89165 0
M  V30 14390 H 1351.7 2.00519 -3.64369 0
M  V30 14391 H 1350.28 3.05281 -2.14144 0
M  V30 14392 N 1352.46 1.37696 0.766659 0
M  V30 14393 C 1353.69 1.36564 1.56093 0
M  V30 14394 C 1354.11 -0.0455828 1.88045 0
M  V30 14395 O 1353.47 -1.02405 1.49609 0
M  V30 14396 C 1353.52 2.21592 2.84481 0
M  V30 14397 O 1352.62 1.62404 3.79076 0
M  V30 14398 H 1351.96 0.466394 0.472623 0
M  V30 14399 H 1354.49 1.81287 0.948486 0
M  V30 14400 H 1354.5 2.34987 3.33534 0
M  V30 14401 H 1353.18 3.24167 2.60554 0
M  V30 14402 H 1351.75 1.58078 3.37736 0
M  V30 14403 N 1353.94 -0.993397 1.22349 0
M  V30 14404 C 1354.89 -2.0834 0.993123 0
M  V30 14405 C 1355.86 -1.65883 -0.0849717 0
M  V30 14406 O 1357.04 -1.90691 0.0645176 0
M  V30 14407 C 1354.18 -3.40252 0.576434 0
M  V30 14408 C 1353.29 -3.96055 1.72524 0
M  V30 14409 C 1352.43 -5.16123 1.25659 0
M  V30 14410 C 1351.47 -5.64062 2.37698 0
M  V30 14411 N 1350.61 -6.7537 1.91883 0
M  V30 14412 H 1355.45 -2.27381 1.92619 0
M  V30 14413 H 1352.98 -1.11476 0.959763 0
M  V30 14414 H 1354.94 -4.16001 0.316021 0
M  V30 14415 H 1353.57 -3.21214 -0.319626 0
M  V30 14416 H 1352.62 -3.17182 2.1 0
M  V30 14417 H 1353.93 -4.27614 2.56802 0
M  V30 14418 H 1353.09 -5.9916 0.953528 0
M  V30 14419 H 1351.83 -4.86186 0.384011 0
M  V30 14420 H 1350.83 -4.79614 2.68794 0
M  V30 14421 H 1352.06 -5.96025 3.25471 0
M  V30 14422 H 1350 -6.47217 1.06986 0
M  V30 14423 H 1349.92 -7.06246 2.69727 0
M  V30 14424 H 1351.19 -7.61914 1.64644 0
M  V30 14425 N 1355.42 -1.03311 -1.19015 0
M  V30 14426 C 1356.64 -0.751686 -1.93299 0
M  V30 14427 C 1357.07 0.68392 -1.75226 0
M  V30 14428 O 1356.43 1.47274 -1.05736 0
M  V30 14429 C 1356.47 -1.11335 -3.42982 0
M  V30 14430 O 1355.58 -0.234434 -4.11733 0
M  V30 14431 H 1354.92 -0.277331 -0.60331 0
M  V30 14432 H 1357.45 -1.38092 -1.5097 0
M  V30 14433 H 1357.46 -1.07204 -3.93664 0
M  V30 14434 H 1356.13 -2.15922 -3.55458 0
M  V30 14435 H 1354.71 -0.3347 -3.71395 0
M  V30 14436 N 1356.9 1.35099 -0.81154 0
M  V30 14437 C 1357.84 2.31618 -0.213536 0
M  V30 14438 C 1358.84 1.56868 0.63944 0
M  V30 14439 O 1360.04 1.71957 0.532051 0
M  V30 14440 H 1356.42 0.750316 -0.0502963 0
M  V30 14441 H 1358.39 2.79593 -1.04262 0
M  V30 14442 C 1357.14 3.4214 0.619293 0
M  V30 14443 H 1356.46 3.9979 -0.0277192 0
M  V30 14444 H 1357.9 4.11941 1.00401 0
M  V30 14445 C 1356.36 2.85607 1.7869 0
M  V30 14446 O 1356.89 2.7956 2.8846 0
M  V30 14447 N 1355.1 2.42587 1.6 0
M  V30 14448 H 1354.64 2.47705 0.707105 0
M  V30 14449 H 1354.6 2.0511 2.38279 0
M  V30 14450 N 1358.37 0.56548 1.47106 0
M  V30 14451 C 1359.6 0.0476763 2.07345 0
M  V30 14452 C 1360.02 -1.24032 1.41413 0
M  V30 14453 O 1359.38 -1.74498 0.491941 0
M  V30 14454 C 1359.43 -0.122618 3.60391 0
M  V30 14455 O 1358.53 -1.18326 3.9506 0
M  V30 14456 H 1357.87 0.0550419 0.661715 0
M  V30 14457 H 1360.4 0.78352 1.89003 0
M  V30 14458 H 1360.41 -0.334227 4.06629 0
M  V30 14459 H 1359.09 0.81807 4.07775 0
M  V30 14460 H 1357.67 -0.951481 3.60557 0
M  V30 14461 N 1359.85 -1.54672 0.302354 0
M  V30 14462 C 1360.76 -2.27251 -0.582578 0
M  V30 14463 C 1361.78 -1.30819 -1.14727 0
M  V30 14464 O 1362.95 -1.63803 -1.17177 0
M  V30 14465 C 1360.02 -3.00016 -1.73757 0
M  V30 14466 C 1359.08 -4.11988 -1.20682 0
M  V30 14467 C 1358.31 -4.81273 -2.30676 0
M  V30 14468 O 1358.54 -4.49927 -3.50602 0
M  V30 14469 O 1357.47 -5.68647 -1.97291 0
M  V30 14470 H 1361.3 -3.03699 0.00621365 0
M  V30 14471 H 1358.88 -1.49242 0.0687684 0
M  V30 14472 H 1360.76 -3.45652 -2.41045 0
M  V30 14473 H 1359.44 -2.26462 -2.31294 0
M  V30 14474 H 1358.35 -3.70749 -0.499625 0
M  V30 14475 H 1359.68 -4.87524 -0.676858 0
M  V30 14476 N 1361.33 -0.0301034 -1.57571 0
M  V30 14477 C 1362.61 0.68703 -1.83137 0
M  V30 14478 C 1362.99 1.90277 -0.914216 0
M  V30 14479 O 1362.34 2.2848 0.0299358 0
M  V30 14480 C 1362.55 1.06431 -3.32375 0
M  V30 14481 C 1363.89 1.45554 -3.98873 0
M  V30 14482 O 1364.92 1.15727 -3.36877 0
M  V30 14483 O 1363.78 2.01133 -5.08142 0
M  V30 14484 H 1360.87 0.337141 -0.755159 0
M  V30 14485 H 1363.42 -0.0578604 -1.69601 0
M  V30 14486 H 1362.19 0.199077 -3.90793 0
M  V30 14487 H 1361.81 1.86734 -3.51022 0
M  V30 14488 N 1362.81 1.55714 0.243056 0
M  V30 14489 C 1364.22 1.68126 0.811814 0
M  V30 14490 C 1364.57 0.628259 1.85869 0
M  V30 14491 O 1363.7 -0.224747 2.1523 0
M  V30 14492 C 1364.29 3.048 1.47928 0
M  V30 14493 C 1362.85 3.19138 1.99569 0
M  V30 14494 C 1362 2.64011 0.848149 0
M  V30 14495 H 1364.95 1.58689 0.0187918 0
M  V30 14496 H 1364.97 2.99459 2.34743 0
M  V30 14497 H 1364.48 3.81417 0.717106 0
M  V30 14498 H 1362.58 2.4735 2.78655 0
M  V30 14499 H 1362.69 4.26095 2.19043 0
M  V30 14500 H 1361.06 2.21934 1.2497 0
M  V30 14501 H 1361.84 3.43157 0.0989987 0
M  V30 14502 N 1364.29 -0.50888 1.49158 0
M  V30 14503 C 1365.53 -1.2635 1.58247 0
M  V30 14504 C 1365.86 -1.92677 0.265654 0
M  V30 14505 O 1365.12 -1.80931 -0.745818 0
M  V30 14506 C 1365.42 -2.35875 2.6851 0
M  V30 14507 C 1365.08 -1.87059 4.10268 0
M  V30 14508 C 1363.74 -1.73464 4.48847 0
M  V30 14509 C 1366.1 -1.50429 4.9902 0
M  V30 14510 C 1363.42 -1.21606 5.73959 0
M  V30 14511 C 1365.78 -1.00026 6.24642 0
M  V30 14512 C 1364.44 -0.850646 6.62058 0
M  V30 14513 H 1363.71 -0.462346 0.579066 0
M  V30 14514 H 1366.36 -0.565528 1.82959 0
M  V30 14515 H 1364.66 -3.11428 2.37739 0
M  V30 14516 H 1366.36 -2.9395 2.72753 0
M  V30 14517 H 1362.95 -1.98597 3.79812 0
M  V30 14518 H 1367.13 -1.59782 4.69876 0
M  V30 14519 H 1362.39 -1.08728 6.01655 0
M  V30 14520 H 1366.56 -0.707608 6.92796 0
M  V30 14521 H 1364.19 -0.446627 7.58887 0
M  V30 14522 N 1365.76 -1.381 -0.759346 0
M  V30 14523 C 1367.18 -1.30379 -1.33635 0
M  V30 14524 C 1367.53 0.0430279 -1.96153 0
M  V30 14525 O 1366.65 0.945029 -1.94675 0
M  V30 14526 C 1367.25 -2.3611 -2.42976 0
M  V30 14527 C 1365.81 -2.31985 -2.96412 0
M  V30 14528 C 1364.95 -2.19281 -1.69739 0
M  V30 14529 H 1367.9 -1.48542 -0.558656 0
M  V30 14530 H 1367.92 -2.01493 -3.22771 0
M  V30 14531 H 1367.44 -3.34122 -1.97445 0
M  V30 14532 H 1365.54 -1.37536 -3.46287 0
M  V30 14533 H 1365.65 -3.25895 -3.51183 0
M  V30 14534 H 1364.01 -1.66035 -1.93144 0
M  V30 14535 H 1364.8 -3.19225 -1.26293 0
M  V30 14536 N 1367.24 0.986894 -1.22875 0
M  V30 14537 C 1368.17 2.08035 -0.961971 0
M  V30 14538 C 1369.19 1.62683 0.0616475 0
M  V30 14539 O 1370.38 1.77659 -0.173094 0
M  V30 14540 C 1367.48 3.36208 -0.426302 0
M  V30 14541 C 1366.65 4.10562 -1.50856 0
M  V30 14542 C 1365.71 5.17014 -0.97891 0
M  V30 14543 O 1364.73 5.44259 -1.66645 0
M  V30 14544 N 1365.94 5.80167 0.196613 0
M  V30 14545 H 1368.7 2.315 -1.90336 0
M  V30 14546 H 1366.26 1.1531 -1.13645 0
M  V30 14547 H 1368.25 4.0466 -0.0571577 0
M  V30 14548 H 1366.82 3.09761 0.420345 0
M  V30 14549 H 1366.04 3.36656 -2.05076 0
M  V30 14550 H 1367.33 4.57007 -2.23655 0
M  V30 14551 H 1366.73 5.60409 0.771892 0
M  V30 14552 H 1365.29 6.49825 0.507083 0
M  V30 14553 N 1368.72 1.0394 1.18466 0
M  V30 14554 C 1370.13 0.77011 1.70077 0
M  V30 14555 C 1370.48 -0.70916 1.82935 0
M  V30 14556 O 1369.61 -1.55209 1.50795 0
M  V30 14557 C 1370.2 1.39132 3.08914 0
M  V30 14558 C 1368.76 1.17037 3.57742 0
M  V30 14559 C 1367.91 1.48279 2.34326 0
M  V30 14560 H 1370.86 1.20598 1.03159 0
M  V30 14561 H 1370.88 0.793861 3.72126 0
M  V30 14562 H 1370.39 2.46795 2.99523 0
M  V30 14563 H 1368.49 0.112435 3.7243 0
M  V30 14564 H 1368.61 1.8665 4.41247 0
M  V30 14565 H 1366.97 0.902438 2.38177 0
M  V30 14566 H 1367.75 2.57047 2.27556 0
M  V30 14567 N 1370.2 -1.34667 0.818693 0
M  V30 14568 C 1371.11 -2.33375 0.239429 0
M  V30 14569 C 1372.12 -1.62428 -0.623957 0
M  V30 14570 O 1373.3 -1.94223 -0.532854 0
M  V30 14571 C 1370.37 -3.41598 -0.59258 0
M  V30 14572 C 1369.43 -4.28301 0.292712 0
M  V30 14573 C 1368.66 -5.31356 -0.499682 0
M  V30 14574 O 1368.88 -5.43426 -1.73334 0
M  V30 14575 O 1367.82 -6.01789 0.115778 0
M  V30 14576 H 1371.64 -2.84738 1.05631 0
M  V30 14577 H 1369.23 -1.37651 0.58074 0
M  V30 14578 H 1371.11 -4.07692 -1.06607 0
M  V30 14579 H 1369.78 -2.92486 -1.38685 0
M  V30 14580 H 1368.69 -3.65145 0.81361 0
M  V30 14581 H 1370.02 -4.80843 1.05123 0
M  V30 14582 N 1371.68 -0.573274 -1.46804 0
M  V30 14583 C 1373.09 -0.23423 -1.57872 0
M  V30 14584 C 1373.29 1.26342 -1.56971 0
M  V30 14585 O 1372.35 2.04459 -1.48165 0
M  V30 14586 C 1373.66 -0.875097 -2.87685 0
M  V30 14587 C 1375.21 -0.847812 -3.01299 0
M  V30 14588 C 1375.68 -1.46804 -4.33835 0
M  V30 14589 N 1377.18 -1.43196 -4.4051 0
M  V30 14590 C 1377.91 -1.88133 -5.41658 0
M  V30 14591 N 1377.41 -2.41001 -6.49531 0
M  V30 14592 N 1379.2 -1.79107 -5.32801 0
M  V30 14593 H 1371.35 -1.54612 -1.45633 0
M  V30 14594 H 1373.61 -0.645703 -0.694098 0
M  V30 14595 H 1373.32 -1.92826 -2.94127 0
M  V30 14596 H 1373.19 -0.377671 -3.75305 0
M  V30 14597 H 1375.58 0.196707 -2.94444 0
M  V30 14598 H 1375.66 -1.38316 -2.1518 0
M  V30 14599 H 1375.31 -2.51171 -4.41447 0
M  V30 14600 H 1375.24 -0.908 -5.18713 0
M  V30 14601 H 1377.73 -1.04541 -3.63152 0
M  V30 14602 H 1378.04 -2.73172 -7.22908 0
M  V30 14603 H 1376.38 -2.45021 -6.50377 0
M  V30 14604 H 1379.58 -1.37569 -4.47429 0
M  V30 14605 H 1379.75 -2.14445 -6.11488 0
M  V30 14606 N 1373.15 1.5451 -0.310553 0
M  V30 14607 C 1374.09 2.2134 0.595098 0
M  V30 14608 C 1375.1 1.20917 1.09009 0
M  V30 14609 O 1376.29 1.47458 1.0059 0
M  V30 14610 C 1373.39 2.85384 1.82782 0
M  V30 14611 C 1372.56 4.11826 1.47372 0
M  V30 14612 C 1371.62 4.59584 2.56259 0
M  V30 14613 O 1370.65 5.24567 2.20949 0
M  V30 14614 N 1371.85 4.32709 3.86967 0
M  V30 14615 H 1374.61 2.99691 0.0229291 0
M  V30 14616 H 1372.17 1.61351 -0.133173 0
M  V30 14617 H 1374.17 3.14263 2.54992 0
M  V30 14618 H 1372.74 2.10816 2.30815 0
M  V30 14619 H 1371.96 3.89853 0.583826 0
M  V30 14620 H 1373.24 4.94138 1.21265 0
M  V30 14621 H 1372.64 3.80669 4.18458 0
M  V30 14622 H 1371.2 4.66275 4.55446 0
M  V30 14623 N 1374.63 0.0384594 1.57553 0
M  V30 14624 C 1375.58 -0.940256 2.10779 0
M  V30 14625 C 1376.55 -1.31705 1.01208 0
M  V30 14626 O 1377.74 -1.40874 1.28683 0
M  V30 14627 C 1374.88 -2.21419 2.64703 0
M  V30 14628 C 1373.99 -1.89302 3.88315 0
M  V30 14629 C 1373.12 -3.1106 4.30599 0
M  V30 14630 C 1372.16 -2.74805 5.46945 0
M  V30 14631 N 1371.3 -3.89217 5.84341 0
M  V30 14632 H 1376.14 -0.479458 2.94118 0
M  V30 14633 H 1373.68 -0.22505 1.45368 0
M  V30 14634 H 1375.63 -2.95946 2.94061 0
M  V30 14635 H 1374.26 -2.65099 1.84181 0
M  V30 14636 H 1373.32 -1.04977 3.65628 0
M  V30 14637 H 1374.63 -1.58607 4.72912 0
M  V30 14638 H 1373.78 -3.93898 4.61442 0
M  V30 14639 H 1372.52 -3.44924 3.44788 0
M  V30 14640 H 1371.53 -1.9038 5.15786 0
M  V30 14641 H 1372.75 -2.42147 6.34462 0
M  V30 14642 H 1370.7 -4.22905 5.01485 0
M  V30 14643 H 1370.61 -3.62177 6.63599 0
M  V30 14644 H 1371.88 -4.72732 6.19794 0
M  V30 14645 N 1376.11 -1.55841 -0.234795 0
M  V30 14646 C 1377.04 -1.87793 -1.31402 0
M  V30 14647 C 1378.06 -0.765113 -1.43701 0
M  V30 14648 O 1379.25 -1.04332 -1.44834 0
M  V30 14649 C 1376.35 -2.05976 -2.69123 0
M  V30 14650 C 1375.52 -3.36914 -2.7894 0
M  V30 14651 C 1374.58 -3.44691 -3.97586 0
M  V30 14652 O 1373.6 -4.17818 -3.86545 0
M  V30 14653 N 1374.81 -2.74866 -5.11301 0
M  V30 14654 H 1377.57 -2.80957 -1.04324 0
M  V30 14655 H 1375.13 -1.56226 -0.424872 0
M  V30 14656 H 1377.12 -2.08507 -3.46853 0
M  V30 14657 H 1375.69 -1.195 -2.88857 0
M  V30 14658 H 1374.91 -3.46595 -1.87791 0
M  V30 14659 H 1376.2 -4.23196 -2.82458 0
M  V30 14660 H 1375.6 -2.15208 -5.23165 0
M  V30 14661 H 1374.16 -2.83075 -5.87122 0
M  V30 14662 N 1377.59 0.500963 -1.49426 0
M  V30 14663 C 1378.52 1.6192 -1.62217 0
M  V30 14664 C 1379.53 1.54774 -0.504868 0
M  V30 14665 O 1380.72 1.60705 -0.776919 0
M  V30 14666 C 1377.82 3.0071 -1.56291 0
M  V30 14667 C 1377 3.3304 -2.83555 0
M  V30 14668 C 1376.06 4.51241 -2.7068 0
M  V30 14669 O 1375.08 4.53023 -3.44615 0
M  V30 14670 N 1376.28 5.51156 -1.82228 0
M  V30 14671 H 1379.05 1.51374 -2.58662 0
M  V30 14672 H 1376.61 0.688837 -1.46515 0
M  V30 14673 H 1378.6 3.77705 -1.45332 0
M  V30 14674 H 1377.17 3.0518 -0.677043 0
M  V30 14675 H 1376.39 2.44942 -3.08865 0
M  V30 14676 H 1377.68 3.51437 -3.67926 0
M  V30 14677 H 1377.08 5.52516 -1.21417 0
M  V30 14678 H 1375.63 6.27253 -1.77192 0
M  V30 14679 N 1379.07 1.38501 0.752011 0
M  V30 14680 C 1380 1.31746 1.87551 0
M  V30 14681 C 1381.01 0.229386 1.61176 0
M  V30 14682 O 1382.2 0.487066 1.71726 0
M  V30 14683 C 1379.3 1.01889 3.23221 0
M  V30 14684 C 1378.47 2.21637 3.77088 0
M  V30 14685 C 1377.53 1.885 4.91278 0
M  V30 14686 O 1376.56 2.61011 5.05828 0
M  V30 14687 N 1377.76 0.840909 5.74377 0
M  V30 14688 H 1380.53 2.28561 1.93856 0
M  V30 14689 H 1378.09 1.32383 0.932013 0
M  V30 14690 H 1380.08 0.777704 3.97157 0
M  V30 14691 H 1378.65 0.138658 3.12292 0
M  V30 14692 H 1377.87 2.61812 2.947 0
M  V30 14693 H 1379.16 3.01551 4.0981 0
M  V30 14694 H 1378.56 0.23962 5.65192 0
M  V30 14695 H 1377.11 0.659604 6.48454 0
M  V30 14696 N 1380.55 -0.980364 1.23396 0
M  V30 14697 C 1381.96 -1.53622 1.061 0
M  V30 14698 C 1382.31 -1.92648 -0.371645 0
M  V30 14699 O 1381.43 -1.76051 -1.25837 0
M  V30 14700 C 1382.03 -2.79159 1.91979 0
M  V30 14701 C 1380.59 -3.31144 1.78943 0
M  V30 14702 C 1379.73 -2.04135 1.87681 0
M  V30 14703 H 1382.68 -0.800047 1.37058 0
M  V30 14704 H 1382.71 -3.52011 1.4446 0
M  V30 14705 H 1382.22 -2.50723 2.96242 0
M  V30 14706 H 1380.32 -3.64459 0.774634 0
M  V30 14707 H 1380.43 -4.009 2.62329 0
M  V30 14708 H 1378.8 -2.18271 1.31262 0
M  V30 14709 H 1379.58 -1.78081 2.93499 0
M  V30 14710 N 1382.02 -1.04567 -1.17913 0
M  V30 14711 C 1382.95 -0.662066 -2.23917 0
M  V30 14712 C 1383.93 0.33713 -1.66726 0
M  V30 14713 O 1385.12 0.216116 -1.92994 0
M  V30 14714 C 1382.25 -0.029463 -3.47288 0
M  V30 14715 C 1381.2 -0.95274 -4.17261 0
M  V30 14716 C 1380.53 -0.184347 -5.34382 0
M  V30 14717 C 1381.83 -2.2741 -4.70194 0
M  V30 14718 H 1383.52 -1.54826 -2.5626 0
M  V30 14719 H 1381.07 -0.745886 -1.23177 0
M  V30 14720 H 1383.02 0.250654 -4.20654 0
M  V30 14721 H 1381.75 0.891638 -3.14193 0
M  V30 14722 H 1380.41 -1.21732 -3.45799 0
M  V30 14723 H 1380.05 0.73932 -4.97537 0
M  V30 14724 H 1379.75 -0.79949 -5.82136 0
M  V30 14725 H 1381.28 0.0886344 -6.10536 0
M  V30 14726 H 1382.69 -2.05433 -5.35229 0
M  V30 14727 H 1381.09 -2.84265 -5.28501 0
M  V30 14728 H 1382.16 -2.91708 -3.87342 0
M  V30 14729 N 1383.5 1.34231 -0.825823 0
M  V30 14730 C 1384.46 2.27776 -0.25512 0
M  V30 14731 C 1385.46 1.50409 0.568654 0
M  V30 14732 O 1386.65 1.69907 0.384337 0
M  V30 14733 C 1383.79 3.348 0.642013 0
M  V30 14734 H 1384.98 2.79763 -1.0804 0
M  V30 14735 H 1382.53 1.44412 -0.597904 0
M  V30 14736 H 1383.27 2.88032 1.49024 0
M  V30 14737 H 1383.05 3.92064 0.0527756 0
M  V30 14738 H 1384.54 4.0457 1.03502 0
M  V30 14739 N 1384.98 0.581051 1.46498 0
M  V30 14740 C 1385.91 -0.140957 2.33074 0
M  V30 14741 C 1386.89 -0.885323 1.45245 0
M  V30 14742 O 1388.08 -0.86111 1.74065 0
M  V30 14743 C 1385.21 -1.15625 3.27488 0
M  V30 14744 C 1384.16 -0.526829 4.24745 0
M  V30 14745 C 1383.49 -1.64847 5.08655 0
M  V30 14746 C 1384.79 0.53492 5.19554 0
M  V30 14747 H 1386.48 0.581888 2.93691 0
M  V30 14748 H 1384.03 0.281278 1.41226 0
M  V30 14749 H 1385.98 -1.6697 3.8691 0
M  V30 14750 H 1384.7 -1.90935 2.64974 0
M  V30 14751 H 1383.36 -0.0344738 3.66584 0
M  V30 14752 H 1383.01 -2.3912 4.42528 0
M  V30 14753 H 1382.71 -1.23298 5.74518 0
M  V30 14754 H 1384.23 -2.16472 5.7094 0
M  V30 14755 H 1385.65 0.106606 5.73201 0
M  V30 14756 H 1384.04 0.870639 5.93751 0
M  V30 14757 H 1385.11 1.42184 4.63586 0
M  V30 14758 N 1386.46 -1.54343 0.318742 0
M  V30 14759 C 1387.69 -2.04894 -0.287378 0
M  V30 14760 C 1388.1 -1.19514 -1.46157 0
M  V30 14761 O 1387.46 -0.224722 -1.81111 0
M  V30 14762 C 1387.51 -3.54124 -0.726505 0
M  V30 14763 O 1387.23 -4.36261 0.400968 0
M  V30 14764 C 1388.73 -4.20748 -1.39594 0
M  V30 14765 H 1385.95 -0.668323 -0.0598724 0
M  V30 14766 H 1388.49 -1.99177 0.463531 0
M  V30 14767 H 1386.65 -3.60145 -1.4274 0
M  V30 14768 H 1387.06 -5.2447 0.0558714 0
M  V30 14769 H 1388.54 -5.26632 -1.65418 0
M  V30 14770 H 1389.01 -3.71566 -2.3417 0
M  V30 14771 H 1389.62 -4.18852 -0.737749 0
M  V30 14772 N 1387.94 -0.0468143 -1.5753 0
M  V30 14773 C 1388.87 0.958157 -2.08211 0
M  V30 14774 C 1389.88 1.27757 -1.00906 0
M  V30 14775 O 1391.07 1.23913 -1.28483 0
M  V30 14776 C 1388.17 2.28088 -2.50657 0
M  V30 14777 C 1387.34 2.14403 -3.81248 0
M  V30 14778 C 1386.4 3.29761 -4.10054 0
M  V30 14779 O 1385.43 3.05859 -4.8004 0
M  V30 14780 N 1386.63 4.54104 -3.61621 0
M  V30 14781 H 1389.39 0.525612 -2.95055 0
M  V30 14782 H 1386.96 0.139532 -1.61298 0
M  V30 14783 H 1388.95 3.04121 -2.67007 0
M  V30 14784 H 1387.52 2.62924 -1.69085 0
M  V30 14785 H 1386.74 1.22988 -3.74523 0
M  V30 14786 H 1388.03 2.02482 -4.66775 0
M  V30 14787 H 1387.42 4.76414 -3.05034 0
M  V30 14788 H 1385.98 5.27246 -3.83217 0
M  V30 14789 N 1389.41 1.55964 0.226527 0
M  V30 14790 C 1390.35 1.88487 1.30405 0
M  V30 14791 C 1391.36 0.772723 1.43293 0
M  V30 14792 O 1392.55 1.05099 1.44279 0
M  V30 14793 C 1389.65 2.074 2.68027 0
M  V30 14794 C 1388.82 3.38389 2.77149 0
M  V30 14795 C 1387.88 3.46795 3.95752 0
M  V30 14796 O 1386.91 4.19862 3.84323 0
M  V30 14797 N 1388.11 2.77573 5.09836 0
M  V30 14798 H 1390.87 2.81506 1.02833 0
M  V30 14799 H 1388.43 1.56449 0.416581 0
M  V30 14800 H 1390.43 2.10344 3.45742 0
M  V30 14801 H 1389 1.2103 2.8822 0
M  V30 14802 H 1388.22 3.47586 1.8595 0
M  V30 14803 H 1389.5 4.24688 2.8021 0
M  V30 14804 H 1388.9 2.17979 5.22017 0
M  V30 14805 H 1387.46 2.86185 5.85612 0
M  V30 14806 N 1390.89 -0.493031 1.4969 0
M  V30 14807 C 1391.8 -1.61991 1.69694 0
M  V30 14808 C 1392.82 -1.64061 0.579641 0
M  V30 14809 O 1393.99 -1.82335 0.855323 0
M  V30 14810 C 1391.06 -2.98323 1.76648 0
M  V30 14811 C 1390.12 -3.06816 3.00271 0
M  V30 14812 C 1389.35 -4.36644 3.06883 0
M  V30 14813 O 1389.58 -5.25901 2.20872 0
M  V30 14814 O 1388.51 -4.50275 3.99419 0
M  V30 14815 H 1392.34 -1.48042 2.65174 0
M  V30 14816 H 1389.92 -0.670182 1.33525 0
M  V30 14817 H 1391.8 -3.79335 1.83529 0
M  V30 14818 H 1390.48 -3.12517 0.843482 0
M  V30 14819 H 1389.39 -2.24962 2.98903 0
M  V30 14820 H 1390.72 -2.97551 3.92077 0
M  V30 14821 N 1392.37 -1.38898 -0.744656 0
M  V30 14822 C 1393.3 -1.32739 -1.8685 0
M  V30 14823 C 1394.32 -0.23793 -1.61052 0
M  V30 14824 O 1395.5 -0.496166 -1.71466 0
M  V30 14825 C 1392.6 -1.03602 -3.22676 0
M  V30 14826 C 1391.78 -2.23634 -3.75908 0
M  V30 14827 C 1390.84 -1.91103 -4.90271 0
M  V30 14828 O 1389.86 -2.6369 -5.04437 0
M  V30 14829 N 1391.06 -0.871358 -5.73923 0
M  V30 14830 H 1393.83 -2.29585 -1.92641 0
M  V30 14831 H 1391.39 -1.32875 -0.924979 0
M  V30 14832 H 1393.38 -0.798755 -3.96739 0
M  V30 14833 H 1391.95 -0.155218 -3.12214 0
M  V30 14834 H 1391.17 -2.63371 -2.93307 0
M  V30 14835 H 1392.46 -3.0372 -4.08205 0
M  V30 14836 H 1391.86 -0.269591 -5.65057 0
M  V30 14837 H 1390.42 -0.693984 -6.48095 0
M  V30 14838 N 1393.85 0.973806 -1.23914 0
M  V30 14839 C 1394.78 2.07003 -0.983982 0
M  V30 14840 C 1395.79 1.62739 0.0443893 0
M  V30 14841 O 1396.98 1.77465 -0.191927 0
M  V30 14842 C 1394.08 3.35737 -0.461937 0
M  V30 14843 C 1393.26 4.08939 -1.55202 0
M  V30 14844 C 1392.31 5.15947 -1.03369 0
M  V30 14845 O 1391.34 5.42461 -1.72409 0
M  V30 14846 N 1392.54 5.80343 0.135067 0
M  V30 14847 H 1395.31 2.29468 -1.92781 0
M  V30 14848 H 1392.87 1.14098 -1.14861 0
M  V30 14849 H 1394.86 4.04576 -0.100074 0
M  V30 14850 H 1393.43 3.10189 0.387467 0
M  V30 14851 H 1392.65 3.34462 -2.08635 0
M  V30 14852 H 1393.94 4.5461 -2.2849 0
M  V30 14853 H 1393.34 5.61196 0.71241 0
M  V30 14854 H 1391.89 6.50326 0.438132 0
M  V30 14855 N 1395.33 1.05191 1.17357 0
M  V30 14856 C 1396.26 0.610878 2.20909 0
M  V30 14857 C 1397.27 -0.325369 1.59515 0
M  V30 14858 O 1398.46 -0.118104 1.78109 0
M  V30 14859 C 1395.56 -0.126086 3.38665 0
M  V30 14860 C 1394.73 0.820857 4.29629 0
M  V30 14861 C 1393.79 0.125154 5.26051 0
M  V30 14862 O 1392.82 0.759245 5.64114 0
M  V30 14863 N 1394.02 -1.13742 5.69248 0
M  V30 14864 H 1396.79 1.50158 2.5937 0
M  V30 14865 H 1394.35 0.933814 1.32256 0
M  V30 14866 H 1396.34 -0.601627 4.00203 0
M  V30 14867 H 1394.91 -0.918459 2.98803 0
M  V30 14868 H 1394.13 1.47602 3.65523 0
M  V30 14869 H 1395.42 1.46363 4.87294 0
M  V30 14870 H 1394.81 -1.67291 5.40398 0
M  V30 14871 H 1393.37 -1.55703 6.3293 0
M  V30 14872 N 1396.8 -1.33791 0.83293 0
M  V30 14873 C 1397.74 -2.28148 0.219336 0
M  V30 14874 C 1398.75 -1.51477 -0.596529 0
M  V30 14875 O 1399.94 -1.73377 -0.424571 0
M  V30 14876 C 1397.04 -3.31373 -0.710305 0
M  V30 14877 C 1396.21 -4.37352 0.0649215 0
M  V30 14878 C 1395.27 -5.20279 -0.78716 0
M  V30 14879 O 1394.3 -5.68741 -0.228511 0
M  V30 14880 N 1395.5 -5.40973 -2.10544 0
M  V30 14881 H 1398.26 -2.81443 1.03004 0
M  V30 14882 H 1395.82 -1.46421 0.690831 0
M  V30 14883 H 1397.82 -3.83752 -1.28517 0
M  V30 14884 H 1396.39 -2.78398 -1.42173 0
M  V30 14885 H 1395.61 -3.85553 0.821144 0
M  V30 14886 H 1396.89 -5.05271 0.598199 0
M  V30 14887 H 1396.29 -5.03291 -2.58292 0
M  V30 14888 H 1394.85 -5.96432 -2.62893 0
M  V30 14889 N 1398.28 -0.588812 -1.46187 0
M  V30 14890 C 1399.69 -0.163897 -1.85979 0
M  V30 14891 C 1400.04 1.27458 -1.49161 0
M  V30 14892 O 1399.17 1.96365 -0.909372 0
M  V30 14893 C 1399.76 -0.29067 -3.37551 0
M  V30 14894 C 1398.32 0.0794165 -3.76316 0
M  V30 14895 C 1397.47 -0.623807 -2.70192 0
M  V30 14896 H 1400.42 -0.79666 -1.37255 0
M  V30 14897 H 1400.44 0.482316 -3.77431 0
M  V30 14898 H 1399.95 -1.33771 -3.64317 0
M  V30 14899 H 1398.06 1.12636 -3.55168 0
M  V30 14900 H 1398.17 -0.301153 -4.78153 0
M  V30 14901 H 1396.53 -0.0634124 -2.54621 0
M  V30 14902 H 1397.32 -1.67261 -2.99797 0
M  V30 14903 N 1399.76 1.54172 -0.326923 0
M  V30 14904 C 1400.69 2.27402 0.530154 0
M  V30 14905 C 1401.67 1.28325 1.11655 0
M  V30 14906 O 1402.86 1.57142 1.14105 0
M  V30 14907 C 1399.99 3.03435 1.68951 0
M  V30 14908 C 1398.94 4.09877 1.23226 0
M  V30 14909 C 1398.27 4.7377 2.47882 0
M  V30 14910 C 1399.57 5.21161 0.344698 0
M  V30 14911 H 1401.26 2.99291 -0.0806959 0
M  V30 14912 H 1398.81 1.43944 -0.0402511 0
M  V30 14913 H 1400.76 3.53396 2.29541 0
M  V30 14914 H 1399.48 2.29169 2.327 0
M  V30 14915 H 1398.14 3.60805 0.649267 0
M  V30 14916 H 1397.79 3.96116 3.10002 0
M  V30 14917 H 1397.49 5.45674 2.17977 0
M  V30 14918 H 1399.01 5.26507 3.09229 0
M  V30 14919 H 1400.43 5.66859 0.856979 0
M  V30 14920 H 1398.83 5.99941 0.138276 0
M  V30 14921 H 1399.9 4.80874 -0.623575 0
M  V30 14922 N 1401.24 0.0551678 1.57503 0
M  V30 14923 C 1402.47 -0.6272 1.97164 0
M  V30 14924 C 1402.88 -1.64143 0.932876 0
M  V30 14925 O 1402.24 -1.82314 -0.0824465 0
M  V30 14926 C 1402.29 -1.31057 3.36907 0
M  V30 14927 O 1402.01 -0.336951 4.36802 0
M  V30 14928 C 1403.51 -2.08232 3.91349 0
M  V30 14929 H 1400.73 -0.171196 0.648793 0
M  V30 14930 H 1403.28 0.122651 2.04132 0
M  V30 14931 H 1401.43 -2.01162 3.31078 0
M  V30 14932 H 1401.84 -0.825204 5.17968 0
M  V30 14933 H 1403.32 -2.51463 4.91397 0
M  V30 14934 H 1403.8 -2.93212 3.26991 0
M  V30 14935 H 1404.4 -1.43029 4.00528 0
M  V30 14936 N 1402.72 -1.56081 -0.218252 0
M  V30 14937 C 1403.65 -1.95706 -1.27364 0
M  V30 14938 C 1404.63 -0.825731 -1.48713 0
M  V30 14939 O 1405.81 -1.08829 -1.60841 0
M  V30 14940 C 1402.94 -2.2766 -2.62275 0
M  V30 14941 C 1401.9 -3.43314 -2.55576 0
M  V30 14942 C 1401.22 -3.60883 -3.94547 0
M  V30 14943 C 1402.52 -4.7819 -2.10075 0
M  V30 14944 H 1404.22 -2.84113 -0.944459 0
M  V30 14945 H 1401.76 -1.36693 -0.452882 0
M  V30 14946 H 1403.72 -2.53973 -3.36268 0
M  V30 14947 H 1402.44 -1.3611 -2.96887 0
M  V30 14948 H 1401.1 -3.17056 -1.8404 0
M  V30 14949 H 1400.75 -2.66703 -4.26472 0
M  V30 14950 H 1400.45 -4.38674 -3.90946 0
M  V30 14951 H 1401.97 -3.89547 -4.70197 0
M  V30 14952 H 1403.38 -5.03686 -2.73813 0
M  V30 14953 H 1401.78 -5.59287 -2.17527 0
M  V30 14954 H 1402.85 -4.73325 -1.05314 0
M  V30 14955 N 1404.2 0.485086 -1.49949 0
M  V30 14956 C 1405.61 1.06629 -1.53255 0
M  V30 14957 C 1405.96 1.9344 -0.327915 0
M  V30 14958 O 1405.08 2.09011 0.560669 0
M  V30 14959 C 1405.68 1.94053 -2.77721 0
M  V30 14960 C 1404.24 2.47307 -2.83754 0
M  V30 14961 C 1403.38 1.25307 -2.47373 0
M  V30 14962 H 1406.33 0.268297 -1.56416 0
M  V30 14963 H 1406.36 2.78946 -2.58784 0
M  V30 14964 H 1405.87 1.30843 -3.65379 0
M  V30 14965 H 1403.97 3.1411 -2.00414 0
M  V30 14966 H 1404.08 2.83371 -3.86313 0
M  V30 14967 H 1402.45 1.5834 -1.99501 0
M  V30 14968 H 1403.23 0.637815 -3.37323 0
M  V30 14969 N 1405.67 1.39291 0.737279 0
M  V30 14970 C 1406.61 1.33728 1.86144 0
M  V30 14971 C 1407.62 0.246468 1.60924 0
M  V30 14972 O 1408.81 0.505252 1.712 0
M  V30 14973 C 1405.91 1.05312 3.22122 0
M  V30 14974 C 1405.08 2.25624 3.74716 0
M  V30 14975 C 1404.14 1.937 4.89251 0
M  V30 14976 O 1403.17 2.66361 5.03031 0
M  V30 14977 N 1404.37 0.901782 5.73453 0
M  V30 14978 H 1407.13 2.30604 1.91421 0
M  V30 14979 H 1404.69 1.33364 0.917919 0
M  V30 14980 H 1406.69 0.819784 3.9631 0
M  V30 14981 H 1405.26 0.171773 3.12128 0
M  V30 14982 H 1404.48 2.64923 2.91906 0
M  V30 14983 H 1405.76 3.05881 4.06589 0
M  V30 14984 H 1405.16 0.299553 5.64906 0
M  V30 14985 H 1403.72 0.728344 6.47718 0
M  V30 14986 N 1407.15 -0.967221 1.24429 0
M  V30 14987 C 1408.08 -2.06479 0.994946 0
M  V30 14988 C 1409.1 -1.62761 -0.0357582 0
M  V30 14989 O 1410.29 -1.77361 0.201336 0
M  V30 14990 C 1407.39 -3.35487 0.479736 0
M  V30 14991 C 1406.56 -4.0811 1.57368 0
M  V30 14992 C 1405.62 -5.15392 1.06104 0
M  V30 14993 O 1404.64 -5.41539 1.75283 0
M  V30 14994 N 1405.85 -5.80406 -0.104288 0
M  V30 14995 H 1408.61 -2.28443 1.93995 0
M  V30 14996 H 1406.17 -1.13488 1.15465 0
M  V30 14997 H 1408.16 -4.04517 0.121528 0
M  V30 14998 H 1406.73 -3.1039 -0.371012 0
M  V30 14999 H 1405.95 -3.33351 2.10406 0
M  V30 15000 H 1407.24 -4.53391 2.30897 0
M  V30 15001 H 1406.64 -5.61566 -0.682638 0
M  V30 15002 H 1405.2 -6.50549 -0.403638 0
M  V30 15003 N 1408.63 -1.05812 -1.16797 0
M  V30 15004 C 1409.56 -0.622584 -2.20582 0
M  V30 15005 C 1410.57 0.316905 -1.59686 0
M  V30 15006 O 1411.76 0.108657 -1.78169 0
M  V30 15007 C 1408.86 0.108124 -3.38727 0
M  V30 15008 C 1408.04 -0.84363 -4.29187 0
M  V30 15009 C 1407.1 -0.15305 -5.25977 0
M  V30 15010 O 1406.12 -0.78915 -5.63703 0
M  V30 15011 N 1407.32 1.10721 -5.69843 0
M  V30 15012 H 1410.09 -1.51532 -2.5857 0
M  V30 15013 H 1407.65 -0.940815 -1.31758 0
M  V30 15014 H 1409.64 0.580395 -4.00517 0
M  V30 15015 H 1408.21 0.902599 -2.99286 0
M  V30 15016 H 1407.43 -1.49538 -3.64735 0
M  V30 15017 H 1408.72 -1.48946 -4.86511 0
M  V30 15018 H 1408.12 1.64423 -5.41278 0
M  V30 15019 H 1406.67 1.52344 -6.33746 0
M  V30 15020 N 1410.11 1.33347 -0.840014 0
M  V30 15021 C 1411.52 1.50615 -0.52795 0
M  V30 15022 C 1411.72 1.77993 0.944493 0
M  V30 15023 O 1410.78 1.84087 1.72824 0
M  V30 15024 C 1412.09 2.66001 -1.40228 0
M  V30 15025 C 1413.64 2.79886 -1.40117 0
M  V30 15026 C 1414.12 3.98335 -2.26038 0
M  V30 15027 N 1415.61 4.05572 -2.23753 0
M  V30 15028 C 1416.34 4.96422 -2.86972 0
M  V30 15029 N 1415.84 5.9238 -3.59247 0
M  V30 15030 N 1417.63 4.89428 -2.76436 0
M  V30 15031 H 1409.78 1.13839 -1.79317 0
M  V30 15032 H 1412.04 0.559772 -0.765088 0
M  V30 15033 H 1411.75 2.52453 -2.44868 0
M  V30 15034 H 1411.62 3.61434 -1.07914 0
M  V30 15035 H 1414.01 2.92865 -0.362487 0
M  V30 15036 H 1414.09 1.85211 -1.76439 0
M  V30 15037 H 1413.74 3.86115 -3.29966 0
M  V30 15038 H 1413.67 4.92257 -1.87057 0
M  V30 15039 H 1416.16 3.36899 -1.71195 0
M  V30 15040 H 1416.47 6.58367 -4.04688 0
M  V30 15041 H 1414.82 5.92451 -3.63354 0
M  V30 15042 H 1418.01 4.13428 -2.19534 0
M  V30 15043 H 1418.18 5.60032 -3.25989 0
M  V30 15044 N 1411.59 0.596556 1.45873 0
M  V30 15045 C 1412.81 0.0916466 2.07197 0
M  V30 15046 C 1413.24 -1.21004 1.44012 0
M  V30 15047 O 1412.59 -1.73415 0.528844 0
M  V30 15048 C 1412.64 -0.0461457 3.6057 0
M  V30 15049 O 1411.75 -1.09919 3.97481 0
M  V30 15050 H 1411.09 0.0690655 0.660398 0
M  V30 15051 H 1413.62 0.823434 1.87299 0
M  V30 15052 H 1413.63 -0.2479 4.07246 0
M  V30 15053 H 1412.3 0.904381 4.05948 0
M  V30 15054 H 1410.88 -0.874788 3.62494 0
M  V30 15055 N 1413.06 -1.53996 0.335095 0
M  V30 15056 C 1414 -2.22258 -0.559809 0
M  V30 15057 C 1415.01 -1.22636 -1.07071 0
M  V30 15058 O 1416.2 -1.4904 -0.982312 0
M  V30 15059 C 1413.3 -2.88256 -1.78218 0
M  V30 15060 C 1412.47 -4.14118 -1.40801 0
M  V30 15061 C 1411.53 -4.63603 -2.48915 0
M  V30 15062 O 1410.56 -5.28015 -2.12576 0
M  V30 15063 N 1411.76 -4.3881 -3.80034 0
M  V30 15064 H 1414.52 -2.9969 0.0247521 0
M  V30 15065 H 1412.08 -1.61119 0.158826 0
M  V30 15066 H 1414.08 -3.1828 -2.4996 0
M  V30 15067 H 1412.65 -2.14461 -2.27431 0
M  V30 15068 H 1411.87 -3.90732 -0.521729 0
M  V30 15069 H 1413.15 -4.96005 -1.13388 0
M  V30 15070 H 1412.55 -3.87278 -4.12349 0
M  V30 15071 H 1411.11 -4.73461 -4.47971 0
M  V30 15072 N 1414.54 -0.0635198 -1.57472 0
M  V30 15073 C 1415.47 0.93602 -2.09216 0
M  V30 15074 C 1416.49 1.2668 -1.02255 0
M  V30 15075 O 1417.68 1.22543 -1.2979 0
M  V30 15076 C 1414.78 2.25417 -2.53062 0
M  V30 15077 C 1413.95 2.10347 -3.83501 0
M  V30 15078 C 1413.01 3.25394 -4.13528 0
M  V30 15079 O 1412.03 3.00751 -4.83257 0
M  V30 15080 N 1413.24 4.50243 -3.66417 0
M  V30 15081 H 1416 0.494288 -2.95596 0
M  V30 15082 H 1413.56 0.122416 -1.61437 0
M  V30 15083 H 1415.55 3.01272 -2.70217 0
M  V30 15084 H 1414.12 2.61116 -1.71864 0
M  V30 15085 H 1413.34 1.19009 -3.75807 0
M  V30 15086 H 1414.63 1.97519 -4.68896 0
M  V30 15087 H 1414.03 4.73152 -3.1007 0
M  V30 15088 H 1412.59 5.23152 -3.88787 0
M  V30 15089 N 1416.02 1.56195 0.209972 0
M  V30 15090 C 1416.95 1.89859 1.28398 0
M  V30 15091 C 1417.96 0.787878 1.42465 0
M  V30 15092 O 1419.15 1.06623 1.43156 0
M  V30 15093 C 1416.25 2.10231 2.65812 0
M  V30 15094 C 1415.43 3.41309 2.73545 0
M  V30 15095 C 1414.49 3.50973 3.92052 0
M  V30 15096 O 1413.51 4.23915 3.79849 0
M  V30 15097 N 1414.71 2.82965 5.06864 0
M  V30 15098 H 1417.48 2.82581 0.998411 0
M  V30 15099 H 1415.04 1.56882 0.399964 0
M  V30 15100 H 1417.03 2.13999 3.43492 0
M  V30 15101 H 1415.6 1.2408 2.8692 0
M  V30 15102 H 1414.82 3.49539 1.82253 0
M  V30 15103 H 1416.11 4.27636 2.7569 0
M  V30 15104 H 1415.51 2.23504 5.19676 0
M  V30 15105 H 1414.06 2.9238 5.82544 0
M  V30 15106 N 1417.5 -0.477127 1.50204 0
M  V30 15107 C 1418.91 -1.05815 1.53819 0
M  V30 15108 C 1419.26 -1.93264 0.338169 0
M  V30 15109 O 1418.38 -2.09305 -0.549576 0
M  V30 15110 C 1418.98 -1.92577 2.78746 0
M  V30 15111 C 1417.54 -2.45799 2.85061 0
M  V30 15112 C 1416.69 -1.23994 2.48034 0
M  V30 15113 H 1419.64 -0.259998 1.56556 0
M  V30 15114 H 1419.66 -2.7757 2.6026 0
M  V30 15115 H 1419.17 -1.28904 3.66068 0
M  V30 15116 H 1417.27 -3.13042 2.02077 0
M  V30 15117 H 1417.38 -2.81318 3.8781 0
M  V30 15118 H 1415.75 -1.5728 2.00338 0
M  V30 15119 H 1416.53 -0.619917 3.37657 0
M  V30 15120 N 1418.98 -1.3968 -0.729882 0
M  V30 15121 C 1420.39 -1.21396 -1.0361 0
M  V30 15122 C 1420.59 -0.0791302 -2.01345 0
M  V30 15123 O 1419.65 0.567575 -2.46038 0
M  V30 15124 C 1420.96 -2.55006 -1.59349 0
M  V30 15125 C 1422.51 -2.61896 -1.71405 0
M  V30 15126 C 1422.98 -3.9574 -2.30552 0
M  V30 15127 N 1424.48 -3.97406 -2.37955 0
M  V30 15128 C 1425.21 -4.97745 -2.8467 0
M  V30 15129 N 1424.71 -6.08482 -3.31243 0
M  V30 15130 N 1426.5 -4.85121 -2.83925 0
M  V30 15131 H 1418.65 -2.12242 -0.081787 0
M  V30 15132 H 1420.91 -0.942827 -0.0989005 0
M  V30 15133 H 1420.62 -3.38626 -0.950005 0
M  V30 15134 H 1420.49 -2.75087 -2.58083 0
M  V30 15135 H 1422.88 -1.78656 -2.34874 0
M  V30 15136 H 1422.96 -2.45659 -0.7131 0
M  V30 15137 H 1422.61 -4.79412 -1.67709 0
M  V30 15138 H 1422.54 -4.09299 -3.31334 0
M  V30 15139 H 1425.03 -3.17435 -2.05044 0
M  V30 15140 H 1425.34 -6.8095 -3.65414 0
M  V30 15141 H 1423.68 -6.12068 -3.29239 0
M  V30 15142 H 1426.88 -3.97711 -2.46867 0
M  V30 15143 H 1427.05 -5.63465 -3.20017 0
M  V30 15144 N 1420.45 0.960609 -1.2494 0
M  V30 15145 C 1421.69 1.71937 -1.10531 0
M  V30 15146 C 1422.06 1.88806 0.348766 0
M  V30 15147 O 1423.26 2.61681 0.614539 0
M  V30 15148 C 1421.53 3.0685 -1.83242 0
M  V30 15149 S 1423.09 3.98057 -1.84651 0
M  V30 15150 H 1419.91 0.591061 -0.395181 0
M  V30 15151 H 1422.51 1.14618 -1.58376 0
M  V30 15152 H 1421.21 2.92238 -2.8814 0
M  V30 15153 H 1420.74 3.69233 -1.35759 0
M  V30 15154 H 1422.76 4.8761 -0.919263 0
M  V30 15155 N 1421.93 1.0643 1.16234 0
M  V30 15156 C 1422.88 0.676311 2.20669 0
M  V30 15157 C 1423.85 -0.327721 1.62835 0
M  V30 15158 O 1425.03 -0.216296 1.8957 0
M  V30 15159 C 1422.17 0.0703726 3.45028 0
M  V30 15160 C 1421.29 1.12475 4.17101 0
M  V30 15161 C 1420.42 0.484806 5.28983 0
M  V30 15162 C 1419.46 1.52262 5.9286 0
M  V30 15163 N 1418.6 0.905938 6.96231 0
M  V30 15164 H 1423.44 1.57129 2.53209 0
M  V30 15165 H 1420.98 0.7856 1.24365 0
M  V30 15166 H 1422.93 -0.298488 4.16131 0
M  V30 15167 H 1421.56 -0.788002 3.13034 0
M  V30 15168 H 1420.62 1.6113 3.44589 0
M  V30 15169 H 1421.93 1.91202 4.60698 0
M  V30 15170 H 1421.08 0.0630553 6.06667 0
M  V30 15171 H 1419.82 -0.334332 4.86553 0
M  V30 15172 H 1418.83 1.95425 5.13896 0
M  V30 15173 H 1420.05 2.34388 6.37369 0
M  V30 15174 H 1418 0.107536 6.55912 0
M  V30 15175 H 1417.91 1.63058 7.38206 0
M  V30 15176 H 1419.18 0.509378 7.77834 0
M  V30 15177 N 1423.41 -1.329 0.847073 0
M  V30 15178 C 1424.34 -2.27903 0.243522 0
M  V30 15179 C 1425.36 -1.52101 -0.58043 0
M  V30 15180 O 1426.54 -1.73818 -0.406158 0
M  V30 15181 C 1423.64 -3.32107 -0.675118 0
M  V30 15182 C 1422.82 -4.37258 0.111305 0
M  V30 15183 C 1421.88 -5.21085 -0.731933 0
M  V30 15184 O 1420.9 -5.68951 -0.168176 0
M  V30 15185 N 1422.1 -5.43175 -2.04794 0
M  V30 15186 H 1424.87 -2.80335 1.05983 0
M  V30 15187 H 1422.43 -1.4568 0.706322 0
M  V30 15188 H 1424.42 -3.85093 -1.2444 0
M  V30 15189 H 1422.99 -2.79891 -1.39212 0
M  V30 15190 H 1422.21 -3.8466 0.861991 0
M  V30 15191 H 1423.5 -5.04608 0.651756 0
M  V30 15192 H 1422.9 -5.06002 -2.5294 0
M  V30 15193 H 1421.46 -5.99186 -2.56552 0
M  V30 15194 N 1424.89 -0.604284 -1.45555 0
M  V30 15195 C 1425.84 0.116491 -2.30506 0
M  V30 15196 C 1426.81 0.863214 -1.41908 0
M  V30 15197 O 1427.99 0.849606 -1.7084 0
M  V30 15198 C 1425.13 1.11009 -3.26758 0
M  V30 15199 C 1424.24 0.36458 -4.30459 0
M  V30 15200 C 1423.38 1.34761 -5.13822 0
M  V30 15201 C 1422.42 0.589724 -6.09253 0
M  V30 15202 N 1421.55 1.52187 -6.85408 0
M  V30 15203 H 1426.39 -0.61394 -2.91607 0
M  V30 15204 H 1423.93 -0.314561 -1.43697 0
M  V30 15205 H 1425.89 1.69925 -3.81027 0
M  V30 15206 H 1424.52 1.80797 -2.67418 0
M  V30 15207 H 1423.57 -0.340026 -3.78877 0
M  V30 15208 H 1424.88 -0.226906 -4.98284 0
M  V30 15209 H 1424.04 2.00893 -5.72474 0
M  V30 15210 H 1422.78 1.97302 -4.46008 0
M  V30 15211 H 1421.78 -0.0852486 -5.49734 0
M  V30 15212 H 1423.01 -0.0306001 -6.79093 0
M  V30 15213 H 1420.95 2.13499 -6.20286 0
M  V30 15214 H 1420.87 0.983737 -7.49572 0
M  V30 15215 H 1422.14 2.17287 -7.48603 0
M  V30 15216 N 1426.37 1.53816 -0.343257 0
M  V30 15217 C 1427.61 2.01207 0.253721 0
M  V30 15218 C 1427.95 1.23069 1.50225 0
M  V30 15219 O 1427.22 0.31824 1.91879 0
M  V30 15220 C 1427.5 3.5559 0.56815 0
M  V30 15221 C 1427.36 4.44438 -0.692457 0
M  V30 15222 C 1428.68 4.17974 1.37788 0
M  V30 15223 H 1425.79 0.731392 0.0907427 0
M  V30 15224 H 1428.44 1.84254 -0.463736 0
M  V30 15225 H 1426.59 3.70166 1.17937 0
M  V30 15226 H 1428.26 4.41698 -1.33042 0
M  V30 15227 H 1426.5 4.13312 -1.3174 0
M  V30 15228 H 1427.17 5.5034 -0.427715 0
M  V30 15229 H 1429.65 4.07094 0.861043 0
M  V30 15230 H 1428.52 5.26068 1.56663 0
M  V30 15231 H 1428.79 3.72577 2.3799 0
M  V30 15232 N 1427.84 0.0718701 1.57436 0
M  V30 15233 C 1429.09 -0.596799 1.92669 0
M  V30 15234 C 1429.41 -1.70765 0.953876 0
M  V30 15235 O 1430.61 -2.43589 1.19903 0
M  V30 15236 C 1429.07 -1.11291 3.42261 0
M  V30 15237 C 1428.68 -0.0330681 4.47988 0
M  V30 15238 C 1430.42 -1.75564 3.86494 0
M  V30 15239 C 1428.33 -0.56323 5.88712 0
M  V30 15240 H 1427.26 -0.226695 0.719114 0
M  V30 15241 H 1429.91 0.144117 1.82933 0
M  V30 15242 H 1428.29 -1.9068 3.4707 0
M  V30 15243 H 1429.46 0.741501 4.54795 0
M  V30 15244 H 1427.78 0.513438 4.13222 0
M  V30 15245 H 1430.38 -2.16261 4.89014 0
M  V30 15246 H 1430.72 -2.61566 3.23865 0
M  V30 15247 H 1431.25 -1.02798 3.84288 0
M  V30 15248 H 1427.99 0.259632 6.54986 0
M  V30 15249 H 1427.51 -1.30532 5.85424 0
M  V30 15250 H 1429.19 -1.03961 6.38593 0
M  V30 15251 N 1429.32 -1.56304 -0.201686 0
M  V30 15252 C 1430.57 -1.80237 -0.923093 0
M  V30 15253 C 1430.9 -0.643994 -1.83529 0
M  V30 15254 O 1430.15 0.370613 -1.92159 0
M  V30 15255 C 1430.45 -3.10101 -1.77686 0
M  V30 15256 C 1430.12 -4.393 -1.0162 0
M  V30 15257 C 1428.78 -4.74399 -0.806161 0
M  V30 15258 C 1431.13 -5.1898 -0.480515 0
M  V30 15259 C 1428.46 -5.8668 -0.0488423 0
M  V30 15260 C 1430.81 -6.32051 0.26356 0
M  V30 15261 C 1429.48 -6.65738 0.484679 0
M  V30 15262 H 1428.75 -0.659533 -0.337784 0
M  V30 15263 H 1431.39 -1.90556 -0.189895 0
M  V30 15264 H 1429.7 -2.9499 -2.57853 0
M  V30 15265 H 1431.39 -3.25823 -2.33753 0
M  V30 15266 H 1427.98 -4.11751 -1.18992 0
M  V30 15267 H 1432.17 -4.92283 -0.630208 0
M  V30 15268 H 1427.42 -6.11256 0.13251 0
M  V30 15269 H 1431.6 -6.93012 0.686058 0
M  V30 15270 H 1429.23 -7.52583 1.07341 0
M  V30 15271 N 1430.8 0.469154 -1.50455 0
M  V30 15272 C 1432.05 1.21868 -1.61222 0
M  V30 15273 C 1432.37 1.9243 -0.315535 0
M  V30 15274 O 1431.64 1.84192 0.667083 0
M  V30 15275 H 1430.22 0.452828 -0.594101 0
M  V30 15276 H 1432.88 0.540993 -1.87241 0
M  V30 15277 H 1431.98 1.96554 -2.42431 0
M  V30 15278 N 1432.28 1.40065 0.722464 0
M  V30 15279 C 1433.5 1.4146 1.5167 0
M  V30 15280 C 1433.93 0.0142653 1.88095 0
M  V30 15281 O 1433.29 -0.975934 1.52791 0
M  V30 15282 C 1433.33 2.30531 2.77287 0
M  V30 15283 O 1432.44 1.74382 3.73717 0
M  V30 15284 H 1431.78 0.481194 0.457546 0
M  V30 15285 H 1434.31 1.84213 0.890331 0
M  V30 15286 H 1434.32 2.45479 3.25889 0
M  V30 15287 H 1432.99 3.32292 2.50109 0
M  V30 15288 H 1431.57 1.68743 3.32536 0
M  V30 15289 N 1433.76 -0.95397 1.25448 0
M  V30 15290 C 1435.01 -1.6953 1.10018 0
M  V30 15291 C 1435.33 -1.9166 -0.359385 0
M  V30 15292 O 1434.6 -1.50417 -1.25506 0
M  V30 15293 H 1433.18 -0.628238 0.404136 0
M  V30 15294 H 1435.84 -1.14691 1.57581 0
M  V30 15295 H 1434.93 -2.67427 1.60901 0
M  V30 15296 N 1435.24 -1.07045 -1.15668 0
M  V30 15297 C 1436.46 -0.812746 -1.90268 0
M  V30 15298 C 1436.88 0.633722 -1.77847 0
M  V30 15299 O 1436.24 1.43444 -1.12828 0
M  V30 15300 C 1436.29 -1.20793 -3.40722 0
M  V30 15301 O 1436.01 -2.59764 -3.52781 0
M  V30 15302 C 1437.51 -0.979074 -4.32353 0
M  V30 15303 H 1434.73 -0.294093 -0.603117 0
M  V30 15304 H 1437.27 -1.42609 -1.46571 0
M  V30 15305 H 1435.43 -0.638975 -3.82094 0
M  V30 15306 H 1435.84 -2.75801 -4.46133 0
M  V30 15307 H 1437.32 -1.30513 -5.36349 0
M  V30 15308 H 1437.79 0.0847752 -4.39118 0
M  V30 15309 H 1438.4 -1.53278 -3.96719 0
M  V30 15310 N 1436.71 1.32449 -0.85411 0
M  V30 15311 C 1437.96 1.97563 -0.4579 0
M  V30 15312 C 1438.29 1.67435 0.983835 0
M  V30 15313 O 1437.57 0.962292 1.69027 0
M  V30 15314 C 1437.85 3.53292 -0.69688 0
M  V30 15315 C 1437.7 3.93053 -2.18699 0
M  V30 15316 C 1439.02 4.39834 -0.152917 0
M  V30 15317 H 1436.14 0.717634 -0.167842 0
M  V30 15318 H 1438.78 1.5684 -1.07243 0
M  V30 15319 H 1436.93 3.88111 -0.173807 0
M  V30 15320 H 1438.61 3.68416 -2.7761 0
M  V30 15321 H 1436.85 3.42232 -2.6657 0
M  V30 15322 H 1437.52 5.01576 -2.3049 0
M  V30 15323 H 1440 4.11748 -0.600216 0
M  V30 15324 H 1438.87 5.47785 -0.349703 0
M  V30 15325 H 1439.13 4.31898 0.944276 0
M  V30 15326 N 1438.19 0.611994 1.45232 0
M  V30 15327 C 1439.42 0.115409 2.06578 0
M  V30 15328 C 1439.83 -1.20206 1.45588 0
M  V30 15329 O 1439.19 -1.73315 0.571668 0
M  V30 15330 C 1439.24 -0.0259943 3.61491 0
M  V30 15331 O 1438.96 1.23936 4.20204 0
M  V30 15332 C 1440.46 -0.553522 4.39831 0
M  V30 15333 H 1437.68 0.0708656 0.667247 0
M  V30 15334 H 1440.23 0.840977 1.86408 0
M  V30 15335 H 1438.38 -0.701909 3.80988 0
M  V30 15336 H 1438.8 1.07187 5.13431 0
M  V30 15337 H 1440.27 -0.601536 5.48713 0
M  V30 15338 H 1440.75 -1.57671 4.09923 0
M  V30 15339 H 1441.35 0.0884954 4.25208 0
M  V30 15340 N 1439.67 -1.53632 0.351409 0
M  V30 15341 C 1440.92 -2.0104 -0.242687 0
M  V30 15342 C 1441.24 -1.23906 -1.49925 0
M  V30 15343 O 1440.5 -0.316927 -1.93117 0
M  V30 15344 C 1440.8 -3.5242 -0.594561 0
M  V30 15345 C 1440.46 -4.47333 0.566031 0
M  V30 15346 C 1439.13 -4.73001 0.884515 0
M  V30 15347 C 1441.48 -5.03566 1.34426 0
M  V30 15348 C 1438.81 -5.52156 1.98346 0
M  V30 15349 C 1441.16 -5.8392 2.43351 0
M  V30 15350 C 1439.82 -6.0788 2.7575 0
M  V30 15351 H 1439.09 -0.735659 -0.0888056 0
M  V30 15352 H 1441.74 -1.85362 0.480948 0
M  V30 15353 H 1440.04 -3.65971 -1.39902 0
M  V30 15354 H 1441.74 -3.86565 -1.06625 0
M  V30 15355 H 1438.33 -4.27494 0.307751 0
M  V30 15356 H 1442.52 -4.83694 1.11146 0
M  V30 15357 H 1437.77 -5.68942 2.23863 0
M  V30 15358 H 1441.95 -6.26505 3.04079 0
M  V30 15359 H 1439.57 -6.69001 3.61029 0
M  V30 15360 N 1441.15 -0.0802183 -1.57396 0
M  V30 15361 C 1442.37 0.599179 -1.98556 0
M  V30 15362 C 1442.8 1.61844 -0.958555 0
M  V30 15363 O 1442.16 1.81146 0.0748226 0
M  V30 15364 C 1442.2 1.23675 -3.38728 0
M  V30 15365 O 1441.31 2.35262 -3.38712 0
M  V30 15366 H 1440.65 0.153366 -0.646045 0
M  V30 15367 H 1443.18 -0.157227 -2.03995 0
M  V30 15368 H 1443.19 1.5816 -3.76098 0
M  V30 15369 H 1441.86 0.489946 -4.13004 0
M  V30 15370 H 1440.44 2.02507 -3.13122 0
M  V30 15371 N 1442.63 1.56409 0.193394 0
M  V30 15372 C 1443.56 1.97707 1.24234 0
M  V30 15373 C 1444.54 0.849286 1.47381 0
M  V30 15374 O 1445.72 1.11374 1.59089 0
M  V30 15375 C 1442.85 2.31804 2.5862 0
M  V30 15376 C 1441.81 3.47337 2.50082 0
M  V30 15377 C 1441.13 3.67114 3.88756 0
M  V30 15378 C 1442.43 4.81472 2.02441 0
M  V30 15379 H 1444.13 2.8558 0.89914 0
M  V30 15380 H 1441.67 1.37396 0.431078 0
M  V30 15381 H 1443.62 2.5929 3.32185 0
M  V30 15382 H 1442.35 1.40816 2.94684 0
M  V30 15383 H 1441.01 3.19944 1.78973 0
M  V30 15384 H 1440.66 2.73454 4.22175 0
M  V30 15385 H 1440.36 4.44838 3.83918 0
M  V30 15386 H 1441.88 3.96978 4.6394 0
M  V30 15387 H 1443.29 5.07978 2.65766 0
M  V30 15388 H 1441.69 5.62677 2.08601 0
M  V30 15389 H 1442.76 4.74941 0.977704 0
M  V30 15390 N 1444.1 -0.461169 1.50702 0
M  V30 15391 C 1445.33 -1.24019 1.66235 0
M  V30 15392 C 1445.75 -1.84827 0.349388 0
M  V30 15393 O 1445.11 -1.67743 -0.687888 0
M  V30 15394 C 1445.16 -2.31743 2.76274 0
M  V30 15395 O 1444.26 -3.3664 2.38217 0
M  V30 15396 H 1443.6 -0.364424 0.55506 0
M  V30 15397 H 1446.13 -0.547636 1.97135 0
M  V30 15398 H 1446.14 -2.76902 2.99649 0
M  V30 15399 H 1444.82 -1.86858 3.7156 0
M  V30 15400 H 1443.4 -2.97123 2.25327 0
M  V30 15401 N 1445.58 -1.40446 -0.715026 0
M  V30 15402 C 1446.83 -1.38754 -1.47491 0
M  V30 15403 C 1447.16 0.0099443 -1.94497 0
M  V30 15404 O 1446.41 0.99458 -1.68543 0
M  V30 15405 C 1446.71 -2.32392 -2.7153 0
M  V30 15406 C 1446.38 -3.79635 -2.43286 0
M  V30 15407 C 1445.04 -4.19751 -2.35293 0
M  V30 15408 C 1447.39 -4.72681 -2.19596 0
M  V30 15409 C 1444.72 -5.50947 -2.01679 0
M  V30 15410 C 1447.07 -6.04176 -1.87495 0
M  V30 15411 C 1445.73 -6.43333 -1.77985 0
M  V30 15412 H 1445 -0.507738 -0.539706 0
M  V30 15413 H 1447.65 -1.73104 -0.81898 0
M  V30 15414 H 1445.96 -1.91229 -3.41963 0
M  V30 15415 H 1447.65 -2.28366 -3.29621 0
M  V30 15416 H 1444.24 -3.47852 -2.50393 0
M  V30 15417 H 1448.43 -4.42506 -2.24727 0
M  V30 15418 H 1443.68 -5.80187 -1.92854 0
M  V30 15419 H 1447.86 -6.75788 -1.68179 0
M  V30 15420 H 1445.48 -7.44909 -1.51706 0
M  V30 15421 N 1447.06 0.947303 -1.25952 0
M  V30 15422 C 1448.34 1.66964 -1.01894 0
M  V30 15423 C 1448.72 2.06192 0.452555 0
M  V30 15424 O 1448.06 1.78098 1.43156 0
M  V30 15425 C 1448.27 2.88643 -1.96179 0
M  V30 15426 C 1449.62 3.60432 -2.24441 0
M  V30 15427 O 1450.65 2.98737 -1.93996 0
M  V30 15428 O 1449.51 4.7154 -2.76247 0
M  V30 15429 H 1446.6 0.730875 -0.386976 0
M  V30 15430 H 1449.15 0.999577 -1.37137 0
M  V30 15431 H 1447.92 2.565 -2.95506 0
M  V30 15432 H 1447.54 3.63377 -1.61379 0
M  V30 15433 N 1448.54 1.07657 1.15099 0
M  V30 15434 C 1449.45 0.711198 2.2356 0
M  V30 15435 C 1450.46 -0.278932 1.7175 0
M  V30 15436 O 1451.64 -0.124788 2.01013 0
M  V30 15437 C 1448.71 0.117855 3.465 0
M  V30 15438 C 1447.77 1.16162 4.13286 0
M  V30 15439 C 1447 0.596494 5.30356 0
M  V30 15440 O 1447.22 -0.586474 5.67377 0
M  V30 15441 O 1446.16 1.34288 5.86729 0
M  V30 15442 H 1449.98 1.61578 2.5715 0
M  V30 15443 H 1447.57 0.84973 1.22882 0
M  V30 15444 H 1449.45 -0.210613 4.20873 0
M  V30 15445 H 1448.12 -0.760008 3.14652 0
M  V30 15446 H 1447.03 1.54249 3.4082 0
M  V30 15447 H 1448.36 2.01149 4.49221 0
M  V30 15448 N 1450.02 -1.31994 0.861122 0
M  V30 15449 C 1451.43 -1.79271 0.521437 0
M  V30 15450 C 1451.78 -1.71046 -0.96113 0
M  V30 15451 O 1450.9 -1.2729 -1.75003 0
M  V30 15452 C 1451.5 -3.25507 0.939731 0
M  V30 15453 C 1450.06 -3.70713 0.651845 0
M  V30 15454 C 1449.2 -2.52967 1.13592 0
M  V30 15455 H 1452.16 -1.19201 1.0477 0
M  V30 15456 H 1452.18 -3.79619 0.258754 0
M  V30 15457 H 1451.69 -3.3146 2.0188 0
M  V30 15458 H 1449.79 -3.70268 -0.416232 0
M  V30 15459 H 1449.9 -4.63236 1.22267 0
M  V30 15460 H 1448.27 -2.48558 0.555971 0
M  V30 15461 H 1449.05 -2.61671 2.22223 0
M  V30 15462 N 1451.49 -0.619688 -1.44906 0
M  V30 15463 C 1452.43 0.130316 -2.28829 0
M  V30 15464 C 1453.44 0.820039 -1.40639 0
M  V30 15465 O 1454.63 0.683401 -1.649 0
M  V30 15466 C 1451.73 1.20618 -3.16709 0
M  V30 15467 C 1450.9 0.60121 -4.33248 0
M  V30 15468 C 1449.96 1.56954 -5.02247 0
M  V30 15469 O 1448.99 1.09112 -5.58644 0
M  V30 15470 N 1450.19 2.90395 -5.02644 0
M  V30 15471 H 1452.95 -0.589867 -2.93838 0
M  V30 15472 H 1450.51 -0.460028 -1.55227 0
M  V30 15473 H 1452.51 1.85404 -3.59732 0
M  V30 15474 H 1451.08 1.82873 -2.53528 0
M  V30 15475 H 1450.3 -0.225015 -3.93557 0
M  V30 15476 H 1451.58 0.177471 -5.0849 0
M  V30 15477 H 1450.98 3.31855 -4.58136 0
M  V30 15478 H 1449.54 3.50572 -5.49493 0
M  V30 15479 N 1452.97 1.53444 -0.359552 0
M  V30 15480 C 1453.92 2.25544 0.48977 0
M  V30 15481 C 1454.89 1.25982 1.08248 0
M  V30 15482 O 1456.07 1.54751 1.1161 0
M  V30 15483 C 1453.21 3.04358 1.62666 0
M  V30 15484 C 1452.33 4.18801 1.0597 0
M  V30 15485 C 1451.46 4.85069 2.1652 0
M  V30 15486 C 1450.5 5.91554 1.57259 0
M  V30 15487 N 1449.64 6.51537 2.61617 0
M  V30 15488 H 1454.48 2.97709 -0.13158 0
M  V30 15489 H 1452.02 1.469 -0.0767056 0
M  V30 15490 H 1453.97 3.48324 2.29623 0
M  V30 15491 H 1452.6 2.34459 2.21876 0
M  V30 15492 H 1451.66 3.79364 0.280599 0
M  V30 15493 H 1452.97 4.95341 0.586383 0
M  V30 15494 H 1452.12 5.32187 2.9131 0
M  V30 15495 H 1450.86 4.07988 2.67202 0
M  V30 15496 H 1449.87 5.43803 0.809818 0
M  V30 15497 H 1451.09 6.70552 1.07409 0
M  V30 15498 H 1449.04 5.77312 3.11523 0
M  V30 15499 H 1448.95 7.23599 2.18954 0
M  V30 15500 H 1450.22 7.03306 3.36127 0
M  V30 15501 N 1454.45 0.0885642 1.57351 0
M  V30 15502 C 1455.4 -0.890284 2.14888 0
M  V30 15503 C 1456.39 -1.29671 1.09004 0
M  V30 15504 O 1457.6 -1.272 1.27359 0
M  V30 15505 H 1453.97 -0.305107 0.687324 0
M  V30 15506 H 1455.94 -0.380243 2.95967 0
M  V30 15507 C 1454.69 -2.14216 2.73874 0
M  V30 15508 H 1454.02 -1.8383 3.55031 0
M  V30 15509 H 1455.46 -2.8078 3.17708 0
M  V30 15510 C 1453.92 -2.91186 1.69448 0
M  V30 15511 O 1454.45 -3.85494 1.12949 0
M  V30 15512 N 1452.65 -2.54603 1.40091 0
M  V30 15513 H 1452.2 -1.77984 1.86225 0
M  V30 15514 H 1452.16 -3.06403 0.704577 0
M  V30 15515 N 1455.93 -1.56509 -0.185096 0
M  V30 15516 C 1456.89 -1.94468 -1.21305 0
M  V30 15517 C 1457.89 -0.826838 -1.37913 0
M  V30 15518 O 1459.08 -1.09411 -1.35554 0
M  V30 15519 C 1456.21 -2.22747 -2.58063 0
M  V30 15520 H 1457.41 -2.86442 -0.888323 0
M  V30 15521 H 1454.96 -1.50354 -0.427012 0
M  V30 15522 H 1455.69 -1.33443 -2.95573 0
M  V30 15523 H 1455.48 -3.04215 -2.47378 0
M  V30 15524 H 1456.97 -2.53084 -3.32172 0
M  V30 15525 N 1457.41 0.45317 -1.50944 0
M  V30 15526 C 1458.34 1.56825 -1.65775 0
M  V30 15527 C 1459.32 1.54542 -0.505515 0
M  V30 15528 O 1460.5 1.73902 -0.727336 0
M  V30 15529 C 1457.63 2.95411 -1.65681 0
M  V30 15530 C 1456.67 3.1578 -2.8668 0
M  V30 15531 S 1457.51 2.93763 -4.47731 0
M  V30 15532 C 1458.66 4.34659 -4.50358 0
M  V30 15533 H 1458.9 1.44008 -2.60094 0
M  V30 15534 H 1456.43 0.64177 -1.4043 0
M  V30 15535 H 1458.39 3.75301 -1.66311 0
M  V30 15536 H 1457.05 3.05603 -0.725659 0
M  V30 15537 H 1456.24 4.17066 -2.8297 0
M  V30 15538 H 1455.84 2.4369 -2.8371 0
M  V30 15539 H 1458.14 5.27599 -4.25024 0
M  V30 15540 H 1459.08 4.43408 -5.52082 0
M  V30 15541 H 1459.49 4.17575 -3.79857 0
M  V30 15542 N 1458.88 1.40823 0.707568 0
M  V30 15543 C 1459.85 1.41464 1.80334 0
M  V30 15544 C 1460.85 0.307143 1.57839 0
M  V30 15545 O 1462.04 0.566444 1.64733 0
M  V30 15546 C 1459.17 1.21426 3.18541 0
M  V30 15547 H 1460.36 2.38998 1.81162 0
M  V30 15548 H 1457.92 1.2679 0.914007 0
M  V30 15549 H 1458.65 0.246847 3.23359 0
M  V30 15550 H 1458.44 2.01657 3.36269 0
M  V30 15551 H 1459.93 1.24681 3.98553 0
M  V30 15552 N 1460.36 -0.94061 1.26453 0
M  V30 15553 C 1461.31 -2.02524 1.04728 0
M  V30 15554 C 1462.3 -1.60887 -0.0205193 0
M  V30 15555 O 1463.49 -1.75906 0.196501 0
M  V30 15556 C 1460.62 -3.3644 0.682862 0
M  V30 15557 C 1459.7 -3.84559 1.78815 0
M  V30 15558 N 1460.09 -4.05323 3.02567 0
M  V30 15559 C 1458.39 -4.13478 1.67188 0
M  V30 15560 C 1459.09 -4.45191 3.74406 0
M  V30 15561 N 1458.07 -4.51927 3.02098 0
M  V30 15562 H 1461.87 -2.1659 1.9866 0
M  V30 15563 H 1459.39 -1.12649 1.16978 0
M  V30 15564 H 1461.38 -4.13789 0.508379 0
M  V30 15565 H 1460.04 -3.23744 -0.248973 0
M  V30 15566 H 1461.05 -3.91996 3.38466 0
M  V30 15567 H 1457.73 -4.09567 0.809986 0
M  V30 15568 H 1459.12 -4.69442 4.80701 0
M  V30 15569 N 1461.84 -1.08266 -1.14527 0
M  V30 15570 C 1463.26 -0.810001 -1.37518 0
M  V30 15571 C 1463.46 0.581399 -1.9293 0
M  V30 15572 O 1462.51 1.33846 -2.14107 0
M  V30 15573 C 1463.83 -1.89149 -2.33759 0
M  V30 15574 C 1465.37 -1.91733 -2.47401 0
M  V30 15575 C 1465.85 -2.98992 -3.4694 0
M  V30 15576 N 1467.34 -2.98155 -3.54483 0
M  V30 15577 C 1468.07 -3.77791 -4.31349 0
M  V30 15578 N 1467.57 -4.67302 -5.11469 0
M  V30 15579 N 1469.36 -3.66099 -4.2653 0
M  V30 15580 H 1461.51 -1.97988 -0.769048 0
M  V30 15581 H 1463.78 -0.859115 -0.40078 0
M  V30 15582 H 1463.48 -2.89175 -2.00176 0
M  V30 15583 H 1463.36 -1.75955 -3.33646 0
M  V30 15584 H 1465.74 -0.923531 -2.80276 0
M  V30 15585 H 1465.83 -2.09005 -1.4748 0
M  V30 15586 H 1465.47 -3.98578 -3.14799 0
M  V30 15587 H 1465.4 -2.78965 -4.46639 0
M  V30 15588 H 1467.89 -2.33277 -2.97305 0
M  V30 15589 H 1468.2 -5.24676 -5.67393 0
M  V30 15590 H 1466.55 -4.71345 -5.10743 0
M  V30 15591 H 1469.74 -2.95539 -3.63008 0
M  V30 15592 H 1469.91 -4.28402 -4.86185 0
M  V30 15593 N 1463.32 1.31536 -0.86811 0
M  V30 15594 C 1464.27 2.30504 -0.311581 0
M  V30 15595 C 1465.26 1.59439 0.572332 0
M  V30 15596 O 1466.47 1.74059 0.458639 0
M  V30 15597 H 1462.84 0.747508 -0.0820745 0
M  V30 15598 H 1464.81 2.74919 -1.16026 0
M  V30 15599 C 1463.56 3.44459 0.473622 0
M  V30 15600 H 1462.89 3.99313 -0.197259 0
M  V30 15601 H 1464.33 4.15829 0.828393 0
M  V30 15602 C 1462.78 2.92929 1.66416 0
M  V30 15603 O 1463.31 2.91543 2.76344 0
M  V30 15604 N 1461.52 2.49154 1.49568 0
M  V30 15605 H 1461.07 2.50481 0.601408 0
M  V30 15606 H 1461.03 2.15032 2.29366 0
M  V30 15607 N 1464.8 0.627364 1.44575 0
M  V30 15608 C 1466.02 0.135576 2.06956 0
M  V30 15609 C 1466.45 -1.17922 1.46547 0
M  V30 15610 O 1465.81 -1.72255 0.565509 0
M  V30 15611 C 1465.85 0.030347 3.60587 0
M  V30 15612 O 1464.96 -1.01464 3.99724 0
M  V30 15613 H 1464.3 0.083058 0.658785 0
M  V30 15614 H 1466.83 0.862977 1.8551 0
M  V30 15615 H 1466.84 -0.161461 4.0768 0
M  V30 15616 H 1465.51 0.990285 4.03938 0
M  V30 15617 H 1464.09 -0.797701 3.64268 0
M  V30 15618 N 1466.28 -1.53251 0.367684 0
M  V30 15619 C 1467.5 -2.05705 -0.222047 0
M  V30 15620 C 1467.92 -1.24104 -1.4228 0
M  V30 15621 O 1467.28 -0.282228 -1.80305 0
M  V30 15622 C 1467.33 -3.56257 -0.613475 0
M  V30 15623 O 1467.05 -4.34765 0.539558 0
M  V30 15624 C 1468.55 -4.24976 -1.26137 0
M  V30 15625 H 1465.77 -0.66989 -0.0385799 0
M  V30 15626 H 1468.31 -1.97602 0.526663 0
M  V30 15627 H 1466.47 -3.64503 -1.3121 0
M  V30 15628 H 1466.88 -5.24027 0.222699 0
M  V30 15629 H 1468.36 -5.31628 -1.4858 0
M  V30 15630 H 1468.83 -3.78828 -2.2223 0
M  V30 15631 H 1469.44 -4.20987 -0.604121 0
M  V30 15632 N 1467.75 -0.0969077 -1.57302 0
M  V30 15633 C 1468.7 0.872039 -2.10664 0
M  V30 15634 C 1469.69 1.24265 -1.02211 0
M  V30 15635 O 1470.88 1.21743 -1.28482 0
M  V30 15636 C 1468.01 2.13042 -2.69199 0
M  V30 15637 C 1467.09 1.78517 -3.84698 0
M  V30 15638 N 1467.49 1.14558 -4.92656 0
M  V30 15639 C 1465.78 2.08115 -3.94467 0
M  V30 15640 C 1466.48 0.986837 -5.73268 0
M  V30 15641 N 1465.46 1.50473 -5.22359 0
M  V30 15642 H 1469.26 0.373625 -2.91515 0
M  V30 15643 H 1466.78 0.10625 -1.62052 0
M  V30 15644 H 1468.77 2.83403 -3.05759 0
M  V30 15645 H 1467.43 2.63448 -1.89803 0
M  V30 15646 H 1468.44 0.812179 -5.11492 0
M  V30 15647 H 1465.12 2.60722 -3.26083 0
M  V30 15648 H 1466.51 0.48651 -6.70136 0
M  V30 15649 N 1469.23 1.56605 0.176793 0
M  V30 15650 C 1470.16 1.9254 1.24342 0
M  V30 15651 C 1471.18 0.81792 1.40762 0
M  V30 15652 O 1472.37 1.09636 1.40862 0
M  V30 15653 C 1469.47 2.15822 2.61293 0
M  V30 15654 C 1468.64 3.47035 2.66243 0
M  V30 15655 C 1467.7 3.5921 3.84519 0
M  V30 15656 O 1466.72 4.31876 3.70771 0
M  V30 15657 N 1467.93 2.93653 5.00748 0
M  V30 15658 H 1470.69 2.84635 0.938246 0
M  V30 15659 H 1468.25 1.57695 0.366597 0
M  V30 15660 H 1470.24 2.21237 3.38875 0
M  V30 15661 H 1468.81 1.30138 2.84223 0
M  V30 15662 H 1468.03 3.53326 1.74798 0
M  V30 15663 H 1469.32 4.33388 2.66557 0
M  V30 15664 H 1468.72 2.34476 5.14818 0
M  V30 15665 H 1467.28 3.04671 5.76211 0
M  V30 15666 N 1470.71 -0.445159 1.51182 0
M  V30 15667 C 1471.66 -1.5604 1.72494 0
M  V30 15668 C 1472.65 -1.58753 0.591101 0
M  V30 15669 O 1473.86 -1.62591 0.772285 0
M  V30 15670 H 1470.23 -0.518265 0.544891 0
M  V30 15671 H 1472.2 -1.35237 2.65995 0
M  V30 15672 C 1470.95 -2.93768 1.85999 0
M  V30 15673 H 1470.28 -2.9241 2.72647 0
M  V30 15674 H 1471.72 -3.71189 2.04926 0
M  V30 15675 C 1470.17 -3.31186 0.617853 0
M  V30 15676 O 1470.7 -4.01035 -0.231101 0
M  V30 15677 N 1468.91 -2.86868 0.464234 0
M  V30 15678 H 1468.46 -2.30198 1.15614 0
M  V30 15679 H 1468.42 -3.12267 -0.365643 0
M  V30 15680 N 1472.19 -1.41197 -0.700089 0
M  V30 15681 C 1473.41 -1.43856 -1.494 0
M  V30 15682 C 1473.84 -0.0441877 -1.88048 0
M  V30 15683 O 1473.2 0.951503 -1.54325 0
M  V30 15684 C 1473.24 -2.34913 -2.73584 0
M  V30 15685 O 1472.35 -1.80305 -3.70896 0
M  V30 15686 H 1471.69 -0.488412 -0.449833 0
M  V30 15687 H 1474.22 -1.85606 -0.860911 0
M  V30 15688 H 1474.23 -2.50633 -3.21943 0
M  V30 15689 H 1472.9 -3.36229 -2.44791 0
M  V30 15690 H 1471.48 -1.74012 -3.29809 0
M  V30 15691 N 1473.67 0.933891 -1.2695 0
M  V30 15692 C 1474.6 2.05078 -1.11649 0
M  V30 15693 C 1475.58 1.70089 -0.0196463 0
M  V30 15694 O 1476.76 1.93239 -0.193007 0
M  V30 15695 C 1473.89 3.38963 -0.756387 0
M  V30 15696 C 1472.85 3.88041 -1.80577 0
M  V30 15697 C 1472.17 5.18661 -1.2998 0
M  V30 15698 C 1473.47 4.12116 -3.2087 0
M  V30 15699 H 1475.17 2.18137 -2.05077 0
M  V30 15700 H 1472.71 1.04817 -0.987392 0
M  V30 15701 H 1474.66 4.1657 -0.63619 0
M  V30 15702 H 1473.39 3.25901 0.213607 0
M  V30 15703 H 1472.05 3.12622 -1.91477 0
M  V30 15704 H 1471.7 5.01985 -0.319442 0
M  V30 15705 H 1471.4 5.52467 -2.00134 0
M  V30 15706 H 1472.92 5.98844 -1.19242 0
M  V30 15707 H 1474.33 4.80312 -3.13006 0
M  V30 15708 H 1472.73 4.57218 -3.88679 0
M  V30 15709 H 1473.8 3.17633 -3.66384 0
M  V30 15710 N 1475.14 1.08871 1.13951 0
M  V30 15711 C 1476.05 0.734869 2.22793 0
M  V30 15712 C 1477.07 -0.260699 1.72036 0
M  V30 15713 O 1478.25 -0.103461 2.01134 0
M  V30 15714 C 1475.31 0.154599 3.46355 0
M  V30 15715 C 1474.37 1.20539 4.1203 0
M  V30 15716 C 1473.6 0.652712 5.29694 0
M  V30 15717 O 1473.83 -0.526264 5.67967 0
M  V30 15718 O 1472.76 1.40503 5.85271 0
M  V30 15719 H 1476.59 1.64297 2.55422 0
M  V30 15720 H 1474.17 0.862716 1.21974 0
M  V30 15721 H 1476.05 -0.165962 4.21073 0
M  V30 15722 H 1474.73 -0.726592 3.1544 0
M  V30 15723 H 1473.64 1.57855 3.39164 0
M  V30 15724 H 1474.97 2.05902 4.47063 0
M  V30 15725 N 1476.62 -1.31073 0.875073 0
M  V30 15726 C 1477.58 -2.26672 0.339481 0
M  V30 15727 C 1478.58 -1.52416 -0.512439 0
M  V30 15728 O 1479.77 -1.71217 -0.321012 0
M  V30 15729 C 1476.91 -3.36952 -0.517311 0
M  V30 15730 H 1478.1 -2.7556 1.18349 0
M  V30 15731 H 1475.65 -1.42093 0.65109 0
M  V30 15732 H 1476.39 -2.93364 -1.38231 0
M  V30 15733 H 1476.17 -3.9199 0.092773 0
M  V30 15734 H 1477.66 -4.08133 -0.884154 0
M  V30 15735 N 1478.1 -0.635022 -1.4424 0
M  V30 15736 C 1479.03 0.106038 -2.28955 0
M  V30 15737 C 1480.05 0.805076 -1.415 0
M  V30 15738 O 1481.23 0.665872 -1.65615 0
M  V30 15739 C 1478.33 1.17252 -3.1797 0
M  V30 15740 C 1477.51 0.555225 -4.33862 0
M  V30 15741 C 1476.57 1.51618 -5.03883 0
M  V30 15742 O 1475.59 1.03181 -5.5977 0
M  V30 15743 N 1476.79 2.85048 -5.05696 0
M  V30 15744 H 1479.56 -0.620999 -2.93196 0
M  V30 15745 H 1477.12 -0.476466 -1.5473 0
M  V30 15746 H 1479.11 1.81578 -3.61679 0
M  V30 15747 H 1477.68 1.80174 -2.55453 0
M  V30 15748 H 1476.9 -0.266745 -3.93296 0
M  V30 15749 H 1478.19 0.123529 -5.0865 0
M  V30 15750 H 1477.59 3.26977 -4.6163 0
M  V30 15751 H 1476.15 3.44724 -5.5318 0
M  V30 15752 N 1479.58 1.53054 -0.375806 0
M  V30 15753 C 1480.53 2.2605 0.46582 0
M  V30 15754 C 1481.5 1.27123 1.06906 0
M  V30 15755 O 1482.68 1.55926 1.09963 0
M  V30 15756 C 1479.82 3.06066 1.59429 0
M  V30 15757 C 1478.93 4.19901 1.01523 0
M  V30 15758 C 1478.07 4.87339 2.11363 0
M  V30 15759 C 1477.11 5.93189 1.50976 0
M  V30 15760 N 1476.24 6.54276 2.54692 0
M  V30 15761 H 1481.08 2.97553 -0.163149 0
M  V30 15762 H 1478.62 1.4681 -0.092282 0
M  V30 15763 H 1480.58 3.50739 2.25915 0
M  V30 15764 H 1479.21 2.36799 2.19377 0
M  V30 15765 H 1478.26 3.7964 0.240346 0
M  V30 15766 H 1479.57 4.95935 0.533812 0
M  V30 15767 H 1478.73 5.35247 2.85649 0
M  V30 15768 H 1477.47 4.10799 2.6286 0
M  V30 15769 H 1476.47 5.44632 0.752095 0
M  V30 15770 H 1477.7 6.71654 1.00291 0
M  V30 15771 H 1475.64 5.80584 3.05383 0
M  V30 15772 H 1475.56 7.2588 2.11267 0
M  V30 15773 H 1476.83 7.06831 3.28648 0
M  V30 15774 N 1481.06 0.105248 1.57248 0
M  V30 15775 C 1482.28 -0.567515 1.99484 0
M  V30 15776 C 1482.71 -1.60298 0.984182 0
M  V30 15777 O 1482.06 -1.81242 -0.0459944 0
M  V30 15778 C 1482.11 -1.18271 3.40653 0
M  V30 15779 O 1481.22 -2.29843 3.42412 0
M  V30 15780 H 1480.56 -0.143069 0.648404 0
M  V30 15781 H 1483.09 0.189661 2.03719 0
M  V30 15782 H 1483.1 -1.52157 3.78566 0
M  V30 15783 H 1481.77 -0.424179 4.13731 0
M  V30 15784 H 1480.35 -1.975 3.16304 0
M  V30 15785 N 1482.53 -1.56697 -0.168486 0
M  V30 15786 C 1483.76 -1.86652 -0.904195 0
M  V30 15787 C 1484.18 -0.691906 -1.74912 0
M  V30 15788 O 1483.54 0.358971 -1.77711 0
M  V30 15789 C 1483.59 -3.15043 -1.75442 0
M  V30 15790 O 1482.69 -2.97466 -2.85636 0
M  V30 15791 H 1482.04 -0.613859 -0.253128 0
M  V30 15792 H 1484.57 -2.03927 -0.165773 0
M  V30 15793 H 1484.58 -3.4652 -2.15378 0
M  V30 15794 H 1483.25 -4.00147 -1.13381 0
M  V30 15795 H 1481.83 -2.7735 -2.49262 0
M  V30 15796 N 1484.01 0.437135 -1.51416 0
M  V30 15797 C 1485.29 1.1978 -1.54636 0
M  V30 15798 C 1485.67 2.088 -0.310747 0
M  V30 15799 O 1485.02 2.1738 0.704148 0
M  V30 15800 C 1485.23 1.99947 -2.86046 0
M  V30 15801 C 1486.58 2.56981 -3.38003 0
M  V30 15802 O 1487.6 2.10157 -2.87598 0
M  V30 15803 O 1486.46 3.42383 -4.25953 0
M  V30 15804 H 1483.55 0.545346 -0.621713 0
M  V30 15805 H 1486.1 0.446189 -1.63729 0
M  V30 15806 H 1484.87 1.34564 -3.67435 0
M  V30 15807 H 1484.49 2.82172 -2.80115 0
M  V30 15808 N 1485.49 1.41566 0.692592 0
M  V30 15809 C 1486.72 1.44445 1.48132 0
M  V30 15810 C 1487.13 0.0505867 1.88732 0
M  V30 15811 O 1486.49 -0.930779 1.5698 0
M  V30 15812 C 1486.54 2.35582 2.74196 0
M  V30 15813 O 1486.26 3.69545 2.35305 0
M  V30 15814 C 1487.76 2.47296 3.67912 0
M  V30 15815 H 1484.98 0.491877 0.456396 0
M  V30 15816 H 1487.53 1.85884 0.852499 0
M  V30 15817 H 1485.68 1.97445 3.33308 0
M  V30 15818 H 1486.1 4.1818 3.16584 0
M  V30 15819 H 1487.57 3.15225 4.53141 0
M  V30 15820 H 1488.05 1.50517 4.12603 0
M  V30 15821 H 1488.65 2.86082 3.14702 0
M  V30 15822 N 1486.97 -0.927146 1.27443 0
M  V30 15823 C 1487.9 -2.04483 1.12735 0
M  V30 15824 C 1488.88 -1.70076 0.0286662 0
M  V30 15825 O 1490.06 -1.93133 0.203252 0
M  V30 15826 C 1487.19 -3.38557 0.774352 0
M  V30 15827 C 1486.15 -3.87078 1.82632 0
M  V30 15828 C 1485.47 -5.17964 1.32729 0
M  V30 15829 C 1486.77 -4.10409 3.23051 0
M  V30 15830 H 1488.47 -2.17046 2.06231 0
M  V30 15831 H 1486.01 -1.04292 0.992937 0
M  V30 15832 H 1487.97 -4.16227 0.658273 0
M  V30 15833 H 1486.69 -3.26009 -0.196321 0
M  V30 15834 H 1485.35 -3.11602 1.93132 0
M  V30 15835 H 1485 -5.01808 0.346059 0
M  V30 15836 H 1484.7 -5.51398 2.03061 0
M  V30 15837 H 1486.22 -5.98203 1.22416 0
M  V30 15838 H 1487.64 -4.78646 3.15549 0
M  V30 15839 H 1486.03 -4.5515 3.91099 0
M  V30 15840 H 1487.1 -3.15685 3.68064 0
M  V30 15841 N 1488.45 -1.09474 -1.13372 0
M  V30 15842 C 1489.67 -0.852921 -1.88502 0
M  V30 15843 C 1490.09 0.595855 -1.79151 0
M  V30 15844 O 1489.45 1.41019 -1.15845 0
M  V30 15845 C 1489.5 -1.27993 -3.38083 0
M  V30 15846 O 1489.22 -2.67189 -3.47191 0
M  V30 15847 C 1490.72 -1.07056 -4.30179 0
M  V30 15848 H 1487.94 -0.30682 -0.596743 0
M  V30 15849 H 1490.48 -1.45685 -1.43513 0
M  V30 15850 H 1488.64 -0.719879 -3.80653 0
M  V30 15851 H 1489.05 -2.85202 -4.40182 0
M  V30 15852 H 1490.53 -1.4186 -5.3346 0
M  V30 15853 H 1491 -0.00838732 -4.39199 0
M  V30 15854 H 1491.61 -1.61659 -3.93378 0
M  V30 15855 N 1489.92 1.30607 -0.882012 0
M  V30 15856 C 1491.34 1.48859 -0.575599 0
M  V30 15857 C 1491.54 1.80908 0.887388 0
M  V30 15858 O 1490.6 1.89492 1.6688 0
M  V30 15859 C 1491.91 2.61405 -1.48619 0
M  V30 15860 C 1493.46 2.75286 -1.48951 0
M  V30 15861 C 1493.93 3.90942 -2.38596 0
M  V30 15862 N 1495.42 3.98248 -2.36543 0
M  V30 15863 C 1496.16 4.87041 -3.0262 0
M  V30 15864 N 1495.65 5.80651 -3.77911 0
M  V30 15865 N 1497.45 4.80385 -2.91867 0
M  V30 15866 H 1489.6 1.08076 -1.82848 0
M  V30 15867 H 1491.86 0.535148 -0.782509 0
M  V30 15868 H 1491.57 2.44535 -2.52775 0
M  V30 15869 H 1491.44 3.57818 -1.19358 0
M  V30 15870 H 1493.83 2.91564 -0.455477 0
M  V30 15871 H 1493.91 1.79504 -1.82242 0
M  V30 15872 H 1493.55 3.75422 -3.42083 0
M  V30 15873 H 1493.48 4.86057 -2.02623 0
M  V30 15874 H 1495.97 3.31282 -1.81827 0
M  V30 15875 H 1496.29 6.45159 -4.25428 0
M  V30 15876 H 1494.63 5.80592 -3.82019 0
M  V30 15877 H 1497.82 4.06234 -2.32576 0
M  V30 15878 H 1498 5.49377 -3.43641 0
M  V30 15879 N 1491.4 0.642663 1.43901 0
M  V30 15880 C 1492.35 -0.0774542 2.27868 0
M  V30 15881 C 1493.34 -0.805028 1.39313 0
M  V30 15882 O 1494.53 -0.689234 1.63029 0
M  V30 15883 C 1491.66 -1.05046 3.26834 0
M  V30 15884 C 1490.74 -0.321911 4.22877 0
M  V30 15885 N 1491.13 0.655802 5.01531 0
M  V30 15886 C 1489.43 -0.5648 4.42409 0
M  V30 15887 C 1490.13 1.08729 5.71448 0
M  V30 15888 N 1489.11 0.423699 5.41946 0
M  V30 15889 H 1492.91 0.672951 2.86092 0
M  V30 15890 H 1490.43 0.469088 1.55478 0
M  V30 15891 H 1492.42 -1.58106 3.85756 0
M  V30 15892 H 1491.08 -1.80104 2.70171 0
M  V30 15893 H 1492.09 1.0341 5.07471 0
M  V30 15894 H 1488.77 -1.29736 3.96831 0
M  V30 15895 H 1490.16 1.89569 6.44603 0
M  V30 15896 N 1492.88 -1.52852 0.383918 0
M  V30 15897 C 1493.81 -2.23927 -0.488816 0
M  V30 15898 C 1494.83 -1.2598 -1.03115 0
M  V30 15899 O 1496.02 -1.5209 -0.934398 0
M  V30 15900 C 1493.12 -2.9378 -1.68957 0
M  V30 15901 C 1492.29 -4.18388 -1.27555 0
M  V30 15902 C 1491.35 -4.71287 -2.3404 0
M  V30 15903 O 1490.37 -5.34511 -1.9567 0
M  V30 15904 N 1491.58 -4.50679 -3.65881 0
M  V30 15905 H 1494.34 -2.99459 0.120084 0
M  V30 15906 H 1491.9 -1.60532 0.210004 0
M  V30 15907 H 1493.89 -3.26071 -2.39707 0
M  V30 15908 H 1492.46 -2.21588 -2.20493 0
M  V30 15909 H 1491.68 -3.92194 -0.397157 0
M  V30 15910 H 1492.97 -4.99361 -0.975506 0
M  V30 15911 H 1492.37 -4.00201 -3.9982 0
M  V30 15912 H 1490.93 -4.87473 -4.32681 0
M  V30 15913 N 1494.36 -0.113586 -1.5719 0
M  V30 15914 C 1495.77 0.412653 -1.82083 0
M  V30 15915 C 1496.12 1.66964 -1.03041 0
M  V30 15916 O 1495.25 2.14767 -0.265354 0
M  V30 15917 C 1495.84 0.755439 -3.3027 0
M  V30 15918 C 1494.4 1.22634 -3.55862 0
M  V30 15919 C 1493.55 0.232285 -2.76325 0
M  V30 15920 H 1496.5 -0.338792 -1.55042 0
M  V30 15921 H 1496.52 1.61335 -3.44603 0
M  V30 15922 H 1496.03 -0.1596 -3.87772 0
M  V30 15923 H 1494.13 2.15846 -3.03713 0
M  V30 15924 H 1494.25 1.1754 -4.64458 0
M  V30 15925 H 1492.61 0.718222 -2.44364 0
M  V30 15926 H 1493.39 -0.675756 -3.36583 0
M  V30 15927 N 1495.84 1.56784 0.160173 0
M  V30 15928 C 1496.77 2.00298 1.20012 0
M  V30 15929 C 1497.75 0.880356 1.45546 0
M  V30 15930 O 1498.93 1.14724 1.56691 0
M  V30 15931 C 1496.06 2.37238 2.53645 0
M  V30 15932 C 1495.02 3.52563 2.42658 0
M  V30 15933 C 1494.34 3.75278 3.80881 0
M  V30 15934 C 1495.64 4.85657 1.92183 0
M  V30 15935 H 1497.34 2.87423 0.838362 0
M  V30 15936 H 1494.88 1.3828 0.401838 0
M  V30 15937 H 1496.84 2.66278 3.2661 0
M  V30 15938 H 1495.56 1.47035 2.9163 0
M  V30 15939 H 1494.22 3.23669 1.72146 0
M  V30 15940 H 1493.87 2.82347 4.1628 0
M  V30 15941 H 1493.57 4.52882 3.74396 0
M  V30 15942 H 1495.09 4.0673 4.55415 0
M  V30 15943 H 1496.51 5.13501 2.54931 0
M  V30 15944 H 1494.9 5.66975 1.96619 0
M  V30 15945 H 1495.97 4.76908 0.876742 0
M  V30 15946 N 1497.32 -0.429099 1.51646 0
M  V30 15947 C 1498.25 -1.52867 1.76505 0
M  V30 15948 C 1499.23 -1.58586 0.615178 0
M  V30 15949 O 1500.41 -1.74182 0.858742 0
M  V30 15950 C 1497.54 -2.90875 1.8976 0
M  V30 15951 C 1496.5 -3.00014 3.05247 0
M  V30 15952 C 1495.82 -4.40082 3.03696 0
M  V30 15953 C 1497.12 -2.73334 4.45068 0
M  V30 15954 H 1498.82 -1.32315 2.68576 0
M  V30 15955 H 1496.36 -0.635091 1.29238 0
M  V30 15956 H 1498.31 -3.67765 2.05734 0
M  V30 15957 H 1497.04 -3.12677 0.943442 0
M  V30 15958 H 1495.7 -2.25565 2.88991 0
M  V30 15959 H 1495.35 -4.58864 2.06042 0
M  V30 15960 H 1495.05 -4.47125 3.81252 0
M  V30 15961 H 1496.57 -5.18935 3.21774 0
M  V30 15962 H 1497.98 -3.39954 4.61632 0
M  V30 15963 H 1496.38 -2.91777 5.24391 0
M  V30 15964 H 1497.45 -1.68889 4.54538 0
M  V30 15965 N 1498.79 -1.41931 -0.685074 0
M  V30 15966 C 1500.2 -1.37279 -1.26536 0
M  V30 15967 C 1500.56 -0.0610089 -1.96105 0
M  V30 15968 O 1499.68 0.840508 -1.9941 0
M  V30 15969 C 1500.28 -2.48658 -2.30119 0
M  V30 15970 C 1498.83 -2.47371 -2.83698 0
M  V30 15971 C 1497.98 -2.2797 -1.57876 0
M  V30 15972 H 1500.93 -1.51294 -0.479132 0
M  V30 15973 H 1500.95 -2.18319 -3.11636 0
M  V30 15974 H 1500.47 -3.44118 -1.79456 0
M  V30 15975 H 1498.57 -1.55699 -3.3851 0
M  V30 15976 H 1498.68 -3.44052 -3.33414 0
M  V30 15977 H 1497.04 -1.7604 -1.84071 0
M  V30 15978 H 1497.83 -3.25471 -1.09194 0
M  V30 15979 N 1500.27 0.920374 -1.27933 0
M  V30 15980 C 1501.2 2.03882 -1.13817 0
M  V30 15981 C 1502.18 1.70058 -0.0376853 0
M  V30 15982 O 1503.37 1.93023 -0.213492 0
M  V30 15983 C 1500.5 3.38142 -0.792296 0
M  V30 15984 C 1499.45 3.86104 -1.84683 0
M  V30 15985 C 1498.78 5.17253 -1.35474 0
M  V30 15986 C 1500.08 4.0869 -3.25223 0
M  V30 15987 H 1501.77 2.15949 -2.07379 0
M  V30 15988 H 1499.32 1.03764 -0.998454 0
M  V30 15989 H 1501.27 4.15872 -0.680337 0
M  V30 15990 H 1499.99 3.26109 0.179029 0
M  V30 15991 H 1498.65 3.10573 -1.94782 0
M  V30 15992 H 1498.3 5.01618 -0.372666 0
M  V30 15993 H 1498 5.50314 -2.05982 0
M  V30 15994 H 1499.53 5.97545 -1.25587 0
M  V30 15995 H 1500.94 4.76965 -3.18083 0
M  V30 15996 H 1499.34 4.5307 -3.93507 0
M  V30 15997 H 1500.41 3.13729 -3.69733 0
M  V30 15998 N 1501.75 1.10074 1.1279 0
M  V30 15999 C 1502.68 0.704023 2.1812 0
M  V30 16000 C 1503.69 -0.25742 1.60752 0
M  V30 16001 O 1504.88 -0.0424559 1.7845 0
M  V30 16002 C 1501.98 0.0176666 3.38895 0
M  V30 16003 C 1501.16 1.00234 4.2576 0
M  V30 16004 C 1500.22 0.348158 5.25047 0
M  V30 16005 O 1499.24 0.997821 5.60386 0
M  V30 16006 N 1500.44 -0.894955 5.7356 0
M  V30 16007 H 1503.21 1.61024 2.52767 0
M  V30 16008 H 1500.77 0.989068 1.28176 0
M  V30 16009 H 1502.76 -0.431346 4.02395 0
M  V30 16010 H 1501.33 -0.7909 3.02429 0
M  V30 16011 H 1500.55 1.62972 3.58934 0
M  V30 16012 H 1501.84 1.669 4.80647 0
M  V30 16013 H 1501.24 -1.4422 5.47007 0
M  V30 16014 H 1499.79 -1.28718 6.38964 0
M  V30 16015 N 1503.23 -1.30138 0.888926 0
M  V30 16016 C 1504.47 -1.97776 0.516122 0
M  V30 16017 C 1504.83 -1.68613 -0.918358 0
M  V30 16018 O 1506.03 -2.29617 -1.39748 0
M  V30 16019 C 1504.3 -3.48608 0.787866 0
M  V30 16020 S 1505.86 -4.35735 0.517757 0
M  V30 16021 H 1502.68 -0.684617 0.191885 0
M  V30 16022 H 1505.28 -1.58168 1.14904 0
M  V30 16023 H 1503.99 -3.67326 1.8303 0
M  V30 16024 H 1503.52 -3.93141 0.142652 0
M  V30 16025 H 1505.53 -4.9203 -0.64192 0
M  V30 16026 N 1504.71 -0.650285 -1.43559 0
M  V30 16027 C 1505.95 -0.162164 -2.01448 0
M  V30 16028 C 1506.27 1.22717 -1.51544 0
M  V30 16029 O 1505.54 1.81917 -0.726855 0
M  V30 16030 H 1504.12 -0.0569599 -0.744825 0
M  V30 16031 H 1506.79 -0.841294 -1.75807 0
M  V30 16032 H 1505.88 -0.144531 -3.11765 0
M  V30 16033 N 1506.18 1.52647 -0.392018 0
M  V30 16034 C 1507.09 2.30261 0.449093 0
M  V30 16035 C 1508.11 1.37286 1.06905 0
M  V30 16036 O 1509.29 1.70357 1.07427 0
M  V30 16037 C 1506.35 3.09636 1.55969 0
M  V30 16038 C 1505.41 4.18324 0.964566 0
M  V30 16039 C 1504.64 4.93904 2.02224 0
M  V30 16040 O 1504.87 4.69603 3.23773 0
M  V30 16041 O 1503.8 5.79183 1.63802 0
M  V30 16042 H 1507.63 3.03147 -0.183269 0
M  V30 16043 H 1505.21 1.48587 -0.155664 0
M  V30 16044 H 1507.09 3.59118 2.20482 0
M  V30 16045 H 1505.77 2.39561 2.17697 0
M  V30 16046 H 1504.68 3.73031 0.282618 0
M  V30 16047 H 1506.01 4.90641 0.391466 0
M  V30 16048 N 1507.66 0.121921 1.57128 0
M  V30 16049 C 1508.89 -0.543012 1.99647 0
M  V30 16050 C 1509.31 -1.60038 1.00165 0
M  V30 16051 O 1508.66 -1.82499 -0.00504688 0
M  V30 16052 C 1508.71 -1.1665 3.42162 0
M  V30 16053 O 1508.43 -0.151385 4.37838 0
M  V30 16054 C 1509.94 -1.91447 3.99829 0
M  V30 16055 H 1507.16 -0.143524 0.655471 0
M  V30 16056 H 1509.7 0.20912 2.03428 0
M  V30 16057 H 1507.85 -1.86939 3.39312 0
M  V30 16058 H 1508.27 -0.604773 5.21002 0
M  V30 16059 H 1509.74 -2.30394 5.0162 0
M  V30 16060 H 1510.22 -2.7908 3.39133 0
M  V30 16061 H 1510.83 -1.25913 4.06234 0
M  V30 16062 N 1509.14 -1.56867 -0.151857 0
M  V30 16063 C 1510.42 -1.7399 -0.893694 0
M  V30 16064 C 1510.8 -0.688628 -1.99552 0
M  V30 16065 O 1510.15 0.293289 -2.2661 0
M  V30 16066 C 1510.36 -3.1788 -1.44061 0
M  V30 16067 C 1511.7 -3.7942 -1.90592 0
M  V30 16068 O 1512.73 -3.21279 -1.53813 0
M  V30 16069 O 1511.59 -4.81549 -2.58404 0
M  V30 16070 H 1508.68 -0.711229 -0.421998 0
M  V30 16071 H 1511.23 -1.69137 -0.138162 0
M  V30 16072 H 1510 -3.85888 -0.648529 0
M  V30 16073 H 1509.62 -3.27139 -2.25978 0
M  V30 16074 N 1510.62 0.421051 -1.51871 0
M  V30 16075 C 1511.55 1.51928 -1.77313 0
M  V30 16076 C 1512.53 1.58258 -0.623579 0
M  V30 16077 O 1513.71 1.73724 -0.867967 0
M  V30 16078 C 1510.84 2.89865 -1.913 0
M  V30 16079 C 1509.8 2.98391 -3.06834 0
M  V30 16080 C 1509.12 4.38466 -3.06026 0
M  V30 16081 C 1510.42 2.7097 -4.46511 0
M  V30 16082 H 1512.12 1.30889 -2.69274 0
M  V30 16083 H 1509.66 0.628229 -1.29573 0
M  V30 16084 H 1511.62 3.66669 -2.07682 0
M  V30 16085 H 1510.34 3.12172 -0.960011 0
M  V30 16086 H 1509 2.24029 -2.90184 0
M  V30 16087 H 1508.65 4.57764 -2.08472 0
M  V30 16088 H 1508.35 4.45097 -3.83618 0
M  V30 16089 H 1509.87 5.17221 -3.24522 0
M  V30 16090 H 1511.29 3.37501 -4.63428 0
M  V30 16091 H 1509.68 2.88992 -5.25931 0
M  V30 16092 H 1510.75 1.66476 -4.55427 0
M  V30 16093 N 1512.1 1.42293 0.677538 0
M  V30 16094 C 1513.37 1.331 1.43331 0
M  V30 16095 C 1513.75 -0.0329227 2.11074 0
M  V30 16096 O 1513.1 -1.04826 2.03036 0
M  V30 16097 C 1513.31 2.49725 2.438 0
M  V30 16098 C 1514.66 2.91716 3.08524 0
M  V30 16099 O 1515.68 2.49596 2.54127 0
M  V30 16100 O 1514.54 3.64609 4.07091 0
M  V30 16101 H 1511.64 0.524758 0.639185 0
M  V30 16102 H 1514.18 1.54294 0.706493 0
M  V30 16103 H 1512.95 3.40663 1.92522 0
M  V30 16104 H 1512.58 2.30503 3.23966 0
M  V30 16105 N 1513.57 -0.913576 1.28419 0
M  V30 16106 C 1514.5 -2.03275 1.14897 0
M  V30 16107 C 1515.49 -1.70036 0.0467034 0
M  V30 16108 O 1516.67 -1.92907 0.223725 0
M  V30 16109 C 1513.8 -3.37717 0.810217 0
M  V30 16110 C 1512.75 -3.85119 1.86728 0
M  V30 16111 C 1512.08 -5.16527 1.38215 0
M  V30 16112 C 1513.38 -4.06959 3.27386 0
M  V30 16113 H 1515.07 -2.14847 2.08522 0
M  V30 16114 H 1512.62 -1.03233 1.00394 0
M  V30 16115 H 1514.57 -4.15505 0.702382 0
M  V30 16116 H 1513.3 -3.26199 -0.161732 0
M  V30 16117 H 1511.96 -3.09536 1.96426 0
M  V30 16118 H 1511.6 -5.01413 0.399263 0
M  V30 16119 H 1511.3 -5.49213 2.08898 0
M  V30 16120 H 1512.83 -5.96871 1.28754 0
M  V30 16121 H 1514.24 -4.75272 3.20608 0
M  V30 16122 H 1512.64 -4.50977 3.95904 0
M  V30 16123 H 1513.71 -3.11764 3.71391 0
M  V30 16124 N 1515.05 -1.1067 -1.12204 0
M  V30 16125 C 1516.28 -0.872867 -1.87586 0
M  V30 16126 C 1516.7 0.57682 -1.79773 0
M  V30 16127 O 1516.05 1.39782 -1.17334 0
M  V30 16128 C 1516.1 -1.31572 -3.36706 0
M  V30 16129 O 1515.82 -2.70856 -3.44338 0
M  V30 16130 C 1517.33 -1.11613 -4.29019 0
M  V30 16131 H 1514.55 -0.313132 -0.593455 0
M  V30 16132 H 1517.09 -1.47199 -1.4196 0
M  V30 16133 H 1515.24 -0.760212 -3.79868 0
M  V30 16134 H 1515.66 -2.89854 -4.37132 0
M  V30 16135 H 1517.13 -1.4751 -5.31925 0
M  V30 16136 H 1517.61 -0.0549698 -4.39166 0
M  V30 16137 H 1518.22 -1.65822 -3.91642 0
M  V30 16138 N 1516.53 1.29665 -0.895815 0
M  V30 16139 C 1517.78 1.96006 -0.520522 0
M  V30 16140 C 1518.11 1.7048 0.930068 0
M  V30 16141 O 1517.38 1.01558 1.6588 0
M  V30 16142 C 1517.67 3.50897 -0.808925 0
M  V30 16143 C 1517.52 3.85896 -2.31093 0
M  V30 16144 C 1518.84 4.39125 -0.292769 0
M  V30 16145 H 1515.96 0.711931 -0.190588 0
M  V30 16146 H 1518.6 1.53349 -1.12179 0
M  V30 16147 H 1516.75 3.87362 -0.297194 0
M  V30 16148 H 1518.42 3.59397 -2.89191 0
M  V30 16149 H 1516.67 3.33578 -2.77323 0
M  V30 16150 H 1517.34 4.93989 -2.46331 0
M  V30 16151 H 1519.81 4.0963 -0.730906 0
M  V30 16152 H 1518.69 5.46395 -0.523799 0
M  V30 16153 H 1518.95 4.34683 0.806393 0
M  V30 16154 N 1518.01 0.657889 1.43212 0
M  V30 16155 C 1518.94 -0.0695999 2.29094 0
M  V30 16156 C 1519.95 -0.782463 1.42763 0
M  V30 16157 O 1521.14 -0.63944 1.66654 0
M  V30 16158 C 1518.24 -1.12178 3.19796 0
M  V30 16159 C 1517.42 -0.486131 4.3469 0
M  V30 16160 C 1516.47 -1.43582 5.06232 0
M  V30 16161 O 1515.5 -0.942622 5.61341 0
M  V30 16162 N 1516.7 -2.76966 5.10167 0
M  V30 16163 H 1519.47 0.667565 2.92171 0
M  V30 16164 H 1517.03 0.501022 1.53953 0
M  V30 16165 H 1519.02 -1.75801 3.64522 0
M  V30 16166 H 1517.59 -1.76087 2.58287 0
M  V30 16167 H 1516.81 0.329281 3.92822 0
M  V30 16168 H 1518.1 -0.0425918 5.08782 0
M  V30 16169 H 1517.5 -3.19592 4.66774 0
M  V30 16170 H 1516.05 -3.3588 5.58595 0
M  V30 16171 N 1519.49 -1.52437 0.400108 0
M  V30 16172 C 1520.4 -2.30496 -0.436875 0
M  V30 16173 C 1521.41 -1.37851 -1.06175 0
M  V30 16174 O 1522.59 -1.70924 -1.06522 0
M  V30 16175 C 1519.65 -3.10459 -1.54325 0
M  V30 16176 C 1518.71 -4.18829 -0.942367 0
M  V30 16177 C 1517.95 -4.94969 -1.99602 0
M  V30 16178 O 1518.17 -4.71314 -3.21278 0
M  V30 16179 O 1517.1 -5.80043 -1.60728 0
M  V30 16180 H 1520.93 -3.03045 0.199343 0
M  V30 16181 H 1518.52 -1.48502 0.163541 0
M  V30 16182 H 1520.4 -3.60282 -2.18575 0
M  V30 16183 H 1519.07 -2.40713 -2.16423 0
M  V30 16184 H 1517.98 -3.73176 -0.262831 0
M  V30 16185 H 1519.31 -4.90841 -0.365441 0
M  V30 16186 N 1520.96 -0.130252 -1.57061 0
M  V30 16187 C 1522.19 0.532416 -1.99932 0
M  V30 16188 C 1522.61 1.59505 -1.01013 0
M  V30 16189 O 1521.96 1.82499 -0.00463158 0
M  V30 16190 C 1522.02 1.14833 -3.42776 0
M  V30 16191 O 1521.74 0.128163 -4.37912 0
M  V30 16192 C 1523.24 1.89324 -4.00838 0
M  V30 16193 H 1520.46 0.140046 -0.656223 0
M  V30 16194 H 1523 -0.219905 -2.03314 0
M  V30 16195 H 1521.16 1.85137 -3.40298 0
M  V30 16196 H 1521.57 0.577135 -5.21315 0
M  V30 16197 H 1523.04 2.27731 -5.02835 0
M  V30 16198 H 1523.52 2.77277 -3.40608 0
M  V30 16199 H 1524.13 1.23757 -4.06896 0
M  V30 16200 N 1522.44 1.56945 0.143535 0
M  V30 16201 C 1523.69 1.83176 0.853873 0
M  V30 16202 C 1524.01 0.71168 1.81549 0
M  V30 16203 O 1523.28 -0.266391 1.9408 0
M  V30 16204 H 1521.86 0.675785 0.318313 0
M  V30 16205 H 1524.52 1.9442 0.136712 0
M  V30 16206 H 1523.62 2.7823 1.41402 0
M  V30 16207 N 1523.92 -0.412991 1.52093 0
M  V30 16208 C 1524.85 -1.50986 1.78117 0
M  V30 16209 C 1525.83 -1.57925 0.631963 0
M  V30 16210 O 1527.02 -1.73261 0.877168 0
M  V30 16211 C 1524.15 -2.88846 1.92835 0
M  V30 16212 C 1523.1 -2.96759 3.08412 0
M  V30 16213 C 1522.43 -4.36837 3.08347 0
M  V30 16214 C 1523.73 -2.68599 4.47942 0
M  V30 16215 H 1525.42 -1.29459 2.69964 0
M  V30 16216 H 1522.97 -0.621348 1.29905 0
M  V30 16217 H 1524.92 -3.65563 2.09623 0
M  V30 16218 H 1523.64 -3.11658 0.976553 0
M  V30 16219 H 1522.3 -2.22487 2.91368 0
M  V30 16220 H 1521.95 -4.56652 2.10897 0
M  V30 16221 H 1521.65 -4.43056 3.85973 0
M  V30 16222 H 1523.18 -5.15493 3.2726 0
M  V30 16223 H 1524.59 -3.35039 4.65212 0
M  V30 16224 H 1522.99 -2.86199 5.27456 0
M  V30 16225 H 1524.06 -1.64058 4.56304 0
M  V30 16226 N 1525.4 -1.4265 -0.669982 0
M  V30 16227 C 1526.33 -1.42457 -1.79551 0
M  V30 16228 C 1527.34 -0.322966 -1.59564 0
M  V30 16229 O 1528.53 -0.586359 -1.68594 0
M  V30 16230 C 1525.63 -1.20561 -3.16731 0
M  V30 16231 C 1524.81 -2.43246 -3.63525 0
M  V30 16232 C 1523.87 -2.16823 -4.79452 0
M  V30 16233 O 1522.89 -2.90058 -4.8975 0
M  V30 16234 N 1524.09 -1.17436 -5.68497 0
M  V30 16235 H 1526.86 -2.39474 -1.80201 0
M  V30 16236 H 1524.42 -1.37591 -0.853244 0
M  V30 16237 H 1526.41 -1.00794 -3.91947 0
M  V30 16238 H 1524.98 -0.320497 -3.10953 0
M  V30 16239 H 1524.2 -2.78549 -2.78934 0
M  V30 16240 H 1525.49 -3.24931 -3.91532 0
M  V30 16241 H 1524.89 -0.568736 -5.62834 0
M  V30 16242 H 1523.44 -1.03655 -6.43505 0
M  V30 16243 N 1526.88 0.906753 -1.28902 0
M  V30 16244 C 1528.13 1.6533 -1.16234 0
M  V30 16245 C 1528.45 1.92861 0.288004 0
M  V30 16246 O 1527.72 1.54971 1.19837 0
M  V30 16247 H 1526.3 0.612806 -0.427174 0
M  V30 16248 H 1528.96 1.08764 -1.6173 0
M  V30 16249 H 1528.05 2.61271 -1.70715 0
M  V30 16250 N 1528.36 1.11264 1.11616 0
M  V30 16251 C 1529.77 0.876713 1.64835 0
M  V30 16252 C 1530.12 -0.591384 1.87075 0
M  V30 16253 O 1529.24 -1.45304 1.60361 0
M  V30 16254 C 1529.84 1.58496 2.9944 0
M  V30 16255 C 1528.4 1.39551 3.49575 0
M  V30 16256 C 1527.54 1.62881 2.24422 0
M  V30 16257 H 1530.49 1.26915 0.952804 0
M  V30 16258 H 1530.52 1.02891 3.66325 0
M  V30 16259 H 1530.03 2.65344 2.83221 0
M  V30 16260 H 1528.13 0.349059 3.70961 0
M  V30 16261 H 1528.24 2.14334 4.28483 0
M  V30 16262 H 1526.61 1.05208 2.31955 0
M  V30 16263 H 1527.39 2.70999 2.10748 0
M  V30 16264 N 1529.83 -1.29188 0.902679 0
M  V30 16265 C 1531.08 -1.95727 0.530909 0
M  V30 16266 C 1531.41 -1.70971 -0.921014 0
M  V30 16267 O 1530.69 -1.02436 -1.65339 0
M  V30 16268 C 1530.97 -3.50463 0.827523 0
M  V30 16269 C 1530.82 -3.84665 2.33137 0
M  V30 16270 C 1532.14 -4.38964 0.316053 0
M  V30 16271 H 1529.26 -0.71091 0.194361 0
M  V30 16272 H 1531.9 -1.52752 1.1299 0
M  V30 16273 H 1530.05 -3.87199 0.317732 0
M  V30 16274 H 1531.73 -3.57859 2.91093 0
M  V30 16275 H 1529.97 -3.32102 2.79088 0
M  V30 16276 H 1530.64 -4.92676 2.48947 0
M  V30 16277 H 1533.12 -4.09237 0.75262 0
M  V30 16278 H 1531.99 -5.4611 0.552769 0
M  V30 16279 H 1532.25 -4.35105 -0.783329 0
M  V30 16280 N 1531.31 -0.665475 -1.42861 0
M  V30 16281 C 1532.56 -0.183521 -2.01265 0
M  V30 16282 C 1532.88 1.21103 -1.52837 0
M  V30 16283 O 1532.15 1.81135 -0.746109 0
M  V30 16284 H 1530.73 -0.0648565 -0.744179 0
M  V30 16285 H 1533.39 -0.859893 -1.74905 0
M  V30 16286 H 1532.49 -0.177589 -3.11594 0
M  V30 16287 N 1532.79 1.52222 -0.408187 0
M  V30 16288 C 1534.04 2.01404 0.167574 0
M  V30 16289 C 1534.36 1.29572 1.45726 0
M  V30 16290 O 1533.63 0.421363 1.91315 0
M  V30 16291 H 1532.21 0.744174 0.0649156 0
M  V30 16292 H 1534.87 1.87148 -0.544212 0
M  V30 16293 H 1533.97 3.09966 0.36436 0
M  V30 16294 N 1534.27 0.138579 1.5699 0
M  V30 16295 C 1535.54 -0.559239 1.87435 0
M  V30 16296 C 1535.92 -1.83527 1.04312 0
M  V30 16297 O 1535.27 -2.28144 0.127531 0
M  V30 16298 C 1535.48 -0.83282 3.38918 0
M  V30 16299 C 1536.83 -1.1773 4.07952 0
M  V30 16300 O 1537.85 -0.92245 3.44048 0
M  V30 16301 O 1536.71 -1.6565 5.2079 0
M  V30 16302 H 1533.81 -0.284318 0.77659 0
M  V30 16303 H 1536.35 0.174558 1.688 0
M  V30 16304 H 1535.13 0.0706054 3.91236 0
M  V30 16305 H 1534.75 -1.62109 3.63051 0
M  V30 16306 N 1535.75 -1.57019 -0.13521 0
M  V30 16307 C 1536.68 -1.95769 -1.19193 0
M  V30 16308 C 1537.69 -0.854953 -1.38544 0
M  V30 16309 O 1538.88 -1.13332 -1.37906 0
M  V30 16310 C 1535.98 -2.22674 -2.55479 0
M  V30 16311 C 1535.15 -3.53972 -2.56949 0
M  V30 16312 C 1534.21 -3.69278 -3.7486 0
M  V30 16313 O 1533.24 -4.41555 -3.59191 0
M  V30 16314 N 1534.44 -3.06826 -4.92786 0
M  V30 16315 H 1537.2 -2.87022 -0.862451 0
M  V30 16316 H 1534.77 -1.58611 -0.324658 0
M  V30 16317 H 1536.76 -2.30144 -3.3289 0
M  V30 16318 H 1535.33 -1.37628 -2.80673 0
M  V30 16319 H 1534.55 -3.57836 -1.65368 0
M  V30 16320 H 1535.84 -4.40303 -2.54973 0
M  V30 16321 H 1535.23 -2.48043 -5.0842 0
M  V30 16322 H 1533.79 -3.19841 -5.67931 0
M  V30 16323 N 1537.22 0.404919 -1.52309 0
M  V30 16324 C 1538.64 0.743846 -1.41206 0
M  V30 16325 C 1538.84 1.94678 -0.519874 0
M  V30 16326 O 1537.9 2.52497 0.0127417 0
M  V30 16327 C 1539.21 0.99384 -2.83802 0
M  V30 16328 C 1540.76 1.0963 -2.93173 0
M  V30 16329 C 1541.23 1.37902 -4.36746 0
M  V30 16330 N 1542.72 1.44758 -4.39999 0
M  V30 16331 C 1543.46 1.68269 -5.48154 0
M  V30 16332 N 1542.95 1.89356 -6.6642 0
M  V30 16333 N 1544.75 1.70318 -5.35675 0
M  V30 16334 H 1536.9 -0.386855 -2.08847 0
M  V30 16335 H 1539.16 -0.110811 -0.941501 0
M  V30 16336 H 1538.87 0.182249 -3.51227 0
M  V30 16337 H 1538.74 1.91287 -3.25099 0
M  V30 16338 H 1541.13 1.89847 -2.25925 0
M  V30 16339 H 1541.21 0.155539 -2.55327 0
M  V30 16340 H 1540.85 0.582004 -5.04554 0
M  V30 16341 H 1540.78 2.33237 -4.72132 0
M  V30 16342 H 1543.27 1.30235 -3.5475 0
M  V30 16343 H 1543.59 2.06758 -7.44628 0
M  V30 16344 H 1541.93 1.86612 -6.69478 0
M  V30 16345 H 1545.12 1.53385 -4.42256 0
M  V30 16346 H 1545.3 1.88302 -6.20037 0
M  V30 16347 N 1538.7 1.43003 0.662408 0
M  V30 16348 C 1540.11 1.39275 1.24336 0
M  V30 16349 C 1540.46 0.0921999 1.95983 0
M  V30 16350 O 1539.59 -0.808677 2.00722 0
M  V30 16351 C 1540.18 2.52287 2.26134 0
M  V30 16352 C 1538.74 2.51853 2.79727 0
M  V30 16353 C 1537.89 2.30453 1.5423 0
M  V30 16354 H 1540.84 1.52038 0.455002 0
M  V30 16355 H 1540.86 2.23249 3.08123 0
M  V30 16356 H 1540.37 3.46929 1.73959 0
M  V30 16357 H 1538.48 1.61064 3.3599 0
M  V30 16358 H 1538.59 3.49313 3.27898 0
M  V30 16359 H 1536.95 1.78946 1.81247 0
M  V30 16360 H 1537.74 3.27167 1.04003 0
M  V30 16361 N 1540.18 -0.899904 1.29381 0
M  V30 16362 C 1541.09 -2.03699 1.16378 0
M  V30 16363 C 1542.11 -1.73782 0.0870792 0
M  V30 16364 O 1543.28 -1.99167 0.299109 0
M  V30 16365 C 1540.35 -3.36341 0.841166 0
M  V30 16366 C 1539.41 -3.79778 2.00168 0
M  V30 16367 C 1538.64 -5.0609 1.69437 0
M  V30 16368 O 1538.86 -5.67073 0.615212 0
M  V30 16369 O 1537.8 -5.45574 2.54229 0
M  V30 16370 H 1541.62 -2.17592 2.11866 0
M  V30 16371 H 1539.21 -1.02353 1.08831 0
M  V30 16372 H 1541.09 -4.15946 0.675803 0
M  V30 16373 H 1539.77 -3.23591 -0.0839376 0
M  V30 16374 H 1538.67 -3.00941 2.22229 0
M  V30 16375 H 1540.01 -3.97111 2.90798 0
M  V30 16376 N 1541.66 -1.11854 -1.11024 0
M  V30 16377 C 1542.9 -0.871362 -1.83126 0
M  V30 16378 C 1543.24 0.601437 -1.84652 0
M  V30 16379 O 1542.51 1.44427 -1.30273 0
M  V30 16380 C 1542.8 -1.4391 -3.30094 0
M  V30 16381 C 1542.65 -2.97983 -3.36937 0
M  V30 16382 C 1543.97 -1.09361 -4.26296 0
M  V30 16383 H 1541.09 -0.317994 -0.664867 0
M  V30 16384 H 1543.73 -1.38414 -1.3016 0
M  V30 16385 H 1541.88 -1.00297 -3.7533 0
M  V30 16386 H 1543.55 -3.50231 -3.00227 0
M  V30 16387 H 1541.79 -3.33827 -2.77023 0
M  V30 16388 H 1542.46 -3.32797 -4.40398 0
M  V30 16389 H 1544.94 -1.47018 -3.89262 0
M  V30 16390 H 1543.82 -1.51756 -5.27505 0
M  V30 16391 H 1544.08 -0.0049637 -4.421 0
M  V30 16392 N 1543.14 1.28707 -0.909517 0
M  V30 16393 C 1544.05 2.31171 -0.399628 0
M  V30 16394 C 1545.06 1.6634 0.510582 0
M  V30 16395 O 1546.24 1.97432 0.397792 0
M  V30 16396 C 1543.3 3.44869 0.355852 0
M  V30 16397 C 1542.36 4.25267 -0.587065 0
M  V30 16398 C 1541.6 5.33536 0.132456 0
M  V30 16399 O 1541.82 5.54075 1.35486 0
M  V30 16400 O 1540.75 5.99561 -0.530062 0
M  V30 16401 H 1544.58 2.76785 -1.24995 0
M  V30 16402 H 1542.17 1.33323 -0.674186 0
M  V30 16403 H 1544.05 4.14068 0.782692 0
M  V30 16404 H 1542.72 3.01345 1.18207 0
M  V30 16405 H 1541.63 3.58673 -1.06322 0
M  V30 16406 H 1542.96 4.72459 -1.37998 0
M  V30 16407 N 1544.61 0.673042 1.42506 0
M  V30 16408 C 1545.89 0.123606 1.95209 0
M  V30 16409 C 1546.27 -1.36118 1.61354 0
M  V30 16410 O 1545.62 -2.0965 0.908793 0
M  V30 16411 C 1545.83 0.39088 3.46804 0
M  V30 16412 C 1547.18 0.306445 4.23493 0
M  V30 16413 O 1548.2 0.32453 3.54719 0
M  V30 16414 O 1547.06 0.247127 5.45941 0
M  V30 16415 H 1544.15 0.00184868 0.826998 0
M  V30 16416 H 1546.7 0.74765 1.52343 0
M  V30 16417 H 1545.47 1.41951 3.64645 0
M  V30 16418 H 1545.1 -0.265259 3.96714 0
M  V30 16419 N 1546.09 -1.52004 0.416254 0
M  V30 16420 C 1547.5 -1.86628 -0.0517247 0
M  V30 16421 C 1547.85 -1.33463 -1.43813 0
M  V30 16422 O 1546.98 -0.676793 -2.05544 0
M  V30 16423 C 1547.57 -3.38651 -0.100637 0
M  V30 16424 C 1546.13 -3.72888 -0.512969 0
M  V30 16425 C 1545.28 -2.75584 0.307975 0
M  V30 16426 H 1548.23 -1.45529 0.633018 0
M  V30 16427 H 1548.25 -3.69348 -0.914465 0
M  V30 16428 H 1547.76 -3.77316 0.908538 0
M  V30 16429 H 1545.87 -3.39804 -1.52852 0
M  V30 16430 H 1545.98 -4.78435 -0.252408 0
M  V30 16431 H 1544.34 -2.53653 -0.230717 0
M  V30 16432 H 1545.13 -3.1709 1.31563 0
M  V30 16433 N 1547.57 -0.146903 -1.56914 0
M  V30 16434 C 1548.48 0.805875 -2.20324 0
M  V30 16435 C 1549.5 1.27178 -1.18751 0
M  V30 16436 O 1550.67 1.32899 -1.51327 0
M  V30 16437 C 1547.74 2.02755 -2.81232 0
M  V30 16438 C 1546.8 1.61089 -3.97931 0
M  V30 16439 C 1546.03 2.77433 -4.55924 0
M  V30 16440 O 1546.25 3.93643 -4.12797 0
M  V30 16441 O 1545.19 2.52911 -5.46187 0
M  V30 16442 H 1549.01 0.296098 -3.02253 0
M  V30 16443 H 1546.6 0.0801175 -1.49185 0
M  V30 16444 H 1548.48 2.74252 -3.19944 0
M  V30 16445 H 1547.16 2.52686 -2.02316 0
M  V30 16446 H 1546.06 0.86616 -3.63935 0
M  V30 16447 H 1547.4 1.15874 -4.78366 0
M  V30 16448 N 1549.05 1.57088 0.126881 0
M  V30 16449 C 1549.96 2.03053 1.17502 0
M  V30 16450 C 1550.97 0.949484 1.45811 0
M  V30 16451 O 1552.15 1.26043 1.57083 0
M  V30 16452 C 1549.22 2.41897 2.48368 0
M  V30 16453 C 1548.28 3.64047 2.27527 0
M  V30 16454 C 1547.51 4.01029 3.52153 0
M  V30 16455 O 1547.73 3.38441 4.59145 0
M  V30 16456 O 1546.67 4.94174 3.43622 0
M  V30 16457 H 1550.49 2.92568 0.814733 0
M  V30 16458 H 1548.08 1.45547 0.3371 0
M  V30 16459 H 1549.96 2.67652 3.25485 0
M  V30 16460 H 1548.63 1.55531 2.83887 0
M  V30 16461 H 1547.54 3.43452 1.48294 0
M  V30 16462 H 1548.87 4.51093 1.96916 0
M  V30 16463 N 1550.53 -0.396836 1.52522 0
M  V30 16464 C 1551.46 -1.49088 1.79708 0
M  V30 16465 C 1552.44 -1.57246 0.648678 0
M  V30 16466 O 1553.62 -1.72321 0.895495 0
M  V30 16467 C 1550.75 -2.86785 1.95887 0
M  V30 16468 C 1549.71 -2.93472 3.11542 0
M  V30 16469 C 1549.03 -4.33542 3.12963 0
M  V30 16470 C 1550.33 -2.63832 4.50766 0
M  V30 16471 H 1552.03 -1.26588 2.71322 0
M  V30 16472 H 1549.57 -0.607535 1.30557 0
M  V30 16473 H 1551.53 -3.63319 2.13489 0
M  V30 16474 H 1550.25 -3.10605 1.00955 0
M  V30 16475 H 1548.91 -2.19384 2.93711 0
M  V30 16476 H 1548.56 -4.5439 2.15729 0
M  V30 16477 H 1548.26 -4.38938 3.9065 0
M  V30 16478 H 1549.78 -5.11993 3.32709 0
M  V30 16479 H 1551.19 -3.30086 4.68739 0
M  V30 16480 H 1549.59 -2.80589 5.30462 0
M  V30 16481 H 1550.66 -1.59209 4.58018 0
M  V30 16482 N 1552.01 -1.43353 -0.654814 0
M  V30 16483 C 1553.23 -1.48536 -1.44748 0
M  V30 16484 C 1553.66 -0.103991 -1.87812 0
M  V30 16485 O 1553.01 0.901924 -1.57274 0
M  V30 16486 C 1553.06 -2.43498 -2.65972 0
M  V30 16487 O 1552.17 -1.92014 -3.64972 0
M  V30 16488 H 1551.51 -0.502476 -0.434067 0
M  V30 16489 H 1554.04 -1.88251 -0.801427 0
M  V30 16490 H 1554.05 -2.60748 -3.13806 0
M  V30 16491 H 1552.72 -3.43847 -2.3397 0
M  V30 16492 H 1551.3 -1.84417 -3.24106 0
M  V30 16493 N 1553.48 0.89303 -1.29857 0
M  V30 16494 C 1554.89 1.45948 -1.16431 0
M  V30 16495 C 1555.25 1.94751 0.238051 0
M  V30 16496 O 1554.37 1.84302 1.1341 0
M  V30 16497 C 1554.97 2.6527 -2.10754 0
M  V30 16498 C 1553.52 3.1803 -2.0133 0
M  V30 16499 C 1552.67 1.90721 -2.01297 0
M  V30 16500 H 1555.62 0.70373 -1.42244 0
M  V30 16501 H 1555.64 3.41223 -1.68366 0
M  V30 16502 H 1555.16 2.2972 -3.1281 0
M  V30 16503 H 1553.26 3.58257 -1.02386 0
M  V30 16504 H 1553.37 3.81876 -2.89323 0
M  V30 16505 H 1551.73 2.0871 -1.45987 0
M  V30 16506 H 1552.52 1.5744 -3.0507 0
M  V30 16507 N 1554.96 1.12442 1.10429 0
M  V30 16508 C 1555.92 0.795443 2.14954 0
M  V30 16509 C 1556.92 -0.19022 1.59671 0
M  V30 16510 O 1558.11 0.0355797 1.74164 0
M  V30 16511 C 1555.25 0.182043 3.40414 0
M  V30 16512 H 1556.44 1.72153 2.45567 0
M  V30 16513 H 1553.99 0.927672 1.25793 0
M  V30 16514 H 1554.73 -0.753766 3.15419 0
M  V30 16515 H 1554.51 0.891708 3.81826 0
M  V30 16516 H 1556 -0.0316286 4.17588 0
M  V30 16517 N 1556.44 -1.28223 0.91633 0
M  V30 16518 C 1557.37 -2.29623 0.423735 0
M  V30 16519 C 1558.35 -1.62274 -0.510016 0
M  V30 16520 O 1559.54 -1.89666 -0.4172 0
M  V30 16521 C 1556.67 -3.45684 -0.334686 0
M  V30 16522 C 1555.62 -4.24949 0.510169 0
M  V30 16523 C 1554.95 -5.33371 -0.376745 0
M  V30 16524 C 1556.25 -4.91438 1.76877 0
M  V30 16525 H 1557.94 -2.71076 1.27115 0
M  V30 16526 H 1555.49 -1.30316 0.612678 0
M  V30 16527 H 1557.44 -4.1571 -0.690154 0
M  V30 16528 H 1556.16 -3.03118 -1.21603 0
M  V30 16529 H 1554.82 -3.56653 0.848191 0
M  V30 16530 H 1554.47 -4.87048 -1.25671 0
M  V30 16531 H 1554.17 -5.87309 0.18496 0
M  V30 16532 H 1555.69 -6.06244 -0.728039 0
M  V30 16533 H 1557.11 -5.53812 1.48205 0
M  V30 16534 H 1555.5 -5.55384 2.27308 0
M  V30 16535 H 1556.57 -4.15783 2.49505 0
M  V30 16536 N 1557.92 -0.68059 -1.42147 0
M  V30 16537 C 1559.16 -0.205567 -2.01755 0
M  V30 16538 C 1559.5 1.18677 -1.53718 0
M  V30 16539 O 1558.77 1.79796 -0.741867 0
M  V30 16540 C 1559.05 -0.246615 -3.59255 0
M  V30 16541 C 1558.91 -1.67483 -4.17456 0
M  V30 16542 C 1560.23 0.40196 -4.38261 0
M  V30 16543 H 1557.35 -0.0761717 -0.733053 0
M  V30 16544 H 1559.99 -0.866473 -1.69092 0
M  V30 16545 H 1558.14 0.316127 -3.87212 0
M  V30 16546 H 1559.81 -2.29026 -4.00431 0
M  V30 16547 H 1558.05 -2.2137 -3.73065 0
M  V30 16548 H 1558.72 -1.65519 -5.266 0
M  V30 16549 H 1561.2 -0.077135 -4.16028 0
M  V30 16550 H 1560.08 0.342627 -5.4783 0
M  V30 16551 H 1560.34 1.48044 -4.16576 0
M  V30 16552 N 1559.4 1.51781 -0.424309 0
M  V30 16553 C 1560.64 2.02269 0.146709 0
M  V30 16554 C 1560.97 1.30859 1.4349 0
M  V30 16555 O 1560.25 0.419504 1.89922 0
M  V30 16556 C 1560.53 3.58101 0.378861 0
M  V30 16557 C 1560.39 4.40143 -0.92707 0
M  V30 16558 C 1561.7 4.2469 1.15438 0
M  V30 16559 H 1558.82 0.735174 0.0518456 0
M  V30 16560 H 1561.47 1.81537 -0.560753 0
M  V30 16561 H 1559.62 3.75897 0.981496 0
M  V30 16562 H 1561.29 4.34025 -1.56268 0
M  V30 16563 H 1559.53 4.05748 -1.53464 0
M  V30 16564 H 1560.2 5.47299 -0.718837 0
M  V30 16565 H 1562.68 4.11086 0.644041 0
M  V30 16566 H 1561.55 5.33633 1.28557 0
M  V30 16567 H 1561.81 3.84668 2.17905 0
M  V30 16568 N 1560.87 0.155222 1.56834 0
M  V30 16569 C 1562.1 -0.503763 2.01189 0
M  V30 16570 C 1562.52 -1.57086 1.03468 0
M  V30 16571 O 1561.88 -1.81296 0.0116895 0
M  V30 16572 C 1561.93 -1.07373 3.44243 0
M  V30 16573 O 1561.03 -2.18834 3.49551 0
M  V30 16574 H 1560.37 -0.122368 0.652627 0
M  V30 16575 H 1562.9 0.254377 2.03013 0
M  V30 16576 H 1562.91 -1.40036 3.83215 0
M  V30 16577 H 1561.59 -0.292339 4.14871 0
M  V30 16578 H 1560.17 -1.87337 3.22427 0
M  V30 16579 N 1562.35 -1.57153 -0.118549 0
M  V30 16580 C 1563.58 -1.89434 -0.844355 0
M  V30 16581 C 1564 -0.747203 -1.72622 0
M  V30 16582 O 1563.36 0.302252 -1.78763 0
M  V30 16583 C 1563.41 -3.20466 -1.65331 0
M  V30 16584 O 1562.51 -3.06403 -2.76027 0
M  V30 16585 H 1561.85 -0.621601 -0.23347 0
M  V30 16586 H 1564.38 -2.04351 -0.100811 0
M  V30 16587 H 1564.39 -3.53197 -2.04245 0
M  V30 16588 H 1563.07 -4.03551 -1.00594 0
M  V30 16589 H 1561.64 -2.85139 -2.40312 0
M  V30 16590 N 1563.83 0.388742 -1.5273 0
M  V30 16591 C 1565.05 1.15946 -1.71963 0
M  V30 16592 C 1565.48 1.82949 -0.437173 0
M  V30 16593 O 1564.84 1.70834 0.607072 0
M  V30 16594 C 1564.89 2.18298 -2.87016 0
M  V30 16595 O 1563.99 3.24891 -2.54008 0
M  V30 16596 H 1563.33 0.337526 -0.571815 0
M  V30 16597 H 1565.86 0.452957 -1.99523 0
M  V30 16598 H 1565.87 2.6229 -3.12519 0
M  V30 16599 H 1564.55 1.68917 -3.80052 0
M  V30 16600 H 1563.12 2.86034 -2.39246 0
M  V30 16601 N 1565.31 1.43698 0.647203 0
M  V30 16602 C 1566.24 1.45295 1.77262 0
M  V30 16603 C 1567.25 0.34831 1.5903 0
M  V30 16604 O 1568.44 0.613106 1.6764 0
M  V30 16605 C 1565.54 1.25584 3.14773 0
M  V30 16606 C 1564.71 2.48998 3.59609 0
M  V30 16607 C 1563.77 2.24423 4.75942 0
M  V30 16608 O 1562.8 2.97813 4.85073 0
M  V30 16609 N 1564 1.26465 5.66557 0
M  V30 16610 H 1566.77 2.42311 1.76368 0
M  V30 16611 H 1564.33 1.38931 0.831247 0
M  V30 16612 H 1566.32 1.07016 3.90294 0
M  V30 16613 H 1564.89 0.369927 3.10403 0
M  V30 16614 H 1564.11 2.82951 2.74467 0
M  V30 16615 H 1565.4 3.31119 3.86313 0
M  V30 16616 H 1564.8 0.658206 5.61858 0
M  V30 16617 H 1563.35 1.13879 6.41775 0
M  V30 16618 N 1566.79 -0.886131 1.30328 0
M  V30 16619 C 1568.01 -1.67625 1.22134 0
M  V30 16620 C 1568.44 -1.86893 -0.212712 0
M  V30 16621 O 1567.79 -1.39905 -1.1531 0
M  V30 16622 C 1567.84 -3.03068 1.95402 0
M  V30 16623 O 1566.95 -3.92022 1.28032 0
M  V30 16624 H 1566.29 -0.512246 0.422493 0
M  V30 16625 H 1568.82 -1.10602 1.72129 0
M  V30 16626 H 1568.83 -3.53119 2.04379 0
M  V30 16627 H 1567.5 -2.88363 2.99699 0
M  V30 16628 H 1566.08 -3.50461 1.27402 0
M  V30 16629 N 1568.26 -1.13026 -1.09832 0
M  V30 16630 C 1569.51 -0.889419 -1.81922 0
M  V30 16631 C 1569.84 0.584572 -1.85507 0
M  V30 16632 O 1569.09 1.44844 -1.316 0
M  V30 16633 C 1569.39 -1.41718 -3.28102 0
M  V30 16634 C 1569.06 -2.90729 -3.44655 0
M  V30 16635 C 1567.72 -3.31415 -3.48881 0
M  V30 16636 C 1570.07 -3.86619 -3.49536 0
M  V30 16637 C 1567.4 -4.66683 -3.55561 0
M  V30 16638 C 1569.75 -5.21726 -3.5775 0
M  V30 16639 C 1568.42 -5.61945 -3.60242 0
M  V30 16640 H 1567.69 -0.325461 -0.6657 0
M  V30 16641 H 1570.33 -1.4115 -1.29418 0
M  V30 16642 H 1568.64 -0.815709 -3.83215 0
M  V30 16643 H 1570.34 -1.20696 -3.82405 0
M  V30 16644 H 1566.93 -2.58266 -3.42048 0
M  V30 16645 H 1571.11 -3.56276 -3.45516 0
M  V30 16646 H 1566.37 -4.97226 -3.55776 0
M  V30 16647 H 1570.54 -5.95847 -3.60471 0
M  V30 16648 H 1568.17 -6.66749 -3.65171 0
M  V30 16649 N 1569.74 1.27735 -0.923117 0
M  V30 16650 C 1570.99 1.94858 -0.56198 0
M  V30 16651 C 1571.32 1.72414 0.893698 0
M  V30 16652 O 1570.6 1.05054 1.63689 0
M  V30 16653 C 1570.88 3.49102 -0.883173 0
M  V30 16654 C 1570.73 3.80908 -2.39227 0
M  V30 16655 C 1572.05 4.38405 -0.385848 0
M  V30 16656 H 1569.17 0.707728 -0.205646 0
M  V30 16657 H 1571.81 1.50935 -1.15406 0
M  V30 16658 H 1569.96 3.86644 -0.379292 0
M  V30 16659 H 1571.63 3.53182 -2.96749 0
M  V30 16660 H 1569.88 3.2762 -2.84337 0
M  V30 16661 H 1570.55 4.88653 -2.56754 0
M  V30 16662 H 1573.02 4.07988 -0.817631 0
M  V30 16663 H 1571.9 5.45161 -0.63958 0
M  V30 16664 H 1572.16 4.36296 0.714009 0
M  V30 16665 N 1571.22 0.688118 1.41784 0
M  V30 16666 C 1572.47 0.213085 2.00571 0
M  V30 16667 C 1572.78 -1.19176 1.55101 0
M  V30 16668 O 1573.99 -1.76387 2.06397 0
M  V30 16669 C 1572.44 0.330075 3.58383 0
M  V30 16670 C 1572.05 1.73981 4.12837 0
M  V30 16671 C 1573.8 -0.0855651 4.24414 0
M  V30 16672 C 1571.7 1.80886 5.63058 0
M  V30 16673 H 1570.63 0.075906 0.750169 0
M  V30 16674 H 1573.28 0.855236 1.62351 0
M  V30 16675 H 1571.67 -0.380199 3.94171 0
M  V30 16676 H 1572.84 2.47825 3.88484 0
M  V30 16677 H 1571.16 2.10447 3.59306 0
M  V30 16678 H 1573.75 -0.0543142 5.34672 0
M  V30 16679 H 1574.1 -1.12307 4.00865 0
M  V30 16680 H 1574.63 0.574169 3.93635 0
M  V30 16681 H 1571.37 2.82663 5.91424 0
M  V30 16682 H 1570.89 1.11417 5.89361 0
M  V30 16683 H 1572.57 1.56835 6.27704 0
M  V30 16684 N 1572.7 -1.51554 0.432352 0
M  V30 16685 C 1573.92 -2.06947 -0.136995 0
M  V30 16686 C 1574.35 -1.29817 -1.36122 0
M  V30 16687 O 1573.71 -0.334733 -1.78183 0
M  V30 16688 C 1573.75 -3.57871 -0.442785 0
M  V30 16689 O 1572.86 -3.82966 -1.53007 0
M  V30 16690 H 1572.2 -0.663988 -0.00405152 0
M  V30 16691 H 1574.73 -1.95225 0.612249 0
M  V30 16692 H 1574.74 -4.02042 -0.694694 0
M  V30 16693 H 1573.41 -4.13436 0.452013 0
M  V30 16694 H 1571.99 -3.50661 -1.26851 0
M  V30 16695 N 1574.18 -0.163538 -1.56749 0
M  V30 16696 C 1575.42 0.482449 -1.96257 0
M  V30 16697 C 1575.75 1.64302 -1.05023 0
M  V30 16698 O 1575.02 1.95562 -0.115027 0
M  V30 16699 H 1573.6 0.181222 -0.724684 0
M  V30 16700 H 1576.26 -0.242903 -1.9338 0
M  V30 16701 H 1575.35 0.847634 -3.00369 0
M  V30 16702 N 1575.65 1.57214 0.110213 0
M  V30 16703 C 1576.9 1.84946 0.814827 0
M  V30 16704 C 1577.22 0.750029 1.79999 0
M  V30 16705 O 1576.49 -0.225164 1.94602 0
M  V30 16706 H 1575.07 0.682385 0.303907 0
M  V30 16707 H 1577.74 1.94666 0.0954415 0
M  V30 16708 H 1576.83 2.81167 1.35469 0
M  V30 16709 N 1577.13 -0.380637 1.52934 0
M  V30 16710 C 1578.38 -1.12261 1.68053 0
M  V30 16711 C 1578.7 -1.90263 0.427191 0
M  V30 16712 O 1577.97 -1.87768 -0.558559 0
M  V30 16713 H 1576.55 -0.41742 0.619491 0
M  V30 16714 H 1579.21 -0.430906 1.90077 0
M  V30 16715 H 1578.31 -1.82085 2.53479 0
M  V30 16716 N 1578.61 -1.44039 -0.639573 0
M  V30 16717 C 1579.84 -1.50063 -1.43164 0
M  V30 16718 C 1580.26 -0.123906 -1.87691 0
M  V30 16719 O 1579.62 0.885192 -1.58221 0
M  V30 16720 C 1579.67 -2.46305 -2.63375 0
M  V30 16721 O 1578.77 -1.95874 -3.62915 0
M  V30 16722 H 1578.11 -0.507052 -0.428713 0
M  V30 16723 H 1580.64 -1.8909 -0.781415 0
M  V30 16724 H 1580.65 -2.64062 -3.11023 0
M  V30 16725 H 1579.33 -3.46309 -2.3031 0
M  V30 16726 H 1577.9 -1.87844 -3.22132 0
M  V30 16727 N 1580.09 0.879207 -1.30796 0
M  V30 16728 C 1581.32 1.66449 -1.22891 0
M  V30 16729 C 1581.73 1.87658 0.207306 0
M  V30 16730 O 1581.09 1.42818 1.13619 0
M  V30 16731 C 1581.14 3.03765 -1.95982 0
M  V30 16732 O 1580.86 2.8351 -3.33997 0
M  V30 16733 C 1582.36 3.98204 -1.94804 0
M  V30 16734 H 1579.58 0.51922 -0.425031 0
M  V30 16735 H 1582.13 1.09807 -1.72519 0
M  V30 16736 H 1580.28 3.57124 -1.50138 0
M  V30 16737 H 1580.69 3.70663 -3.71092 0
M  V30 16738 H 1582.17 4.91901 -2.50474 0
M  V30 16739 H 1582.65 4.29277 -0.928336 0
M  V30 16740 H 1583.25 3.50781 -2.40485 0
M  V30 16741 N 1581.57 1.13606 1.09231 0
M  V30 16742 C 1582.81 0.900386 1.81717 0
M  V30 16743 C 1583.15 -0.571984 1.85586 0
M  V30 16744 O 1582.42 -1.42336 1.32554 0
M  V30 16745 C 1582.7 1.49143 3.27763 0
M  V30 16746 C 1582.56 3.03306 3.32153 0
M  V30 16747 C 1583.88 1.16129 4.24502 0
M  V30 16748 H 1581 0.328531 0.659724 0
M  V30 16749 H 1583.64 1.40467 1.27941 0
M  V30 16750 H 1581.79 1.06256 3.73687 0
M  V30 16751 H 1583.46 3.54963 2.94617 0
M  V30 16752 H 1581.7 3.38192 2.71677 0
M  V30 16753 H 1582.37 3.39761 4.35047 0
M  V30 16754 H 1584.85 1.53193 3.86874 0
M  V30 16755 H 1583.73 1.60129 5.25024 0
M  V30 16756 H 1583.99 0.0752973 4.42036 0
M  V30 16757 N 1583.05 -1.27244 0.929878 0
M  V30 16758 C 1584.27 -1.98373 0.587845 0
M  V30 16759 C 1584.69 -1.69349 -0.834638 0
M  V30 16760 O 1584.05 -0.955281 -1.55501 0
M  V30 16761 C 1584.1 -3.52381 0.806843 0
M  V30 16762 O 1583.82 -3.8039 2.17337 0
M  V30 16763 C 1585.32 -4.40761 0.473818 0
M  V30 16764 H 1582.54 -0.633015 0.22256 0
M  V30 16765 H 1585.08 -1.62043 1.2475 0
M  V30 16766 H 1583.24 -3.86914 0.193963 0
M  V30 16767 H 1583.65 -4.74968 2.22498 0
M  V30 16768 H 1585.13 -5.47824 0.677736 0
M  V30 16769 H 1585.6 -4.35209 -0.590734 0
M  V30 16770 H 1586.21 -4.11751 1.06493 0
M  V30 16771 N 1584.52 -0.695628 -1.41417 0
M  V30 16772 C 1585.43 -0.0308378 -2.3458 0
M  V30 16773 C 1586.45 0.766 -1.56232 0
M  V30 16774 O 1587.63 0.703548 -1.88712 0
M  V30 16775 C 1584.69 0.894162 -3.34971 0
M  V30 16776 C 1583.75 0.0895231 -4.29207 0
M  V30 16777 C 1582.98 0.970467 -5.24802 0
M  V30 16778 O 1583.21 2.20997 -5.25848 0
M  V30 16779 O 1582.14 0.420114 -6.00432 0
M  V30 16780 H 1585.97 -0.798775 -2.93007 0
M  V30 16781 H 1583.55 -0.455964 -1.42272 0
M  V30 16782 H 1585.43 1.42458 -3.9659 0
M  V30 16783 H 1584.11 1.64159 -2.78987 0
M  V30 16784 H 1583.02 -0.4855 -3.70936 0
M  V30 16785 H 1584.35 -0.619241 -4.88289 0
M  V30 16786 N 1586 1.51322 -0.440383 0
M  V30 16787 C 1586.95 2.2941 0.383883 0
M  V30 16788 C 1587.94 1.35388 1.01816 0
M  V30 16789 O 1589.15 1.52716 0.952775 0
M  V30 16790 H 1585.52 0.738354 0.142611 0
M  V30 16791 H 1587.5 2.96933 -0.295532 0
M  V30 16792 C 1586.24 3.15055 1.47091 0
M  V30 16793 H 1585.57 3.87292 0.992214 0
M  V30 16794 H 1587.01 3.72744 2.02084 0
M  V30 16795 C 1585.47 2.30628 2.45586 0
M  V30 16796 O 1586 1.96801 3.50189 0
M  V30 16797 N 1584.2 1.93792 2.16548 0
M  V30 16798 H 1583.75 2.215 1.31512 0
M  V30 16799 H 1583.71 1.37601 2.82689 0
M  V30 16800 N 1587.48 0.171848 1.5666 0
M  V30 16801 C 1588.73 -0.473669 1.97191 0
M  V30 16802 C 1589.06 -1.6286 1.05784 0
M  V30 16803 O 1588.33 -1.94216 0.105084 0
M  V30 16804 C 1588.62 -0.956134 3.47174 0
M  V30 16805 C 1588.47 0.199007 4.4936 0
M  V30 16806 C 1589.79 -1.82962 4.00266 0
M  V30 16807 H 1586.91 -0.170704 0.716958 0
M  V30 16808 H 1589.55 0.25809 1.88239 0
M  V30 16809 H 1587.7 -1.57969 3.54934 0
M  V30 16810 H 1589.37 0.836109 4.53659 0
M  V30 16811 H 1587.61 0.85442 4.25302 0
M  V30 16812 H 1588.29 -0.180704 5.51704 0
M  V30 16813 H 1590.76 -1.30394 3.95141 0
M  V30 16814 H 1589.64 -2.13621 5.05625 0
M  V30 16815 H 1589.9 -2.77557 3.44114 0
M  V30 16816 N 1588.96 -1.5727 -0.101874 0
M  V30 16817 C 1590.2 -1.86017 -0.807795 0
M  V30 16818 C 1590.54 -0.760024 -1.7871 0
M  V30 16819 O 1589.81 0.232627 -1.93104 0
M  V30 16820 C 1590.09 -3.25388 -1.54255 0
M  V30 16821 C 1589.95 -4.46023 -0.581693 0
M  V30 16822 C 1591.27 -3.62561 -2.49474 0
M  V30 16823 H 1588.39 -0.676596 -0.29221 0
M  V30 16824 H 1591.03 -1.89865 -0.0715861 0
M  V30 16825 H 1589.18 -3.22239 -2.17013 0
M  V30 16826 H 1590.85 -4.61284 0.0383529 0
M  V30 16827 H 1589.09 -4.33672 0.105465 0
M  V30 16828 H 1589.76 -5.40251 -1.1328 0
M  V30 16829 H 1592.24 -3.66611 -1.96813 0
M  V30 16830 H 1591.12 -4.61025 -2.97905 0
M  V30 16831 H 1591.38 -2.90885 -3.32924 0
M  V30 16832 N 1590.44 0.372521 -1.53134 0
M  V30 16833 C 1591.38 1.47633 -1.79742 0
M  V30 16834 C 1592.38 1.55752 -0.66617 0
M  V30 16835 O 1593.58 1.58721 -0.848979 0
M  V30 16836 H 1589.96 0.491677 -0.568997 0
M  V30 16837 H 1591.93 1.22392 -2.72145 0
M  V30 16838 C 1590.68 2.84559 -1.99803 0
M  V30 16839 H 1590 2.79069 -2.86288 0
M  V30 16840 H 1591.44 3.60989 -2.22402 0
M  V30 16841 C 1589.9 3.27861 -0.775162 0
M  V30 16842 O 1590.43 4.01681 0.0394991 0
M  V30 16843 N 1588.64 2.84326 -0.600573 0
M  V30 16844 H 1588.18 2.2442 -1.26466 0
M  V30 16845 H 1588.14 3.13655 0.216241 0
M  V30 16846 N 1591.91 1.44376 0.631925 0
M  V30 16847 C 1593.14 1.5082 1.42366 0
M  V30 16848 C 1593.56 0.133858 1.87623 0
M  V30 16849 O 1592.92 -0.876789 1.58689 0
M  V30 16850 C 1592.97 2.47698 2.62065 0
M  V30 16851 O 1592.07 1.97796 3.61871 0
M  V30 16852 H 1591.41 0.509318 0.426018 0
M  V30 16853 H 1593.94 1.89502 0.771376 0
M  V30 16854 H 1593.95 2.65708 3.09618 0
M  V30 16855 H 1592.63 3.47526 2.2847 0
M  V30 16856 H 1591.21 1.89549 3.21131 0
M  V30 16857 O 1593.43 -0.775373 1.41669 0
M  V30 16858 H 1594.12 -1.42253 1.31468 0
M  V30 END ATOM
M  V30 BEGIN BOND
M  V30 END BOND
M  V30 END CTAB
M  END
$$$$
