drugbank_target|P47929 Galectin-7 (DB02379; DB02678)
 OpenBabel12092119453D

  0  0  0     0  0            999 V3000
M  V30 BEGIN CTAB
M  V30 COUNTS 2116 2142 0 0 0
M  V30 BEGIN ATOM
M  V30 1 H -0.908 1.98254 -0.117106 0
M  V30 2 N 0 1.576 0 0
M  V30 3 C 0.933 2.03868 1.02534 0
M  V30 4 C 1.911 0.928543 1.3348 0
M  V30 5 O 3.095 1.19667 1.45644 0
M  V30 6 C 0.222 2.43627 2.35294 0
M  V30 7 C -0.732 3.65373 2.2001 0
M  V30 8 S 0.101 5.13292 1.52614 0
M  V30 9 C 1.257 5.56322 2.86805 0
M  V30 10 H 1.49 2.90518 0.631377 0
M  V30 11 H -0.977 1.52953 0.210867 0
M  V30 12 H 0.981 2.67203 3.11629 0
M  V30 13 H -0.358 1.57376 2.7183 0
M  V30 14 H -1.165 3.90944 3.18086 0
M  V30 15 H -1.563 3.418 1.51819 0
M  V30 16 H 0.729 5.58782 3.83104 0
M  V30 17 H 1.672 6.56266 2.65933 0
M  V30 18 H 2.08 4.83886 2.90714 0
M  V30 19 N 1.4781 -0.272755 1.55222 0
M  V30 20 C 2.7031 -1.02683 1.80197 0
M  V30 21 C 3.1281 -1.79142 0.573551 0
M  V30 22 O 2.4861 -1.74917 -0.476849 0
M  V30 23 C 2.5341 -1.9609 3.02624 0
M  V30 24 O 1.6381 -3.04863 2.77727 0
M  V30 25 H 0.9791 -0.293557 0.595584 0
M  V30 26 H 3.5091 -0.30159 2.02365 0
M  V30 27 H 3.5191 -2.38039 3.31363 0
M  V30 28 H 2.1941 -1.39851 3.91682 0
M  V30 29 H 0.7711 -2.67228 2.60084 0
M  V30 30 N 2.9562 -1.48159 -0.537278 0
M  V30 31 C 3.9042 -1.62573 -1.66352 0
M  V30 32 C 4.8982 -0.492366 -1.62087 0
M  V30 33 O 6.1042 -0.670847 -1.67032 0
M  V30 34 H 2.4792 -0.511992 -0.550789 0
M  V30 35 H 4.4502 -2.57176 -1.51337 0
M  V30 36 C 3.1992 -1.67583 -3.04649 0
M  V30 37 H 2.5222 -2.54151 -3.08622 0
M  V30 38 H 3.9622 -1.81713 -3.83088 0
M  V30 39 C 2.4212 -0.413039 -3.34358 0
M  V30 40 O 2.9512 0.477259 -3.98855 0
M  V30 41 N 1.1572 -0.286961 -2.8918 0
M  V30 42 H 0.7042 -1.01241 -2.36871 0
M  V30 43 H 0.6622 0.556963 -3.09427 0
M  V30 44 N 4.4343 0.785586 -1.36625 0
M  V30 45 C 5.6803 1.54591 -1.31261 0
M  V30 46 C 6.0133 1.93906 0.106823 0
M  V30 47 O 5.2883 1.63007 1.06108 0
M  V30 48 C 5.5713 2.82038 -2.23889 0
M  V30 49 C 5.4243 2.49066 -3.74548 0
M  V30 50 C 6.7433 3.83887 -2.15217 0
M  V30 51 H 3.8623 0.560846 -0.478143 0
M  V30 52 H 6.5043 0.902278 -1.67209 0
M  V30 53 H 4.6543 3.36961 -1.93363 0
M  V30 54 H 6.3263 2.00164 -4.15611 0
M  V30 55 H 4.5693 1.81954 -3.93796 0
M  V30 56 H 5.2403 3.40109 -4.34776 0
M  V30 57 H 7.7163 3.38421 -2.42096 0
M  V30 58 H 6.5923 4.70806 -2.82193 0
M  V30 59 H 6.8533 4.27131 -1.14068 0
M  V30 60 N 5.9124 1.20967 1.01018 0
M  V30 61 C 7.3234 1.02319 1.56165 0
M  V30 62 C 7.6744 -0.418546 1.91684 0
M  V30 63 O 6.7994 -1.30096 1.72928 0
M  V30 64 C 7.3944 1.85109 2.8376 0
M  V30 65 C 5.9534 1.70809 3.35412 0
M  V30 66 C 5.1004 1.82643 2.08655 0
M  V30 67 H 8.0514 1.35065 0.833255 0
M  V30 68 H 8.0724 1.35827 3.55431 0
M  V30 69 H 7.5844 2.90035 2.57878 0
M  V30 70 H 5.6854 0.685464 3.66241 0
M  V30 71 H 5.7984 2.52467 4.07182 0
M  V30 72 H 4.1624 1.25896 2.21409 0
M  V30 73 H 4.9454 2.89066 1.85191 0
M  V30 74 N 7.3905 -1.2043 1.01659 0
M  V30 75 C 8.3405 -2.21076 0.557623 0
M  V30 76 C 9.3245 -1.56176 -0.387029 0
M  V30 77 O 10.5165 -1.7575 -0.209996 0
M  V30 78 C 7.6455 -3.43146 -0.102707 0
M  V30 79 C 6.7315 -4.15213 0.863652 0
M  V30 80 N 7.1225 -4.63662 2.02117 0
M  V30 81 C 5.4205 -4.40716 0.684472 0
M  V30 82 C 6.1215 -5.18868 2.62966 0
M  V30 83 N 5.0975 -5.0893 1.91027 0
M  V30 84 H 8.8995 -2.56201 1.44008 0
M  V30 85 H 6.4135 -1.36366 0.881931 0
M  V30 86 H 8.4105 -4.14475 -0.449054 0
M  V30 87 H 7.0705 -3.09526 -0.981003 0
M  V30 88 H 8.0815 -4.58877 2.40109 0
M  V30 89 H 4.7585 -4.17245 -0.14577 0
M  V30 90 H 6.1485 -5.6673 3.60924 0
M  V30 91 N 8.8686 -0.792821 -1.36206 0
M  V30 92 C 9.8156 -0.191653 -2.30003 0
M  V30 93 C 10.7856 0.666453 -1.52143 0
M  V30 94 O 11.9706 0.61442 -1.80636 0
M  V30 95 C 9.1106 0.664848 -3.38635 0
M  V30 96 C 8.2236 -0.212175 -4.31479 0
M  V30 97 C 7.3586 0.651022 -5.27196 0
M  V30 98 C 6.3976 -0.227247 -6.11678 0
M  V30 99 N 5.5346 0.595127 -6.99573 0
M  V30 100 H 10.3746 -0.996978 -2.80828 0
M  V30 101 H 7.9116 -0.503206 -1.38225 0
M  V30 102 H 9.8696 1.17645 -4.00269 0
M  V30 103 H 8.4996 1.43557 -2.89122 0
M  V30 104 H 7.5516 -0.841777 -3.70969 0
M  V30 105 H 8.8636 -0.888751 -4.90818 0
M  V30 106 H 8.0176 1.2283 -5.94136 0
M  V30 107 H 6.7566 1.36121 -4.68319 0
M  V30 108 H 5.7616 -0.816904 -5.43697 0
M  V30 109 H 6.9866 -0.93509 -6.72631 0
M  V30 110 H 4.9326 1.28955 -6.432 0
M  V30 111 H 4.8496 -0.0236952 -7.55996 0
M  V30 112 H 6.1176 1.15613 -7.70879 0
M  V30 113 N 10.3467 1.47872 -0.545128 0
M  V30 114 C 11.5717 2.07391 -0.0190611 0
M  V30 115 C 11.9967 1.39688 1.25971 0
M  V30 116 O 11.3547 0.467816 1.7516 0
M  V30 117 C 11.4027 3.60188 0.172335 0
M  V30 118 O 10.5067 3.9339 1.23766 0
M  V30 119 H 9.8477 0.662411 -0.0459059 0
M  V30 120 H 12.3777 1.90066 -0.757365 0
M  V30 121 H 12.3877 4.06129 0.390305 0
M  V30 122 H 11.0627 4.08865 -0.761725 0
M  V30 123 H 9.6397 3.5921 1.00114 0
M  V30 124 N 11.8248 0.280983 1.55075 0
M  V30 125 C 13.0498 -0.340154 2.04592 0
M  V30 126 C 13.4748 -1.48246 1.15779 0
M  V30 127 O 12.8328 -1.80614 0.15761 0
M  V30 128 C 12.8808 -0.793104 3.5177 0
M  V30 129 O 11.9848 -1.89981 3.66034 0
M  V30 130 H 11.3258 -0.0694289 0.66036 0
M  V30 131 H 13.8558 0.416993 2.00306 0
M  V30 132 H 13.8658 -1.08729 3.93245 0
M  V30 133 H 12.5408 0.0426163 4.15878 0
M  V30 134 H 11.1178 -1.60771 3.36463 0
M  V30 135 N 13.3029 -1.57598 0.00835791 0
M  V30 136 C 14.2329 -2.1198 -0.979113 0
M  V30 137 C 15.2139 -1.03091 -1.35301 0
M  V30 138 O 16.3989 -1.30818 -1.43528 0
M  V30 139 C 13.5289 -2.62995 -2.26828 0
M  V30 140 C 12.4829 -3.76485 -2.03576 0
M  V30 141 C 11.8089 -4.13846 -3.38579 0
M  V30 142 C 13.1089 -5.0342 -1.39161 0
M  V30 143 H 14.8029 -2.94738 -0.526281 0
M  V30 144 H 12.3489 -1.41783 -0.251704 0
M  V30 145 H 14.3019 -2.99669 -2.96271 0
M  V30 146 H 13.0259 -1.7737 -2.7424 0
M  V30 147 H 11.6849 -3.40217 -1.36557 0
M  V30 148 H 11.3329 -3.25232 -3.83709 0
M  V30 149 H 11.0329 -4.90312 -3.23834 0
M  V30 150 H 12.5569 -4.53086 -4.09323 0
M  V30 151 H 13.9709 -5.37812 -1.98573 0
M  V30 152 H 12.3679 -5.84746 -1.34878 0
M  V30 153 H 13.4379 -4.83548 -0.361868 0
M  V30 154 N 14.781 0.264519 -1.55364 0
M  V30 155 C 16.192 0.834936 -1.6699 0
M  V30 156 C 16.543 1.86718 -0.602552 0
M  V30 157 O 15.668 2.14899 0.254425 0
M  V30 158 C 16.263 1.5212 -3.02729 0
M  V30 159 C 14.822 2.03954 -3.16354 0
M  V30 160 C 13.969 0.884498 -2.62815 0
M  V30 161 H 16.92 0.0406869 -1.58648 0
M  V30 162 H 16.941 2.38853 -2.96191 0
M  V30 163 H 16.453 0.769668 -3.80392 0
M  V30 164 H 14.554 2.82041 -2.43482 0
M  V30 165 H 14.667 2.24902 -4.23032 0
M  V30 166 H 13.031 1.2802 -2.20188 0
M  V30 167 H 13.814 0.14634 -3.42988 0
M  V30 168 N 16.2591 1.48442 0.529413 0
M  V30 169 C 17.1691 1.6569 1.66084 0
M  V30 170 C 18.1851 0.539432 1.65427 0
M  V30 171 O 19.3611 0.810572 1.84368 0
M  V30 172 C 16.4261 1.69315 3.02545 0
M  V30 173 C 15.4871 2.92694 3.14052 0
M  V30 174 C 14.7201 2.96137 4.44003 0
M  V30 175 O 14.9431 2.07973 5.31134 0
M  V30 176 O 13.8771 3.88312 4.59888 0
M  V30 177 H 17.7031 2.61483 1.54469 0
M  V30 178 H 15.2881 1.3185 0.702567 0
M  V30 179 H 17.1701 1.74217 3.83701 0
M  V30 180 H 15.8451 0.766966 3.14483 0
M  V30 181 H 14.7521 2.93324 2.32189 0
M  V30 182 H 16.0851 3.84699 3.0703 0
M  V30 183 N 17.7372 -0.778329 1.37039 0
M  V30 184 C 18.9852 -1.53361 1.31623 0
M  V30 185 C 19.3062 -1.94739 -0.100831 0
M  V30 186 O 18.5762 -1.65797 -1.04347 0
M  V30 187 H 17.1562 -0.568794 0.484234 0
M  V30 188 H 19.8182 -0.926742 1.71457 0
M  V30 189 H 18.9142 -2.43606 1.95096 0
M  V30 190 N 19.2153 -1.21501 -1.00376 0
M  V30 191 C 20.4643 -1.02718 -1.73586 0
M  V30 192 C 20.7773 0.439589 -1.90596 0
M  V30 193 O 21.9833 0.746848 -2.61026 0
M  V30 194 C 20.4393 -1.78929 -3.1227 0
M  V30 195 C 20.0473 -3.29783 -3.03228 0
M  V30 196 C 21.7913 -1.68557 -3.89601 0
M  V30 197 C 19.6983 -3.98479 -4.36999 0
M  V30 198 H 18.6283 -0.380733 -0.650814 0
M  V30 199 H 21.2793 -1.45248 -1.1214 0
M  V30 200 H 19.6613 -1.29192 -3.74333 0
M  V30 201 H 20.8353 -3.86832 -2.50395 0
M  V30 202 H 19.1503 -3.40711 -2.39385 0
M  V30 203 H 21.7473 -2.17211 -4.88593 0
M  V30 204 H 22.0903 -0.644021 -4.11288 0
M  V30 205 H 22.6233 -2.15778 -3.34193 0
M  V30 206 H 19.3623 -5.02841 -4.20513 0
M  V30 207 H 18.8823 -3.46219 -4.89788 0
M  V30 208 H 20.5613 -4.03462 -5.05794 0
M  V30 209 N 20.6934 1.19889 -1.02296 0
M  V30 210 C 22.1094 1.41462 -0.738954 0
M  V30 211 C 22.3094 1.89721 0.678846 0
M  V30 212 O 21.3654 2.07016 1.4457 0
M  V30 213 C 22.6784 2.43083 -1.77005 0
M  V30 214 C 24.2264 2.5684 -1.78892 0
M  V30 215 C 24.7014 3.61709 -2.80945 0
M  V30 216 N 26.1924 3.69199 -2.79725 0
M  V30 217 C 26.9274 4.50019 -3.55345 0
M  V30 218 N 26.4234 5.34592 -4.40662 0
M  V30 219 N 28.2164 4.44612 -3.43914 0
M  V30 220 H 20.3674 0.868827 -1.93817 0
M  V30 221 H 22.6304 0.44399 -0.837602 0
M  V30 222 H 22.3364 2.14636 -2.78612 0
M  V30 223 H 22.2104 3.4217 -1.58744 0
M  V30 224 H 24.5974 2.84614 -0.779674 0
M  V30 225 H 24.6784 1.57927 -2.01228 0
M  V30 226 H 24.3224 3.34678 -3.82038 0
M  V30 227 H 24.2524 4.60259 -2.5587 0
M  V30 228 H 26.7434 3.08794 -2.17842 0
M  V30 229 H 27.0564 5.93363 -4.95116 0
M  V30 230 H 25.4014 5.34073 -4.44737 0
M  V30 231 H 28.5924 3.7758 -2.76679 0
M  V30 232 H 28.7654 5.0736 -4.031 0
M  V30 233 N 22.1715 0.800033 1.35784 0
M  V30 234 C 23.5825 0.439142 1.81462 0
M  V30 235 C 23.9335 -1.03813 1.66485 0
M  V30 236 O 23.0585 -1.80626 1.19177 0
M  V30 237 C 23.6535 0.790314 3.29453 0
M  V30 238 C 22.2125 0.482111 3.733 0
M  V30 239 C 21.3595 1.01938 2.57883 0
M  V30 240 H 24.3105 0.992254 1.23855 0
M  V30 241 H 24.3315 0.0853677 3.80404 0
M  V30 242 H 23.8435 1.86554 3.40322 0
M  V30 243 H 21.9445 -0.584652 3.67984 0
M  V30 244 H 22.0575 1.01015 4.6833 0
M  V30 245 H 20.4215 0.442043 2.50835 0
M  V30 246 H 21.2045 2.10059 2.71533 0
M  V30 247 N 23.6496 -1.47581 0.552962 0
M  V30 248 C 24.8976 -2.02082 0.0272703 0
M  V30 249 C 25.2186 -1.4301 -1.32563 0
M  V30 250 O 24.4886 -0.603745 -1.86365 0
M  V30 251 H 23.0686 -0.746966 0.00709182 0
M  V30 252 H 25.7306 -1.81033 0.722008 0
M  V30 253 H 24.8266 -3.12034 -0.0639951 0
M  V30 254 N 25.1277 -0.289203 -1.54924 0
M  V30 255 C 26.3557 0.326463 -2.04308 0
M  V30 256 C 26.7707 1.48413 -1.16701 0
M  V30 257 O 26.1277 1.81507 -0.190087 0
M  V30 258 C 26.1787 0.794014 -3.52672 0
M  V30 259 O 25.8997 -0.317564 -4.36948 0
M  V30 260 C 27.4007 1.47605 -4.18004 0
M  V30 261 H 24.6207 0.0726272 -0.667058 0
M  V30 262 H 27.1647 -0.425401 -2.00026 0
M  V30 263 H 25.3197 1.49593 -3.57352 0
M  V30 264 H 25.7337 0.0443186 -5.24481 0
M  V30 265 H 27.2077 1.75447 -5.23376 0
M  V30 266 H 27.6847 2.41224 -3.67025 0
M  V30 267 H 28.2907 0.81762 -4.17367 0
M  V30 268 N 26.6058 1.57591 -0.0167156 0
M  V30 269 C 27.8518 1.91567 0.665582 0
M  V30 270 C 28.1848 0.892298 1.72487 0
M  V30 271 O 27.4598 -0.0867127 1.94307 0
M  V30 272 C 27.7428 3.36069 1.29342 0
M  V30 273 C 27.5958 4.49135 0.244541 0
M  V30 274 C 28.9148 3.803 2.21495 0
M  V30 275 H 26.0338 0.69666 0.240488 0
M  V30 276 H 28.6758 1.89866 -0.0714356 0
M  V30 277 H 26.8258 3.3765 1.92158 0
M  V30 278 H 28.4978 4.59689 -0.385228 0
M  V30 279 H 26.7408 4.3165 -0.431379 0
M  V30 280 H 27.4118 5.47242 0.723207 0
M  V30 281 H 29.8878 3.80377 1.68678 0
M  V30 282 H 28.7638 4.82127 2.62382 0
M  V30 283 H 29.0248 3.15104 3.101 0
M  V30 284 N 28.0839 -0.256276 1.55502 0
M  V30 285 C 29.0139 -1.32102 1.92539 0
M  V30 286 C 29.9949 -1.50684 0.789194 0
M  V30 287 O 31.1799 -1.63449 1.04872 0
M  V30 288 C 28.3099 -2.67752 2.21192 0
M  V30 289 C 27.2639 -2.63878 3.36975 0
M  V30 290 C 26.5899 -4.03236 3.51147 0
M  V30 291 C 27.8899 -2.21682 4.72921 0
M  V30 292 H 29.5839 -1.01351 2.81724 0
M  V30 293 H 27.1299 -0.486105 1.35547 0
M  V30 294 H 29.0829 -3.42365 2.45691 0
M  V30 295 H 27.8069 -3.0012 1.28824 0
M  V30 296 H 26.4659 -1.91722 3.12471 0
M  V30 297 H 26.1139 -4.32854 2.56216 0
M  V30 298 H 25.8139 -4.01535 4.29003 0
M  V30 299 H 27.3379 -4.79563 3.77957 0
M  V30 300 H 28.7519 -2.86023 4.96854 0
M  V30 301 H 27.1489 -2.3111 5.53812 0
M  V30 302 H 28.2189 -1.16833 4.70615 0
M  V30 303 N 29.562 -1.4872 -0.521534 0
M  V30 304 C 30.978 -1.35028 -0.850855 0
M  V30 305 C 31.178 -0.367712 -1.98116 0
M  V30 306 O 30.234 0.208037 -2.51642 0
M  V30 307 C 31.547 -2.75263 -1.21041 0
M  V30 308 C 33.095 -2.83813 -1.31981 0
M  V30 309 C 33.57 -4.24769 -1.71276 0
M  V30 310 N 35.061 -4.27482 -1.78363 0
M  V30 311 C 35.796 -5.33494 -2.1017 0
M  V30 312 N 35.292 -6.49775 -2.40343 0
M  V30 313 N 37.085 -5.20894 -2.11248 0
M  V30 314 H 29.236 -2.11214 0.22413 0
M  V30 315 H 31.499 -0.947252 0.0376439 0
M  V30 316 H 31.205 -3.48765 -0.453415 0
M  V30 317 H 31.079 -3.09327 -2.15863 0
M  V30 318 H 33.466 -2.10561 -2.06756 0
M  V30 319 H 33.547 -2.53358 -0.352596 0
M  V30 320 H 33.191 -4.9854 -0.970588 0
M  V30 321 H 33.121 -4.52673 -2.69062 0
M  V30 322 H 35.612 -3.43611 -1.57288 0
M  V30 323 H 35.925 -7.26402 -2.63743 0
M  V30 324 H 34.27 -6.53035 -2.37844 0
M  V30 325 H 37.461 -4.29065 -1.87139 0
M  V30 326 H 37.634 -6.03612 -2.35704 0
M  V30 327 N 31.0401 0.771051 -1.3745 0
M  V30 328 C 32.2891 1.52491 -1.3202 0
M  V30 329 C 32.6021 1.9538 0.0927347 0
M  V30 330 O 33.8081 2.70159 0.269503 0
M  V30 331 C 32.2641 2.75366 -2.31736 0
M  V30 332 C 31.8721 2.39573 -3.78562 0
M  V30 333 C 33.6161 3.53307 -2.35318 0
M  V30 334 C 31.5231 3.58954 -4.70007 0
M  V30 335 H 30.4531 0.572506 -0.490666 0
M  V30 336 H 33.1041 0.844474 -1.62914 0
M  V30 337 H 31.4861 3.45303 -1.93861 0
M  V30 338 H 32.6601 1.77415 -4.25277 0
M  V30 339 H 30.9751 1.74805 -3.77932 0
M  V30 340 H 33.5721 4.42039 -3.00842 0
M  V30 341 H 33.9151 3.93217 -1.36698 0
M  V30 342 H 34.4481 2.90367 -2.71904 0
M  V30 343 H 31.1871 3.24125 -5.69757 0
M  V30 344 H 30.7071 4.20214 -4.27996 0
M  V30 345 H 32.3861 4.25758 -4.87175 0
M  V30 346 N 32.5182 1.22032 0.997298 0
M  V30 347 C 33.9342 0.979326 1.26021 0
M  V30 348 C 34.1342 -0.32972 1.98784 0
M  V30 349 O 33.1902 -1.05345 2.29475 0
M  V30 350 C 34.5032 2.17509 2.07631 0
M  V30 351 C 36.0512 2.21817 2.2083 0
M  V30 352 C 36.5262 3.40933 3.05825 0
M  V30 353 N 38.0172 3.41067 3.13412 0
M  V30 354 C 38.7522 4.29885 3.79455 0
M  V30 355 N 38.2482 5.28914 4.47462 0
M  V30 356 N 40.0412 4.17673 3.76173 0
M  V30 357 H 32.1922 2.06202 0.509352 0
M  V30 358 H 34.4552 0.90334 0.287541 0
M  V30 359 H 34.1612 3.12415 1.61524 0
M  V30 360 H 34.0352 2.17206 3.08385 0
M  V30 361 H 36.4222 1.27462 2.66153 0
M  V30 362 H 36.5032 2.2616 1.1952 0
M  V30 363 H 36.1472 4.35586 2.61203 0
M  V30 364 H 36.0772 3.33829 4.07266 0
M  V30 365 H 38.5682 2.69406 2.65007 0
M  V30 366 H 38.8812 5.92973 4.95583 0
M  V30 367 H 37.2262 5.32831 4.46224 0
M  V30 368 H 40.4172 3.39564 3.22202 0
M  V30 369 H 40.5902 4.87098 4.27363 0
M  V30 370 N 33.9963 -1.19345 1.0293 0
M  V30 371 C 35.2443 -1.88665 0.724574 0
M  V30 372 C 35.5653 -1.80036 -0.749144 0
M  V30 373 O 34.8353 -1.2111 -1.53978 0
M  V30 374 H 33.4153 -0.698406 0.265025 0
M  V30 375 H 36.0773 -1.44885 1.30362 0
M  V30 376 H 35.1733 -2.94987 1.01926 0
M  V30 377 N 35.4744 -0.807222 -1.35358 0
M  V30 378 C 36.4044 -0.232509 -2.3234 0
M  V30 379 C 37.3854 0.642386 -1.57504 0
M  V30 380 O 38.5704 0.572526 -1.85569 0
M  V30 381 C 35.7004 0.619238 -3.41735 0
M  V30 382 C 34.6544 -0.157215 -4.27711 0
M  V30 383 C 33.9804 0.816273 -5.28433 0
M  V30 384 C 35.2804 -1.35656 -5.04376 0
M  V30 385 H 36.9744 -1.04276 -2.80654 0
M  V30 386 H 34.5204 -0.50288 -1.34934 0
M  V30 387 H 36.4734 1.03137 -4.08584 0
M  V30 388 H 35.1974 1.46239 -2.92031 0
M  V30 389 H 33.8564 -0.550525 -3.62443 0
M  V30 390 H 33.5044 1.65494 -4.74996 0
M  V30 391 H 33.2044 0.301067 -5.86828 0
M  V30 392 H 34.7284 1.22659 -5.98153 0
M  V30 393 H 36.1424 -1.01927 -5.64166 0
M  V30 394 H 34.5394 -1.8063 -5.7227 0
M  V30 395 H 35.6094 -2.14288 -4.34981 0
M  V30 396 N 36.9525 1.47285 -0.560781 0
M  V30 397 C 38.1985 2.02764 -0.0381184 0
M  V30 398 C 38.5315 1.43384 1.30976 0
M  V30 399 O 37.8065 0.590733 1.85312 0
M  V30 400 C 38.0895 3.60064 0.0511427 0
M  V30 401 C 37.9425 4.2987 -1.32408 0
M  V30 402 C 39.2615 4.33439 0.762795 0
M  V30 403 H 36.3805 0.736841 -0.0153264 0
M  V30 404 H 39.0225 1.75675 -0.723759 0
M  V30 405 H 37.1725 3.83274 0.635065 0
M  V30 406 H 38.8445 4.17989 -1.95148 0
M  V30 407 H 37.0875 3.90085 -1.8978 0
M  V30 408 H 37.7585 5.38478 -1.21431 0
M  V30 409 H 40.2345 4.15243 0.266965 0
M  V30 410 H 39.1105 5.43124 0.794221 0
M  V30 411 H 39.3715 4.02915 1.81966 0
M  V30 412 N 38.4306 0.297415 1.54768 0
M  V30 413 C 39.8416 -0.195947 1.85669 0
M  V30 414 C 40.1926 -1.53707 1.21937 0
M  V30 415 O 39.3176 -2.10164 0.515754 0
M  V30 416 C 39.9126 -0.362318 3.36857 0
M  V30 417 C 38.4716 -0.799901 3.67802 0
M  V30 418 C 37.6186 0.0938578 2.77141 0
M  V30 419 H 40.5696 0.518538 1.4999 0
M  V30 420 H 40.5906 -1.19745 3.61167 0
M  V30 421 H 40.1026 0.613921 3.83214 0
M  V30 422 H 38.2036 -1.78682 3.26961 0
M  V30 423 H 38.3166 -0.621773 4.75048 0
M  V30 424 H 36.6806 -0.426254 2.51108 0
M  V30 425 H 37.4636 1.06639 3.26318 0
M  V30 426 N 39.9087 -1.5758 0.0250728 0
M  V30 427 C 41.3197 -1.79476 -0.514323 0
M  V30 428 C 41.6707 -0.934956 -1.72491 0
M  V30 429 O 40.7957 -0.144245 -2.15919 0
M  V30 430 C 41.3907 -3.25503 -0.939842 0
M  V30 431 C 39.9497 -3.48408 -1.42438 0
M  V30 432 C 39.0967 -2.74583 -0.387201 0
M  V30 433 H 42.0477 -1.567 0.25113 0
M  V30 434 H 42.0687 -3.34992 -1.80445 0
M  V30 435 H 41.5807 -3.88056 -0.0585628 0
M  V30 436 H 39.6817 -2.91103 -2.32572 0
M  V30 437 H 39.7947 -4.57119 -1.43455 0
M  V30 438 H 38.1587 -2.39942 -0.854409 0
M  V30 439 H 38.9417 -3.39849 0.485543 0
M  V30 440 N 41.3868 0.248026 -1.55636 0
M  V30 441 C 42.3348 1.32683 -1.91045 0
M  V30 442 C 43.3288 1.49883 -0.789401 0
M  V30 443 O 44.5348 1.51371 -0.974007 0
M  V30 444 H 40.9098 0.444272 -0.606734 0
M  V30 445 H 42.8808 1.00085 -2.81115 0
M  V30 446 C 41.6298 2.6755 -2.22064 0
M  V30 447 H 40.9528 2.55114 -3.07826 0
M  V30 448 H 42.3928 3.41912 -2.50743 0
M  V30 449 C 40.8518 3.20556 -1.0366 0
M  V30 450 O 41.3818 4.00695 -0.284016 0
M  V30 451 N 39.5878 2.78568 -0.82753 0
M  V30 452 H 39.1348 2.1351 -1.44123 0
M  V30 453 H 39.0928 3.14378 -0.0369803 0
M  V30 454 N 42.8649 1.48995 0.513639 0
M  V30 455 C 43.8279 1.64229 1.59879 0
M  V30 456 C 44.8279 0.514696 1.5234 0
M  V30 457 O 46.0179 0.78087 1.55718 0
M  V30 458 C 43.1499 1.62783 2.99524 0
M  V30 459 H 44.3429 2.61004 1.47705 0
M  V30 460 H 41.8959 1.37837 0.736936 0
M  V30 461 H 42.6309 0.675461 3.17188 0
M  V30 462 H 42.4159 2.4466 3.06404 0
M  V30 463 H 43.9059 1.76669 3.78388 0
M  V30 464 N 44.343 -0.763751 1.37857 0
M  V30 465 C 45.568 -1.55805 1.36893 0
M  V30 466 C 45.993 -1.88054 -0.0416135 0
M  V30 467 O 45.351 -1.49825 -1.02089 0
M  V30 468 C 45.399 -2.84012 2.22192 0
M  V30 469 O 44.503 -3.78732 1.63204 0
M  V30 470 H 43.844 -0.471638 0.46739 0
M  V30 471 H 46.374 -0.944657 1.81487 0
M  V30 472 H 46.384 -3.33037 2.35691 0
M  V30 473 H 45.059 -2.59869 3.24716 0
M  V30 474 H 43.636 -3.37402 1.58791 0
M  V30 475 N 45.8211 -1.22559 -0.990812 0
M  V30 476 C 47.2371 -0.985996 -1.255 0
M  V30 477 C 47.4371 0.319173 -1.98956 0
M  V30 478 O 46.4931 1.04127 -2.3003 0
M  V30 479 C 47.8061 -2.18607 -2.06474 0
M  V30 480 C 49.3541 -2.22985 -2.19651 0
M  V30 481 C 49.8291 -3.4255 -3.04012 0
M  V30 482 N 51.3201 -3.42725 -3.11599 0
M  V30 483 C 52.0551 -4.31892 -3.7717 0
M  V30 484 N 51.5511 -5.31279 -4.44651 0
M  V30 485 N 53.3441 -4.19662 -3.73952 0
M  V30 486 H 45.4951 -2.06469 -0.49841 0
M  V30 487 H 47.7581 -0.904853 -0.282747 0
M  V30 488 H 47.4641 -3.13267 -1.59865 0
M  V30 489 H 47.3381 -2.18838 -3.07229 0
M  V30 490 H 49.7251 -1.28871 -2.65474 0
M  V30 491 H 49.8061 -2.26791 -1.18319 0
M  V30 492 H 49.4501 -4.36965 -2.58889 0
M  V30 493 H 49.3801 -3.35984 -4.0549 0
M  V30 494 H 51.8711 -2.70807 -2.63575 0
M  V30 495 H 52.1841 -5.95593 -4.92431 0
M  V30 496 H 50.5291 -5.3519 -4.43392 0
M  V30 497 H 53.7201 -3.41268 -3.20396 0
M  V30 498 H 53.8931 -4.89358 -4.24774 0
M  V30 499 N 47.2992 1.18797 -1.03562 0
M  V30 500 C 48.5462 1.8865 -0.736023 0
M  V30 501 C 48.8742 1.80041 0.735889 0
M  V30 502 O 48.1292 1.19179 1.55225 0
M  V30 503 C 48.4282 3.38692 -1.14117 0
M  V30 504 C 48.0942 3.67504 -2.6125 0
M  V30 505 C 46.7562 3.75078 -3.01447 0
M  V30 506 C 49.1082 3.80293 -3.56408 0
M  V30 507 C 46.4362 3.92915 -4.35701 0
M  V30 508 C 48.7882 3.99645 -4.90374 0
M  V30 509 C 47.4522 4.05453 -5.30249 0
M  V30 510 H 46.7222 0.690321 -0.26933 0
M  V30 511 H 49.3692 1.40641 -1.29971 0
M  V30 512 H 47.6742 3.88645 -0.496202 0
M  V30 513 H 49.3712 3.91072 -0.886789 0
M  V30 514 H 45.9612 3.62223 -2.29113 0
M  V30 515 H 50.1452 3.73779 -3.26501 0
M  V30 516 H 45.4012 3.95653 -4.66121 0
M  V30 517 H 49.5752 4.08482 -5.64017 0
M  V30 518 H 47.2022 4.19027 -6.34288 0
M  V30 519 N 48.7773 0.814389 1.34928 0
M  V30 520 C 49.7273 0.202752 2.27097 0
M  V30 521 C 50.7113 -0.62799 1.48139 0
M  V30 522 O 51.9033 -0.483969 1.70255 0
M  V30 523 C 49.0323 -0.64146 3.37254 0
M  V30 524 C 48.1183 0.19944 4.23631 0
M  V30 525 N 48.5093 1.26628 4.89693 0
M  V30 526 C 46.8073 -0.0176433 4.45997 0
M  V30 527 C 47.5083 1.78031 5.53787 0
M  V30 528 N 46.4843 1.08553 5.32651 0
M  V30 529 H 50.2863 1.01893 2.75672 0
M  V30 530 H 47.8003 0.656332 1.48546 0
M  V30 531 H 49.7973 -1.09575 4.02243 0
M  V30 532 H 48.4573 -1.4559 2.9023 0
M  V30 533 H 49.4683 1.64901 4.90946 0
M  V30 534 H 46.1453 -0.800601 4.09752 0
M  V30 535 H 47.5353 2.67236 6.16469 0
M  V30 536 N 50.2554 -1.46986 0.568584 0
M  V30 537 C 51.5014 -2.02741 0.0488709 0
M  V30 538 C 51.8344 -1.44077 -1.30214 0
M  V30 539 O 51.1094 -0.600552 -1.84996 0
M  V30 540 C 51.3924 -3.60086 -0.032047 0
M  V30 541 C 51.2454 -4.29162 1.34686 0
M  V30 542 C 52.5644 -4.33838 -0.739798 0
M  V30 543 H 49.6834 -0.736749 0.0192338 0
M  V30 544 H 52.3254 -1.75289 0.733065 0
M  V30 545 H 50.4754 -3.83606 -0.61473 0
M  V30 546 H 52.1474 -4.16948 1.97362 0
M  V30 547 H 50.3904 -3.89073 1.91846 0
M  V30 548 H 51.0614 -5.37826 1.24285 0
M  V30 549 H 53.5374 -4.15378 -0.244939 0
M  V30 550 H 52.4134 -5.43537 -0.765406 0
M  V30 551 H 52.6744 -4.03875 -1.79827 0
M  V30 552 N 51.7335 -0.305618 -1.54608 0
M  V30 553 C 52.6815 0.584119 -2.25146 0
M  V30 554 C 53.6755 1.13326 -1.25911 0
M  V30 555 O 54.8815 1.08337 -1.43747 0
M  V30 556 H 51.2565 0.206983 -0.722954 0
M  V30 557 H 53.2275 -0.033291 -2.98381 0
M  V30 558 C 51.9765 1.74225 -3.009 0
M  V30 559 H 51.2995 1.32892 -3.77067 0
M  V30 560 H 52.7395 2.34077 -3.53531 0
M  V30 561 C 51.1985 2.64914 -2.0814 0
M  V30 562 O 51.7285 3.66137 -1.65246 0
M  V30 563 N 49.9345 2.3275 -1.74 0
M  V30 564 H 49.4815 1.50479 -2.09078 0
M  V30 565 H 49.4395 2.93694 -1.12211 0
M  V30 566 N 53.2116 1.57565 -0.0334293 0
M  V30 567 C 54.1416 2.13511 0.945265 0
M  V30 568 C 55.1226 1.05231 1.33643 0
M  V30 569 O 56.3076 1.33084 1.41429 0
M  V30 570 C 53.4376 2.6657 2.22616 0
M  V30 571 C 52.3916 3.79676 1.97561 0
M  V30 572 C 51.7176 4.1918 3.31952 0
M  V30 573 C 53.0176 5.0557 1.31135 0
M  V30 574 H 54.7116 2.95538 0.479325 0
M  V30 575 H 52.2576 1.42166 0.229115 0
M  V30 576 H 54.2106 3.04344 2.91466 0
M  V30 577 H 52.9346 1.8171 2.71384 0
M  V30 578 H 51.5936 3.42347 1.31127 0
M  V30 579 H 51.2416 3.31296 3.78487 0
M  V30 580 H 50.9416 4.95402 3.15992 0
M  V30 581 H 52.4656 4.59541 4.02063 0
M  V30 582 H 53.8796 5.40903 1.89992 0
M  V30 583 H 52.2766 5.86818 1.25559 0
M  V30 584 H 53.3466 4.84062 0.284894 0
M  V30 585 N 54.6897 -0.239769 1.55765 0
M  V30 586 C 55.6197 -1.30052 1.9393 0
M  V30 587 C 56.6007 -1.49839 0.805132 0
M  V30 588 O 57.7857 -1.62328 1.06599 0
M  V30 589 C 54.9157 -2.65391 2.2402 0
M  V30 590 C 53.8697 -2.60289 3.39755 0
M  V30 591 C 53.1957 -3.99489 3.55405 0
M  V30 592 C 54.4957 -2.16654 4.75246 0
M  V30 593 H 56.1897 -0.983573 2.82783 0
M  V30 594 H 53.7357 -0.471701 1.36055 0
M  V30 595 H 55.6887 -3.3974 2.49308 0
M  V30 596 H 54.4127 -2.98736 1.32 0
M  V30 597 H 53.0717 -1.88398 3.14487 0
M  V30 598 H 52.7197 -4.30112 2.60793 0
M  V30 599 H 52.4197 -3.96962 4.33238 0
M  V30 600 H 53.9437 -4.75528 3.83022 0
M  V30 601 H 55.3577 -2.80737 4.99859 0
M  V30 602 H 53.7547 -2.25223 5.56232 0
M  V30 603 H 54.8247 -1.11835 4.71827 0
M  V30 604 N 56.1678 -1.49265 -0.50573 0
M  V30 605 C 57.4078 -1.60128 -1.27038 0
M  V30 606 C 57.7718 -0.279557 -1.89954 0
M  V30 607 O 58.9728 -0.263329 -2.67507 0
M  V30 608 C 57.2438 -2.72507 -2.31246 0
M  V30 609 S 58.8028 -3.0329 -3.17113 0
M  V30 610 H 55.6208 -0.564863 -0.4318 0
M  V30 611 H 58.2228 -1.86902 -0.573397 0
M  V30 612 H 56.9268 -3.67068 -1.83546 0
M  V30 613 H 56.4578 -2.4771 -3.05619 0
M  V30 614 H 58.4728 -2.44448 -4.31809 0
M  V30 615 N 57.6459 0.756429 -1.3826 0
M  V30 616 C 58.8939 1.51248 -1.34047 0
M  V30 617 C 59.2149 1.94875 0.0698372 0
M  V30 618 O 58.4849 1.67436 1.01696 0
M  V30 619 H 57.0649 0.561018 -0.493222 0
M  V30 620 H 59.7269 0.899347 -1.7291 0
M  V30 621 H 58.8229 2.40472 -1.98947 0
M  V30 622 N 59.124 1.23083 0.984299 0
M  V30 623 C 60.034 1.02515 2.11016 0
M  V30 624 C 61.05 -0.0291702 1.73976 0
M  V30 625 O 62.226 0.165434 2.00719 0
M  V30 626 C 59.291 0.614673 3.41208 0
M  V30 627 C 58.352 1.74359 3.92297 0
M  V30 628 C 57.585 1.35261 5.16275 0
M  V30 629 O 57.808 0.235136 5.69915 0
M  V30 630 O 56.742 2.17227 5.61334 0
M  V30 631 H 60.568 1.96862 2.31255 0
M  V30 632 H 58.153 1.01753 1.09392 0
M  V30 633 H 60.035 0.396518 4.1953 0
M  V30 634 H 58.71 -0.299851 3.22308 0
M  V30 635 H 57.617 2.01635 3.1511 0
M  V30 636 H 58.95 2.63629 4.15645 0
M  V30 637 N 60.6021 -1.18246 1.0419 0
M  V30 638 C 61.5121 -2.25574 0.644476 0
M  V30 639 C 62.5281 -1.70845 -0.329826 0
M  V30 640 O 63.7041 -2.00554 -0.184443 0
M  V30 641 C 60.7691 -3.46697 0.014877 0
M  V30 642 C 59.8301 -4.16554 1.03834 0
M  V30 643 C 59.0631 -5.31894 0.438692 0
M  V30 644 O 59.2861 -5.65385 -0.754752 0
M  V30 645 O 58.2201 -5.90459 1.168 0
M  V30 646 H 62.0461 -2.61836 1.53869 0
M  V30 647 H 59.6311 -1.25352 0.812854 0
M  V30 648 H 61.5131 -4.20062 -0.335538 0
M  V30 649 H 60.1881 -3.12255 -0.853138 0
M  V30 650 H 59.0951 -3.45251 1.44057 0
M  V30 651 H 60.4281 -4.54998 1.87716 0
M  V30 652 N 62.0802 -0.821533 -1.34494 0
M  V30 653 C 63.0122 -0.199946 -2.28326 0
M  V30 654 C 64.0252 0.609377 -1.50965 0
M  V30 655 O 65.2142 0.439285 -1.7301 0
M  V30 656 C 62.3142 0.738431 -3.30757 0
M  V30 657 C 61.4872 -0.0277632 -4.37391 0
M  V30 658 C 60.5462 0.831332 -5.19591 0
M  V30 659 O 59.5722 0.276822 -5.68526 0
M  V30 660 N 60.7742 2.15132 -5.39165 0
M  V30 661 H 63.5392 -1.00609 -2.82308 0
M  V30 662 H 61.1002 -0.678366 -1.47003 0
M  V30 663 H 63.0922 1.31773 -3.82646 0
M  V30 664 H 61.6622 1.44533 -2.7718 0
M  V30 665 H 60.8822 -0.788359 -3.86236 0
M  V30 666 H 62.1702 -0.555251 -5.05761 0
M  V30 667 H 61.5682 2.62559 -5.01078 0
M  V30 668 H 60.1252 2.6795 -5.94177 0
M  V30 669 N 63.5583 1.46682 -0.576371 0
M  V30 670 C 64.8063 2.02013 -0.0594163 0
M  V30 671 C 65.1273 1.45101 1.30271 0
M  V30 672 O 64.3973 0.633317 1.8538 0
M  V30 673 H 62.9773 0.746759 -0.0189745 0
M  V30 674 H 65.6393 1.79862 -0.750717 0
M  V30 675 H 64.7353 3.12097 0.014345 0
M  V30 676 N 65.0364 0.313813 1.54444 0
M  V30 677 C 66.2614 -0.296681 2.05267 0
M  V30 678 C 66.6864 -1.45757 1.18897 0
M  V30 679 O 66.0444 -1.80239 0.195886 0
M  V30 680 C 66.0924 -0.71831 3.53373 0
M  V30 681 O 65.1964 -1.82175 3.69981 0
M  V30 682 H 64.5374 -0.0554061 0.661684 0
M  V30 683 H 67.0674 0.459387 1.99376 0
M  V30 684 H 67.0774 -1.00364 3.95463 0
M  V30 685 H 65.7524 0.130821 4.15694 0
M  V30 686 H 64.3294 -1.53598 3.39797 0
M  V30 687 N 66.5145 -1.57545 0.0417849 0
M  V30 688 C 67.7915 -1.83642 -0.673433 0
M  V30 689 C 68.1715 -0.928298 -1.89594 0
M  V30 690 O 67.5195 0.0129955 -2.28496 0
M  V30 691 C 67.7295 -3.33155 -1.03964 0
M  V30 692 C 69.0775 -3.99941 -1.42592 0
M  V30 693 O 70.1015 -3.37725 -1.13226 0
M  V30 694 O 68.9605 -5.09619 -1.9736 0
M  V30 695 H 66.0545 -0.757638 -0.331533 0
M  V30 696 H 68.6005 -1.69554 0.070433 0
M  V30 697 H 67.3725 -3.9093 -0.170098 0
M  V30 698 H 66.9955 -3.52396 -1.84126 0
M  V30 699 N 67.9926 0.231505 -1.5589 0
M  V30 700 C 68.9556 1.27028 -1.90779 0
M  V30 701 C 69.9556 1.40308 -0.785507 0
M  V30 702 O 71.1456 1.38744 -1.05336 0
M  V30 703 C 68.2776 2.64566 -2.14983 0
M  V30 704 H 69.4706 0.973017 -2.83677 0
M  V30 705 H 67.0236 0.471486 -1.49019 0
M  V30 706 H 67.7586 2.99406 -1.24604 0
M  V30 707 H 67.5436 2.56305 -2.96732 0
M  V30 708 H 69.0336 3.39543 -2.43105 0
M  V30 709 N 69.4707 1.49531 0.497807 0
M  V30 710 C 70.4337 1.65916 1.58128 0
M  V30 711 C 71.4337 0.530825 1.51786 0
M  V30 712 O 72.6237 0.797342 1.54881 0
M  V30 713 C 69.7557 1.65951 2.9778 0
M  V30 714 H 70.9487 2.62556 1.44929 0
M  V30 715 H 68.5017 1.38611 0.722275 0
M  V30 716 H 69.2367 0.709065 3.16453 0
M  V30 717 H 69.0217 2.47897 3.03792 0
M  V30 718 H 70.5117 1.80673 3.76493 0
M  V30 719 N 70.9488 -0.749086 1.3866 0
M  V30 720 C 71.8788 -1.8764 1.38973 0
M  V30 721 C 72.8598 -1.68178 0.255004 0
M  V30 722 O 74.0448 -1.88704 0.458754 0
M  V30 723 C 71.1748 -3.25222 1.21851 0
M  V30 724 C 70.1288 -3.59295 2.32575 0
M  V30 725 C 69.4548 -4.95663 2.00555 0
M  V30 726 C 70.7548 -3.63709 3.7485 0
M  V30 727 H 72.4488 -1.87635 2.3331 0
M  V30 728 H 69.9948 -0.901329 1.12303 0
M  V30 729 H 71.9478 -4.03746 1.20695 0
M  V30 730 H 70.6718 -3.25719 0.239775 0
M  V30 731 H 69.3308 -2.83093 2.32925 0
M  V30 732 H 68.9788 -4.92724 1.01154 0
M  V30 733 H 68.6788 -5.19429 2.74714 0
M  V30 734 H 70.2028 -5.7656 2.01024 0
M  V30 735 H 71.6168 -4.32338 3.76506 0
M  V30 736 H 70.0138 -3.98986 4.48252 0
M  V30 737 H 71.0838 -2.63834 4.06841 0
M  V30 738 N 72.4269 -1.23603 -0.977757 0
M  V30 739 C 73.3769 -0.986664 -2.05545 0
M  V30 740 C 74.3609 0.0683009 -1.60755 0
M  V30 741 O 75.5529 -0.144162 -1.76412 0
M  V30 742 C 72.6819 -0.582623 -3.3832 0
M  V30 743 C 71.7679 -1.67313 -3.89701 0
M  V30 744 N 72.1589 -2.90394 -4.14132 0
M  V30 745 C 70.4569 -1.54832 -4.18262 0
M  V30 746 C 71.1579 -3.61017 -4.56116 0
M  V30 747 N 70.1339 -2.8854 -4.60701 0
M  V30 748 H 73.9359 -1.92139 -2.22396 0
M  V30 749 H 71.4499 -1.1358 -1.16074 0
M  V30 750 H 73.4469 -0.38524 -4.15116 0
M  V30 751 H 72.1069 0.34503 -3.22862 0
M  V30 752 H 73.1179 -3.26673 -4.01877 0
M  V30 753 H 69.7949 -0.687969 -4.11793 0
M  V30 754 H 71.1849 -4.66544 -4.83514 0
M  V30 755 N 73.905 1.17692 -1.04816 0
M  V30 756 C 75.152 1.87859 -0.75599 0
M  V30 757 C 75.48 1.80812 0.716752 0
M  V30 758 O 74.735 1.20819 1.53952 0
M  V30 759 C 75.034 3.37462 -1.17703 0
M  V30 760 C 74.7 3.64713 -2.65133 0
M  V30 761 C 73.362 3.71859 -3.05408 0
M  V30 762 C 75.714 3.76492 -3.60421 0
M  V30 763 C 73.042 3.88271 -4.39843 0
M  V30 764 C 75.394 3.94421 -4.94585 0
M  V30 765 C 74.058 3.99806 -5.3452 0
M  V30 766 H 73.328 0.687425 -0.276636 0
M  V30 767 H 75.975 1.39255 -1.31455 0
M  V30 768 H 74.28 3.88097 -0.537395 0
M  V30 769 H 75.977 3.90109 -0.928218 0
M  V30 770 H 72.567 3.59772 -2.32942 0
M  V30 771 H 76.751 3.70295 -3.30447 0
M  V30 772 H 72.007 3.90687 -4.70291 0
M  V30 773 H 76.181 4.02477 -5.68318 0
M  V30 774 H 73.808 4.12276 -6.38696 0
M  V30 775 N 75.3831 0.828654 1.34056 0
M  V30 776 C 76.3311 0.242973 2.31327 0
M  V30 777 C 77.3251 -0.61944 1.57668 0
M  V30 778 O 78.5311 -0.51014 1.7262 0
M  V30 779 H 74.9061 0.059834 0.749616 0
M  V30 780 H 76.8771 1.07809 2.78244 0
M  V30 781 C 75.6261 -0.575733 3.429 0
M  V30 782 H 74.9491 0.0785582 3.99723 0
M  V30 783 H 76.3891 -0.951547 4.13185 0
M  V30 784 C 74.8481 -1.75044 2.87856 0
M  V30 785 O 75.3781 -2.84882 2.83205 0
M  V30 786 N 73.5841 -1.56903 2.44602 0
M  V30 787 H 73.1311 -0.675547 2.48584 0
M  V30 788 H 73.0891 -2.35652 2.08124 0
M  V30 789 N 76.8612 -1.46375 0.584142 0
M  V30 790 C 78.2722 -1.86031 0.157959 0
M  V30 791 C 78.6232 -1.48753 -1.27933 0
M  V30 792 O 77.7482 -0.903098 -1.96655 0
M  V30 793 C 78.3432 -3.37642 0.279892 0
M  V30 794 C 76.9022 -3.76289 -0.09143 0
M  V30 795 C 76.0492 -2.7039 0.615178 0
M  V30 796 H 79.0002 -1.37509 0.792274 0
M  V30 797 H 79.0212 -3.77275 -0.494364 0
M  V30 798 H 78.5332 -3.64742 1.32607 0
M  V30 799 H 76.6342 -3.54806 -1.13769 0
M  V30 800 H 76.7472 -4.78246 0.285886 0
M  V30 801 H 75.1112 -2.5464 0.0552833 0
M  V30 802 H 75.8942 -3.0033 1.66303 0
M  V30 803 N 78.3393 -0.321999 -1.54275 0
M  V30 804 C 79.7553 0.0306999 -1.5957 0
M  V30 805 C 79.9553 1.50614 -1.33857 0
M  V30 806 O 79.0113 2.2619 -1.12223 0
M  V30 807 C 80.3243 -0.386122 -2.98211 0
M  V30 808 C 81.8723 -0.336647 -3.11184 0
M  V30 809 C 82.3473 -0.728607 -4.52167 0
M  V30 810 N 83.8383 -0.681952 -4.58152 0
M  V30 811 C 84.5733 -0.957449 -5.6535 0
M  V30 812 N 84.0693 -1.3 -6.80494 0
M  V30 813 N 85.8623 -0.883113 -5.55119 0
M  V30 814 H 78.0133 -1.28332 -1.69247 0
M  V30 815 H 80.2763 -0.521716 -0.791528 0
M  V30 816 H 79.9823 -1.41404 -3.22022 0
M  V30 817 H 79.8563 0.249662 -3.76373 0
M  V30 818 H 82.2433 0.682058 -2.8711 0
M  V30 819 H 82.3243 -1.00734 -2.3513 0
M  V30 820 H 81.9683 -1.74522 -4.76974 0
M  V30 821 H 81.8983 -0.0356152 -5.26588 0
M  V30 822 H 84.3893 -0.428985 -3.75457 0
M  V30 823 H 84.7023 -1.49563 -7.58189 0
M  V30 824 H 83.0473 -1.33824 -6.81994 0
M  V30 825 H 86.2383 -0.615001 -4.64042 0
M  V30 826 H 86.4113 -1.10118 -6.38575 0
M  V30 827 N 79.8174 1.5752 -0.0501392 0
M  V30 828 C 80.7474 2.14502 0.922566 0
M  V30 829 C 81.7284 1.06642 1.3252 0
M  V30 830 O 82.9134 1.34577 1.4001 0
M  V30 831 C 80.0434 2.68916 2.19776 0
M  V30 832 C 78.9974 3.8175 1.93523 0
M  V30 833 C 78.3234 4.22677 3.27487 0
M  V30 834 C 79.6234 5.06932 1.25765 0
M  V30 835 H 81.3174 2.9603 0.447952 0
M  V30 836 H 78.8634 1.42401 0.214024 0
M  V30 837 H 80.8164 3.07419 2.88222 0
M  V30 838 H 79.5404 1.84578 2.69441 0
M  V30 839 H 78.1994 3.43718 1.27489 0
M  V30 840 H 77.8474 3.35291 3.74952 0
M  V30 841 H 77.5474 4.98725 3.1072 0
M  V30 842 H 79.0714 4.63779 3.97166 0
M  V30 843 H 80.4854 5.42888 1.84244 0
M  V30 844 H 78.8824 5.88116 1.19328 0
M  V30 845 H 79.9524 4.84337 0.233536 0
M  V30 846 N 81.2955 -0.223234 1.56011 0
M  V30 847 C 82.5725 -0.972108 1.69733 0
M  V30 848 C 82.9525 -2.02485 0.59691 0
M  V30 849 O 82.3005 -2.25037 -0.396324 0
M  V30 850 C 82.5105 -1.58407 3.10979 0
M  V30 851 C 83.8585 -2.07696 3.70334 0
M  V30 852 O 84.8825 -1.68304 3.1393 0
M  V30 853 O 83.7415 -2.80096 4.69264 0
M  V30 854 H 80.8355 -0.453993 0.691245 0
M  V30 855 H 83.3815 -0.215149 1.68331 0
M  V30 856 H 82.1535 -0.823831 3.82529 0
M  V30 857 H 81.7765 -2.40661 3.16493 0
M  V30 858 N 82.7736 -1.49793 -0.48987 0
M  V30 859 C 84.0016 -1.63568 -1.26701 0
M  V30 860 C 84.4166 -0.311465 -1.86213 0
M  V30 861 O 83.7736 0.704416 -1.68357 0
M  V30 862 C 83.8246 -2.71284 -2.38929 0
M  V30 863 O 83.5456 -3.9857 -1.81861 0
M  V30 864 C 85.0466 -2.95864 -3.3012 0
M  V30 865 H 82.2666 -0.550342 -0.383881 0
M  V30 866 H 84.8106 -1.95898 -0.586864 0
M  V30 867 H 82.9656 -2.417 -3.02753 0
M  V30 868 H 83.3796 -4.57993 -2.55622 0
M  V30 869 H 84.8536 -3.74941 -4.05121 0
M  V30 870 H 85.3306 -2.06206 -3.87783 0
M  V30 871 H 85.9366 -3.26907 -2.72051 0
M  V30 872 N 84.2517 0.741722 -1.39055 0
M  V30 873 C 85.4767 1.53607 -1.39354 0
M  V30 874 C 85.9017 1.88096 0.0116905 0
M  V30 875 O 85.2597 1.5143 0.996924 0
M  V30 876 C 85.3077 2.80441 -2.26682 0
M  V30 877 O 84.4117 3.76088 -1.69208 0
M  V30 878 H 83.7527 0.464142 -0.474835 0
M  V30 879 H 86.2827 0.915665 -1.82967 0
M  V30 880 H 86.2927 3.29246 -2.40959 0
M  V30 881 H 84.9677 2.5467 -3.2881 0
M  V30 882 H 83.5447 3.34833 -1.64138 0
M  V30 883 N 85.7298 1.2412 0.971189 0
M  V30 884 C 86.6398 1.04747 2.09917 0
M  V30 885 C 87.6558 -0.0107162 1.73997 0
M  V30 886 O 88.8318 0.186714 2.00533 0
M  V30 887 C 85.8968 0.650828 3.40537 0
M  V30 888 C 84.9578 1.7851 3.90426 0
M  V30 889 C 84.1908 1.40729 5.14812 0
M  V30 890 O 84.4138 0.29557 5.69634 0
M  V30 891 O 83.3478 2.23168 5.58999 0
M  V30 892 H 87.1738 1.99304 2.29154 0
M  V30 893 H 84.7588 1.02908 1.08307 0
M  V30 894 H 86.6408 0.440992 4.19086 0
M  V30 895 H 85.3158 -0.265649 3.22608 0
M  V30 896 H 84.2228 2.04966 3.12953 0
M  V30 897 H 85.5558 2.68023 4.12825 0
M  V30 898 N 87.2079 -1.17134 1.05439 0
M  V30 899 C 88.4539 -1.87733 0.767077 0
M  V30 900 C 88.7869 -1.8098 -0.704253 0
M  V30 901 O 88.0619 -1.21951 -1.5152 0
M  V30 902 C 88.3449 -3.37659 1.25133 0
M  V30 903 C 88.1979 -3.53149 2.78578 0
M  V30 904 C 89.5169 -4.31768 0.852324 0
M  V30 905 H 86.6359 -0.681687 0.280129 0
M  V30 906 H 89.2779 -1.37732 1.30881 0
M  V30 907 H 87.4279 -3.80373 0.790469 0
M  V30 908 H 89.0999 -3.19434 3.32806 0
M  V30 909 H 87.3429 -2.95345 3.17732 0
M  V30 910 H 88.0139 -4.58403 3.07523 0
M  V30 911 H 90.4899 -3.96909 1.24911 0
M  V30 912 H 89.3659 -5.35199 1.21873 0
M  V30 913 H 89.6269 -4.41429 -0.243485 0
M  V30 914 N 88.686 -0.835752 -1.33615 0
M  V30 915 C 89.932 -0.430596 -1.98176 0
M  V30 916 C 90.265 1.00684 -1.66061 0
M  V30 917 O 89.54 1.70339 -0.938877 0
M  V30 918 C 89.823 -0.648065 -3.5422 0
M  V30 919 C 89.676 -2.13255 -3.96033 0
M  V30 920 C 90.995 -0.0922113 -4.40003 0
M  V30 921 H 88.114 -0.157924 -0.719881 0
M  V30 922 H 90.756 -1.05069 -1.58305 0
M  V30 923 H 88.906 -0.120237 -3.88314 0
M  V30 924 H 90.578 -2.725 -3.72211 0
M  V30 925 H 88.821 -2.61823 -3.45878 0
M  V30 926 H 89.492 -2.23547 -5.04708 0
M  V30 927 H 91.968 -0.543343 -4.12537 0
M  V30 928 H 90.844 -0.274083 -5.48215 0
M  V30 929 H 91.105 1.00378 -4.30554 0
M  V30 930 N 90.1641 1.46063 -0.591896 0
M  V30 931 C 91.4111 2.02338 -0.0809991 0
M  V30 932 C 91.7391 1.46228 1.28249 0
M  V30 933 O 90.9941 0.620818 1.85592 0
M  V30 934 C 91.2931 3.57391 0.0249813 0
M  V30 935 C 90.9591 4.32583 -1.27211 0
M  V30 936 C 89.6211 4.52844 -1.62745 0
M  V30 937 C 91.9731 4.75687 -2.13005 0
M  V30 938 C 89.3011 5.13462 -2.83855 0
M  V30 939 C 91.6531 5.37644 -3.3335 0
M  V30 940 C 90.3171 5.5613 -3.69155 0
M  V30 941 H 89.5871 0.740407 -0.0296397 0
M  V30 942 H 92.2341 1.75321 -0.770374 0
M  V30 943 H 90.5391 3.83597 0.797537 0
M  V30 944 H 92.2361 3.98621 0.436184 0
M  V30 945 H 88.8261 4.17116 -0.985499 0
M  V30 946 H 93.0101 4.59782 -1.86855 0
M  V30 947 H 88.2661 5.25965 -3.11722 0
M  V30 948 H 92.4401 5.7 -4.00092 0
M  V30 949 H 90.0671 6.0287 -4.63089 0
M  V30 950 N 91.6422 0.330177 1.54103 0
M  V30 951 C 92.5902 -0.548226 2.26047 0
M  V30 952 C 93.5842 -1.11309 1.27698 0
M  V30 953 O 94.7902 -1.06036 1.45452 0
M  V30 954 H 91.1652 -0.195456 0.726155 0
M  V30 955 H 93.1362 0.0807567 2.98291 0
M  V30 956 C 91.8852 -1.69415 3.03634 0
M  V30 957 H 91.2082 -1.26876 3.79134 0
M  V30 958 H 92.6482 -2.28423 3.5721 0
M  V30 959 C 91.1072 -2.61569 2.12328 0
M  V30 960 O 91.6372 -3.63462 1.7105 0
M  V30 961 N 89.8432 -2.29952 1.77681 0
M  V30 962 H 89.3902 -1.47134 2.11446 0
M  V30 963 H 89.3482 -2.91871 1.16869 0
M  V30 964 N 93.1203 -1.57491 0.0584922 0
M  V30 965 C 94.3453 -1.97711 -0.62652 0
M  V30 966 C 94.7703 -0.936132 -1.63151 0
M  V30 967 O 94.1283 0.099811 -1.81025 0
M  V30 968 C 94.1763 -3.36989 -1.28338 0
M  V30 969 O 93.2803 -3.35433 -2.39913 0
M  V30 970 H 92.6213 -0.643868 -0.162266 0
M  V30 971 H 95.1513 -2.04193 0.129064 0
M  V30 972 H 95.1613 -3.73879 -1.63335 0
M  V30 973 H 93.8363 -4.12289 -0.546889 0
M  V30 974 H 92.4133 -3.10298 -2.06809 0
M  V30 975 N 94.5984 0.214957 -1.56127 0
M  V30 976 C 95.5454 1.26642 -1.92952 0
M  V30 977 C 96.5154 1.46244 -0.78753 0
M  V30 978 O 97.7004 1.59704 -1.04399 0
M  V30 979 C 94.8404 2.6104 -2.25726 0
M  V30 980 C 93.9534 2.49183 -3.52891 0
M  V30 981 C 93.0884 3.76149 -3.7508 0
M  V30 982 C 92.1274 3.59041 -4.95738 0
M  V30 983 N 91.2644 4.77972 -5.14283 0
M  V30 984 H 96.1044 0.945384 -2.82607 0
M  V30 985 H 93.6414 0.455489 -1.3987 0
M  V30 986 H 95.5994 3.39313 -2.42739 0
M  V30 987 H 94.2294 2.91227 -1.39236 0
M  V30 988 H 93.2814 1.6231 -3.44034 0
M  V30 989 H 94.5934 2.32466 -4.41318 0
M  V30 990 H 93.7474 4.62865 -3.92226 0
M  V30 991 H 92.4864 3.95799 -2.84947 0
M  V30 992 H 91.4914 2.7071 -4.78535 0
M  V30 993 H 92.7164 3.40856 -5.87362 0
M  V30 994 H 90.6624 4.97923 -4.27093 0
M  V30 995 H 90.5794 4.64006 -5.96853 0
M  V30 996 H 91.8474 5.66096 -5.35869 0
M  V30 997 N 96.0765 1.50051 0.48192 0
M  V30 998 C 96.9865 1.7089 1.60728 0
M  V30 999 C 98.0025 0.591788 1.63627 0
M  V30 1000 O 99.1785 0.868817 1.81696 0
M  V30 1001 C 96.2435 1.78855 2.97005 0
M  V30 1002 C 95.3045 3.02537 3.04581 0
M  V30 1003 C 94.5375 3.10112 4.34357 0
M  V30 1004 O 94.7605 2.24765 5.24249 0
M  V30 1005 O 93.6945 4.02747 4.47301 0
M  V30 1006 H 97.5205 2.66264 1.46072 0
M  V30 1007 H 95.1055 1.34018 0.660264 0
M  V30 1008 H 96.9875 1.86336 3.77964 0
M  V30 1009 H 95.6625 0.866628 3.11883 0
M  V30 1010 H 94.5695 3.00563 2.22739 0
M  V30 1011 H 95.9025 3.94272 2.94636 0
M  V30 1012 N 97.5546 -0.734337 1.39446 0
M  V30 1013 C 98.4866 -1.85861 1.34121 0
M  V30 1014 C 99.4996 -1.60871 0.249864 0
M  V30 1015 O 100.689 -1.71093 0.508865 0
M  V30 1016 C 97.7886 -3.21899 1.05991 0
M  V30 1017 C 96.9616 -3.74239 2.26415 0
M  V30 1018 C 96.0206 -4.88841 1.94733 0
M  V30 1019 O 95.0466 -5.02468 2.67422 0
M  V30 1020 N 96.2486 -5.73261 0.913884 0
M  V30 1021 H 99.0136 -1.90934 2.31007 0
M  V30 1022 H 96.5746 -0.915102 1.33557 0
M  V30 1023 H 98.5666 -3.96136 0.828147 0
M  V30 1024 H 97.1366 -3.12091 0.178361 0
M  V30 1025 H 96.3566 -2.91347 2.65539 0
M  V30 1026 H 97.6446 -4.05942 3.06738 0
M  V30 1027 H 97.0426 -5.64842 0.311476 0
M  V30 1028 H 95.5996 -6.47563 0.742015 0
M  V30 1029 N 99.0327 -1.24633 -0.964593 0
M  V30 1030 C 100.281 -1.08573 -1.70459 0
M  V30 1031 C 100.602 0.375655 -1.91347 0
M  V30 1032 O 99.8717 1.26779 -1.49345 0
M  V30 1033 H 98.4517 -0.398784 -0.631649 0
M  V30 1034 H 101.114 -1.56601 -1.16026 0
M  V30 1035 H 100.21 -1.58623 -2.68785 0
M  V30 1036 N 100.511 1.16574 -1.06058 0
M  V30 1037 C 101.736 1.91493 -0.796562 0
M  V30 1038 C 102.161 1.76773 0.642868 0
M  V30 1039 O 101.519 1.09142 1.44768 0
M  V30 1040 C 101.567 3.40293 -1.19303 0
M  V30 1041 O 100.671 4.11074 -0.330394 0
M  V30 1042 H 100.012 0.596678 -0.291326 0
M  V30 1043 H 102.542 1.47708 -1.41575 0
M  V30 1044 H 102.552 3.91057 -1.16356 0
M  V30 1045 H 101.227 3.50326 -2.24153 0
M  V30 1046 H 99.8038 3.70513 -0.421225 0
M  V30 1047 N 101.989 0.842826 1.3317 0
M  V30 1048 C 103.235 0.450342 1.98352 0
M  V30 1049 C 103.59 -0.980508 1.65541 0
M  V30 1050 O 102.883 -1.67678 0.927065 0
M  V30 1051 C 103.077 0.612607 3.52111 0
M  V30 1052 C 102.906 2.05768 3.99862 0
M  V30 1053 C 101.676 2.69374 4.27511 0
M  V30 1054 C 103.874 3.02688 4.15794 0
M  V30 1055 N 101.856 4.04915 4.61429 0
M  V30 1056 C 103.227 4.23186 4.53115 0
M  V30 1057 C 105.282 2.99041 3.98094 0
M  V30 1058 C 103.985 5.40518 4.74587 0
M  V30 1059 C 106.011 4.15607 4.20743 0
M  V30 1060 C 105.373 5.3486 4.58371 0
M  V30 1061 H 101.472 0.213296 0.752349 0
M  V30 1062 H 104.056 1.09173 1.61212 0
M  V30 1063 H 102.227 0.000998822 3.884 0
M  V30 1064 H 103.959 0.191179 4.04248 0
M  V30 1065 H 100.714 2.20485 4.19146 0
M  V30 1066 H 101.138 4.74798 4.82593 0
M  V30 1067 H 105.78 2.0797 3.68114 0
M  V30 1068 H 103.498 6.3213 5.03425 0
M  V30 1069 H 107.084 4.14207 4.08563 0
M  V30 1070 H 105.964 6.23558 4.75547 0
M  V30 1071 N 103.467 -1.45747 0.599634 0
M  V30 1072 C 104.715 -2.01893 0.0915472 0
M  V30 1073 C 105.036 -1.47155 -1.27946 0
M  V30 1074 O 104.306 -0.66273 -1.84349 0
M  V30 1075 H 102.886 -0.746363 0.0308524 0
M  V30 1076 H 105.548 -1.78645 0.779237 0
M  V30 1077 H 104.644 -3.1208 0.0353086 0
M  V30 1078 N 104.945 -0.338344 -1.53925 0
M  V30 1079 C 106.361 0.0137736 -1.59594 0
M  V30 1080 C 106.561 1.49186 -1.35447 0
M  V30 1081 O 105.617 2.24987 -1.14616 0
M  V30 1082 C 106.93 -0.41773 -2.97784 0
M  V30 1083 C 108.478 -0.369633 -3.1081 0
M  V30 1084 C 108.953 -0.776524 -4.51369 0
M  V30 1085 N 110.444 -0.730506 -4.57403 0
M  V30 1086 C 111.179 -1.01736 -5.64303 0
M  V30 1087 N 110.675 -1.3721 -6.79077 0
M  V30 1088 N 112.468 -0.941942 -5.54151 0
M  V30 1089 H 104.619 -1.3012 -1.67876 0
M  V30 1090 H 106.882 -0.530082 -0.78595 0
M  V30 1091 H 106.588 -1.44811 -3.20504 0
M  V30 1092 H 106.462 0.209729 -3.76616 0
M  V30 1093 H 108.849 0.651568 -2.87817 0
M  V30 1094 H 108.93 -1.03223 -2.34049 0
M  V30 1095 H 108.574 -1.79571 -4.75096 0
M  V30 1096 H 108.504 -0.0914649 -5.26521 0
M  V30 1097 H 110.995 -0.468783 -3.74981 0
M  V30 1098 H 111.308 -1.57597 -7.5656 0
M  V30 1099 H 109.653 -1.4105 -6.80536 0
M  V30 1100 H 112.844 -0.664184 -4.63364 0
M  V30 1101 H 113.017 -1.16884 -6.37371 0
M  V30 1102 N 106.423 1.57458 -0.0668435 0
M  V30 1103 C 107.333 2.15937 0.916975 0
M  V30 1104 C 108.349 1.12123 1.33058 0
M  V30 1105 O 109.525 1.44366 1.40429 0
M  V30 1106 C 106.59 2.70547 2.16807 0
M  V30 1107 C 105.651 3.89215 1.81135 0
M  V30 1108 C 104.884 4.41211 3.0028 0
M  V30 1109 O 105.107 3.92225 4.14144 0
M  V30 1110 O 104.041 5.32605 2.80384 0
M  V30 1111 H 107.867 3.00354 0.449561 0
M  V30 1112 H 105.452 1.48584 0.155949 0
M  V30 1113 H 107.334 3.0557 2.90181 0
M  V30 1114 H 106.009 1.89192 2.62656 0
M  V30 1115 H 104.916 3.59054 1.05028 0
M  V30 1116 H 106.249 4.71848 1.40073 0
M  V30 1117 N 107.901 -0.206675 1.56239 0
M  V30 1118 C 108.811 -1.27686 1.96808 0
M  V30 1119 C 109.827 -1.50455 0.874035 0
M  V30 1120 O 111.003 -1.63295 1.17884 0
M  V30 1121 C 108.068 -2.60358 2.28942 0
M  V30 1122 C 107.129 -2.45762 3.51994 0
M  V30 1123 C 106.362 -3.72108 3.82585 0
M  V30 1124 O 106.585 -4.75776 3.14631 0
M  V30 1125 O 105.519 -3.6833 4.76043 0
M  V30 1126 H 109.345 -0.962593 2.88041 0
M  V30 1127 H 106.93 -0.410746 1.43643 0
M  V30 1128 H 108.812 -3.38687 2.50737 0
M  V30 1129 H 107.487 -2.91435 1.4088 0
M  V30 1130 H 106.394 -1.65584 3.35459 0
M  V30 1131 H 107.727 -2.19621 4.40486 0
M  V30 1132 N 109.379 -1.50304 -0.473955 0
M  V30 1133 C 110.795 -1.37667 -0.807466 0
M  V30 1134 C 110.995 -0.430555 -1.96846 0
M  V30 1135 O 110.051 0.127874 -2.52176 0
M  V30 1136 C 111.364 -2.78974 -1.12223 0
M  V30 1137 C 112.912 -2.87868 -1.22885 0
M  V30 1138 C 113.387 -4.30003 -1.57676 0
M  V30 1139 N 114.878 -4.3294 -1.64673 0
M  V30 1140 C 115.613 -5.3991 -1.93091 0
M  V30 1141 N 115.109 -6.57092 -2.1955 0
M  V30 1142 N 116.902 -5.27351 -1.94569 0
M  V30 1143 H 109.053 -2.10394 0.291212 0
M  V30 1144 H 111.316 -0.945575 0.0677609 0
M  V30 1145 H 111.022 -3.50031 -0.342229 0
M  V30 1146 H 110.896 -3.16038 -2.05913 0
M  V30 1147 H 113.283 -2.17032 -1.99953 0
M  V30 1148 H 113.364 -2.54352 -0.271814 0
M  V30 1149 H 113.008 -5.01375 -0.81149 0
M  V30 1150 H 112.938 -4.61004 -2.54525 0
M  V30 1151 H 115.429 -3.48441 -1.46277 0
M  V30 1152 H 115.742 -7.34425 -2.405 0
M  V30 1153 H 114.087 -6.60272 -2.16948 0
M  V30 1154 H 117.278 -4.34801 -1.73394 0
M  V30 1155 H 117.451 -6.10805 -2.16381 0
M  V30 1156 N 110.857 0.726932 -1.39834 0
M  V30 1157 C 112.105 1.4837 -1.37225 0
M  V30 1158 C 112.426 1.94979 0.0284857 0
M  V30 1159 O 111.696 1.69555 0.981213 0
M  V30 1160 H 110.276 0.55043 -0.505011 0
M  V30 1161 H 112.938 0.862468 -1.74778 0
M  V30 1162 H 112.034 2.36198 -2.04003 0
M  V30 1163 N 112.336 1.25143 0.95797 0
M  V30 1164 C 113.747 1.08851 1.51685 0
M  V30 1165 C 114.098 -0.33687 1.93286 0
M  V30 1166 O 113.223 -1.22644 1.7829 0
M  V30 1167 C 113.818 1.96978 2.75654 0
M  V30 1168 C 112.377 1.84881 3.27866 0
M  V30 1169 C 111.524 1.91329 2.0072 0
M  V30 1170 H 114.475 1.38478 0.77522 0
M  V30 1171 H 114.496 1.5078 3.4935 0
M  V30 1172 H 114.008 3.00712 2.45345 0
M  V30 1173 H 112.109 0.840182 3.63004 0
M  V30 1174 H 112.222 2.6951 3.96107 0
M  V30 1175 H 110.586 1.35174 2.15871 0
M  V30 1176 H 111.369 2.96661 1.72764 0
M  V30 1177 N 113.814 -1.1601 1.06675 0
M  V30 1178 C 115.062 -1.86264 0.784229 0
M  V30 1179 C 115.383 -1.82328 -0.691488 0
M  V30 1180 O 114.653 -1.25947 -1.50047 0
M  V30 1181 H 113.233 -0.689621 0.28711 0
M  V30 1182 H 115.895 -1.40664 1.34906 0
M  V30 1183 H 114.991 -2.91595 1.11259 0
M  V30 1184 N 115.292 -0.849877 -1.32721 0
M  V30 1185 C 116.538 -0.451591 -1.97708 0
M  V30 1186 C 116.871 0.989175 -1.6712 0
M  V30 1187 O 116.146 1.69334 -0.956891 0
M  V30 1188 C 116.429 -0.685598 -3.53513 0
M  V30 1189 C 116.282 -2.17444 -3.93749 0
M  V30 1190 C 117.601 -0.138874 -4.39881 0
M  V30 1191 H 114.72 -0.16555 -0.718166 0
M  V30 1192 H 117.362 -1.06742 -1.57182 0
M  V30 1193 H 115.512 -0.161416 -3.88165 0
M  V30 1194 H 117.184 -2.76433 -3.693 0
M  V30 1195 H 115.427 -2.65476 -3.43081 0
M  V30 1196 H 116.098 -2.28888 -5.02309 0
M  V30 1197 H 118.574 -0.587068 -4.11938 0
M  V30 1198 H 117.45 -0.332213 -5.47894 0
M  V30 1199 H 117.711 0.95806 -4.31594 0
M  V30 1200 N 116.77 1.45427 -0.607355 0
M  V30 1201 C 118.181 1.85756 -0.187535 0
M  V30 1202 C 118.532 1.5077 1.25551 0
M  V30 1203 O 117.657 0.93427 1.95193 0
M  V30 1204 C 118.252 3.37154 -0.333572 0
M  V30 1205 C 116.811 3.76387 0.0315542 0
M  V30 1206 C 115.958 2.69377 -0.658117 0
M  V30 1207 H 118.909 1.36231 -0.81405 0
M  V30 1208 H 118.93 3.78014 0.43428 0
M  V30 1209 H 118.442 3.62586 -1.38393 0
M  V30 1210 H 116.543 3.56571 1.0811 0
M  V30 1211 H 116.656 4.77731 -0.361935 0
M  V30 1212 H 115.02 2.5452 -0.0957873 0
M  V30 1213 H 115.803 2.97646 -1.7106 0
M  V30 1214 N 118.248 0.346503 1.53744 0
M  V30 1215 C 119.495 -0.249104 2.00962 0
M  V30 1216 C 119.823 -1.5032 1.23426 0
M  V30 1217 O 119.078 -1.93217 0.310761 0
M  V30 1218 C 119.377 -0.605809 3.52228 0
M  V30 1219 C 119.043 0.551747 4.47512 0
M  V30 1220 C 117.705 0.86941 4.73281 0
M  V30 1221 C 120.057 1.32818 5.03993 0
M  V30 1222 C 117.385 1.96582 5.52786 0
M  V30 1223 C 119.737 2.41486 5.84694 0
M  V30 1224 C 118.401 2.73808 6.08757 0
M  V30 1225 H 117.671 -0.0911538 0.735372 0
M  V30 1226 H 120.318 0.475027 1.85515 0
M  V30 1227 H 118.623 -1.4107 3.65522 0
M  V30 1228 H 120.32 -1.07858 3.86222 0
M  V30 1229 H 116.91 0.294102 4.2759 0
M  V30 1230 H 121.094 1.09602 4.84047 0
M  V30 1231 H 116.35 2.22045 5.69654 0
M  V30 1232 H 120.524 3.02078 6.27473 0
M  V30 1233 H 118.151 3.58892 6.7015 0
M  V30 1234 N 119.726 -1.57421 0.075193 0
M  V30 1235 C 120.658 -2.09904 -0.920483 0
M  V30 1236 C 121.671 -1.03191 -1.25918 0
M  V30 1237 O 122.86 -1.30695 -1.21577 0
M  V30 1238 C 119.96 -2.54726 -2.23534 0
M  V30 1239 C 119.133 -3.8505 -2.07498 0
M  V30 1240 C 118.192 -4.15929 -3.22319 0
M  V30 1241 O 117.218 -4.85474 -2.9716 0
M  V30 1242 N 118.42 -3.69745 -4.47514 0
M  V30 1243 H 121.185 -2.95954 -0.472359 0
M  V30 1244 H 118.746 -1.61523 -0.110444 0
M  V30 1245 H 120.738 -2.72443 -2.9926 0
M  V30 1246 H 119.308 -1.73795 -2.59835 0
M  V30 1247 H 118.528 -3.76679 -1.16219 0
M  V30 1248 H 119.816 -4.70348 -1.94038 0
M  V30 1249 H 119.214 -3.13569 -4.7084 0
M  V30 1250 H 117.771 -3.92655 -5.20255 0
M  V30 1251 N 121.204 0.198386 -1.56346 0
M  V30 1252 C 122.62 0.549085 -1.49857 0
M  V30 1253 C 122.82 1.86016 -0.774611 0
M  V30 1254 O 121.876 2.50416 -0.323776 0
M  V30 1255 C 123.189 0.606868 -2.94512 0
M  V30 1256 C 124.737 0.695925 -3.05165 0
M  V30 1257 C 125.212 0.784848 -4.51225 0
M  V30 1258 N 126.703 0.848463 -4.55363 0
M  V30 1259 C 127.438 0.937378 -5.65686 0
M  V30 1260 N 126.934 0.9888 -6.85707 0
M  V30 1261 N 128.727 0.974312 -5.53592 0
M  V30 1262 H 120.878 -0.661655 -2.01831 0
M  V30 1263 H 123.141 -0.235261 -0.918344 0
M  V30 1264 H 122.847 -0.28732 -3.50524 0
M  V30 1265 H 122.721 1.46268 -3.47686 0
M  V30 1266 H 125.108 1.58055 -2.49204 0
M  V30 1267 H 125.189 -0.186022 -2.55123 0
M  V30 1268 H 124.833 -0.0954072 -5.0781 0
M  V30 1269 H 124.763 1.68255 -4.98997 0
M  V30 1270 H 127.254 0.818103 -3.68938 0
M  V30 1271 H 127.567 1.05707 -7.65536 0
M  V30 1272 H 125.912 0.957534 -6.88372 0
M  V30 1273 H 129.103 0.930954 -4.58749 0
M  V30 1274 H 129.276 1.04015 -6.39597 0
M  V30 1275 N 122.682 1.50554 0.465978 0
M  V30 1276 C 123.93 1.61479 1.21528 0
M  V30 1277 C 124.251 0.319596 1.92363 0
M  V30 1278 O 123.521 -0.663194 1.84333 0
M  V30 1279 H 122.101 0.595055 0.451573 0
M  V30 1280 H 124.763 1.87355 0.53704 0
M  V30 1281 H 123.859 2.42846 1.96042 0
M  V30 1282 N 124.16 -0.719506 1.40217 0
M  V30 1283 C 125.092 -1.84428 1.36084 0
M  V30 1284 C 126.105 -1.60597 0.266913 0
M  V30 1285 O 127.294 -1.70544 0.526983 0
M  V30 1286 C 124.394 -3.20757 1.094 0
M  V30 1287 C 123.567 -3.71817 2.30372 0
M  V30 1288 C 122.626 -4.86748 1.99907 0
M  V30 1289 O 121.652 -4.99603 2.72737 0
M  V30 1290 N 122.854 -5.7226 0.974635 0
M  V30 1291 H 125.619 -1.88473 2.33019 0
M  V30 1292 H 123.18 -0.900885 1.3452 0
M  V30 1293 H 125.172 -3.95235 0.870116 0
M  V30 1294 H 123.742 -3.11884 0.211452 0
M  V30 1295 H 122.962 -2.88514 2.68614 0
M  V30 1296 H 124.25 -4.02666 3.11026 0
M  V30 1297 H 123.648 -5.6448 0.371368 0
M  V30 1298 H 122.205 -6.46739 0.810656 0
M  V30 1299 N 125.638 -1.25649 -0.95132 0
M  V30 1300 C 127.049 -1.09654 -1.51106 0
M  V30 1301 C 127.4 0.326615 -1.93462 0
M  V30 1302 O 126.525 1.21697 -1.78938 0
M  V30 1303 C 127.12 -1.98437 -2.74605 0
M  V30 1304 C 125.679 -1.86618 -3.2688 0
M  V30 1305 C 124.826 -1.9239 -1.99703 0
M  V30 1306 H 127.777 -1.38887 -0.767865 0
M  V30 1307 H 127.798 -1.5263 -3.48546 0
M  V30 1308 H 127.31 -3.02009 -2.43746 0
M  V30 1309 H 125.411 -0.859421 -3.62553 0
M  V30 1310 H 125.524 -2.71607 -3.94673 0
M  V30 1311 H 123.888 -1.36317 -2.15151 0
M  V30 1312 H 124.671 -2.97573 -1.71188 0
M  V30 1313 N 127.117 1.15442 -1.07289 0
M  V30 1314 C 128.364 1.86213 -0.795668 0
M  V30 1315 C 128.692 1.82291 0.678238 0
M  V30 1316 O 127.947 1.24057 1.51355 0
M  V30 1317 C 128.246 3.3489 -1.24834 0
M  V30 1318 C 127.912 3.59007 -2.72809 0
M  V30 1319 C 126.574 3.65298 -3.13227 0
M  V30 1320 C 128.926 3.68762 -3.68326 0
M  V30 1321 C 126.254 3.78854 -4.4798 0
M  V30 1322 C 128.606 3.83842 -5.0284 0
M  V30 1323 C 127.27 3.88378 -5.4288 0
M  V30 1324 H 126.54 0.681403 -0.291155 0
M  V30 1325 H 129.187 1.36435 -1.34379 0
M  V30 1326 H 127.492 3.8687 -0.619595 0
M  V30 1327 H 129.189 3.88052 -1.01076 0
M  V30 1328 H 125.779 3.5475 -2.40521 0
M  V30 1329 H 129.963 3.63202 -3.38227 0
M  V30 1330 H 125.219 3.80623 -4.78472 0
M  V30 1331 H 129.393 3.90332 -5.76727 0
M  V30 1332 H 127.02 3.98635 -6.47298 0
M  V30 1333 N 128.595 0.856903 1.32268 0
M  V30 1334 C 129.505 0.306131 2.32594 0
M  V30 1335 C 130.521 -0.577209 1.64147 0
M  V30 1336 O 131.697 -0.477043 1.95669 0
M  V30 1337 C 128.762 -0.494561 3.43154 0
M  V30 1338 C 127.823 0.415186 4.27288 0
M  V30 1339 C 127.056 -0.347387 5.32568 0
M  V30 1340 O 127.279 -1.57708 5.48165 0
M  V30 1341 O 126.213 0.287982 6.01211 0
M  V30 1342 H 130.039 1.13737 2.81598 0
M  V30 1343 H 127.624 0.619902 1.35932 0
M  V30 1344 H 129.506 -0.948944 4.10576 0
M  V30 1345 H 128.181 -1.30257 2.96336 0
M  V30 1346 H 127.088 0.917793 3.62667 0
M  V30 1347 H 128.421 1.18844 4.77637 0
M  V30 1348 N 130.073 -1.45103 0.615059 0
M  V30 1349 C 131.319 -2.02483 0.113347 0
M  V30 1350 C 131.652 -1.48146 -1.25564 0
M  V30 1351 O 130.927 -0.659104 -1.82992 0
M  V30 1352 C 131.21 -3.60005 0.0825278 0
M  V30 1353 C 131.063 -4.2466 1.48271 0
M  V30 1354 C 132.382 -4.35972 -0.601401 0
M  V30 1355 H 129.501 -0.735764 0.0426632 0
M  V30 1356 H 132.143 -1.72868 0.788461 0
M  V30 1357 H 130.293 -3.85367 -0.492378 0
M  V30 1358 H 131.965 -4.10458 2.10527 0
M  V30 1359 H 130.208 -3.82772 2.04127 0
M  V30 1360 H 130.879 -5.336 1.41332 0
M  V30 1361 H 133.355 -4.15947 -0.112666 0
M  V30 1362 H 132.231 -5.45697 -0.592097 0
M  V30 1363 H 132.492 -4.09391 -1.66887 0
M  V30 1364 N 131.551 -0.354651 -1.53558 0
M  V30 1365 C 132.481 0.489091 -2.2832 0
M  V30 1366 C 133.462 1.09324 -1.30316 0
M  V30 1367 O 134.647 1.11255 -1.59173 0
M  V30 1368 C 131.777 1.63456 -3.0643 0
M  V30 1369 C 130.731 1.1582 -4.12031 0
M  V30 1370 C 130.057 2.39305 -4.7816 0
M  V30 1371 C 131.357 0.250731 -5.21698 0
M  V30 1372 H 133.051 -0.134614 -2.99097 0
M  V30 1373 H 130.597 -0.0661826 -1.43848 0
M  V30 1374 H 132.55 2.23136 -3.57475 0
M  V30 1375 H 131.274 2.28533 -2.33325 0
M  V30 1376 H 129.933 0.584146 -3.61916 0
M  V30 1377 H 129.581 3.02814 -4.01637 0
M  V30 1378 H 129.281 2.08109 -5.49513 0
M  V30 1379 H 130.805 2.99691 -5.31994 0
M  V30 1380 H 132.219 0.754695 -5.68311 0
M  V30 1381 H 130.616 0.0301468 -6.00092 0
M  V30 1382 H 131.686 -0.710125 -4.79672 0
M  V30 1383 N 133.029 1.57378 -0.0835403 0
M  V30 1384 C 134.278 1.93106 0.582498 0
M  V30 1385 C 134.591 0.96651 1.70053 0
M  V30 1386 O 135.797 1.21705 2.42693 0
M  V30 1387 C 134.253 3.43076 1.08751 0
M  V30 1388 C 133.861 4.48 -0.000146404 0
M  V30 1389 C 135.605 3.87785 1.72694 0
M  V30 1390 C 133.512 5.89113 0.519568 0
M  V30 1391 H 132.442 0.720775 0.221358 0
M  V30 1392 H 135.093 1.82821 -0.157675 0
M  V30 1393 H 133.475 3.48474 1.88101 0
M  V30 1394 H 134.649 4.54233 -0.775199 0
M  V30 1395 H 132.964 4.1283 -0.54406 0
M  V30 1396 H 135.561 4.90604 2.1263 0
M  V30 1397 H 135.904 3.25796 2.59158 0
M  V30 1398 H 136.437 3.8504 0.999457 0
M  V30 1399 H 133.176 6.54775 -0.308186 0
M  V30 1400 H 132.696 5.86376 1.26188 0
M  V30 1401 H 134.375 6.39346 0.992237 0
M  V30 1402 N 134.507 -0.190092 1.56449 0
M  V30 1403 C 135.756 -0.907912 1.80111 0
M  V30 1404 C 136.069 -1.84214 0.657619 0
M  V30 1405 O 137.275 -2.60094 0.778663 0
M  V30 1406 C 135.731 -1.66485 3.19078 0
M  V30 1407 C 135.339 -0.7752 4.41242 0
M  V30 1408 C 137.083 -2.37201 3.52045 0
M  V30 1409 C 134.99 -1.53129 5.71231 0
M  V30 1410 H 133.92 -0.34276 0.671589 0
M  V30 1411 H 136.571 -0.161109 1.82791 0
M  V30 1412 H 134.953 -2.45572 3.10661 0
M  V30 1413 H 136.127 -0.0226298 4.60794 0
M  V30 1414 H 134.442 -0.178627 4.16017 0
M  V30 1415 H 137.039 -2.94329 4.46402 0
M  V30 1416 H 137.382 -3.11632 2.76028 0
M  V30 1417 H 137.915 -1.65075 3.61932 0
M  V30 1418 H 134.654 -0.82967 6.50228 0
M  V30 1419 H 134.174 -2.25767 5.55688 0
M  V30 1420 H 135.853 -2.08377 6.12526 0
M  V30 1421 N 135.985 -1.50799 -0.457987 0
M  V30 1422 C 136.948 -1.7005 -1.53674 0
M  V30 1423 C 137.948 -0.570881 -1.50325 0
M  V30 1424 O 139.138 -0.838126 -1.52712 0
M  V30 1425 C 136.27 -1.73788 -2.93276 0
M  V30 1426 H 137.463 -2.66306 -1.37917 0
M  V30 1427 H 135.016 -1.40477 -0.685271 0
M  V30 1428 H 135.751 -0.792717 -3.14462 0
M  V30 1429 H 135.536 -2.55864 -2.97113 0
M  V30 1430 H 137.026 -1.90591 -3.71571 0
M  V30 1431 N 137.463 0.71206 -1.40597 0
M  V30 1432 C 138.688 1.50617 -1.42581 0
M  V30 1433 C 139.113 1.88079 -0.0282102 0
M  V30 1434 O 138.471 1.53511 0.964579 0
M  V30 1435 C 138.519 2.7557 -2.3258 0
M  V30 1436 O 137.623 3.72414 -1.77148 0
M  V30 1437 H 136.964 0.453966 -0.484573 0
M  V30 1438 H 139.494 0.876649 -1.84868 0
M  V30 1439 H 139.504 3.2406 -2.47889 0
M  V30 1440 H 138.179 2.47639 -3.34138 0
M  V30 1441 H 136.756 3.31276 -1.71204 0
M  V30 1442 N 138.941 1.26152 0.944643 0
M  V30 1443 C 140.218 1.02247 1.66748 0
M  V30 1444 C 140.598 -0.448202 2.06287 0
M  V30 1445 O 139.946 -1.42779 1.78399 0
M  V30 1446 C 140.156 1.96788 2.88228 0
M  V30 1447 C 141.504 2.25201 3.59958 0
M  V30 1448 O 142.528 1.94626 2.98327 0
M  V30 1449 O 141.387 2.77242 4.70956 0
M  V30 1450 H 138.481 0.388517 0.730057 0
M  V30 1451 H 141.027 1.37348 0.99668 0
M  V30 1452 H 139.799 2.96047 2.55875 0
M  V30 1453 H 139.422 1.62145 3.63035 0
M  V30 1454 N 140.419 -1.14872 1.07899 0
M  V30 1455 C 141.696 -1.81928 0.71845 0
M  V30 1456 C 142.076 -1.95417 -0.798455 0
M  V30 1457 O 141.424 -1.50997 -1.715 0
M  V30 1458 C 141.634 -3.17937 1.43935 0
M  V30 1459 C 142.982 -3.93501 1.59506 0
M  V30 1460 O 144.006 -3.27509 1.40058 0
M  V30 1461 O 142.865 -5.1183 1.91551 0
M  V30 1462 H 139.959 -0.78628 0.256305 0
M  V30 1463 H 142.505 -1.21934 1.18026 0
M  V30 1464 H 141.277 -3.0325 2.47295 0
M  V30 1465 H 140.9 -3.85619 0.968687 0
M  V30 1466 N 141.898 -0.863906 -1.31812 0
M  V30 1467 C 143.146 -0.470904 -1.96537 0
M  V30 1468 C 143.467 0.978771 -1.68657 0
M  V30 1469 O 142.737 1.6853 -0.998717 0
M  V30 1470 H 141.317 -0.171148 -0.72713 0
M  V30 1471 H 143.979 -1.10236 -1.60729 0
M  V30 1472 H 143.075 -0.623616 -3.05806 0
M  V30 1473 N 143.376 1.44774 -0.622745 0
M  V30 1474 C 144.623 2.02121 -0.1239 0
M  V30 1475 C 144.951 1.48915 1.25118 0
M  V30 1476 O 144.206 0.660045 1.84233 0
M  V30 1477 C 144.505 3.57364 -0.0508323 0
M  V30 1478 C 144.171 4.29787 -1.36358 0
M  V30 1479 C 142.833 4.4929 -1.72314 0
M  V30 1480 C 145.185 4.71062 -2.23048 0
M  V30 1481 C 142.513 5.07325 -2.94682 0
M  V30 1482 C 144.865 5.30452 -3.44679 0
M  V30 1483 C 143.529 5.48175 -3.80868 0
M  V30 1484 H 142.799 0.739612 -0.0453381 0
M  V30 1485 H 145.446 1.73648 -0.807389 0
M  V30 1486 H 143.751 3.85202 0.715991 0
M  V30 1487 H 145.448 3.99456 0.351533 0
M  V30 1488 H 142.038 4.14932 -1.07375 0
M  V30 1489 H 146.222 4.55715 -1.96565 0
M  V30 1490 H 141.478 5.19235 -3.22809 0
M  V30 1491 H 145.652 5.61385 -4.12092 0
M  V30 1492 H 143.279 5.92912 -4.75773 0
M  V30 1493 N 144.854 0.36279 1.53368 0
M  V30 1494 C 145.801 -0.485008 2.25646 0
M  V30 1495 C 146.771 -1.07982 1.2621 0
M  V30 1496 O 147.956 -1.11284 1.54986 0
M  V30 1497 C 145.096 -1.62023 3.04701 0
M  V30 1498 C 144.209 -1.05086 4.19024 0
M  V30 1499 C 143.344 -2.15496 4.85525 0
M  V30 1500 C 142.383 -1.5601 5.91884 0
M  V30 1501 N 141.52 -2.60241 6.52088 0
M  V30 1502 H 146.36 0.137864 2.97681 0
M  V30 1503 H 143.897 0.0798061 1.46883 0
M  V30 1504 H 145.855 -2.28887 3.48807 0
M  V30 1505 H 144.485 -2.2138 2.34927 0
M  V30 1506 H 143.537 -0.27259 3.79422 0
M  V30 1507 H 144.849 -0.575926 4.95464 0
M  V30 1508 H 144.003 -2.90186 5.32801 0
M  V30 1509 H 142.742 -2.66341 4.08551 0
M  V30 1510 H 141.747 -0.798338 5.43973 0
M  V30 1511 H 142.972 -1.05994 6.70777 0
M  V30 1512 H 140.918 -3.10304 5.77968 0
M  V30 1513 H 140.835 -2.17426 7.24059 0
M  V30 1514 H 142.103 -3.34641 7.04014 0
M  V30 1515 N 146.332 -1.57332 0.0918853 0
M  V30 1516 C 147.295 -2.12708 -0.85369 0
M  V30 1517 C 148.295 -1.05561 -1.213 0
M  V30 1518 O 149.485 -1.31461 -1.14296 0
M  V30 1519 C 146.617 -2.64503 -2.15061 0
M  V30 1520 H 147.81 -2.97573 -0.3729 0
M  V30 1521 H 145.363 -1.55509 -0.157072 0
M  V30 1522 H 146.098 -1.83149 -2.67632 0
M  V30 1523 H 145.883 -3.4284 -1.90272 0
M  V30 1524 H 147.373 -3.07351 -2.82711 0
M  V30 1525 N 147.81 0.181792 -1.56548 0
M  V30 1526 C 149.056 0.901431 -1.81665 0
M  V30 1527 C 149.389 1.82347 -0.668075 0
M  V30 1528 O 148.664 1.91669 0.330615 0
M  V30 1529 C 148.947 1.70618 -3.17115 0
M  V30 1530 C 148.8 0.807964 -4.42484 0
M  V30 1531 C 150.119 2.67605 -3.49393 0
M  V30 1532 H 147.238 0.32627 -0.660846 0
M  V30 1533 H 149.88 0.168134 -1.89255 0
M  V30 1534 H 148.03 2.33133 -3.10775 0
M  V30 1535 H 149.702 0.19649 -4.60881 0
M  V30 1536 H 147.945 0.115411 -4.33646 0
M  V30 1537 H 148.616 1.40632 -5.33785 0
M  V30 1538 H 151.092 2.15218 -3.56118 0
M  V30 1539 H 149.968 3.20985 -4.45264 0
M  V30 1540 H 150.229 3.47298 -2.73563 0
M  V30 1541 N 149.288 1.51039 0.449983 0
M  V30 1542 C 150.534 1.63322 1.20223 0
M  V30 1543 C 150.867 0.34241 1.91158 0
M  V30 1544 O 150.142 -0.657344 1.83055 0
M  V30 1545 C 150.425 2.82801 2.22925 0
M  V30 1546 C 150.278 4.21823 1.56157 0
M  V30 1547 C 151.597 2.97807 3.24035 0
M  V30 1548 H 148.716 0.594407 0.435718 0
M  V30 1549 H 151.358 1.83489 0.493136 0
M  V30 1550 H 149.508 2.65738 2.834 0
M  V30 1551 H 151.18 4.50526 0.991162 0
M  V30 1552 H 149.423 4.25105 0.864172 0
M  V30 1553 H 150.094 5.01391 2.30891 0
M  V30 1554 H 152.57 3.13497 2.73603 0
M  V30 1555 H 151.446 3.82992 3.93202 0
M  V30 1556 H 151.707 2.09328 3.89402 0
M  V30 1557 N 150.766 -0.704594 1.40972 0
M  V30 1558 C 152.014 -1.46169 1.39568 0
M  V30 1559 C 152.335 -1.95 0.00253745 0
M  V30 1560 O 151.605 -1.71095 -0.954114 0
M  V30 1561 H 150.185 -0.542326 0.513704 0
M  V30 1562 H 152.847 -0.834553 1.76128 0
M  V30 1563 H 151.943 -2.32922 2.07735 0
M  V30 1564 N 152.244 -1.26651 -0.937939 0
M  V30 1565 C 153.521 -1.0313 -1.66204 0
M  V30 1566 C 153.901 0.437256 -2.06522 0
M  V30 1567 O 153.249 1.41831 -1.79154 0
M  V30 1568 C 153.459 -1.98314 -2.87181 0
M  V30 1569 C 154.807 -2.27107 -3.58758 0
M  V30 1570 O 155.831 -1.96205 -2.97291 0
M  V30 1571 O 154.69 -2.79736 -4.69479 0
M  V30 1572 H 151.784 -0.392384 -0.727986 0
M  V30 1573 H 154.33 -1.37874 -0.989382 0
M  V30 1574 H 153.102 -2.97399 -2.54302 0
M  V30 1575 H 152.725 -1.64068 -3.6217 0
M  V30 1576 N 153.722 1.14298 -1.08507 0
M  V30 1577 C 154.685 2.17607 -0.719711 0
M  V30 1578 C 155.685 1.58907 0.245997 0
M  V30 1579 O 156.875 1.74181 0.0254081 0
M  V30 1580 C 154.007 3.40842 -0.0627695 0
M  V30 1581 H 155.2 2.51443 -1.63452 0
M  V30 1582 H 152.753 1.28963 -0.88307 0
M  V30 1583 H 153.488 3.12587 0.863716 0
M  V30 1584 H 153.273 3.84713 -0.757504 0
M  V30 1585 H 154.763 4.17221 0.177786 0
M  V30 1586 N 155.201 0.870884 1.31352 0
M  V30 1587 C 156.133 0.28455 2.27427 0
M  V30 1588 C 157.146 -0.552927 1.53123 0
M  V30 1589 O 158.335 -0.374771 1.74521 0
M  V30 1590 C 155.435 -0.615164 3.3327 0
M  V30 1591 C 154.608 0.190079 4.36987 0
M  V30 1592 C 153.667 -0.637917 5.22319 0
M  V30 1593 O 152.693 -0.065626 5.69162 0
M  V30 1594 N 153.895 -1.94973 5.46778 0
M  V30 1595 H 156.66 1.11017 2.7838 0
M  V30 1596 H 154.221 0.732458 1.44384 0
M  V30 1597 H 156.213 -1.1748 3.87273 0
M  V30 1598 H 154.783 -1.34146 2.82354 0
M  V30 1599 H 154.003 0.931165 3.83044 0
M  V30 1600 H 155.291 0.742579 5.03352 0
M  V30 1601 H 154.689 -2.4378 5.10478 0
M  V30 1602 H 153.246 -2.45713 6.03712 0
M  V30 1603 N 156.679 -1.44442 0.630414 0
M  V30 1604 C 157.909 -2.06115 0.141465 0
M  V30 1605 C 158.317 -1.47179 -1.1889 0
M  V30 1606 O 157.66 -0.588873 -1.74006 0
M  V30 1607 C 157.722 -3.59467 -0.0484355 0
M  V30 1608 C 157.386 -4.40864 1.20366 0
M  V30 1609 C 158.383 -4.74391 2.12719 0
M  V30 1610 C 156.068 -4.8125 1.43887 0
M  V30 1611 C 158.062 -5.47186 3.26904 0
M  V30 1612 C 155.749 -5.53795 2.5837 0
M  V30 1613 C 156.747 -5.86682 3.49705 0
M  V30 1614 O 156.435 -6.57749 4.62191 0
M  V30 1615 H 156.167 -0.671648 0.0765792 0
M  V30 1616 H 158.721 -1.86312 0.864695 0
M  V30 1617 H 156.951 -3.77758 -0.826803 0
M  V30 1618 H 158.64 -4.02909 -0.491849 0
M  V30 1619 H 159.406 -4.43728 1.95781 0
M  V30 1620 H 155.285 -4.55073 0.736853 0
M  V30 1621 H 158.829 -5.72773 3.98217 0
M  V30 1622 H 154.726 -5.83872 2.75251 0
M  V30 1623 H 155.494 -6.76217 4.61164 0
M  V30 1624 N 158.157 -0.370918 -1.53173 0
M  V30 1625 C 159.107 0.489588 -2.22681 0
M  V30 1626 C 160.091 1.04442 -1.22395 0
M  V30 1627 O 161.283 0.973578 -1.47819 0
M  V30 1628 C 158.412 1.626 -3.02351 0
M  V30 1629 C 157.498 1.08379 -4.10018 0
M  V30 1630 N 157.889 0.265004 -5.05105 0
M  V30 1631 C 156.187 1.35809 -4.2482 0
M  V30 1632 C 156.888 -0.0324755 -5.81691 0
M  V30 1633 N 155.864 0.566581 -5.40639 0
M  V30 1634 H 159.666 -0.142729 -2.93553 0
M  V30 1635 H 157.18 -0.179221 -1.61408 0
M  V30 1636 H 159.177 2.2547 -3.50669 0
M  V30 1637 H 157.837 2.26132 -2.33011 0
M  V30 1638 H 158.848 -0.0962352 -5.17811 0
M  V30 1639 H 155.525 1.9958 -3.66707 0
M  V30 1640 H 156.915 -0.69473 -6.68299 0
M  V30 1641 N 159.635 1.57281 -0.100228 0
M  V30 1642 C 160.585 2.10848 0.86759 0
M  V30 1643 C 161.569 1.02473 1.24049 0
M  V30 1644 O 162.761 1.28739 1.21471 0
M  V30 1645 C 159.89 2.69648 2.12474 0
M  V30 1646 C 158.976 3.85074 1.77704 0
M  V30 1647 N 159.367 4.92897 1.13518 0
M  V30 1648 C 157.665 3.94905 2.07282 0
M  V30 1649 C 158.366 5.73475 0.974735 0
M  V30 1650 N 157.342 5.22675 1.4937 0
M  V30 1651 H 161.144 2.91594 0.367471 0
M  V30 1652 H 158.658 1.62074 0.102829 0
M  V30 1653 H 160.655 3.06356 2.82757 0
M  V30 1654 H 159.315 1.90359 2.63047 0
M  V30 1655 H 160.326 5.11662 0.801381 0
M  V30 1656 H 157.003 3.26633 2.60033 0
M  V30 1657 H 158.393 6.70238 0.472364 0
M  V30 1658 N 161.113 -0.173488 1.56642 0
M  V30 1659 C 162.36 -0.890465 1.81871 0
M  V30 1660 C 162.688 -1.82339 0.67696 0
M  V30 1661 O 161.943 -1.92795 -0.335926 0
M  V30 1662 C 162.242 -1.72069 3.13252 0
M  V30 1663 C 161.908 -0.936878 4.41059 0
M  V30 1664 C 160.57 -0.720545 4.75775 0
M  V30 1665 C 162.922 -0.386919 5.19762 0
M  V30 1666 C 160.25 0.0568829 5.86672 0
M  V30 1667 C 162.602 0.37741 6.31473 0
M  V30 1668 C 161.266 0.604563 6.64757 0
M  V30 1669 H 160.536 -0.325844 0.665512 0
M  V30 1670 H 163.183 -0.155527 1.90867 0
M  V30 1671 H 161.488 -2.52496 2.99588 0
M  V30 1672 H 163.185 -2.27844 3.29982 0
M  V30 1673 H 159.775 -1.11553 4.13828 0
M  V30 1674 H 163.959 -0.541398 4.93338 0
M  V30 1675 H 159.215 0.242635 6.10918 0
M  V30 1676 H 163.389 0.810825 6.91664 0
M  V30 1677 H 161.016 1.20885 7.50527 0
M  V30 1678 N 162.591 -1.51276 -0.441967 0
M  V30 1679 C 164.007 -1.39349 -0.778083 0
M  V30 1680 C 164.207 -0.472212 -1.95889 0
M  V30 1681 O 163.263 0.0743551 -2.5239 0
M  V30 1682 C 164.576 -2.81292 -1.0628 0
M  V30 1683 C 166.124 -2.9041 -1.16751 0
M  V30 1684 C 166.599 -4.33251 -1.48519 0
M  V30 1685 N 168.09 -4.36336 -1.55453 0
M  V30 1686 C 168.825 -5.43885 -1.81596 0
M  V30 1687 N 168.321 -6.61601 -2.05562 0
M  V30 1688 N 170.114 -5.3136 -1.8334 0
M  V30 1689 H 162.265 -2.09729 0.335774 0
M  V30 1690 H 164.528 -0.943925 0.0878028 0
M  V30 1691 H 164.234 -3.50678 -0.267905 0
M  V30 1692 H 164.108 -3.20334 -1.99163 0
M  V30 1693 H 166.495 -2.21225 -1.95304 0
M  V30 1694 H 166.576 -2.54871 -0.217801 0
M  V30 1695 H 166.22 -5.02984 -0.704958 0
M  V30 1696 H 166.15 -4.66299 -2.44689 0
M  V30 1697 H 168.641 -3.51466 -1.38853 0
M  V30 1698 H 168.954 -7.39361 -2.24867 0
M  V30 1699 H 167.299 -6.64725 -2.02894 0
M  V30 1700 H 170.49 -4.38382 -1.64132 0
M  V30 1701 H 170.663 -6.15258 -2.03377 0
M  V30 1702 N 164.069 0.697108 -1.41344 0
M  V30 1703 C 165.019 1.80313 -1.39539 0
M  V30 1704 C 166.003 1.58618 -0.270001 0
M  V30 1705 O 167.195 1.69477 -0.510551 0
M  V30 1706 C 164.324 3.18606 -1.27848 0
M  V30 1707 C 163.41 3.46001 -2.45244 0
M  V30 1708 N 163.801 3.44103 -3.70711 0
M  V30 1709 C 162.099 3.76542 -2.39023 0
M  V30 1710 C 162.8 3.7036 -4.48563 0
M  V30 1711 N 161.776 3.90027 -3.78655 0
M  V30 1712 H 165.578 1.77207 -2.34468 0
M  V30 1713 H 163.092 0.897031 -1.35378 0
M  V30 1714 H 165.089 3.97833 -1.24637 0
M  V30 1715 H 163.749 3.22925 -0.339032 0
M  V30 1716 H 164.76 3.2452 -4.03618 0
M  V30 1717 H 161.437 3.88241 -1.53542 0
M  V30 1718 H 162.827 3.75042 -5.57488 0
M  V30 1719 N 165.547 1.27147 0.931209 0
M  V30 1720 C 166.963 1.04475 1.20653 0
M  V30 1721 C 167.163 -0.223885 2.00252 0
M  V30 1722 O 166.219 -0.930332 2.34736 0
M  V30 1723 C 167.532 2.28209 1.95809 0
M  V30 1724 C 169.08 2.33211 2.08762 0
M  V30 1725 C 169.555 3.56665 2.87323 0
M  V30 1726 N 171.046 3.57201 2.94892 0
M  V30 1727 C 171.781 4.49395 3.56134 0
M  V30 1728 N 171.277 5.51889 4.18796 0
M  V30 1729 N 173.07 4.37026 3.53504 0
M  V30 1730 H 165.221 2.08612 0.399333 0
M  V30 1731 H 167.484 0.917312 0.239253 0
M  V30 1732 H 167.19 3.20538 1.44736 0
M  V30 1733 H 167.064 2.33247 2.96438 0
M  V30 1734 H 169.451 1.41391 2.59023 0
M  V30 1735 H 169.532 2.32178 1.07364 0
M  V30 1736 H 169.176 4.4882 2.37746 0
M  V30 1737 H 169.106 3.54948 3.88998 0
M  V30 1738 H 171.597 2.83074 2.50354 0
M  V30 1739 H 171.91 6.18409 4.63454 0
M  V30 1740 H 170.255 5.55735 4.17353 0
M  V30 1741 H 173.446 3.56166 3.03749 0
M  V30 1742 H 173.619 5.09067 4.00942 0
M  V30 1743 N 167.025 -1.13721 1.09112 0
M  V30 1744 C 167.955 -2.21148 0.749385 0
M  V30 1745 C 168.936 -1.6792 -0.271475 0
M  V30 1746 O 170.121 -1.93693 -0.140251 0
M  V30 1747 C 167.251 -3.46905 0.165659 0
M  V30 1748 C 166.205 -4.13203 1.11567 0
M  V30 1749 C 165.531 -5.33248 0.393809 0
M  V30 1750 C 166.831 -4.60912 2.45678 0
M  V30 1751 H 168.525 -2.4999 1.64758 0
M  V30 1752 H 166.071 -1.20156 0.793626 0
M  V30 1753 H 168.024 -4.21313 -0.085466 0
M  V30 1754 H 166.748 -3.17449 -0.767714 0
M  V30 1755 H 165.407 -3.40758 1.35202 0
M  V30 1756 H 165.055 -5.00054 -0.543599 0
M  V30 1757 H 164.755 -5.78552 1.02721 0
M  V30 1758 H 166.279 -6.10413 0.150908 0
M  V30 1759 H 167.693 -5.26759 2.26269 0
M  V30 1760 H 166.09 -5.16944 3.04776 0
M  V30 1761 H 167.16 -3.75603 3.06677 0
M  V30 1762 N 168.503 -0.877838 -1.30888 0
M  V30 1763 C 169.914 -0.544193 -1.78593 0
M  V30 1764 C 170.265 0.939301 -1.72254 0
M  V30 1765 O 169.39 1.7337 -1.29505 0
M  V30 1766 C 169.985 -0.98105 -3.24285 0
M  V30 1767 C 168.544 -0.698935 -3.69854 0
M  V30 1768 C 167.691 -1.168 -2.51502 0
M  V30 1769 H 170.642 -1.06278 -1.17859 0
M  V30 1770 H 170.663 -0.307009 -3.79259 0
M  V30 1771 H 170.175 -2.06079 -3.28866 0
M  V30 1772 H 168.276 0.369112 -3.70767 0
M  V30 1773 H 168.389 -1.28148 -4.61644 0
M  V30 1774 H 166.753 -0.587535 -2.47831 0
M  V30 1775 H 167.536 -2.25533 -2.58824 0
M  V30 1776 N 169.982 1.44106 -0.638065 0
M  V30 1777 C 170.912 2.33448 0.0494287 0
M  V30 1778 C 171.893 1.48606 0.827672 0
M  V30 1779 O 173.078 1.77308 0.792173 0
M  V30 1780 C 170.208 3.31771 1.02691 0
M  V30 1781 C 169.162 4.26485 0.359823 0
M  V30 1782 C 168.488 5.14729 1.44769 0
M  V30 1783 C 169.788 5.17056 -0.738296 0
M  V30 1784 H 171.482 2.91183 -0.696636 0
M  V30 1785 H 169.028 1.40014 -0.336456 0
M  V30 1786 H 170.981 3.93161 1.51666 0
M  V30 1787 H 169.705 2.7226 1.80395 0
M  V30 1788 H 168.364 3.66437 -0.10934 0
M  V30 1789 H 168.012 4.51566 2.21578 0
M  V30 1790 H 167.712 5.78913 1.00668 0
M  V30 1791 H 169.236 5.78991 1.93911 0
M  V30 1792 H 170.65 5.72342 -0.331354 0
M  V30 1793 H 169.047 5.89879 -1.10286 0
M  V30 1794 H 170.117 4.57652 -1.60258 0
M  V30 1795 N 171.46 0.379036 1.52974 0
M  V30 1796 C 172.423 -0.448865 2.24762 0
M  V30 1797 C 173.423 -0.998689 1.26027 0
M  V30 1798 O 174.613 -0.882313 1.50203 0
M  V30 1799 C 171.745 -1.62872 2.99476 0
M  V30 1800 H 172.938 0.179491 2.99362 0
M  V30 1801 H 170.491 0.13096 1.5575 0
M  V30 1802 H 171.226 -2.29479 2.29151 0
M  V30 1803 H 171.011 -1.24128 3.71934 0
M  V30 1804 H 172.501 -2.2151 3.5401 0
M  V30 1805 N 172.938 -1.57226 0.108567 0
M  V30 1806 C 174.354 -1.5766 -0.248058 0
M  V30 1807 C 174.554 -1.12063 -1.67464 0
M  V30 1808 O 173.61 -0.803236 -2.39383 0
M  V30 1809 C 174.923 -3.0069 -0.0242287 0
M  V30 1810 C 176.471 -3.12868 -0.0909372 0
M  V30 1811 C 176.946 -4.57879 0.105067 0
M  V30 1812 N 178.437 -4.63172 0.0506846 0
M  V30 1813 C 179.172 -5.73126 0.177396 0
M  V30 1814 N 178.668 -6.91866 0.359696 0
M  V30 1815 N 180.461 -5.61977 0.117709 0
M  V30 1816 H 172.612 -1.85169 1.04049 0
M  V30 1817 H 174.875 -0.85529 0.40888 0
M  V30 1818 H 174.581 -3.38299 0.961604 0
M  V30 1819 H 174.455 -3.6945 -0.76068 0
M  V30 1820 H 176.842 -2.75124 -1.06729 0
M  V30 1821 H 176.923 -2.46672 0.677225 0
M  V30 1822 H 176.567 -4.96321 1.07834 0
M  V30 1823 H 176.497 -5.22153 -0.682954 0
M  V30 1824 H 178.988 -3.778 -0.0871266 0
M  V30 1825 H 179.301 -7.71503 0.447529 0
M  V30 1826 H 177.646 -6.93874 0.395536 0
M  V30 1827 H 180.837 -4.68094 -0.0236741 0
M  V30 1828 H 181.01 -6.47627 0.219905 0
M  V30 1829 N 174.416 0.165178 -1.56732 0
M  V30 1830 C 175.662 0.882112 -1.82611 0
M  V30 1831 C 175.995 1.81628 -0.687378 0
M  V30 1832 O 175.27 1.92009 0.310267 0
M  V30 1833 C 175.553 1.67245 -3.18906 0
M  V30 1834 C 175.406 0.760987 -4.43316 0
M  V30 1835 C 176.725 2.63884 -3.52212 0
M  V30 1836 H 173.844 0.319242 -0.664269 0
M  V30 1837 H 176.486 0.148052 -1.89422 0
M  V30 1838 H 174.636 2.29824 -3.1323 0
M  V30 1839 H 176.308 0.147596 -4.61064 0
M  V30 1840 H 174.551 0.0694102 -4.33744 0
M  V30 1841 H 175.222 1.34962 -5.35247 0
M  V30 1842 H 177.698 2.11429 -3.58381 0
M  V30 1843 H 176.574 3.16245 -4.48643 0
M  V30 1844 H 176.835 3.44377 -2.77231 0
M  V30 1845 N 175.894 1.51508 0.433938 0
M  V30 1846 C 177.31 1.39759 0.770682 0
M  V30 1847 C 177.51 0.482594 1.95636 0
M  V30 1848 O 176.566 -0.0609691 2.52426 0
M  V30 1849 C 177.879 2.81851 1.04787 0
M  V30 1850 C 179.427 2.91025 1.1521 0
M  V30 1851 C 179.902 4.34032 1.46219 0
M  V30 1852 N 181.393 4.37154 1.53136 0
M  V30 1853 C 182.128 5.4484 1.78709 0
M  V30 1854 N 181.624 6.62682 2.02051 0
M  V30 1855 N 183.417 5.32324 1.80519 0
M  V30 1856 H 175.568 2.09548 -0.346892 0
M  V30 1857 H 177.831 0.943446 -0.0928074 0
M  V30 1858 H 177.537 3.50815 0.249304 0
M  V30 1859 H 177.411 3.21386 1.97461 0
M  V30 1860 H 179.798 2.22257 1.94128 0
M  V30 1861 H 179.879 2.54983 0.204281 0
M  V30 1862 H 179.523 5.03351 0.678274 0
M  V30 1863 H 179.453 4.6759 2.42212 0
M  V30 1864 H 181.944 3.52197 1.36987 0
M  V30 1865 H 182.257 7.40543 2.20943 0
M  V30 1866 H 180.602 6.65791 1.99366 0
M  V30 1867 H 183.793 4.39246 1.61805 0
M  V30 1868 H 183.966 6.16328 2.00111 0
M  V30 1869 N 177.372 -0.689602 1.41712 0
M  V30 1870 C 178.302 -1.81577 1.46806 0
M  V30 1871 C 179.283 -1.66945 0.326105 0
M  V30 1872 O 180.468 -1.86588 0.538377 0
M  V30 1873 C 177.598 -3.19762 1.35535 0
M  V30 1874 C 176.552 -3.49107 2.47605 0
M  V30 1875 C 175.878 -4.86711 2.21397 0
M  V30 1876 C 177.178 -3.47483 3.89939 0
M  V30 1877 H 178.872 -1.7757 2.41058 0
M  V30 1878 H 176.418 -0.852887 1.16025 0
M  V30 1879 H 178.371 -3.98263 1.3771 0
M  V30 1880 H 177.095 -3.24409 0.377708 0
M  V30 1881 H 175.754 -2.72959 2.44722 0
M  V30 1882 H 175.402 -4.8799 1.21961 0
M  V30 1883 H 175.102 -5.0731 2.96497 0
M  V30 1884 H 176.626 -5.67515 2.25297 0
M  V30 1885 H 178.04 -4.1598 3.94505 0
M  V30 1886 H 176.437 -3.79615 4.64771 0
M  V30 1887 H 177.507 -2.46341 4.17665 0
M  V30 1888 N 178.85 -1.27639 -0.924453 0
M  V30 1889 C 180.096 -1.14336 -1.67497 0
M  V30 1890 C 180.429 0.309465 -1.91718 0
M  V30 1891 O 179.704 1.22608 -1.50989 0
M  V30 1892 C 179.987 -1.93096 -3.0395 0
M  V30 1893 C 179.84 -3.46381 -2.8695 0
M  V30 1894 C 181.159 -1.73798 -4.0433 0
M  V30 1895 H 178.278 -0.416728 -0.607871 0
M  V30 1896 H 180.92 -1.56832 -1.07256 0
M  V30 1897 H 179.07 -1.56982 -3.55372 0
M  V30 1898 H 180.742 -3.92343 -2.42621 0
M  V30 1899 H 178.985 -3.72557 -2.22225 0
M  V30 1900 H 179.656 -3.96735 -3.83804 0
M  V30 1901 H 182.132 -2.05293 -3.61931 0
M  V30 1902 H 181.008 -2.31294 -4.97789 0
M  V30 1903 H 181.269 -0.686725 -4.36734 0
M  V30 1904 N 180.328 1.1314 -1.09713 0
M  V30 1905 C 181.238 2.22242 -0.751367 0
M  V30 1906 C 182.254 1.72224 0.247938 0
M  V30 1907 O 183.43 2.01205 0.0885463 0
M  V30 1908 C 180.495 3.46231 -0.180274 0
M  V30 1909 C 179.556 4.11125 -1.2359 0
M  V30 1910 C 178.789 5.29195 -0.691966 0
M  V30 1911 O 179.012 5.68342 0.48414 0
M  V30 1912 O 177.946 5.84214 -1.44838 0
M  V30 1913 H 181.772 2.54197 -1.66186 0
M  V30 1914 H 179.357 1.21331 -0.871735 0
M  V30 1915 H 181.239 4.21185 0.134739 0
M  V30 1916 H 179.914 3.1597 0.703185 0
M  V30 1917 H 178.821 3.37985 -1.60366 0
M  V30 1918 H 180.154 4.45524 -2.09211 0
M  V30 1919 N 181.806 0.884767 1.30421 0
M  V30 1920 C 183.052 0.503851 1.96441 0
M  V30 1921 C 183.385 -0.944518 1.69684 0
M  V30 1922 O 182.66 -1.66737 1.00145 0
M  V30 1923 C 182.943 0.779085 3.51571 0
M  V30 1924 C 182.796 2.27807 3.87846 0
M  V30 1925 C 184.115 0.255452 4.39358 0
M  V30 1926 H 181.234 0.184533 0.713524 0
M  V30 1927 H 183.876 1.10872 1.54297 0
M  V30 1928 H 182.026 0.264274 3.876 0
M  V30 1929 H 183.698 2.86127 3.61841 0
M  V30 1930 H 181.941 2.74479 3.35922 0
M  V30 1931 H 182.612 2.42125 4.96064 0
M  V30 1932 H 185.088 0.696079 4.10236 0
M  V30 1933 H 183.964 0.477361 5.4682 0
M  V30 1934 H 184.225 -0.843293 4.33983 0
M  V30 1935 N 183.284 -1.43765 0.645699 0
M  V30 1936 C 184.532 -2.01499 0.155731 0
M  V30 1937 C 184.853 -1.51151 -1.232 0
M  V30 1938 O 184.123 -0.721044 -1.82148 0
M  V30 1939 H 182.703 -0.745003 0.0545817 0
M  V30 1940 H 185.365 -1.76075 0.835677 0
M  V30 1941 H 184.461 -3.1181 0.134577 0
M  V30 1942 N 184.763 -0.387143 -1.52771 0
M  V30 1943 C 186.011 0.195349 -2.01154 0
M  V30 1944 C 186.332 1.475 -1.27549 0
M  V30 1945 O 185.602 1.91878 -0.394924 0
M  V30 1946 H 184.182 0.075178 -0.743207 0
M  V30 1947 H 186.844 -0.518337 -1.87881 0
M  V30 1948 H 185.94 0.407096 -3.09434 0
M  V30 1949 N 186.241 1.57166 -0.116904 0
M  V30 1950 C 187.518 1.86645 0.585049 0
M  V30 1951 C 187.898 1.0177 1.84949 0
M  V30 1952 O 187.246 0.0960379 2.28298 0
M  V30 1953 C 187.456 3.37736 0.879507 0
M  V30 1954 C 188.804 4.06289 1.23348 0
M  V30 1955 O 189.828 3.42743 0.969836 0
M  V30 1956 O 188.687 5.18455 1.7282 0
M  V30 1957 H 185.781 0.772593 0.295007 0
M  V30 1958 H 188.327 1.69025 -0.151249 0
M  V30 1959 H 187.099 3.91296 -0.0166136 0
M  V30 1960 H 186.722 3.6078 1.67103 0
M  V30 1961 N 187.719 -0.156864 1.56817 0
M  V30 1962 C 188.965 -0.872416 1.83076 0
M  V30 1963 C 189.298 -1.81261 0.697001 0
M  V30 1964 O 188.573 -1.92171 -0.30008 0
M  V30 1965 C 188.856 -1.65551 3.19789 0
M  V30 1966 C 188.709 -0.737467 4.43713 0
M  V30 1967 C 190.028 -2.62012 3.53606 0
M  V30 1968 H 187.147 -0.315715 0.665953 0
M  V30 1969 H 189.789 -0.138004 1.89498 0
M  V30 1970 H 187.939 -2.28159 3.14445 0
M  V30 1971 H 189.611 -0.123143 4.61136 0
M  V30 1972 H 187.854 -0.0464067 4.33775 0
M  V30 1973 H 188.525 -1.32122 5.35955 0
M  V30 1974 H 191.001 -2.09525 3.59497 0
M  V30 1975 H 189.877 -3.13861 4.50314 0
M  V30 1976 H 190.138 -3.42902 2.79053 0
M  V30 1977 N 189.197 -1.51736 -0.425897 0
M  V30 1978 C 190.129 -1.70083 -1.53638 0
M  V30 1979 C 191.142 -0.581349 -1.52066 0
M  V30 1980 O 192.331 -0.856017 -1.56635 0
M  V30 1981 C 189.431 -1.71078 -2.9255 0
M  V30 1982 C 188.604 -2.99795 -3.185 0
M  V30 1983 C 187.663 -2.92825 -4.37196 0
M  V30 1984 O 186.689 -3.66756 -4.35291 0
M  V30 1985 N 187.891 -2.0946 -5.41393 0
M  V30 1986 H 190.656 -2.65882 -1.383 0
M  V30 1987 H 188.217 -1.49765 -0.614988 0
M  V30 1988 H 190.209 -1.63969 -3.69995 0
M  V30 1989 H 188.779 -0.828242 -3.01428 0
M  V30 1990 H 187.999 -3.20684 -2.2925 0
M  V30 1991 H 189.287 -3.84977 -3.32671 0
M  V30 1992 H 188.685 -1.48792 -5.45781 0
M  V30 1993 H 187.242 -2.08221 -6.17647 0
M  V30 1994 N 190.675 0.682077 -1.42076 0
M  V30 1995 C 191.605 1.80796 -1.47767 0
M  V30 1996 C 192.586 1.6677 -0.334954 0
M  V30 1997 O 193.771 1.863 -0.548264 0
M  V30 1998 C 190.901 3.19038 -1.37229 0
M  V30 1999 C 189.855 3.47789 -2.49453 0
M  V30 2000 C 189.181 4.8553 -2.23975 0
M  V30 2001 C 190.481 3.45411 -3.91776 0
M  V30 2002 H 192.175 1.7629 -2.41997 0
M  V30 2003 H 189.721 0.846721 -1.16476 0
M  V30 2004 H 191.674 3.97528 -1.39821 0
M  V30 2005 H 190.398 3.24204 -0.394907 0
M  V30 2006 H 189.057 2.71657 -2.46166 0
M  V30 2007 H 188.705 4.87337 -1.24547 0
M  V30 2008 H 188.405 5.0573 -2.99184 0
M  V30 2009 H 189.929 5.66312 -2.28304 0
M  V30 2010 H 191.343 4.13882 -3.96705 0
M  V30 2011 H 189.74 3.77145 -4.66778 0
M  V30 2012 H 190.81 2.44122 -4.18966 0
M  V30 2013 N 192.153 1.28127 0.917671 0
M  V30 2014 C 193.43 1.05761 1.64542 0
M  V30 2015 C 193.81 -0.404344 2.07191 0
M  V30 2016 O 193.158 -1.38963 1.81388 0
M  V30 2017 C 193.368 2.02857 2.83989 0
M  V30 2018 C 194.716 2.32786 3.551 0
M  V30 2019 O 195.74 2.0091 2.94132 0
M  V30 2020 O 194.599 2.87169 4.64969 0
M  V30 2021 H 191.693 0.403916 0.721652 0
M  V30 2022 H 194.239 1.39431 0.967322 0
M  V30 2023 H 193.011 3.01407 2.49538 0
M  V30 2024 H 192.634 1.69809 3.59514 0
M  V30 2025 N 193.631 -1.12557 1.10312 0
M  V30 2026 C 194.856 -1.88405 0.867085 0
M  V30 2027 C 195.281 -1.79038 -0.576817 0
M  V30 2028 O 194.639 -1.14439 -1.40618 0
M  V30 2029 C 194.687 -3.3563 1.31851 0
M  V30 2030 O 193.791 -4.09565 0.482734 0
M  V30 2031 H 193.132 -0.585455 0.313271 0
M  V30 2032 H 195.662 -1.42352 1.4696 0
M  V30 2033 H 195.672 -3.86469 1.3079 0
M  V30 2034 H 194.347 -3.41765 2.37001 0
M  V30 2035 H 192.924 -3.68695 0.558448 0
M  V30 2036 N 195.109 -0.891671 -1.2995 0
M  V30 2037 C 196.355 -0.514261 -1.96171 0
M  V30 2038 C 196.688 0.935506 -1.70182 0
M  V30 2039 O 195.963 1.66204 -1.01028 0
M  V30 2040 C 196.246 -0.797719 -3.51153 0
M  V30 2041 C 196.099 -2.2986 -3.86632 0
M  V30 2042 C 197.418 -0.278749 -4.39216 0
M  V30 2043 H 194.537 -0.188314 -0.712535 0
M  V30 2044 H 197.179 -1.11689 -1.53706 0
M  V30 2045 H 195.329 -0.284826 -3.87455 0
M  V30 2046 H 197.001 -2.88042 -3.60319 0
M  V30 2047 H 195.244 -2.76257 -3.34462 0
M  V30 2048 H 195.915 -2.44753 -4.94773 0
M  V30 2049 H 198.391 -0.717825 -4.09862 0
M  V30 2050 H 197.267 -0.506353 -5.46559 0
M  V30 2051 H 197.528 0.820266 -4.34424 0
M  V30 2052 N 196.587 1.43421 -0.653314 0
M  V30 2053 C 198.003 1.56341 -0.320886 0
M  V30 2054 C 198.203 1.63696 1.17499 0
M  V30 2055 O 197.259 1.59208 1.95982 0
M  V30 2056 C 198.572 2.82424 -1.03233 0
M  V30 2057 C 200.12 2.96168 -1.01259 0
M  V30 2058 C 200.595 4.25084 -1.70492 0
M  V30 2059 N 202.086 4.31948 -1.67257 0
M  V30 2060 C 202.821 5.30466 -2.17701 0
M  V30 2061 N 202.317 6.35261 -2.76434 0
M  V30 2062 N 204.11 5.2212 -2.082 0
M  V30 2063 H 196.261 1.3689 -1.62403 0
M  V30 2064 H 198.524 0.657455 -0.682977 0
M  V30 2065 H 198.23 2.83053 -2.08744 0
M  V30 2066 H 198.104 3.72653 -0.583948 0
M  V30 2067 H 200.491 2.9508 0.0341235 0
M  V30 2068 H 200.572 2.07229 -1.49966 0
M  V30 2069 H 200.216 4.26932 -2.7512 0
M  V30 2070 H 200.146 5.1292 -1.19251 0
M  V30 2071 H 202.637 3.56838 -1.24398 0
M  V30 2072 H 202.95 7.06754 -3.12601 0
M  V30 2073 H 201.295 6.35884 -2.80495 0
M  V30 2074 H 204.486 4.39166 -1.62021 0
M  V30 2075 H 204.659 5.98739 -2.47822 0
M  V30 2076 N 198.065 0.39524 1.52563 0
M  V30 2077 C 199.314 -0.186321 2.00838 0
M  V30 2078 C 199.627 -1.47402 1.28577 0
M  V30 2079 O 200.833 -2.13599 1.67593 0
M  V30 2080 C 199.289 -0.382595 3.57861 0
M  V30 2081 C 198.897 0.892202 4.39026 0
M  V30 2082 C 200.641 -0.9202 4.14406 0
M  V30 2083 C 198.548 0.66388 5.87662 0
M  V30 2084 H 197.478 -0.0734041 0.750418 0
M  V30 2085 H 200.129 0.518552 1.76021 0
M  V30 2086 H 198.511 -1.14946 3.7895 0
M  V30 2087 H 199.685 1.66414 4.29701 0
M  V30 2088 H 198 1.35519 3.9373 0
M  V30 2089 H 200.597 -1.10683 5.23119 0
M  V30 2090 H 200.94 -1.89096 3.70875 0
M  V30 2091 H 201.473 -0.212751 3.97231 0
M  V30 2092 H 198.212 1.6058 6.35527 0
M  V30 2093 H 197.732 -0.0690193 5.9976 0
M  V30 2094 H 199.411 0.300699 6.46301 0
M  V30 2095 N 199.544 -1.57102 0.125237 0
M  V30 2096 C 200.791 -1.95407 -0.531248 0
M  V30 2097 C 201.119 -1.0089 -1.66287 0
M  V30 2098 O 200.374 -0.0339431 -1.95671 0
M  V30 2099 C 200.673 -3.40096 -1.09862 0
M  V30 2100 C 200.339 -4.50815 -0.0876989 0
M  V30 2101 C 199.001 -4.80824 0.19026 0
M  V30 2102 C 201.353 -5.17724 0.600902 0
M  V30 2103 C 198.681 -5.75058 1.163 0
M  V30 2104 C 201.033 -6.13005 1.56231 0
M  V30 2105 C 199.697 -6.41403 1.8482 0
M  V30 2106 H 198.967 -0.715046 -0.194397 0
M  V30 2107 H 201.614 -1.90373 0.207463 0
M  V30 2108 H 199.919 -3.41855 -1.91422 0
M  V30 2109 H 201.616 -3.6705 -1.61478 0
M  V30 2110 H 198.206 -4.27444 -0.314528 0
M  V30 2111 H 202.39 -4.94691 0.399333 0
M  V30 2112 H 197.646 -5.95362 1.39117 0
M  V30 2113 H 201.82 -6.63934 2.10153 0
M  V30 2114 H 199.447 -7.14229 2.60349 0
M  V30 2115 O 201.061 0.0139771 -1.61494 0
M  V30 2116 H 201.752 0.632534 -1.83081 0
M  V30 END ATOM
M  V30 BEGIN BOND
M  V30 END BOND
M  V30 END CTAB
M  END
$$$$
